
     RDKit          3D

 81 84  0  0  0  0  0  0  0  0999 V2000
   -5.2382    0.8321   -2.5469 O   0  0  0  0  0  0  0  0  0  0  0  0
   -5.8520    0.0142   -1.8761 C   0  0  0  0  0  0  0  0  0  0  0  0
   -7.1637    0.2090   -1.4745 N   0  0  0  0  0  0  0  0  0  0  0  0
   -7.8764    1.3925   -1.9234 C   0  0  0  0  0  0  0  0  0  0  0  0
   -9.1348    1.6406   -1.0961 C   0  0  0  0  0  0  0  0  0  0  0  0
   -8.7914    2.1242    0.3198 C   0  0  0  0  0  0  0  0  0  0  0  0
  -10.0046    2.4058    1.1049 N   0  0  0  0  0  0  0  0  0  0  0  0
  -10.6572    1.1810    1.6216 C   0  0  0  0  0  0  0  0  0  0  0  0
   -9.9120    0.5089    2.7897 C   0  0  0  0  0  0  0  0  0  0  0  0
   -9.6783    1.4257    3.8650 O   0  0  0  0  0  0  0  0  0  0  0  0
   -8.9573    2.5744    3.4038 C   0  0  0  0  0  0  0  0  0  0  0  0
   -9.7074    3.2814    2.2636 C   0  0  0  0  0  0  0  0  0  0  0  0
   -5.3866   -1.1920   -1.3974 N   0  0  0  0  0  0  0  0  0  0  0  0
   -4.1414   -1.7979   -1.6539 C   0  0  0  0  0  0  0  0  0  0  0  0
   -3.2192   -1.3173   -2.5828 C   0  0  0  0  0  0  0  0  0  0  0  0
   -2.0062   -1.9847   -2.7901 C   0  0  0  0  0  0  0  0  0  0  0  0
   -1.6945   -3.1453   -2.0704 C   0  0  0  0  0  0  0  0  0  0  0  0
   -0.3852   -3.8669   -2.3011 C   0  0  0  0  0  0  0  0  0  0  0  0
    0.8451   -3.0637   -1.9429 C   0  0  0  0  0  0  0  0  0  0  0  0
    1.8547   -2.8555   -2.8892 C   0  0  0  0  0  0  0  0  0  0  0  0
    3.0006   -2.1200   -2.5645 C   0  0  0  0  0  0  0  0  0  0  0  0
    3.1594   -1.5821   -1.2884 C   0  0  0  0  0  0  0  0  0  0  0  0
    4.2670   -0.8043   -0.8989 N   0  0  0  0  0  0  0  0  0  0  0  0
    5.4268   -0.5802   -1.6065 C   0  0  0  0  0  0  0  0  0  0  0  0
    5.7649   -1.1073   -2.6563 O   0  0  0  0  0  0  0  0  0  0  0  0
    6.2168    0.3460   -0.9489 N   0  0  0  0  0  0  0  0  0  0  0  0
    7.4515    0.7944   -1.5670 C   0  0  0  0  0  0  0  0  0  0  0  0
    8.3646    1.5062   -0.5732 C   0  0  0  0  0  0  0  0  0  0  0  0
    8.9628    0.5294    0.4483 C   0  0  0  0  0  0  0  0  0  0  0  0
    9.7872    1.2275    1.4434 N   0  0  0  0  0  0  0  0  0  0  0  0
    9.9782    0.3962    2.6499 C   0  0  0  0  0  0  0  0  0  0  0  0
   11.1030    0.9527    3.5355 C   0  0  0  0  0  0  0  0  0  0  0  0
   12.3866    0.9380    2.8959 O   0  0  0  0  0  0  0  0  0  0  0  0
   12.3005    0.9160    1.4670 C   0  0  0  0  0  0  0  0  0  0  0  0
   11.0901    1.6913    0.9180 C   0  0  0  0  0  0  0  0  0  0  0  0
    2.1566   -1.7965   -0.3367 C   0  0  0  0  0  0  0  0  0  0  0  0
    1.0155   -2.5384   -0.6556 C   0  0  0  0  0  0  0  0  0  0  0  0
   -2.6235   -3.6298   -1.1431 C   0  0  0  0  0  0  0  0  0  0  0  0
   -3.8356   -2.9620   -0.9394 C   0  0  0  0  0  0  0  0  0  0  0  0
   -7.7052   -0.6432   -1.4833 H   0  0  0  0  0  0  0  0  0  0  0  0
   -7.2085    2.2600   -1.8887 H   0  0  0  0  0  0  0  0  0  0  0  0
   -8.1457    1.2239   -2.9722 H   0  0  0  0  0  0  0  0  0  0  0  0
   -9.7335    0.7248   -1.0650 H   0  0  0  0  0  0  0  0  0  0  0  0
   -9.7378    2.4060   -1.5986 H   0  0  0  0  0  0  0  0  0  0  0  0
   -8.1335    1.4086    0.8249 H   0  0  0  0  0  0  0  0  0  0  0  0
   -8.2134    3.0507    0.2088 H   0  0  0  0  0  0  0  0  0  0  0  0
  -11.6543    1.4732    1.9759 H   0  0  0  0  0  0  0  0  0  0  0  0
  -10.8283    0.4526    0.8228 H   0  0  0  0  0  0  0  0  0  0  0  0
   -8.9564    0.0786    2.4692 H   0  0  0  0  0  0  0  0  0  0  0  0
  -10.5194   -0.3100    3.1874 H   0  0  0  0  0  0  0  0  0  0  0  0
   -8.8532    3.2573    4.2529 H   0  0  0  0  0  0  0  0  0  0  0  0
   -7.9494    2.2702    3.1001 H   0  0  0  0  0  0  0  0  0  0  0  0
   -9.1565    4.1724    1.9421 H   0  0  0  0  0  0  0  0  0  0  0  0
  -10.6677    3.6430    2.6533 H   0  0  0  0  0  0  0  0  0  0  0  0
   -5.9517   -1.6124   -0.6768 H   0  0  0  0  0  0  0  0  0  0  0  0
   -3.4123   -0.4233   -3.1676 H   0  0  0  0  0  0  0  0  0  0  0  0
   -1.3018   -1.5835   -3.5179 H   0  0  0  0  0  0  0  0  0  0  0  0
   -0.3515   -4.1666   -3.3574 H   0  0  0  0  0  0  0  0  0  0  0  0
   -0.3566   -4.8040   -1.7297 H   0  0  0  0  0  0  0  0  0  0  0  0
    1.7603   -3.2549   -3.8974 H   0  0  0  0  0  0  0  0  0  0  0  0
    3.7475   -1.9749   -3.3385 H   0  0  0  0  0  0  0  0  0  0  0  0
    4.2790   -0.4815    0.0557 H   0  0  0  0  0  0  0  0  0  0  0  0
    5.6861    1.0629   -0.4741 H   0  0  0  0  0  0  0  0  0  0  0  0
    7.1715    1.4814   -2.3742 H   0  0  0  0  0  0  0  0  0  0  0  0
    7.9677   -0.0587   -2.0232 H   0  0  0  0  0  0  0  0  0  0  0  0
    7.8067    2.2941   -0.0526 H   0  0  0  0  0  0  0  0  0  0  0  0
    9.1639    1.9982   -1.1386 H   0  0  0  0  0  0  0  0  0  0  0  0
    8.1313    0.0303    0.9623 H   0  0  0  0  0  0  0  0  0  0  0  0
    9.5399   -0.2537   -0.0578 H   0  0  0  0  0  0  0  0  0  0  0  0
   10.2280   -0.6352    2.3676 H   0  0  0  0  0  0  0  0  0  0  0  0
    9.0445    0.3712    3.2231 H   0  0  0  0  0  0  0  0  0  0  0  0
   10.8870    1.9856    3.8355 H   0  0  0  0  0  0  0  0  0  0  0  0
   11.1881    0.3597    4.4522 H   0  0  0  0  0  0  0  0  0  0  0  0
   13.2273    1.3491    1.0775 H   0  0  0  0  0  0  0  0  0  0  0  0
   12.2713   -0.1303    1.1403 H   0  0  0  0  0  0  0  0  0  0  0  0
   11.1271    1.6735   -0.1775 H   0  0  0  0  0  0  0  0  0  0  0  0
   11.1919    2.7417    1.2191 H   0  0  0  0  0  0  0  0  0  0  0  0
    2.2446   -1.3906    0.6676 H   0  0  0  0  0  0  0  0  0  0  0  0
    0.2526   -2.6920    0.1043 H   0  0  0  0  0  0  0  0  0  0  0  0
   -2.4119   -4.5305   -0.5714 H   0  0  0  0  0  0  0  0  0  0  0  0
   -4.5339   -3.3675   -0.2119 H   0  0  0  0  0  0  0  0  0  0  0  0
  1  2  2  0
  2  3  1  0
  3  4  1  0
  4  5  1  0
  5  6  1  0
  6  7  1  0
  7  8  1  0
  8  9  1  0
  9 10  1  0
 10 11  1  0
 11 12  1  0
  2 13  1  0
 13 14  1  0
 14 15  2  0
 15 16  1  0
 16 17  2  0
 17 18  1  0
 18 19  1  0
 19 20  2  0
 20 21  1  0
 21 22  2  0
 22 23  1  0
 23 24  1  0
 24 25  2  0
 24 26  1  0
 26 27  1  0
 27 28  1  0
 28 29  1  0
 29 30  1  0
 30 31  1  0
 31 32  1  0
 32 33  1  0
 33 34  1  0
 34 35  1  0
 22 36  1  0
 36 37  2  0
 17 38  1  0
 38 39  2  0
 12  7  1  0
 39 14  1  0
 37 19  1  0
 35 30  1  0
  3 40  1  0
  4 41  1  0
  4 42  1  0
  5 43  1  0
  5 44  1  0
  6 45  1  0
  6 46  1  0
  8 47  1  0
  8 48  1  0
  9 49  1  0
  9 50  1  0
 11 51  1  0
 11 52  1  0
 12 53  1  0
 12 54  1  0
 13 55  1  0
 15 56  1  0
 16 57  1  0
 18 58  1  0
 18 59  1  0
 20 60  1  0
 21 61  1  0
 23 62  1  0
 26 63  1  0
 27 64  1  0
 27 65  1  0
 28 66  1  0
 28 67  1  0
 29 68  1  0
 29 69  1  0
 31 70  1  0
 31 71  1  0
 32 72  1  0
 32 73  1  0
 34 74  1  0
 34 75  1  0
 35 76  1  0
 35 77  1  0
 36 78  1  0
 37 79  1  0
 38 80  1  0
 39 81  1  0
M  END
$$$$
