
     RDKit          3D

 52 54  0  0  0  0  0  0  0  0999 V2000
   -8.1178   -0.5096   -1.1135 C   0  0  0  0  0  0  0  0  0  0  0  0
   -6.6797    0.0140   -1.1044 C   0  0  0  0  0  0  0  0  0  0  0  0
   -6.0842   -0.0870   -2.5093 C   0  0  0  0  0  0  0  0  0  0  0  0
   -5.8520   -0.7529   -0.0602 C   0  0  0  0  0  0  0  0  0  0  0  0
   -4.4340   -0.2114    0.1215 C   0  0  0  0  0  0  0  0  0  0  0  0
   -3.8264   -0.9372    1.1921 O   0  0  0  0  0  0  0  0  0  0  0  0
   -2.5502   -0.5894    1.5387 C   0  0  0  0  0  0  0  0  0  0  0  0
   -2.0269   -1.3051    2.6212 C   0  0  0  0  0  0  0  0  0  0  0  0
   -0.7331   -1.0550    3.0829 C   0  0  0  0  0  0  0  0  0  0  0  0
    0.0507   -0.0936    2.4440 C   0  0  0  0  0  0  0  0  0  0  0  0
    1.4118    0.1818    2.9554 C   0  0  0  0  0  0  0  0  0  0  0  0
    1.5313    0.4378    4.1510 O   0  0  0  0  0  0  0  0  0  0  0  0
    2.4805    0.1686    2.0575 N   0  0  0  0  0  0  0  0  0  0  0  0
    2.5072   -0.7143    0.8814 C   0  0  0  0  0  0  0  0  0  0  0  0
    3.4912   -0.2315   -0.1983 C   0  0  0  0  0  0  0  0  0  0  0  0
    4.8157    0.0374    0.3804 N   0  0  0  0  0  0  0  0  0  0  0  0
    5.7857    0.3681   -0.5711 C   0  0  0  0  0  0  0  0  0  0  0  0
    5.6151   -0.0370   -1.8428 N   0  0  0  0  0  0  0  0  0  0  0  0
    6.5780    0.2629   -2.7354 C   0  0  0  0  0  0  0  0  0  0  0  0
    7.7152    0.9569   -2.4184 C   0  0  0  0  0  0  0  0  0  0  0  0
    7.8120    1.3333   -1.1054 C   0  0  0  0  0  0  0  0  0  0  0  0
    6.8742    1.0546   -0.1802 N   0  0  0  0  0  0  0  0  0  0  0  0
    4.8083    0.9339    1.5486 C   0  0  0  0  0  0  0  0  0  0  0  0
    3.8084    0.4491    2.6117 C   0  0  0  0  0  0  0  0  0  0  0  0
   -0.4712    0.6439    1.3759 C   0  0  0  0  0  0  0  0  0  0  0  0
   -1.7692    0.3897    0.9198 C   0  0  0  0  0  0  0  0  0  0  0  0
   -8.7325    0.0526   -1.8245 H   0  0  0  0  0  0  0  0  0  0  0  0
   -8.5760   -0.4065   -0.1242 H   0  0  0  0  0  0  0  0  0  0  0  0
   -8.1542   -1.5673   -1.3960 H   0  0  0  0  0  0  0  0  0  0  0  0
   -6.7100    1.0734   -0.8199 H   0  0  0  0  0  0  0  0  0  0  0  0
   -5.1033    0.3952   -2.5618 H   0  0  0  0  0  0  0  0  0  0  0  0
   -5.9688   -1.1316   -2.8175 H   0  0  0  0  0  0  0  0  0  0  0  0
   -6.7291    0.4117   -3.2410 H   0  0  0  0  0  0  0  0  0  0  0  0
   -6.3640   -0.7173    0.9108 H   0  0  0  0  0  0  0  0  0  0  0  0
   -5.7991   -1.8180   -0.3219 H   0  0  0  0  0  0  0  0  0  0  0  0
   -4.4800    0.8555    0.3701 H   0  0  0  0  0  0  0  0  0  0  0  0
   -3.8555   -0.3624   -0.7963 H   0  0  0  0  0  0  0  0  0  0  0  0
   -2.6375   -2.0580    3.1144 H   0  0  0  0  0  0  0  0  0  0  0  0
   -0.3421   -1.6033    3.9365 H   0  0  0  0  0  0  0  0  0  0  0  0
    1.5147   -0.8280    0.4409 H   0  0  0  0  0  0  0  0  0  0  0  0
    2.8067   -1.7066    1.2427 H   0  0  0  0  0  0  0  0  0  0  0  0
    3.5402   -1.0128   -0.9666 H   0  0  0  0  0  0  0  0  0  0  0  0
    3.0950    0.6825   -0.6606 H   0  0  0  0  0  0  0  0  0  0  0  0
    6.3962   -0.0888   -3.7463 H   0  0  0  0  0  0  0  0  0  0  0  0
    8.4785    1.1868   -3.1469 H   0  0  0  0  0  0  0  0  0  0  0  0
    8.6719    1.8858   -0.7390 H   0  0  0  0  0  0  0  0  0  0  0  0
    4.5304    1.9485    1.2329 H   0  0  0  0  0  0  0  0  0  0  0  0
    5.7951    0.9807    2.0253 H   0  0  0  0  0  0  0  0  0  0  0  0
    4.1680   -0.4794    3.0731 H   0  0  0  0  0  0  0  0  0  0  0  0
    3.7310    1.2013    3.4050 H   0  0  0  0  0  0  0  0  0  0  0  0
    0.1252    1.4214    0.9050 H   0  0  0  0  0  0  0  0  0  0  0  0
   -2.1416    0.9771    0.0872 H   0  0  0  0  0  0  0  0  0  0  0  0
  1  2  1  0
  2  3  1  0
  2  4  1  0
  4  5  1  0
  5  6  1  0
  6  7  1  0
  7  8  2  0
  8  9  1  0
  9 10  2  0
 10 11  1  0
 11 12  2  0
 11 13  1  0
 13 14  1  0
 14 15  1  0
 15 16  1  0
 16 17  1  0
 17 18  2  0
 18 19  1  0
 19 20  2  0
 20 21  1  0
 21 22  2  0
 16 23  1  0
 23 24  1  0
 10 25  1  0
 25 26  2  0
 26  7  1  0
 24 13  1  0
 22 17  1  0
  1 27  1  0
  1 28  1  0
  1 29  1  0
  2 30  1  0
  3 31  1  0
  3 32  1  0
  3 33  1  0
  4 34  1  0
  4 35  1  0
  5 36  1  0
  5 37  1  0
  8 38  1  0
  9 39  1  0
 14 40  1  0
 14 41  1  0
 15 42  1  0
 15 43  1  0
 19 44  1  0
 20 45  1  0
 21 46  1  0
 23 47  1  0
 23 48  1  0
 24 49  1  0
 24 50  1  0
 25 51  1  0
 26 52  1  0
M  END
$$$$
