
     RDKit          3D

 52 54  0  0  0  0  0  0  0  0999 V2000
   -5.5058   -2.7136    0.2390 C   0  0  0  0  0  0  0  0  0  0  0  0
   -4.6517   -2.4007   -0.9812 C   0  0  0  0  0  0  0  0  0  0  0  0
   -3.2047   -2.0374   -0.6368 C   0  0  0  0  0  0  0  0  0  0  0  0
   -3.0136   -0.7233    0.1366 C   0  0  0  0  0  0  0  0  0  0  0  0
   -2.6111    0.4896   -0.7346 C   0  0  0  0  0  0  0  0  0  0  0  0
   -3.6531    0.8660   -1.8091 C   0  0  0  0  0  0  0  0  0  0  0  0
   -4.9961    1.3445   -1.2734 C   0  0  0  0  0  0  0  0  0  0  0  0
   -2.2703    1.7251    0.1397 C   0  0  0  0  0  0  0  0  0  0  0  0
   -1.0563    1.5540    0.9454 N   0  0  0  0  0  0  0  0  0  0  0  0
    0.1716    1.6194    0.3070 C   0  0  0  0  0  0  0  0  0  0  0  0
    0.3503    1.8134   -0.8881 O   0  0  0  0  0  0  0  0  0  0  0  0
    1.2784    1.4268    1.2816 C   0  0  0  0  0  0  0  0  0  0  0  0
    2.5579    1.4093    0.8804 C   0  0  0  0  0  0  0  0  0  0  0  0
    3.7432    1.2262    1.6576 C   0  0  0  0  0  0  0  0  0  0  0  0
    3.9888    1.7349    2.9119 C   0  0  0  0  0  0  0  0  0  0  0  0
    5.2602    1.3628    3.2252 N   0  0  0  0  0  0  0  0  0  0  0  0
    5.8755    0.6755    2.2551 N   0  0  0  0  0  0  0  0  0  0  0  0
    4.9553    0.5620    1.2810 C   0  0  0  0  0  0  0  0  0  0  0  0
    5.2693   -0.1579    0.0449 C   0  0  0  0  0  0  0  0  0  0  0  0
    4.3460   -1.0385   -0.5354 C   0  0  0  0  0  0  0  0  0  0  0  0
    4.6569   -1.7119   -1.7199 C   0  0  0  0  0  0  0  0  0  0  0  0
    5.8951   -1.5173   -2.3299 C   0  0  0  0  0  0  0  0  0  0  0  0
    6.8268   -0.6556   -1.7543 C   0  0  0  0  0  0  0  0  0  0  0  0
    6.5167    0.0181   -0.5707 C   0  0  0  0  0  0  0  0  0  0  0  0
    0.6370    1.2041    2.8566 S   0  0  0  0  0  0  0  0  0  0  0  0
   -1.0276    1.3735    2.3130 C   0  0  0  0  0  0  0  0  0  0  0  0
   -2.3072    1.3143    3.3823 S   0  0  0  0  0  0  0  0  0  0  0  0
   -6.4935   -3.0656   -0.0762 H   0  0  0  0  0  0  0  0  0  0  0  0
   -5.6556   -1.8308    0.8665 H   0  0  0  0  0  0  0  0  0  0  0  0
   -5.0475   -3.4983    0.8492 H   0  0  0  0  0  0  0  0  0  0  0  0
   -5.1281   -1.6090   -1.5651 H   0  0  0  0  0  0  0  0  0  0  0  0
   -4.6357   -3.2907   -1.6223 H   0  0  0  0  0  0  0  0  0  0  0  0
   -2.7920   -2.8543   -0.0300 H   0  0  0  0  0  0  0  0  0  0  0  0
   -2.6091   -2.0193   -1.5574 H   0  0  0  0  0  0  0  0  0  0  0  0
   -3.8902   -0.4835    0.7453 H   0  0  0  0  0  0  0  0  0  0  0  0
   -2.1968   -0.9057    0.8460 H   0  0  0  0  0  0  0  0  0  0  0  0
   -1.7022    0.2004   -1.2791 H   0  0  0  0  0  0  0  0  0  0  0  0
   -3.8149    0.0160   -2.4805 H   0  0  0  0  0  0  0  0  0  0  0  0
   -3.2353    1.6608   -2.4406 H   0  0  0  0  0  0  0  0  0  0  0  0
   -5.4635    0.6038   -0.6197 H   0  0  0  0  0  0  0  0  0  0  0  0
   -4.8942    2.2802   -0.7160 H   0  0  0  0  0  0  0  0  0  0  0  0
   -5.6816    1.5331   -2.1063 H   0  0  0  0  0  0  0  0  0  0  0  0
   -2.0962    2.5889   -0.5149 H   0  0  0  0  0  0  0  0  0  0  0  0
   -3.1178    1.9824    0.7804 H   0  0  0  0  0  0  0  0  0  0  0  0
    2.7372    1.5271   -0.1900 H   0  0  0  0  0  0  0  0  0  0  0  0
    3.4007    2.3297    3.5955 H   0  0  0  0  0  0  0  0  0  0  0  0
    5.7781    1.5580    4.0757 H   0  0  0  0  0  0  0  0  0  0  0  0
    3.3845   -1.2241   -0.0642 H   0  0  0  0  0  0  0  0  0  0  0  0
    3.9351   -2.3936   -2.1622 H   0  0  0  0  0  0  0  0  0  0  0  0
    6.1374   -2.0436   -3.2496 H   0  0  0  0  0  0  0  0  0  0  0  0
    7.7967   -0.5091   -2.2221 H   0  0  0  0  0  0  0  0  0  0  0  0
    7.2534    0.6839   -0.1255 H   0  0  0  0  0  0  0  0  0  0  0  0
  1  2  1  0
  2  3  1  0
  3  4  1  0
  4  5  1  0
  5  6  1  0
  6  7  1  0
  5  8  1  0
  8  9  1  0
  9 10  1  0
 10 11  2  0
 10 12  1  0
 12 13  2  3
 13 14  1  0
 14 15  2  0
 15 16  1  0
 16 17  1  0
 17 18  2  0
 18 19  1  0
 19 20  2  0
 20 21  1  0
 21 22  2  0
 22 23  1  0
 23 24  2  0
 12 25  1  0
 25 26  1  0
 26 27  2  0
 26  9  1  0
 18 14  1  0
 24 19  1  0
  1 28  1  0
  1 29  1  0
  1 30  1  0
  2 31  1  0
  2 32  1  0
  3 33  1  0
  3 34  1  0
  4 35  1  0
  4 36  1  0
  5 37  1  0
  6 38  1  0
  6 39  1  0
  7 40  1  0
  7 41  1  0
  7 42  1  0
  8 43  1  0
  8 44  1  0
 13 45  1  0
 15 46  1  0
 16 47  1  0
 20 48  1  0
 21 49  1  0
 22 50  1  0
 23 51  1  0
 24 52  1  0
M  END
$$$$
