
     RDKit          3D

 58 60  0  0  0  0  0  0  0  0999 V2000
   10.0392    0.0724   -1.3568 C   0  0  0  0  0  0  0  0  0  0  0  0
    8.5377    0.3055   -1.2534 C   0  0  0  0  0  0  0  0  0  0  0  0
    8.1430    0.7979    0.1443 C   0  0  0  0  0  0  0  0  0  0  0  0
    6.6327    1.0052    0.2758 C   0  0  0  0  0  0  0  0  0  0  0  0
    5.9927   -0.2685    0.2044 O   0  0  0  0  0  0  0  0  0  0  0  0
    4.6316   -0.2915    0.3122 C   0  0  0  0  0  0  0  0  0  0  0  0
    3.7957    0.8209    0.3976 C   0  0  0  0  0  0  0  0  0  0  0  0
    2.4066    0.6521    0.4820 C   0  0  0  0  0  0  0  0  0  0  0  0
    1.8469   -0.6320    0.4936 C   0  0  0  0  0  0  0  0  0  0  0  0
    0.3672   -0.8337    0.5636 C   0  0  0  0  0  0  0  0  0  0  0  0
   -0.0822   -1.9470    0.7986 O   0  0  0  0  0  0  0  0  0  0  0  0
   -0.3912    0.2734    0.2941 N   0  0  0  0  0  0  0  0  0  0  0  0
   -1.5297    0.4625    0.8949 C   0  0  0  0  0  0  0  0  0  0  0  0
   -2.1965   -0.3527    1.9827 C   0  0  0  0  0  0  0  0  0  0  0  0
   -3.4857   -0.9962    1.5206 C   0  0  0  0  0  0  0  0  0  0  0  0
   -4.7089   -0.6315    2.1013 C   0  0  0  0  0  0  0  0  0  0  0  0
   -5.9062   -1.1757    1.6295 C   0  0  0  0  0  0  0  0  0  0  0  0
   -5.8810   -2.0889    0.5673 C   0  0  0  0  0  0  0  0  0  0  0  0
   -7.1426   -2.6153    0.0311 N   0  0  0  0  0  4  0  0  0  0  0  0
   -8.2006   -2.1743    0.5052 O   0  0  0  0  0  0  0  0  0  0  0  0
   -7.0794   -3.4658   -0.8661 O   0  0  0  0  0  1  0  0  0  0  0  0
   -4.6646   -2.4857    0.0020 C   0  0  0  0  0  0  0  0  0  0  0  0
   -3.4734   -1.9431    0.4851 C   0  0  0  0  0  0  0  0  0  0  0  0
   -2.3076    1.6916    0.4616 C   0  0  0  0  0  0  0  0  0  0  0  0
   -2.1330    2.7849    0.9668 O   0  0  0  0  0  0  0  0  0  0  0  0
   -3.1235    1.3523   -0.5510 O   0  0  0  0  0  0  0  0  0  0  0  0
   -3.9153    2.4161   -1.0861 C   0  0  0  0  0  0  0  0  0  0  0  0
   -5.2530    1.8407   -1.3661 C   0  0  0  0  0  0  0  0  0  0  0  0
   -6.3759    1.6333   -0.5895 C   0  0  0  0  0  0  0  0  0  0  0  0
   -7.3422    1.0378   -1.4356 C   0  0  0  0  0  0  0  0  0  0  0  0
   -6.7502    0.9270   -2.6746 C   0  0  0  0  0  0  0  0  0  0  0  0
   -5.4828    1.4095   -2.6418 O   0  0  0  0  0  0  0  0  0  0  0  0
    2.6905   -1.7467    0.4235 C   0  0  0  0  0  0  0  0  0  0  0  0
    4.0720   -1.5717    0.3256 C   0  0  0  0  0  0  0  0  0  0  0  0
   10.3625   -0.7131   -0.6656 H   0  0  0  0  0  0  0  0  0  0  0  0
   10.3045   -0.2440   -2.3712 H   0  0  0  0  0  0  0  0  0  0  0  0
   10.5991    0.9863   -1.1276 H   0  0  0  0  0  0  0  0  0  0  0  0
    8.0151   -0.6282   -1.4912 H   0  0  0  0  0  0  0  0  0  0  0  0
    8.2366    1.0459   -2.0060 H   0  0  0  0  0  0  0  0  0  0  0  0
    8.6557    1.7437    0.3569 H   0  0  0  0  0  0  0  0  0  0  0  0
    8.4761    0.0619    0.8875 H   0  0  0  0  0  0  0  0  0  0  0  0
    6.2806    1.6593   -0.5315 H   0  0  0  0  0  0  0  0  0  0  0  0
    6.4262    1.4653    1.2489 H   0  0  0  0  0  0  0  0  0  0  0  0
    4.1864    1.8340    0.3920 H   0  0  0  0  0  0  0  0  0  0  0  0
    1.7728    1.5344    0.5310 H   0  0  0  0  0  0  0  0  0  0  0  0
   -2.4018    0.3394    2.8103 H   0  0  0  0  0  0  0  0  0  0  0  0
   -1.5375   -1.1141    2.4052 H   0  0  0  0  0  0  0  0  0  0  0  0
   -4.7438    0.0907    2.9152 H   0  0  0  0  0  0  0  0  0  0  0  0
   -6.8453   -0.8668    2.0834 H   0  0  0  0  0  0  0  0  0  0  0  0
   -4.6253   -3.1956   -0.8207 H   0  0  0  0  0  0  0  0  0  0  0  0
   -2.5333   -2.2521    0.0280 H   0  0  0  0  0  0  0  0  0  0  0  0
   -3.4426    2.7700   -2.0093 H   0  0  0  0  0  0  0  0  0  0  0  0
   -4.0112    3.2678   -0.4022 H   0  0  0  0  0  0  0  0  0  0  0  0
   -6.4822    1.8774    0.4611 H   0  0  0  0  0  0  0  0  0  0  0  0
   -8.3445    0.7239   -1.1795 H   0  0  0  0  0  0  0  0  0  0  0  0
   -7.0788    0.5464   -3.6329 H   0  0  0  0  0  0  0  0  0  0  0  0
    2.2780   -2.7530    0.4275 H   0  0  0  0  0  0  0  0  0  0  0  0
    4.7222   -2.4422    0.2487 H   0  0  0  0  0  0  0  0  0  0  0  0
  1  2  1  0
  2  3  1  0
  3  4  1  0
  4  5  1  0
  5  6  1  0
  6  7  2  0
  7  8  1  0
  8  9  2  0
  9 10  1  0
 10 11  2  0
 10 12  1  0
 12 13  2  3
 13 14  1  0
 14 15  1  0
 15 16  2  0
 16 17  1  0
 17 18  2  0
 18 19  1  0
 19 20  2  0
 19 21  1  0
 18 22  1  0
 22 23  2  0
 13 24  1  0
 24 25  2  0
 24 26  1  0
 26 27  1  0
 27 28  1  0
 28 29  2  0
 29 30  1  0
 30 31  2  0
 31 32  1  0
  9 33  1  0
 33 34  2  0
 34  6  1  0
 23 15  1  0
 32 28  1  0
  1 35  1  0
  1 36  1  0
  1 37  1  0
  2 38  1  0
  2 39  1  0
  3 40  1  0
  3 41  1  0
  4 42  1  0
  4 43  1  0
  7 44  1  0
  8 45  1  0
 14 46  1  0
 14 47  1  0
 16 48  1  0
 17 49  1  0
 22 50  1  0
 23 51  1  0
 27 52  1  0
 27 53  1  0
 29 54  1  0
 30 55  1  0
 31 56  1  0
 33 57  1  0
 34 58  1  0
M  CHG  2  19   1  21  -1
M  END
$$$$
