
     RDKit          3D

 57 61  0  0  0  0  0  0  0  0999 V2000
   -7.1065    1.2259    0.0467 C   0  0  0  0  0  0  0  0  0  0  0  0
   -6.2794    2.3343    0.5560 N   0  0  0  0  0  0  0  0  0  0  0  0
   -5.7189    3.1827   -0.5129 C   0  0  0  0  0  0  0  0  0  0  0  0
   -5.2886    2.0442    1.9054 S   0  0  0  0  0  6  0  0  0  0  0  0
   -4.7194    3.3094    2.3183 O   0  0  0  0  0  0  0  0  0  0  0  0
   -6.0022    1.2078    2.8487 O   0  0  0  0  0  0  0  0  0  0  0  0
   -3.9615    1.0513    1.2483 C   0  0  0  0  0  0  0  0  0  0  0  0
   -4.1888   -0.2769    0.9216 C   0  0  0  0  0  0  0  0  0  0  0  0
   -3.1429   -1.0556    0.4284 C   0  0  0  0  0  0  0  0  0  0  0  0
   -1.8405   -0.5443    0.2820 C   0  0  0  0  0  0  0  0  0  0  0  0
   -0.7844   -1.3764   -0.1714 N   0  0  0  0  0  0  0  0  0  0  0  0
   -0.3976   -2.3877    0.8511 C   0  0  0  0  0  0  0  0  0  0  0  0
   -0.1577   -3.6661    0.0714 C   0  0  0  0  0  0  0  0  0  0  0  0
   -1.1486   -3.5548   -1.0761 C   0  0  0  0  0  0  0  0  0  0  0  0
   -1.0358   -2.0891   -1.4488 C   0  0  0  0  0  0  0  0  0  0  0  0
   -1.6140    0.8070    0.6511 C   0  0  0  0  0  0  0  0  0  0  0  0
   -0.2708    1.4889    0.5869 C   0  0  0  0  0  0  0  0  0  0  0  0
   -0.1789    2.6490    0.9865 O   0  0  0  0  0  0  0  0  0  0  0  0
    0.7417    0.7354    0.0529 N   0  0  0  0  0  0  0  0  0  0  0  0
    2.0848    1.0139    0.0337 C   0  0  0  0  0  0  0  0  0  0  0  0
    2.9451    0.1484   -0.4468 N   0  0  0  0  0  0  0  0  0  0  0  0
    4.2434    0.6132   -0.2522 C   0  0  0  0  0  0  0  0  0  0  0  0
    4.3308    1.8683    0.3561 C   0  0  0  0  0  0  0  0  0  0  0  0
    5.5614    2.4796    0.6402 C   0  0  0  0  0  0  0  0  0  0  0  0
    6.7362    1.7855    0.3209 C   0  0  0  0  0  0  0  0  0  0  0  0
    6.6976    0.5282   -0.2918 C   0  0  0  0  0  0  0  0  0  0  0  0
    7.8710   -0.1765   -0.6153 C   0  0  0  0  0  0  0  0  0  0  0  0
    7.8062   -1.4245   -1.2442 C   0  0  0  0  0  0  0  0  0  0  0  0
    6.5731   -1.9917   -1.5597 C   0  0  0  0  0  0  0  0  0  0  0  0
    5.3957   -1.3161   -1.2351 C   0  0  0  0  0  0  0  0  0  0  0  0
    5.4478   -0.0626   -0.5970 C   0  0  0  0  0  0  0  0  0  0  0  0
    2.7395    2.4550    0.6574 S   0  0  0  0  0  0  0  0  0  0  0  0
   -2.6850    1.5905    1.1284 C   0  0  0  0  0  0  0  0  0  0  0  0
   -6.5472    0.6320   -0.6779 H   0  0  0  0  0  0  0  0  0  0  0  0
   -7.4472    0.5696    0.8524 H   0  0  0  0  0  0  0  0  0  0  0  0
   -7.9939    1.6275   -0.4471 H   0  0  0  0  0  0  0  0  0  0  0  0
   -5.0111    2.6157   -1.1409 H   0  0  0  0  0  0  0  0  0  0  0  0
   -5.2183    4.0708   -0.1068 H   0  0  0  0  0  0  0  0  0  0  0  0
   -6.5281    3.5352   -1.1551 H   0  0  0  0  0  0  0  0  0  0  0  0
   -5.1623   -0.7218    1.0579 H   0  0  0  0  0  0  0  0  0  0  0  0
   -3.3521   -2.0886    0.1774 H   0  0  0  0  0  0  0  0  0  0  0  0
    0.5100   -2.0789    1.3703 H   0  0  0  0  0  0  0  0  0  0  0  0
   -1.1815   -2.5391    1.5953 H   0  0  0  0  0  0  0  0  0  0  0  0
   -0.3049   -4.5619    0.6653 H   0  0  0  0  0  0  0  0  0  0  0  0
    0.8660   -3.6837   -0.3165 H   0  0  0  0  0  0  0  0  0  0  0  0
   -2.1579   -3.7953   -0.7238 H   0  0  0  0  0  0  0  0  0  0  0  0
   -0.9028   -4.2212   -1.9019 H   0  0  0  0  0  0  0  0  0  0  0  0
   -0.1506   -1.9549   -2.0782 H   0  0  0  0  0  0  0  0  0  0  0  0
   -1.8971   -1.7196   -2.0052 H   0  0  0  0  0  0  0  0  0  0  0  0
    0.4997   -0.1938   -0.2848 H   0  0  0  0  0  0  0  0  0  0  0  0
    5.6034    3.4716    1.0943 H   0  0  0  0  0  0  0  0  0  0  0  0
    7.6947    2.2524    0.5485 H   0  0  0  0  0  0  0  0  0  0  0  0
    8.8482    0.2424   -0.3771 H   0  0  0  0  0  0  0  0  0  0  0  0
    8.7282   -1.9605   -1.4797 H   0  0  0  0  0  0  0  0  0  0  0  0
    6.5301   -2.9540   -2.0581 H   0  0  0  0  0  0  0  0  0  0  0  0
    4.4340   -1.7599   -1.4844 H   0  0  0  0  0  0  0  0  0  0  0  0
   -2.5121    2.6200    1.4354 H   0  0  0  0  0  0  0  0  0  0  0  0
  1  2  1  0
  2  3  1  0
  2  4  1  0
  4  5  2  0
  4  6  2  0
  4  7  1  0
  7  8  2  0
  8  9  1  0
  9 10  2  0
 10 11  1  0
 11 12  1  0
 12 13  1  0
 13 14  1  0
 14 15  1  0
 10 16  1  0
 16 17  1  0
 17 18  2  0
 17 19  1  0
 19 20  1  0
 20 21  2  0
 21 22  1  0
 22 23  2  0
 23 24  1  0
 24 25  2  0
 25 26  1  0
 26 27  2  0
 27 28  1  0
 28 29  2  0
 29 30  1  0
 30 31  2  0
 23 32  1  0
 16 33  2  0
 33  7  1  0
 15 11  1  0
 32 20  1  0
 31 22  1  0
 31 26  1  0
  1 34  1  0
  1 35  1  0
  1 36  1  0
  3 37  1  0
  3 38  1  0
  3 39  1  0
  8 40  1  0
  9 41  1  0
 12 42  1  0
 12 43  1  0
 13 44  1  0
 13 45  1  0
 14 46  1  0
 14 47  1  0
 15 48  1  0
 15 49  1  0
 19 50  1  0
 24 51  1  0
 25 52  1  0
 27 53  1  0
 28 54  1  0
 29 55  1  0
 30 56  1  0
 33 57  1  0
M  END
$$$$
