
     RDKit          3D

 42 43  0  0  0  0  0  0  0  0999 V2000
    2.9369    1.3299    1.8156 C   0  0  0  0  0  0  0  0  0  0  0  0
    3.6407    0.1299    1.2086 C   0  0  0  0  0  0  0  0  0  0  0  0
    3.0336   -0.9233    0.7347 N   0  0  0  0  0  0  0  0  0  0  0  0
    1.6673   -0.9101    0.6336 N   0  0  0  0  0  0  0  0  0  0  0  0
    1.0322   -0.0527   -0.2709 C   0  0  0  0  0  0  0  0  0  0  0  0
    1.5584    0.8971   -0.8432 O   0  0  0  0  0  0  0  0  0  0  0  0
   -0.4236   -0.4331   -0.4667 C   0  0  0  0  0  0  0  0  0  0  0  0
   -1.1542    0.5480   -1.3844 C   0  0  0  0  0  0  0  0  0  0  0  0
   -2.6020    0.1305   -1.6400 C   0  0  0  0  0  0  0  0  0  0  0  0
   -3.3636    0.1877   -0.3967 N   0  0  0  0  0  0  0  0  0  0  0  0
   -4.7253   -0.1439   -0.4055 C   0  0  0  0  0  0  0  0  0  0  0  0
   -5.5025    0.2166    0.7062 C   0  0  0  0  0  0  0  0  0  0  0  0
   -6.8520   -0.1367    0.7998 C   0  0  0  0  0  0  0  0  0  0  0  0
   -7.4449   -0.8851   -0.2109 C   0  0  0  0  0  0  0  0  0  0  0  0
   -6.6830   -1.2883   -1.3031 C   0  0  0  0  0  0  0  0  0  0  0  0
   -5.3319   -0.9319   -1.3902 C   0  0  0  0  0  0  0  0  0  0  0  0
    5.1375    0.1473    1.1901 C   0  0  0  0  0  0  0  0  0  0  0  0
    5.8514    1.3449    1.2234 C   0  0  0  0  0  0  0  0  0  0  0  0
    7.2341    1.2789    1.1996 C   0  0  0  0  0  0  0  0  0  0  0  0
    7.9310    0.1244    1.1449 N   0  0  0  0  0  0  0  0  0  0  0  0
    7.2153   -1.0190    1.0974 C   0  0  0  0  0  0  0  0  0  0  0  0
    5.8330   -1.0605    1.1150 C   0  0  0  0  0  0  0  0  0  0  0  0
    1.9563    1.0560    2.2130 H   0  0  0  0  0  0  0  0  0  0  0  0
    3.5148    1.7280    2.6553 H   0  0  0  0  0  0  0  0  0  0  0  0
    2.8197    2.1131    1.0624 H   0  0  0  0  0  0  0  0  0  0  0  0
    1.2670   -1.8434    0.6812 H   0  0  0  0  0  0  0  0  0  0  0  0
   -0.9023   -0.4625    0.5189 H   0  0  0  0  0  0  0  0  0  0  0  0
   -0.4574   -1.4408   -0.8973 H   0  0  0  0  0  0  0  0  0  0  0  0
   -1.1234    1.5550   -0.9491 H   0  0  0  0  0  0  0  0  0  0  0  0
   -0.6317    0.6057   -2.3474 H   0  0  0  0  0  0  0  0  0  0  0  0
   -3.0437    0.8099   -2.3786 H   0  0  0  0  0  0  0  0  0  0  0  0
   -2.6058   -0.8834   -2.0560 H   0  0  0  0  0  0  0  0  0  0  0  0
   -3.2150    1.0570    0.1132 H   0  0  0  0  0  0  0  0  0  0  0  0
   -5.0560    0.7817    1.5208 H   0  0  0  0  0  0  0  0  0  0  0  0
   -7.4327    0.1660    1.6668 H   0  0  0  0  0  0  0  0  0  0  0  0
   -8.4923   -1.1653   -0.1416 H   0  0  0  0  0  0  0  0  0  0  0  0
   -7.1342   -1.8900   -2.0876 H   0  0  0  0  0  0  0  0  0  0  0  0
   -4.7719   -1.2872   -2.2489 H   0  0  0  0  0  0  0  0  0  0  0  0
    5.3641    2.3120    1.2470 H   0  0  0  0  0  0  0  0  0  0  0  0
    7.8380    2.1820    1.2198 H   0  0  0  0  0  0  0  0  0  0  0  0
    7.8019   -1.9317    1.0422 H   0  0  0  0  0  0  0  0  0  0  0  0
    5.3161   -2.0129    1.0729 H   0  0  0  0  0  0  0  0  0  0  0  0
  1  2  1  0
  2  3  2  3
  3  4  1  0
  4  5  1  0
  5  6  2  0
  5  7  1  0
  7  8  1  0
  8  9  1  0
  9 10  1  0
 10 11  1  0
 11 12  2  0
 12 13  1  0
 13 14  2  0
 14 15  1  0
 15 16  2  0
  2 17  1  0
 17 18  2  0
 18 19  1  0
 19 20  2  0
 20 21  1  0
 21 22  2  0
 16 11  1  0
 22 17  1  0
  1 23  1  0
  1 24  1  0
  1 25  1  0
  4 26  1  0
  7 27  1  0
  7 28  1  0
  8 29  1  0
  8 30  1  0
  9 31  1  0
  9 32  1  0
 10 33  1  0
 12 34  1  0
 13 35  1  0
 14 36  1  0
 15 37  1  0
 16 38  1  0
 18 39  1  0
 19 40  1  0
 21 41  1  0
 22 42  1  0
M  END
$$$$
