
     RDKit          3D

 49 51  0  0  0  0  0  0  0  0999 V2000
   -8.1000    0.1178    2.5925 C   0  0  0  0  0  0  0  0  0  0  0  0
   -7.7917    0.1905    1.2083 O   0  0  0  0  0  0  0  0  0  0  0  0
   -6.4795    0.0299    0.8378 C   0  0  0  0  0  0  0  0  0  0  0  0
   -5.4359   -0.2470    1.7265 C   0  0  0  0  0  0  0  0  0  0  0  0
   -4.1280   -0.3959    1.2571 C   0  0  0  0  0  0  0  0  0  0  0  0
   -3.8472   -0.2632   -0.1044 C   0  0  0  0  0  0  0  0  0  0  0  0
   -2.4843   -0.4323   -0.6195 C   0  0  0  0  0  0  0  0  0  0  0  0
   -1.4395    0.3665   -0.3631 C   0  0  0  0  0  0  0  0  0  0  0  0
   -1.3937    1.7812    0.6123 S   0  0  0  0  0  0  0  0  0  0  0  0
    0.3130    2.0397    0.3032 C   0  0  0  0  0  0  0  0  0  0  0  0
    0.9611    2.9141    0.8553 O   0  0  0  0  0  0  0  0  0  0  0  0
    0.7752    1.1076   -0.5867 N   0  0  0  0  0  0  0  0  0  0  0  0
    2.1691    1.0875   -1.0037 C   0  0  0  0  0  0  0  0  0  0  0  0
    3.0341    0.2726   -0.0466 C   0  0  0  0  0  0  0  0  0  0  0  0
    4.4826    0.2590   -0.4954 C   0  0  0  0  0  0  0  0  0  0  0  0
    4.8490    0.8470   -1.5058 O   0  0  0  0  0  0  0  0  0  0  0  0
    5.2750   -0.4793    0.3683 N   0  0  0  0  0  0  0  0  0  0  0  0
    6.6630   -0.7136    0.2740 C   0  0  0  0  0  0  0  0  0  0  0  0
    7.4735   -0.2147   -0.7470 C   0  0  0  0  0  0  0  0  0  0  0  0
    8.8440   -0.4951   -0.7657 C   0  0  0  0  0  0  0  0  0  0  0  0
    9.4154   -1.2762    0.2356 C   0  0  0  0  0  0  0  0  0  0  0  0
    8.6167   -1.7789    1.2585 C   0  0  0  0  0  0  0  0  0  0  0  0
    7.2477   -1.4988    1.2772 C   0  0  0  0  0  0  0  0  0  0  0  0
   -0.0970    0.1094   -0.9507 C   0  0  0  0  0  0  0  0  0  0  0  0
    0.1745   -0.8714   -1.6285 O   0  0  0  0  0  0  0  0  0  0  0  0
   -4.8904    0.0028   -1.0001 C   0  0  0  0  0  0  0  0  0  0  0  0
   -6.2046    0.1542   -0.5393 C   0  0  0  0  0  0  0  0  0  0  0  0
   -7.2837    0.4200   -1.3465 O   0  0  0  0  0  0  0  0  0  0  0  0
   -7.0458    0.5861   -2.7365 C   0  0  0  0  0  0  0  0  0  0  0  0
   -7.5773    0.8975    3.1563 H   0  0  0  0  0  0  0  0  0  0  0  0
   -7.8800   -0.8769    2.9938 H   0  0  0  0  0  0  0  0  0  0  0  0
   -9.1746    0.2906    2.7054 H   0  0  0  0  0  0  0  0  0  0  0  0
   -5.6063   -0.3562    2.7921 H   0  0  0  0  0  0  0  0  0  0  0  0
   -3.3354   -0.6188    1.9678 H   0  0  0  0  0  0  0  0  0  0  0  0
   -2.3578   -1.2853   -1.2856 H   0  0  0  0  0  0  0  0  0  0  0  0
    2.5338    2.1205   -1.0556 H   0  0  0  0  0  0  0  0  0  0  0  0
    2.2249    0.6660   -2.0146 H   0  0  0  0  0  0  0  0  0  0  0  0
    2.9836    0.6970    0.9631 H   0  0  0  0  0  0  0  0  0  0  0  0
    2.6727   -0.7614    0.0029 H   0  0  0  0  0  0  0  0  0  0  0  0
    4.8133   -0.9037    1.1630 H   0  0  0  0  0  0  0  0  0  0  0  0
    7.0731    0.3982   -1.5481 H   0  0  0  0  0  0  0  0  0  0  0  0
    9.4626   -0.0994   -1.5674 H   0  0  0  0  0  0  0  0  0  0  0  0
   10.4806   -1.4914    0.2171 H   0  0  0  0  0  0  0  0  0  0  0  0
    9.0583   -2.3889    2.0422 H   0  0  0  0  0  0  0  0  0  0  0  0
    6.6489   -1.9046    2.0882 H   0  0  0  0  0  0  0  0  0  0  0  0
   -4.6552    0.0923   -2.0556 H   0  0  0  0  0  0  0  0  0  0  0  0
   -8.0045    0.8061   -3.2160 H   0  0  0  0  0  0  0  0  0  0  0  0
   -6.6552   -0.3343   -3.1827 H   0  0  0  0  0  0  0  0  0  0  0  0
   -6.3782    1.4332   -2.9253 H   0  0  0  0  0  0  0  0  0  0  0  0
  1  2  1  0
  2  3  1  0
  3  4  2  0
  4  5  1  0
  5  6  2  0
  6  7  1  0
  7  8  2  3
  8  9  1  0
  9 10  1  0
 10 11  2  0
 10 12  1  0
 12 13  1  0
 13 14  1  0
 14 15  1  0
 15 16  2  0
 15 17  1  0
 17 18  1  0
 18 19  2  0
 19 20  1  0
 20 21  2  0
 21 22  1  0
 22 23  2  0
 12 24  1  0
 24 25  2  0
  6 26  1  0
 26 27  2  0
 27 28  1  0
 28 29  1  0
 27  3  1  0
 24  8  1  0
 23 18  1  0
  1 30  1  0
  1 31  1  0
  1 32  1  0
  4 33  1  0
  5 34  1  0
  7 35  1  0
 13 36  1  0
 13 37  1  0
 14 38  1  0
 14 39  1  0
 17 40  1  0
 19 41  1  0
 20 42  1  0
 21 43  1  0
 22 44  1  0
 23 45  1  0
 26 46  1  0
 29 47  1  0
 29 48  1  0
 29 49  1  0
M  END
$$$$
