
     RDKit          3D

 42 44  0  0  0  0  0  0  0  0999 V2000
   -5.6801    0.8046   -1.4470 C   0  0  0  0  0  0  0  0  0  0  0  0
   -4.9933    0.9025   -0.1615 N   0  0  0  0  0  0  0  0  0  0  0  0
   -5.8056    1.3861    0.9558 C   0  0  0  0  0  0  0  0  0  0  0  0
   -3.9366    0.0275    0.1211 C   0  0  0  0  0  0  0  0  0  0  0  0
   -3.2833    0.0373    1.3667 C   0  0  0  0  0  0  0  0  0  0  0  0
   -2.2139   -0.8218    1.6603 C   0  0  0  0  0  0  0  0  0  0  0  0
   -1.7516   -1.7225    0.7039 C   0  0  0  0  0  0  0  0  0  0  0  0
   -0.6506   -2.6287    1.0309 C   0  0  0  0  0  0  0  0  0  0  0  0
    0.6337   -2.4866    0.6687 C   0  0  0  0  0  0  0  0  0  0  0  0
    1.1531   -1.3928   -0.1909 C   0  0  0  0  0  0  0  0  0  0  0  0
    0.5742   -1.0926   -1.2371 O   0  0  0  0  0  0  0  0  0  0  0  0
    2.4447   -0.7306    0.1829 C   0  0  0  0  0  0  0  0  0  0  0  0
    3.0327    0.0543   -0.7460 C   0  0  0  0  0  0  0  0  0  0  0  0
    2.5274    0.2966   -2.0130 O   0  0  0  0  0  0  0  0  0  0  0  0
    4.3052    0.7245   -0.4706 C   0  0  0  0  0  0  0  0  0  0  0  0
    4.9677    1.5341   -1.4025 C   0  0  0  0  0  0  0  0  0  0  0  0
    6.1848    2.1445   -1.0797 C   0  0  0  0  0  0  0  0  0  0  0  0
    6.7548    1.9504    0.1788 C   0  0  0  0  0  0  0  0  0  0  0  0
    6.1078    1.1467    1.1137 C   0  0  0  0  0  0  0  0  0  0  0  0
    4.8947    0.5484    0.7738 C   0  0  0  0  0  0  0  0  0  0  0  0
    4.2800   -0.2479    1.7500 O   0  0  0  0  0  0  0  0  0  0  0  0
    3.0687   -0.8890    1.5191 C   0  0  0  0  0  0  0  0  0  0  0  0
    2.5622   -1.5611    2.4113 O   0  0  0  0  0  0  0  0  0  0  0  0
   -2.3684   -1.7493   -0.5426 C   0  0  0  0  0  0  0  0  0  0  0  0
   -3.4333   -0.8804   -0.8273 C   0  0  0  0  0  0  0  0  0  0  0  0
   -6.2008   -0.1549   -1.5471 H   0  0  0  0  0  0  0  0  0  0  0  0
   -4.9807    0.9310   -2.2814 H   0  0  0  0  0  0  0  0  0  0  0  0
   -6.4246    1.6015   -1.5563 H   0  0  0  0  0  0  0  0  0  0  0  0
   -5.2315    2.0602    1.6016 H   0  0  0  0  0  0  0  0  0  0  0  0
   -6.6651    1.9671    0.6016 H   0  0  0  0  0  0  0  0  0  0  0  0
   -6.1977    0.5524    1.5500 H   0  0  0  0  0  0  0  0  0  0  0  0
   -3.5840    0.7309    2.1463 H   0  0  0  0  0  0  0  0  0  0  0  0
   -1.7484   -0.7702    2.6414 H   0  0  0  0  0  0  0  0  0  0  0  0
   -0.9274   -3.4567    1.6797 H   0  0  0  0  0  0  0  0  0  0  0  0
    1.3648   -3.2006    1.0338 H   0  0  0  0  0  0  0  0  0  0  0  0
    1.6355   -0.1166   -2.0849 H   0  0  0  0  0  0  0  0  0  0  0  0
    4.5415    1.6968   -2.3910 H   0  0  0  0  0  0  0  0  0  0  0  0
    6.6868    2.7710   -1.8139 H   0  0  0  0  0  0  0  0  0  0  0  0
    7.6994    2.4265    0.4283 H   0  0  0  0  0  0  0  0  0  0  0  0
    6.5421    0.9888    2.0965 H   0  0  0  0  0  0  0  0  0  0  0  0
   -2.0233   -2.4342   -1.3131 H   0  0  0  0  0  0  0  0  0  0  0  0
   -3.8617   -0.9473   -1.8221 H   0  0  0  0  0  0  0  0  0  0  0  0
  1  2  1  0
  2  3  1  0
  2  4  1  0
  4  5  2  0
  5  6  1  0
  6  7  2  0
  7  8  1  0
  8  9  2  3
  9 10  1  0
 10 11  2  0
 10 12  1  0
 12 13  2  0
 13 14  1  0
 13 15  1  0
 15 16  2  0
 16 17  1  0
 17 18  2  0
 18 19  1  0
 19 20  2  0
 20 21  1  0
 21 22  1  0
 22 23  2  0
  7 24  1  0
 24 25  2  0
 25  4  1  0
 22 12  1  0
 20 15  1  0
  1 26  1  0
  1 27  1  0
  1 28  1  0
  3 29  1  0
  3 30  1  0
  3 31  1  0
  5 32  1  0
  6 33  1  0
  8 34  1  0
  9 35  1  0
 14 36  1  0
 16 37  1  0
 17 38  1  0
 18 39  1  0
 19 40  1  0
 24 41  1  0
 25 42  1  0
M  END
$$$$
