
     RDKit          3D

 45 47  0  0  0  0  0  0  0  0999 V2000
   -1.8032    3.8116   -0.8950 C   0  0  0  0  0  0  0  0  0  0  0  0
   -0.7196    2.8216   -0.6487 C   0  0  0  0  0  0  0  0  0  0  0  0
    0.9205    3.3290   -0.6440 S   0  0  0  0  0  0  0  0  0  0  0  0
    1.4246    1.7551   -0.2618 C   0  0  0  0  0  0  0  0  0  0  0  0
    2.7309    1.3750   -0.0718 N   0  0  0  0  0  0  0  0  0  0  0  0
    3.9257    2.0445   -0.1315 C   0  0  0  0  0  0  0  0  0  0  0  0
    4.2676    3.6441   -0.4793 S   0  0  0  0  0  0  0  0  0  0  0  0
    5.0418    1.2635    0.1420 N   0  0  0  0  0  0  0  0  0  0  0  0
    5.1333   -0.0857    0.4674 C   0  0  0  0  0  0  0  0  0  0  0  0
    4.1302   -0.7938    0.5545 O   0  0  0  0  0  0  0  0  0  0  0  0
    6.4796   -0.5951    0.6951 C   0  0  0  0  0  0  0  0  0  0  0  0
    6.8256   -1.8930    1.0271 C   0  0  0  0  0  0  0  0  0  0  0  0
    8.2315   -2.0656    1.1805 C   0  0  0  0  0  0  0  0  0  0  0  0
    8.9189   -0.8938    0.9612 C   0  0  0  0  0  0  0  0  0  0  0  0
    7.8716    0.4000    0.5738 S   0  0  0  0  0  0  0  0  0  0  0  0
    0.4622    0.8718   -0.1437 N   0  0  0  0  0  0  0  0  0  0  0  0
   -0.7680    1.4612   -0.3926 C   0  0  0  0  0  0  0  0  0  0  0  0
   -1.9842    0.6633   -0.3293 C   0  0  0  0  0  0  0  0  0  0  0  0
   -2.1695   -0.2215    0.7383 C   0  0  0  0  0  0  0  0  0  0  0  0
   -3.3258   -1.0031    0.8231 C   0  0  0  0  0  0  0  0  0  0  0  0
   -4.3177   -0.9239   -0.1648 C   0  0  0  0  0  0  0  0  0  0  0  0
   -5.5802   -1.7649   -0.0971 C   0  0  0  0  0  0  0  0  0  0  0  0
   -6.4056   -1.4430    1.1512 C   0  0  0  0  0  0  0  0  0  0  0  0
   -5.2631   -3.2605   -0.1708 C   0  0  0  0  0  0  0  0  0  0  0  0
   -4.1188   -0.0497   -1.2431 C   0  0  0  0  0  0  0  0  0  0  0  0
   -2.9619    0.7325   -1.3275 C   0  0  0  0  0  0  0  0  0  0  0  0
   -2.0843    3.8119   -1.9530 H   0  0  0  0  0  0  0  0  0  0  0  0
   -1.4958    4.8279   -0.6260 H   0  0  0  0  0  0  0  0  0  0  0  0
   -2.6918    3.5768   -0.3003 H   0  0  0  0  0  0  0  0  0  0  0  0
    2.7835    0.3821    0.1549 H   0  0  0  0  0  0  0  0  0  0  0  0
    5.9166    1.7708    0.0931 H   0  0  0  0  0  0  0  0  0  0  0  0
    6.0937   -2.6839    1.1535 H   0  0  0  0  0  0  0  0  0  0  0  0
    8.7124   -3.0017    1.4385 H   0  0  0  0  0  0  0  0  0  0  0  0
    9.9880   -0.7348    1.0098 H   0  0  0  0  0  0  0  0  0  0  0  0
   -1.4089   -0.3075    1.5119 H   0  0  0  0  0  0  0  0  0  0  0  0
   -3.4381   -1.6785    1.6680 H   0  0  0  0  0  0  0  0  0  0  0  0
   -6.2064   -1.5247   -0.9667 H   0  0  0  0  0  0  0  0  0  0  0  0
   -5.8768   -1.7098    2.0727 H   0  0  0  0  0  0  0  0  0  0  0  0
   -6.6419   -0.3742    1.1993 H   0  0  0  0  0  0  0  0  0  0  0  0
   -7.3516   -1.9952    1.1397 H   0  0  0  0  0  0  0  0  0  0  0  0
   -6.1867   -3.8485   -0.2044 H   0  0  0  0  0  0  0  0  0  0  0  0
   -4.6845   -3.6000    0.6952 H   0  0  0  0  0  0  0  0  0  0  0  0
   -4.6841   -3.4941   -1.0713 H   0  0  0  0  0  0  0  0  0  0  0  0
   -4.8610    0.0246   -2.0351 H   0  0  0  0  0  0  0  0  0  0  0  0
   -2.8286    1.3792   -2.1906 H   0  0  0  0  0  0  0  0  0  0  0  0
  1  2  1  0
  2  3  1  0
  3  4  1  0
  4  5  1  0
  5  6  1  0
  6  7  2  0
  6  8  1  0
  8  9  1  0
  9 10  2  0
  9 11  1  0
 11 12  2  0
 12 13  1  0
 13 14  2  0
 14 15  1  0
  4 16  2  0
 16 17  1  0
 17 18  1  0
 18 19  2  0
 19 20  1  0
 20 21  2  0
 21 22  1  0
 22 23  1  0
 22 24  1  0
 21 25  1  0
 25 26  2  0
 17  2  2  0
 26 18  1  0
 15 11  1  0
  1 27  1  0
  1 28  1  0
  1 29  1  0
  5 30  1  0
  8 31  1  0
 12 32  1  0
 13 33  1  0
 14 34  1  0
 19 35  1  0
 20 36  1  0
 22 37  1  0
 23 38  1  0
 23 39  1  0
 23 40  1  0
 24 41  1  0
 24 42  1  0
 24 43  1  0
 25 44  1  0
 26 45  1  0
M  END
$$$$
