
     RDKit          3D

 54 56  0  0  0  0  0  0  0  0999 V2000
   -5.8150   -0.5040    0.7560 C   0  0  0  0  0  0  0  0  0  0  0  0
   -4.8795   -0.2955    1.9318 C   0  0  0  0  0  0  0  0  0  0  0  0
   -3.6022    0.1559    1.4665 O   0  0  0  0  0  0  0  0  0  0  0  0
   -2.7059   -0.8099    1.1161 C   0  0  0  0  0  0  0  0  0  0  0  0
   -2.9290   -2.0118    1.2086 O   0  0  0  0  0  0  0  0  0  0  0  0
   -1.4324   -0.2726    0.6359 C   0  0  0  0  0  0  0  0  0  0  0  0
   -1.3110    0.9331   -0.0443 C   0  0  0  0  0  0  0  0  0  0  0  0
   -2.2572    1.8382   -0.4164 N   0  0  0  0  0  0  0  0  0  0  0  0
   -2.8927    1.5391   -1.5027 C   0  0  0  0  0  0  0  0  0  0  0  0
   -3.9041    2.2751   -2.0820 N   0  0  0  0  0  0  0  0  0  0  0  0
   -4.3091    2.0015   -3.4512 C   0  0  0  0  0  0  0  0  0  0  0  0
   -4.1599    3.6267   -1.6005 C   0  0  0  0  0  0  0  0  0  0  0  0
    0.3284    1.2831   -0.4125 S   0  0  0  0  0  0  0  0  0  0  0  0
    0.8935   -0.1806    0.2552 C   0  0  0  0  0  0  0  0  0  0  0  0
    2.3084   -0.4945    0.2351 C   0  0  0  0  0  0  0  0  0  0  0  0
    3.2014    0.3190   -0.2371 N   0  0  0  0  0  0  0  0  0  0  0  0
    4.4833   -0.1442   -0.1754 N   0  0  0  0  0  0  0  0  0  0  0  0
    5.5131    0.7154   -0.6250 C   0  0  0  0  0  0  0  0  0  0  0  0
    5.3227    2.0939   -0.7834 C   0  0  0  0  0  0  0  0  0  0  0  0
    6.3797    2.9287   -1.1589 C   0  0  0  0  0  0  0  0  0  0  0  0
    7.6507    2.3972   -1.3584 C   0  0  0  0  0  0  0  0  0  0  0  0
    7.8665    1.0343   -1.1730 C   0  0  0  0  0  0  0  0  0  0  0  0
    6.8066    0.2023   -0.7982 C   0  0  0  0  0  0  0  0  0  0  0  0
   -0.1494   -0.9309    0.7740 C   0  0  0  0  0  0  0  0  0  0  0  0
    0.0994   -2.2051    1.4350 C   0  0  0  0  0  0  0  0  0  0  0  0
    0.4134   -2.2358    2.7996 C   0  0  0  0  0  0  0  0  0  0  0  0
    0.6579   -3.4573    3.4314 C   0  0  0  0  0  0  0  0  0  0  0  0
    0.5849   -4.6427    2.6996 C   0  0  0  0  0  0  0  0  0  0  0  0
    0.8879   -6.1465    3.4786 Cl  0  0  0  0  0  0  0  0  0  0  0  0
    0.2693   -4.6190    1.3414 C   0  0  0  0  0  0  0  0  0  0  0  0
    0.0259   -3.3987    0.7067 C   0  0  0  0  0  0  0  0  0  0  0  0
   -5.8950    0.4120    0.1616 H   0  0  0  0  0  0  0  0  0  0  0  0
   -5.4381   -1.2849    0.0885 H   0  0  0  0  0  0  0  0  0  0  0  0
   -6.8128   -0.7898    1.1013 H   0  0  0  0  0  0  0  0  0  0  0  0
   -5.2779    0.4878    2.5857 H   0  0  0  0  0  0  0  0  0  0  0  0
   -4.7881   -1.2036    2.5389 H   0  0  0  0  0  0  0  0  0  0  0  0
   -2.6646    0.6194   -2.0770 H   0  0  0  0  0  0  0  0  0  0  0  0
   -5.3000    2.4184   -3.6595 H   0  0  0  0  0  0  0  0  0  0  0  0
   -4.3641    0.9229   -3.6358 H   0  0  0  0  0  0  0  0  0  0  0  0
   -3.5925    2.4370   -4.1549 H   0  0  0  0  0  0  0  0  0  0  0  0
   -3.3680    4.3056   -1.9320 H   0  0  0  0  0  0  0  0  0  0  0  0
   -5.1173    4.0041   -1.9762 H   0  0  0  0  0  0  0  0  0  0  0  0
   -4.2115    3.6534   -0.5073 H   0  0  0  0  0  0  0  0  0  0  0  0
    2.6175   -1.4688    0.6562 H   0  0  0  0  0  0  0  0  0  0  0  0
    4.6538   -1.1147   -0.4398 H   0  0  0  0  0  0  0  0  0  0  0  0
    4.3396    2.5272   -0.6161 H   0  0  0  0  0  0  0  0  0  0  0  0
    6.2062    3.9934   -1.2867 H   0  0  0  0  0  0  0  0  0  0  0  0
    8.4736    3.0472   -1.6460 H   0  0  0  0  0  0  0  0  0  0  0  0
    8.8607    0.6184   -1.3103 H   0  0  0  0  0  0  0  0  0  0  0  0
    7.0021   -0.8543   -0.6385 H   0  0  0  0  0  0  0  0  0  0  0  0
    0.4656   -1.3152    3.3784 H   0  0  0  0  0  0  0  0  0  0  0  0
    0.8989   -3.4779    4.4913 H   0  0  0  0  0  0  0  0  0  0  0  0
    0.2022   -5.5443    0.7747 H   0  0  0  0  0  0  0  0  0  0  0  0
   -0.2359   -3.3881   -0.3492 H   0  0  0  0  0  0  0  0  0  0  0  0
  1  2  1  0
  2  3  1  0
  3  4  1  0
  4  5  2  0
  4  6  1  0
  6  7  2  0
  7  8  1  0
  8  9  2  3
  9 10  1  0
 10 11  1  0
 10 12  1  0
  7 13  1  0
 13 14  1  0
 14 15  1  0
 15 16  2  3
 16 17  1  0
 17 18  1  0
 18 19  2  0
 19 20  1  0
 20 21  2  0
 21 22  1  0
 22 23  2  0
 14 24  2  0
 24 25  1  0
 25 26  2  0
 26 27  1  0
 27 28  2  0
 28 29  1  0
 28 30  1  0
 30 31  2  0
 24  6  1  0
 31 25  1  0
 23 18  1  0
  1 32  1  0
  1 33  1  0
  1 34  1  0
  2 35  1  0
  2 36  1  0
  9 37  1  0
 11 38  1  0
 11 39  1  0
 11 40  1  0
 12 41  1  0
 12 42  1  0
 12 43  1  0
 15 44  1  0
 17 45  1  0
 19 46  1  0
 20 47  1  0
 21 48  1  0
 22 49  1  0
 23 50  1  0
 26 51  1  0
 27 52  1  0
 30 53  1  0
 31 54  1  0
M  END
$$$$
