
     RDKit          3D

 46 48  0  0  0  0  0  0  0  0999 V2000
   -2.1920    4.7296   -1.1147 C   0  0  0  0  0  0  0  0  0  0  0  0
   -1.0822    3.6877   -1.0697 C   0  0  0  0  0  0  0  0  0  0  0  0
   -0.2991    3.6696    0.2527 C   0  0  0  0  0  0  0  0  0  0  0  0
   -1.2539    3.4044    1.7916 S   0  0  0  0  0  0  0  0  0  0  0  0
   -2.1095    1.9382    1.5210 C   0  0  0  0  0  0  0  0  0  0  0  0
   -1.9793    1.0974    0.5235 N   0  0  0  0  0  0  0  0  0  0  0  0
   -2.8994    0.1055    0.7820 C   0  0  0  0  0  0  0  0  0  0  0  0
   -3.2093   -1.0442    0.0418 C   0  0  0  0  0  0  0  0  0  0  0  0
   -4.1944   -1.9115    0.5316 C   0  0  0  0  0  0  0  0  0  0  0  0
   -4.8570   -1.6396    1.7316 C   0  0  0  0  0  0  0  0  0  0  0  0
   -4.5636   -0.4959    2.4832 C   0  0  0  0  0  0  0  0  0  0  0  0
   -3.5785    0.3510    1.9726 C   0  0  0  0  0  0  0  0  0  0  0  0
   -3.0457    1.5304    2.4252 N   0  0  0  0  0  0  0  0  0  0  0  0
    0.9355    2.7572    0.2056 C   0  0  0  0  0  0  0  0  0  0  0  0
    2.0524    3.2298    0.4188 O   0  0  0  0  0  0  0  0  0  0  0  0
    0.6716    1.4365   -0.0986 N   0  0  0  0  0  0  0  0  0  0  0  0
    1.5921    0.3868   -0.2795 C   0  0  0  0  0  0  0  0  0  0  0  0
    2.9750    0.5522   -0.3027 C   0  0  0  0  0  0  0  0  0  0  0  0
    3.8181   -0.5497   -0.4994 C   0  0  0  0  0  0  0  0  0  0  0  0
    3.2941   -1.8341   -0.6810 C   0  0  0  0  0  0  0  0  0  0  0  0
    4.2133   -2.8851   -0.8736 N   0  0  0  0  0  0  0  0  0  0  0  0
    3.9316   -4.2216   -1.0919 C   0  0  0  0  0  0  0  0  0  0  0  0
    5.1873   -5.0420   -1.2513 C   0  0  0  0  0  0  0  0  0  0  0  0
    2.8252   -4.7418   -1.1771 O   0  0  0  0  0  0  0  0  0  0  0  0
    1.9111   -1.9991   -0.6597 C   0  0  0  0  0  0  0  0  0  0  0  0
    1.0688   -0.8970   -0.4614 C   0  0  0  0  0  0  0  0  0  0  0  0
   -2.9956    4.4958   -0.4103 H   0  0  0  0  0  0  0  0  0  0  0  0
   -2.6320    4.7641   -2.1166 H   0  0  0  0  0  0  0  0  0  0  0  0
   -1.8048    5.7269   -0.8829 H   0  0  0  0  0  0  0  0  0  0  0  0
   -1.5034    2.7077   -1.3123 H   0  0  0  0  0  0  0  0  0  0  0  0
   -0.3771    3.9057   -1.8829 H   0  0  0  0  0  0  0  0  0  0  0  0
    0.1092    4.6824    0.3748 H   0  0  0  0  0  0  0  0  0  0  0  0
   -2.6957   -1.2547   -0.8899 H   0  0  0  0  0  0  0  0  0  0  0  0
   -4.4441   -2.8088   -0.0306 H   0  0  0  0  0  0  0  0  0  0  0  0
   -5.6174   -2.3319    2.0892 H   0  0  0  0  0  0  0  0  0  0  0  0
   -5.0795   -0.2869    3.4143 H   0  0  0  0  0  0  0  0  0  0  0  0
   -3.2945    2.0230    3.2697 H   0  0  0  0  0  0  0  0  0  0  0  0
   -0.3147    1.1664   -0.0916 H   0  0  0  0  0  0  0  0  0  0  0  0
    3.4343    1.5270   -0.1747 H   0  0  0  0  0  0  0  0  0  0  0  0
    4.8910   -0.3770   -0.5089 H   0  0  0  0  0  0  0  0  0  0  0  0
    5.1910   -2.6235   -0.8580 H   0  0  0  0  0  0  0  0  0  0  0  0
    4.9372   -6.1063   -1.2115 H   0  0  0  0  0  0  0  0  0  0  0  0
    5.6500   -4.8190   -2.2165 H   0  0  0  0  0  0  0  0  0  0  0  0
    5.8904   -4.8232   -0.4425 H   0  0  0  0  0  0  0  0  0  0  0  0
    1.4484   -2.9717   -0.7919 H   0  0  0  0  0  0  0  0  0  0  0  0
   -0.0052   -1.0636   -0.4474 H   0  0  0  0  0  0  0  0  0  0  0  0
  1  2  1  0
  2  3  1  0
  3  4  1  0
  4  5  1  0
  5  6  2  0
  6  7  1  0
  7  8  2  0
  8  9  1  0
  9 10  2  0
 10 11  1  0
 11 12  2  0
 12 13  1  0
  3 14  1  0
 14 15  2  0
 14 16  1  0
 16 17  1  0
 17 18  2  0
 18 19  1  0
 19 20  2  0
 20 21  1  0
 21 22  1  0
 22 23  1  0
 22 24  2  0
 20 25  1  0
 25 26  2  0
 13  5  1  0
 26 17  1  0
 12  7  1  0
  1 27  1  0
  1 28  1  0
  1 29  1  0
  2 30  1  0
  2 31  1  0
  3 32  1  0
  8 33  1  0
  9 34  1  0
 10 35  1  0
 11 36  1  0
 13 37  1  0
 16 38  1  0
 18 39  1  0
 19 40  1  0
 21 41  1  0
 23 42  1  0
 23 43  1  0
 23 44  1  0
 25 45  1  0
 26 46  1  0
M  END
$$$$
