
     RDKit          3D

 31 33  0  0  0  0  0  0  0  0999 V2000
    1.8137   -0.3580   -1.6448 O   0  0  0  0  0  0  0  0  0  0  0  0
    2.2710   -0.4150   -0.5079 C   0  0  0  0  0  0  0  0  0  0  0  0
    1.5235   -0.7921    0.5969 N   0  0  0  0  0  0  0  0  0  0  0  0
    0.1329   -0.8934    0.3937 N   0  0  0  0  0  0  0  0  0  0  0  0
   -0.6442    0.2400    0.5494 C   0  0  0  0  0  0  0  0  0  0  0  0
   -0.2566    1.3251    0.9636 O   0  0  0  0  0  0  0  0  0  0  0  0
   -2.0545   -0.0811    0.1897 C   0  0  0  0  0  0  0  0  0  0  0  0
   -2.9893    0.8791    0.2063 C   0  0  0  0  0  0  0  0  0  0  0  0
   -4.3654    0.7055   -0.1235 C   0  0  0  0  0  0  0  0  0  0  0  0
   -5.2538   -0.3228    0.1460 C   0  0  0  0  0  0  0  0  0  0  0  0
   -6.5629   -0.0844   -0.3670 C   0  0  0  0  0  0  0  0  0  0  0  0
   -6.6515    1.1309   -1.0022 C   0  0  0  0  0  0  0  0  0  0  0  0
   -5.1711    1.9788   -0.9689 S   0  0  0  0  0  0  0  0  0  0  0  0
   -2.1913   -1.7463   -0.2422 S   0  0  0  0  0  0  0  0  0  0  0  0
   -0.4768   -2.0666    0.0039 C   0  0  0  0  0  0  0  0  0  0  0  0
    0.2109   -3.5759   -0.1714 S   0  0  0  0  0  0  0  0  0  0  0  0
    3.6792   -0.0388   -0.2482 C   0  0  0  0  0  0  0  0  0  0  0  0
    4.4007   -0.4835    0.8632 C   0  0  0  0  0  0  0  0  0  0  0  0
    5.7255   -0.0785    1.0227 C   0  0  0  0  0  0  0  0  0  0  0  0
    6.2833    0.7524    0.0634 C   0  0  0  0  0  0  0  0  0  0  0  0
    5.6166    1.1898   -1.0260 N   0  0  0  0  0  0  0  0  0  0  0  0
    4.3314    0.7780   -1.1636 C   0  0  0  0  0  0  0  0  0  0  0  0
    1.7892   -0.4321    1.5084 H   0  0  0  0  0  0  0  0  0  0  0  0
   -2.6791    1.8936    0.4593 H   0  0  0  0  0  0  0  0  0  0  0  0
   -4.9895   -1.2175    0.6963 H   0  0  0  0  0  0  0  0  0  0  0  0
   -7.3961   -0.7694   -0.2686 H   0  0  0  0  0  0  0  0  0  0  0  0
   -7.5183    1.5678   -1.4791 H   0  0  0  0  0  0  0  0  0  0  0  0
    3.9667   -1.1604    1.5925 H   0  0  0  0  0  0  0  0  0  0  0  0
    6.3150   -0.4106    1.8709 H   0  0  0  0  0  0  0  0  0  0  0  0
    7.3121    1.0929    0.1445 H   0  0  0  0  0  0  0  0  0  0  0  0
    3.8289    1.1425   -2.0569 H   0  0  0  0  0  0  0  0  0  0  0  0
  1  2  2  0
  2  3  1  0
  3  4  1  0
  4  5  1  0
  5  6  2  0
  5  7  1  0
  7  8  2  3
  8  9  1  0
  9 10  2  0
 10 11  1  0
 11 12  2  0
 12 13  1  0
  7 14  1  0
 14 15  1  0
 15 16  2  0
  2 17  1  0
 17 18  2  0
 18 19  1  0
 19 20  2  0
 20 21  1  0
 21 22  2  0
 15  4  1  0
 22 17  1  0
 13  9  1  0
  3 23  1  0
  8 24  1  0
 10 25  1  0
 11 26  1  0
 12 27  1  0
 18 28  1  0
 19 29  1  0
 20 30  1  0
 22 31  1  0
M  END
$$$$
