
     RDKit          3D

 69 72  0  0  0  0  0  0  0  0999 V2000
  -11.3255    1.7234    0.7996 C   0  0  0  0  0  0  0  0  0  0  0  0
   -9.8773    1.5074    0.4729 C   0  0  0  0  0  0  0  0  0  0  0  0
   -9.1534    0.4959    1.1086 C   0  0  0  0  0  0  0  0  0  0  0  0
   -7.7972    0.3082    0.8231 C   0  0  0  0  0  0  0  0  0  0  0  0
   -7.1400    1.1263   -0.1112 C   0  0  0  0  0  0  0  0  0  0  0  0
   -5.7558    0.8883   -0.3827 N   0  0  0  0  0  0  0  0  0  0  0  0
   -5.0435    0.1283    0.4935 N   0  0  0  0  0  0  0  0  0  0  0  0
   -3.7740    0.2344    0.0959 C   0  0  0  0  0  0  0  0  0  0  0  0
   -2.6117   -0.3577    0.7459 C   0  0  0  0  0  0  0  0  0  0  0  0
   -2.6705   -1.0298    1.7745 O   0  0  0  0  0  0  0  0  0  0  0  0
   -1.4088   -0.0859    0.0605 N   0  0  0  0  0  0  0  0  0  0  0  0
   -0.1625   -0.6590    0.5595 C   0  0  0  0  0  0  0  0  0  0  0  0
    0.0331   -2.0930    0.0591 C   0  0  0  0  0  0  0  0  0  0  0  0
    1.2299   -2.7799    0.7128 C   0  0  0  0  0  0  0  0  0  0  0  0
    2.5664   -2.2432    0.2404 C   0  0  0  0  0  0  0  0  0  0  0  0
    2.6924   -1.4174   -0.6558 O   0  0  0  0  0  0  0  0  0  0  0  0
    3.6342   -2.7890    0.9189 N   0  0  0  0  0  0  0  0  0  0  0  0
    5.0015   -2.4011    0.6196 C   0  0  0  0  0  0  0  0  0  0  0  0
    5.3584   -1.0163    1.1937 C   0  0  0  0  0  0  0  0  0  0  0  0
    6.7665   -0.6399    0.9841 N   0  0  0  0  0  0  0  0  0  0  0  0
    7.0977    0.6008    1.7029 C   0  0  0  0  0  0  0  0  0  0  0  0
    8.5953    0.9961    1.5737 C   0  0  0  0  0  0  0  0  0  0  0  0
    9.2795    0.5929    0.3250 N   0  0  0  0  0  0  0  0  0  0  0  0
   10.0170   -0.6570    0.5147 C   0  0  0  0  0  0  0  0  0  0  0  0
    8.2865    0.4571   -0.7557 C   0  0  0  0  0  0  0  0  0  0  0  0
    7.0913   -0.4877   -0.4525 C   0  0  0  0  0  0  0  0  0  0  0  0
   -1.3064    0.6460   -1.1257 N   0  0  0  0  0  0  0  0  0  0  0  0
   -2.3585    1.1697   -1.6883 C   0  0  0  0  0  0  0  0  0  0  0  0
   -2.1712    1.9631   -2.9496 C   0  0  0  0  0  0  0  0  0  0  0  0
   -3.6558    0.9703   -1.0883 C   0  0  0  0  0  0  0  0  0  0  0  0
   -4.9495    1.3109   -1.4479 C   0  0  0  0  0  0  0  0  0  0  0  0
   -5.4576    1.9223   -2.7032 C   0  0  0  0  0  0  0  0  0  0  0  0
   -7.8555    2.1678   -0.7102 C   0  0  0  0  0  0  0  0  0  0  0  0
   -9.2135    2.3549   -0.4196 C   0  0  0  0  0  0  0  0  0  0  0  0
  -11.8488    2.2038   -0.0348 H   0  0  0  0  0  0  0  0  0  0  0  0
  -11.8268    0.7672    0.9883 H   0  0  0  0  0  0  0  0  0  0  0  0
  -11.4195    2.3572    1.6876 H   0  0  0  0  0  0  0  0  0  0  0  0
   -9.6368   -0.1578    1.8318 H   0  0  0  0  0  0  0  0  0  0  0  0
   -7.2681   -0.4950    1.3335 H   0  0  0  0  0  0  0  0  0  0  0  0
   -0.1895   -0.6454    1.6556 H   0  0  0  0  0  0  0  0  0  0  0  0
    0.6635   -0.0108    0.2472 H   0  0  0  0  0  0  0  0  0  0  0  0
   -0.8647   -2.6818    0.2848 H   0  0  0  0  0  0  0  0  0  0  0  0
    0.1368   -2.0935   -1.0332 H   0  0  0  0  0  0  0  0  0  0  0  0
    1.2034   -3.8482    0.4650 H   0  0  0  0  0  0  0  0  0  0  0  0
    1.1708   -2.6863    1.8036 H   0  0  0  0  0  0  0  0  0  0  0  0
    3.4685   -3.4240    1.6894 H   0  0  0  0  0  0  0  0  0  0  0  0
    5.6533   -3.1707    1.0477 H   0  0  0  0  0  0  0  0  0  0  0  0
    5.1234   -2.4166   -0.4691 H   0  0  0  0  0  0  0  0  0  0  0  0
    5.1578   -1.0516    2.2732 H   0  0  0  0  0  0  0  0  0  0  0  0
    4.6887   -0.2500    0.7814 H   0  0  0  0  0  0  0  0  0  0  0  0
    6.4773    1.4255    1.3246 H   0  0  0  0  0  0  0  0  0  0  0  0
    6.8694    0.4911    2.7706 H   0  0  0  0  0  0  0  0  0  0  0  0
    8.6537    2.0895    1.6408 H   0  0  0  0  0  0  0  0  0  0  0  0
    9.1446    0.6222    2.4475 H   0  0  0  0  0  0  0  0  0  0  0  0
   10.5135   -0.9533   -0.4166 H   0  0  0  0  0  0  0  0  0  0  0  0
    9.3870   -1.4888    0.8462 H   0  0  0  0  0  0  0  0  0  0  0  0
   10.8119   -0.5175    1.2563 H   0  0  0  0  0  0  0  0  0  0  0  0
    8.7754    0.1461   -1.6875 H   0  0  0  0  0  0  0  0  0  0  0  0
    7.8862    1.4595   -0.9606 H   0  0  0  0  0  0  0  0  0  0  0  0
    6.2263   -0.1132   -1.0163 H   0  0  0  0  0  0  0  0  0  0  0  0
    7.3308   -1.4826   -0.8455 H   0  0  0  0  0  0  0  0  0  0  0  0
   -2.6859    2.9255   -2.8704 H   0  0  0  0  0  0  0  0  0  0  0  0
   -2.5670    1.4001   -3.7997 H   0  0  0  0  0  0  0  0  0  0  0  0
   -1.1074    2.1531   -3.1242 H   0  0  0  0  0  0  0  0  0  0  0  0
   -6.4516    1.5499   -2.9675 H   0  0  0  0  0  0  0  0  0  0  0  0
   -4.8191    1.6636   -3.5522 H   0  0  0  0  0  0  0  0  0  0  0  0
   -5.4807    3.0133   -2.6226 H   0  0  0  0  0  0  0  0  0  0  0  0
   -7.3890    2.8879   -1.3711 H   0  0  0  0  0  0  0  0  0  0  0  0
   -9.7490    3.1758   -0.8919 H   0  0  0  0  0  0  0  0  0  0  0  0
  1  2  1  0
  2  3  2  0
  3  4  1  0
  4  5  2  0
  5  6  1  0
  6  7  1  0
  7  8  2  0
  8  9  1  0
  9 10  2  0
  9 11  1  0
 11 12  1  0
 12 13  1  0
 13 14  1  0
 14 15  1  0
 15 16  2  0
 15 17  1  0
 17 18  1  0
 18 19  1  0
 19 20  1  0
 20 21  1  0
 21 22  1  0
 22 23  1  0
 23 24  1  0
 23 25  1  0
 25 26  1  0
 11 27  1  0
 27 28  2  0
 28 29  1  0
 28 30  1  0
 30 31  2  0
 31 32  1  0
  5 33  1  0
 33 34  2  0
 34  2  1  0
 31  6  1  0
 30  8  1  0
 26 20  1  0
  1 35  1  0
  1 36  1  0
  1 37  1  0
  3 38  1  0
  4 39  1  0
 12 40  1  0
 12 41  1  0
 13 42  1  0
 13 43  1  0
 14 44  1  0
 14 45  1  0
 17 46  1  0
 18 47  1  0
 18 48  1  0
 19 49  1  0
 19 50  1  0
 21 51  1  0
 21 52  1  0
 22 53  1  0
 22 54  1  0
 24 55  1  0
 24 56  1  0
 24 57  1  0
 25 58  1  0
 25 59  1  0
 26 60  1  0
 26 61  1  0
 29 62  1  0
 29 63  1  0
 29 64  1  0
 32 65  1  0
 32 66  1  0
 32 67  1  0
 33 68  1  0
 34 69  1  0
M  END
$$$$
