
     RDKit          3D

 39 42  0  0  0  0  0  0  0  0999 V2000
   -1.2319    1.4108    3.6508 N   0  0  0  0  0  0  0  0  0  0  0  0
   -0.7717    0.3677    3.4327 C   0  0  0  0  0  0  0  0  0  0  0  0
   -0.1877   -0.9391    3.1026 C   0  0  0  0  0  0  0  0  0  0  0  0
   -0.8499   -1.6433    1.5587 S   0  0  0  0  0  0  0  0  0  0  0  0
   -0.5118   -0.2902    0.4812 C   0  0  0  0  0  0  0  0  0  0  0  0
    0.7215    0.1133    0.4875 N   0  0  0  0  0  0  0  0  0  0  0  0
    1.0006    1.2159   -0.2566 C   0  0  0  0  0  0  0  0  0  0  0  0
    0.0989    1.9204   -0.9340 C   0  0  0  0  0  0  0  0  0  0  0  0
    0.7501    3.2690   -1.7618 S   0  0  0  0  0  0  0  0  0  0  0  0
    2.3787    2.8738   -1.1558 C   0  0  0  0  0  0  0  0  0  0  0  0
    3.7168    3.7950   -1.5199 S   0  0  0  0  0  0  0  0  0  0  0  0
    2.2828    1.7283   -0.3582 N   0  0  0  0  0  0  0  0  0  0  0  0
    3.4220    1.0567    0.2668 C   0  0  0  0  0  0  0  0  0  0  0  0
    3.9011   -0.0494   -0.6062 C   0  0  0  0  0  0  0  0  0  0  0  0
    3.5830   -1.3894   -0.7034 C   0  0  0  0  0  0  0  0  0  0  0  0
    4.3885   -1.9181   -1.7404 C   0  0  0  0  0  0  0  0  0  0  0  0
    5.1479   -0.8713   -2.2067 C   0  0  0  0  0  0  0  0  0  0  0  0
    4.8615    0.2649   -1.5224 O   0  0  0  0  0  0  0  0  0  0  0  0
   -1.3046    1.4925   -0.9555 C   0  0  0  0  0  0  0  0  0  0  0  0
   -2.1372    2.1300   -1.5967 O   0  0  0  0  0  0  0  0  0  0  0  0
   -1.5513    0.3101   -0.2390 N   0  0  0  0  0  0  0  0  0  0  0  0
   -2.8802   -0.2271   -0.2981 C   0  0  0  0  0  0  0  0  0  0  0  0
   -3.1046   -1.5614   -0.6773 C   0  0  0  0  0  0  0  0  0  0  0  0
   -4.4038   -2.0721   -0.7461 C   0  0  0  0  0  0  0  0  0  0  0  0
   -5.4821   -1.2491   -0.4484 C   0  0  0  0  0  0  0  0  0  0  0  0
   -6.7257   -1.7409   -0.5148 F   0  0  0  0  0  0  0  0  0  0  0  0
   -5.2872    0.0781   -0.0911 C   0  0  0  0  0  0  0  0  0  0  0  0
   -3.9891    0.5908   -0.0228 C   0  0  0  0  0  0  0  0  0  0  0  0
    0.9016   -0.8626    3.0241 H   0  0  0  0  0  0  0  0  0  0  0  0
   -0.3999   -1.6511    3.9066 H   0  0  0  0  0  0  0  0  0  0  0  0
    4.2324    1.7700    0.4462 H   0  0  0  0  0  0  0  0  0  0  0  0
    3.1253    0.6737    1.2503 H   0  0  0  0  0  0  0  0  0  0  0  0
    2.8540   -1.9149   -0.1025 H   0  0  0  0  0  0  0  0  0  0  0  0
    4.4140   -2.9350   -2.1056 H   0  0  0  0  0  0  0  0  0  0  0  0
    5.8986   -0.7740   -2.9789 H   0  0  0  0  0  0  0  0  0  0  0  0
   -2.2795   -2.2130   -0.9553 H   0  0  0  0  0  0  0  0  0  0  0  0
   -4.5810   -3.1019   -1.0404 H   0  0  0  0  0  0  0  0  0  0  0  0
   -6.1431    0.7091    0.1274 H   0  0  0  0  0  0  0  0  0  0  0  0
   -3.8570    1.6339    0.2597 H   0  0  0  0  0  0  0  0  0  0  0  0
  1  2  3  0
  2  3  1  0
  3  4  1  0
  4  5  1  0
  5  6  2  0
  6  7  1  0
  7  8  2  0
  8  9  1  0
  9 10  1  0
 10 11  2  0
 10 12  1  0
 12 13  1  0
 13 14  1  0
 14 15  2  0
 15 16  1  0
 16 17  2  0
 17 18  1  0
  8 19  1  0
 19 20  2  0
 19 21  1  0
 21 22  1  0
 22 23  2  0
 23 24  1  0
 24 25  2  0
 25 26  1  0
 25 27  1  0
 27 28  2  0
 21  5  1  0
 28 22  1  0
 12  7  1  0
 18 14  1  0
  3 29  1  0
  3 30  1  0
 13 31  1  0
 13 32  1  0
 15 33  1  0
 16 34  1  0
 17 35  1  0
 23 36  1  0
 24 37  1  0
 27 38  1  0
 28 39  1  0
M  END
$$$$
