
     RDKit          3D

 47 50  0  0  0  0  0  0  0  0999 V2000
   -2.0245    2.6442    0.7578 O   0  0  0  0  0  0  0  0  0  0  0  0
   -2.7028    1.6028    0.8016 C   0  0  0  0  0  0  0  0  0  0  0  0
   -4.2331    1.7510    0.7582 C   0  0  0  0  0  0  0  0  0  0  0  0
   -5.0989    1.2943    1.9561 C   0  0  0  0  0  0  0  0  0  0  0  0
   -6.2402    1.0350    0.9531 C   0  0  0  0  0  0  0  0  0  0  0  0
   -5.1724    0.9344   -0.1557 C   0  0  0  0  0  0  0  0  0  0  0  0
   -2.1019    0.3480    0.9122 N   0  0  0  0  0  0  0  0  0  0  0  0
   -2.7445   -0.9706    0.7717 C   0  0  0  0  0  0  0  0  0  0  0  0
   -1.7139   -2.0383    1.1514 C   0  0  0  0  0  0  0  0  0  0  0  0
   -0.4482   -1.2472    1.1403 C   0  0  0  0  0  0  0  0  0  0  0  0
    0.8430   -1.7387    1.2736 C   0  0  0  0  0  0  0  0  0  0  0  0
    1.8897   -0.8148    1.3094 C   0  0  0  0  0  0  0  0  0  0  0  0
    3.5667   -1.3823    1.4417 S   0  0  0  0  0  6  0  0  0  0  0  0
    4.1773   -0.6730    2.5423 O   0  0  0  0  0  0  0  0  0  0  0  0
    3.5767   -2.8257    1.3559 O   0  0  0  0  0  0  0  0  0  0  0  0
    4.2376   -0.7811    0.0410 N   0  0  0  0  0  0  0  0  0  0  0  0
    4.0339   -1.5171   -1.2070 C   0  0  0  0  0  0  0  0  0  0  0  0
    4.1436   -0.6017   -2.4075 C   0  0  0  0  0  0  0  0  0  0  0  0
    3.0752    0.2246   -2.7549 C   0  0  0  0  0  0  0  0  0  0  0  0
    3.2171    1.0863   -3.8385 C   0  0  0  0  0  0  0  0  0  0  0  0
    4.4170    1.1075   -4.5386 C   0  0  0  0  0  0  0  0  0  0  0  0
    5.4331    0.2650   -4.1212 C   0  0  0  0  0  0  0  0  0  0  0  0
    5.3265   -0.5812   -3.0729 N   0  0  0  0  0  0  0  0  0  0  0  0
    1.6424    0.5657    1.2331 C   0  0  0  0  0  0  0  0  0  0  0  0
    0.3320    1.0391    1.1008 C   0  0  0  0  0  0  0  0  0  0  0  0
   -0.7094    0.1241    1.0459 C   0  0  0  0  0  0  0  0  0  0  0  0
   -4.4417    2.8225    0.5734 H   0  0  0  0  0  0  0  0  0  0  0  0
   -5.3075    2.0673    2.7019 H   0  0  0  0  0  0  0  0  0  0  0  0
   -4.7525    0.4003    2.4812 H   0  0  0  0  0  0  0  0  0  0  0  0
   -6.9198    1.8863    0.8319 H   0  0  0  0  0  0  0  0  0  0  0  0
   -6.8285    0.1309    1.1287 H   0  0  0  0  0  0  0  0  0  0  0  0
   -5.4418    1.4224   -1.0976 H   0  0  0  0  0  0  0  0  0  0  0  0
   -4.8920   -0.0944   -0.3801 H   0  0  0  0  0  0  0  0  0  0  0  0
   -3.6443   -1.0520    1.3823 H   0  0  0  0  0  0  0  0  0  0  0  0
   -3.0199   -1.0863   -0.2828 H   0  0  0  0  0  0  0  0  0  0  0  0
   -1.7040   -2.8627    0.4330 H   0  0  0  0  0  0  0  0  0  0  0  0
   -1.9056   -2.4251    2.1577 H   0  0  0  0  0  0  0  0  0  0  0  0
    1.0277   -2.8059    1.3574 H   0  0  0  0  0  0  0  0  0  0  0  0
    5.1271   -0.2978    0.1581 H   0  0  0  0  0  0  0  0  0  0  0  0
    4.7962   -2.3008   -1.2838 H   0  0  0  0  0  0  0  0  0  0  0  0
    3.0531   -2.0049   -1.2303 H   0  0  0  0  0  0  0  0  0  0  0  0
    2.1499    0.2072   -2.1870 H   0  0  0  0  0  0  0  0  0  0  0  0
    2.3998    1.7406   -4.1290 H   0  0  0  0  0  0  0  0  0  0  0  0
    4.5594    1.7690   -5.3857 H   0  0  0  0  0  0  0  0  0  0  0  0
    6.3913    0.2490   -4.6330 H   0  0  0  0  0  0  0  0  0  0  0  0
    2.4668    1.2750    1.2777 H   0  0  0  0  0  0  0  0  0  0  0  0
    0.1643    2.1094    1.0459 H   0  0  0  0  0  0  0  0  0  0  0  0
  1  2  2  0
  2  3  1  0
  3  4  1  0
  4  5  1  0
  5  6  1  0
  2  7  1  0
  7  8  1  0
  8  9  1  0
  9 10  1  0
 10 11  2  0
 11 12  1  0
 12 13  1  0
 13 14  2  0
 13 15  2  0
 13 16  1  0
 16 17  1  0
 17 18  1  0
 18 19  2  0
 19 20  1  0
 20 21  2  0
 21 22  1  0
 22 23  2  0
 12 24  2  0
 24 25  1  0
 25 26  2  0
  6  3  1  0
 26  7  1  0
 26 10  1  0
 23 18  1  0
  3 27  1  0
  4 28  1  0
  4 29  1  0
  5 30  1  0
  5 31  1  0
  6 32  1  0
  6 33  1  0
  8 34  1  0
  8 35  1  0
  9 36  1  0
  9 37  1  0
 11 38  1  0
 16 39  1  0
 17 40  1  0
 17 41  1  0
 19 42  1  0
 20 43  1  0
 21 44  1  0
 22 45  1  0
 24 46  1  0
 25 47  1  0
M  END
$$$$
