
     RDKit          3D

 49 52  0  0  0  0  0  0  0  0999 V2000
    1.2820    4.1409   -0.8962 N   0  0  0  0  0  0  0  0  0  0  0  0
    0.1960    3.4612   -0.4857 C   0  0  0  0  0  0  0  0  0  0  0  0
   -0.8306    4.0563    0.0538 N   0  0  0  0  0  0  0  0  0  0  0  0
   -1.7770    2.9369    0.3357 C   0  0  0  0  0  0  0  0  0  0  0  0
   -1.2126    1.6730   -0.3679 C   0  0  0  0  0  0  0  0  0  0  0  0
   -1.2990    0.4278    0.5233 C   0  0  0  0  0  0  0  0  0  0  0  0
   -2.7206   -0.0669    0.6637 C   0  0  0  0  0  0  0  0  0  0  0  0
   -3.2984   -0.8564   -0.3415 C   0  0  0  0  0  0  0  0  0  0  0  0
   -4.6255   -1.2895   -0.2353 C   0  0  0  0  0  0  0  0  0  0  0  0
   -5.3746   -0.9240    0.8783 C   0  0  0  0  0  0  0  0  0  0  0  0
   -6.6660   -1.3327    1.0259 O   0  0  0  0  0  0  0  0  0  0  0  0
   -4.8240   -0.1288    1.8778 C   0  0  0  0  0  0  0  0  0  0  0  0
   -3.4954    0.2874    1.7766 C   0  0  0  0  0  0  0  0  0  0  0  0
    0.1571    2.1089   -0.6368 N   0  0  0  0  0  0  0  0  0  0  0  0
    1.0655    1.2965   -1.4359 C   0  0  0  0  0  0  0  0  0  0  0  0
    2.4272    1.1350   -0.7390 C   0  0  0  0  0  0  0  0  0  0  0  0
    2.5058   -0.0733    0.1673 C   0  0  0  0  0  0  0  0  0  0  0  0
    2.1262    0.1037    1.5102 C   0  0  0  0  0  0  0  0  0  0  0  0
    2.1956   -0.9509    2.4175 C   0  0  0  0  0  0  0  0  0  0  0  0
    2.6467   -2.2000    1.9952 C   0  0  0  0  0  0  0  0  0  0  0  0
    3.0328   -2.4111    0.6636 C   0  0  0  0  0  0  0  0  0  0  0  0
    3.5105   -3.6754    0.2663 C   0  0  0  0  0  0  0  0  0  0  0  0
    3.9108   -3.9133   -1.0476 C   0  0  0  0  0  0  0  0  0  0  0  0
    3.8160   -2.8956   -1.9888 C   0  0  0  0  0  0  0  0  0  0  0  0
    3.3321   -1.6275   -1.6107 C   0  0  0  0  0  0  0  0  0  0  0  0
    2.9506   -1.3468   -0.2785 C   0  0  0  0  0  0  0  0  0  0  0  0
    1.1341    5.1380   -0.7704 H   0  0  0  0  0  0  0  0  0  0  0  0
    1.5434    3.9410   -1.8544 H   0  0  0  0  0  0  0  0  0  0  0  0
   -1.8437    2.8234    1.4228 H   0  0  0  0  0  0  0  0  0  0  0  0
   -2.7731    3.1816   -0.0480 H   0  0  0  0  0  0  0  0  0  0  0  0
   -1.7349    1.5229   -1.3215 H   0  0  0  0  0  0  0  0  0  0  0  0
   -0.8775    0.6389    1.5156 H   0  0  0  0  0  0  0  0  0  0  0  0
   -0.6915   -0.3895    0.1160 H   0  0  0  0  0  0  0  0  0  0  0  0
   -2.7177   -1.1379   -1.2129 H   0  0  0  0  0  0  0  0  0  0  0  0
   -5.0554   -1.8984   -1.0272 H   0  0  0  0  0  0  0  0  0  0  0  0
   -6.8765   -1.9511    0.3047 H   0  0  0  0  0  0  0  0  0  0  0  0
   -5.4221    0.1511    2.7386 H   0  0  0  0  0  0  0  0  0  0  0  0
   -3.0704    0.8865    2.5724 H   0  0  0  0  0  0  0  0  0  0  0  0
    0.6233    0.3157   -1.6547 H   0  0  0  0  0  0  0  0  0  0  0  0
    1.2134    1.7837   -2.4102 H   0  0  0  0  0  0  0  0  0  0  0  0
    3.2269    1.0925   -1.4869 H   0  0  0  0  0  0  0  0  0  0  0  0
    2.6721    2.0168   -0.1436 H   0  0  0  0  0  0  0  0  0  0  0  0
    1.7675    1.0748    1.8511 H   0  0  0  0  0  0  0  0  0  0  0  0
    1.8946   -0.7989    3.4492 H   0  0  0  0  0  0  0  0  0  0  0  0
    2.6921   -3.0082    2.7163 H   0  0  0  0  0  0  0  0  0  0  0  0
    3.5879   -4.4852    0.9882 H   0  0  0  0  0  0  0  0  0  0  0  0
    4.2949   -4.8876   -1.3308 H   0  0  0  0  0  0  0  0  0  0  0  0
    4.1169   -3.0756   -3.0177 H   0  0  0  0  0  0  0  0  0  0  0  0
    3.2645   -0.8699   -2.3850 H   0  0  0  0  0  0  0  0  0  0  0  0
  1  2  1  0
  2  3  2  0
  3  4  1  0
  4  5  1  0
  5  6  1  0
  6  7  1  0
  7  8  2  0
  8  9  1  0
  9 10  2  0
 10 11  1  0
 10 12  1  0
 12 13  2  0
  5 14  1  0
 14 15  1  0
 15 16  1  0
 16 17  1  0
 17 18  2  0
 18 19  1  0
 19 20  2  0
 20 21  1  0
 21 22  2  0
 22 23  1  0
 23 24  2  0
 24 25  1  0
 25 26  2  0
 14  2  1  0
 26 17  1  0
 13  7  1  0
 26 21  1  0
  1 27  1  0
  1 28  1  0
  4 29  1  0
  4 30  1  0
  5 31  1  0
  6 32  1  0
  6 33  1  0
  8 34  1  0
  9 35  1  0
 11 36  1  0
 12 37  1  0
 13 38  1  0
 15 39  1  0
 15 40  1  0
 16 41  1  0
 16 42  1  0
 18 43  1  0
 19 44  1  0
 20 45  1  0
 22 46  1  0
 23 47  1  0
 24 48  1  0
 25 49  1  0
M  END
$$$$
