
     RDKit          3D

 45 48  0  0  0  0  0  0  0  0999 V2000
   -3.0883   -2.8792   -0.6369 C   0  0  0  0  0  0  0  0  0  0  0  0
   -3.0262   -1.4365   -0.2823 C   0  0  0  0  0  0  0  0  0  0  0  0
   -4.0405   -0.4985   -0.4383 C   0  0  0  0  0  0  0  0  0  0  0  0
   -5.2738   -0.5973   -0.9186 O   0  0  0  0  0  0  0  0  0  0  0  0
   -3.5685    0.6971    0.0141 N   0  0  0  0  0  0  0  0  0  0  0  0
   -2.2744    0.5682    0.4453 C   0  0  0  0  0  0  0  0  0  0  0  0
   -1.4812    1.5875    0.9760 C   0  0  0  0  0  0  0  0  0  0  0  0
   -0.1794    1.2333    1.3316 C   0  0  0  0  0  0  0  0  0  0  0  0
    0.2538   -0.0903    1.1685 C   0  0  0  0  0  0  0  0  0  0  0  0
    1.9126   -0.5359    1.6225 S   0  0  0  0  0  6  0  0  0  0  0  0
    2.5869    0.6407    2.1317 O   0  0  0  0  0  0  0  0  0  0  0  0
    1.8315   -1.7497    2.4076 O   0  0  0  0  0  0  0  0  0  0  0  0
    2.6293   -0.9184    0.1157 N   0  0  0  0  0  0  0  0  0  0  0  0
    2.6287    0.1834   -0.8882 C   0  0  0  0  0  0  0  0  0  0  0  0
    3.4940   -0.1886   -2.0861 C   0  0  0  0  0  0  0  0  0  0  0  0
    4.9547   -0.3738   -1.6814 C   0  0  0  0  0  0  0  0  0  0  0  0
    5.1005   -0.8114   -0.2259 C   0  0  0  0  0  0  0  0  0  0  0  0
    3.9203   -1.6604    0.2259 C   0  0  0  0  0  0  0  0  0  0  0  0
   -0.5854   -1.1001    0.6548 C   0  0  0  0  0  0  0  0  0  0  0  0
   -1.8938   -0.7500    0.2754 C   0  0  0  0  0  0  0  0  0  0  0  0
   -2.0604    2.9696    1.0704 C   0  0  0  0  0  0  0  0  0  0  0  0
   -3.6042    2.9049    1.1396 C   0  0  0  0  0  0  0  0  0  0  0  0
   -4.2286    1.9917    0.0627 C   0  0  0  0  0  0  0  0  0  0  0  0
   -4.0471   -3.3122   -0.3340 H   0  0  0  0  0  0  0  0  0  0  0  0
   -2.2966   -3.4493   -0.1413 H   0  0  0  0  0  0  0  0  0  0  0  0
   -2.9770   -3.0070   -1.7183 H   0  0  0  0  0  0  0  0  0  0  0  0
   -5.4089   -1.5250   -1.1789 H   0  0  0  0  0  0  0  0  0  0  0  0
    0.4925    1.9865    1.7381 H   0  0  0  0  0  0  0  0  0  0  0  0
    2.9912    1.1164   -0.4425 H   0  0  0  0  0  0  0  0  0  0  0  0
    1.6045    0.3445   -1.2396 H   0  0  0  0  0  0  0  0  0  0  0  0
    3.1207   -1.1212   -2.5285 H   0  0  0  0  0  0  0  0  0  0  0  0
    3.4210    0.5798   -2.8638 H   0  0  0  0  0  0  0  0  0  0  0  0
    5.4172   -1.1133   -2.3458 H   0  0  0  0  0  0  0  0  0  0  0  0
    5.5077    0.5616   -1.8282 H   0  0  0  0  0  0  0  0  0  0  0  0
    6.0378   -1.3651   -0.1009 H   0  0  0  0  0  0  0  0  0  0  0  0
    5.1739    0.0775    0.4137 H   0  0  0  0  0  0  0  0  0  0  0  0
    4.0980   -2.0025    1.2507 H   0  0  0  0  0  0  0  0  0  0  0  0
    3.8403   -2.5638   -0.3907 H   0  0  0  0  0  0  0  0  0  0  0  0
   -0.2245   -2.1192    0.5488 H   0  0  0  0  0  0  0  0  0  0  0  0
   -1.7512    3.5440    0.1896 H   0  0  0  0  0  0  0  0  0  0  0  0
   -1.6805    3.4809    1.9619 H   0  0  0  0  0  0  0  0  0  0  0  0
   -3.8919    2.5209    2.1281 H   0  0  0  0  0  0  0  0  0  0  0  0
   -4.0218    3.9146    1.0578 H   0  0  0  0  0  0  0  0  0  0  0  0
   -5.2905    1.8288    0.2723 H   0  0  0  0  0  0  0  0  0  0  0  0
   -4.1218    2.4365   -0.9327 H   0  0  0  0  0  0  0  0  0  0  0  0
  1  2  1  0
  2  3  2  0
  3  4  1  0
  3  5  1  0
  5  6  1  0
  6  7  2  0
  7  8  1  0
  8  9  2  0
  9 10  1  0
 10 11  2  0
 10 12  2  0
 10 13  1  0
 13 14  1  0
 14 15  1  0
 15 16  1  0
 16 17  1  0
 17 18  1  0
  9 19  1  0
 19 20  2  0
  7 21  1  0
 21 22  1  0
 22 23  1  0
 20  2  1  0
 23  5  1  0
 20  6  1  0
 18 13  1  0
  1 24  1  0
  1 25  1  0
  1 26  1  0
  4 27  1  0
  8 28  1  0
 14 29  1  0
 14 30  1  0
 15 31  1  0
 15 32  1  0
 16 33  1  0
 16 34  1  0
 17 35  1  0
 17 36  1  0
 18 37  1  0
 18 38  1  0
 19 39  1  0
 21 40  1  0
 21 41  1  0
 22 42  1  0
 22 43  1  0
 23 44  1  0
 23 45  1  0
M  END
$$$$
