
     RDKit          3D

 38 40  0  0  0  0  0  0  0  0999 V2000
   -2.9772   -1.6912    1.7666 C   0  0  0  0  0  0  0  0  0  0  0  0
   -3.5590   -0.6762    0.8403 C   0  0  0  0  0  0  0  0  0  0  0  0
   -4.9020   -0.4254    0.6333 C   0  0  0  0  0  0  0  0  0  0  0  0
   -5.0104    0.5195   -0.3990 C   0  0  0  0  0  0  0  0  0  0  0  0
   -3.7324    0.8588   -0.8003 C   0  0  0  0  0  0  0  0  0  0  0  0
   -3.3622    1.9040   -1.7980 C   0  0  0  0  0  0  0  0  0  0  0  0
   -2.8242    0.1206   -0.0397 N   0  0  0  0  0  0  0  0  0  0  0  0
   -1.4079    0.1678   -0.1442 C   0  0  0  0  0  0  0  0  0  0  0  0
   -0.7684    0.2096   -1.3771 C   0  0  0  0  0  0  0  0  0  0  0  0
    0.6276    0.2525   -1.4196 C   0  0  0  0  0  0  0  0  0  0  0  0
    1.3725    0.2453   -0.2390 C   0  0  0  0  0  0  0  0  0  0  0  0
    2.7616    0.3050   -0.2720 N   0  0  0  0  0  0  0  0  0  0  0  0
    3.4838   -0.5303   -1.2479 C   0  0  0  0  0  0  0  0  0  0  0  0
    4.5593   -1.3832   -0.5528 C   0  0  0  0  0  0  0  0  0  0  0  0
    5.5174   -0.6124    0.1849 O   0  0  0  0  0  0  0  0  0  0  0  0
    4.9470    0.5456    0.8178 C   0  0  0  0  0  0  0  0  0  0  0  0
    3.4281    0.4562    1.0325 C   0  0  0  0  0  0  0  0  0  0  0  0
    0.7463    0.2280    0.9578 N   0  0  0  0  0  0  0  0  0  0  0  0
   -0.6094    0.1862    0.9865 C   0  0  0  0  0  0  0  0  0  0  0  0
   -2.6551   -1.2235    2.7015 H   0  0  0  0  0  0  0  0  0  0  0  0
   -2.1334   -2.2198    1.3132 H   0  0  0  0  0  0  0  0  0  0  0  0
   -3.7275   -2.4480    2.0218 H   0  0  0  0  0  0  0  0  0  0  0  0
   -5.7192   -0.9001    1.1622 H   0  0  0  0  0  0  0  0  0  0  0  0
   -5.9265    0.9354   -0.7999 H   0  0  0  0  0  0  0  0  0  0  0  0
   -2.4994    2.4920   -1.4712 H   0  0  0  0  0  0  0  0  0  0  0  0
   -4.1913    2.6066   -1.9388 H   0  0  0  0  0  0  0  0  0  0  0  0
   -3.1491    1.4529   -2.7714 H   0  0  0  0  0  0  0  0  0  0  0  0
   -1.3191    0.1722   -2.3109 H   0  0  0  0  0  0  0  0  0  0  0  0
    1.1233    0.3075   -2.3831 H   0  0  0  0  0  0  0  0  0  0  0  0
    2.8200   -1.2049   -1.8004 H   0  0  0  0  0  0  0  0  0  0  0  0
    3.9634    0.1403   -1.9703 H   0  0  0  0  0  0  0  0  0  0  0  0
    4.0956   -2.0968    0.1387 H   0  0  0  0  0  0  0  0  0  0  0  0
    5.1116   -1.9665   -1.2966 H   0  0  0  0  0  0  0  0  0  0  0  0
    5.1910    1.4118    0.1917 H   0  0  0  0  0  0  0  0  0  0  0  0
    5.4576    0.6800    1.7766 H   0  0  0  0  0  0  0  0  0  0  0  0
    3.2047   -0.4040    1.6767 H   0  0  0  0  0  0  0  0  0  0  0  0
    3.0874    1.3707    1.5324 H   0  0  0  0  0  0  0  0  0  0  0  0
   -1.0246    0.2138    1.9887 H   0  0  0  0  0  0  0  0  0  0  0  0
  1  2  1  0
  2  3  2  0
  3  4  1  0
  4  5  2  0
  5  6  1  0
  5  7  1  0
  7  8  1  0
  8  9  2  0
  9 10  1  0
 10 11  2  0
 11 12  1  0
 12 13  1  0
 13 14  1  0
 14 15  1  0
 15 16  1  0
 16 17  1  0
 11 18  1  0
 18 19  2  0
  7  2  1  0
 19  8  1  0
 17 12  1  0
  1 20  1  0
  1 21  1  0
  1 22  1  0
  3 23  1  0
  4 24  1  0
  6 25  1  0
  6 26  1  0
  6 27  1  0
  9 28  1  0
 10 29  1  0
 13 30  1  0
 13 31  1  0
 14 32  1  0
 14 33  1  0
 16 34  1  0
 16 35  1  0
 17 36  1  0
 17 37  1  0
 19 38  1  0
M  END
$$$$
