
     RDKit          3D

 38 40  0  0  0  0  0  0  0  0999 V2000
    1.4174   -0.5272    2.0236 O   0  0  0  0  0  0  0  0  0  0  0  0
    1.1503    0.3271    1.1820 C   0  0  0  0  0  0  0  0  0  0  0  0
   -0.1495    1.1369    1.2716 C   0  0  0  0  0  0  0  0  0  0  0  0
   -1.1431    0.7091    0.2794 N   0  0  0  0  0  0  0  0  0  0  0  0
   -0.9849    1.1578   -1.0275 C   0  0  0  0  0  0  0  0  0  0  0  0
   -0.0712    1.9254   -1.3486 O   0  0  0  0  0  0  0  0  0  0  0  0
   -1.9063    0.5925   -2.0825 C   0  0  0  0  0  0  0  0  0  0  0  0
   -3.2100    1.3537   -2.1723 C   0  0  0  0  0  0  0  0  0  0  0  0
   -4.0695    1.6384   -0.5963 S   0  0  0  0  0  0  0  0  0  0  0  0
   -3.5810    0.1847    0.3292 C   0  0  0  0  0  0  0  0  0  0  0  0
   -4.6235   -0.6283    0.8012 C   0  0  0  0  0  0  0  0  0  0  0  0
   -4.3625   -1.6992    1.6543 C   0  0  0  0  0  0  0  0  0  0  0  0
   -3.0591   -1.9533    2.0632 C   0  0  0  0  0  0  0  0  0  0  0  0
   -2.0137   -1.1446    1.6115 C   0  0  0  0  0  0  0  0  0  0  0  0
   -2.2507   -0.0783    0.7274 C   0  0  0  0  0  0  0  0  0  0  0  0
    1.9211    0.6662    0.0828 N   0  0  0  0  0  0  0  0  0  0  0  0
    3.1664    0.1361   -0.3015 C   0  0  0  0  0  0  0  0  0  0  0  0
    3.7108    0.6047   -1.5066 C   0  0  0  0  0  0  0  0  0  0  0  0
    4.9439    0.1314   -1.9612 C   0  0  0  0  0  0  0  0  0  0  0  0
    5.6330   -0.8100   -1.2091 C   0  0  0  0  0  0  0  0  0  0  0  0
    6.8153   -1.2656   -1.6428 F   0  0  0  0  0  0  0  0  0  0  0  0
    5.1115   -1.2840   -0.0127 C   0  0  0  0  0  0  0  0  0  0  0  0
    3.8768   -0.8101    0.4426 C   0  0  0  0  0  0  0  0  0  0  0  0
   -0.5534    1.0628    2.2880 H   0  0  0  0  0  0  0  0  0  0  0  0
    0.0880    2.1964    1.1128 H   0  0  0  0  0  0  0  0  0  0  0  0
   -1.3868    0.6479   -3.0475 H   0  0  0  0  0  0  0  0  0  0  0  0
   -2.0691   -0.4778   -1.9108 H   0  0  0  0  0  0  0  0  0  0  0  0
   -3.8944    0.8222   -2.8421 H   0  0  0  0  0  0  0  0  0  0  0  0
   -3.0323    2.3395   -2.6160 H   0  0  0  0  0  0  0  0  0  0  0  0
   -5.6550   -0.4192    0.5235 H   0  0  0  0  0  0  0  0  0  0  0  0
   -5.1786   -2.3217    2.0128 H   0  0  0  0  0  0  0  0  0  0  0  0
   -2.8499   -2.7825    2.7355 H   0  0  0  0  0  0  0  0  0  0  0  0
   -1.0068   -1.3921    1.9398 H   0  0  0  0  0  0  0  0  0  0  0  0
    1.5033    1.3454   -0.5575 H   0  0  0  0  0  0  0  0  0  0  0  0
    3.1807    1.3418   -2.1056 H   0  0  0  0  0  0  0  0  0  0  0  0
    5.3676    0.4909   -2.8932 H   0  0  0  0  0  0  0  0  0  0  0  0
    5.6653   -2.0188    0.5629 H   0  0  0  0  0  0  0  0  0  0  0  0
    3.4998   -1.1982    1.3835 H   0  0  0  0  0  0  0  0  0  0  0  0
  1  2  2  0
  2  3  1  0
  3  4  1  0
  4  5  1  0
  5  6  2  0
  5  7  1  0
  7  8  1  0
  8  9  1  0
  9 10  1  0
 10 11  2  0
 11 12  1  0
 12 13  2  0
 13 14  1  0
 14 15  2  0
  2 16  1  0
 16 17  1  0
 17 18  2  0
 18 19  1  0
 19 20  2  0
 20 21  1  0
 20 22  1  0
 22 23  2  0
 15  4  1  0
 23 17  1  0
 15 10  1  0
  3 24  1  0
  3 25  1  0
  7 26  1  0
  7 27  1  0
  8 28  1  0
  8 29  1  0
 11 30  1  0
 12 31  1  0
 13 32  1  0
 14 33  1  0
 16 34  1  0
 18 35  1  0
 19 36  1  0
 22 37  1  0
 23 38  1  0
M  END
$$$$
