
     RDKit          3D

 58 60  0  0  0  0  0  0  0  0999 V2000
   -6.4370    1.7085   -1.0711 C   0  0  0  0  0  0  0  0  0  0  0  0
   -6.2356    0.4729   -1.7435 O   0  0  0  0  0  0  0  0  0  0  0  0
   -5.4296   -0.4635   -1.1491 C   0  0  0  0  0  0  0  0  0  0  0  0
   -4.7279   -0.2582    0.0476 C   0  0  0  0  0  0  0  0  0  0  0  0
   -3.9154   -1.2685    0.5713 C   0  0  0  0  0  0  0  0  0  0  0  0
   -3.1747   -1.1764    1.7245 O   0  0  0  0  0  0  0  0  0  0  0  0
   -3.1215    0.0917    2.3708 C   0  0  0  0  0  0  0  0  0  0  0  0
   -3.8120   -2.4973   -0.1062 C   0  0  0  0  0  0  0  0  0  0  0  0
   -2.9318   -3.4974    0.4199 N   0  0  0  0  0  0  0  0  0  0  0  0
   -1.5331   -3.8717   -0.4517 S   0  0  0  0  0  6  0  0  0  0  0  0
   -1.9106   -4.4725   -1.7128 O   0  0  0  0  0  0  0  0  0  0  0  0
   -0.6299   -4.5365    0.4622 O   0  0  0  0  0  0  0  0  0  0  0  0
   -0.8276   -2.2741   -0.8053 C   0  0  0  0  0  0  0  0  0  0  0  0
   -0.8732   -1.7611   -2.1049 C   0  0  0  0  0  0  0  0  0  0  0  0
   -0.3549   -0.4895   -2.3626 C   0  0  0  0  0  0  0  0  0  0  0  0
    0.2138    0.2645   -1.3298 C   0  0  0  0  0  0  0  0  0  0  0  0
    0.7548    1.8599   -1.7066 Cl  0  0  0  0  0  0  0  0  0  0  0  0
    0.2827   -0.2724   -0.0386 C   0  0  0  0  0  0  0  0  0  0  0  0
    0.8307    0.4799    1.0989 C   0  0  0  0  0  0  0  0  0  0  0  0
    0.1832    0.7301    2.1007 O   0  0  0  0  0  0  0  0  0  0  0  0
    2.1327    0.7490    0.8635 O   0  0  0  0  0  0  0  0  0  0  0  0
    2.8307    1.4253    1.9155 C   0  0  0  0  0  0  0  0  0  0  0  0
    2.5764    2.9274    1.8543 C   0  0  0  0  0  0  0  0  0  0  0  0
    4.3456    1.1440    1.8827 C   0  0  0  0  0  0  0  0  0  0  0  0
    4.9514    0.9542    2.9434 O   0  0  0  0  0  0  0  0  0  0  0  0
    5.0188    1.1623    0.6797 N   0  0  0  0  0  0  0  0  0  0  0  0
    6.4505    0.9086    0.6305 C   0  0  0  0  0  0  0  0  0  0  0  0
    6.7524    0.6740   -0.8427 C   0  0  0  0  0  0  0  0  0  0  0  0
    5.6970    1.5177   -1.5442 C   0  0  0  0  0  0  0  0  0  0  0  0
    4.4732    1.3269   -0.6592 C   0  0  0  0  0  0  0  0  0  0  0  0
   -0.2376   -1.5450    0.2302 C   0  0  0  0  0  0  0  0  0  0  0  0
   -4.5068   -2.7152   -1.2912 C   0  0  0  0  0  0  0  0  0  0  0  0
   -5.3102   -1.6995   -1.8101 C   0  0  0  0  0  0  0  0  0  0  0  0
   -6.1449   -2.0103   -3.2932 Cl  0  0  0  0  0  0  0  0  0  0  0  0
   -6.8989    1.5536   -0.0905 H   0  0  0  0  0  0  0  0  0  0  0  0
   -7.1265    2.3083   -1.6728 H   0  0  0  0  0  0  0  0  0  0  0  0
   -5.4991    2.2662   -0.9848 H   0  0  0  0  0  0  0  0  0  0  0  0
   -4.8135    0.6866    0.5686 H   0  0  0  0  0  0  0  0  0  0  0  0
   -2.4358    0.0062    3.2191 H   0  0  0  0  0  0  0  0  0  0  0  0
   -2.7303    0.8621    1.6980 H   0  0  0  0  0  0  0  0  0  0  0  0
   -4.1049    0.3705    2.7628 H   0  0  0  0  0  0  0  0  0  0  0  0
   -2.7196   -3.3800    1.4139 H   0  0  0  0  0  0  0  0  0  0  0  0
   -1.3240   -2.3323   -2.9154 H   0  0  0  0  0  0  0  0  0  0  0  0
   -0.4139   -0.0853   -3.3717 H   0  0  0  0  0  0  0  0  0  0  0  0
    2.4843    1.0359    2.8826 H   0  0  0  0  0  0  0  0  0  0  0  0
    3.1502    3.4563    2.6216 H   0  0  0  0  0  0  0  0  0  0  0  0
    1.5149    3.1484    2.0044 H   0  0  0  0  0  0  0  0  0  0  0  0
    2.8461    3.3475    0.8814 H   0  0  0  0  0  0  0  0  0  0  0  0
    6.9622    1.8019    1.0065 H   0  0  0  0  0  0  0  0  0  0  0  0
    6.7227    0.0530    1.2565 H   0  0  0  0  0  0  0  0  0  0  0  0
    7.7747    0.9525   -1.1133 H   0  0  0  0  0  0  0  0  0  0  0  0
    6.6061   -0.3841   -1.0923 H   0  0  0  0  0  0  0  0  0  0  0  0
    5.5207    1.2117   -2.5787 H   0  0  0  0  0  0  0  0  0  0  0  0
    6.0028    2.5709   -1.5422 H   0  0  0  0  0  0  0  0  0  0  0  0
    3.7883    2.1733   -0.7165 H   0  0  0  0  0  0  0  0  0  0  0  0
    3.9428    0.4065   -0.9250 H   0  0  0  0  0  0  0  0  0  0  0  0
   -0.2008   -1.9490    1.2408 H   0  0  0  0  0  0  0  0  0  0  0  0
   -4.4279   -3.6685   -1.8080 H   0  0  0  0  0  0  0  0  0  0  0  0
  1  2  1  0
  2  3  1  0
  3  4  2  0
  4  5  1  0
  5  6  1  0
  6  7  1  0
  5  8  2  0
  8  9  1  0
  9 10  1  0
 10 11  2  0
 10 12  2  0
 10 13  1  0
 13 14  2  0
 14 15  1  0
 15 16  2  0
 16 17  1  0
 16 18  1  0
 18 19  1  0
 19 20  2  0
 19 21  1  0
 21 22  1  0
 22 23  1  0
 22 24  1  0
 24 25  2  0
 24 26  1  0
 26 27  1  0
 27 28  1  0
 28 29  1  0
 29 30  1  0
 18 31  2  0
  8 32  1  0
 32 33  2  0
 33 34  1  0
 33  3  1  0
 31 13  1  0
 30 26  1  0
  1 35  1  0
  1 36  1  0
  1 37  1  0
  4 38  1  0
  7 39  1  0
  7 40  1  0
  7 41  1  0
  9 42  1  0
 14 43  1  0
 15 44  1  0
 22 45  1  0
 23 46  1  0
 23 47  1  0
 23 48  1  0
 27 49  1  0
 27 50  1  0
 28 51  1  0
 28 52  1  0
 29 53  1  0
 29 54  1  0
 30 55  1  0
 30 56  1  0
 31 57  1  0
 32 58  1  0
M  END
$$$$
