
     RDKit          3D

 43 45  0  0  0  0  0  0  0  0999 V2000
   -2.9661    3.4937   -0.6720 C   0  0  0  0  0  0  0  0  0  0  0  0
   -2.6776    2.8259    0.6593 C   0  0  0  0  0  0  0  0  0  0  0  0
   -2.5032    1.4138    0.4763 O   0  0  0  0  0  0  0  0  0  0  0  0
   -1.2428    1.0022    0.1567 C   0  0  0  0  0  0  0  0  0  0  0  0
   -0.2967    1.7684    0.0103 O   0  0  0  0  0  0  0  0  0  0  0  0
   -1.1285   -0.4518   -0.0184 C   0  0  0  0  0  0  0  0  0  0  0  0
    0.0829   -1.0577   -0.3508 C   0  0  0  0  0  0  0  0  0  0  0  0
    1.3225   -0.4313   -0.4399 N   0  0  0  0  0  0  0  0  0  0  0  0
    2.4944   -0.8133   -1.0497 C   0  0  0  0  0  0  0  0  0  0  0  0
    2.7861   -2.0163   -2.1784 S   0  0  0  0  0  0  0  0  0  0  0  0
    3.6092   -0.0625   -0.7075 N   0  0  0  0  0  0  0  0  0  0  0  0
    3.7391    0.9812    0.2055 C   0  0  0  0  0  0  0  0  0  0  0  0
    2.7703    1.4289    0.8159 O   0  0  0  0  0  0  0  0  0  0  0  0
    5.0911    1.4925    0.3586 C   0  0  0  0  0  0  0  0  0  0  0  0
    6.3121    1.1602   -0.2081 C   0  0  0  0  0  0  0  0  0  0  0  0
    7.2796    2.0327    0.3514 C   0  0  0  0  0  0  0  0  0  0  0  0
    6.6003    2.8452    1.2245 C   0  0  0  0  0  0  0  0  0  0  0  0
    5.2826    2.5285    1.2371 O   0  0  0  0  0  0  0  0  0  0  0  0
   -0.0602   -2.7412   -0.5150 S   0  0  0  0  0  0  0  0  0  0  0  0
   -1.7213   -2.7118   -0.2046 C   0  0  0  0  0  0  0  0  0  0  0  0
   -2.1871   -1.4434    0.0847 C   0  0  0  0  0  0  0  0  0  0  0  0
   -3.6393   -1.2092    0.4103 C   0  0  0  0  0  0  0  0  0  0  0  0
   -4.3968   -2.5137    0.7069 C   0  0  0  0  0  0  0  0  0  0  0  0
   -4.0355   -3.6243   -0.2848 C   0  0  0  0  0  0  0  0  0  0  0  0
   -2.5415   -3.9648   -0.2155 C   0  0  0  0  0  0  0  0  0  0  0  0
   -3.8354    3.0330   -1.1526 H   0  0  0  0  0  0  0  0  0  0  0  0
   -2.1233    3.3783   -1.3608 H   0  0  0  0  0  0  0  0  0  0  0  0
   -3.1621    4.5610   -0.5361 H   0  0  0  0  0  0  0  0  0  0  0  0
   -3.5342    2.9570    1.3287 H   0  0  0  0  0  0  0  0  0  0  0  0
   -1.8108    3.2759    1.1566 H   0  0  0  0  0  0  0  0  0  0  0  0
    1.3299    0.5259   -0.0675 H   0  0  0  0  0  0  0  0  0  0  0  0
    4.4426   -0.3781   -1.1795 H   0  0  0  0  0  0  0  0  0  0  0  0
    6.5025    0.3863   -0.9380 H   0  0  0  0  0  0  0  0  0  0  0  0
    8.3404    2.0654    0.1440 H   0  0  0  0  0  0  0  0  0  0  0  0
    6.8918    3.6554    1.8788 H   0  0  0  0  0  0  0  0  0  0  0  0
   -3.7364   -0.5562    1.2840 H   0  0  0  0  0  0  0  0  0  0  0  0
   -4.1098   -0.7048   -0.4427 H   0  0  0  0  0  0  0  0  0  0  0  0
   -4.1577   -2.8512    1.7238 H   0  0  0  0  0  0  0  0  0  0  0  0
   -5.4756   -2.3226    0.6809 H   0  0  0  0  0  0  0  0  0  0  0  0
   -4.6260   -4.5230   -0.0741 H   0  0  0  0  0  0  0  0  0  0  0  0
   -4.2952   -3.2995   -1.3005 H   0  0  0  0  0  0  0  0  0  0  0  0
   -2.3389   -4.5311    0.7021 H   0  0  0  0  0  0  0  0  0  0  0  0
   -2.2754   -4.6038   -1.0652 H   0  0  0  0  0  0  0  0  0  0  0  0
  1  2  1  0
  2  3  1  0
  3  4  1  0
  4  5  2  0
  4  6  1  0
  6  7  2  0
  7  8  1  0
  8  9  1  0
  9 10  2  0
  9 11  1  0
 11 12  1  0
 12 13  2  0
 12 14  1  0
 14 15  2  0
 15 16  1  0
 16 17  2  0
 17 18  1  0
  7 19  1  0
 19 20  1  0
 20 21  2  0
 21 22  1  0
 22 23  1  0
 23 24  1  0
 24 25  1  0
 21  6  1  0
 18 14  1  0
 25 20  1  0
  1 26  1  0
  1 27  1  0
  1 28  1  0
  2 29  1  0
  2 30  1  0
  8 31  1  0
 11 32  1  0
 15 33  1  0
 16 34  1  0
 17 35  1  0
 22 36  1  0
 22 37  1  0
 23 38  1  0
 23 39  1  0
 24 40  1  0
 24 41  1  0
 25 42  1  0
 25 43  1  0
M  END
$$$$
