
     RDKit          3D

 53 58  0  0  0  0  0  0  0  0999 V2000
   -1.2301   -2.1422    0.0174 O   0  0  0  0  0  0  0  0  0  0  0  0
   -1.4466   -1.1363    0.6959 C   0  0  0  0  0  0  0  0  0  0  0  0
   -0.3399   -0.6263    1.6427 C   0  0  0  0  0  0  0  0  0  0  0  0
    0.9420   -0.5655    0.9210 N   0  0  0  0  0  4  0  0  0  0  0  0
    1.4866    0.5495    0.2821 C   0  0  0  0  0  0  0  0  0  0  0  0
    2.6664    0.1749   -0.3499 C   0  0  0  0  0  0  0  0  0  0  0  0
    3.6241    1.1115   -1.1693 C   0  0  0  0  0  0  0  0  0  0  0  0
    3.2602    2.4424   -1.4134 C   0  0  0  0  0  0  0  0  0  0  0  0
    4.1046    3.2768   -2.1495 C   0  0  0  0  0  0  0  0  0  0  0  0
    5.3164    2.7919   -2.6366 C   0  0  0  0  0  0  0  0  0  0  0  0
    5.6857    1.4725   -2.3886 C   0  0  0  0  0  0  0  0  0  0  0  0
    4.8425    0.6326   -1.6566 C   0  0  0  0  0  0  0  0  0  0  0  0
    2.7570   -1.1792   -0.0769 N   0  0  0  0  0  0  0  0  0  0  0  0
    1.7340   -1.6009    0.6620 C   0  0  0  0  0  0  0  0  0  0  0  0
    1.7911   -3.0518    0.9620 C   0  0  0  0  0  0  0  0  0  0  0  0
    2.8563   -3.5424   -0.0387 C   0  0  0  0  0  0  0  0  0  0  0  0
    3.6565   -2.2695   -0.4300 C   0  0  0  0  0  0  0  0  0  0  0  0
   -2.5692   -0.2973    0.6177 N   0  0  0  0  0  0  0  0  0  0  0  0
   -3.1470    0.0755   -0.6529 C   0  0  0  0  0  0  0  0  0  0  0  0
   -2.9362   -0.7063   -1.8067 C   0  0  0  0  0  0  0  0  0  0  0  0
   -3.4654   -0.3497   -3.0527 C   0  0  0  0  0  0  0  0  0  0  0  0
   -4.2145    0.8082   -3.1837 C   0  0  0  0  0  0  0  0  0  0  0  0
   -4.4283    1.6100   -2.0671 C   0  0  0  0  0  0  0  0  0  0  0  0
   -3.9001    1.2555   -0.8126 C   0  0  0  0  0  0  0  0  0  0  0  0
   -4.1304    2.4384    0.4932 S   0  0  0  0  0  0  0  0  0  0  0  0
   -3.9269    1.3778    1.8900 C   0  0  0  0  0  0  0  0  0  0  0  0
   -4.4942    1.7988    3.1039 C   0  0  0  0  0  0  0  0  0  0  0  0
   -4.3712    1.0270    4.2556 C   0  0  0  0  0  0  0  0  0  0  0  0
   -3.6869   -0.1789    4.2010 C   0  0  0  0  0  0  0  0  0  0  0  0
   -3.1105   -0.5976    2.9994 C   0  0  0  0  0  0  0  0  0  0  0  0
   -3.1952    0.1841    1.8260 C   0  0  0  0  0  0  0  0  0  0  0  0
   -0.5494    0.3762    2.0263 H   0  0  0  0  0  0  0  0  0  0  0  0
   -0.2352   -1.3176    2.4836 H   0  0  0  0  0  0  0  0  0  0  0  0
    0.9585    1.4860    0.3659 H   0  0  0  0  0  0  0  0  0  0  0  0
    2.3219    2.8593   -1.0585 H   0  0  0  0  0  0  0  0  0  0  0  0
    3.8192    4.3079   -2.3485 H   0  0  0  0  0  0  0  0  0  0  0  0
    5.9738    3.4431   -3.2092 H   0  0  0  0  0  0  0  0  0  0  0  0
    6.6375    1.0994   -2.7654 H   0  0  0  0  0  0  0  0  0  0  0  0
    5.1791   -0.3809   -1.4743 H   0  0  0  0  0  0  0  0  0  0  0  0
    2.1195   -3.1394    1.9994 H   0  0  0  0  0  0  0  0  0  0  0  0
    0.8119   -3.5022    0.8064 H   0  0  0  0  0  0  0  0  0  0  0  0
    3.4902   -4.3354    0.3635 H   0  0  0  0  0  0  0  0  0  0  0  0
    2.3547   -3.9327   -0.9310 H   0  0  0  0  0  0  0  0  0  0  0  0
    4.5694   -2.1790    0.1658 H   0  0  0  0  0  0  0  0  0  0  0  0
    3.8845   -2.2624   -1.4984 H   0  0  0  0  0  0  0  0  0  0  0  0
   -2.3893   -1.6446   -1.7804 H   0  0  0  0  0  0  0  0  0  0  0  0
   -3.2933   -0.9861   -3.9191 H   0  0  0  0  0  0  0  0  0  0  0  0
   -4.6289    1.0889   -4.1492 H   0  0  0  0  0  0  0  0  0  0  0  0
   -5.0014    2.5292   -2.1862 H   0  0  0  0  0  0  0  0  0  0  0  0
   -5.0486    2.7350    3.1570 H   0  0  0  0  0  0  0  0  0  0  0  0
   -4.8301    1.3580    5.1852 H   0  0  0  0  0  0  0  0  0  0  0  0
   -3.6248   -0.8044    5.0892 H   0  0  0  0  0  0  0  0  0  0  0  0
   -2.6497   -1.5814    2.9930 H   0  0  0  0  0  0  0  0  0  0  0  0
  1  2  2  0
  2  3  1  0
  3  4  1  0
  4  5  1  0
  5  6  2  0
  6  7  1  0
  7  8  2  0
  8  9  1  0
  9 10  2  0
 10 11  1  0
 11 12  2  0
  6 13  1  0
 13 14  1  0
 14 15  1  0
 15 16  1  0
 16 17  1  0
  2 18  1  0
 18 19  1  0
 19 20  2  0
 20 21  1  0
 21 22  2  0
 22 23  1  0
 23 24  2  0
 24 25  1  0
 25 26  1  0
 26 27  2  0
 27 28  1  0
 28 29  2  0
 29 30  1  0
 30 31  2  0
 14  4  2  0
 31 18  1  0
 12  7  1  0
 17 13  1  0
 24 19  1  0
 31 26  1  0
  3 32  1  0
  3 33  1  0
  5 34  1  0
  8 35  1  0
  9 36  1  0
 10 37  1  0
 11 38  1  0
 12 39  1  0
 15 40  1  0
 15 41  1  0
 16 42  1  0
 16 43  1  0
 17 44  1  0
 17 45  1  0
 20 46  1  0
 21 47  1  0
 22 48  1  0
 23 49  1  0
 27 50  1  0
 28 51  1  0
 29 52  1  0
 30 53  1  0
M  CHG  1   4   1
M  END
$$$$
