
     RDKit          3D

 44 46  0  0  0  0  0  0  0  0999 V2000
    1.1354   -5.1013    1.1614 N   0  0  0  0  0  0  0  0  0  0  0  0
    0.9450   -3.9579    1.1848 C   0  0  0  0  0  0  0  0  0  0  0  0
    0.7499   -2.5516    1.1676 C   0  0  0  0  0  0  0  0  0  0  0  0
    1.8016   -1.7241    1.0475 C   0  0  0  0  0  0  0  0  0  0  0  0
    1.7804   -0.3008    1.0568 C   0  0  0  0  0  0  0  0  0  0  0  0
    0.8408    0.6338    1.4746 C   0  0  0  0  0  0  0  0  0  0  0  0
    1.3786    1.9257    1.2681 C   0  0  0  0  0  0  0  0  0  0  0  0
    2.6507    1.7446    0.7680 C   0  0  0  0  0  0  0  0  0  0  0  0
    3.7549    2.6354    0.4175 C   0  0  0  0  0  0  0  0  0  0  0  0
    3.6325    4.0223    0.5890 C   0  0  0  0  0  0  0  0  0  0  0  0
    4.7122    4.8778    0.3135 C   0  0  0  0  0  0  0  0  0  0  0  0
    5.9219    4.3497   -0.1354 C   0  0  0  0  0  0  0  0  0  0  0  0
    7.3977    5.4959   -0.4472 Br  0  0  0  0  0  0  0  0  0  0  0  0
    6.0574    2.9785   -0.3289 C   0  0  0  0  0  0  0  0  0  0  0  0
    4.9788    2.1297   -0.0580 C   0  0  0  0  0  0  0  0  0  0  0  0
    2.8832    0.4089    0.6310 O   0  0  0  0  0  0  0  0  0  0  0  0
   -0.6495   -2.0912    1.2888 C   0  0  0  0  0  0  0  0  0  0  0  0
   -1.2142   -2.0523    2.3750 O   0  0  0  0  0  0  0  0  0  0  0  0
   -1.2329   -1.7468    0.0882 N   0  0  0  0  0  0  0  0  0  0  0  0
   -2.6507   -1.4160    0.0013 C   0  0  0  0  0  0  0  0  0  0  0  0
   -2.9310   -0.5897   -1.2585 C   0  0  0  0  0  0  0  0  0  0  0  0
   -4.4178   -0.2694   -1.4056 C   0  0  0  0  0  0  0  0  0  0  0  0
   -5.2704   -1.5339   -1.3706 C   0  0  0  0  0  0  0  0  0  0  0  0
   -4.9942   -2.3666   -0.1194 C   0  0  0  0  0  0  0  0  0  0  0  0
   -3.5097   -2.6868    0.0286 C   0  0  0  0  0  0  0  0  0  0  0  0
    2.7945   -2.1583    0.9355 H   0  0  0  0  0  0  0  0  0  0  0  0
   -0.1252    0.4248    1.9111 H   0  0  0  0  0  0  0  0  0  0  0  0
    0.9055    2.8688    1.5012 H   0  0  0  0  0  0  0  0  0  0  0  0
    2.7026    4.4578    0.9600 H   0  0  0  0  0  0  0  0  0  0  0  0
    4.5998    5.9471    0.4698 H   0  0  0  0  0  0  0  0  0  0  0  0
    6.9977    2.5556   -0.6729 H   0  0  0  0  0  0  0  0  0  0  0  0
    5.1130    1.0605   -0.2046 H   0  0  0  0  0  0  0  0  0  0  0  0
   -0.7316   -1.9247   -0.7745 H   0  0  0  0  0  0  0  0  0  0  0  0
   -2.9004   -0.8083    0.8806 H   0  0  0  0  0  0  0  0  0  0  0  0
   -2.5868   -1.1338   -2.1434 H   0  0  0  0  0  0  0  0  0  0  0  0
   -2.3558    0.3412   -1.2226 H   0  0  0  0  0  0  0  0  0  0  0  0
   -4.5889    0.2647   -2.3442 H   0  0  0  0  0  0  0  0  0  0  0  0
   -4.7281    0.4013   -0.5974 H   0  0  0  0  0  0  0  0  0  0  0  0
   -5.0649   -2.1386   -2.2609 H   0  0  0  0  0  0  0  0  0  0  0  0
   -6.3312   -1.2632   -1.4057 H   0  0  0  0  0  0  0  0  0  0  0  0
   -5.5685   -3.2993   -0.1561 H   0  0  0  0  0  0  0  0  0  0  0  0
   -5.3359   -1.8162    0.7675 H   0  0  0  0  0  0  0  0  0  0  0  0
   -3.3481   -3.2307    0.9659 H   0  0  0  0  0  0  0  0  0  0  0  0
   -3.1983   -3.3627   -0.7803 H   0  0  0  0  0  0  0  0  0  0  0  0
  1  2  3  0
  2  3  1  0
  3  4  2  3
  4  5  1  0
  5  6  2  0
  6  7  1  0
  7  8  2  0
  8  9  1  0
  9 10  2  0
 10 11  1  0
 11 12  2  0
 12 13  1  0
 12 14  1  0
 14 15  2  0
  8 16  1  0
  3 17  1  0
 17 18  2  0
 17 19  1  0
 19 20  1  0
 20 21  1  0
 21 22  1  0
 22 23  1  0
 23 24  1  0
 24 25  1  0
 16  5  1  0
 25 20  1  0
 15  9  1  0
  4 26  1  0
  6 27  1  0
  7 28  1  0
 10 29  1  0
 11 30  1  0
 14 31  1  0
 15 32  1  0
 19 33  1  0
 20 34  1  0
 21 35  1  0
 21 36  1  0
 22 37  1  0
 22 38  1  0
 23 39  1  0
 23 40  1  0
 24 41  1  0
 24 42  1  0
 25 43  1  0
 25 44  1  0
M  END
$$$$
