
     RDKit          3D

 44 46  0  0  0  0  0  0  0  0999 V2000
    9.0167    0.0701    0.3999 C   0  0  0  0  0  0  0  0  0  0  0  0
    8.1195   -0.7165   -0.3751 O   0  0  0  0  0  0  0  0  0  0  0  0
    6.7832   -0.4828   -0.2075 C   0  0  0  0  0  0  0  0  0  0  0  0
    6.2177    0.4962    0.6081 C   0  0  0  0  0  0  0  0  0  0  0  0
    4.8245    0.6354    0.6908 C   0  0  0  0  0  0  0  0  0  0  0  0
    3.9806   -0.2059   -0.0415 C   0  0  0  0  0  0  0  0  0  0  0  0
    2.6124   -0.1521   -0.0158 O   0  0  0  0  0  0  0  0  0  0  0  0
    2.0002    0.9218    0.6939 C   0  0  0  0  0  0  0  0  0  0  0  0
    0.5366    0.7950    0.5060 C   0  0  0  0  0  0  0  0  0  0  0  0
   -0.2811    0.0703   -0.3259 C   0  0  0  0  0  0  0  0  0  0  0  0
   -1.6030    0.4417    0.0398 C   0  0  0  0  0  0  0  0  0  0  0  0
   -2.8420   -0.0349   -0.5983 C   0  0  0  0  0  0  0  0  0  0  0  0
   -2.7922   -0.5546   -1.7154 O   0  0  0  0  0  0  0  0  0  0  0  0
   -4.0755    0.1322    0.0567 N   0  0  0  0  0  0  0  0  0  0  0  0
   -4.1942    0.2510    1.5071 C   0  0  0  0  0  0  0  0  0  0  0  0
   -5.2885   -0.0811   -0.7374 C   0  0  0  0  0  0  0  0  0  0  0  0
   -6.5224    0.6947   -0.3132 C   0  0  0  0  0  0  0  0  0  0  0  0
   -7.6180   -0.0953   -0.9936 C   0  0  0  0  0  0  0  0  0  0  0  0
   -7.2249   -1.4725   -0.9189 O   0  0  0  0  0  0  0  0  0  0  0  0
   -5.7955   -1.5242   -0.7518 C   0  0  0  0  0  0  0  0  0  0  0  0
   -1.5672    1.3704    1.0141 N   0  0  0  0  0  0  0  0  0  0  0  0
   -0.2348    1.5714    1.3116 O   0  0  0  0  0  0  0  0  0  0  0  0
    4.5584   -1.1894   -0.8585 C   0  0  0  0  0  0  0  0  0  0  0  0
    3.5805   -2.2694   -1.7923 Cl  0  0  0  0  0  0  0  0  0  0  0  0
    5.9465   -1.3226   -0.9428 C   0  0  0  0  0  0  0  0  0  0  0  0
   10.0353   -0.2466    0.1538 H   0  0  0  0  0  0  0  0  0  0  0  0
    8.9292    1.1338    0.1507 H   0  0  0  0  0  0  0  0  0  0  0  0
    8.8621   -0.1009    1.4715 H   0  0  0  0  0  0  0  0  0  0  0  0
    6.8318    1.1721    1.1962 H   0  0  0  0  0  0  0  0  0  0  0  0
    4.4383    1.4116    1.3445 H   0  0  0  0  0  0  0  0  0  0  0  0
    2.3317    1.8869    0.2913 H   0  0  0  0  0  0  0  0  0  0  0  0
    2.2345    0.8519    1.7621 H   0  0  0  0  0  0  0  0  0  0  0  0
    0.0191   -0.6283   -1.0931 H   0  0  0  0  0  0  0  0  0  0  0  0
   -3.2895   -0.0837    2.0178 H   0  0  0  0  0  0  0  0  0  0  0  0
   -5.0080   -0.3879    1.8661 H   0  0  0  0  0  0  0  0  0  0  0  0
   -4.4094    1.2937    1.7575 H   0  0  0  0  0  0  0  0  0  0  0  0
   -5.0685    0.2032   -1.7773 H   0  0  0  0  0  0  0  0  0  0  0  0
   -6.5003    1.7455   -0.6197 H   0  0  0  0  0  0  0  0  0  0  0  0
   -6.6784    0.6632    0.7712 H   0  0  0  0  0  0  0  0  0  0  0  0
   -8.5921    0.0376   -0.5152 H   0  0  0  0  0  0  0  0  0  0  0  0
   -7.7077    0.1763   -2.0522 H   0  0  0  0  0  0  0  0  0  0  0  0
   -5.5911   -2.0511    0.1858 H   0  0  0  0  0  0  0  0  0  0  0  0
   -5.3576   -2.1047   -1.5703 H   0  0  0  0  0  0  0  0  0  0  0  0
    6.3834   -2.0870   -1.5808 H   0  0  0  0  0  0  0  0  0  0  0  0
  1  2  1  0
  2  3  1  0
  3  4  2  0
  4  5  1  0
  5  6  2  0
  6  7  1  0
  7  8  1  0
  8  9  1  0
  9 10  2  0
 10 11  1  0
 11 12  1  0
 12 13  2  0
 12 14  1  0
 14 15  1  0
 14 16  1  0
 16 17  1  0
 17 18  1  0
 18 19  1  0
 19 20  1  0
 11 21  2  0
 21 22  1  0
  6 23  1  0
 23 24  1  0
 23 25  2  0
 25  3  1  0
 22  9  1  0
 20 16  1  0
  1 26  1  0
  1 27  1  0
  1 28  1  0
  4 29  1  0
  5 30  1  0
  8 31  1  0
  8 32  1  0
 10 33  1  0
 15 34  1  0
 15 35  1  0
 15 36  1  0
 16 37  1  0
 17 38  1  0
 17 39  1  0
 18 40  1  0
 18 41  1  0
 20 42  1  0
 20 43  1  0
 25 44  1  0
M  END
$$$$
