
     RDKit          3D

 45 47  0  0  0  0  0  0  0  0999 V2000
    4.9526    0.2692   -2.5327 O   0  0  0  0  0  0  0  0  0  0  0  0
    3.8034    0.3867   -2.1257 C   0  0  0  0  0  0  0  0  0  0  0  0
    3.3557    1.4809   -1.1625 C   0  0  0  0  0  0  0  0  0  0  0  0
    1.9396    1.4278   -0.8301 N   0  0  0  0  0  0  0  0  0  0  0  0
    1.3724    2.3970   -0.0348 C   0  0  0  0  0  0  0  0  0  0  0  0
    1.9948    3.3705    0.3736 O   0  0  0  0  0  0  0  0  0  0  0  0
   -0.0514    2.1925    0.3507 C   0  0  0  0  0  0  0  0  0  0  0  0
   -0.5126    2.7859    1.5300 C   0  0  0  0  0  0  0  0  0  0  0  0
   -1.8427    2.6201    1.9298 C   0  0  0  0  0  0  0  0  0  0  0  0
   -2.7422    1.8666    1.1582 C   0  0  0  0  0  0  0  0  0  0  0  0
   -4.1426    1.6950    1.5781 C   0  0  0  0  0  0  0  0  0  0  0  0
   -4.9534    2.8059    1.8650 C   0  0  0  0  0  0  0  0  0  0  0  0
   -6.2835    2.6441    2.2625 C   0  0  0  0  0  0  0  0  0  0  0  0
   -6.8252    1.3668    2.3811 C   0  0  0  0  0  0  0  0  0  0  0  0
   -6.0388    0.2520    2.1025 C   0  0  0  0  0  0  0  0  0  0  0  0
   -4.7092    0.4155    1.7038 C   0  0  0  0  0  0  0  0  0  0  0  0
   -2.2684    1.2894   -0.0321 C   0  0  0  0  0  0  0  0  0  0  0  0
   -0.9382    1.4518   -0.4378 C   0  0  0  0  0  0  0  0  0  0  0  0
    2.7689   -0.4422   -2.4512 O   0  0  0  0  0  0  0  0  0  0  0  0
    3.0968   -1.5366   -3.3156 C   0  0  0  0  0  0  0  0  0  0  0  0
    3.2781   -2.7790   -2.4823 C   0  0  0  0  0  0  0  0  0  0  0  0
    4.5542   -3.1502   -2.0336 C   0  0  0  0  0  0  0  0  0  0  0  0
    4.7228   -4.2866   -1.2394 C   0  0  0  0  0  0  0  0  0  0  0  0
    3.6154   -5.0532   -0.8844 C   0  0  0  0  0  0  0  0  0  0  0  0
    3.8218   -6.4526    0.0948 Cl  0  0  0  0  0  0  0  0  0  0  0  0
    2.3402   -4.6913   -1.3137 C   0  0  0  0  0  0  0  0  0  0  0  0
    2.1710   -3.5544   -2.1076 C   0  0  0  0  0  0  0  0  0  0  0  0
    3.9190    1.3733   -0.2303 H   0  0  0  0  0  0  0  0  0  0  0  0
    3.5656    2.4558   -1.6131 H   0  0  0  0  0  0  0  0  0  0  0  0
    1.4728    0.5385   -0.9577 H   0  0  0  0  0  0  0  0  0  0  0  0
    0.1630    3.3768    2.1458 H   0  0  0  0  0  0  0  0  0  0  0  0
   -2.1718    3.0806    2.8598 H   0  0  0  0  0  0  0  0  0  0  0  0
   -4.5539    3.8137    1.7688 H   0  0  0  0  0  0  0  0  0  0  0  0
   -6.8949    3.5167    2.4770 H   0  0  0  0  0  0  0  0  0  0  0  0
   -7.8591    1.2406    2.6914 H   0  0  0  0  0  0  0  0  0  0  0  0
   -6.4576   -0.7463    2.1982 H   0  0  0  0  0  0  0  0  0  0  0  0
   -4.1097   -0.4700    1.5032 H   0  0  0  0  0  0  0  0  0  0  0  0
   -2.9471    0.7225   -0.6674 H   0  0  0  0  0  0  0  0  0  0  0  0
   -0.6260    1.0197   -1.3838 H   0  0  0  0  0  0  0  0  0  0  0  0
    3.9745   -1.3407   -3.9434 H   0  0  0  0  0  0  0  0  0  0  0  0
    2.2569   -1.6725   -4.0067 H   0  0  0  0  0  0  0  0  0  0  0  0
    5.4253   -2.5515   -2.2977 H   0  0  0  0  0  0  0  0  0  0  0  0
    5.7174   -4.5641   -0.9002 H   0  0  0  0  0  0  0  0  0  0  0  0
    1.4761   -5.2874   -1.0325 H   0  0  0  0  0  0  0  0  0  0  0  0
    1.1699   -3.2772   -2.4312 H   0  0  0  0  0  0  0  0  0  0  0  0
  1  2  2  0
  2  3  1  0
  3  4  1  0
  4  5  1  0
  5  6  2  0
  5  7  1  0
  7  8  2  0
  8  9  1  0
  9 10  2  0
 10 11  1  0
 11 12  2  0
 12 13  1  0
 13 14  2  0
 14 15  1  0
 15 16  2  0
 10 17  1  0
 17 18  2  0
  2 19  1  0
 19 20  1  0
 20 21  1  0
 21 22  2  0
 22 23  1  0
 23 24  2  0
 24 25  1  0
 24 26  1  0
 26 27  2  0
 18  7  1  0
 27 21  1  0
 16 11  1  0
  3 28  1  0
  3 29  1  0
  4 30  1  0
  8 31  1  0
  9 32  1  0
 12 33  1  0
 13 34  1  0
 14 35  1  0
 15 36  1  0
 16 37  1  0
 17 38  1  0
 18 39  1  0
 20 40  1  0
 20 41  1  0
 22 42  1  0
 23 43  1  0
 26 44  1  0
 27 45  1  0
M  END
$$$$
