
     RDKit          3D

 62 65  0  0  0  0  0  0  0  0999 V2000
   -0.1524    1.0833    2.7984 C   0  0  0  0  0  0  0  0  0  0  0  0
   -1.3452    0.9237    1.8874 C   0  0  0  0  0  0  0  0  0  0  0  0
   -2.5085    1.6394    2.2314 C   0  0  0  0  0  0  0  0  0  0  0  0
   -3.6586    1.5669    1.4485 C   0  0  0  0  0  0  0  0  0  0  0  0
   -4.7700    2.2730    1.8131 O   0  0  0  0  0  0  0  0  0  0  0  0
   -3.6939    0.7826    0.2979 C   0  0  0  0  0  0  0  0  0  0  0  0
   -4.9459    0.6853   -0.5613 C   0  0  0  0  0  0  0  0  0  0  0  0
   -5.4881   -0.7466   -0.6047 C   0  0  0  0  0  0  0  0  0  0  0  0
   -4.6972    1.2171   -1.9763 C   0  0  0  0  0  0  0  0  0  0  0  0
   -2.5276    0.0743   -0.0502 C   0  0  0  0  0  0  0  0  0  0  0  0
   -1.3292    0.1369    0.7044 C   0  0  0  0  0  0  0  0  0  0  0  0
   -0.0797   -0.6608    0.2553 C   0  0  0  0  0  0  0  0  0  0  0  0
    1.2211    0.1671    0.0860 C   0  0  0  0  0  0  0  0  0  0  0  0
    2.4372   -0.3959    0.5570 C   0  0  0  0  0  0  0  0  0  0  0  0
    3.6830    0.2504    0.4465 C   0  0  0  0  0  0  0  0  0  0  0  0
    4.9177   -0.4467    0.9975 C   0  0  0  0  0  0  0  0  0  0  0  0
    5.9446   -0.7641   -0.0926 C   0  0  0  0  0  0  0  0  0  0  0  0
    5.5535    0.3250    2.1567 C   0  0  0  0  0  0  0  0  0  0  0  0
    3.7075    1.5021   -0.1619 C   0  0  0  0  0  0  0  0  0  0  0  0
    4.8908    2.1724   -0.2824 O   0  0  0  0  0  0  0  0  0  0  0  0
    2.5381    2.0831   -0.6514 C   0  0  0  0  0  0  0  0  0  0  0  0
    1.2929    1.4285   -0.5557 C   0  0  0  0  0  0  0  0  0  0  0  0
    0.1039    2.1781   -1.0988 C   0  0  0  0  0  0  0  0  0  0  0  0
    0.0828   -1.6248    1.3525 O   0  0  0  0  0  0  0  0  0  0  0  0
   -0.1537   -2.9122    0.9908 C   0  0  0  0  0  0  0  0  0  0  0  0
   -0.1609   -3.8839    1.7187 O   0  0  0  0  0  0  0  0  0  0  0  0
   -0.3362   -2.9051   -0.4469 C   0  0  0  0  0  0  0  0  0  0  0  0
   -0.5136   -3.9999   -1.2782 C   0  0  0  0  0  0  0  0  0  0  0  0
   -0.6034   -3.7638   -2.6481 C   0  0  0  0  0  0  0  0  0  0  0  0
   -0.5012   -2.4565   -3.1459 C   0  0  0  0  0  0  0  0  0  0  0  0
   -0.3200   -1.3717   -2.2791 C   0  0  0  0  0  0  0  0  0  0  0  0
   -0.2549   -1.6058   -0.9092 C   0  0  0  0  0  0  0  0  0  0  0  0
   -0.4543    1.4790    3.7750 H   0  0  0  0  0  0  0  0  0  0  0  0
    0.5638    1.7884    2.3677 H   0  0  0  0  0  0  0  0  0  0  0  0
    0.3394    0.1302    3.0028 H   0  0  0  0  0  0  0  0  0  0  0  0
   -2.5047    2.2569    3.1265 H   0  0  0  0  0  0  0  0  0  0  0  0
   -4.5992    2.7120    2.6620 H   0  0  0  0  0  0  0  0  0  0  0  0
   -5.7382    1.3073   -0.1279 H   0  0  0  0  0  0  0  0  0  0  0  0
   -4.7930   -1.4359   -1.0962 H   0  0  0  0  0  0  0  0  0  0  0  0
   -5.6746   -1.1246    0.4067 H   0  0  0  0  0  0  0  0  0  0  0  0
   -6.4342   -0.7823   -1.1556 H   0  0  0  0  0  0  0  0  0  0  0  0
   -4.3171    2.2444   -1.9465 H   0  0  0  0  0  0  0  0  0  0  0  0
   -5.6278    1.2207   -2.5542 H   0  0  0  0  0  0  0  0  0  0  0  0
   -3.9701    0.6078   -2.5239 H   0  0  0  0  0  0  0  0  0  0  0  0
   -2.5732   -0.5406   -0.9459 H   0  0  0  0  0  0  0  0  0  0  0  0
    2.4195   -1.3755    1.0357 H   0  0  0  0  0  0  0  0  0  0  0  0
    4.6045   -1.4151    1.4112 H   0  0  0  0  0  0  0  0  0  0  0  0
    5.4829   -1.3225   -0.9145 H   0  0  0  0  0  0  0  0  0  0  0  0
    6.3976    0.1382   -0.5147 H   0  0  0  0  0  0  0  0  0  0  0  0
    6.7560   -1.3777    0.3141 H   0  0  0  0  0  0  0  0  0  0  0  0
    6.3581   -0.2632    2.6116 H   0  0  0  0  0  0  0  0  0  0  0  0
    4.8141    0.5391    2.9364 H   0  0  0  0  0  0  0  0  0  0  0  0
    5.9861    1.2776    1.8361 H   0  0  0  0  0  0  0  0  0  0  0  0
    4.7314    3.0248   -0.7178 H   0  0  0  0  0  0  0  0  0  0  0  0
    2.5839    3.0645   -1.1186 H   0  0  0  0  0  0  0  0  0  0  0  0
   -0.6124    1.5186   -1.5885 H   0  0  0  0  0  0  0  0  0  0  0  0
    0.4129    2.8990   -1.8647 H   0  0  0  0  0  0  0  0  0  0  0  0
   -0.3902    2.7362   -0.2984 H   0  0  0  0  0  0  0  0  0  0  0  0
   -0.5673   -5.0055   -0.8724 H   0  0  0  0  0  0  0  0  0  0  0  0
   -0.7392   -4.5960   -3.3353 H   0  0  0  0  0  0  0  0  0  0  0  0
   -0.5572   -2.2855   -4.2194 H   0  0  0  0  0  0  0  0  0  0  0  0
   -0.2306   -0.3718   -2.6904 H   0  0  0  0  0  0  0  0  0  0  0  0
  1  2  1  0
  2  3  2  0
  3  4  1  0
  4  5  1  0
  4  6  2  0
  6  7  1  0
  7  8  1  0
  7  9  1  0
  6 10  1  0
 10 11  2  0
 11 12  1  0
 12 13  1  0
 13 14  2  0
 14 15  1  0
 15 16  1  0
 16 17  1  0
 16 18  1  0
 15 19  2  0
 19 20  1  0
 19 21  1  0
 21 22  2  0
 22 23  1  0
 12 24  1  0
 24 25  1  0
 25 26  2  0
 25 27  1  0
 27 28  2  0
 28 29  1  0
 29 30  2  0
 30 31  1  0
 31 32  2  0
 11  2  1  0
 32 12  1  0
 22 13  1  0
 32 27  1  0
  1 33  1  0
  1 34  1  0
  1 35  1  0
  3 36  1  0
  5 37  1  0
  7 38  1  0
  8 39  1  0
  8 40  1  0
  8 41  1  0
  9 42  1  0
  9 43  1  0
  9 44  1  0
 10 45  1  0
 14 46  1  0
 16 47  1  0
 17 48  1  0
 17 49  1  0
 17 50  1  0
 18 51  1  0
 18 52  1  0
 18 53  1  0
 20 54  1  0
 21 55  1  0
 23 56  1  0
 23 57  1  0
 23 58  1  0
 28 59  1  0
 29 60  1  0
 30 61  1  0
 31 62  1  0
M  END
$$$$
