
     RDKit          3D

 52 55  0  0  0  0  0  0  0  0999 V2000
    6.2272    0.4669    3.9411 C   0  0  0  0  0  0  0  0  0  0  0  0
    5.0103    0.2229    3.0936 C   0  0  0  0  0  0  0  0  0  0  0  0
    3.7280    0.3396    3.6505 C   0  0  0  0  0  0  0  0  0  0  0  0
    2.5757    0.1541    2.8778 C   0  0  0  0  0  0  0  0  0  0  0  0
    2.7707   -0.1289    1.5295 C   0  0  0  0  0  0  0  0  0  0  0  0
    1.7821   -0.3244    0.6216 O   0  0  0  0  0  0  0  0  0  0  0  0
    2.3689   -0.5398   -0.5973 C   0  0  0  0  0  0  0  0  0  0  0  0
    1.5437   -0.8010   -1.7718 C   0  0  0  0  0  0  0  0  0  0  0  0
    2.0060   -1.3907   -2.7519 O   0  0  0  0  0  0  0  0  0  0  0  0
    0.2057   -0.3751   -1.7820 N   0  0  0  0  0  0  0  0  0  0  0  0
   -0.6515   -0.8042   -2.8858 C   0  0  0  0  0  0  0  0  0  0  0  0
   -2.1053   -0.9161   -2.4389 C   0  0  0  0  0  0  0  0  0  0  0  0
   -2.6563    0.4319   -1.9239 C   0  0  0  0  0  0  0  0  0  0  0  0
   -3.2605    1.1111   -3.0428 O   0  0  0  0  0  0  0  0  0  0  0  0
   -3.7733    0.1661   -0.9037 C   0  0  0  0  0  0  0  0  0  0  0  0
   -4.9918   -0.3776   -1.3522 C   0  0  0  0  0  0  0  0  0  0  0  0
   -6.0414   -0.6395   -0.4709 C   0  0  0  0  0  0  0  0  0  0  0  0
   -5.8892   -0.3801    0.8878 C   0  0  0  0  0  0  0  0  0  0  0  0
   -4.6825    0.1365    1.3772 C   0  0  0  0  0  0  0  0  0  0  0  0
   -4.5238    0.4268    2.8502 C   0  0  0  0  0  0  0  0  0  0  0  0
   -5.1619   -0.4765    3.6456 F   0  0  0  0  0  0  0  0  0  0  0  0
   -5.0223    1.6462    3.1913 F   0  0  0  0  0  0  0  0  0  0  0  0
   -3.2246    0.4295    3.2585 F   0  0  0  0  0  0  0  0  0  0  0  0
   -3.6388    0.4131    0.4735 C   0  0  0  0  0  0  0  0  0  0  0  0
   -1.5228    1.3697   -1.4583 C   0  0  0  0  0  0  0  0  0  0  0  0
   -0.3531    0.6042   -0.8489 C   0  0  0  0  0  0  0  0  0  0  0  0
    3.7556   -0.5304   -0.4520 C   0  0  0  0  0  0  0  0  0  0  0  0
    4.7592   -0.7488   -1.5273 C   0  0  0  0  0  0  0  0  0  0  0  0
    4.0126   -0.2421    0.9247 C   0  0  0  0  0  0  0  0  0  0  0  0
    5.1598   -0.0617    1.7231 C   0  0  0  0  0  0  0  0  0  0  0  0
    7.0497   -0.1889    3.6368 H   0  0  0  0  0  0  0  0  0  0  0  0
    6.5468    1.5081    3.8416 H   0  0  0  0  0  0  0  0  0  0  0  0
    6.0201    0.2594    4.9963 H   0  0  0  0  0  0  0  0  0  0  0  0
    3.6138    0.5778    4.7063 H   0  0  0  0  0  0  0  0  0  0  0  0
    1.5819    0.2337    3.3003 H   0  0  0  0  0  0  0  0  0  0  0  0
   -0.3141   -1.7767   -3.2619 H   0  0  0  0  0  0  0  0  0  0  0  0
   -0.5396   -0.0791   -3.7028 H   0  0  0  0  0  0  0  0  0  0  0  0
   -2.1503   -1.6745   -1.6448 H   0  0  0  0  0  0  0  0  0  0  0  0
   -2.7093   -1.2889   -3.2756 H   0  0  0  0  0  0  0  0  0  0  0  0
   -3.9027    1.7479   -2.6803 H   0  0  0  0  0  0  0  0  0  0  0  0
   -5.1326   -0.5975   -2.4109 H   0  0  0  0  0  0  0  0  0  0  0  0
   -6.9755   -1.0495   -0.8474 H   0  0  0  0  0  0  0  0  0  0  0  0
   -6.7161   -0.5860    1.5678 H   0  0  0  0  0  0  0  0  0  0  0  0
   -2.7150    0.8208    0.8790 H   0  0  0  0  0  0  0  0  0  0  0  0
   -1.1407    1.9340   -2.3216 H   0  0  0  0  0  0  0  0  0  0  0  0
   -1.8891    2.1376   -0.7658 H   0  0  0  0  0  0  0  0  0  0  0  0
   -0.6701    0.0597    0.0462 H   0  0  0  0  0  0  0  0  0  0  0  0
    0.4234    1.3218   -0.5635 H   0  0  0  0  0  0  0  0  0  0  0  0
    5.7760   -0.7824   -1.1248 H   0  0  0  0  0  0  0  0  0  0  0  0
    4.5776   -1.6960   -2.0478 H   0  0  0  0  0  0  0  0  0  0  0  0
    4.7102    0.0694   -2.2559 H   0  0  0  0  0  0  0  0  0  0  0  0
    6.1497   -0.1325    1.2810 H   0  0  0  0  0  0  0  0  0  0  0  0
  1  2  1  0
  2  3  2  0
  3  4  1  0
  4  5  2  0
  5  6  1  0
  6  7  1  0
  7  8  1  0
  8  9  2  0
  8 10  1  0
 10 11  1  0
 11 12  1  0
 12 13  1  0
 13 14  1  0
 13 15  1  0
 15 16  2  0
 16 17  1  0
 17 18  2  0
 18 19  1  0
 19 20  1  0
 20 21  1  0
 20 22  1  0
 20 23  1  0
 19 24  2  0
 13 25  1  0
 25 26  1  0
  7 27  2  0
 27 28  1  0
 27 29  1  0
 29 30  2  0
 30  2  1  0
 29  5  1  0
 26 10  1  0
 24 15  1  0
  1 31  1  0
  1 32  1  0
  1 33  1  0
  3 34  1  0
  4 35  1  0
 11 36  1  0
 11 37  1  0
 12 38  1  0
 12 39  1  0
 14 40  1  0
 16 41  1  0
 17 42  1  0
 18 43  1  0
 24 44  1  0
 25 45  1  0
 25 46  1  0
 26 47  1  0
 26 48  1  0
 28 49  1  0
 28 50  1  0
 28 51  1  0
 30 52  1  0
M  END
$$$$
