
     RDKit          3D

 35 36  0  0  0  0  0  0  0  0999 V2000
   -5.6602   -0.5255    2.1261 C   0  0  0  0  0  0  0  0  0  0  0  0
   -5.1936    0.9169    2.0333 C   0  0  0  0  0  0  0  0  0  0  0  0
   -4.6305    1.1878    0.7502 O   0  0  0  0  0  0  0  0  0  0  0  0
   -3.3031    0.9550    0.5383 C   0  0  0  0  0  0  0  0  0  0  0  0
   -2.8426    1.3371   -0.7200 C   0  0  0  0  0  0  0  0  0  0  0  0
   -1.5030    1.1598   -1.0904 C   0  0  0  0  0  0  0  0  0  0  0  0
   -0.5779    0.5892   -0.2107 C   0  0  0  0  0  0  0  0  0  0  0  0
    0.7812    0.4088   -0.5773 N   0  0  0  0  0  0  0  0  0  0  0  0
    1.3958    0.6680   -1.7936 C   0  0  0  0  0  0  0  0  0  0  0  0
    0.8507    1.1131   -2.7995 O   0  0  0  0  0  0  0  0  0  0  0  0
    2.8869    0.3750   -1.7776 C   0  0  0  0  0  0  0  0  0  0  0  0
    3.1573   -1.4117   -1.6458 S   0  0  0  0  0  0  0  0  0  0  0  0
    4.8947   -1.4449   -1.6183 C   0  0  0  0  0  0  0  0  0  0  0  0
    5.6791   -0.3232   -1.6181 N   0  0  0  0  0  0  0  0  0  0  0  0
    6.8962   -0.8137   -1.5907 C   0  0  0  0  0  0  0  0  0  0  0  0
    6.8369   -2.1708   -1.5707 N   0  0  0  0  0  0  0  0  0  0  0  0
    5.5662   -2.5988   -1.5841 N   0  0  0  0  0  0  0  0  0  0  0  0
   -1.0560    0.2001    1.0630 C   0  0  0  0  0  0  0  0  0  0  0  0
   -0.1699   -0.4201    2.0613 N   0  0  0  0  0  4  0  0  0  0  0  0
   -0.6961   -0.9985    3.0229 O   0  0  0  0  0  0  0  0  0  0  0  0
    1.0561   -0.3286    1.8921 O   0  0  0  0  0  1  0  0  0  0  0  0
   -2.4074    0.3819    1.4328 C   0  0  0  0  0  0  0  0  0  0  0  0
   -6.1574   -0.7097    3.0827 H   0  0  0  0  0  0  0  0  0  0  0  0
   -6.3605   -0.7541    1.3159 H   0  0  0  0  0  0  0  0  0  0  0  0
   -4.8244   -1.2246    2.0282 H   0  0  0  0  0  0  0  0  0  0  0  0
   -6.0689    1.5694    2.1301 H   0  0  0  0  0  0  0  0  0  0  0  0
   -4.5216    1.1940    2.8528 H   0  0  0  0  0  0  0  0  0  0  0  0
   -3.5342    1.7834   -1.4331 H   0  0  0  0  0  0  0  0  0  0  0  0
   -1.2237    1.4882   -2.0873 H   0  0  0  0  0  0  0  0  0  0  0  0
    1.3866    0.0024    0.1391 H   0  0  0  0  0  0  0  0  0  0  0  0
    3.3400    0.9039   -0.9321 H   0  0  0  0  0  0  0  0  0  0  0  0
    3.3281    0.7568   -2.7041 H   0  0  0  0  0  0  0  0  0  0  0  0
    7.8224   -0.2570   -1.5837 H   0  0  0  0  0  0  0  0  0  0  0  0
    7.5910   -2.8482   -1.5481 H   0  0  0  0  0  0  0  0  0  0  0  0
   -2.7383    0.0637    2.4163 H   0  0  0  0  0  0  0  0  0  0  0  0
  1  2  1  0
  2  3  1  0
  3  4  1  0
  4  5  2  0
  5  6  1  0
  6  7  2  0
  7  8  1  0
  8  9  1  0
  9 10  2  0
  9 11  1  0
 11 12  1  0
 12 13  1  0
 13 14  1  0
 14 15  2  0
 15 16  1  0
 16 17  1  0
  7 18  1  0
 18 19  1  0
 19 20  2  0
 19 21  1  0
 18 22  2  0
 22  4  1  0
 17 13  2  0
  1 23  1  0
  1 24  1  0
  1 25  1  0
  2 26  1  0
  2 27  1  0
  5 28  1  0
  6 29  1  0
  8 30  1  0
 11 31  1  0
 11 32  1  0
 15 33  1  0
 16 34  1  0
 22 35  1  0
M  CHG  2  19   1  21  -1
M  END
$$$$
