
     RDKit          3D

 43 46  0  0  0  0  0  0  0  0999 V2000
    5.0863    2.3137    0.3481 C   0  0  0  0  0  0  0  0  0  0  0  0
    3.7722    1.9296    0.7537 O   0  0  0  0  0  0  0  0  0  0  0  0
    2.8291    2.1014   -0.2035 C   0  0  0  0  0  0  0  0  0  0  0  0
    3.0110    2.5346   -1.3308 O   0  0  0  0  0  0  0  0  0  0  0  0
    1.5210    1.6045    0.2628 C   0  0  0  0  0  0  0  0  0  0  0  0
    0.9602    1.9379    1.4431 C   0  0  0  0  0  0  0  0  0  0  0  0
    1.5668    2.8975    2.4347 C   0  0  0  0  0  0  0  0  0  0  0  0
   -0.2774    1.4583    1.8245 N   0  0  0  0  0  0  0  0  0  0  0  0
   -0.9584    0.8089    0.9438 C   0  0  0  0  0  0  0  0  0  0  0  0
   -2.5846    0.2651    1.2266 S   0  0  0  0  0  0  0  0  0  0  0  0
   -2.7556   -0.2984   -0.3910 C   0  0  0  0  0  0  0  0  0  0  0  0
   -3.8184   -0.8441   -1.0005 C   0  0  0  0  0  0  0  0  0  0  0  0
   -5.1219   -1.1378   -0.4950 C   0  0  0  0  0  0  0  0  0  0  0  0
   -5.6214   -1.2088    0.8300 C   0  0  0  0  0  0  0  0  0  0  0  0
   -6.9525   -1.5449    0.7274 C   0  0  0  0  0  0  0  0  0  0  0  0
   -7.3055   -1.6937   -0.5734 O   0  0  0  0  0  0  0  0  0  0  0  0
   -6.1913   -1.4508   -1.3100 C   0  0  0  0  0  0  0  0  0  0  0  0
   -1.4786   -0.0823   -1.1381 C   0  0  0  0  0  0  0  0  0  0  0  0
   -1.3224   -0.3613   -2.3184 O   0  0  0  0  0  0  0  0  0  0  0  0
   -0.5433    0.4836   -0.3082 N   0  0  0  0  0  0  0  0  0  0  0  0
    0.8352    0.6904   -0.7135 C   0  0  0  0  0  0  0  0  0  0  0  0
    1.5677   -0.6467   -0.8375 C   0  0  0  0  0  0  0  0  0  0  0  0
    1.7421   -1.4975    0.2690 C   0  0  0  0  0  0  0  0  0  0  0  0
    2.4174   -2.7114    0.1323 C   0  0  0  0  0  0  0  0  0  0  0  0
    2.9252   -3.0923   -1.1075 C   0  0  0  0  0  0  0  0  0  0  0  0
    2.7590   -2.2610   -2.2128 C   0  0  0  0  0  0  0  0  0  0  0  0
    2.0851   -1.0459   -2.0803 C   0  0  0  0  0  0  0  0  0  0  0  0
    5.1138    3.3786    0.0965 H   0  0  0  0  0  0  0  0  0  0  0  0
    5.7647    2.1384    1.1875 H   0  0  0  0  0  0  0  0  0  0  0  0
    5.4185    1.7057   -0.4992 H   0  0  0  0  0  0  0  0  0  0  0  0
    0.7866    3.5183    2.8898 H   0  0  0  0  0  0  0  0  0  0  0  0
    2.0709    2.3449    3.2338 H   0  0  0  0  0  0  0  0  0  0  0  0
    2.2805    3.5882    1.9766 H   0  0  0  0  0  0  0  0  0  0  0  0
   -3.6810   -1.0986   -2.0539 H   0  0  0  0  0  0  0  0  0  0  0  0
   -5.1009   -1.0495    1.7627 H   0  0  0  0  0  0  0  0  0  0  0  0
   -7.7403   -1.7123    1.4486 H   0  0  0  0  0  0  0  0  0  0  0  0
   -6.3204   -1.5367   -2.3805 H   0  0  0  0  0  0  0  0  0  0  0  0
    0.7922    1.1720   -1.6997 H   0  0  0  0  0  0  0  0  0  0  0  0
    1.3584   -1.2228    1.2498 H   0  0  0  0  0  0  0  0  0  0  0  0
    2.5476   -3.3609    0.9944 H   0  0  0  0  0  0  0  0  0  0  0  0
    3.4493   -4.0386   -1.2135 H   0  0  0  0  0  0  0  0  0  0  0  0
    3.1515   -2.5600   -3.1816 H   0  0  0  0  0  0  0  0  0  0  0  0
    1.9614   -0.4152   -2.9594 H   0  0  0  0  0  0  0  0  0  0  0  0
  1  2  1  0
  2  3  1  0
  3  4  2  0
  3  5  1  0
  5  6  2  0
  6  7  1  0
  6  8  1  0
  8  9  2  0
  9 10  1  0
 10 11  1  0
 11 12  2  3
 12 13  1  0
 13 14  1  0
 14 15  2  0
 15 16  1  0
 16 17  1  0
 11 18  1  0
 18 19  2  0
 18 20  1  0
 20 21  1  0
 21 22  1  0
 22 23  2  0
 23 24  1  0
 24 25  2  0
 25 26  1  0
 26 27  2  0
 21  5  1  0
 27 22  1  0
 20  9  1  0
 17 13  2  0
  1 28  1  0
  1 29  1  0
  1 30  1  0
  7 31  1  0
  7 32  1  0
  7 33  1  0
 12 34  1  0
 14 35  1  0
 15 36  1  0
 17 37  1  0
 21 38  1  0
 23 39  1  0
 24 40  1  0
 25 41  1  0
 26 42  1  0
 27 43  1  0
M  END
$$$$
