
     RDKit          3D

 55 58  0  0  0  0  0  0  0  0999 V2000
    1.7921   -4.4890    5.2225 N   0  0  0  0  0  0  0  0  0  0  0  0
    1.7305   -3.1289    5.0735 C   0  0  0  0  0  0  0  0  0  0  0  0
    2.0347   -2.3782    5.9975 O   0  0  0  0  0  0  0  0  0  0  0  0
    1.2690   -2.6668    3.7525 C   0  0  0  0  0  0  0  0  0  0  0  0
    0.8942   -3.5678    2.8289 N   0  0  0  0  0  0  0  0  0  0  0  0
    0.3858   -2.7736    1.4685 S   0  0  0  0  0  0  0  0  0  0  0  0
    0.6949   -1.1951    2.0422 C   0  0  0  0  0  0  0  0  0  0  0  0
    0.3695   -0.0306    1.2474 C   0  0  0  0  0  0  0  0  0  0  0  0
   -0.4641    0.7808    1.6649 O   0  0  0  0  0  0  0  0  0  0  0  0
    0.9304    0.1346   -0.0369 N   0  0  0  0  0  0  0  0  0  0  0  0
    2.0404   -0.6269   -0.5228 C   0  0  0  0  0  0  0  0  0  0  0  0
    2.0474   -1.1565   -1.8194 C   0  0  0  0  0  0  0  0  0  0  0  0
    3.1382   -1.8992   -2.2808 C   0  0  0  0  0  0  0  0  0  0  0  0
    4.2379   -2.1164   -1.4559 C   0  0  0  0  0  0  0  0  0  0  0  0
    4.2532   -1.5833   -0.1709 C   0  0  0  0  0  0  0  0  0  0  0  0
    3.1641   -0.8393    0.2906 C   0  0  0  0  0  0  0  0  0  0  0  0
    0.2953    1.1561   -0.9070 C   0  0  0  0  0  0  0  0  0  0  0  0
   -0.9016    0.5684   -1.6958 C   0  0  0  0  0  0  0  0  0  0  0  0
   -1.0043    0.5330   -2.9199 O   0  0  0  0  0  0  0  0  0  0  0  0
   -1.9216    0.0986   -0.8723 N   0  0  0  0  0  0  0  0  0  0  0  0
   -3.1857   -0.3490   -1.4095 C   0  0  0  0  0  0  0  0  0  0  0  0
   -4.2054    0.7610   -1.3687 C   0  0  0  0  0  0  0  0  0  0  0  0
   -4.2530    1.7158   -2.3979 C   0  0  0  0  0  0  0  0  0  0  0  0
   -5.1773    2.7604   -2.3514 C   0  0  0  0  0  0  0  0  0  0  0  0
   -6.0506    2.8541   -1.2750 C   0  0  0  0  0  0  0  0  0  0  0  0
   -6.9369    3.8579   -1.2286 F   0  0  0  0  0  0  0  0  0  0  0  0
   -6.0150    1.9249   -0.2420 C   0  0  0  0  0  0  0  0  0  0  0  0
   -5.0900    0.8800   -0.2850 C   0  0  0  0  0  0  0  0  0  0  0  0
    1.2847    1.9506   -1.7109 C   0  0  0  0  0  0  0  0  0  0  0  0
    2.0850    3.0294   -1.3761 C   0  0  0  0  0  0  0  0  0  0  0  0
    2.8323    3.3557   -2.5329 C   0  0  0  0  0  0  0  0  0  0  0  0
    2.4462    2.4601   -3.5010 C   0  0  0  0  0  0  0  0  0  0  0  0
    1.5123    1.6072   -3.0125 O   0  0  0  0  0  0  0  0  0  0  0  0
    1.1461   -1.2845    3.3428 C   0  0  0  0  0  0  0  0  0  0  0  0
    1.4500   -0.2109    4.1171 N   0  0  0  0  0  0  0  0  0  0  0  0
    2.0634   -4.8796    6.1121 H   0  0  0  0  0  0  0  0  0  0  0  0
    1.5010   -5.0877    4.4588 H   0  0  0  0  0  0  0  0  0  0  0  0
    1.2062   -1.0220   -2.4938 H   0  0  0  0  0  0  0  0  0  0  0  0
    3.1239   -2.3073   -3.2888 H   0  0  0  0  0  0  0  0  0  0  0  0
    5.0852   -2.6933   -1.8175 H   0  0  0  0  0  0  0  0  0  0  0  0
    5.1158   -1.7372    0.4724 H   0  0  0  0  0  0  0  0  0  0  0  0
    3.2296   -0.4031    1.2848 H   0  0  0  0  0  0  0  0  0  0  0  0
   -0.1694    1.9139   -0.2585 H   0  0  0  0  0  0  0  0  0  0  0  0
   -1.9108    0.3813    0.1041 H   0  0  0  0  0  0  0  0  0  0  0  0
   -3.5180   -1.1924   -0.7939 H   0  0  0  0  0  0  0  0  0  0  0  0
   -3.0659   -0.7228   -2.4327 H   0  0  0  0  0  0  0  0  0  0  0  0
   -3.5630    1.6485   -3.2385 H   0  0  0  0  0  0  0  0  0  0  0  0
   -5.2175    3.4994   -3.1450 H   0  0  0  0  0  0  0  0  0  0  0  0
   -6.7048    2.0220    0.5903 H   0  0  0  0  0  0  0  0  0  0  0  0
   -5.0637    0.1601    0.5304 H   0  0  0  0  0  0  0  0  0  0  0  0
    2.1265    3.5140   -0.4104 H   0  0  0  0  0  0  0  0  0  0  0  0
    3.5642    4.1423   -2.6478 H   0  0  0  0  0  0  0  0  0  0  0  0
    2.7267    2.3019   -4.5333 H   0  0  0  0  0  0  0  0  0  0  0  0
    1.0093    0.6923    3.9463 H   0  0  0  0  0  0  0  0  0  0  0  0
    1.6326   -0.3626    5.1143 H   0  0  0  0  0  0  0  0  0  0  0  0
  1  2  1  0
  2  3  2  0
  2  4  1  0
  4  5  2  0
  5  6  1  0
  6  7  1  0
  7  8  1  0
  8  9  2  0
  8 10  1  0
 10 11  1  0
 11 12  2  0
 12 13  1  0
 13 14  2  0
 14 15  1  0
 15 16  2  0
 10 17  1  0
 17 18  1  0
 18 19  2  0
 18 20  1  0
 20 21  1  0
 21 22  1  0
 22 23  2  0
 23 24  1  0
 24 25  2  0
 25 26  1  0
 25 27  1  0
 27 28  2  0
 17 29  1  0
 29 30  2  0
 30 31  1  0
 31 32  2  0
 32 33  1  0
  7 34  2  0
 34 35  1  0
 34  4  1  0
 16 11  1  0
 28 22  1  0
 33 29  1  0
  1 36  1  0
  1 37  1  0
 12 38  1  0
 13 39  1  0
 14 40  1  0
 15 41  1  0
 16 42  1  0
 17 43  1  0
 20 44  1  0
 21 45  1  0
 21 46  1  0
 23 47  1  0
 24 48  1  0
 27 49  1  0
 28 50  1  0
 30 51  1  0
 31 52  1  0
 32 53  1  0
 35 54  1  0
 35 55  1  0
M  END
$$$$
