
     RDKit          3D

 57 58  0  0  0  0  0  0  0  0999 V2000
    7.7884   -1.6740    1.4021 C   0  0  0  0  0  0  0  0  0  0  0  0
    6.7644   -1.9481    2.4923 C   0  0  0  0  0  0  0  0  0  0  0  0
    5.5474   -2.7381    2.0010 C   0  0  0  0  0  0  0  0  0  0  0  0
    4.7118   -2.0203    0.9406 C   0  0  0  0  0  0  0  0  0  0  0  0
    4.2652   -0.7733    1.4696 O   0  0  0  0  0  0  0  0  0  0  0  0
    3.5403    0.0332    0.6377 C   0  0  0  0  0  0  0  0  0  0  0  0
    3.1154   -0.2837   -0.6503 C   0  0  0  0  0  0  0  0  0  0  0  0
    2.3710    0.6412   -1.3921 C   0  0  0  0  0  0  0  0  0  0  0  0
    2.0450    1.9018   -0.8656 C   0  0  0  0  0  0  0  0  0  0  0  0
    1.2051    2.8588   -1.6954 C   0  0  0  0  0  0  0  0  0  0  0  0
    1.6479    4.3189   -1.5903 C   0  0  0  0  0  0  0  0  0  0  0  0
   -0.1909    2.7299   -1.3052 N   0  0  0  0  0  0  0  0  0  0  0  0
   -1.0450    1.8692   -1.9571 C   0  0  0  0  0  0  0  0  0  0  0  0
   -0.7586    1.2611   -2.9818 O   0  0  0  0  0  0  0  0  0  0  0  0
   -2.3757    1.7192   -1.2594 C   0  0  0  0  0  0  0  0  0  0  0  0
   -3.3757    0.9910   -2.1405 C   0  0  0  0  0  0  0  0  0  0  0  0
   -4.8770    0.5911   -1.2713 S   0  0  0  0  0  6  0  0  0  0  0  0
   -5.1537    1.6833   -0.3553 O   0  0  0  0  0  0  0  0  0  0  0  0
   -5.8483    0.1985   -2.2759 O   0  0  0  0  0  0  0  0  0  0  0  0
   -4.4170   -0.8625   -0.3272 C   0  0  0  0  0  0  0  0  0  0  0  0
   -5.6110   -1.3627    0.4426 C   0  0  0  0  0  0  0  0  0  0  0  0
   -5.9020   -0.8563    1.7184 C   0  0  0  0  0  0  0  0  0  0  0  0
   -7.0097   -1.3198    2.4314 C   0  0  0  0  0  0  0  0  0  0  0  0
   -7.8399   -2.2935    1.8779 C   0  0  0  0  0  0  0  0  0  0  0  0
   -7.5622   -2.7965    0.6094 C   0  0  0  0  0  0  0  0  0  0  0  0
   -8.5871   -3.9972   -0.0759 Cl  0  0  0  0  0  0  0  0  0  0  0  0
   -6.4578   -2.3366   -0.1092 C   0  0  0  0  0  0  0  0  0  0  0  0
    2.4637    2.2026    0.4375 C   0  0  0  0  0  0  0  0  0  0  0  0
    3.2069    1.2769    1.1762 C   0  0  0  0  0  0  0  0  0  0  0  0
    8.1038   -2.6029    0.9168 H   0  0  0  0  0  0  0  0  0  0  0  0
    8.6758   -1.1980    1.8316 H   0  0  0  0  0  0  0  0  0  0  0  0
    7.3895   -1.0008    0.6378 H   0  0  0  0  0  0  0  0  0  0  0  0
    7.2499   -2.5229    3.2900 H   0  0  0  0  0  0  0  0  0  0  0  0
    6.4466   -0.9996    2.9398 H   0  0  0  0  0  0  0  0  0  0  0  0
    4.9099   -2.9381    2.8714 H   0  0  0  0  0  0  0  0  0  0  0  0
    5.8716   -3.7091    1.6085 H   0  0  0  0  0  0  0  0  0  0  0  0
    3.8475   -2.6499    0.6971 H   0  0  0  0  0  0  0  0  0  0  0  0
    5.3103   -1.8639    0.0360 H   0  0  0  0  0  0  0  0  0  0  0  0
    3.3373   -1.2415   -1.1086 H   0  0  0  0  0  0  0  0  0  0  0  0
    2.0354    0.3658   -2.3918 H   0  0  0  0  0  0  0  0  0  0  0  0
    1.3020    2.5780   -2.7520 H   0  0  0  0  0  0  0  0  0  0  0  0
    1.4858    4.7310   -0.5883 H   0  0  0  0  0  0  0  0  0  0  0  0
    2.7093    4.4286   -1.8378 H   0  0  0  0  0  0  0  0  0  0  0  0
    1.0718    4.9407   -2.2853 H   0  0  0  0  0  0  0  0  0  0  0  0
   -0.4285    3.0191   -0.3656 H   0  0  0  0  0  0  0  0  0  0  0  0
   -2.2018    1.1701   -0.3276 H   0  0  0  0  0  0  0  0  0  0  0  0
   -2.7561    2.7136   -0.9988 H   0  0  0  0  0  0  0  0  0  0  0  0
   -3.6591    1.6235   -2.9893 H   0  0  0  0  0  0  0  0  0  0  0  0
   -2.9786    0.0549   -2.5464 H   0  0  0  0  0  0  0  0  0  0  0  0
   -3.6029   -0.5941    0.3517 H   0  0  0  0  0  0  0  0  0  0  0  0
   -4.0543   -1.6215   -1.0273 H   0  0  0  0  0  0  0  0  0  0  0  0
   -5.2760   -0.0844    2.1635 H   0  0  0  0  0  0  0  0  0  0  0  0
   -7.2298   -0.9153    3.4165 H   0  0  0  0  0  0  0  0  0  0  0  0
   -8.7026   -2.6486    2.4350 H   0  0  0  0  0  0  0  0  0  0  0  0
   -6.2666   -2.7309   -1.1052 H   0  0  0  0  0  0  0  0  0  0  0  0
    2.2189    3.1544    0.9010 H   0  0  0  0  0  0  0  0  0  0  0  0
    3.5296    1.5278    2.1841 H   0  0  0  0  0  0  0  0  0  0  0  0
  1  2  1  0
  2  3  1  0
  3  4  1  0
  4  5  1  0
  5  6  1  0
  6  7  2  0
  7  8  1  0
  8  9  2  0
  9 10  1  0
 10 11  1  0
 10 12  1  0
 12 13  1  0
 13 14  2  0
 13 15  1  0
 15 16  1  0
 16 17  1  0
 17 18  2  0
 17 19  2  0
 17 20  1  0
 20 21  1  0
 21 22  2  0
 22 23  1  0
 23 24  2  0
 24 25  1  0
 25 26  1  0
 25 27  2  0
  9 28  1  0
 28 29  2  0
 29  6  1  0
 27 21  1  0
  1 30  1  0
  1 31  1  0
  1 32  1  0
  2 33  1  0
  2 34  1  0
  3 35  1  0
  3 36  1  0
  4 37  1  0
  4 38  1  0
  7 39  1  0
  8 40  1  0
 10 41  1  0
 11 42  1  0
 11 43  1  0
 11 44  1  0
 12 45  1  0
 15 46  1  0
 15 47  1  0
 16 48  1  0
 16 49  1  0
 20 50  1  0
 20 51  1  0
 22 52  1  0
 23 53  1  0
 24 54  1  0
 27 55  1  0
 28 56  1  0
 29 57  1  0
M  END
$$$$
