
     RDKit          3D

 46 48  0  0  0  0  0  0  0  0999 V2000
   -4.5572    2.2487   -3.1135 C   0  0  0  0  0  0  0  0  0  0  0  0
   -4.6512    0.9888   -2.3016 C   0  0  0  0  0  0  0  0  0  0  0  0
   -5.8113    0.2091   -2.3559 C   0  0  0  0  0  0  0  0  0  0  0  0
   -5.9028   -0.9607   -1.6084 C   0  0  0  0  0  0  0  0  0  0  0  0
   -4.8411   -1.3573   -0.7913 C   0  0  0  0  0  0  0  0  0  0  0  0
   -3.6766   -0.5939   -0.7199 C   0  0  0  0  0  0  0  0  0  0  0  0
   -2.5645   -0.9126    0.0880 N   0  0  0  0  0  0  0  0  0  0  0  0
   -2.4649   -1.9097    1.0361 C   0  0  0  0  0  0  0  0  0  0  0  0
   -3.3589   -2.6998    1.3157 O   0  0  0  0  0  0  0  0  0  0  0  0
   -1.2028   -2.0167    1.7404 C   0  0  0  0  0  0  0  0  0  0  0  0
   -1.0421   -2.9881    2.7101 N   0  0  0  0  0  0  0  0  0  0  0  0
    0.2327   -2.9372    3.1849 C   0  0  0  0  0  0  0  0  0  0  0  0
    0.9124   -1.9721    2.6124 N   0  0  0  0  0  0  0  0  0  0  0  0
    0.0359   -1.3892    1.6972 C   0  0  0  0  0  0  0  0  0  0  0  0
    0.5043   -0.3227    0.8144 C   0  0  0  0  0  0  0  0  0  0  0  0
   -0.2139    0.2406   -0.0052 O   0  0  0  0  0  0  0  0  0  0  0  0
    1.8420   -0.0660    0.9719 N   0  0  0  0  0  0  0  0  0  0  0  0
    2.6144    0.6749   -0.0082 C   0  0  0  0  0  0  0  0  0  0  0  0
    2.8184   -0.1508   -1.2804 C   0  0  0  0  0  0  0  0  0  0  0  0
    3.9520    1.1081    0.5641 C   0  0  0  0  0  0  0  0  0  0  0  0
    4.3227    2.4662    0.5211 C   0  0  0  0  0  0  0  0  0  0  0  0
    5.5688    2.8756    0.9989 C   0  0  0  0  0  0  0  0  0  0  0  0
    6.4577    1.9385    1.5347 C   0  0  0  0  0  0  0  0  0  0  0  0
    6.1018    0.5915    1.5931 C   0  0  0  0  0  0  0  0  0  0  0  0
    4.8592    0.1797    1.1061 C   0  0  0  0  0  0  0  0  0  0  0  0
   -3.5838    0.5688   -1.4943 C   0  0  0  0  0  0  0  0  0  0  0  0
   -4.4822    2.0055   -4.1813 H   0  0  0  0  0  0  0  0  0  0  0  0
   -5.4448    2.8760   -2.9402 H   0  0  0  0  0  0  0  0  0  0  0  0
   -3.6760    2.8391   -2.8342 H   0  0  0  0  0  0  0  0  0  0  0  0
   -6.6481    0.5090   -2.9825 H   0  0  0  0  0  0  0  0  0  0  0  0
   -6.8023   -1.5678   -1.6606 H   0  0  0  0  0  0  0  0  0  0  0  0
   -4.9548   -2.2764   -0.2331 H   0  0  0  0  0  0  0  0  0  0  0  0
   -1.7747   -0.2798   -0.0023 H   0  0  0  0  0  0  0  0  0  0  0  0
   -1.7620   -3.6510    2.9738 H   0  0  0  0  0  0  0  0  0  0  0  0
    0.6054   -3.6150    3.9325 H   0  0  0  0  0  0  0  0  0  0  0  0
    2.3164   -0.6701    1.6405 H   0  0  0  0  0  0  0  0  0  0  0  0
    2.0280    1.5621   -0.2753 H   0  0  0  0  0  0  0  0  0  0  0  0
    3.2846   -1.1159   -1.0666 H   0  0  0  0  0  0  0  0  0  0  0  0
    3.4544    0.3754   -1.9996 H   0  0  0  0  0  0  0  0  0  0  0  0
    1.8604   -0.3559   -1.7698 H   0  0  0  0  0  0  0  0  0  0  0  0
    3.6423    3.2169    0.1105 H   0  0  0  0  0  0  0  0  0  0  0  0
    5.8470    3.9259    0.9491 H   0  0  0  0  0  0  0  0  0  0  0  0
    7.4262    2.2590    1.9061 H   0  0  0  0  0  0  0  0  0  0  0  0
    6.7969   -0.1423    2.0058 H   0  0  0  0  0  0  0  0  0  0  0  0
    4.6086   -0.8744    1.1497 H   0  0  0  0  0  0  0  0  0  0  0  0
   -2.6762    1.1659   -1.4612 H   0  0  0  0  0  0  0  0  0  0  0  0
  1  2  1  0
  2  3  2  0
  3  4  1  0
  4  5  2  0
  5  6  1  0
  6  7  1  0
  7  8  1  0
  8  9  2  0
  8 10  1  0
 10 11  1  0
 11 12  1  0
 12 13  2  0
 13 14  1  0
 14 15  1  0
 15 16  2  0
 15 17  1  0
 17 18  1  0
 18 19  1  0
 18 20  1  0
 20 21  2  0
 21 22  1  0
 22 23  2  0
 23 24  1  0
 24 25  2  0
  6 26  2  0
 26  2  1  0
 14 10  2  0
 25 20  1  0
  1 27  1  0
  1 28  1  0
  1 29  1  0
  3 30  1  0
  4 31  1  0
  5 32  1  0
  7 33  1  0
 11 34  1  0
 12 35  1  0
 17 36  1  0
 18 37  1  0
 19 38  1  0
 19 39  1  0
 19 40  1  0
 21 41  1  0
 22 42  1  0
 23 43  1  0
 24 44  1  0
 25 45  1  0
 26 46  1  0
M  END
$$$$
