
     RDKit          3D

 34 35  0  0  0  0  0  0  0  0999 V2000
   -0.8629   -0.4041    2.0969 C   0  0  0  0  0  0  0  0  0  0  0  0
   -1.1062   -0.5867    0.6696 N   0  0  0  0  0  0  0  0  0  0  0  0
   -0.2313   -0.1751   -0.3443 C   0  0  0  0  0  0  0  0  0  0  0  0
   -0.4922   -0.4319   -1.5213 O   0  0  0  0  0  0  0  0  0  0  0  0
    1.0204    0.5827    0.0873 C   0  0  0  0  0  0  0  0  0  0  0  0
    1.9996    1.1648   -1.3264 S   0  0  0  0  0  0  0  0  0  0  0  0
    3.3306    1.9593   -0.4651 C   0  0  0  0  0  0  0  0  0  0  0  0
    3.3285    1.9665    0.8809 N   0  0  0  0  0  0  0  0  0  0  0  0
    4.3666    2.5849    1.4760 C   0  0  0  0  0  0  0  0  0  0  0  0
    5.3905    3.1876    0.7864 C   0  0  0  0  0  0  0  0  0  0  0  0
    5.2964    3.1244   -0.5821 C   0  0  0  0  0  0  0  0  0  0  0  0
    4.2831    2.5205   -1.2282 N   0  0  0  0  0  0  0  0  0  0  0  0
   -2.3403   -1.3077    0.3049 C   0  0  0  0  0  0  0  0  0  0  0  0
   -3.2814   -0.4895   -0.6193 C   0  0  0  0  0  0  0  0  0  0  0  0
   -3.5529   -1.2817   -1.8920 C   0  0  0  0  0  0  0  0  0  0  0  0
   -3.4205   -2.9783   -1.3989 S   0  0  0  0  0  6  0  0  0  0  0  0
   -4.5910   -3.3231   -0.6153 O   0  0  0  0  0  0  0  0  0  0  0  0
   -2.9779   -3.7876   -2.5131 O   0  0  0  0  0  0  0  0  0  0  0  0
   -2.0755   -2.6992   -0.2854 C   0  0  0  0  0  0  0  0  0  0  0  0
    0.0788    0.0995    2.3133 H   0  0  0  0  0  0  0  0  0  0  0  0
   -1.6816    0.1893    2.5146 H   0  0  0  0  0  0  0  0  0  0  0  0
   -0.8459   -1.3886    2.5741 H   0  0  0  0  0  0  0  0  0  0  0  0
    0.7095    1.4531    0.6734 H   0  0  0  0  0  0  0  0  0  0  0  0
    1.6346   -0.0933    0.6905 H   0  0  0  0  0  0  0  0  0  0  0  0
    4.3498    2.5808    2.5622 H   0  0  0  0  0  0  0  0  0  0  0  0
    6.2143    3.6781    1.2854 H   0  0  0  0  0  0  0  0  0  0  0  0
    6.0536    3.5693   -1.2213 H   0  0  0  0  0  0  0  0  0  0  0  0
   -2.8981   -1.4581    1.2404 H   0  0  0  0  0  0  0  0  0  0  0  0
   -2.9096    0.5148   -0.8478 H   0  0  0  0  0  0  0  0  0  0  0  0
   -4.2336   -0.3452   -0.0914 H   0  0  0  0  0  0  0  0  0  0  0  0
   -2.7932   -1.0933   -2.6550 H   0  0  0  0  0  0  0  0  0  0  0  0
   -4.5459   -1.0930   -2.3050 H   0  0  0  0  0  0  0  0  0  0  0  0
   -2.0684   -3.4792    0.4802 H   0  0  0  0  0  0  0  0  0  0  0  0
   -1.1479   -2.7602   -0.8600 H   0  0  0  0  0  0  0  0  0  0  0  0
  1  2  1  0
  2  3  1  0
  3  4  2  0
  3  5  1  0
  5  6  1  0
  6  7  1  0
  7  8  2  0
  8  9  1  0
  9 10  2  0
 10 11  1  0
 11 12  2  0
  2 13  1  0
 13 14  1  0
 14 15  1  0
 15 16  1  0
 16 17  2  0
 16 18  2  0
 16 19  1  0
 12  7  1  0
 19 13  1  0
  1 20  1  0
  1 21  1  0
  1 22  1  0
  5 23  1  0
  5 24  1  0
  9 25  1  0
 10 26  1  0
 11 27  1  0
 13 28  1  0
 14 29  1  0
 14 30  1  0
 15 31  1  0
 15 32  1  0
 19 33  1  0
 19 34  1  0
M  END
$$$$
