
     RDKit          3D

 34 36  0  0  0  0  0  0  0  0999 V2000
   -0.3637   -1.7267   -1.5986 O   0  0  0  0  0  0  0  0  0  0  0  0
    0.1673   -1.4398   -0.5340 C   0  0  0  0  0  0  0  0  0  0  0  0
    1.5580   -0.9097   -0.4149 C   0  0  0  0  0  0  0  0  0  0  0  0
    2.3213   -0.7220   -1.4994 C   0  0  0  0  0  0  0  0  0  0  0  0
    3.7017   -0.2426   -1.5474 C   0  0  0  0  0  0  0  0  0  0  0  0
    4.1067    0.9528   -0.9621 C   0  0  0  0  0  0  0  0  0  0  0  0
    5.4358    1.3479   -1.0963 C   0  0  0  0  0  0  0  0  0  0  0  0
    6.3134    0.5498   -1.8191 C   0  0  0  0  0  0  0  0  0  0  0  0
    5.8205   -0.6124   -2.3867 C   0  0  0  0  0  0  0  0  0  0  0  0
    4.5367   -1.0189   -2.2741 N   0  0  0  0  0  0  0  0  0  0  0  0
    1.9776   -0.6619    1.2420 S   0  0  0  0  0  0  0  0  0  0  0  0
    0.4192   -1.2273    1.8284 C   0  0  0  0  0  0  0  0  0  0  0  0
    0.0258   -1.3533    3.4460 S   0  0  0  0  0  0  0  0  0  0  0  0
   -0.3652   -1.5549    0.7427 N   0  0  0  0  0  0  0  0  0  0  0  0
   -1.7062   -1.9836    0.8893 N   0  0  0  0  0  0  0  0  0  0  0  0
   -2.6335   -0.9016    0.8752 C   0  0  0  0  0  0  0  0  0  0  0  0
   -2.1995    0.3475    0.5606 N   0  0  0  0  0  0  0  0  0  0  0  0
   -3.1099    1.3490    0.5065 C   0  0  0  0  0  0  0  0  0  0  0  0
   -4.4637    1.1821    0.7518 C   0  0  0  0  0  0  0  0  0  0  0  0
   -5.3908    2.3561    0.6919 C   0  0  0  0  0  0  0  0  0  0  0  0
   -5.0336    3.2688   -0.2521 F   0  0  0  0  0  0  0  0  0  0  0  0
   -5.4377    3.0336    1.8704 F   0  0  0  0  0  0  0  0  0  0  0  0
   -6.6752    2.0072    0.4077 F   0  0  0  0  0  0  0  0  0  0  0  0
   -4.9032   -0.1007    1.0888 C   0  0  0  0  0  0  0  0  0  0  0  0
   -3.9875   -1.1514    1.1453 C   0  0  0  0  0  0  0  0  0  0  0  0
   -4.5561   -2.7235    1.5758 Cl  0  0  0  0  0  0  0  0  0  0  0  0
    1.9301   -0.9903   -2.4797 H   0  0  0  0  0  0  0  0  0  0  0  0
    3.4092    1.5796   -0.4172 H   0  0  0  0  0  0  0  0  0  0  0  0
    5.7803    2.2736   -0.6443 H   0  0  0  0  0  0  0  0  0  0  0  0
    7.3537    0.8288   -1.9429 H   0  0  0  0  0  0  0  0  0  0  0  0
    6.4631   -1.2679   -2.9676 H   0  0  0  0  0  0  0  0  0  0  0  0
   -1.8429   -2.5300    1.7407 H   0  0  0  0  0  0  0  0  0  0  0  0
   -2.6963    2.3224    0.2470 H   0  0  0  0  0  0  0  0  0  0  0  0
   -5.9554   -0.2809    1.3021 H   0  0  0  0  0  0  0  0  0  0  0  0
  1  2  2  0
  2  3  1  0
  3  4  2  3
  4  5  1  0
  5  6  2  0
  6  7  1  0
  7  8  2  0
  8  9  1  0
  9 10  2  0
  3 11  1  0
 11 12  1  0
 12 13  2  0
 12 14  1  0
 14 15  1  0
 15 16  1  0
 16 17  2  0
 17 18  1  0
 18 19  2  0
 19 20  1  0
 20 21  1  0
 20 22  1  0
 20 23  1  0
 19 24  1  0
 24 25  2  0
 25 26  1  0
 14  2  1  0
 25 16  1  0
 10  5  1  0
  4 27  1  0
  6 28  1  0
  7 29  1  0
  8 30  1  0
  9 31  1  0
 15 32  1  0
 18 33  1  0
 24 34  1  0
M  END
$$$$
