
     RDKit          3D

 37 38  0  0  0  0  0  0  0  0999 V2000
   -4.2055   -0.7445   -2.0091 C   0  0  0  0  0  0  0  0  0  0  0  0
   -3.5178   -0.3597   -0.7771 N   0  0  0  0  0  0  0  0  0  0  0  0
   -2.2293    0.1647   -0.8506 C   0  0  0  0  0  0  0  0  0  0  0  0
   -1.6446    0.3360   -2.1018 N   0  0  0  0  0  0  0  0  0  0  0  0
   -1.5832    0.4864    0.2927 C   0  0  0  0  0  0  0  0  0  0  0  0
   -0.1893    1.0358    0.2474 C   0  0  0  0  0  0  0  0  0  0  0  0
    0.1790    1.7313   -0.7069 O   0  0  0  0  0  0  0  0  0  0  0  0
    0.7631    0.6939    1.3946 C   0  0  0  0  0  0  0  0  0  0  0  0
    2.1307    0.7119    0.9709 O   0  0  0  0  0  0  0  0  0  0  0  0
    2.4765   -0.3547    0.1967 C   0  0  0  0  0  0  0  0  0  0  0  0
    1.7283   -1.2832   -0.0700 O   0  0  0  0  0  0  0  0  0  0  0  0
    3.8992   -0.2291   -0.2618 C   0  0  0  0  0  0  0  0  0  0  0  0
    4.6218    0.9513   -0.0989 C   0  0  0  0  0  0  0  0  0  0  0  0
    5.9374    0.9961   -0.5556 C   0  0  0  0  0  0  0  0  0  0  0  0
    6.4891   -0.1284   -1.1585 C   0  0  0  0  0  0  0  0  0  0  0  0
    5.7007   -1.2599   -1.2837 C   0  0  0  0  0  0  0  0  0  0  0  0
    4.4246   -1.3366   -0.8514 N   0  0  0  0  0  0  0  0  0  0  0  0
   -2.2628    0.3067    1.5914 C   0  0  0  0  0  0  0  0  0  0  0  0
   -1.7371    0.7373    2.6179 O   0  0  0  0  0  0  0  0  0  0  0  0
   -3.4868   -0.3187    1.5778 N   0  0  0  0  0  0  0  0  0  0  0  0
   -4.1649   -0.5354    2.8428 C   0  0  0  0  0  0  0  0  0  0  0  0
   -4.1919   -0.5934    0.4192 C   0  0  0  0  0  0  0  0  0  0  0  0
   -5.3522   -1.0079    0.4570 O   0  0  0  0  0  0  0  0  0  0  0  0
   -4.4356    0.1575   -2.5852 H   0  0  0  0  0  0  0  0  0  0  0  0
   -3.5663   -1.4134   -2.5948 H   0  0  0  0  0  0  0  0  0  0  0  0
   -5.1441   -1.2715   -1.8172 H   0  0  0  0  0  0  0  0  0  0  0  0
   -2.2859    0.7309   -2.7819 H   0  0  0  0  0  0  0  0  0  0  0  0
   -0.7947    0.9142   -2.0622 H   0  0  0  0  0  0  0  0  0  0  0  0
    0.6611    1.4674    2.1621 H   0  0  0  0  0  0  0  0  0  0  0  0
    0.5249   -0.2768    1.8431 H   0  0  0  0  0  0  0  0  0  0  0  0
    4.1805    1.8275    0.3640 H   0  0  0  0  0  0  0  0  0  0  0  0
    6.5253    1.9034   -0.4444 H   0  0  0  0  0  0  0  0  0  0  0  0
    7.5098   -0.1231   -1.5256 H   0  0  0  0  0  0  0  0  0  0  0  0
    6.0860   -2.1627   -1.7501 H   0  0  0  0  0  0  0  0  0  0  0  0
   -4.8311    0.3135    3.0270 H   0  0  0  0  0  0  0  0  0  0  0  0
   -3.4523   -0.6153    3.6688 H   0  0  0  0  0  0  0  0  0  0  0  0
   -4.7624   -1.4516    2.8057 H   0  0  0  0  0  0  0  0  0  0  0  0
  1  2  1  0
  2  3  1  0
  3  4  1  0
  3  5  2  0
  5  6  1  0
  6  7  2  0
  6  8  1  0
  8  9  1  0
  9 10  1  0
 10 11  2  0
 10 12  1  0
 12 13  2  0
 13 14  1  0
 14 15  2  0
 15 16  1  0
 16 17  2  0
  5 18  1  0
 18 19  2  0
 18 20  1  0
 20 21  1  0
 20 22  1  0
 22 23  2  0
 22  2  1  0
 17 12  1  0
  1 24  1  0
  1 25  1  0
  1 26  1  0
  4 27  1  0
  4 28  1  0
  8 29  1  0
  8 30  1  0
 13 31  1  0
 14 32  1  0
 15 33  1  0
 16 34  1  0
 21 35  1  0
 21 36  1  0
 21 37  1  0
M  END
$$$$
