
     RDKit          3D

 62 65  0  0  0  0  0  0  0  0999 V2000
   -7.3276   -1.5492   -1.6338 C   0  0  0  0  0  0  0  0  0  0  0  0
   -6.9942   -1.6529   -0.2545 O   0  0  0  0  0  0  0  0  0  0  0  0
   -5.9912   -2.6374   -0.0085 C   0  0  0  0  0  0  0  0  0  0  0  0
   -4.6050   -2.0620   -0.0452 C   0  0  0  0  0  0  0  0  0  0  0  0
   -4.2917   -0.7570   -0.1168 C   0  0  0  0  0  0  0  0  0  0  0  0
   -2.9309   -0.2450   -0.1436 C   0  0  0  0  0  0  0  0  0  0  0  0
   -2.1453   -0.5569   -1.2016 C   0  0  0  0  0  0  0  0  0  0  0  0
   -0.7754   -0.0449   -1.2653 C   0  0  0  0  0  0  0  0  0  0  0  0
   -0.0073   -0.3340   -2.3250 C   0  0  0  0  0  0  0  0  0  0  0  0
    1.3792    0.1655   -2.4496 C   0  0  0  0  0  0  0  0  0  0  0  0
    2.0434   -0.2039   -3.4212 O   0  0  0  0  0  0  0  0  0  0  0  0
    1.9226    1.1624   -1.4221 C   0  0  0  0  0  0  0  0  0  0  0  0
    1.8715    2.5457   -2.0900 C   0  0  0  0  0  0  0  0  0  0  0  0
    3.3152    0.9156   -1.1534 O   0  0  0  0  0  0  0  0  0  0  0  0
    3.5767   -0.2861   -0.5695 C   0  0  0  0  0  0  0  0  0  0  0  0
    2.7208   -1.1042   -0.2668 O   0  0  0  0  0  0  0  0  0  0  0  0
    5.0415   -0.4674   -0.3668 C   0  0  0  0  0  0  0  0  0  0  0  0
    5.9584    0.5197   -0.6852 C   0  0  0  0  0  0  0  0  0  0  0  0
    7.2944    0.3586   -0.5111 N   0  0  0  0  0  0  0  0  0  0  0  0
    7.6952   -0.8250   -0.0058 C   0  0  0  0  0  0  0  0  0  0  0  0
    9.0488   -1.0649    0.1977 C   0  0  0  0  0  0  0  0  0  0  0  0
    9.5020   -2.2773    0.7197 C   0  0  0  0  0  0  0  0  0  0  0  0
    8.5854   -3.2690    1.0431 C   0  0  0  0  0  0  0  0  0  0  0  0
    7.2228   -3.0410    0.8428 C   0  0  0  0  0  0  0  0  0  0  0  0
    6.7595   -1.8382    0.3249 C   0  0  0  0  0  0  0  0  0  0  0  0
    5.4368   -1.6616    0.1469 N   0  0  0  0  0  0  0  0  0  0  0  0
    1.1133    1.2763   -0.1300 C   0  0  0  0  0  0  0  0  0  0  0  0
    1.5716    1.8280    0.8740 O   0  0  0  0  0  0  0  0  0  0  0  0
   -0.2771    0.7534   -0.1533 C   0  0  0  0  0  0  0  0  0  0  0  0
   -1.1199    1.0149    0.8620 C   0  0  0  0  0  0  0  0  0  0  0  0
   -2.4526    0.5704    0.9134 N   0  0  0  0  0  0  0  0  0  0  0  0
   -3.2746    0.8848    2.1032 C   0  0  0  0  0  0  0  0  0  0  0  0
   -4.1611    2.1263    1.8826 C   0  0  0  0  0  0  0  0  0  0  0  0
   -5.2143    2.2128    2.9892 C   0  0  0  0  0  0  0  0  0  0  0  0
   -3.3452    3.4202    1.8480 C   0  0  0  0  0  0  0  0  0  0  0  0
   -6.4448   -1.3112   -2.2350 H   0  0  0  0  0  0  0  0  0  0  0  0
   -8.0560   -0.7417   -1.7517 H   0  0  0  0  0  0  0  0  0  0  0  0
   -7.7816   -2.4795   -1.9863 H   0  0  0  0  0  0  0  0  0  0  0  0
   -6.1689   -3.0423    0.9948 H   0  0  0  0  0  0  0  0  0  0  0  0
   -6.0790   -3.4702   -0.7181 H   0  0  0  0  0  0  0  0  0  0  0  0
   -3.8034   -2.7944    0.0181 H   0  0  0  0  0  0  0  0  0  0  0  0
   -5.0793   -0.0085   -0.1362 H   0  0  0  0  0  0  0  0  0  0  0  0
   -2.5143   -1.1780   -2.0120 H   0  0  0  0  0  0  0  0  0  0  0  0
   -0.3500   -0.9524   -3.1471 H   0  0  0  0  0  0  0  0  0  0  0  0
    2.3007    3.3137   -1.4353 H   0  0  0  0  0  0  0  0  0  0  0  0
    0.8460    2.8420   -2.3372 H   0  0  0  0  0  0  0  0  0  0  0  0
    2.4606    2.5580   -3.0145 H   0  0  0  0  0  0  0  0  0  0  0  0
    5.6641    1.4811   -1.0917 H   0  0  0  0  0  0  0  0  0  0  0  0
    9.7653   -0.2885   -0.0574 H   0  0  0  0  0  0  0  0  0  0  0  0
   10.5659   -2.4419    0.8707 H   0  0  0  0  0  0  0  0  0  0  0  0
    8.9234   -4.2191    1.4495 H   0  0  0  0  0  0  0  0  0  0  0  0
    6.5047   -3.8184    1.0952 H   0  0  0  0  0  0  0  0  0  0  0  0
   -0.8087    1.6032    1.7222 H   0  0  0  0  0  0  0  0  0  0  0  0
   -3.8925    0.0165    2.3637 H   0  0  0  0  0  0  0  0  0  0  0  0
   -2.6284    1.0420    2.9776 H   0  0  0  0  0  0  0  0  0  0  0  0
   -4.6864    2.0420    0.9251 H   0  0  0  0  0  0  0  0  0  0  0  0
   -5.8411    1.3143    2.9998 H   0  0  0  0  0  0  0  0  0  0  0  0
   -5.8741    3.0742    2.8376 H   0  0  0  0  0  0  0  0  0  0  0  0
   -4.7490    2.3118    3.9756 H   0  0  0  0  0  0  0  0  0  0  0  0
   -2.7492    3.5391    2.7587 H   0  0  0  0  0  0  0  0  0  0  0  0
   -2.6668    3.4397    0.9895 H   0  0  0  0  0  0  0  0  0  0  0  0
   -4.0031    4.2917    1.7590 H   0  0  0  0  0  0  0  0  0  0  0  0
  1  2  1  0
  2  3  1  0
  3  4  1  0
  4  5  2  3
  5  6  1  0
  6  7  2  0
  7  8  1  0
  8  9  2  0
  9 10  1  0
 10 11  2  0
 10 12  1  0
 12 13  1  0
 12 14  1  0
 14 15  1  0
 15 16  2  0
 15 17  1  0
 17 18  2  0
 18 19  1  0
 19 20  2  0
 20 21  1  0
 21 22  2  0
 22 23  1  0
 23 24  2  0
 24 25  1  0
 25 26  2  0
 12 27  1  0
 27 28  2  0
 27 29  1  0
 29 30  2  0
 30 31  1  0
 31 32  1  0
 32 33  1  0
 33 34  1  0
 33 35  1  0
 31  6  1  0
 29  8  1  0
 26 17  1  0
 25 20  1  0
  1 36  1  0
  1 37  1  0
  1 38  1  0
  3 39  1  0
  3 40  1  0
  4 41  1  0
  5 42  1  0
  7 43  1  0
  9 44  1  0
 13 45  1  0
 13 46  1  0
 13 47  1  0
 18 48  1  0
 21 49  1  0
 22 50  1  0
 23 51  1  0
 24 52  1  0
 30 53  1  0
 32 54  1  0
 32 55  1  0
 33 56  1  0
 34 57  1  0
 34 58  1  0
 34 59  1  0
 35 60  1  0
 35 61  1  0
 35 62  1  0
M  END
$$$$
