
     RDKit          3D

 59 62  0  0  0  0  0  0  0  0999 V2000
    5.0230   -1.2111   -3.4458 C   0  0  0  0  0  0  0  0  0  0  0  0
    5.7030   -0.9090   -2.2343 O   0  0  0  0  0  0  0  0  0  0  0  0
    4.9364   -0.5793   -1.1454 C   0  0  0  0  0  0  0  0  0  0  0  0
    3.5399   -0.4508   -1.1557 C   0  0  0  0  0  0  0  0  0  0  0  0
    2.8388   -0.1176    0.0115 C   0  0  0  0  0  0  0  0  0  0  0  0
    1.4327    0.0094    0.0759 N   0  0  0  0  0  0  0  0  0  0  0  0
    0.5301   -0.0967   -0.9659 C   0  0  0  0  0  0  0  0  0  0  0  0
    0.7855   -0.2167   -2.1576 O   0  0  0  0  0  0  0  0  0  0  0  0
   -0.8913   -0.0169   -0.5698 C   0  0  0  0  0  0  0  0  0  0  0  0
   -1.7889    0.7029   -1.3678 C   0  0  0  0  0  0  0  0  0  0  0  0
   -3.1315    0.7835   -0.9986 C   0  0  0  0  0  0  0  0  0  0  0  0
   -4.1243    1.5278   -1.8042 C   0  0  0  0  0  0  0  0  0  0  0  0
   -5.4419    1.0495   -1.9345 C   0  0  0  0  0  0  0  0  0  0  0  0
   -6.3938    1.7306   -2.6986 C   0  0  0  0  0  0  0  0  0  0  0  0
   -6.0489    2.9133   -3.3453 C   0  0  0  0  0  0  0  0  0  0  0  0
   -4.7565    3.4150   -3.2259 C   0  0  0  0  0  0  0  0  0  0  0  0
   -3.8047    2.7303   -2.4624 C   0  0  0  0  0  0  0  0  0  0  0  0
   -3.6345    0.1839    0.1102 N   0  0  0  0  0  0  0  0  0  0  0  0
   -2.7427   -0.5211    0.8303 C   0  0  0  0  0  0  0  0  0  0  0  0
   -1.3923   -0.6760    0.5605 C   0  0  0  0  0  0  0  0  0  0  0  0
   -0.9329   -1.5416    1.5757 C   0  0  0  0  0  0  0  0  0  0  0  0
   -1.8849   -1.8650    2.4544 N   0  0  0  0  0  0  0  0  0  0  0  0
   -2.9870   -1.2379    1.9756 N   0  0  0  0  0  0  0  0  0  0  0  0
   -4.2542   -1.3812    2.6818 C   0  0  0  0  0  0  0  0  0  0  0  0
   -4.7761   -0.0423    3.2023 C   0  0  0  0  0  0  0  0  0  0  0  0
   -5.3017   -2.1095    1.8403 C   0  0  0  0  0  0  0  0  0  0  0  0
    3.5475    0.0821    1.2020 C   0  0  0  0  0  0  0  0  0  0  0  0
    4.9341   -0.0595    1.2255 C   0  0  0  0  0  0  0  0  0  0  0  0
    5.5793    0.1728    2.4119 O   0  0  0  0  0  0  0  0  0  0  0  0
    5.9520   -1.0599    3.0274 C   0  0  0  0  0  0  0  0  0  0  0  0
    5.6323   -0.3561    0.0518 C   0  0  0  0  0  0  0  0  0  0  0  0
    6.9987   -0.5005    0.0813 O   0  0  0  0  0  0  0  0  0  0  0  0
    7.6244    0.7733   -0.0752 C   0  0  0  0  0  0  0  0  0  0  0  0
    5.7726   -1.5221   -4.1800 H   0  0  0  0  0  0  0  0  0  0  0  0
    4.3238   -2.0435   -3.3163 H   0  0  0  0  0  0  0  0  0  0  0  0
    4.5173   -0.3230   -3.8410 H   0  0  0  0  0  0  0  0  0  0  0  0
    2.9957   -0.6166   -2.0761 H   0  0  0  0  0  0  0  0  0  0  0  0
    1.0604    0.2496    0.9856 H   0  0  0  0  0  0  0  0  0  0  0  0
   -1.4312    1.1764   -2.2784 H   0  0  0  0  0  0  0  0  0  0  0  0
   -5.7319    0.1234   -1.4406 H   0  0  0  0  0  0  0  0  0  0  0  0
   -7.4008    1.3338   -2.7867 H   0  0  0  0  0  0  0  0  0  0  0  0
   -6.7884    3.4442   -3.9395 H   0  0  0  0  0  0  0  0  0  0  0  0
   -4.4867    4.3422   -3.7252 H   0  0  0  0  0  0  0  0  0  0  0  0
   -2.8086    3.1605   -2.3794 H   0  0  0  0  0  0  0  0  0  0  0  0
    0.0582   -1.9551    1.7166 H   0  0  0  0  0  0  0  0  0  0  0  0
   -4.0422   -2.0095    3.5573 H   0  0  0  0  0  0  0  0  0  0  0  0
   -5.6607   -0.1923    3.8299 H   0  0  0  0  0  0  0  0  0  0  0  0
   -4.0158    0.4632    3.8077 H   0  0  0  0  0  0  0  0  0  0  0  0
   -5.0573    0.6330    2.3878 H   0  0  0  0  0  0  0  0  0  0  0  0
   -4.9239   -3.0808    1.5077 H   0  0  0  0  0  0  0  0  0  0  0  0
   -5.5839   -1.5409    0.9498 H   0  0  0  0  0  0  0  0  0  0  0  0
   -6.2101   -2.2855    2.4244 H   0  0  0  0  0  0  0  0  0  0  0  0
    3.0361    0.3429    2.1240 H   0  0  0  0  0  0  0  0  0  0  0  0
    5.0729   -1.5191    3.4936 H   0  0  0  0  0  0  0  0  0  0  0  0
    6.6755   -0.8340    3.8168 H   0  0  0  0  0  0  0  0  0  0  0  0
    6.4186   -1.7660    2.3309 H   0  0  0  0  0  0  0  0  0  0  0  0
    7.4900    1.3869    0.8217 H   0  0  0  0  0  0  0  0  0  0  0  0
    7.2542    1.3044   -0.9589 H   0  0  0  0  0  0  0  0  0  0  0  0
    8.6967    0.6023   -0.2065 H   0  0  0  0  0  0  0  0  0  0  0  0
  1  2  1  0
  2  3  1  0
  3  4  2  0
  4  5  1  0
  5  6  1  0
  6  7  1  0
  7  8  2  0
  7  9  1  0
  9 10  2  0
 10 11  1  0
 11 12  1  0
 12 13  2  0
 13 14  1  0
 14 15  2  0
 15 16  1  0
 16 17  2  0
 11 18  2  0
 18 19  1  0
 19 20  2  0
 20 21  1  0
 21 22  2  0
 22 23  1  0
 23 24  1  0
 24 25  1  0
 24 26  1  0
  5 27  2  0
 27 28  1  0
 28 29  1  0
 29 30  1  0
 28 31  2  0
 31 32  1  0
 32 33  1  0
 31  3  1  0
 20  9  1  0
 17 12  1  0
 23 19  1  0
  1 34  1  0
  1 35  1  0
  1 36  1  0
  4 37  1  0
  6 38  1  0
 10 39  1  0
 13 40  1  0
 14 41  1  0
 15 42  1  0
 16 43  1  0
 17 44  1  0
 21 45  1  0
 24 46  1  0
 25 47  1  0
 25 48  1  0
 25 49  1  0
 26 50  1  0
 26 51  1  0
 26 52  1  0
 27 53  1  0
 30 54  1  0
 30 55  1  0
 30 56  1  0
 33 57  1  0
 33 58  1  0
 33 59  1  0
M  END
$$$$
