
     RDKit          3D

 52 55  0  0  0  0  0  0  0  0999 V2000
   -4.7513    3.6801   -0.0232 C   0  0  0  0  0  0  0  0  0  0  0  0
   -4.4079    2.2772   -0.4231 C   0  0  0  0  0  0  0  0  0  0  0  0
   -3.7566    1.4136    0.4673 C   0  0  0  0  0  0  0  0  0  0  0  0
   -3.4706    0.0988    0.0774 C   0  0  0  0  0  0  0  0  0  0  0  0
   -2.6402   -1.0009    1.2031 S   0  0  0  0  0  6  0  0  0  0  0  0
   -2.6389   -0.3844    2.5104 O   0  0  0  0  0  0  0  0  0  0  0  0
   -3.1672   -2.3282    0.9788 O   0  0  0  0  0  0  0  0  0  0  0  0
   -1.0818   -0.9933    0.6208 N   0  0  0  0  0  0  0  0  0  0  0  0
   -0.2740    0.2371    0.6369 C   0  0  0  0  0  0  0  0  0  0  0  0
    1.1552   -0.0292    0.0529 C   0  0  0  0  0  0  0  0  0  0  0  0
    1.9993   -0.7131    1.1351 C   0  0  0  0  0  0  0  0  0  0  0  0
    1.8789   -2.0984    1.4083 C   0  0  0  0  0  0  0  0  0  0  0  0
    2.6442   -2.7115    2.4060 C   0  0  0  0  0  0  0  0  0  0  0  0
    3.5190   -1.9226    3.1178 C   0  0  0  0  0  0  0  0  0  0  0  0
    3.6454   -0.5777    2.8674 C   0  0  0  0  0  0  0  0  0  0  0  0
    2.9049    0.0556    1.8909 C   0  0  0  0  0  0  0  0  0  0  0  0
    4.5600    0.0183    3.6787 O   0  0  0  0  0  0  0  0  0  0  0  0
    4.9853   -1.1062    4.4775 C   0  0  0  0  0  0  0  0  0  0  0  0
    4.3384   -2.3440    4.1175 O   0  0  0  0  0  0  0  0  0  0  0  0
    1.1311   -0.7847   -1.2396 N   0  0  0  0  0  0  0  0  0  0  0  0
    2.4901   -1.0048   -1.8043 C   0  0  0  0  0  0  0  0  0  0  0  0
    2.8855    0.0069   -2.8920 C   0  0  0  0  0  0  0  0  0  0  0  0
    1.9989    0.0028   -4.0179 O   0  0  0  0  0  0  0  0  0  0  0  0
    0.6836   -0.4608   -3.6938 C   0  0  0  0  0  0  0  0  0  0  0  0
    0.2825   -0.1049   -2.2543 C   0  0  0  0  0  0  0  0  0  0  0  0
   -3.8593   -0.3794   -1.1789 C   0  0  0  0  0  0  0  0  0  0  0  0
   -4.5196    0.4755   -2.0598 C   0  0  0  0  0  0  0  0  0  0  0  0
   -4.7884    1.7884   -1.6775 C   0  0  0  0  0  0  0  0  0  0  0  0
   -5.4303    2.5909   -2.5381 F   0  0  0  0  0  0  0  0  0  0  0  0
   -4.1073    4.0267    0.7919 H   0  0  0  0  0  0  0  0  0  0  0  0
   -5.7927    3.7307    0.3091 H   0  0  0  0  0  0  0  0  0  0  0  0
   -4.6096    4.3682   -0.8631 H   0  0  0  0  0  0  0  0  0  0  0  0
   -3.4760    1.7630    1.4598 H   0  0  0  0  0  0  0  0  0  0  0  0
   -0.8469   -1.6940   -0.0832 H   0  0  0  0  0  0  0  0  0  0  0  0
   -0.2082    0.6265    1.6590 H   0  0  0  0  0  0  0  0  0  0  0  0
   -0.7669    0.9955    0.0199 H   0  0  0  0  0  0  0  0  0  0  0  0
    1.6083    0.9537   -0.1417 H   0  0  0  0  0  0  0  0  0  0  0  0
    1.1827   -2.7079    0.8357 H   0  0  0  0  0  0  0  0  0  0  0  0
    2.5493   -3.7711    2.6144 H   0  0  0  0  0  0  0  0  0  0  0  0
    3.0307    1.1202    1.7249 H   0  0  0  0  0  0  0  0  0  0  0  0
    4.7690   -0.8901    5.5302 H   0  0  0  0  0  0  0  0  0  0  0  0
    6.0680   -1.2295    4.3594 H   0  0  0  0  0  0  0  0  0  0  0  0
    2.4801   -2.0055   -2.2554 H   0  0  0  0  0  0  0  0  0  0  0  0
    3.2720   -1.0325   -1.0395 H   0  0  0  0  0  0  0  0  0  0  0  0
    3.8891   -0.2184   -3.2671 H   0  0  0  0  0  0  0  0  0  0  0  0
    2.9123    1.0234   -2.4828 H   0  0  0  0  0  0  0  0  0  0  0  0
    0.6427   -1.5437   -3.8597 H   0  0  0  0  0  0  0  0  0  0  0  0
   -0.0104    0.0026   -4.4026 H   0  0  0  0  0  0  0  0  0  0  0  0
   -0.7635   -0.3873   -2.1014 H   0  0  0  0  0  0  0  0  0  0  0  0
    0.3621    0.9848   -2.1469 H   0  0  0  0  0  0  0  0  0  0  0  0
   -3.6620   -1.4095   -1.4675 H   0  0  0  0  0  0  0  0  0  0  0  0
   -4.8386    0.1276   -3.0378 H   0  0  0  0  0  0  0  0  0  0  0  0
  1  2  1  0
  2  3  2  0
  3  4  1  0
  4  5  1  0
  5  6  2  0
  5  7  2  0
  5  8  1  0
  8  9  1  0
  9 10  1  0
 10 11  1  0
 11 12  2  0
 12 13  1  0
 13 14  2  0
 14 15  1  0
 15 16  2  0
 15 17  1  0
 17 18  1  0
 18 19  1  0
 10 20  1  0
 20 21  1  0
 21 22  1  0
 22 23  1  0
 23 24  1  0
 24 25  1  0
  4 26  2  0
 26 27  1  0
 27 28  2  0
 28 29  1  0
 28  2  1  0
 16 11  1  0
 25 20  1  0
 19 14  1  0
  1 30  1  0
  1 31  1  0
  1 32  1  0
  3 33  1  0
  8 34  1  0
  9 35  1  0
  9 36  1  0
 10 37  1  0
 12 38  1  0
 13 39  1  0
 16 40  1  0
 18 41  1  0
 18 42  1  0
 21 43  1  0
 21 44  1  0
 22 45  1  0
 22 46  1  0
 24 47  1  0
 24 48  1  0
 25 49  1  0
 25 50  1  0
 26 51  1  0
 27 52  1  0
M  END
$$$$
