
     RDKit          3D

 44 46  0  0  0  0  0  0  0  0999 V2000
    4.4448    1.8296   -1.6761 C   0  0  0  0  0  0  0  0  0  0  0  0
    3.8414    0.8304   -0.8592 O   0  0  0  0  0  0  0  0  0  0  0  0
    4.6683   -0.0268   -0.1741 C   0  0  0  0  0  0  0  0  0  0  0  0
    6.0687    0.0800   -0.1978 C   0  0  0  0  0  0  0  0  0  0  0  0
    6.8707   -0.8137    0.5162 C   0  0  0  0  0  0  0  0  0  0  0  0
    6.2875   -1.8265    1.2652 C   0  0  0  0  0  0  0  0  0  0  0  0
    4.8991   -1.9451    1.3009 C   0  0  0  0  0  0  0  0  0  0  0  0
    4.0700   -1.0548    0.5890 C   0  0  0  0  0  0  0  0  0  0  0  0
    2.5846   -1.2944    0.7128 C   0  0  0  0  0  0  0  0  0  0  0  0
    2.2011   -2.2349    1.4031 O   0  0  0  0  0  0  0  0  0  0  0  0
    1.7571   -0.4213    0.0351 N   0  0  0  0  0  0  0  0  0  0  0  0
    0.3501   -0.4199   -0.0273 C   0  0  0  0  0  0  0  0  0  0  0  0
   -0.4631   -1.3681    0.5974 C   0  0  0  0  0  0  0  0  0  0  0  0
   -1.8560   -1.2946    0.4851 C   0  0  0  0  0  0  0  0  0  0  0  0
   -2.4428   -0.2586   -0.2425 C   0  0  0  0  0  0  0  0  0  0  0  0
   -3.9221   -0.2053   -0.3593 C   0  0  0  0  0  0  0  0  0  0  0  0
   -4.5263   -1.2705   -0.7960 N   0  0  0  0  0  0  0  0  0  0  0  0
   -5.8724   -1.2261   -0.9706 N   0  0  0  0  0  0  0  0  0  0  0  0
   -6.7168   -0.2570   -0.5007 C   0  0  0  0  0  0  0  0  0  0  0  0
   -7.9233   -0.2752   -0.7302 O   0  0  0  0  0  0  0  0  0  0  0  0
   -6.0806    0.7696    0.3893 C   0  0  0  0  0  0  0  0  0  0  0  0
   -4.6582    1.0983   -0.0524 C   0  0  0  0  0  0  0  0  0  0  0  0
   -4.0032    1.9593    1.0288 C   0  0  0  0  0  0  0  0  0  0  0  0
   -1.6429    0.6831   -0.8901 C   0  0  0  0  0  0  0  0  0  0  0  0
   -0.2516    0.6018   -0.7764 C   0  0  0  0  0  0  0  0  0  0  0  0
    3.6403    2.3897   -2.1624 H   0  0  0  0  0  0  0  0  0  0  0  0
    5.0588    1.3796   -2.4630 H   0  0  0  0  0  0  0  0  0  0  0  0
    5.0223    2.5361   -1.0712 H   0  0  0  0  0  0  0  0  0  0  0  0
    6.5769    0.8538   -0.7644 H   0  0  0  0  0  0  0  0  0  0  0  0
    7.9535   -0.7163    0.4861 H   0  0  0  0  0  0  0  0  0  0  0  0
    6.9071   -2.5249    1.8224 H   0  0  0  0  0  0  0  0  0  0  0  0
    4.4601   -2.7463    1.8947 H   0  0  0  0  0  0  0  0  0  0  0  0
    2.2298    0.3134   -0.4813 H   0  0  0  0  0  0  0  0  0  0  0  0
   -0.0443   -2.1864    1.1749 H   0  0  0  0  0  0  0  0  0  0  0  0
   -2.4730   -2.0494    0.9671 H   0  0  0  0  0  0  0  0  0  0  0  0
   -6.2880   -1.9971   -1.4841 H   0  0  0  0  0  0  0  0  0  0  0  0
   -6.0957    0.3669    1.4097 H   0  0  0  0  0  0  0  0  0  0  0  0
   -6.6961    1.6764    0.3724 H   0  0  0  0  0  0  0  0  0  0  0  0
   -4.7003    1.6649   -0.9918 H   0  0  0  0  0  0  0  0  0  0  0  0
   -3.7947    1.3748    1.9318 H   0  0  0  0  0  0  0  0  0  0  0  0
   -4.6530    2.7961    1.3080 H   0  0  0  0  0  0  0  0  0  0  0  0
   -3.0595    2.3932    0.6872 H   0  0  0  0  0  0  0  0  0  0  0  0
   -2.0855    1.4715   -1.4922 H   0  0  0  0  0  0  0  0  0  0  0  0
    0.3573    1.3449   -1.2853 H   0  0  0  0  0  0  0  0  0  0  0  0
  1  2  1  0
  2  3  1  0
  3  4  2  0
  4  5  1  0
  5  6  2  0
  6  7  1  0
  7  8  2  0
  8  9  1  0
  9 10  2  0
  9 11  1  0
 11 12  1  0
 12 13  2  0
 13 14  1  0
 14 15  2  0
 15 16  1  0
 16 17  2  0
 17 18  1  0
 18 19  1  0
 19 20  2  0
 19 21  1  0
 21 22  1  0
 22 23  1  0
 15 24  1  0
 24 25  2  0
  8  3  1  0
 25 12  1  0
 22 16  1  0
  1 26  1  0
  1 27  1  0
  1 28  1  0
  4 29  1  0
  5 30  1  0
  6 31  1  0
  7 32  1  0
 11 33  1  0
 13 34  1  0
 14 35  1  0
 18 36  1  0
 21 37  1  0
 21 38  1  0
 22 39  1  0
 23 40  1  0
 23 41  1  0
 23 42  1  0
 24 43  1  0
 25 44  1  0
M  END
$$$$
