
     RDKit          3D

 36 37  0  0  0  0  0  0  0  0999 V2000
    5.7784    0.6453    2.3589 C   0  0  0  0  0  0  0  0  0  0  0  0
    4.8023   -0.3408    2.0474 O   0  0  0  0  0  0  0  0  0  0  0  0
    3.7733    0.0415    1.2317 C   0  0  0  0  0  0  0  0  0  0  0  0
    2.8506   -0.9708    0.9465 C   0  0  0  0  0  0  0  0  0  0  0  0
    1.7495   -0.7218    0.1254 C   0  0  0  0  0  0  0  0  0  0  0  0
    1.5648    0.5570   -0.4029 C   0  0  0  0  0  0  0  0  0  0  0  0
    0.1867    0.8738   -1.4817 S   0  0  0  0  0  6  0  0  0  0  0  0
    0.5094    2.0401   -2.2781 O   0  0  0  0  0  0  0  0  0  0  0  0
   -0.1974   -0.3818   -2.0931 O   0  0  0  0  0  0  0  0  0  0  0  0
   -1.0385    1.3587   -0.3820 N   0  0  0  0  0  0  0  0  0  0  0  0
   -1.2972    0.5046    0.8085 N   0  0  0  0  0  0  0  0  0  0  0  0
   -2.2535   -0.3696    0.6860 C   0  0  0  0  0  0  0  0  0  0  0  0
   -2.4751   -1.3332    1.8269 C   0  0  0  0  0  0  0  0  0  0  0  0
   -3.1594   -0.5003   -0.4758 C   0  0  0  0  0  0  0  0  0  0  0  0
   -4.0179    0.5471   -0.7978 C   0  0  0  0  0  0  0  0  0  0  0  0
   -4.8695    0.3651   -1.8705 C   0  0  0  0  0  0  0  0  0  0  0  0
   -4.9131   -0.7651   -2.6095 N   0  0  0  0  0  0  0  0  0  0  0  0
   -4.0543   -1.7543   -2.2752 C   0  0  0  0  0  0  0  0  0  0  0  0
   -3.1685   -1.6775   -1.2170 C   0  0  0  0  0  0  0  0  0  0  0  0
    2.4874    1.5732   -0.1387 C   0  0  0  0  0  0  0  0  0  0  0  0
    3.5890    1.3135    0.6840 C   0  0  0  0  0  0  0  0  0  0  0  0
    6.2927    0.9908    1.4560 H   0  0  0  0  0  0  0  0  0  0  0  0
    6.5254    0.1820    3.0107 H   0  0  0  0  0  0  0  0  0  0  0  0
    5.3327    1.4826    2.9060 H   0  0  0  0  0  0  0  0  0  0  0  0
    2.9955   -1.9635    1.3665 H   0  0  0  0  0  0  0  0  0  0  0  0
    1.0446   -1.5205   -0.0911 H   0  0  0  0  0  0  0  0  0  0  0  0
   -0.9431    2.3607   -0.1966 H   0  0  0  0  0  0  0  0  0  0  0  0
   -1.6323   -2.0289    1.8764 H   0  0  0  0  0  0  0  0  0  0  0  0
   -3.4014   -1.9006    1.7036 H   0  0  0  0  0  0  0  0  0  0  0  0
   -2.5313   -0.7755    2.7665 H   0  0  0  0  0  0  0  0  0  0  0  0
   -4.0237    1.4720   -0.2339 H   0  0  0  0  0  0  0  0  0  0  0  0
   -5.5628    1.1437   -2.1759 H   0  0  0  0  0  0  0  0  0  0  0  0
   -4.0997   -2.6382   -2.9052 H   0  0  0  0  0  0  0  0  0  0  0  0
   -2.4931   -2.4966   -1.0017 H   0  0  0  0  0  0  0  0  0  0  0  0
    2.3632    2.5641   -0.5698 H   0  0  0  0  0  0  0  0  0  0  0  0
    4.2863    2.1233    0.8729 H   0  0  0  0  0  0  0  0  0  0  0  0
  1  2  1  0
  2  3  1  0
  3  4  2  0
  4  5  1  0
  5  6  2  0
  6  7  1  0
  7  8  2  0
  7  9  2  0
  7 10  1  0
 10 11  1  0
 11 12  2  3
 12 13  1  0
 12 14  1  0
 14 15  2  0
 15 16  1  0
 16 17  2  0
 17 18  1  0
 18 19  2  0
  6 20  1  0
 20 21  2  0
 21  3  1  0
 19 14  1  0
  1 22  1  0
  1 23  1  0
  1 24  1  0
  4 25  1  0
  5 26  1  0
 10 27  1  0
 13 28  1  0
 13 29  1  0
 13 30  1  0
 15 31  1  0
 16 32  1  0
 18 33  1  0
 19 34  1  0
 20 35  1  0
 21 36  1  0
M  END
$$$$
