
     RDKit          3D

 41 43  0  0  0  0  0  0  0  0999 V2000
   -4.1466    1.5255   -0.5749 O   0  0  0  0  0  0  0  0  0  0  0  0
   -4.4664    0.3528   -0.4518 C   0  0  0  0  0  0  0  0  0  0  0  0
   -3.6263   -0.7301   -0.2715 O   0  0  0  0  0  0  0  0  0  0  0  0
   -2.2639   -0.4146   -0.2411 C   0  0  0  0  0  0  0  0  0  0  0  0
   -1.6048    0.0091   -1.3957 C   0  0  0  0  0  0  0  0  0  0  0  0
   -0.2335    0.2644   -1.3443 C   0  0  0  0  0  0  0  0  0  0  0  0
    0.4644    0.0775   -0.1450 C   0  0  0  0  0  0  0  0  0  0  0  0
    1.9165    0.3541   -0.1196 C   0  0  0  0  0  0  0  0  0  0  0  0
    2.6199    0.1828    0.9544 N   0  0  0  0  0  0  0  0  0  0  0  0
    3.9679    0.4150    0.8913 N   0  0  0  0  0  0  0  0  0  0  0  0
    4.7992    0.2001   -0.2013 C   0  0  0  0  0  0  0  0  0  0  0  0
    4.4570   -0.0915   -1.3430 O   0  0  0  0  0  0  0  0  0  0  0  0
    6.2523    0.3392    0.1410 C   0  0  0  0  0  0  0  0  0  0  0  0
    7.2173    0.1866   -0.8474 C   0  0  0  0  0  0  0  0  0  0  0  0
    8.5543    0.3203   -0.4857 C   0  0  0  0  0  0  0  0  0  0  0  0
    8.8785    0.5984    0.8389 C   0  0  0  0  0  0  0  0  0  0  0  0
    7.8494    0.7327    1.7586 C   0  0  0  0  0  0  0  0  0  0  0  0
    6.5409    0.6096    1.4469 N   0  0  0  0  0  0  0  0  0  0  0  0
   -0.2034   -0.3690    1.0018 C   0  0  0  0  0  0  0  0  0  0  0  0
   -1.5747   -0.6226    0.9524 C   0  0  0  0  0  0  0  0  0  0  0  0
   -5.8836   -0.1086   -0.4737 C   0  0  0  0  0  0  0  0  0  0  0  0
   -6.2437   -1.4605   -0.3691 C   0  0  0  0  0  0  0  0  0  0  0  0
   -7.5915   -1.8339   -0.3969 C   0  0  0  0  0  0  0  0  0  0  0  0
   -8.5797   -0.8594   -0.5294 C   0  0  0  0  0  0  0  0  0  0  0  0
  -10.3995   -1.3683   -0.5665 Br  0  0  0  0  0  0  0  0  0  0  0  0
   -8.2355    0.4866   -0.6349 C   0  0  0  0  0  0  0  0  0  0  0  0
   -6.8891    0.8610   -0.6074 C   0  0  0  0  0  0  0  0  0  0  0  0
   -2.1500    0.1487   -2.3243 H   0  0  0  0  0  0  0  0  0  0  0  0
    0.2806    0.6037   -2.2399 H   0  0  0  0  0  0  0  0  0  0  0  0
    2.3429    0.7398   -1.0603 H   0  0  0  0  0  0  0  0  0  0  0  0
    4.4408    0.4715    1.7941 H   0  0  0  0  0  0  0  0  0  0  0  0
    6.9353   -0.0317   -1.8726 H   0  0  0  0  0  0  0  0  0  0  0  0
    9.3369    0.2078   -1.2314 H   0  0  0  0  0  0  0  0  0  0  0  0
    9.9127    0.7078    1.1483 H   0  0  0  0  0  0  0  0  0  0  0  0
    8.0606    0.9494    2.8026 H   0  0  0  0  0  0  0  0  0  0  0  0
    0.3401   -0.5212    1.9312 H   0  0  0  0  0  0  0  0  0  0  0  0
   -2.0958   -0.9750    1.8372 H   0  0  0  0  0  0  0  0  0  0  0  0
   -5.4913   -2.2389   -0.2663 H   0  0  0  0  0  0  0  0  0  0  0  0
   -7.8582   -2.8850   -0.3150 H   0  0  0  0  0  0  0  0  0  0  0  0
   -9.0021    1.2505   -0.7385 H   0  0  0  0  0  0  0  0  0  0  0  0
   -6.6278    1.9152   -0.6902 H   0  0  0  0  0  0  0  0  0  0  0  0
  1  2  2  0
  2  3  1  0
  3  4  1  0
  4  5  2  0
  5  6  1  0
  6  7  2  0
  7  8  1  0
  8  9  2  3
  9 10  1  0
 10 11  1  0
 11 12  2  0
 11 13  1  0
 13 14  2  0
 14 15  1  0
 15 16  2  0
 16 17  1  0
 17 18  2  0
  7 19  1  0
 19 20  2  0
  2 21  1  0
 21 22  2  0
 22 23  1  0
 23 24  2  0
 24 25  1  0
 24 26  1  0
 26 27  2  0
 20  4  1  0
 27 21  1  0
 18 13  1  0
  5 28  1  0
  6 29  1  0
  8 30  1  0
 10 31  1  0
 14 32  1  0
 15 33  1  0
 16 34  1  0
 17 35  1  0
 19 36  1  0
 20 37  1  0
 22 38  1  0
 23 39  1  0
 26 40  1  0
 27 41  1  0
M  END
$$$$
