
     RDKit          3D

 46 49  0  0  0  0  0  0  0  0999 V2000
   -6.0806    0.8799    1.9086 C   0  0  0  0  0  0  0  0  0  0  0  0
   -4.6943    1.1239    1.7116 O   0  0  0  0  0  0  0  0  0  0  0  0
   -4.0000    0.2082    0.9690 C   0  0  0  0  0  0  0  0  0  0  0  0
   -4.5156   -0.9725    0.4390 C   0  0  0  0  0  0  0  0  0  0  0  0
   -3.6913   -1.8375   -0.2886 C   0  0  0  0  0  0  0  0  0  0  0  0
   -2.3464   -1.5210   -0.4961 C   0  0  0  0  0  0  0  0  0  0  0  0
   -1.4504   -2.3025   -1.1905 O   0  0  0  0  0  0  0  0  0  0  0  0
   -1.9399   -3.5233   -1.7306 C   0  0  0  0  0  0  0  0  0  0  0  0
   -1.8156   -0.3144    0.0146 C   0  0  0  0  0  0  0  0  0  0  0  0
   -0.4404   -0.0518   -0.1774 N   0  0  0  0  0  0  0  0  0  0  0  0
    0.2733    1.1771   -0.2564 C   0  0  0  0  0  0  0  0  0  0  0  0
   -0.3940    2.3515   -0.1036 N   0  0  0  0  0  0  0  0  0  0  0  0
    0.4246    3.4241   -0.2555 C   0  0  0  0  0  0  0  0  0  0  0  0
    0.0742    4.7076   -0.1709 N   0  0  0  0  0  0  0  0  0  0  0  0
    1.2538    5.4126   -0.4074 O   0  0  0  0  0  0  0  0  0  0  0  0
    2.3364    4.5636   -0.6371 N   0  0  0  0  0  0  0  0  0  0  0  0
    1.8270    3.3354   -0.5416 C   0  0  0  0  0  0  0  0  0  0  0  0
    2.5079    2.1681   -0.6858 N   0  0  0  0  0  0  0  0  0  0  0  0
    1.7093    1.0829   -0.5105 C   0  0  0  0  0  0  0  0  0  0  0  0
    2.2935   -0.2066   -0.6317 N   0  0  0  0  0  0  0  0  0  0  0  0
    2.3961   -0.9305    0.6507 C   0  0  0  0  0  0  0  0  0  0  0  0
    3.6461   -0.5254    1.4312 C   0  0  0  0  0  0  0  0  0  0  0  0
    4.9022   -0.7063    0.5866 C   0  0  0  0  0  0  0  0  0  0  0  0
    4.7856    0.0670   -0.7218 C   0  0  0  0  0  0  0  0  0  0  0  0
    3.5000   -0.2819   -1.4733 C   0  0  0  0  0  0  0  0  0  0  0  0
   -2.6535    0.5241    0.7594 C   0  0  0  0  0  0  0  0  0  0  0  0
   -6.4870    1.7118    2.4920 H   0  0  0  0  0  0  0  0  0  0  0  0
   -6.2412   -0.0387    2.4825 H   0  0  0  0  0  0  0  0  0  0  0  0
   -6.6167    0.8493    0.9543 H   0  0  0  0  0  0  0  0  0  0  0  0
   -5.5532   -1.2558    0.5802 H   0  0  0  0  0  0  0  0  0  0  0  0
   -4.1322   -2.7495   -0.6759 H   0  0  0  0  0  0  0  0  0  0  0  0
   -2.2877   -4.1944   -0.9384 H   0  0  0  0  0  0  0  0  0  0  0  0
   -2.7259   -3.3406   -2.4707 H   0  0  0  0  0  0  0  0  0  0  0  0
   -1.1094   -4.0177   -2.2436 H   0  0  0  0  0  0  0  0  0  0  0  0
   -0.0253   -0.7256   -0.8244 H   0  0  0  0  0  0  0  0  0  0  0  0
    1.5166   -0.7898    1.2883 H   0  0  0  0  0  0  0  0  0  0  0  0
    2.4403   -2.0045    0.4296 H   0  0  0  0  0  0  0  0  0  0  0  0
    3.7241   -1.1325    2.3401 H   0  0  0  0  0  0  0  0  0  0  0  0
    3.5667    0.5210    1.7504 H   0  0  0  0  0  0  0  0  0  0  0  0
    5.0520   -1.7716    0.3725 H   0  0  0  0  0  0  0  0  0  0  0  0
    5.7805   -0.3639    1.1448 H   0  0  0  0  0  0  0  0  0  0  0  0
    4.8271    1.1404   -0.5072 H   0  0  0  0  0  0  0  0  0  0  0  0
    5.6506   -0.1545   -1.3576 H   0  0  0  0  0  0  0  0  0  0  0  0
    3.5806   -1.3141   -1.8384 H   0  0  0  0  0  0  0  0  0  0  0  0
    3.3978    0.3403   -2.3715 H   0  0  0  0  0  0  0  0  0  0  0  0
   -2.2657    1.4379    1.2007 H   0  0  0  0  0  0  0  0  0  0  0  0
  1  2  1  0
  2  3  1  0
  3  4  2  0
  4  5  1  0
  5  6  2  0
  6  7  1  0
  7  8  1  0
  6  9  1  0
  9 10  1  0
 10 11  1  0
 11 12  2  0
 12 13  1  0
 13 14  2  0
 14 15  1  0
 15 16  1  0
 16 17  2  0
 17 18  1  0
 18 19  2  0
 19 20  1  0
 20 21  1  0
 21 22  1  0
 22 23  1  0
 23 24  1  0
 24 25  1  0
  9 26  2  0
 26  3  1  0
 19 11  1  0
 25 20  1  0
 17 13  1  0
  1 27  1  0
  1 28  1  0
  1 29  1  0
  4 30  1  0
  5 31  1  0
  8 32  1  0
  8 33  1  0
  8 34  1  0
 10 35  1  0
 21 36  1  0
 21 37  1  0
 22 38  1  0
 22 39  1  0
 23 40  1  0
 23 41  1  0
 24 42  1  0
 24 43  1  0
 25 44  1  0
 25 45  1  0
 26 46  1  0
M  END
$$$$
