
     RDKit          3D

 37 37  0  0  0  0  0  0  0  0999 V2000
    6.7043   -0.6803   -1.0033 C   0  0  0  0  0  0  0  0  0  0  0  0
    5.2319   -1.0292   -1.1513 C   0  0  0  0  0  0  0  0  0  0  0  0
    4.3512   -0.1134   -0.3018 C   0  0  0  0  0  0  0  0  0  0  0  0
    2.8714   -0.4674   -0.4535 C   0  0  0  0  0  0  0  0  0  0  0  0
    1.9907    0.4474    0.3952 C   0  0  0  0  0  0  0  0  0  0  0  0
    0.5136    0.1185    0.2569 C   0  0  0  0  0  0  0  0  0  0  0  0
    0.0932   -0.8040   -0.4345 O   0  0  0  0  0  0  0  0  0  0  0  0
   -0.2764    1.0025    1.0003 N   0  0  0  0  0  0  0  0  0  0  0  0
   -1.5981    0.7252    1.2320 N   0  0  0  0  0  0  0  0  0  0  0  0
   -2.4285    0.7247    0.2256 C   0  0  0  0  0  0  0  0  0  0  0  0
   -2.0766    1.1688   -1.1822 C   0  0  0  0  0  0  0  0  0  0  0  0
   -3.8414    0.2935    0.4771 C   0  0  0  0  0  0  0  0  0  0  0  0
   -4.3615    0.3711    1.7772 C   0  0  0  0  0  0  0  0  0  0  0  0
   -5.6754   -0.0282    2.0381 C   0  0  0  0  0  0  0  0  0  0  0  0
   -6.4694   -0.5128    1.0012 C   0  0  0  0  0  0  0  0  0  0  0  0
   -8.0865   -1.0048    1.3203 Cl  0  0  0  0  0  0  0  0  0  0  0  0
   -5.9599   -0.6058   -0.2929 C   0  0  0  0  0  0  0  0  0  0  0  0
   -4.6454   -0.2058   -0.5559 C   0  0  0  0  0  0  0  0  0  0  0  0
    7.3156   -1.3474   -1.6191 H   0  0  0  0  0  0  0  0  0  0  0  0
    7.0296   -0.7847    0.0367 H   0  0  0  0  0  0  0  0  0  0  0  0
    6.8975    0.3488   -1.3225 H   0  0  0  0  0  0  0  0  0  0  0  0
    4.9470   -0.9461   -2.2066 H   0  0  0  0  0  0  0  0  0  0  0  0
    5.0783   -2.0734   -0.8550 H   0  0  0  0  0  0  0  0  0  0  0  0
    4.5117    0.9300   -0.5993 H   0  0  0  0  0  0  0  0  0  0  0  0
    4.6429   -0.1974    0.7522 H   0  0  0  0  0  0  0  0  0  0  0  0
    2.5784   -0.3871   -1.5078 H   0  0  0  0  0  0  0  0  0  0  0  0
    2.7095   -1.5121   -0.1597 H   0  0  0  0  0  0  0  0  0  0  0  0
    2.2658    0.3507    1.4521 H   0  0  0  0  0  0  0  0  0  0  0  0
    2.1394    1.4913    0.0945 H   0  0  0  0  0  0  0  0  0  0  0  0
    0.1837    1.3887    1.8200 H   0  0  0  0  0  0  0  0  0  0  0  0
   -2.9268    1.6778   -1.6467 H   0  0  0  0  0  0  0  0  0  0  0  0
   -1.8070    0.3018   -1.7904 H   0  0  0  0  0  0  0  0  0  0  0  0
   -1.2490    1.8829   -1.1774 H   0  0  0  0  0  0  0  0  0  0  0  0
   -3.7477    0.7441    2.5943 H   0  0  0  0  0  0  0  0  0  0  0  0
   -6.0677    0.0386    3.0493 H   0  0  0  0  0  0  0  0  0  0  0  0
   -6.5760   -0.9951   -1.0995 H   0  0  0  0  0  0  0  0  0  0  0  0
   -4.2625   -0.3113   -1.5673 H   0  0  0  0  0  0  0  0  0  0  0  0
  1  2  1  0
  2  3  1  0
  3  4  1  0
  4  5  1  0
  5  6  1  0
  6  7  2  0
  6  8  1  0
  8  9  1  0
  9 10  2  3
 10 11  1  0
 10 12  1  0
 12 13  2  0
 13 14  1  0
 14 15  2  0
 15 16  1  0
 15 17  1  0
 17 18  2  0
 18 12  1  0
  1 19  1  0
  1 20  1  0
  1 21  1  0
  2 22  1  0
  2 23  1  0
  3 24  1  0
  3 25  1  0
  4 26  1  0
  4 27  1  0
  5 28  1  0
  5 29  1  0
  8 30  1  0
 11 31  1  0
 11 32  1  0
 11 33  1  0
 13 34  1  0
 14 35  1  0
 17 36  1  0
 18 37  1  0
M  END
$$$$
