
     RDKit          3D

 33 34  0  0  0  0  0  0  0  0999 V2000
    0.3680   -3.9194   -0.3093 O   0  0  0  0  0  0  0  0  0  0  0  0
    0.2524   -2.8612    0.3000 C   0  0  0  0  0  0  0  0  0  0  0  0
   -0.9313   -2.6286    1.2457 C   0  0  0  0  0  0  0  0  0  0  0  0
   -1.9316   -1.7437    0.7341 O   0  0  0  0  0  0  0  0  0  0  0  0
   -1.6358   -0.4254    0.8015 C   0  0  0  0  0  0  0  0  0  0  0  0
   -0.5800    0.0346    1.2113 O   0  0  0  0  0  0  0  0  0  0  0  0
   -2.7557    0.3957    0.2955 C   0  0  0  0  0  0  0  0  0  0  0  0
   -3.9317   -0.1416   -0.2369 C   0  0  0  0  0  0  0  0  0  0  0  0
   -4.9325    0.7184   -0.6910 C   0  0  0  0  0  0  0  0  0  0  0  0
   -4.7153    2.0830   -0.5930 C   0  0  0  0  0  0  0  0  0  0  0  0
   -5.8955    3.2046   -1.1259 Cl  0  0  0  0  0  0  0  0  0  0  0  0
   -3.5951    2.6378   -0.0859 N   0  0  0  0  0  0  0  0  0  0  0  0
   -2.6382    1.7803    0.3456 C   0  0  0  0  0  0  0  0  0  0  0  0
    1.1431   -1.7991    0.2758 N   0  0  0  0  0  0  0  0  0  0  0  0
    2.1892   -1.6587   -0.6173 C   0  0  0  0  0  0  0  0  0  0  0  0
    2.5887   -2.5197   -1.3908 O   0  0  0  0  0  0  0  0  0  0  0  0
    2.8622   -0.3262   -0.6175 C   0  0  0  0  0  0  0  0  0  0  0  0
    3.4617    0.1089   -1.8073 C   0  0  0  0  0  0  0  0  0  0  0  0
    4.0977    1.3501   -1.8635 C   0  0  0  0  0  0  0  0  0  0  0  0
    4.1462    2.1594   -0.7297 C   0  0  0  0  0  0  0  0  0  0  0  0
    3.5673    1.7266    0.4629 C   0  0  0  0  0  0  0  0  0  0  0  0
    2.9295    0.4846    0.5242 C   0  0  0  0  0  0  0  0  0  0  0  0
   -0.5685   -2.2871    2.2234 H   0  0  0  0  0  0  0  0  0  0  0  0
   -1.4159   -3.5960    1.4195 H   0  0  0  0  0  0  0  0  0  0  0  0
   -4.0814   -1.2162   -0.3077 H   0  0  0  0  0  0  0  0  0  0  0  0
   -5.8539    0.3285   -1.1100 H   0  0  0  0  0  0  0  0  0  0  0  0
   -1.7482    2.2620    0.7454 H   0  0  0  0  0  0  0  0  0  0  0  0
    0.8290   -0.9566    0.7499 H   0  0  0  0  0  0  0  0  0  0  0  0
    3.4336   -0.5201   -2.6957 H   0  0  0  0  0  0  0  0  0  0  0  0
    4.5585    1.6818   -2.7909 H   0  0  0  0  0  0  0  0  0  0  0  0
    4.6450    3.1248   -0.7735 H   0  0  0  0  0  0  0  0  0  0  0  0
    3.6216    2.3547    1.3492 H   0  0  0  0  0  0  0  0  0  0  0  0
    2.5170    0.1639    1.4763 H   0  0  0  0  0  0  0  0  0  0  0  0
  1  2  2  0
  2  3  1  0
  3  4  1  0
  4  5  1  0
  5  6  2  0
  5  7  1  0
  7  8  2  0
  8  9  1  0
  9 10  2  0
 10 11  1  0
 10 12  1  0
 12 13  2  0
  2 14  1  0
 14 15  1  0
 15 16  2  0
 15 17  1  0
 17 18  2  0
 18 19  1  0
 19 20  2  0
 20 21  1  0
 21 22  2  0
 13  7  1  0
 22 17  1  0
  3 23  1  0
  3 24  1  0
  8 25  1  0
  9 26  1  0
 13 27  1  0
 14 28  1  0
 18 29  1  0
 19 30  1  0
 20 31  1  0
 21 32  1  0
 22 33  1  0
M  END
$$$$
