
     RDKit          3D

 70 75  0  0  0  0  0  0  0  0999 V2000
   -4.0211   -2.1771   -4.3335 C   0  0  0  0  0  0  0  0  0  0  0  0
   -3.1953   -1.3053   -3.4352 C   0  0  0  0  0  0  0  0  0  0  0  0
   -3.7509   -0.1703   -2.8354 C   0  0  0  0  0  0  0  0  0  0  0  0
   -2.9720    0.6515   -2.0176 C   0  0  0  0  0  0  0  0  0  0  0  0
   -1.6186    0.3613   -1.7918 C   0  0  0  0  0  0  0  0  0  0  0  0
   -0.7884    1.2347   -0.8721 C   0  0  0  0  0  0  0  0  0  0  0  0
   -0.9454    0.8568    0.5320 N   0  0  0  0  0  0  0  0  0  0  0  0
   -2.0152    1.4373    1.2274 C   0  0  0  0  0  0  0  0  0  0  0  0
   -2.5736    2.4659    0.8332 O   0  0  0  0  0  0  0  0  0  0  0  0
   -2.3707    0.8002    2.5873 C   0  0  0  0  0  0  0  0  0  0  0  0
   -3.8226    1.1086    3.0071 C   0  0  0  0  0  0  0  0  0  0  0  0
   -4.9079    0.5633    2.1007 C   0  0  0  0  0  0  0  0  0  0  0  0
   -5.5382    1.3975    1.1662 C   0  0  0  0  0  0  0  0  0  0  0  0
   -6.5323    0.8984    0.3226 C   0  0  0  0  0  0  0  0  0  0  0  0
   -6.9107   -0.4395    0.4053 C   0  0  0  0  0  0  0  0  0  0  0  0
   -6.2961   -1.2782    1.3323 C   0  0  0  0  0  0  0  0  0  0  0  0
   -5.3011   -0.7798    2.1754 C   0  0  0  0  0  0  0  0  0  0  0  0
   -2.1230   -0.6401    2.6086 N   0  0  0  0  0  0  0  0  0  0  0  0
   -0.8785   -1.0099    2.1089 C   0  0  0  0  0  0  0  0  0  0  0  0
   -0.3610   -2.1143    2.6645 N   0  0  0  0  0  0  0  0  0  0  0  0
    0.7975   -2.5318    2.1534 C   0  0  0  0  0  0  0  0  0  0  0  0
    1.4998   -1.9226    1.1933 N   0  0  0  0  0  0  0  0  0  0  0  0
    0.9850   -0.7857    0.6728 C   0  0  0  0  0  0  0  0  0  0  0  0
    1.8354   -0.0403   -0.1790 N   0  0  0  0  0  0  0  0  0  0  0  0
    2.4682    1.0621    0.6011 C   0  0  0  0  0  0  0  0  0  0  0  0
    3.8053    1.5359   -0.0161 C   0  0  0  0  0  0  0  0  0  0  0  0
    4.7734    0.4279   -0.1066 N   0  0  0  0  0  0  0  0  0  0  0  0
    6.1360    0.6349    0.0215 C   0  0  0  0  0  0  0  0  0  0  0  0
    7.0138   -0.3997    0.3862 C   0  0  0  0  0  0  0  0  0  0  0  0
    8.3941   -0.1942    0.5157 C   0  0  0  0  0  0  0  0  0  0  0  0
    8.9370    1.0622    0.2793 C   0  0  0  0  0  0  0  0  0  0  0  0
    8.0979    2.1069   -0.0880 C   0  0  0  0  0  0  0  0  0  0  0  0
    6.7198    1.8910   -0.2137 C   0  0  0  0  0  0  0  0  0  0  0  0
    4.2057   -0.9263   -0.2608 C   0  0  0  0  0  0  0  0  0  0  0  0
    2.8122   -0.8740   -0.9250 C   0  0  0  0  0  0  0  0  0  0  0  0
   -0.2709   -0.2966    1.0709 C   0  0  0  0  0  0  0  0  0  0  0  0
   -1.0627   -0.7702   -2.4031 C   0  0  0  0  0  0  0  0  0  0  0  0
   -1.8423   -1.5925   -3.2209 C   0  0  0  0  0  0  0  0  0  0  0  0
   -3.7786   -3.2342   -4.1778 H   0  0  0  0  0  0  0  0  0  0  0  0
   -3.8335   -1.9185   -5.3806 H   0  0  0  0  0  0  0  0  0  0  0  0
   -5.0905   -2.0561   -4.1293 H   0  0  0  0  0  0  0  0  0  0  0  0
   -4.7986    0.0792   -2.9895 H   0  0  0  0  0  0  0  0  0  0  0  0
   -3.4340    1.5185   -1.5473 H   0  0  0  0  0  0  0  0  0  0  0  0
   -1.1138    2.2748   -1.0058 H   0  0  0  0  0  0  0  0  0  0  0  0
    0.2501    1.2500   -1.1980 H   0  0  0  0  0  0  0  0  0  0  0  0
   -1.7095    1.2752    3.3256 H   0  0  0  0  0  0  0  0  0  0  0  0
   -3.9972    0.7125    4.0167 H   0  0  0  0  0  0  0  0  0  0  0  0
   -3.9504    2.1952    3.0986 H   0  0  0  0  0  0  0  0  0  0  0  0
   -5.2484    2.4433    1.0794 H   0  0  0  0  0  0  0  0  0  0  0  0
   -7.0077    1.5543   -0.4010 H   0  0  0  0  0  0  0  0  0  0  0  0
   -7.6819   -0.8285   -0.2535 H   0  0  0  0  0  0  0  0  0  0  0  0
   -6.5866   -2.3233    1.3967 H   0  0  0  0  0  0  0  0  0  0  0  0
   -4.8285   -1.4535    2.8859 H   0  0  0  0  0  0  0  0  0  0  0  0
   -2.2999   -1.1383    3.4739 H   0  0  0  0  0  0  0  0  0  0  0  0
    1.2181   -3.4426    2.5660 H   0  0  0  0  0  0  0  0  0  0  0  0
    2.6689    0.7438    1.6342 H   0  0  0  0  0  0  0  0  0  0  0  0
    1.7807    1.9144    0.6461 H   0  0  0  0  0  0  0  0  0  0  0  0
    3.6317    1.9441   -1.0190 H   0  0  0  0  0  0  0  0  0  0  0  0
    4.1856    2.3437    0.6202 H   0  0  0  0  0  0  0  0  0  0  0  0
    6.6349   -1.3948    0.6023 H   0  0  0  0  0  0  0  0  0  0  0  0
    9.0375   -1.0208    0.8061 H   0  0  0  0  0  0  0  0  0  0  0  0
   10.0067    1.2264    0.3790 H   0  0  0  0  0  0  0  0  0  0  0  0
    8.5100    3.0925   -0.2863 H   0  0  0  0  0  0  0  0  0  0  0  0
    6.1099    2.7325   -0.5294 H   0  0  0  0  0  0  0  0  0  0  0  0
    4.8497   -1.5393   -0.9034 H   0  0  0  0  0  0  0  0  0  0  0  0
    4.1440   -1.4063    0.7224 H   0  0  0  0  0  0  0  0  0  0  0  0
    2.4342   -1.8868   -1.1131 H   0  0  0  0  0  0  0  0  0  0  0  0
    2.9204   -0.4179   -1.9179 H   0  0  0  0  0  0  0  0  0  0  0  0
   -0.0176   -1.0224   -2.2431 H   0  0  0  0  0  0  0  0  0  0  0  0
   -1.3881   -2.4648   -3.6847 H   0  0  0  0  0  0  0  0  0  0  0  0
  1  2  1  0
  2  3  2  0
  3  4  1  0
  4  5  2  0
  5  6  1  0
  6  7  1  0
  7  8  1  0
  8  9  2  0
  8 10  1  0
 10 11  1  0
 11 12  1  0
 12 13  2  0
 13 14  1  0
 14 15  2  0
 15 16  1  0
 16 17  2  0
 10 18  1  0
 18 19  1  0
 19 20  2  0
 20 21  1  0
 21 22  2  0
 22 23  1  0
 23 24  1  0
 24 25  1  0
 25 26  1  0
 26 27  1  0
 27 28  1  0
 28 29  2  0
 29 30  1  0
 30 31  2  0
 31 32  1  0
 32 33  2  0
 27 34  1  0
 34 35  1  0
 23 36  2  0
  5 37  1  0
 37 38  2  0
 38  2  1  0
 36  7  1  0
 17 12  1  0
 36 19  1  0
 35 24  1  0
 33 28  1  0
  1 39  1  0
  1 40  1  0
  1 41  1  0
  3 42  1  0
  4 43  1  0
  6 44  1  0
  6 45  1  0
 10 46  1  0
 11 47  1  0
 11 48  1  0
 13 49  1  0
 14 50  1  0
 15 51  1  0
 16 52  1  0
 17 53  1  0
 18 54  1  0
 21 55  1  0
 25 56  1  0
 25 57  1  0
 26 58  1  0
 26 59  1  0
 29 60  1  0
 30 61  1  0
 31 62  1  0
 32 63  1  0
 33 64  1  0
 34 65  1  0
 34 66  1  0
 35 67  1  0
 35 68  1  0
 37 69  1  0
 38 70  1  0
M  END
$$$$
