
     RDKit          3D

 45 47  0  0  0  0  0  0  0  0999 V2000
    2.8309   -1.2008    3.4433 C   0  0  0  0  0  0  0  0  0  0  0  0
    3.1622   -1.2677    1.9789 C   0  0  0  0  0  0  0  0  0  0  0  0
    4.3081   -1.9798    1.5726 C   0  0  0  0  0  0  0  0  0  0  0  0
    4.6619   -2.0796    0.2301 C   0  0  0  0  0  0  0  0  0  0  0  0
    3.8857   -1.4742   -0.7583 C   0  0  0  0  0  0  0  0  0  0  0  0
    2.7446   -0.7624   -0.3585 C   0  0  0  0  0  0  0  0  0  0  0  0
    1.5984    0.0697   -1.3336 S   0  0  0  0  0  0  0  0  0  0  0  0
    0.7469    0.5600    0.0671 C   0  0  0  0  0  0  0  0  0  0  0  0
   -0.4489    1.2716   -0.0275 N   0  0  0  0  0  0  0  0  0  0  0  0
   -1.4676    1.0855    1.0096 C   0  0  0  0  0  0  0  0  0  0  0  0
   -2.1241   -0.3020    1.0156 C   0  0  0  0  0  0  0  0  0  0  0  0
   -2.9420   -0.5830   -0.2516 C   0  0  0  0  0  0  0  0  0  0  0  0
   -3.5495   -1.9283   -0.2506 N   0  0  0  0  0  0  0  0  0  0  0  0
   -4.0509   -2.2436   -1.5926 C   0  0  0  0  0  0  0  0  0  0  0  0
   -4.6448   -2.0366    0.7157 C   0  0  0  0  0  0  0  0  0  0  0  0
   -0.7886    2.0697   -1.1311 C   0  0  0  0  0  0  0  0  0  0  0  0
   -1.9669    2.1664   -1.4844 O   0  0  0  0  0  0  0  0  0  0  0  0
    0.2535    2.8981   -1.7377 C   0  0  0  0  0  0  0  0  0  0  0  0
    1.3500    3.5132   -1.1515 C   0  0  0  0  0  0  0  0  0  0  0  0
    2.1258    4.2545   -2.0931 C   0  0  0  0  0  0  0  0  0  0  0  0
    1.5733    4.1903   -3.3450 C   0  0  0  0  0  0  0  0  0  0  0  0
    2.1763    4.9367   -4.7687 Cl  0  0  0  0  0  0  0  0  0  0  0  0
    0.1536    3.2758   -3.4121 S   0  0  0  0  0  0  0  0  0  0  0  0
    1.2157    0.0918    1.1997 N   0  0  0  0  0  0  0  0  0  0  0  0
    2.3710   -0.6458    0.9813 C   0  0  0  0  0  0  0  0  0  0  0  0
    2.6742   -2.2093    3.8394 H   0  0  0  0  0  0  0  0  0  0  0  0
    1.9203   -0.6219    3.6251 H   0  0  0  0  0  0  0  0  0  0  0  0
    3.6493   -0.7239    3.9922 H   0  0  0  0  0  0  0  0  0  0  0  0
    4.9322   -2.4668    2.3207 H   0  0  0  0  0  0  0  0  0  0  0  0
    5.5512   -2.6390   -0.0529 H   0  0  0  0  0  0  0  0  0  0  0  0
    4.1570   -1.5559   -1.8065 H   0  0  0  0  0  0  0  0  0  0  0  0
   -0.9888    1.2638    1.9808 H   0  0  0  0  0  0  0  0  0  0  0  0
   -2.2418    1.8563    0.9114 H   0  0  0  0  0  0  0  0  0  0  0  0
   -1.3618   -1.0804    1.1398 H   0  0  0  0  0  0  0  0  0  0  0  0
   -2.7709   -0.3485    1.8987 H   0  0  0  0  0  0  0  0  0  0  0  0
   -2.2593   -0.5171   -1.1075 H   0  0  0  0  0  0  0  0  0  0  0  0
   -3.7088    0.1901   -0.3889 H   0  0  0  0  0  0  0  0  0  0  0  0
   -3.2343   -2.2294   -2.3232 H   0  0  0  0  0  0  0  0  0  0  0  0
   -4.4722   -3.2549   -1.6191 H   0  0  0  0  0  0  0  0  0  0  0  0
   -4.8227   -1.5383   -1.9219 H   0  0  0  0  0  0  0  0  0  0  0  0
   -5.4296   -1.2927    0.5370 H   0  0  0  0  0  0  0  0  0  0  0  0
   -5.1012   -3.0322    0.6682 H   0  0  0  0  0  0  0  0  0  0  0  0
   -4.2839   -1.9223    1.7421 H   0  0  0  0  0  0  0  0  0  0  0  0
    1.5885    3.4383   -0.0962 H   0  0  0  0  0  0  0  0  0  0  0  0
    3.0281    4.8045   -1.8566 H   0  0  0  0  0  0  0  0  0  0  0  0
  1  2  1  0
  2  3  2  0
  3  4  1  0
  4  5  2  0
  5  6  1  0
  6  7  1  0
  7  8  1  0
  8  9  1  0
  9 10  1  0
 10 11  1  0
 11 12  1  0
 12 13  1  0
 13 14  1  0
 13 15  1  0
  9 16  1  0
 16 17  2  0
 16 18  1  0
 18 19  2  0
 19 20  1  0
 20 21  2  0
 21 22  1  0
 21 23  1  0
  8 24  2  0
 24 25  1  0
 25  2  1  0
 25  6  2  0
 23 18  1  0
  1 26  1  0
  1 27  1  0
  1 28  1  0
  3 29  1  0
  4 30  1  0
  5 31  1  0
 10 32  1  0
 10 33  1  0
 11 34  1  0
 11 35  1  0
 12 36  1  0
 12 37  1  0
 14 38  1  0
 14 39  1  0
 14 40  1  0
 15 41  1  0
 15 42  1  0
 15 43  1  0
 19 44  1  0
 20 45  1  0
M  END
$$$$
