
     RDKit          3D

 56 60  0  0  0  0  0  0  0  0999 V2000
    7.5597   -0.9128   -2.5468 C   0  0  0  0  0  0  0  0  0  0  0  0
    6.3072   -0.4601   -1.8942 C   0  0  0  0  0  0  0  0  0  0  0  0
    5.8843   -1.0480   -0.7682 N   0  0  0  0  0  0  0  0  0  0  0  0
    4.7288   -0.4115   -0.4691 N   0  0  0  0  0  0  0  0  0  0  0  0
    3.9965   -0.8154    0.7277 C   0  0  0  0  0  0  0  0  0  0  0  0
    2.8004   -1.6764    0.3979 C   0  0  0  0  0  0  0  0  0  0  0  0
    2.9768   -2.9549   -0.1556 C   0  0  0  0  0  0  0  0  0  0  0  0
    1.8787   -3.7699   -0.4336 C   0  0  0  0  0  0  0  0  0  0  0  0
    0.5878   -3.3153   -0.1689 C   0  0  0  0  0  0  0  0  0  0  0  0
    0.3917   -2.0381    0.3653 C   0  0  0  0  0  0  0  0  0  0  0  0
   -1.0006   -1.5852    0.6326 C   0  0  0  0  0  0  0  0  0  0  0  0
   -1.8518   -2.4033    0.9546 O   0  0  0  0  0  0  0  0  0  0  0  0
   -1.2309   -0.2356    0.4528 N   0  0  0  0  0  0  0  0  0  0  0  0
   -2.5491    0.4000    0.5671 C   0  0  0  0  0  0  0  0  0  0  0  0
   -2.3736    1.9259    0.3362 C   0  0  0  0  0  0  0  0  0  0  0  0
   -3.7214    2.6580    0.4332 C   0  0  0  0  0  0  0  0  0  0  0  0
   -4.3182    2.4314    1.8306 C   0  0  0  0  0  0  0  0  0  0  0  0
   -4.5240    0.9285    2.0746 C   0  0  0  0  0  0  0  0  0  0  0  0
   -5.4771    0.3666    1.0058 C   0  0  0  0  0  0  0  0  0  0  0  0
   -4.8887    0.5882   -0.3981 C   0  0  0  0  0  0  0  0  0  0  0  0
   -4.6789    2.0932   -0.6279 C   0  0  0  0  0  0  0  0  0  0  0  0
   -3.5344   -0.1361   -0.5001 C   0  0  0  0  0  0  0  0  0  0  0  0
   -3.1685    0.2058    1.9747 C   0  0  0  0  0  0  0  0  0  0  0  0
    1.4966   -1.2265    0.6627 C   0  0  0  0  0  0  0  0  0  0  0  0
    4.4147    0.5937   -1.3553 C   0  0  0  0  0  0  0  0  0  0  0  0
    3.2084    1.4472   -1.2417 C   0  0  0  0  0  0  0  0  0  0  0  0
    5.4237    0.5620   -2.2899 C   0  0  0  0  0  0  0  0  0  0  0  0
    5.6270    1.6421   -3.8062 Br  0  0  0  0  0  0  0  0  0  0  0  0
    8.2862   -0.0949   -2.5907 H   0  0  0  0  0  0  0  0  0  0  0  0
    8.0208   -1.7428   -2.0007 H   0  0  0  0  0  0  0  0  0  0  0  0
    7.3577   -1.2545   -3.5674 H   0  0  0  0  0  0  0  0  0  0  0  0
    4.6845   -1.3626    1.3832 H   0  0  0  0  0  0  0  0  0  0  0  0
    3.7079    0.0984    1.2577 H   0  0  0  0  0  0  0  0  0  0  0  0
    3.9799   -3.3261   -0.3682 H   0  0  0  0  0  0  0  0  0  0  0  0
    2.0305   -4.7620   -0.8531 H   0  0  0  0  0  0  0  0  0  0  0  0
   -0.2658   -3.9564   -0.3807 H   0  0  0  0  0  0  0  0  0  0  0  0
   -0.5308    0.2745   -0.0683 H   0  0  0  0  0  0  0  0  0  0  0  0
   -1.9255    2.1097   -0.6498 H   0  0  0  0  0  0  0  0  0  0  0  0
   -1.6719    2.3403    1.0727 H   0  0  0  0  0  0  0  0  0  0  0  0
   -3.5732    3.7304    0.2642 H   0  0  0  0  0  0  0  0  0  0  0  0
   -3.6513    2.8474    2.5956 H   0  0  0  0  0  0  0  0  0  0  0  0
   -5.2748    2.9607    1.9202 H   0  0  0  0  0  0  0  0  0  0  0  0
   -4.9525    0.7717    3.0707 H   0  0  0  0  0  0  0  0  0  0  0  0
   -6.4553    0.8571    1.0826 H   0  0  0  0  0  0  0  0  0  0  0  0
   -5.6434   -0.7040    1.1776 H   0  0  0  0  0  0  0  0  0  0  0  0
   -5.5764    0.1924   -1.1537 H   0  0  0  0  0  0  0  0  0  0  0  0
   -4.2704    2.2661   -1.6313 H   0  0  0  0  0  0  0  0  0  0  0  0
   -5.6417    2.6171   -0.5812 H   0  0  0  0  0  0  0  0  0  0  0  0
   -3.1137   -0.0013   -1.5049 H   0  0  0  0  0  0  0  0  0  0  0  0
   -3.6939   -1.2138   -0.3768 H   0  0  0  0  0  0  0  0  0  0  0  0
   -3.3192   -0.8566    2.1972 H   0  0  0  0  0  0  0  0  0  0  0  0
   -2.4837    0.5864    2.7437 H   0  0  0  0  0  0  0  0  0  0  0  0
    1.3447   -0.2553    1.1272 H   0  0  0  0  0  0  0  0  0  0  0  0
    2.3156    0.8883   -1.5389 H   0  0  0  0  0  0  0  0  0  0  0  0
    3.0709    1.8069   -0.2180 H   0  0  0  0  0  0  0  0  0  0  0  0
    3.2797    2.3296   -1.8857 H   0  0  0  0  0  0  0  0  0  0  0  0
  1  2  1  0
  2  3  2  0
  3  4  1  0
  4  5  1  0
  5  6  1  0
  6  7  2  0
  7  8  1  0
  8  9  2  0
  9 10  1  0
 10 11  1  0
 11 12  2  0
 11 13  1  0
 13 14  1  0
 14 15  1  0
 15 16  1  0
 16 17  1  0
 17 18  1  0
 18 19  1  0
 19 20  1  0
 20 21  1  0
 20 22  1  0
 18 23  1  0
 10 24  2  0
  4 25  1  0
 25 26  1  0
 25 27  2  0
 27 28  1  0
 27  2  1  0
 24  6  1  0
 22 14  1  0
 23 14  1  0
 21 16  1  0
  1 29  1  0
  1 30  1  0
  1 31  1  0
  5 32  1  0
  5 33  1  0
  7 34  1  0
  8 35  1  0
  9 36  1  0
 13 37  1  0
 15 38  1  0
 15 39  1  0
 16 40  1  0
 17 41  1  0
 17 42  1  0
 18 43  1  0
 19 44  1  0
 19 45  1  0
 20 46  1  0
 21 47  1  0
 21 48  1  0
 22 49  1  0
 22 50  1  0
 23 51  1  0
 23 52  1  0
 24 53  1  0
 26 54  1  0
 26 55  1  0
 26 56  1  0
M  END
$$$$
