
     RDKit          3D

 52 55  0  0  0  0  0  0  0  0999 V2000
   -2.6185    0.1426   -0.5906 O   0  0  0  0  0  0  0  0  0  0  0  0
   -1.4934    0.0527   -0.0982 C   0  0  0  0  0  0  0  0  0  0  0  0
   -1.0677   -1.1284    0.4875 N   0  0  0  0  0  0  0  0  0  0  0  0
   -1.8372   -2.3482    0.3838 C   0  0  0  0  0  0  0  0  0  0  0  0
   -1.3705   -3.4189    1.3614 C   0  0  0  0  0  0  0  0  0  0  0  0
   -1.9924   -4.6904    0.8039 C   0  0  0  0  0  0  0  0  0  0  0  0
   -2.0091   -4.5044   -0.7131 C   0  0  0  0  0  0  0  0  0  0  0  0
   -1.6793   -3.0349   -0.9713 C   0  0  0  0  0  0  0  0  0  0  0  0
   -0.5139    1.2695    0.0251 C   0  0  0  0  0  0  0  0  0  0  0  0
   -0.4585    2.2677   -1.1412 C   0  0  0  0  0  0  0  0  0  0  0  0
    0.4483    3.3406   -1.0826 C   0  0  0  0  0  0  0  0  0  0  0  0
    0.4966    4.2572   -2.1228 C   0  0  0  0  0  0  0  0  0  0  0  0
   -0.2949    4.1966   -3.2106 N   0  0  0  0  0  0  0  0  0  0  0  0
   -1.1718    3.1743   -3.2557 C   0  0  0  0  0  0  0  0  0  0  0  0
   -1.2900    2.2061   -2.2663 C   0  0  0  0  0  0  0  0  0  0  0  0
    0.8374    0.8387    0.4926 N   0  0  0  0  0  0  0  0  0  0  0  0
    1.0739    0.7710    1.8884 C   0  0  0  0  0  0  0  0  0  0  0  0
    1.6467   -0.2008    2.3876 O   0  0  0  0  0  0  0  0  0  0  0  0
    0.5932    1.8529    2.7341 C   0  0  0  0  0  0  0  0  0  0  0  0
    0.3728    1.8889    4.1000 C   0  0  0  0  0  0  0  0  0  0  0  0
   -0.0564    3.2000    4.4140 C   0  0  0  0  0  0  0  0  0  0  0  0
   -0.0491    3.8961    3.2295 C   0  0  0  0  0  0  0  0  0  0  0  0
    0.3538    3.0957    2.2104 O   0  0  0  0  0  0  0  0  0  0  0  0
    1.7564    0.1879   -0.4222 C   0  0  0  0  0  0  0  0  0  0  0  0
    3.1023    0.0050   -0.0582 C   0  0  0  0  0  0  0  0  0  0  0  0
    4.0209   -0.6002   -0.9234 C   0  0  0  0  0  0  0  0  0  0  0  0
    3.6156   -1.0312   -2.1797 C   0  0  0  0  0  0  0  0  0  0  0  0
    2.2938   -0.8520   -2.5694 C   0  0  0  0  0  0  0  0  0  0  0  0
    1.3767   -0.2456   -1.7019 C   0  0  0  0  0  0  0  0  0  0  0  0
   -0.0818   -1.2155    0.7185 H   0  0  0  0  0  0  0  0  0  0  0  0
   -2.8958   -2.1165    0.5586 H   0  0  0  0  0  0  0  0  0  0  0  0
   -0.2765   -3.5029    1.3610 H   0  0  0  0  0  0  0  0  0  0  0  0
   -1.6890   -3.2148    2.3885 H   0  0  0  0  0  0  0  0  0  0  0  0
   -1.4393   -5.5851    1.1038 H   0  0  0  0  0  0  0  0  0  0  0  0
   -3.0199   -4.7964    1.1719 H   0  0  0  0  0  0  0  0  0  0  0  0
   -1.2730   -5.1531   -1.2000 H   0  0  0  0  0  0  0  0  0  0  0  0
   -2.9930   -4.7649   -1.1179 H   0  0  0  0  0  0  0  0  0  0  0  0
   -0.6474   -2.9484   -1.3352 H   0  0  0  0  0  0  0  0  0  0  0  0
   -2.3286   -2.5964   -1.7360 H   0  0  0  0  0  0  0  0  0  0  0  0
   -1.0046    1.8299    0.8282 H   0  0  0  0  0  0  0  0  0  0  0  0
    1.1250    3.4655   -0.2433 H   0  0  0  0  0  0  0  0  0  0  0  0
    1.1965    5.0875   -2.1026 H   0  0  0  0  0  0  0  0  0  0  0  0
   -1.8058    3.1477   -4.1376 H   0  0  0  0  0  0  0  0  0  0  0  0
   -2.0330    1.4293   -2.4066 H   0  0  0  0  0  0  0  0  0  0  0  0
    0.5076    1.0565    4.7782 H   0  0  0  0  0  0  0  0  0  0  0  0
   -0.3300    3.5914    5.3846 H   0  0  0  0  0  0  0  0  0  0  0  0
   -0.2870    4.9162    2.9591 H   0  0  0  0  0  0  0  0  0  0  0  0
    3.4790    0.3451    0.9035 H   0  0  0  0  0  0  0  0  0  0  0  0
    5.0542   -0.7283   -0.6100 H   0  0  0  0  0  0  0  0  0  0  0  0
    4.3271   -1.5002   -2.8542 H   0  0  0  0  0  0  0  0  0  0  0  0
    1.9692   -1.1833   -3.5534 H   0  0  0  0  0  0  0  0  0  0  0  0
    0.3610   -0.1520   -2.0703 H   0  0  0  0  0  0  0  0  0  0  0  0
  1  2  2  0
  2  3  1  0
  3  4  1  0
  4  5  1  0
  5  6  1  0
  6  7  1  0
  7  8  1  0
  2  9  1  0
  9 10  1  0
 10 11  2  0
 11 12  1  0
 12 13  2  0
 13 14  1  0
 14 15  2  0
  9 16  1  0
 16 17  1  0
 17 18  2  0
 17 19  1  0
 19 20  2  0
 20 21  1  0
 21 22  2  0
 22 23  1  0
 16 24  1  0
 24 25  2  0
 25 26  1  0
 26 27  2  0
 27 28  1  0
 28 29  2  0
  8  4  1  0
 15 10  1  0
 23 19  1  0
 29 24  1  0
  3 30  1  0
  4 31  1  0
  5 32  1  0
  5 33  1  0
  6 34  1  0
  6 35  1  0
  7 36  1  0
  7 37  1  0
  8 38  1  0
  8 39  1  0
  9 40  1  0
 11 41  1  0
 12 42  1  0
 14 43  1  0
 15 44  1  0
 20 45  1  0
 21 46  1  0
 22 47  1  0
 25 48  1  0
 26 49  1  0
 27 50  1  0
 28 51  1  0
 29 52  1  0
M  END
$$$$
