
     RDKit          3D

 49 51  0  0  0  0  0  0  0  0999 V2000
    2.0118    2.3291   -1.7002 N   0  0  0  0  0  0  0  0  0  0  0  0
    2.2612    1.9301   -0.4391 C   0  0  0  0  0  0  0  0  0  0  0  0
    3.3531    2.2514    0.1875 N   0  0  0  0  0  0  0  0  0  0  0  0
    3.2177    1.5932    1.5176 C   0  0  0  0  0  0  0  0  0  0  0  0
    1.7686    1.0767    1.6016 C   0  0  0  0  0  0  0  0  0  0  0  0
    1.5945   -0.3232    2.2116 C   0  0  0  0  0  0  0  0  0  0  0  0
    2.5154   -1.4315    1.7471 C   0  0  0  0  0  0  0  0  0  0  0  0
    3.2846   -2.1375    2.6866 C   0  0  0  0  0  0  0  0  0  0  0  0
    4.1266   -3.1756    2.2835 C   0  0  0  0  0  0  0  0  0  0  0  0
    4.2019   -3.5185    0.9407 C   0  0  0  0  0  0  0  0  0  0  0  0
    5.0380   -4.5358    0.5889 O   0  0  0  0  0  0  0  0  0  0  0  0
    3.4428   -2.8429   -0.0074 C   0  0  0  0  0  0  0  0  0  0  0  0
    2.5983   -1.8053    0.3982 C   0  0  0  0  0  0  0  0  0  0  0  0
    1.3228    1.1768    0.2043 N   0  0  0  0  0  0  0  0  0  0  0  0
   -0.1143    1.3405   -0.0259 C   0  0  0  0  0  0  0  0  0  0  0  0
   -0.6229    0.3022   -1.0305 C   0  0  0  0  0  0  0  0  0  0  0  0
   -2.1081    0.4297   -1.2755 C   0  0  0  0  0  0  0  0  0  0  0  0
   -3.0120   -0.4193   -0.6234 C   0  0  0  0  0  0  0  0  0  0  0  0
   -4.3953   -0.2963   -0.8286 C   0  0  0  0  0  0  0  0  0  0  0  0
   -5.3595   -1.2317   -0.1361 C   0  0  0  0  0  0  0  0  0  0  0  0
   -4.8951   -1.6860    1.0614 F   0  0  0  0  0  0  0  0  0  0  0  0
   -6.5636   -0.6530    0.1275 F   0  0  0  0  0  0  0  0  0  0  0  0
   -5.6286   -2.3389   -0.8801 F   0  0  0  0  0  0  0  0  0  0  0  0
   -4.8661    0.6867   -1.7145 C   0  0  0  0  0  0  0  0  0  0  0  0
   -3.9773    1.5455   -2.3817 C   0  0  0  0  0  0  0  0  0  0  0  0
   -4.4962    2.6194   -3.3100 C   0  0  0  0  0  0  0  0  0  0  0  0
   -4.7541    3.7844   -2.6558 F   0  0  0  0  0  0  0  0  0  0  0  0
   -3.6218    2.9321   -4.3061 F   0  0  0  0  0  0  0  0  0  0  0  0
   -5.6576    2.2708   -3.9298 F   0  0  0  0  0  0  0  0  0  0  0  0
   -2.6001    1.4132   -2.1450 C   0  0  0  0  0  0  0  0  0  0  0  0
    2.8394    2.7825   -2.0766 H   0  0  0  0  0  0  0  0  0  0  0  0
    1.7367    1.5646   -2.2999 H   0  0  0  0  0  0  0  0  0  0  0  0
    3.4115    2.3248    2.3101 H   0  0  0  0  0  0  0  0  0  0  0  0
    3.9711    0.8044    1.5968 H   0  0  0  0  0  0  0  0  0  0  0  0
    1.1880    1.7904    2.2031 H   0  0  0  0  0  0  0  0  0  0  0  0
    0.5632   -0.6681    2.0606 H   0  0  0  0  0  0  0  0  0  0  0  0
    1.7112   -0.2129    3.2982 H   0  0  0  0  0  0  0  0  0  0  0  0
    3.2373   -1.8869    3.7443 H   0  0  0  0  0  0  0  0  0  0  0  0
    4.7222   -3.7137    3.0154 H   0  0  0  0  0  0  0  0  0  0  0  0
    5.0305   -4.6192   -0.3788 H   0  0  0  0  0  0  0  0  0  0  0  0
    3.4907   -3.1059   -1.0593 H   0  0  0  0  0  0  0  0  0  0  0  0
    2.0113   -1.2878   -0.3551 H   0  0  0  0  0  0  0  0  0  0  0  0
   -0.6657    1.2171    0.9152 H   0  0  0  0  0  0  0  0  0  0  0  0
   -0.3343    2.3601   -0.3663 H   0  0  0  0  0  0  0  0  0  0  0  0
   -0.0979    0.3897   -1.9888 H   0  0  0  0  0  0  0  0  0  0  0  0
   -0.3973   -0.7082   -0.6659 H   0  0  0  0  0  0  0  0  0  0  0  0
   -2.6391   -1.1874    0.0556 H   0  0  0  0  0  0  0  0  0  0  0  0
   -5.9397    0.7852   -1.8868 H   0  0  0  0  0  0  0  0  0  0  0  0
   -1.9036    2.0852   -2.6496 H   0  0  0  0  0  0  0  0  0  0  0  0
  1  2  1  0
  2  3  2  0
  3  4  1  0
  4  5  1  0
  5  6  1  0
  6  7  1  0
  7  8  2  0
  8  9  1  0
  9 10  2  0
 10 11  1  0
 10 12  1  0
 12 13  2  0
  5 14  1  0
 14 15  1  0
 15 16  1  0
 16 17  1  0
 17 18  2  0
 18 19  1  0
 19 20  1  0
 20 21  1  0
 20 22  1  0
 20 23  1  0
 19 24  2  0
 24 25  1  0
 25 26  1  0
 26 27  1  0
 26 28  1  0
 26 29  1  0
 25 30  2  0
 14  2  1  0
 30 17  1  0
 13  7  1  0
  1 31  1  0
  1 32  1  0
  4 33  1  0
  4 34  1  0
  5 35  1  0
  6 36  1  0
  6 37  1  0
  8 38  1  0
  9 39  1  0
 11 40  1  0
 12 41  1  0
 13 42  1  0
 15 43  1  0
 15 44  1  0
 16 45  1  0
 16 46  1  0
 18 47  1  0
 24 48  1  0
 30 49  1  0
M  END
$$$$
