
     RDKit          3D

 45 47  0  0  0  0  0  0  0  0999 V2000
    6.9829   -1.0636    1.5277 C   0  0  0  0  0  0  0  0  0  0  0  0
    6.3437   -0.4298    0.4291 O   0  0  0  0  0  0  0  0  0  0  0  0
    4.9738   -0.3472    0.4534 C   0  0  0  0  0  0  0  0  0  0  0  0
    4.1673   -0.8743    1.4647 C   0  0  0  0  0  0  0  0  0  0  0  0
    2.7753   -0.7433    1.4058 C   0  0  0  0  0  0  0  0  0  0  0  0
    2.1698   -0.0805    0.3405 C   0  0  0  0  0  0  0  0  0  0  0  0
    0.7735    0.0748    0.2080 N   0  0  0  0  0  0  0  0  0  0  0  0
   -0.1933   -0.1724    1.1586 C   0  0  0  0  0  0  0  0  0  0  0  0
    0.0325   -0.4389    2.3358 O   0  0  0  0  0  0  0  0  0  0  0  0
   -1.5000   -0.0722    0.6766 N   0  0  0  0  0  0  0  0  0  0  0  0
   -2.5935   -0.1472    1.6467 C   0  0  0  0  0  0  0  0  0  0  0  0
   -3.8178    0.6085    1.1524 C   0  0  0  0  0  0  0  0  0  0  0  0
   -4.3193    0.0359   -0.1775 C   0  0  0  0  0  0  0  0  0  0  0  0
   -3.2409   -0.7132   -0.9627 C   0  0  0  0  0  0  0  0  0  0  0  0
   -1.8722   -0.0868   -0.7415 C   0  0  0  0  0  0  0  0  0  0  0  0
   -5.4058   -0.8730    0.0870 O   0  0  0  0  0  0  0  0  0  0  0  0
   -6.4598   -0.4558   -0.7798 C   0  0  0  0  0  0  0  0  0  0  0  0
   -6.2291    1.0226   -0.9180 C   0  0  0  0  0  0  0  0  0  0  0  0
   -4.8072    1.1220   -0.9915 O   0  0  0  0  0  0  0  0  0  0  0  0
    2.9761    0.4406   -0.6813 C   0  0  0  0  0  0  0  0  0  0  0  0
    4.3717    0.3168   -0.6323 C   0  0  0  0  0  0  0  0  0  0  0  0
    5.2285    0.8018   -1.5904 O   0  0  0  0  0  0  0  0  0  0  0  0
    4.6701    1.5294   -2.6737 C   0  0  0  0  0  0  0  0  0  0  0  0
    8.0627   -1.0245    1.3542 H   0  0  0  0  0  0  0  0  0  0  0  0
    6.6961   -2.1181    1.5966 H   0  0  0  0  0  0  0  0  0  0  0  0
    6.7780   -0.5345    2.4643 H   0  0  0  0  0  0  0  0  0  0  0  0
    4.5850   -1.3989    2.3174 H   0  0  0  0  0  0  0  0  0  0  0  0
    2.1901   -1.1813    2.2092 H   0  0  0  0  0  0  0  0  0  0  0  0
    0.4611    0.5983   -0.5933 H   0  0  0  0  0  0  0  0  0  0  0  0
   -2.2674    0.2702    2.6059 H   0  0  0  0  0  0  0  0  0  0  0  0
   -2.8228   -1.2068    1.8116 H   0  0  0  0  0  0  0  0  0  0  0  0
   -3.5538    1.6672    1.0300 H   0  0  0  0  0  0  0  0  0  0  0  0
   -4.6058    0.5651    1.9136 H   0  0  0  0  0  0  0  0  0  0  0  0
   -3.2112   -1.7654   -0.6503 H   0  0  0  0  0  0  0  0  0  0  0  0
   -3.4755   -0.7121   -2.0340 H   0  0  0  0  0  0  0  0  0  0  0  0
   -1.1247   -0.6461   -1.3138 H   0  0  0  0  0  0  0  0  0  0  0  0
   -1.8585    0.9515   -1.0927 H   0  0  0  0  0  0  0  0  0  0  0  0
   -6.3377   -0.9744   -1.7368 H   0  0  0  0  0  0  0  0  0  0  0  0
   -7.4341   -0.7061   -0.3534 H   0  0  0  0  0  0  0  0  0  0  0  0
   -6.5644    1.5697   -0.0302 H   0  0  0  0  0  0  0  0  0  0  0  0
   -6.6940    1.4541   -1.8077 H   0  0  0  0  0  0  0  0  0  0  0  0
    2.4998    0.9448   -1.5140 H   0  0  0  0  0  0  0  0  0  0  0  0
    5.4932    1.8608   -3.3141 H   0  0  0  0  0  0  0  0  0  0  0  0
    4.1433    2.4224   -2.3216 H   0  0  0  0  0  0  0  0  0  0  0  0
    4.0142    0.8946   -3.2784 H   0  0  0  0  0  0  0  0  0  0  0  0
  1  2  1  0
  2  3  1  0
  3  4  2  0
  4  5  1  0
  5  6  2  0
  6  7  1  0
  7  8  1  0
  8  9  2  0
  8 10  1  0
 10 11  1  0
 11 12  1  0
 12 13  1  0
 13 14  1  0
 14 15  1  0
 13 16  1  0
 16 17  1  0
 17 18  1  0
 18 19  1  0
  6 20  1  0
 20 21  2  0
 21 22  1  0
 22 23  1  0
 21  3  1  0
 15 10  1  0
 19 13  1  0
  1 24  1  0
  1 25  1  0
  1 26  1  0
  4 27  1  0
  5 28  1  0
  7 29  1  0
 11 30  1  0
 11 31  1  0
 12 32  1  0
 12 33  1  0
 14 34  1  0
 14 35  1  0
 15 36  1  0
 15 37  1  0
 17 38  1  0
 17 39  1  0
 18 40  1  0
 18 41  1  0
 20 42  1  0
 23 43  1  0
 23 44  1  0
 23 45  1  0
M  END
$$$$
