
     RDKit          3D

 64 68  0  0  0  0  0  0  0  0999 V2000
   -2.0259    1.3684   -2.9871 C   0  0  0  0  0  0  0  0  0  0  0  0
   -3.0426    1.7909   -1.9149 C   0  0  0  0  0  0  0  0  0  0  0  0
   -2.5277    3.0829   -1.2530 C   0  0  0  0  0  0  0  0  0  0  0  0
   -4.3993    2.0754   -2.5749 C   0  0  0  0  0  0  0  0  0  0  0  0
   -3.2526    0.7379   -0.8032 C   0  0  0  0  0  0  0  0  0  0  0  0
   -3.7297    1.0365    0.2944 O   0  0  0  0  0  0  0  0  0  0  0  0
   -2.9579   -0.7007   -1.0656 C   0  0  0  0  0  0  0  0  0  0  0  0
   -3.8719   -1.3457   -1.9390 C   0  0  0  0  0  0  0  0  0  0  0  0
   -4.6273   -1.8243   -2.6781 N   0  0  0  0  0  0  0  0  0  0  0  0
   -1.8581   -1.2682   -0.5200 C   0  0  0  0  0  0  0  0  0  0  0  0
   -0.6365   -0.2928    0.2751 S   0  0  0  0  0  0  0  0  0  0  0  0
    0.5323   -1.5438    0.1412 C   0  0  0  0  0  0  0  0  0  0  0  0
    1.8504   -1.4501    0.3797 C   0  0  0  0  0  0  0  0  0  0  0  0
    2.5540   -0.2869    0.8122 C   0  0  0  0  0  0  0  0  0  0  0  0
    3.5595    0.3104    0.0901 C   0  0  0  0  0  0  0  0  0  0  0  0
    3.9351    1.4373    0.7865 N   0  0  0  0  0  0  0  0  0  0  0  0
    4.9024    2.4150    0.4160 C   0  0  0  0  0  0  0  0  0  0  0  0
    5.1042    3.5315    1.2430 C   0  0  0  0  0  0  0  0  0  0  0  0
    6.0383    4.5096    0.8937 C   0  0  0  0  0  0  0  0  0  0  0  0
    6.7788    4.3801   -0.2785 C   0  0  0  0  0  0  0  0  0  0  0  0
    6.5878    3.2732   -1.1035 C   0  0  0  0  0  0  0  0  0  0  0  0
    5.6524    2.2908   -0.7617 C   0  0  0  0  0  0  0  0  0  0  0  0
    3.2354    1.5581    1.9415 N   0  0  0  0  0  0  0  0  0  0  0  0
    2.4148    0.4979    1.9896 C   0  0  0  0  0  0  0  0  0  0  0  0
    1.5409    0.2947    3.1414 C   0  0  0  0  0  0  0  0  0  0  0  0
    0.9085    1.3730    3.7663 C   0  0  0  0  0  0  0  0  0  0  0  0
    0.0687    1.1491    4.8559 C   0  0  0  0  0  0  0  0  0  0  0  0
   -0.1104   -0.1540    5.2909 C   0  0  0  0  0  0  0  0  0  0  0  0
    0.4882   -1.2230    4.7228 N   0  0  0  0  0  0  0  0  0  0  0  0
    1.3056   -0.9711    3.6697 C   0  0  0  0  0  0  0  0  0  0  0  0
   -0.0833   -2.8208   -0.3080 C   0  0  0  0  0  0  0  0  0  0  0  0
    0.5465   -3.8709   -0.3426 O   0  0  0  0  0  0  0  0  0  0  0  0
   -1.4392   -2.6009   -0.6208 N   0  0  0  0  0  0  0  0  0  0  0  0
   -2.2807   -3.7408   -0.8302 C   0  0  0  0  0  0  0  0  0  0  0  0
   -1.8606   -4.8096   -1.6372 C   0  0  0  0  0  0  0  0  0  0  0  0
   -2.6860   -5.9205   -1.8325 C   0  0  0  0  0  0  0  0  0  0  0  0
   -3.9242   -5.9760   -1.2075 C   0  0  0  0  0  0  0  0  0  0  0  0
   -4.7159   -7.0395   -1.4037 F   0  0  0  0  0  0  0  0  0  0  0  0
   -4.3511   -4.9458   -0.3815 C   0  0  0  0  0  0  0  0  0  0  0  0
   -3.5274   -3.8334   -0.1856 C   0  0  0  0  0  0  0  0  0  0  0  0
   -1.8606    2.1734   -3.7132 H   0  0  0  0  0  0  0  0  0  0  0  0
   -2.3635    0.4938   -3.5538 H   0  0  0  0  0  0  0  0  0  0  0  0
   -1.0547    1.1230   -2.5436 H   0  0  0  0  0  0  0  0  0  0  0  0
   -3.2333    3.4587   -0.5029 H   0  0  0  0  0  0  0  0  0  0  0  0
   -1.5718    2.9114   -0.7451 H   0  0  0  0  0  0  0  0  0  0  0  0
   -2.3791    3.8802   -1.9909 H   0  0  0  0  0  0  0  0  0  0  0  0
   -5.1597    2.3383   -1.8296 H   0  0  0  0  0  0  0  0  0  0  0  0
   -4.7701    1.2018   -3.1219 H   0  0  0  0  0  0  0  0  0  0  0  0
   -4.3276    2.9054   -3.2873 H   0  0  0  0  0  0  0  0  0  0  0  0
    2.4661   -2.3320    0.2009 H   0  0  0  0  0  0  0  0  0  0  0  0
    3.9997    0.0491   -0.8598 H   0  0  0  0  0  0  0  0  0  0  0  0
    4.5373    3.6559    2.1642 H   0  0  0  0  0  0  0  0  0  0  0  0
    6.1854    5.3718    1.5389 H   0  0  0  0  0  0  0  0  0  0  0  0
    7.5077    5.1409   -0.5453 H   0  0  0  0  0  0  0  0  0  0  0  0
    7.1704    3.1738   -2.0164 H   0  0  0  0  0  0  0  0  0  0  0  0
    5.5435    1.4444   -1.4319 H   0  0  0  0  0  0  0  0  0  0  0  0
    1.0653    2.3869    3.4046 H   0  0  0  0  0  0  0  0  0  0  0  0
   -0.4325    1.9730    5.3513 H   0  0  0  0  0  0  0  0  0  0  0  0
   -0.7577   -0.3787    6.1338 H   0  0  0  0  0  0  0  0  0  0  0  0
    1.7864   -1.8565    3.2636 H   0  0  0  0  0  0  0  0  0  0  0  0
   -0.8962   -4.7886   -2.1412 H   0  0  0  0  0  0  0  0  0  0  0  0
   -2.3684   -6.7410   -2.4680 H   0  0  0  0  0  0  0  0  0  0  0  0
   -5.3169   -5.0169    0.1099 H   0  0  0  0  0  0  0  0  0  0  0  0
   -3.8652   -3.0621    0.5028 H   0  0  0  0  0  0  0  0  0  0  0  0
  1  2  1  0
  2  3  1  0
  2  4  1  0
  2  5  1  0
  5  6  2  0
  5  7  1  0
  7  8  1  0
  8  9  3  0
  7 10  2  3
 10 11  1  0
 11 12  1  0
 12 13  2  3
 13 14  1  0
 14 15  2  0
 15 16  1  0
 16 17  1  0
 17 18  2  0
 18 19  1  0
 19 20  2  0
 20 21  1  0
 21 22  2  0
 16 23  1  0
 23 24  2  0
 24 25  1  0
 25 26  2  0
 26 27  1  0
 27 28  2  0
 28 29  1  0
 29 30  2  0
 12 31  1  0
 31 32  2  0
 31 33  1  0
 33 34  1  0
 34 35  2  0
 35 36  1  0
 36 37  2  0
 37 38  1  0
 37 39  1  0
 39 40  2  0
 33 10  1  0
 40 34  1  0
 24 14  1  0
 30 25  1  0
 22 17  1  0
  1 41  1  0
  1 42  1  0
  1 43  1  0
  3 44  1  0
  3 45  1  0
  3 46  1  0
  4 47  1  0
  4 48  1  0
  4 49  1  0
 13 50  1  0
 15 51  1  0
 18 52  1  0
 19 53  1  0
 20 54  1  0
 21 55  1  0
 22 56  1  0
 26 57  1  0
 27 58  1  0
 28 59  1  0
 30 60  1  0
 35 61  1  0
 36 62  1  0
 39 63  1  0
 40 64  1  0
M  END
$$$$
