
     RDKit          3D

 54 57  0  0  0  0  0  0  0  0999 V2000
   -3.8162    5.7155    0.6582 C   0  0  0  0  0  0  0  0  0  0  0  0
   -3.1667    4.6632    1.3595 O   0  0  0  0  0  0  0  0  0  0  0  0
   -2.4300    3.7849    0.6142 C   0  0  0  0  0  0  0  0  0  0  0  0
   -1.8410    2.7507    1.3430 C   0  0  0  0  0  0  0  0  0  0  0  0
   -1.0598    1.7829    0.7069 C   0  0  0  0  0  0  0  0  0  0  0  0
   -0.8561    1.8281   -0.6796 C   0  0  0  0  0  0  0  0  0  0  0  0
    0.0128    0.8096   -1.4036 C   0  0  0  0  0  0  0  0  0  0  0  0
    1.4946    1.1693   -1.2771 C   0  0  0  0  0  0  0  0  0  0  0  0
    1.9732    0.0484   -0.3962 C   0  0  0  0  0  0  0  0  0  0  0  0
    3.3473    0.0227    0.1576 C   0  0  0  0  0  0  0  0  0  0  0  0
    4.2808    1.0139   -0.1579 C   0  0  0  0  0  0  0  0  0  0  0  0
    5.5658    0.9568    0.3851 C   0  0  0  0  0  0  0  0  0  0  0  0
    5.9252   -0.0876    1.2416 C   0  0  0  0  0  0  0  0  0  0  0  0
    5.0006   -1.0825    1.5599 C   0  0  0  0  0  0  0  0  0  0  0  0
    5.2241   -2.1539    2.3801 O   0  0  0  0  0  0  0  0  0  0  0  0
    6.5195   -2.2698    2.9543 C   0  0  0  0  0  0  0  0  0  0  0  0
    3.7145   -1.0217    1.0155 C   0  0  0  0  0  0  0  0  0  0  0  0
    1.1061   -0.8952   -0.1889 N   0  0  0  0  0  0  0  0  0  0  0  0
   -0.0494   -0.5319   -0.8199 N   0  0  0  0  0  0  0  0  0  0  0  0
   -1.1072   -1.4313   -0.9430 C   0  0  0  0  0  0  0  0  0  0  0  0
   -1.0204   -2.7217   -0.3862 C   0  0  0  0  0  0  0  0  0  0  0  0
   -2.0643   -3.6478   -0.4882 C   0  0  0  0  0  0  0  0  0  0  0  0
   -3.2348   -3.2864   -1.1496 C   0  0  0  0  0  0  0  0  0  0  0  0
   -4.5496   -4.4550   -1.3057 S   0  0  0  0  0  6  0  0  0  0  0  0
   -5.3931   -4.2256    0.1272 N   0  0  0  0  0  0  0  0  0  0  0  0
   -5.4433   -4.0327   -2.3597 O   0  0  0  0  0  0  0  0  0  0  0  0
   -4.0111   -5.7936   -1.2408 O   0  0  0  0  0  0  0  0  0  0  0  0
   -3.3550   -2.0224   -1.7235 C   0  0  0  0  0  0  0  0  0  0  0  0
   -2.2988   -1.1085   -1.6143 C   0  0  0  0  0  0  0  0  0  0  0  0
   -1.4453    2.8765   -1.4047 C   0  0  0  0  0  0  0  0  0  0  0  0
   -2.2281    3.8449   -0.7639 C   0  0  0  0  0  0  0  0  0  0  0  0
   -3.0881    6.3756    0.1754 H   0  0  0  0  0  0  0  0  0  0  0  0
   -4.5361    5.3221   -0.0672 H   0  0  0  0  0  0  0  0  0  0  0  0
   -4.3720    6.3112    1.3888 H   0  0  0  0  0  0  0  0  0  0  0  0
   -1.9931    2.6936    2.4183 H   0  0  0  0  0  0  0  0  0  0  0  0
   -0.6182    0.9855    1.3033 H   0  0  0  0  0  0  0  0  0  0  0  0
   -0.2608    0.7750   -2.4660 H   0  0  0  0  0  0  0  0  0  0  0  0
    1.6814    2.1502   -0.8313 H   0  0  0  0  0  0  0  0  0  0  0  0
    2.0004    1.0964   -2.2460 H   0  0  0  0  0  0  0  0  0  0  0  0
    4.0361    1.8363   -0.8228 H   0  0  0  0  0  0  0  0  0  0  0  0
    6.2925    1.7283    0.1407 H   0  0  0  0  0  0  0  0  0  0  0  0
    6.9335   -0.0951    1.6425 H   0  0  0  0  0  0  0  0  0  0  0  0
    6.5329   -3.1750    3.5693 H   0  0  0  0  0  0  0  0  0  0  0  0
    6.7387   -1.4191    3.6082 H   0  0  0  0  0  0  0  0  0  0  0  0
    7.2861   -2.3825    2.1804 H   0  0  0  0  0  0  0  0  0  0  0  0
    2.9970   -1.8003    1.2682 H   0  0  0  0  0  0  0  0  0  0  0  0
   -0.1144   -3.0172    0.1403 H   0  0  0  0  0  0  0  0  0  0  0  0
   -1.9497   -4.6355   -0.0492 H   0  0  0  0  0  0  0  0  0  0  0  0
   -5.3648   -5.0776    0.6872 H   0  0  0  0  0  0  0  0  0  0  0  0
   -6.3345   -3.8890   -0.0729 H   0  0  0  0  0  0  0  0  0  0  0  0
   -4.2605   -1.7342   -2.2521 H   0  0  0  0  0  0  0  0  0  0  0  0
   -2.4356   -0.1297   -2.0640 H   0  0  0  0  0  0  0  0  0  0  0  0
   -1.3020    2.9493   -2.4810 H   0  0  0  0  0  0  0  0  0  0  0  0
   -2.6633    4.6319   -1.3705 H   0  0  0  0  0  0  0  0  0  0  0  0
  1  2  1  0
  2  3  1  0
  3  4  2  0
  4  5  1  0
  5  6  2  0
  6  7  1  0
  7  8  1  0
  8  9  1  0
  9 10  1  0
 10 11  2  0
 11 12  1  0
 12 13  2  0
 13 14  1  0
 14 15  1  0
 15 16  1  0
 14 17  2  0
  9 18  2  0
 18 19  1  0
 19 20  1  0
 20 21  2  0
 21 22  1  0
 22 23  2  0
 23 24  1  0
 24 25  1  0
 24 26  2  0
 24 27  2  0
 23 28  1  0
 28 29  2  0
  6 30  1  0
 30 31  2  0
 31  3  1  0
 19  7  1  0
 29 20  1  0
 17 10  1  0
  1 32  1  0
  1 33  1  0
  1 34  1  0
  4 35  1  0
  5 36  1  0
  7 37  1  0
  8 38  1  0
  8 39  1  0
 11 40  1  0
 12 41  1  0
 13 42  1  0
 16 43  1  0
 16 44  1  0
 16 45  1  0
 17 46  1  0
 21 47  1  0
 22 48  1  0
 25 49  1  0
 25 50  1  0
 28 51  1  0
 29 52  1  0
 30 53  1  0
 31 54  1  0
M  END
$$$$
