
     RDKit          3D

 61 65  0  0  0  0  0  0  0  0999 V2000
   -7.0986   -2.5326    2.8148 C   0  0  0  0  0  0  0  0  0  0  0  0
   -6.5325   -1.7340    1.6783 C   0  0  0  0  0  0  0  0  0  0  0  0
   -5.5960   -0.7220    1.9165 C   0  0  0  0  0  0  0  0  0  0  0  0
   -5.0460   -0.0011    0.8540 C   0  0  0  0  0  0  0  0  0  0  0  0
   -5.4193   -0.2839   -0.4673 C   0  0  0  0  0  0  0  0  0  0  0  0
   -4.8155    0.4840   -1.6157 C   0  0  0  0  0  0  0  0  0  0  0  0
   -3.6553   -0.1934   -2.1550 N   0  0  0  0  0  0  0  0  0  0  0  0
   -3.7634   -1.0174   -3.2280 N   0  0  0  0  0  0  0  0  0  0  0  0
   -2.5448   -1.4783   -3.5110 N   0  0  0  0  0  0  0  0  0  0  0  0
   -1.6848   -0.9167   -2.6197 C   0  0  0  0  0  0  0  0  0  0  0  0
   -0.2647   -1.0555   -2.4633 C   0  0  0  0  0  0  0  0  0  0  0  0
    0.4724   -1.7568   -3.1475 O   0  0  0  0  0  0  0  0  0  0  0  0
    0.2251   -0.2866   -1.4130 N   0  0  0  0  0  0  0  0  0  0  0  0
   -0.5553    0.5267   -0.6024 C   0  0  0  0  0  0  0  0  0  0  0  0
    0.1404    1.3043    0.5163 C   0  0  0  0  0  0  0  0  0  0  0  0
    0.7713    0.3978    1.5764 C   0  0  0  0  0  0  0  0  0  0  0  0
    2.1823   -0.0684    1.2487 C   0  0  0  0  0  0  0  0  0  0  0  0
    3.0313    1.0407    0.7840 N   0  0  0  0  0  0  0  0  0  0  0  0
    4.0356    1.8102    1.9172 S   0  0  0  0  0  6  0  0  0  0  0  0
    4.7448    2.8764    1.2394 O   0  0  0  0  0  0  0  0  0  0  0  0
    3.1861    2.1271    3.0485 O   0  0  0  0  0  0  0  0  0  0  0  0
    5.2031    0.6440    2.4482 C   0  0  0  0  0  0  0  0  0  0  0  0
    5.8467   -0.2160    1.6416 C   0  0  0  0  0  0  0  0  0  0  0  0
    5.7050   -0.3705    0.1912 C   0  0  0  0  0  0  0  0  0  0  0  0
    6.1007    0.6379   -0.6936 C   0  0  0  0  0  0  0  0  0  0  0  0
    5.9384    0.4705   -2.0705 C   0  0  0  0  0  0  0  0  0  0  0  0
    5.3877   -0.7084   -2.5715 C   0  0  0  0  0  0  0  0  0  0  0  0
    5.0071   -1.7249   -1.6976 C   0  0  0  0  0  0  0  0  0  0  0  0
    5.1718   -1.5605   -0.3208 C   0  0  0  0  0  0  0  0  0  0  0  0
    2.4947    1.8476   -0.3234 C   0  0  0  0  0  0  0  0  0  0  0  0
    1.1061    2.3732    0.0003 C   0  0  0  0  0  0  0  0  0  0  0  0
   -1.8470    0.6601   -0.7436 N   0  0  0  0  0  0  0  0  0  0  0  0
   -2.3537   -0.0842   -1.7567 C   0  0  0  0  0  0  0  0  0  0  0  0
   -6.3393   -1.3141   -0.7049 C   0  0  0  0  0  0  0  0  0  0  0  0
   -6.8888   -2.0334    0.3587 C   0  0  0  0  0  0  0  0  0  0  0  0
   -7.0953   -1.9521    3.7436 H   0  0  0  0  0  0  0  0  0  0  0  0
   -8.1373   -2.8138    2.6114 H   0  0  0  0  0  0  0  0  0  0  0  0
   -6.5068   -3.4408    2.9655 H   0  0  0  0  0  0  0  0  0  0  0  0
   -5.2859   -0.4888    2.9330 H   0  0  0  0  0  0  0  0  0  0  0  0
   -4.3149    0.7777    1.0656 H   0  0  0  0  0  0  0  0  0  0  0  0
   -4.5084    1.4880   -1.3010 H   0  0  0  0  0  0  0  0  0  0  0  0
   -5.5442    0.6133   -2.4245 H   0  0  0  0  0  0  0  0  0  0  0  0
    1.2210   -0.3709   -1.2926 H   0  0  0  0  0  0  0  0  0  0  0  0
   -0.6748    1.8455    1.0211 H   0  0  0  0  0  0  0  0  0  0  0  0
    0.1357   -0.4768    1.7611 H   0  0  0  0  0  0  0  0  0  0  0  0
    0.8046    0.9566    2.5207 H   0  0  0  0  0  0  0  0  0  0  0  0
    2.6192   -0.5525    2.1289 H   0  0  0  0  0  0  0  0  0  0  0  0
    2.1684   -0.8435    0.4768 H   0  0  0  0  0  0  0  0  0  0  0  0
    5.4057    0.6529    3.5106 H   0  0  0  0  0  0  0  0  0  0  0  0
    6.5557   -0.9098    2.0902 H   0  0  0  0  0  0  0  0  0  0  0  0
    6.5284    1.5674   -0.3205 H   0  0  0  0  0  0  0  0  0  0  0  0
    6.2438    1.2616   -2.7507 H   0  0  0  0  0  0  0  0  0  0  0  0
    5.2636   -0.8387   -3.6439 H   0  0  0  0  0  0  0  0  0  0  0  0
    4.5882   -2.6486   -2.0906 H   0  0  0  0  0  0  0  0  0  0  0  0
    4.8749   -2.3648    0.3476 H   0  0  0  0  0  0  0  0  0  0  0  0
    3.1540    2.6859   -0.5689 H   0  0  0  0  0  0  0  0  0  0  0  0
    2.4858    1.2327   -1.2285 H   0  0  0  0  0  0  0  0  0  0  0  0
    0.6903    2.8702   -0.8845 H   0  0  0  0  0  0  0  0  0  0  0  0
    1.2050    3.1455    0.7750 H   0  0  0  0  0  0  0  0  0  0  0  0
   -6.6271   -1.5720   -1.7230 H   0  0  0  0  0  0  0  0  0  0  0  0
   -7.5955   -2.8335    0.1488 H   0  0  0  0  0  0  0  0  0  0  0  0
  1  2  1  0
  2  3  2  0
  3  4  1  0
  4  5  2  0
  5  6  1  0
  6  7  1  0
  7  8  1  0
  8  9  2  0
  9 10  1  0
 10 11  1  0
 11 12  2  0
 11 13  1  0
 13 14  1  0
 14 15  1  0
 15 16  1  0
 16 17  1  0
 17 18  1  0
 18 19  1  0
 19 20  2  0
 19 21  2  0
 19 22  1  0
 22 23  2  3
 23 24  1  0
 24 25  2  0
 25 26  1  0
 26 27  2  0
 27 28  1  0
 28 29  2  0
 18 30  1  0
 30 31  1  0
 14 32  2  0
 32 33  1  0
  5 34  1  0
 34 35  2  0
 35  2  1  0
 33  7  1  0
 33 10  2  0
 31 15  1  0
 29 24  1  0
  1 36  1  0
  1 37  1  0
  1 38  1  0
  3 39  1  0
  4 40  1  0
  6 41  1  0
  6 42  1  0
 13 43  1  0
 15 44  1  0
 16 45  1  0
 16 46  1  0
 17 47  1  0
 17 48  1  0
 22 49  1  0
 23 50  1  0
 25 51  1  0
 26 52  1  0
 27 53  1  0
 28 54  1  0
 29 55  1  0
 30 56  1  0
 30 57  1  0
 31 58  1  0
 31 59  1  0
 34 60  1  0
 35 61  1  0
M  END
$$$$
