
     RDKit          3D

 45 48  0  0  0  0  0  0  0  0999 V2000
    5.2951   -0.8351   -1.6157 O   0  0  0  0  0  0  0  0  0  0  0  0
    4.3043   -0.3385   -1.0931 C   0  0  0  0  0  0  0  0  0  0  0  0
    3.0344   -0.8834   -1.0465 N   0  0  0  0  0  0  0  0  0  0  0  0
    2.5988   -2.1500   -1.5233 C   0  0  0  0  0  0  0  0  0  0  0  0
    3.4913   -3.0744   -2.0838 C   0  0  0  0  0  0  0  0  0  0  0  0
    3.0495   -4.3147   -2.5514 C   0  0  0  0  0  0  0  0  0  0  0  0
    1.7068   -4.6550   -2.4646 C   0  0  0  0  0  0  0  0  0  0  0  0
    0.8023   -3.7542   -1.9049 C   0  0  0  0  0  0  0  0  0  0  0  0
    1.2254   -2.4973   -1.4252 C   0  0  0  0  0  0  0  0  0  0  0  0
    0.2455   -1.5860   -0.8329 C   0  0  0  0  0  0  0  0  0  0  0  0
    0.4203   -0.3986   -0.2831 N   0  0  0  0  0  0  0  0  0  0  0  0
   -0.8238    0.0337    0.1196 N   0  0  0  0  0  0  0  0  0  0  0  0
   -1.6793   -0.9130   -0.2100 C   0  0  0  0  0  0  0  0  0  0  0  0
   -3.3888   -0.8605    0.0775 S   0  0  0  0  0  0  0  0  0  0  0  0
   -3.5328    0.7716    0.8585 C   0  0  0  0  0  0  0  0  0  0  0  0
   -4.9657    1.0829    1.2189 C   0  0  0  0  0  0  0  0  0  0  0  0
   -5.8083    1.7254    0.2983 C   0  0  0  0  0  0  0  0  0  0  0  0
   -7.1378    2.0005    0.6268 C   0  0  0  0  0  0  0  0  0  0  0  0
   -7.6337    1.6305    1.8748 C   0  0  0  0  0  0  0  0  0  0  0  0
   -9.2716    1.9692    2.2787 Cl  0  0  0  0  0  0  0  0  0  0  0  0
   -6.8126    0.9857    2.7969 C   0  0  0  0  0  0  0  0  0  0  0  0
   -5.4829    0.7101    2.4694 C   0  0  0  0  0  0  0  0  0  0  0  0
   -1.0679   -1.9762   -0.8193 O   0  0  0  0  0  0  0  0  0  0  0  0
    4.4384    1.0105   -0.4653 C   0  0  0  0  0  0  0  0  0  0  0  0
    3.6670    1.4023    0.6379 C   0  0  0  0  0  0  0  0  0  0  0  0
    3.8317    2.6757    1.1891 C   0  0  0  0  0  0  0  0  0  0  0  0
    4.7696    3.5563    0.6507 C   0  0  0  0  0  0  0  0  0  0  0  0
    5.5520    3.1659   -0.4351 C   0  0  0  0  0  0  0  0  0  0  0  0
    5.3908    1.8949   -0.9894 C   0  0  0  0  0  0  0  0  0  0  0  0
    2.3005   -0.2825   -0.6800 H   0  0  0  0  0  0  0  0  0  0  0  0
    4.5523   -2.8614   -2.1726 H   0  0  0  0  0  0  0  0  0  0  0  0
    3.7638   -5.0116   -2.9837 H   0  0  0  0  0  0  0  0  0  0  0  0
    1.3639   -5.6202   -2.8291 H   0  0  0  0  0  0  0  0  0  0  0  0
   -0.2441   -4.0491   -1.8452 H   0  0  0  0  0  0  0  0  0  0  0  0
   -2.9139    0.8065    1.7628 H   0  0  0  0  0  0  0  0  0  0  0  0
   -3.1519    1.5432    0.1791 H   0  0  0  0  0  0  0  0  0  0  0  0
   -5.4351    2.0130   -0.6828 H   0  0  0  0  0  0  0  0  0  0  0  0
   -7.7797    2.4992   -0.0945 H   0  0  0  0  0  0  0  0  0  0  0  0
   -7.2008    0.6926    3.7687 H   0  0  0  0  0  0  0  0  0  0  0  0
   -4.8538    0.1991    3.1958 H   0  0  0  0  0  0  0  0  0  0  0  0
    2.9514    0.7264    1.0982 H   0  0  0  0  0  0  0  0  0  0  0  0
    3.2330    2.9782    2.0450 H   0  0  0  0  0  0  0  0  0  0  0  0
    4.8975    4.5456    1.0836 H   0  0  0  0  0  0  0  0  0  0  0  0
    6.2903    3.8482   -0.8490 H   0  0  0  0  0  0  0  0  0  0  0  0
    6.0085    1.5944   -1.8337 H   0  0  0  0  0  0  0  0  0  0  0  0
  1  2  2  0
  2  3  1  0
  3  4  1  0
  4  5  2  0
  5  6  1  0
  6  7  2  0
  7  8  1  0
  8  9  2  0
  9 10  1  0
 10 11  2  0
 11 12  1  0
 12 13  2  0
 13 14  1  0
 14 15  1  0
 15 16  1  0
 16 17  2  0
 17 18  1  0
 18 19  2  0
 19 20  1  0
 19 21  1  0
 21 22  2  0
 13 23  1  0
  2 24  1  0
 24 25  2  0
 25 26  1  0
 26 27  2  0
 27 28  1  0
 28 29  2  0
  9  4  1  0
 23 10  1  0
 29 24  1  0
 22 16  1  0
  3 30  1  0
  5 31  1  0
  6 32  1  0
  7 33  1  0
  8 34  1  0
 15 35  1  0
 15 36  1  0
 17 37  1  0
 18 38  1  0
 21 39  1  0
 22 40  1  0
 25 41  1  0
 26 42  1  0
 27 43  1  0
 28 44  1  0
 29 45  1  0
M  END
$$$$
