
     RDKit          3D

 80 84  0  0  0  0  0  0  0  0999 V2000
   -1.3272   -2.2719    2.6147 C   0  0  0  0  0  0  0  0  0  0  0  0
   -1.2203   -1.4739    1.4439 O   0  0  0  0  0  0  0  0  0  0  0  0
    0.0345   -1.2368    0.9446 C   0  0  0  0  0  0  0  0  0  0  0  0
    1.1489   -2.0175    1.2736 C   0  0  0  0  0  0  0  0  0  0  0  0
    2.4212   -1.7286    0.7586 C   0  0  0  0  0  0  0  0  0  0  0  0
    3.5164   -2.5006    1.0502 O   0  0  0  0  0  0  0  0  0  0  0  0
    3.5097   -3.2196    2.2764 C   0  0  0  0  0  0  0  0  0  0  0  0
    2.5956   -0.6474   -0.1259 C   0  0  0  0  0  0  0  0  0  0  0  0
    3.8988   -0.2595   -0.7253 C   0  0  0  0  0  0  0  0  0  0  0  0
    5.2107   -0.9064   -0.5123 C   0  0  0  0  0  0  0  0  0  0  0  0
    6.0565   -0.4680    0.5172 C   0  0  0  0  0  0  0  0  0  0  0  0
    7.3032   -1.0678    0.7040 C   0  0  0  0  0  0  0  0  0  0  0  0
    7.7135   -2.1043   -0.1349 C   0  0  0  0  0  0  0  0  0  0  0  0
    6.8793   -2.5427   -1.1642 C   0  0  0  0  0  0  0  0  0  0  0  0
    5.6313   -1.9459   -1.3542 C   0  0  0  0  0  0  0  0  0  0  0  0
    3.9439    0.7920   -1.5594 C   0  0  0  0  0  0  0  0  0  0  0  0
    2.7706    1.5888   -1.9145 C   0  0  0  0  0  0  0  0  0  0  0  0
    2.8552    2.5301   -2.6947 O   0  0  0  0  0  0  0  0  0  0  0  0
    1.5794    1.2128   -1.3325 O   0  0  0  0  0  0  0  0  0  0  0  0
    1.4580    0.1089   -0.4565 C   0  0  0  0  0  0  0  0  0  0  0  0
    0.1649   -0.1662    0.0402 C   0  0  0  0  0  0  0  0  0  0  0  0
   -1.0641    0.6654   -0.3621 C   0  0  0  0  0  0  0  0  0  0  0  0
   -1.3343    0.7022   -1.8923 C   0  0  0  0  0  0  0  0  0  0  0  0
   -1.5704   -0.6824   -2.5194 C   0  0  0  0  0  0  0  0  0  0  0  0
   -2.7899   -1.3456   -2.0412 N   0  0  0  0  0  0  0  0  0  0  0  0
   -4.0159   -0.6533   -2.4735 C   0  0  0  0  0  0  0  0  0  0  0  0
   -5.1761   -1.5838   -2.8490 C   0  0  0  0  0  0  0  0  0  0  0  0
   -5.3052   -2.7422   -1.8682 C   0  0  0  0  0  0  0  0  0  0  0  0
   -3.9698   -3.4895   -1.6827 C   0  0  0  0  0  0  0  0  0  0  0  0
   -3.6916   -3.7080   -0.1894 C   0  0  0  0  0  0  0  0  0  0  0  0
   -2.7972   -2.7693   -2.3773 C   0  0  0  0  0  0  0  0  0  0  0  0
   -1.0567    2.0427    0.3079 C   0  0  0  0  0  0  0  0  0  0  0  0
   -1.4025    2.1436    1.6606 C   0  0  0  0  0  0  0  0  0  0  0  0
   -1.4154    3.3817    2.3216 C   0  0  0  0  0  0  0  0  0  0  0  0
   -1.0954    4.5829    1.6690 C   0  0  0  0  0  0  0  0  0  0  0  0
   -1.1010    5.8144    2.3398 N   0  0  0  0  0  0  0  0  0  0  0  0
   -1.9686    5.9484    3.5105 C   0  0  0  0  0  0  0  0  0  0  0  0
   -0.9049    7.0384    1.5659 C   0  0  0  0  0  0  0  0  0  0  0  0
   -0.7234    4.4575    0.3190 C   0  0  0  0  0  0  0  0  0  0  0  0
   -0.7050    3.2217   -0.3508 C   0  0  0  0  0  0  0  0  0  0  0  0
   -2.3459   -2.1667    2.9961 H   0  0  0  0  0  0  0  0  0  0  0  0
   -0.6444   -1.9335    3.4018 H   0  0  0  0  0  0  0  0  0  0  0  0
   -1.1649   -3.3274    2.3790 H   0  0  0  0  0  0  0  0  0  0  0  0
    1.0224   -2.8796    1.9158 H   0  0  0  0  0  0  0  0  0  0  0  0
    3.2054   -2.5859    3.1167 H   0  0  0  0  0  0  0  0  0  0  0  0
    4.5322   -3.5605    2.4685 H   0  0  0  0  0  0  0  0  0  0  0  0
    2.8752   -4.1087    2.1982 H   0  0  0  0  0  0  0  0  0  0  0  0
    5.7455    0.3368    1.1796 H   0  0  0  0  0  0  0  0  0  0  0  0
    7.9551   -0.7274    1.5053 H   0  0  0  0  0  0  0  0  0  0  0  0
    8.6844   -2.5706    0.0135 H   0  0  0  0  0  0  0  0  0  0  0  0
    7.1983   -3.3512   -1.8156 H   0  0  0  0  0  0  0  0  0  0  0  0
    4.9825   -2.3015   -2.1519 H   0  0  0  0  0  0  0  0  0  0  0  0
    4.8638    1.1236   -2.0300 H   0  0  0  0  0  0  0  0  0  0  0  0
   -1.9625    0.1796    0.0411 H   0  0  0  0  0  0  0  0  0  0  0  0
   -0.5082    1.1700   -2.4371 H   0  0  0  0  0  0  0  0  0  0  0  0
   -2.2034    1.3451   -2.0873 H   0  0  0  0  0  0  0  0  0  0  0  0
   -0.6960   -1.3098   -2.3055 H   0  0  0  0  0  0  0  0  0  0  0  0
   -1.6016   -0.5795   -3.6120 H   0  0  0  0  0  0  0  0  0  0  0  0
   -4.3350   -0.0018   -1.6492 H   0  0  0  0  0  0  0  0  0  0  0  0
   -3.8310    0.0009   -3.3375 H   0  0  0  0  0  0  0  0  0  0  0  0
   -5.0219   -1.9826   -3.8602 H   0  0  0  0  0  0  0  0  0  0  0  0
   -6.1111   -1.0127   -2.8766 H   0  0  0  0  0  0  0  0  0  0  0  0
   -5.6751   -2.3538   -0.9085 H   0  0  0  0  0  0  0  0  0  0  0  0
   -6.0703   -3.4432   -2.2283 H   0  0  0  0  0  0  0  0  0  0  0  0
   -4.0647   -4.4809   -2.1454 H   0  0  0  0  0  0  0  0  0  0  0  0
   -2.7587   -4.2651   -0.0395 H   0  0  0  0  0  0  0  0  0  0  0  0
   -4.5004   -4.2834    0.2747 H   0  0  0  0  0  0  0  0  0  0  0  0
   -3.6083   -2.7540    0.3452 H   0  0  0  0  0  0  0  0  0  0  0  0
   -1.8607   -3.2431   -2.0558 H   0  0  0  0  0  0  0  0  0  0  0  0
   -2.8578   -2.9097   -3.4648 H   0  0  0  0  0  0  0  0  0  0  0  0
   -1.6668    1.2487    2.2211 H   0  0  0  0  0  0  0  0  0  0  0  0
   -1.6748    3.3693    3.3753 H   0  0  0  0  0  0  0  0  0  0  0  0
   -1.9446    6.9703    3.9068 H   0  0  0  0  0  0  0  0  0  0  0  0
   -3.0105    5.7199    3.2583 H   0  0  0  0  0  0  0  0  0  0  0  0
   -1.6374    5.3024    4.3307 H   0  0  0  0  0  0  0  0  0  0  0  0
   -1.7240    7.1898    0.8538 H   0  0  0  0  0  0  0  0  0  0  0  0
    0.0526    7.0239    1.0335 H   0  0  0  0  0  0  0  0  0  0  0  0
   -0.8682    7.9155    2.2224 H   0  0  0  0  0  0  0  0  0  0  0  0
   -0.4311    5.3251   -0.2655 H   0  0  0  0  0  0  0  0  0  0  0  0
   -0.3954    3.2112   -1.3944 H   0  0  0  0  0  0  0  0  0  0  0  0
  1  2  1  0
  2  3  1  0
  3  4  2  0
  4  5  1  0
  5  6  1  0
  6  7  1  0
  5  8  2  0
  8  9  1  0
  9 10  1  0
 10 11  2  0
 11 12  1  0
 12 13  2  0
 13 14  1  0
 14 15  2  0
  9 16  2  0
 16 17  1  0
 17 18  2  0
 17 19  1  0
 19 20  1  0
 20 21  2  0
 21 22  1  0
 22 23  1  0
 23 24  1  0
 24 25  1  0
 25 26  1  0
 26 27  1  0
 27 28  1  0
 28 29  1  0
 29 30  1  0
 29 31  1  0
 22 32  1  0
 32 33  2  0
 33 34  1  0
 34 35  2  0
 35 36  1  0
 36 37  1  0
 36 38  1  0
 35 39  1  0
 39 40  2  0
 21  3  1  0
 31 25  1  0
 40 32  1  0
 20  8  1  0
 15 10  1  0
  1 41  1  0
  1 42  1  0
  1 43  1  0
  4 44  1  0
  7 45  1  0
  7 46  1  0
  7 47  1  0
 11 48  1  0
 12 49  1  0
 13 50  1  0
 14 51  1  0
 15 52  1  0
 16 53  1  0
 22 54  1  0
 23 55  1  0
 23 56  1  0
 24 57  1  0
 24 58  1  0
 26 59  1  0
 26 60  1  0
 27 61  1  0
 27 62  1  0
 28 63  1  0
 28 64  1  0
 29 65  1  0
 30 66  1  0
 30 67  1  0
 30 68  1  0
 31 69  1  0
 31 70  1  0
 33 71  1  0
 34 72  1  0
 37 73  1  0
 37 74  1  0
 37 75  1  0
 38 76  1  0
 38 77  1  0
 38 78  1  0
 39 79  1  0
 40 80  1  0
M  END
$$$$
