
     RDKit          3D

 48 50  0  0  0  0  0  0  0  0999 V2000
    4.0381   -1.1399   -3.8065 C   0  0  0  0  0  0  0  0  0  0  0  0
    4.0197   -1.4801   -2.3279 C   0  0  0  0  0  0  0  0  0  0  0  0
    4.7909   -0.5006   -1.4522 C   0  0  0  0  0  0  0  0  0  0  0  0
    4.0378    1.0890   -1.1870 S   0  0  0  0  0  6  0  0  0  0  0  0
    4.9125    1.8528   -0.3184 O   0  0  0  0  0  0  0  0  0  0  0  0
    3.5645    1.6359   -2.4466 O   0  0  0  0  0  0  0  0  0  0  0  0
    2.5887    0.7621   -0.2232 C   0  0  0  0  0  0  0  0  0  0  0  0
    2.1168   -0.4247    0.0895 N   0  0  0  0  0  0  0  0  0  0  0  0
    0.9653   -0.2574    0.8649 C   0  0  0  0  0  0  0  0  0  0  0  0
    0.0291   -1.6521    1.3699 S   0  0  0  0  0  6  0  0  0  0  0  0
   -0.6364   -1.2468    2.5976 O   0  0  0  0  0  0  0  0  0  0  0  0
    0.9417   -2.7799    1.3262 O   0  0  0  0  0  0  0  0  0  0  0  0
   -1.1778   -1.8357    0.0836 C   0  0  0  0  0  0  0  0  0  0  0  0
   -2.4488   -1.2760    0.2382 C   0  0  0  0  0  0  0  0  0  0  0  0
   -3.3883   -1.4146   -0.7836 C   0  0  0  0  0  0  0  0  0  0  0  0
   -3.0632   -2.1077   -1.9571 C   0  0  0  0  0  0  0  0  0  0  0  0
   -4.0841   -2.2766   -3.0418 C   0  0  0  0  0  0  0  0  0  0  0  0
   -1.7947   -2.6914   -2.0840 C   0  0  0  0  0  0  0  0  0  0  0  0
   -0.8498   -2.5577   -1.0672 C   0  0  0  0  0  0  0  0  0  0  0  0
    0.5982    1.0582    1.1489 C   0  0  0  0  0  0  0  0  0  0  0  0
   -0.4644    1.4897    1.8938 N   0  0  0  0  0  0  0  0  0  0  0  0
   -0.5149    2.8328    2.4692 C   0  0  0  0  0  0  0  0  0  0  0  0
   -1.7263    3.0929    3.3031 C   0  0  0  0  0  0  0  0  0  0  0  0
   -2.4901    2.3148    4.1521 C   0  0  0  0  0  0  0  0  0  0  0  0
   -3.5075    3.1621    4.6580 C   0  0  0  0  0  0  0  0  0  0  0  0
   -3.3007    4.3946    4.0931 C   0  0  0  0  0  0  0  0  0  0  0  0
   -2.2172    4.3699    3.2759 O   0  0  0  0  0  0  0  0  0  0  0  0
    1.7124    2.1117    0.3489 S   0  0  0  0  0  0  0  0  0  0  0  0
    3.3781   -0.2961   -4.0346 H   0  0  0  0  0  0  0  0  0  0  0  0
    3.6849   -2.0003   -4.3940 H   0  0  0  0  0  0  0  0  0  0  0  0
    5.0439   -0.8928   -4.1474 H   0  0  0  0  0  0  0  0  0  0  0  0
    2.9845   -1.5887   -2.0000 H   0  0  0  0  0  0  0  0  0  0  0  0
    4.4897   -2.4662   -2.2110 H   0  0  0  0  0  0  0  0  0  0  0  0
    5.7801   -0.3078   -1.8796 H   0  0  0  0  0  0  0  0  0  0  0  0
    4.9513   -0.9351   -0.4605 H   0  0  0  0  0  0  0  0  0  0  0  0
   -2.7179   -0.7273    1.1386 H   0  0  0  0  0  0  0  0  0  0  0  0
   -4.3768   -0.9748   -0.6604 H   0  0  0  0  0  0  0  0  0  0  0  0
   -4.7815   -1.4300   -3.0614 H   0  0  0  0  0  0  0  0  0  0  0  0
   -4.6521   -3.1951   -2.8820 H   0  0  0  0  0  0  0  0  0  0  0  0
   -3.6035   -2.3255   -4.0233 H   0  0  0  0  0  0  0  0  0  0  0  0
   -1.5374   -3.2532   -2.9790 H   0  0  0  0  0  0  0  0  0  0  0  0
    0.1312   -3.0147   -1.1807 H   0  0  0  0  0  0  0  0  0  0  0  0
   -0.8780    0.7932    2.5249 H   0  0  0  0  0  0  0  0  0  0  0  0
   -0.4846    3.5763    1.6656 H   0  0  0  0  0  0  0  0  0  0  0  0
    0.3654    2.9898    3.1019 H   0  0  0  0  0  0  0  0  0  0  0  0
   -2.3298    1.2726    4.3828 H   0  0  0  0  0  0  0  0  0  0  0  0
   -4.2939    2.9040    5.3517 H   0  0  0  0  0  0  0  0  0  0  0  0
   -3.8050    5.3466    4.1687 H   0  0  0  0  0  0  0  0  0  0  0  0
  1  2  1  0
  2  3  1  0
  3  4  1  0
  4  5  2  0
  4  6  2  0
  4  7  1  0
  7  8  2  0
  8  9  1  0
  9 10  1  0
 10 11  2  0
 10 12  2  0
 10 13  1  0
 13 14  2  0
 14 15  1  0
 15 16  2  0
 16 17  1  0
 16 18  1  0
 18 19  2  0
  9 20  2  0
 20 21  1  0
 21 22  1  0
 22 23  1  0
 23 24  2  0
 24 25  1  0
 25 26  2  0
 26 27  1  0
 20 28  1  0
 28  7  1  0
 19 13  1  0
 27 23  1  0
  1 29  1  0
  1 30  1  0
  1 31  1  0
  2 32  1  0
  2 33  1  0
  3 34  1  0
  3 35  1  0
 14 36  1  0
 15 37  1  0
 17 38  1  0
 17 39  1  0
 17 40  1  0
 18 41  1  0
 19 42  1  0
 21 43  1  0
 22 44  1  0
 22 45  1  0
 24 46  1  0
 25 47  1  0
 26 48  1  0
M  END
$$$$
