
     RDKit          3D

 73 78  0  0  0  0  0  0  0  0999 V2000
   -8.8101    2.0147    0.4938 C   0  0  0  0  0  0  0  0  0  0  0  0
   -8.0670    1.3330   -0.6161 C   0  0  0  0  0  0  0  0  0  0  0  0
   -8.5136    1.4347   -1.9331 C   0  0  0  0  0  0  0  0  0  0  0  0
   -7.7964    0.8295   -2.9628 C   0  0  0  0  0  0  0  0  0  0  0  0
   -6.6159    0.1163   -2.6943 C   0  0  0  0  0  0  0  0  0  0  0  0
   -5.8890   -0.5360   -3.8406 C   0  0  0  0  0  0  0  0  0  0  0  0
   -6.1297    0.0250   -1.3709 C   0  0  0  0  0  0  0  0  0  0  0  0
   -4.9301   -0.6460   -1.1181 N   0  0  0  0  0  0  0  0  0  0  0  0
   -3.7085    0.1583   -1.3502 C   0  0  0  0  0  0  0  0  0  0  0  0
   -3.1707    0.7664   -0.0393 C   0  0  0  0  0  0  0  0  0  0  0  0
   -2.9772   -0.2858    0.9684 N   0  0  0  0  0  0  0  0  0  0  0  0
   -1.7738   -0.9537    1.1822 C   0  0  0  0  0  0  0  0  0  0  0  0
   -1.7478   -2.0717    1.7003 O   0  0  0  0  0  0  0  0  0  0  0  0
   -0.4811   -0.2326    0.7985 C   0  0  0  0  0  0  0  0  0  0  0  0
   -0.2729    1.0296    1.6578 C   0  0  0  0  0  0  0  0  0  0  0  0
    0.9630    0.9363    2.5463 C   0  0  0  0  0  0  0  0  0  0  0  0
    2.2191    0.6002    1.7394 C   0  0  0  0  0  0  0  0  0  0  0  0
    1.9555   -0.4456    0.7477 N   0  0  0  0  0  0  0  0  0  0  0  0
    3.0658   -1.1180    0.2249 C   0  0  0  0  0  0  0  0  0  0  0  0
    2.8857   -2.3384   -0.3677 N   0  0  0  0  0  0  0  0  0  0  0  0
    3.9414   -2.9986   -0.8852 C   0  0  0  0  0  0  0  0  0  0  0  0
    5.2283   -2.6161   -0.9141 N   0  0  0  0  0  0  0  0  0  0  0  0
    5.3787   -1.4102   -0.3439 C   0  0  0  0  0  0  0  0  0  0  0  0
    4.3967   -0.6177    0.2266 C   0  0  0  0  0  0  0  0  0  0  0  0
    4.9611    0.5503    0.7082 N   0  0  0  0  0  0  0  0  0  0  0  0
    6.2546    0.4704    0.4518 C   0  0  0  0  0  0  0  0  0  0  0  0
    6.5491   -0.7075   -0.2003 N   0  0  0  0  0  0  0  0  0  0  0  0
    7.8428   -1.1982   -0.6349 C   0  0  0  0  0  0  0  0  0  0  0  0
    8.8301   -0.1190   -1.0668 C   0  0  0  0  0  0  0  0  0  0  0  0
    9.5099    0.5985    0.0996 C   0  0  0  0  0  0  0  0  0  0  0  0
    8.5951    0.9788    1.2639 C   0  0  0  0  0  0  0  0  0  0  0  0
    7.2454    1.5295    0.8200 C   0  0  0  0  0  0  0  0  0  0  0  0
    0.7100   -1.2042    0.8891 C   0  0  0  0  0  0  0  0  0  0  0  0
   -4.2223   -0.9931    1.2816 C   0  0  0  0  0  0  0  0  0  0  0  0
   -4.8594   -1.5988    0.0146 C   0  0  0  0  0  0  0  0  0  0  0  0
   -6.8756    0.6387   -0.3523 C   0  0  0  0  0  0  0  0  0  0  0  0
   -9.8818    2.0665    0.2732 H   0  0  0  0  0  0  0  0  0  0  0  0
   -8.7006    1.4642    1.4334 H   0  0  0  0  0  0  0  0  0  0  0  0
   -8.4263    3.0306    0.6313 H   0  0  0  0  0  0  0  0  0  0  0  0
   -9.4254    1.9811   -2.1662 H   0  0  0  0  0  0  0  0  0  0  0  0
   -8.1688    0.9100   -3.9820 H   0  0  0  0  0  0  0  0  0  0  0  0
   -5.0116    0.0556   -4.1192 H   0  0  0  0  0  0  0  0  0  0  0  0
   -5.5748   -1.5519   -3.5774 H   0  0  0  0  0  0  0  0  0  0  0  0
   -6.5333   -0.6209   -4.7220 H   0  0  0  0  0  0  0  0  0  0  0  0
   -3.8737    0.9569   -2.0836 H   0  0  0  0  0  0  0  0  0  0  0  0
   -2.9485   -0.5085   -1.7752 H   0  0  0  0  0  0  0  0  0  0  0  0
   -2.2491    1.3143   -0.2373 H   0  0  0  0  0  0  0  0  0  0  0  0
   -3.8911    1.4838    0.3714 H   0  0  0  0  0  0  0  0  0  0  0  0
   -0.5622    0.0626   -0.2548 H   0  0  0  0  0  0  0  0  0  0  0  0
   -1.1447    1.2425    2.2860 H   0  0  0  0  0  0  0  0  0  0  0  0
   -0.1564    1.8934    0.9920 H   0  0  0  0  0  0  0  0  0  0  0  0
    0.7989    0.1658    3.3099 H   0  0  0  0  0  0  0  0  0  0  0  0
    1.1139    1.8787    3.0848 H   0  0  0  0  0  0  0  0  0  0  0  0
    2.5590    1.5075    1.2261 H   0  0  0  0  0  0  0  0  0  0  0  0
    2.9945    0.2926    2.4521 H   0  0  0  0  0  0  0  0  0  0  0  0
    3.7195   -3.9616   -1.3364 H   0  0  0  0  0  0  0  0  0  0  0  0
    8.2470   -1.8117    0.1789 H   0  0  0  0  0  0  0  0  0  0  0  0
    7.6647   -1.8570   -1.4937 H   0  0  0  0  0  0  0  0  0  0  0  0
    8.3304    0.6139   -1.7139 H   0  0  0  0  0  0  0  0  0  0  0  0
    9.6163   -0.5809   -1.6782 H   0  0  0  0  0  0  0  0  0  0  0  0
    9.9883    1.5036   -0.2923 H   0  0  0  0  0  0  0  0  0  0  0  0
   10.3206   -0.0285    0.4890 H   0  0  0  0  0  0  0  0  0  0  0  0
    9.1135    1.7385    1.8624 H   0  0  0  0  0  0  0  0  0  0  0  0
    8.4549    0.1134    1.9250 H   0  0  0  0  0  0  0  0  0  0  0  0
    6.8211    2.1026    1.6546 H   0  0  0  0  0  0  0  0  0  0  0  0
    7.3620    2.2334   -0.0125 H   0  0  0  0  0  0  0  0  0  0  0  0
    0.7241   -1.7530    1.8406 H   0  0  0  0  0  0  0  0  0  0  0  0
    0.5810   -1.9528    0.0960 H   0  0  0  0  0  0  0  0  0  0  0  0
   -4.8915   -0.2654    1.7509 H   0  0  0  0  0  0  0  0  0  0  0  0
   -4.0530   -1.7819    2.0225 H   0  0  0  0  0  0  0  0  0  0  0  0
   -4.2363   -2.4401   -0.3156 H   0  0  0  0  0  0  0  0  0  0  0  0
   -5.8459   -2.0189    0.2453 H   0  0  0  0  0  0  0  0  0  0  0  0
   -6.5260    0.6027    0.6728 H   0  0  0  0  0  0  0  0  0  0  0  0
  1  2  1  0
  2  3  2  0
  3  4  1  0
  4  5  2  0
  5  6  1  0
  5  7  1  0
  7  8  1  0
  8  9  1  0
  9 10  1  0
 10 11  1  0
 11 12  1  0
 12 13  2  0
 12 14  1  0
 14 15  1  0
 15 16  1  0
 16 17  1  0
 17 18  1  0
 18 19  1  0
 19 20  2  0
 20 21  1  0
 21 22  2  0
 22 23  1  0
 23 24  2  0
 24 25  1  0
 25 26  2  0
 26 27  1  0
 27 28  1  0
 28 29  1  0
 29 30  1  0
 30 31  1  0
 31 32  1  0
 18 33  1  0
 11 34  1  0
 34 35  1  0
  7 36  2  0
 36  2  1  0
 35  8  1  0
 33 14  1  0
 24 19  1  0
 32 26  1  0
 27 23  1  0
  1 37  1  0
  1 38  1  0
  1 39  1  0
  3 40  1  0
  4 41  1  0
  6 42  1  0
  6 43  1  0
  6 44  1  0
  9 45  1  0
  9 46  1  0
 10 47  1  0
 10 48  1  0
 14 49  1  0
 15 50  1  0
 15 51  1  0
 16 52  1  0
 16 53  1  0
 17 54  1  0
 17 55  1  0
 21 56  1  0
 28 57  1  0
 28 58  1  0
 29 59  1  0
 29 60  1  0
 30 61  1  0
 30 62  1  0
 31 63  1  0
 31 64  1  0
 32 65  1  0
 32 66  1  0
 33 67  1  0
 33 68  1  0
 34 69  1  0
 34 70  1  0
 35 71  1  0
 35 72  1  0
 36 73  1  0
M  END
$$$$
