
     RDKit          3D

 50 53  0  0  0  0  0  0  0  0999 V2000
    0.2915   -3.9608   -0.5391 O   0  0  0  0  0  0  0  0  0  0  0  0
    0.0258   -2.7745   -0.5888 C   0  0  0  0  0  0  0  0  0  0  0  0
   -1.2779   -2.2092   -1.1341 C   0  0  0  0  0  0  0  0  0  0  0  0
   -2.1530   -2.8675   -1.6531 O   0  0  0  0  0  0  0  0  0  0  0  0
   -1.2706   -0.8556   -0.8453 N   0  0  0  0  0  0  0  0  0  0  0  0
   -2.5079   -0.0757   -0.9051 C   0  0  0  0  0  0  0  0  0  0  0  0
   -3.3914   -0.1748    0.3461 C   0  0  0  0  0  0  0  0  0  0  0  0
   -4.1249   -1.4955    0.5100 C   0  0  0  0  0  0  0  0  0  0  0  0
   -5.3042   -1.0848    1.3554 C   0  0  0  0  0  0  0  0  0  0  0  0
   -5.6412    0.2728    0.7809 C   0  0  0  0  0  0  0  0  0  0  0  0
   -4.4121    0.8424    0.3042 O   0  0  0  0  0  0  0  0  0  0  0  0
   -0.1535   -0.5176    0.0387 C   0  0  0  0  0  0  0  0  0  0  0  0
    0.3816    0.8962   -0.1415 C   0  0  0  0  0  0  0  0  0  0  0  0
    0.4906    1.4388   -1.4391 C   0  0  0  0  0  0  0  0  0  0  0  0
    0.9814    2.7302   -1.6530 C   0  0  0  0  0  0  0  0  0  0  0  0
    1.3806    3.5185   -0.5780 C   0  0  0  0  0  0  0  0  0  0  0  0
    1.2984    3.0148    0.7171 C   0  0  0  0  0  0  0  0  0  0  0  0
    0.8104    1.7143    0.9278 C   0  0  0  0  0  0  0  0  0  0  0  0
    0.7913    1.2383    2.3081 N   0  0  0  0  0  4  0  0  0  0  0  0
    1.2079    0.0905    2.5153 O   0  0  0  0  0  0  0  0  0  0  0  0
    0.3617    2.0101    3.1740 O   0  0  0  0  0  1  0  0  0  0  0  0
    0.8905   -1.6537   -0.1043 C   0  0  0  0  0  0  0  0  0  0  0  0
    1.9878   -1.3540   -1.0998 C   0  0  0  0  0  0  0  0  0  0  0  0
    1.7994   -1.4714   -2.3101 O   0  0  0  0  0  0  0  0  0  0  0  0
    3.2932   -0.8086   -0.6235 C   0  0  0  0  0  0  0  0  0  0  0  0
    3.7946   -1.0473    0.6605 C   0  0  0  0  0  0  0  0  0  0  0  0
    5.0066   -0.4743    1.0562 C   0  0  0  0  0  0  0  0  0  0  0  0
    5.7251    0.3304    0.1735 C   0  0  0  0  0  0  0  0  0  0  0  0
    5.2404    0.5590   -1.1116 C   0  0  0  0  0  0  0  0  0  0  0  0
    4.0305   -0.0108   -1.5109 C   0  0  0  0  0  0  0  0  0  0  0  0
   -2.2519    0.9720   -1.0919 H   0  0  0  0  0  0  0  0  0  0  0  0
   -3.0803   -0.4015   -1.7827 H   0  0  0  0  0  0  0  0  0  0  0  0
   -2.7963    0.0307    1.2433 H   0  0  0  0  0  0  0  0  0  0  0  0
   -4.4842   -1.8695   -0.4556 H   0  0  0  0  0  0  0  0  0  0  0  0
   -3.5112   -2.2708    0.9757 H   0  0  0  0  0  0  0  0  0  0  0  0
   -4.9944   -0.9825    2.4014 H   0  0  0  0  0  0  0  0  0  0  0  0
   -6.1412   -1.7857    1.3138 H   0  0  0  0  0  0  0  0  0  0  0  0
   -6.0947    0.9398    1.5183 H   0  0  0  0  0  0  0  0  0  0  0  0
   -6.3202    0.1834   -0.0735 H   0  0  0  0  0  0  0  0  0  0  0  0
   -0.5998   -0.6051    1.0372 H   0  0  0  0  0  0  0  0  0  0  0  0
    0.1939    0.8531   -2.3110 H   0  0  0  0  0  0  0  0  0  0  0  0
    1.0501    3.1195   -2.6674 H   0  0  0  0  0  0  0  0  0  0  0  0
    1.7589    4.5232   -0.7508 H   0  0  0  0  0  0  0  0  0  0  0  0
    1.6207    3.6366    1.5509 H   0  0  0  0  0  0  0  0  0  0  0  0
    1.2813   -1.9409    0.8720 H   0  0  0  0  0  0  0  0  0  0  0  0
    3.2841   -1.6861    1.3743 H   0  0  0  0  0  0  0  0  0  0  0  0
    5.3953   -0.6642    2.0549 H   0  0  0  0  0  0  0  0  0  0  0  0
    6.6690    0.7722    0.4842 H   0  0  0  0  0  0  0  0  0  0  0  0
    5.8056    1.1781   -1.8051 H   0  0  0  0  0  0  0  0  0  0  0  0
    3.6629    0.1775   -2.5185 H   0  0  0  0  0  0  0  0  0  0  0  0
  1  2  2  0
  2  3  1  0
  3  4  2  0
  3  5  1  0
  5  6  1  0
  6  7  1  0
  7  8  1  0
  8  9  1  0
  9 10  1  0
 10 11  1  0
  5 12  1  0
 12 13  1  0
 13 14  2  0
 14 15  1  0
 15 16  2  0
 16 17  1  0
 17 18  2  0
 18 19  1  0
 19 20  2  0
 19 21  1  0
 12 22  1  0
 22 23  1  0
 23 24  2  0
 23 25  1  0
 25 26  2  0
 26 27  1  0
 27 28  2  0
 28 29  1  0
 29 30  2  0
 22  2  1  0
 30 25  1  0
 11  7  1  0
 18 13  1  0
  6 31  1  0
  6 32  1  0
  7 33  1  0
  8 34  1  0
  8 35  1  0
  9 36  1  0
  9 37  1  0
 10 38  1  0
 10 39  1  0
 12 40  1  0
 14 41  1  0
 15 42  1  0
 16 43  1  0
 17 44  1  0
 22 45  1  0
 26 46  1  0
 27 47  1  0
 28 48  1  0
 29 49  1  0
 30 50  1  0
M  CHG  2  19   1  21  -1
M  END
$$$$
