
     RDKit          3D

 51 54  0  0  0  0  0  0  0  0999 V2000
    1.5300    3.1531    0.7494 O   0  0  0  0  0  0  0  0  0  0  0  0
    1.5426    2.0124    0.2859 C   0  0  0  0  0  0  0  0  0  0  0  0
    2.7881    1.3125    0.0447 C   0  0  0  0  0  0  0  0  0  0  0  0
    3.6066    0.6841    0.9657 C   0  0  0  0  0  0  0  0  0  0  0  0
    4.7993    0.1742    0.3660 C   0  0  0  0  0  0  0  0  0  0  0  0
    4.8337    0.4448   -0.9907 C   0  0  0  0  0  0  0  0  0  0  0  0
    3.4721    1.3146   -1.5254 S   0  0  0  0  0  0  0  0  0  0  0  0
    5.9320    0.0392   -1.9247 C   0  0  0  0  0  0  0  0  0  0  0  0
    7.1955   -0.3428   -1.1347 C   0  0  0  0  0  0  0  0  0  0  0  0
    6.8710   -1.2263    0.0811 C   0  0  0  0  0  0  0  0  0  0  0  0
    5.9288   -0.5187    1.0699 C   0  0  0  0  0  0  0  0  0  0  0  0
    0.3528    1.3345    0.0107 N   0  0  0  0  0  0  0  0  0  0  0  0
   -0.9153    2.0247    0.2552 C   0  0  0  0  0  0  0  0  0  0  0  0
   -2.0397    1.0573    0.6393 C   0  0  0  0  0  0  0  0  0  0  0  0
   -2.2676    0.0030   -0.4008 N   0  0  0  0  0  0  0  0  0  0  0  0
   -3.6674    0.1784   -1.3547 S   0  0  0  0  0  6  0  0  0  0  0  0
   -3.7127   -0.8885   -2.3264 O   0  0  0  0  0  0  0  0  0  0  0  0
   -3.7191    1.5641   -1.7726 O   0  0  0  0  0  0  0  0  0  0  0  0
   -4.9815   -0.1084   -0.1790 C   0  0  0  0  0  0  0  0  0  0  0  0
   -5.7293    1.0038    0.2448 C   0  0  0  0  0  0  0  0  0  0  0  0
   -6.7780    0.8438    1.1498 C   0  0  0  0  0  0  0  0  0  0  0  0
   -7.0943   -0.4244    1.6267 C   0  0  0  0  0  0  0  0  0  0  0  0
   -6.3666   -1.5354    1.1943 C   0  0  0  0  0  0  0  0  0  0  0  0
   -5.2951   -1.4033    0.2840 C   0  0  0  0  0  0  0  0  0  0  0  0
   -4.5804   -2.6574   -0.1715 C   0  0  0  0  0  0  0  0  0  0  0  0
   -4.9654   -3.0678   -1.4069 F   0  0  0  0  0  0  0  0  0  0  0  0
   -3.2260   -2.5625   -0.1772 F   0  0  0  0  0  0  0  0  0  0  0  0
   -4.8434   -3.7232    0.6475 F   0  0  0  0  0  0  0  0  0  0  0  0
   -1.0447   -0.3203   -1.2128 C   0  0  0  0  0  0  0  0  0  0  0  0
    0.2530   -0.0594   -0.4383 C   0  0  0  0  0  0  0  0  0  0  0  0
    3.3686    0.6182    2.0225 H   0  0  0  0  0  0  0  0  0  0  0  0
    6.1755    0.8483   -2.6262 H   0  0  0  0  0  0  0  0  0  0  0  0
    5.5933   -0.8224   -2.5166 H   0  0  0  0  0  0  0  0  0  0  0  0
    7.8973   -0.8620   -1.7990 H   0  0  0  0  0  0  0  0  0  0  0  0
    7.7016    0.5681   -0.7861 H   0  0  0  0  0  0  0  0  0  0  0  0
    6.4041   -2.1592   -0.2667 H   0  0  0  0  0  0  0  0  0  0  0  0
    7.7988   -1.5074    0.5962 H   0  0  0  0  0  0  0  0  0  0  0  0
    6.4996    0.2311    1.6361 H   0  0  0  0  0  0  0  0  0  0  0  0
    5.5394   -1.2481    1.7926 H   0  0  0  0  0  0  0  0  0  0  0  0
   -1.1682    2.5591   -0.6690 H   0  0  0  0  0  0  0  0  0  0  0  0
   -0.7941    2.7735    1.0458 H   0  0  0  0  0  0  0  0  0  0  0  0
   -2.9526    1.6252    0.8391 H   0  0  0  0  0  0  0  0  0  0  0  0
   -1.7879    0.5396    1.5726 H   0  0  0  0  0  0  0  0  0  0  0  0
   -5.5048    2.0023   -0.1277 H   0  0  0  0  0  0  0  0  0  0  0  0
   -7.3529    1.7082    1.4757 H   0  0  0  0  0  0  0  0  0  0  0  0
   -7.9176   -0.5533    2.3279 H   0  0  0  0  0  0  0  0  0  0  0  0
   -6.6498   -2.5209    1.5709 H   0  0  0  0  0  0  0  0  0  0  0  0
   -1.0865   -1.3767   -1.4985 H   0  0  0  0  0  0  0  0  0  0  0  0
   -1.0404    0.2864   -2.1273 H   0  0  0  0  0  0  0  0  0  0  0  0
    0.2900   -0.6833    0.4622 H   0  0  0  0  0  0  0  0  0  0  0  0
    1.1074   -0.3326   -1.0619 H   0  0  0  0  0  0  0  0  0  0  0  0
  1  2  2  0
  2  3  1  0
  3  4  2  0
  4  5  1  0
  5  6  2  0
  6  7  1  0
  6  8  1  0
  8  9  1  0
  9 10  1  0
 10 11  1  0
  2 12  1  0
 12 13  1  0
 13 14  1  0
 14 15  1  0
 15 16  1  0
 16 17  2  0
 16 18  2  0
 16 19  1  0
 19 20  2  0
 20 21  1  0
 21 22  2  0
 22 23  1  0
 23 24  2  0
 24 25  1  0
 25 26  1  0
 25 27  1  0
 25 28  1  0
 15 29  1  0
 29 30  1  0
  7  3  1  0
 30 12  1  0
 11  5  1  0
 24 19  1  0
  4 31  1  0
  8 32  1  0
  8 33  1  0
  9 34  1  0
  9 35  1  0
 10 36  1  0
 10 37  1  0
 11 38  1  0
 11 39  1  0
 13 40  1  0
 13 41  1  0
 14 42  1  0
 14 43  1  0
 20 44  1  0
 21 45  1  0
 22 46  1  0
 23 47  1  0
 29 48  1  0
 29 49  1  0
 30 50  1  0
 30 51  1  0
M  END
$$$$
