
     RDKit          3D

 26 27  0  0  0  0  0  0  0  0999 V2000
    5.4390    0.8046   -0.4303 C   0  0  0  0  0  0  0  0  0  0  0  0
    4.4896   -0.3170   -0.5149 C   0  0  0  0  0  0  0  0  0  0  0  0
    4.7095   -1.5864   -0.7722 N   0  0  0  0  0  0  0  0  0  0  0  0
    3.4765   -2.2051   -0.7304 N   0  0  0  0  0  0  0  0  0  0  0  0
    2.5897   -1.2722   -0.4508 C   0  0  0  0  0  0  0  0  0  0  0  0
    0.8879   -1.5742   -0.2931 S   0  0  0  0  0  0  0  0  0  0  0  0
    0.2943    0.0951    0.0833 C   0  0  0  0  0  0  0  0  0  0  0  0
   -1.2040    0.1185    0.2746 C   0  0  0  0  0  0  0  0  0  0  0  0
   -1.7619   -0.0994    1.5448 C   0  0  0  0  0  0  0  0  0  0  0  0
   -3.1477   -0.0945    1.7236 C   0  0  0  0  0  0  0  0  0  0  0  0
   -3.9847    0.1247    0.6228 C   0  0  0  0  0  0  0  0  0  0  0  0
   -5.4413    0.1319    0.8059 N   0  0  0  0  0  4  0  0  0  0  0  0
   -5.8800   -0.0572    1.9496 O   0  0  0  0  0  0  0  0  0  0  0  0
   -6.1475    0.3309   -0.1931 O   0  0  0  0  0  1  0  0  0  0  0  0
   -3.4441    0.3355   -0.6516 C   0  0  0  0  0  0  0  0  0  0  0  0
   -2.0572    0.3288   -0.8210 C   0  0  0  0  0  0  0  0  0  0  0  0
    3.1682   -0.0367   -0.2992 O   0  0  0  0  0  0  0  0  0  0  0  0
    5.1927    1.5721   -1.1698 H   0  0  0  0  0  0  0  0  0  0  0  0
    5.4090    1.2581    0.5647 H   0  0  0  0  0  0  0  0  0  0  0  0
    6.4606    0.4620   -0.6197 H   0  0  0  0  0  0  0  0  0  0  0  0
    0.7834    0.4669    0.9914 H   0  0  0  0  0  0  0  0  0  0  0  0
    0.5686    0.7784   -0.7291 H   0  0  0  0  0  0  0  0  0  0  0  0
   -1.1182   -0.2813    2.4043 H   0  0  0  0  0  0  0  0  0  0  0  0
   -3.5544   -0.2664    2.7183 H   0  0  0  0  0  0  0  0  0  0  0  0
   -4.0830    0.5002   -1.5170 H   0  0  0  0  0  0  0  0  0  0  0  0
   -1.6452    0.4829   -1.8173 H   0  0  0  0  0  0  0  0  0  0  0  0
  1  2  1  0
  2  3  2  0
  3  4  1  0
  4  5  2  0
  5  6  1  0
  6  7  1  0
  7  8  1  0
  8  9  2  0
  9 10  1  0
 10 11  2  0
 11 12  1  0
 12 13  2  0
 12 14  1  0
 11 15  1  0
 15 16  2  0
  5 17  1  0
 17  2  1  0
 16  8  1  0
  1 18  1  0
  1 19  1  0
  1 20  1  0
  7 21  1  0
  7 22  1  0
  9 23  1  0
 10 24  1  0
 15 25  1  0
 16 26  1  0
M  CHG  2  12   1  14  -1
M  END
$$$$
