
     RDKit          3D

 41 42  0  0  0  0  0  0  0  0999 V2000
   -3.6745   -2.4216    0.5020 C   0  0  0  0  0  0  0  0  0  0  0  0
   -2.9602   -1.1175    0.2503 C   0  0  0  0  0  0  0  0  0  0  0  0
   -2.6065   -0.6528   -0.9682 C   0  0  0  0  0  0  0  0  0  0  0  0
   -2.9512   -1.3209   -2.2754 C   0  0  0  0  0  0  0  0  0  0  0  0
   -1.8175    0.6283   -1.1398 C   0  0  0  0  0  0  0  0  0  0  0  0
   -1.1656    1.1756    0.1394 C   0  0  0  0  0  0  0  0  0  0  0  0
    0.1843    0.4989    0.4247 C   0  0  0  0  0  0  0  0  0  0  0  0
    0.3687   -0.1906    1.4213 O   0  0  0  0  0  0  0  0  0  0  0  0
    1.1408    0.7909   -0.5381 N   0  0  0  0  0  0  0  0  0  0  0  0
    2.4663    0.3113   -0.6070 C   0  0  0  0  0  0  0  0  0  0  0  0
    3.0108   -0.6173    0.2848 C   0  0  0  0  0  0  0  0  0  0  0  0
    4.3351   -1.0516    0.1512 C   0  0  0  0  0  0  0  0  0  0  0  0
    5.1345   -0.5639   -0.8797 C   0  0  0  0  0  0  0  0  0  0  0  0
    4.5943    0.3623   -1.7771 C   0  0  0  0  0  0  0  0  0  0  0  0
    5.4232    0.8837   -2.8701 N   0  0  0  0  0  4  0  0  0  0  0  0
    4.9029    1.6962   -3.6486 O   0  0  0  0  0  0  0  0  0  0  0  0
    6.5925    0.4824   -2.9517 O   0  0  0  0  0  1  0  0  0  0  0  0
    3.2669    0.8002   -1.6465 C   0  0  0  0  0  0  0  0  0  0  0  0
   -2.1523    1.0777    1.3122 C   0  0  0  0  0  0  0  0  0  0  0  0
   -1.6035    1.6347    2.6084 C   0  0  0  0  0  0  0  0  0  0  0  0
   -1.9105    1.2889    3.7376 O   0  0  0  0  0  0  0  0  0  0  0  0
   -0.7708    2.6806    2.4328 O   0  0  0  0  0  0  0  0  0  0  0  0
   -2.6520   -0.3572    1.5255 C   0  0  0  0  0  0  0  0  0  0  0  0
   -3.6781   -3.0915   -0.3604 H   0  0  0  0  0  0  0  0  0  0  0  0
   -4.7116   -2.2318    0.7963 H   0  0  0  0  0  0  0  0  0  0  0  0
   -3.1819   -2.9694    1.3132 H   0  0  0  0  0  0  0  0  0  0  0  0
   -3.3284   -0.5785   -2.9878 H   0  0  0  0  0  0  0  0  0  0  0  0
   -3.7300   -2.0810   -2.1858 H   0  0  0  0  0  0  0  0  0  0  0  0
   -2.0595   -1.7875   -2.7058 H   0  0  0  0  0  0  0  0  0  0  0  0
   -1.0575    0.4714   -1.9145 H   0  0  0  0  0  0  0  0  0  0  0  0
   -2.5060    1.3888   -1.5323 H   0  0  0  0  0  0  0  0  0  0  0  0
   -0.9344    2.2364   -0.0351 H   0  0  0  0  0  0  0  0  0  0  0  0
    0.8731    1.4562   -1.2530 H   0  0  0  0  0  0  0  0  0  0  0  0
    2.4279   -1.0333    1.1020 H   0  0  0  0  0  0  0  0  0  0  0  0
    4.7366   -1.7749    0.8582 H   0  0  0  0  0  0  0  0  0  0  0  0
    6.1611   -0.9126   -0.9684 H   0  0  0  0  0  0  0  0  0  0  0  0
    2.8608    1.5211   -2.3525 H   0  0  0  0  0  0  0  0  0  0  0  0
   -3.0220    1.7059    1.0698 H   0  0  0  0  0  0  0  0  0  0  0  0
   -0.5092    2.9129    3.3499 H   0  0  0  0  0  0  0  0  0  0  0  0
   -1.9314   -0.9402    2.1127 H   0  0  0  0  0  0  0  0  0  0  0  0
   -3.5650   -0.3101    2.1349 H   0  0  0  0  0  0  0  0  0  0  0  0
  1  2  1  0
  2  3  2  0
  3  4  1  0
  3  5  1  0
  5  6  1  0
  6  7  1  0
  7  8  2  0
  7  9  1  0
  9 10  1  0
 10 11  2  0
 11 12  1  0
 12 13  2  0
 13 14  1  0
 14 15  1  0
 15 16  2  0
 15 17  1  0
 14 18  2  0
  6 19  1  0
 19 20  1  0
 20 21  2  0
 20 22  1  0
 19 23  1  0
 23  2  1  0
 18 10  1  0
  1 24  1  0
  1 25  1  0
  1 26  1  0
  4 27  1  0
  4 28  1  0
  4 29  1  0
  5 30  1  0
  5 31  1  0
  6 32  1  0
  9 33  1  0
 11 34  1  0
 12 35  1  0
 13 36  1  0
 18 37  1  0
 19 38  1  0
 22 39  1  0
 23 40  1  0
 23 41  1  0
M  CHG  2  15   1  17  -1
M  END
$$$$
