
     RDKit          3D

 41 43  0  0  0  0  0  0  0  0999 V2000
   -2.0022    1.1562   -0.3118 O   0  0  0  0  0  0  0  0  0  0  0  0
   -2.9066    0.4325    0.0857 C   0  0  0  0  0  0  0  0  0  0  0  0
   -2.7784   -0.7266    0.8295 N   0  0  0  0  0  0  0  0  0  0  0  0
   -1.5835   -1.3692    1.2193 C   0  0  0  0  0  0  0  0  0  0  0  0
   -1.7051   -2.4817    2.0547 C   0  0  0  0  0  0  0  0  0  0  0  0
   -0.5698   -3.1708    2.4756 C   0  0  0  0  0  0  0  0  0  0  0  0
    0.7009   -2.7580    2.0649 C   0  0  0  0  0  0  0  0  0  0  0  0
    0.8516   -1.6539    1.2297 C   0  0  0  0  0  0  0  0  0  0  0  0
    2.0799   -1.1449    0.7447 N   0  0  0  0  0  0  0  0  0  0  0  0
    3.3972   -1.4953    0.9252 C   0  0  0  0  0  0  0  0  0  0  0  0
    4.0746   -2.7111    1.8487 S   0  0  0  0  0  0  0  0  0  0  0  0
    4.3077   -0.7117    0.2306 N   0  0  0  0  0  0  0  0  0  0  0  0
    4.0999    0.3693   -0.6196 C   0  0  0  0  0  0  0  0  0  0  0  0
    2.9677    0.7848   -0.8659 O   0  0  0  0  0  0  0  0  0  0  0  0
    5.2995    0.9688   -1.1906 C   0  0  0  0  0  0  0  0  0  0  0  0
    5.3507    2.0475   -2.0557 C   0  0  0  0  0  0  0  0  0  0  0  0
    6.6817    2.3893   -2.4312 C   0  0  0  0  0  0  0  0  0  0  0  0
    7.6094    1.5612   -1.8417 C   0  0  0  0  0  0  0  0  0  0  0  0
    6.8744    0.3834   -0.8448 S   0  0  0  0  0  0  0  0  0  0  0  0
   -0.3064   -0.9690    0.8117 C   0  0  0  0  0  0  0  0  0  0  0  0
   -4.3121    0.8341   -0.2054 C   0  0  0  0  0  0  0  0  0  0  0  0
   -4.6273    2.1982   -0.2243 C   0  0  0  0  0  0  0  0  0  0  0  0
   -5.9333    2.6113   -0.4914 C   0  0  0  0  0  0  0  0  0  0  0  0
   -6.9243    1.6648   -0.7512 C   0  0  0  0  0  0  0  0  0  0  0  0
   -6.6114    0.3051   -0.7536 C   0  0  0  0  0  0  0  0  0  0  0  0
   -5.3061   -0.1135   -0.4855 C   0  0  0  0  0  0  0  0  0  0  0  0
   -3.6301   -1.1265    1.2005 H   0  0  0  0  0  0  0  0  0  0  0  0
   -2.6783   -2.8271    2.3920 H   0  0  0  0  0  0  0  0  0  0  0  0
   -0.6687   -4.0357    3.1272 H   0  0  0  0  0  0  0  0  0  0  0  0
    1.5395   -3.3380    2.4236 H   0  0  0  0  0  0  0  0  0  0  0  0
    1.9651   -0.3347    0.1310 H   0  0  0  0  0  0  0  0  0  0  0  0
    5.2712   -0.9842    0.3766 H   0  0  0  0  0  0  0  0  0  0  0  0
    4.4631    2.5670   -2.4018 H   0  0  0  0  0  0  0  0  0  0  0  0
    6.9436    3.2011   -3.0994 H   0  0  0  0  0  0  0  0  0  0  0  0
    8.6855    1.5912   -1.9484 H   0  0  0  0  0  0  0  0  0  0  0  0
   -0.1922   -0.1127    0.1532 H   0  0  0  0  0  0  0  0  0  0  0  0
   -3.8546    2.9397   -0.0299 H   0  0  0  0  0  0  0  0  0  0  0  0
   -6.1750    3.6713   -0.5024 H   0  0  0  0  0  0  0  0  0  0  0  0
   -7.9402    1.9891   -0.9647 H   0  0  0  0  0  0  0  0  0  0  0  0
   -7.3835   -0.4273   -0.9771 H   0  0  0  0  0  0  0  0  0  0  0  0
   -5.0743   -1.1740   -0.5304 H   0  0  0  0  0  0  0  0  0  0  0  0
  1  2  2  0
  2  3  1  0
  3  4  1  0
  4  5  2  0
  5  6  1  0
  6  7  2  0
  7  8  1  0
  8  9  1  0
  9 10  1  0
 10 11  2  0
 10 12  1  0
 12 13  1  0
 13 14  2  0
 13 15  1  0
 15 16  2  0
 16 17  1  0
 17 18  2  0
 18 19  1  0
  8 20  2  0
  2 21  1  0
 21 22  2  0
 22 23  1  0
 23 24  2  0
 24 25  1  0
 25 26  2  0
 20  4  1  0
 26 21  1  0
 19 15  1  0
  3 27  1  0
  5 28  1  0
  6 29  1  0
  7 30  1  0
  9 31  1  0
 12 32  1  0
 16 33  1  0
 17 34  1  0
 18 35  1  0
 20 36  1  0
 22 37  1  0
 23 38  1  0
 24 39  1  0
 25 40  1  0
 26 41  1  0
M  END
$$$$
