
     RDKit          3D

 38 40  0  0  0  0  0  0  0  0999 V2000
   -0.9852    2.7456   -2.9194 C   0  0  0  0  0  0  0  0  0  0  0  0
   -1.3556    1.2876   -2.9614 C   0  0  0  0  0  0  0  0  0  0  0  0
   -1.3671    0.6363   -4.0047 O   0  0  0  0  0  0  0  0  0  0  0  0
   -1.6802    0.5981   -1.7093 C   0  0  0  0  0  0  0  0  0  0  0  0
   -1.0831   -0.5976   -1.3320 C   0  0  0  0  0  0  0  0  0  0  0  0
    0.0491   -1.2247   -2.1172 C   0  0  0  0  0  0  0  0  0  0  0  0
    1.2145   -1.4150   -1.2907 O   0  0  0  0  0  0  0  0  0  0  0  0
    1.8524   -0.2703   -0.9428 C   0  0  0  0  0  0  0  0  0  0  0  0
    1.5102    0.8564   -1.2703 O   0  0  0  0  0  0  0  0  0  0  0  0
    3.0385   -0.5608   -0.0943 C   0  0  0  0  0  0  0  0  0  0  0  0
    3.3534   -1.8562    0.3384 C   0  0  0  0  0  0  0  0  0  0  0  0
    4.4789   -2.0742    1.1368 C   0  0  0  0  0  0  0  0  0  0  0  0
    5.2923   -1.0035    1.5067 C   0  0  0  0  0  0  0  0  0  0  0  0
    4.9839    0.2880    1.0816 C   0  0  0  0  0  0  0  0  0  0  0  0
    3.8599    0.5104    0.2837 C   0  0  0  0  0  0  0  0  0  0  0  0
   -1.4409   -1.2451   -0.1912 N   0  0  0  0  0  0  0  0  0  0  0  0
   -2.3831   -0.7156    0.5981 C   0  0  0  0  0  0  0  0  0  0  0  0
   -2.7419   -1.3749    1.7666 C   0  0  0  0  0  0  0  0  0  0  0  0
   -3.7193   -0.8666    2.6283 C   0  0  0  0  0  0  0  0  0  0  0  0
   -4.3593    0.3282    2.3231 C   0  0  0  0  0  0  0  0  0  0  0  0
   -4.0167    1.0072    1.1573 C   0  0  0  0  0  0  0  0  0  0  0  0
   -3.0268    0.4923    0.2879 C   0  0  0  0  0  0  0  0  0  0  0  0
   -2.6580    1.1516   -0.9039 N   0  0  0  0  0  4  0  0  0  0  0  0
   -3.2486    2.2446   -1.2283 O   0  0  0  0  0  1  0  0  0  0  0  0
   -0.0860    2.8979   -3.5235 H   0  0  0  0  0  0  0  0  0  0  0  0
   -1.8051    3.3452   -3.3221 H   0  0  0  0  0  0  0  0  0  0  0  0
   -0.7560    3.0694   -1.9004 H   0  0  0  0  0  0  0  0  0  0  0  0
   -0.2739   -2.2170   -2.4510 H   0  0  0  0  0  0  0  0  0  0  0  0
    0.3491   -0.6746   -3.0124 H   0  0  0  0  0  0  0  0  0  0  0  0
    2.7312   -2.7050    0.0654 H   0  0  0  0  0  0  0  0  0  0  0  0
    4.7208   -3.0804    1.4710 H   0  0  0  0  0  0  0  0  0  0  0  0
    6.1680   -1.1759    2.1281 H   0  0  0  0  0  0  0  0  0  0  0  0
    5.6183    1.1223    1.3709 H   0  0  0  0  0  0  0  0  0  0  0  0
    3.6288    1.5227   -0.0424 H   0  0  0  0  0  0  0  0  0  0  0  0
   -2.2480   -2.3119    2.0166 H   0  0  0  0  0  0  0  0  0  0  0  0
   -3.9770   -1.4082    3.5357 H   0  0  0  0  0  0  0  0  0  0  0  0
   -5.1213    0.7302    2.9867 H   0  0  0  0  0  0  0  0  0  0  0  0
   -4.5162    1.9437    0.9112 H   0  0  0  0  0  0  0  0  0  0  0  0
  1  2  1  0
  2  3  2  0
  2  4  1  0
  4  5  2  0
  5  6  1  0
  6  7  1  0
  7  8  1  0
  8  9  2  0
  8 10  1  0
 10 11  2  0
 11 12  1  0
 12 13  2  0
 13 14  1  0
 14 15  2  0
  5 16  1  0
 16 17  2  0
 17 18  1  0
 18 19  2  0
 19 20  1  0
 20 21  2  0
 21 22  1  0
 22 23  2  0
 23 24  1  0
 23  4  1  0
 15 10  1  0
 22 17  1  0
  1 25  1  0
  1 26  1  0
  1 27  1  0
  6 28  1  0
  6 29  1  0
 11 30  1  0
 12 31  1  0
 13 32  1  0
 14 33  1  0
 15 34  1  0
 18 35  1  0
 19 36  1  0
 20 37  1  0
 21 38  1  0
M  CHG  2  23   1  24  -1
M  END
$$$$
