
     RDKit          3D

 45 46  0  0  0  0  0  0  0  0999 V2000
    7.4453    0.5878    2.1385 C   0  0  0  0  0  0  0  0  0  0  0  0
    7.0003   -0.5487    1.2355 C   0  0  0  0  0  0  0  0  0  0  0  0
    5.9309   -0.1500    0.3375 N   0  0  0  0  0  0  0  0  0  0  0  0
    6.2623    0.3084   -0.8854 N   0  0  0  0  0  0  0  0  0  0  0  0
    5.0870    0.5452   -1.4657 C   0  0  0  0  0  0  0  0  0  0  0  0
    3.9920    0.2581   -0.6234 C   0  0  0  0  0  0  0  0  0  0  0  0
    2.5923    0.4049   -0.9602 C   0  0  0  0  0  0  0  0  0  0  0  0
    1.6848    0.0808   -0.0965 N   0  0  0  0  0  0  0  0  0  0  0  0
    0.3657    0.1946   -0.4570 N   0  0  0  0  0  0  0  0  0  0  0  0
   -0.1540   -0.0425   -1.7253 C   0  0  0  0  0  0  0  0  0  0  0  0
    0.5011   -0.2208   -2.7505 O   0  0  0  0  0  0  0  0  0  0  0  0
   -1.6831   -0.0349   -1.7535 C   0  0  0  0  0  0  0  0  0  0  0  0
   -2.2231   -0.0716   -0.4352 O   0  0  0  0  0  0  0  0  0  0  0  0
   -3.5867   -0.0510   -0.3235 C   0  0  0  0  0  0  0  0  0  0  0  0
   -4.0621   -0.0637    0.9908 C   0  0  0  0  0  0  0  0  0  0  0  0
   -5.4360   -0.0604    1.2606 C   0  0  0  0  0  0  0  0  0  0  0  0
   -5.9321   -0.0481    2.6760 C   0  0  0  0  0  0  0  0  0  0  0  0
   -6.3375   -0.0140    0.1917 C   0  0  0  0  0  0  0  0  0  0  0  0
   -5.8774    0.0128   -1.1308 C   0  0  0  0  0  0  0  0  0  0  0  0
   -6.8541    0.0186   -2.2708 C   0  0  0  0  0  0  0  0  0  0  0  0
   -4.4971   -0.0217   -1.3812 C   0  0  0  0  0  0  0  0  0  0  0  0
    4.5741   -0.1826    0.5585 C   0  0  0  0  0  0  0  0  0  0  0  0
    3.9480   -0.6235    1.8333 C   0  0  0  0  0  0  0  0  0  0  0  0
    6.6210    0.9451    2.7643 H   0  0  0  0  0  0  0  0  0  0  0  0
    7.8097    1.4375    1.5515 H   0  0  0  0  0  0  0  0  0  0  0  0
    8.2542    0.2555    2.7964 H   0  0  0  0  0  0  0  0  0  0  0  0
    7.8384   -0.8959    0.6201 H   0  0  0  0  0  0  0  0  0  0  0  0
    6.6537   -1.4064    1.8203 H   0  0  0  0  0  0  0  0  0  0  0  0
    5.0738    0.9169   -2.4825 H   0  0  0  0  0  0  0  0  0  0  0  0
    2.3762    0.8253   -1.9560 H   0  0  0  0  0  0  0  0  0  0  0  0
   -0.2900    0.0763    0.3152 H   0  0  0  0  0  0  0  0  0  0  0  0
   -1.9976   -0.9248   -2.3110 H   0  0  0  0  0  0  0  0  0  0  0  0
   -1.9890    0.8836   -2.2675 H   0  0  0  0  0  0  0  0  0  0  0  0
   -3.3502   -0.0816    1.8132 H   0  0  0  0  0  0  0  0  0  0  0  0
   -6.9050   -0.5447    2.7535 H   0  0  0  0  0  0  0  0  0  0  0  0
   -5.2418   -0.5830    3.3367 H   0  0  0  0  0  0  0  0  0  0  0  0
   -6.0319    0.9831    3.0284 H   0  0  0  0  0  0  0  0  0  0  0  0
   -7.4077    0.0005    0.3906 H   0  0  0  0  0  0  0  0  0  0  0  0
   -7.7838    0.5231   -1.9874 H   0  0  0  0  0  0  0  0  0  0  0  0
   -6.4443    0.5553   -3.1329 H   0  0  0  0  0  0  0  0  0  0  0  0
   -7.0857   -1.0084   -2.5695 H   0  0  0  0  0  0  0  0  0  0  0  0
   -4.1645   -0.0219   -2.4144 H   0  0  0  0  0  0  0  0  0  0  0  0
    3.1987    0.1030    2.1638 H   0  0  0  0  0  0  0  0  0  0  0  0
    4.6691   -0.7245    2.6483 H   0  0  0  0  0  0  0  0  0  0  0  0
    3.4560   -1.5917    1.6969 H   0  0  0  0  0  0  0  0  0  0  0  0
  1  2  1  0
  2  3  1  0
  3  4  1  0
  4  5  2  0
  5  6  1  0
  6  7  1  0
  7  8  2  3
  8  9  1  0
  9 10  1  0
 10 11  2  0
 10 12  1  0
 12 13  1  0
 13 14  1  0
 14 15  2  0
 15 16  1  0
 16 17  1  0
 16 18  2  0
 18 19  1  0
 19 20  1  0
 19 21  2  0
  6 22  2  0
 22 23  1  0
 22  3  1  0
 21 14  1  0
  1 24  1  0
  1 25  1  0
  1 26  1  0
  2 27  1  0
  2 28  1  0
  5 29  1  0
  7 30  1  0
  9 31  1  0
 12 32  1  0
 12 33  1  0
 15 34  1  0
 17 35  1  0
 17 36  1  0
 17 37  1  0
 18 38  1  0
 20 39  1  0
 20 40  1  0
 20 41  1  0
 21 42  1  0
 23 43  1  0
 23 44  1  0
 23 45  1  0
M  END
$$$$
