
     RDKit          3D

 45 47  0  0  0  0  0  0  0  0999 V2000
   -6.1890    0.0559    1.1841 C   0  0  0  0  0  0  0  0  0  0  0  0
   -5.2960    1.0756    0.4918 C   0  0  0  0  0  0  0  0  0  0  0  0
   -4.3294    0.4125   -0.3927 N   0  0  0  0  0  0  0  0  0  0  0  0
   -4.7425    0.2661   -1.7945 C   0  0  0  0  0  0  0  0  0  0  0  0
   -4.2937    1.4589   -2.6269 C   0  0  0  0  0  0  0  0  0  0  0  0
   -3.0823   -0.0080    0.0581 C   0  0  0  0  0  0  0  0  0  0  0  0
   -2.0974   -0.5117   -0.8089 C   0  0  0  0  0  0  0  0  0  0  0  0
   -0.8362   -0.9393   -0.3606 C   0  0  0  0  0  0  0  0  0  0  0  0
   -0.5002   -0.8658    0.9871 C   0  0  0  0  0  0  0  0  0  0  0  0
    0.7814   -1.3443    1.5125 C   0  0  0  0  0  0  0  0  0  0  0  0
    2.0095   -1.0221    1.0847 C   0  0  0  0  0  0  0  0  0  0  0  0
    3.2174   -1.5894    1.7470 C   0  0  0  0  0  0  0  0  0  0  0  0
    3.2731   -2.3676    2.6757 O   0  0  0  0  0  0  0  0  0  0  0  0
    4.3625   -1.0069    1.0399 C   0  0  0  0  0  0  0  0  0  0  0  0
    5.7081   -1.2212    1.2780 C   0  0  0  0  0  0  0  0  0  0  0  0
    6.6256   -0.5458    0.4639 C   0  0  0  0  0  0  0  0  0  0  0  0
    6.1856    0.3232   -0.5634 C   0  0  0  0  0  0  0  0  0  0  0  0
    7.1436    1.0463   -1.4358 C   0  0  0  0  0  0  0  0  0  0  0  0
    6.8475    1.8032   -2.3404 O   0  0  0  0  0  0  0  0  0  0  0  0
    8.4252    0.7838   -1.1300 O   0  0  0  0  0  0  0  0  0  0  0  0
    4.8146    0.5242   -0.7851 C   0  0  0  0  0  0  0  0  0  0  0  0
    3.9252   -0.1534    0.0313 C   0  0  0  0  0  0  0  0  0  0  0  0
    2.4575   -0.1093   -0.0033 C   0  0  0  0  0  0  0  0  0  0  0  0
    1.8029    0.5492   -0.7811 O   0  0  0  0  0  0  0  0  0  0  0  0
   -1.4612   -0.3887    1.8757 C   0  0  0  0  0  0  0  0  0  0  0  0
   -2.7192    0.0335    1.4149 C   0  0  0  0  0  0  0  0  0  0  0  0
   -5.6113   -0.6317    1.8091 H   0  0  0  0  0  0  0  0  0  0  0  0
   -6.9178    0.5642    1.8231 H   0  0  0  0  0  0  0  0  0  0  0  0
   -6.7399   -0.5445    0.4526 H   0  0  0  0  0  0  0  0  0  0  0  0
   -4.8028    1.7264    1.2225 H   0  0  0  0  0  0  0  0  0  0  0  0
   -5.9333    1.7492   -0.0955 H   0  0  0  0  0  0  0  0  0  0  0  0
   -4.3839   -0.6735   -2.2294 H   0  0  0  0  0  0  0  0  0  0  0  0
   -5.8367    0.1983   -1.8499 H   0  0  0  0  0  0  0  0  0  0  0  0
   -4.7140    2.3917   -2.2364 H   0  0  0  0  0  0  0  0  0  0  0  0
   -4.6288    1.3439   -3.6624 H   0  0  0  0  0  0  0  0  0  0  0  0
   -3.2047    1.5637   -2.6329 H   0  0  0  0  0  0  0  0  0  0  0  0
   -2.2732   -0.5788   -1.8777 H   0  0  0  0  0  0  0  0  0  0  0  0
   -0.1282   -1.3200   -1.0924 H   0  0  0  0  0  0  0  0  0  0  0  0
    0.6852   -2.0209    2.3621 H   0  0  0  0  0  0  0  0  0  0  0  0
    6.0388   -1.8893    2.0682 H   0  0  0  0  0  0  0  0  0  0  0  0
    7.6907   -0.6993    0.6332 H   0  0  0  0  0  0  0  0  0  0  0  0
    8.9373    1.3191   -1.7732 H   0  0  0  0  0  0  0  0  0  0  0  0
    4.4548    1.1876   -1.5681 H   0  0  0  0  0  0  0  0  0  0  0  0
   -1.2509   -0.3334    2.9414 H   0  0  0  0  0  0  0  0  0  0  0  0
   -3.4143    0.3884    2.1688 H   0  0  0  0  0  0  0  0  0  0  0  0
  1  2  1  0
  2  3  1  0
  3  4  1  0
  4  5  1  0
  3  6  1  0
  6  7  2  0
  7  8  1  0
  8  9  2  0
  9 10  1  0
 10 11  2  3
 11 12  1  0
 12 13  2  0
 12 14  1  0
 14 15  2  0
 15 16  1  0
 16 17  2  0
 17 18  1  0
 18 19  2  0
 18 20  1  0
 17 21  1  0
 21 22  2  0
 22 23  1  0
 23 24  2  0
  9 25  1  0
 25 26  2  0
 26  6  1  0
 23 11  1  0
 22 14  1  0
  1 27  1  0
  1 28  1  0
  1 29  1  0
  2 30  1  0
  2 31  1  0
  4 32  1  0
  4 33  1  0
  5 34  1  0
  5 35  1  0
  5 36  1  0
  7 37  1  0
  8 38  1  0
 10 39  1  0
 15 40  1  0
 16 41  1  0
 20 42  1  0
 21 43  1  0
 25 44  1  0
 26 45  1  0
M  END
$$$$
