
     RDKit          3D

 56 59  0  0  0  0  0  0  0  0999 V2000
    4.7972   -4.3578    1.3570 C   0  0  0  0  0  0  0  0  0  0  0  0
    4.0784   -3.2472    1.8797 O   0  0  0  0  0  0  0  0  0  0  0  0
    3.8229   -2.2170    1.0179 C   0  0  0  0  0  0  0  0  0  0  0  0
    3.0948   -1.1599    1.5713 C   0  0  0  0  0  0  0  0  0  0  0  0
    2.7592   -0.0430    0.8016 C   0  0  0  0  0  0  0  0  0  0  0  0
    3.1589    0.0242   -0.5307 C   0  0  0  0  0  0  0  0  0  0  0  0
    2.7895    1.1360   -1.3537 N   0  0  0  0  0  0  0  0  0  0  0  0
    1.4321    0.8972   -2.3652 S   0  0  0  0  0  6  0  0  0  0  0  0
    1.4650   -0.4542   -2.8905 O   0  0  0  0  0  0  0  0  0  0  0  0
    1.3358    2.0272   -3.2664 O   0  0  0  0  0  0  0  0  0  0  0  0
    0.0625    1.0183   -1.2303 C   0  0  0  0  0  0  0  0  0  0  0  0
   -0.9016   -0.0052   -1.2823 C   0  0  0  0  0  0  0  0  0  0  0  0
   -1.9965    0.0060   -0.4192 C   0  0  0  0  0  0  0  0  0  0  0  0
   -2.9135   -1.0608   -0.5258 N   0  0  0  0  0  0  0  0  0  0  0  0
   -4.0609   -1.2615    0.2182 C   0  0  0  0  0  0  0  0  0  0  0  0
   -4.4661   -0.5472    1.1299 O   0  0  0  0  0  0  0  0  0  0  0  0
   -4.8359   -2.4938   -0.0743 C   0  0  0  0  0  0  0  0  0  0  0  0
   -5.4643   -3.1351    1.0031 C   0  0  0  0  0  0  0  0  0  0  0  0
   -6.2015   -4.2979    0.7913 C   0  0  0  0  0  0  0  0  0  0  0  0
   -6.2944   -4.7861   -0.4996 C   0  0  0  0  0  0  0  0  0  0  0  0
   -5.7162   -4.1924   -1.5645 N   0  0  0  0  0  0  0  0  0  0  0  0
   -5.0111   -3.0569   -1.3314 C   0  0  0  0  0  0  0  0  0  0  0  0
   -4.3841   -2.3906   -2.7904 Cl  0  0  0  0  0  0  0  0  0  0  0  0
   -2.1188    1.0597    0.4802 C   0  0  0  0  0  0  0  0  0  0  0  0
   -1.1535    2.0779    0.5308 C   0  0  0  0  0  0  0  0  0  0  0  0
   -0.0253    2.0779   -0.3035 C   0  0  0  0  0  0  0  0  0  0  0  0
    0.9454    3.0926   -0.2445 N   0  0  0  0  0  0  0  0  0  0  0  0
    1.3078    3.6828    1.0645 C   0  0  0  0  0  0  0  0  0  0  0  0
    1.6515    5.1330    0.7454 C   0  0  0  0  0  0  0  0  0  0  0  0
    0.6531    5.4656   -0.3450 C   0  0  0  0  0  0  0  0  0  0  0  0
    0.6598    4.2012   -1.1977 C   0  0  0  0  0  0  0  0  0  0  0  0
    3.8795   -1.0302   -1.0908 C   0  0  0  0  0  0  0  0  0  0  0  0
    4.2147   -2.1481   -0.3190 C   0  0  0  0  0  0  0  0  0  0  0  0
    5.7998   -4.0611    1.0307 H   0  0  0  0  0  0  0  0  0  0  0  0
    4.2432   -4.8403    0.5451 H   0  0  0  0  0  0  0  0  0  0  0  0
    4.9121   -5.0899    2.1620 H   0  0  0  0  0  0  0  0  0  0  0  0
    2.7804   -1.2113    2.6108 H   0  0  0  0  0  0  0  0  0  0  0  0
    2.1828    0.7539    1.2574 H   0  0  0  0  0  0  0  0  0  0  0  0
    2.5790    1.9888   -0.8171 H   0  0  0  0  0  0  0  0  0  0  0  0
   -0.7863   -0.8104   -2.0054 H   0  0  0  0  0  0  0  0  0  0  0  0
   -2.6959   -1.7466   -1.2417 H   0  0  0  0  0  0  0  0  0  0  0  0
   -5.3784   -2.7288    2.0096 H   0  0  0  0  0  0  0  0  0  0  0  0
   -6.6912   -4.8073    1.6148 H   0  0  0  0  0  0  0  0  0  0  0  0
   -6.8560   -5.6905   -0.7193 H   0  0  0  0  0  0  0  0  0  0  0  0
   -2.9614    1.1339    1.1610 H   0  0  0  0  0  0  0  0  0  0  0  0
   -1.3342    2.8879    1.2320 H   0  0  0  0  0  0  0  0  0  0  0  0
    2.1705    3.1635    1.4927 H   0  0  0  0  0  0  0  0  0  0  0  0
    0.4995    3.6600    1.8004 H   0  0  0  0  0  0  0  0  0  0  0  0
    1.5632    5.7864    1.6178 H   0  0  0  0  0  0  0  0  0  0  0  0
    2.6753    5.2065    0.3593 H   0  0  0  0  0  0  0  0  0  0  0  0
   -0.3416    5.6247    0.0883 H   0  0  0  0  0  0  0  0  0  0  0  0
    0.9270    6.3565   -0.9166 H   0  0  0  0  0  0  0  0  0  0  0  0
    1.4805    4.2550   -1.9215 H   0  0  0  0  0  0  0  0  0  0  0  0
   -0.2825    4.0906   -1.7471 H   0  0  0  0  0  0  0  0  0  0  0  0
    4.1765   -0.9908   -2.1365 H   0  0  0  0  0  0  0  0  0  0  0  0
    4.7734   -2.9455   -0.7972 H   0  0  0  0  0  0  0  0  0  0  0  0
  1  2  1  0
  2  3  1  0
  3  4  2  0
  4  5  1  0
  5  6  2  0
  6  7  1  0
  7  8  1  0
  8  9  2  0
  8 10  2  0
  8 11  1  0
 11 12  2  0
 12 13  1  0
 13 14  1  0
 14 15  1  0
 15 16  2  0
 15 17  1  0
 17 18  2  0
 18 19  1  0
 19 20  2  0
 20 21  1  0
 21 22  2  0
 22 23  1  0
 13 24  2  0
 24 25  1  0
 25 26  2  0
 26 27  1  0
 27 28  1  0
 28 29  1  0
 29 30  1  0
 30 31  1  0
  6 32  1  0
 32 33  2  0
 33  3  1  0
 26 11  1  0
 31 27  1  0
 22 17  1  0
  1 34  1  0
  1 35  1  0
  1 36  1  0
  4 37  1  0
  5 38  1  0
  7 39  1  0
 12 40  1  0
 14 41  1  0
 18 42  1  0
 19 43  1  0
 20 44  1  0
 24 45  1  0
 25 46  1  0
 28 47  1  0
 28 48  1  0
 29 49  1  0
 29 50  1  0
 30 51  1  0
 30 52  1  0
 31 53  1  0
 31 54  1  0
 32 55  1  0
 33 56  1  0
M  END
$$$$
