
     RDKit          3D

 47 49  0  0  0  0  0  0  0  0999 V2000
    2.0826   -2.2231   -1.6919 O   0  0  0  0  0  0  0  0  0  0  0  0
    1.9760   -1.7212   -0.5795 C   0  0  0  0  0  0  0  0  0  0  0  0
    0.7586   -1.8920    0.2996 C   0  0  0  0  0  0  0  0  0  0  0  0
   -0.3326   -2.6739   -0.4269 C   0  0  0  0  0  0  0  0  0  0  0  0
   -1.5372   -2.8184    0.3972 N   0  0  0  0  0  0  0  0  0  0  0  0
   -2.4524   -1.7761    0.4112 C   0  0  0  0  0  0  0  0  0  0  0  0
   -2.3179   -0.7215   -0.1925 O   0  0  0  0  0  0  0  0  0  0  0  0
   -3.6029   -2.1081    1.2992 C   0  0  0  0  0  0  0  0  0  0  0  0
   -4.6955   -1.3723    1.5490 C   0  0  0  0  0  0  0  0  0  0  0  0
   -5.0081   -0.0631    0.9718 C   0  0  0  0  0  0  0  0  0  0  0  0
   -5.3485    0.0667   -0.3815 C   0  0  0  0  0  0  0  0  0  0  0  0
   -5.6634    1.3208   -0.9084 C   0  0  0  0  0  0  0  0  0  0  0  0
   -5.6438    2.4369   -0.0806 C   0  0  0  0  0  0  0  0  0  0  0  0
   -5.9478    3.6392   -0.5865 F   0  0  0  0  0  0  0  0  0  0  0  0
   -5.3175    2.3237    1.2658 C   0  0  0  0  0  0  0  0  0  0  0  0
   -5.0015    1.0709    1.7951 C   0  0  0  0  0  0  0  0  0  0  0  0
   -3.3379   -3.6441    2.0406 S   0  0  0  0  0  0  0  0  0  0  0  0
   -1.7973   -3.8852    1.2299 C   0  0  0  0  0  0  0  0  0  0  0  0
   -0.8551   -5.2335    1.5040 S   0  0  0  0  0  0  0  0  0  0  0  0
    2.9510   -0.9346   -0.0033 N   0  0  0  0  0  0  0  0  0  0  0  0
    4.2444   -0.7365   -0.6268 C   0  0  0  0  0  0  0  0  0  0  0  0
    4.2032    0.1338   -1.8846 C   0  0  0  0  0  0  0  0  0  0  0  0
    3.5277    1.4922   -1.6951 C   0  0  0  0  0  0  0  0  0  0  0  0
    4.1150    2.2948   -0.6440 N   0  0  0  0  0  0  0  0  0  0  0  0
    5.3472    2.8845   -0.6638 C   0  0  0  0  0  0  0  0  0  0  0  0
    5.4607    3.5047    0.5589 C   0  0  0  0  0  0  0  0  0  0  0  0
    4.3287    3.3129    1.3090 N   0  0  0  0  0  0  0  0  0  0  0  0
    3.5278    2.5998    0.5503 C   0  0  0  0  0  0  0  0  0  0  0  0
    1.0597   -2.4144    1.2146 H   0  0  0  0  0  0  0  0  0  0  0  0
    0.3917   -0.8992    0.5849 H   0  0  0  0  0  0  0  0  0  0  0  0
   -0.6082   -2.1521   -1.3522 H   0  0  0  0  0  0  0  0  0  0  0  0
    0.0349   -3.6614   -0.7250 H   0  0  0  0  0  0  0  0  0  0  0  0
   -5.4473   -1.7345    2.2482 H   0  0  0  0  0  0  0  0  0  0  0  0
   -5.3626   -0.8014   -1.0360 H   0  0  0  0  0  0  0  0  0  0  0  0
   -5.9191    1.4334   -1.9569 H   0  0  0  0  0  0  0  0  0  0  0  0
   -5.3097    3.2096    1.8925 H   0  0  0  0  0  0  0  0  0  0  0  0
   -4.7460    0.9894    2.8490 H   0  0  0  0  0  0  0  0  0  0  0  0
    2.8699   -0.7096    0.9821 H   0  0  0  0  0  0  0  0  0  0  0  0
    4.9014   -0.2922    0.1283 H   0  0  0  0  0  0  0  0  0  0  0  0
    4.6542   -1.7215   -0.8783 H   0  0  0  0  0  0  0  0  0  0  0  0
    5.2329    0.2798   -2.2342 H   0  0  0  0  0  0  0  0  0  0  0  0
    3.6796   -0.3980   -2.6875 H   0  0  0  0  0  0  0  0  0  0  0  0
    2.4612    1.3699   -1.4740 H   0  0  0  0  0  0  0  0  0  0  0  0
    3.5992    2.0775   -2.6194 H   0  0  0  0  0  0  0  0  0  0  0  0
    6.0193    2.8163   -1.5075 H   0  0  0  0  0  0  0  0  0  0  0  0
    6.2956    4.0797    0.9381 H   0  0  0  0  0  0  0  0  0  0  0  0
    2.5298    2.2775    0.8172 H   0  0  0  0  0  0  0  0  0  0  0  0
  1  2  2  0
  2  3  1  0
  3  4  1  0
  4  5  1  0
  5  6  1  0
  6  7  2  0
  6  8  1  0
  8  9  2  3
  9 10  1  0
 10 11  2  0
 11 12  1  0
 12 13  2  0
 13 14  1  0
 13 15  1  0
 15 16  2  0
  8 17  1  0
 17 18  1  0
 18 19  2  0
  2 20  1  0
 20 21  1  0
 21 22  1  0
 22 23  1  0
 23 24  1  0
 24 25  1  0
 25 26  2  0
 26 27  1  0
 27 28  2  0
 18  5  1  0
 28 24  1  0
 16 10  1  0
  3 29  1  0
  3 30  1  0
  4 31  1  0
  4 32  1  0
  9 33  1  0
 11 34  1  0
 12 35  1  0
 15 36  1  0
 16 37  1  0
 20 38  1  0
 21 39  1  0
 21 40  1  0
 22 41  1  0
 22 42  1  0
 23 43  1  0
 23 44  1  0
 25 45  1  0
 26 46  1  0
 28 47  1  0
M  END
$$$$
