
     RDKit          3D

 53 56  0  0  0  0  0  0  0  0999 V2000
    7.4294    2.2539   -1.3418 C   0  0  0  0  0  0  0  0  0  0  0  0
    6.9316    2.4611    0.0818 C   0  0  0  0  0  0  0  0  0  0  0  0
    5.4383    2.1729    0.2237 C   0  0  0  0  0  0  0  0  0  0  0  0
    5.2061    0.7938   -0.0601 O   0  0  0  0  0  0  0  0  0  0  0  0
    3.9139    0.3540    0.0024 C   0  0  0  0  0  0  0  0  0  0  0  0
    2.8014    1.1151    0.3489 C   0  0  0  0  0  0  0  0  0  0  0  0
    1.5261    0.5304    0.3726 C   0  0  0  0  0  0  0  0  0  0  0  0
    1.3216   -0.8247    0.0525 C   0  0  0  0  0  0  0  0  0  0  0  0
   -0.0248   -1.4365    0.0766 C   0  0  0  0  0  0  0  0  0  0  0  0
   -1.0589   -0.6702    0.4648 N   0  0  0  0  0  0  0  0  0  0  0  0
   -2.2837   -1.2259    0.4713 C   0  0  0  0  0  0  0  0  0  0  0  0
   -3.3918   -0.4258    0.8346 N   0  0  0  0  0  0  0  0  0  0  0  0
   -4.1710    0.0207   -0.3431 C   0  0  0  0  0  0  0  0  0  0  0  0
   -3.6124    1.3181   -0.9744 C   0  0  0  0  0  0  0  0  0  0  0  0
   -3.4203    2.4439   -0.0356 N   0  0  0  0  0  0  0  0  0  0  0  0
   -4.6917    3.0060    0.4120 C   0  0  0  0  0  0  0  0  0  0  0  0
   -2.5999    1.9714    1.1013 C   0  0  0  0  0  0  0  0  0  0  0  0
   -3.0817    0.6670    1.7819 C   0  0  0  0  0  0  0  0  0  0  0  0
   -2.4839   -2.5796    0.1307 C   0  0  0  0  0  0  0  0  0  0  0  0
   -3.7280   -3.2617    0.1817 C   0  0  0  0  0  0  0  0  0  0  0  0
   -3.8295   -4.6032   -0.1786 C   0  0  0  0  0  0  0  0  0  0  0  0
   -2.6913   -5.2832   -0.5862 C   0  0  0  0  0  0  0  0  0  0  0  0
   -1.4627   -4.6180   -0.6192 C   0  0  0  0  0  0  0  0  0  0  0  0
   -1.3386   -3.2806   -0.2603 C   0  0  0  0  0  0  0  0  0  0  0  0
   -0.1279   -2.7224   -0.2979 N   0  0  0  0  0  0  0  0  0  0  0  0
    2.4631   -1.5708   -0.2932 C   0  0  0  0  0  0  0  0  0  0  0  0
    3.7375   -0.9911   -0.3169 C   0  0  0  0  0  0  0  0  0  0  0  0
    8.4946    2.4970   -1.4078 H   0  0  0  0  0  0  0  0  0  0  0  0
    7.3011    1.2151   -1.6618 H   0  0  0  0  0  0  0  0  0  0  0  0
    6.8900    2.8990   -2.0426 H   0  0  0  0  0  0  0  0  0  0  0  0
    7.4981    1.7995    0.7474 H   0  0  0  0  0  0  0  0  0  0  0  0
    7.1323    3.4939    0.3873 H   0  0  0  0  0  0  0  0  0  0  0  0
    5.1365    2.3960    1.2540 H   0  0  0  0  0  0  0  0  0  0  0  0
    4.8760    2.8068   -0.4726 H   0  0  0  0  0  0  0  0  0  0  0  0
    2.8820    2.1654    0.6071 H   0  0  0  0  0  0  0  0  0  0  0  0
    0.6786    1.1557    0.6459 H   0  0  0  0  0  0  0  0  0  0  0  0
   -4.2298   -0.7550   -1.1164 H   0  0  0  0  0  0  0  0  0  0  0  0
   -5.2037    0.1902   -0.0148 H   0  0  0  0  0  0  0  0  0  0  0  0
   -2.6426    1.0970   -1.4391 H   0  0  0  0  0  0  0  0  0  0  0  0
   -4.2663    1.6309   -1.7978 H   0  0  0  0  0  0  0  0  0  0  0  0
   -4.5156    3.8717    1.0602 H   0  0  0  0  0  0  0  0  0  0  0  0
   -5.3153    2.2942    0.9617 H   0  0  0  0  0  0  0  0  0  0  0  0
   -5.2683    3.3723   -0.4447 H   0  0  0  0  0  0  0  0  0  0  0  0
   -1.5793    1.8332    0.7299 H   0  0  0  0  0  0  0  0  0  0  0  0
   -2.5211    2.7632    1.8570 H   0  0  0  0  0  0  0  0  0  0  0  0
   -4.0018    0.8823    2.3396 H   0  0  0  0  0  0  0  0  0  0  0  0
   -2.3527    0.3428    2.5359 H   0  0  0  0  0  0  0  0  0  0  0  0
   -4.6193   -2.7372    0.5198 H   0  0  0  0  0  0  0  0  0  0  0  0
   -4.7888   -5.1118   -0.1344 H   0  0  0  0  0  0  0  0  0  0  0  0
   -2.7491   -6.3309   -0.8697 H   0  0  0  0  0  0  0  0  0  0  0  0
   -0.5730   -5.1626   -0.9284 H   0  0  0  0  0  0  0  0  0  0  0  0
    2.3690   -2.6248   -0.5504 H   0  0  0  0  0  0  0  0  0  0  0  0
    4.5975   -1.5983   -0.5888 H   0  0  0  0  0  0  0  0  0  0  0  0
  1  2  1  0
  2  3  1  0
  3  4  1  0
  4  5  1  0
  5  6  2  0
  6  7  1  0
  7  8  2  0
  8  9  1  0
  9 10  2  0
 10 11  1  0
 11 12  1  0
 12 13  1  0
 13 14  1  0
 14 15  1  0
 15 16  1  0
 15 17  1  0
 17 18  1  0
 11 19  2  0
 19 20  1  0
 20 21  2  0
 21 22  1  0
 22 23  2  0
 23 24  1  0
 24 25  2  0
  8 26  1  0
 26 27  2  0
 27  5  1  0
 25  9  1  0
 18 12  1  0
 24 19  1  0
  1 28  1  0
  1 29  1  0
  1 30  1  0
  2 31  1  0
  2 32  1  0
  3 33  1  0
  3 34  1  0
  6 35  1  0
  7 36  1  0
 13 37  1  0
 13 38  1  0
 14 39  1  0
 14 40  1  0
 16 41  1  0
 16 42  1  0
 16 43  1  0
 17 44  1  0
 17 45  1  0
 18 46  1  0
 18 47  1  0
 20 48  1  0
 21 49  1  0
 22 50  1  0
 23 51  1  0
 26 52  1  0
 27 53  1  0
M  END
$$$$
