
     RDKit          3D

 43 44  0  0  0  0  0  0  0  0999 V2000
    5.7446   -1.3760    1.8801 C   0  0  0  0  0  0  0  0  0  0  0  0
    4.7052   -1.0426    0.9589 O   0  0  0  0  0  0  0  0  0  0  0  0
    4.6328    0.2783    0.6624 C   0  0  0  0  0  0  0  0  0  0  0  0
    5.3468    1.1548    1.1236 O   0  0  0  0  0  0  0  0  0  0  0  0
    3.5377    0.5413   -0.3093 C   0  0  0  0  0  0  0  0  0  0  0  0
    3.3398    1.8583   -0.7421 C   0  0  0  0  0  0  0  0  0  0  0  0
    2.3301    2.1562   -1.6612 C   0  0  0  0  0  0  0  0  0  0  0  0
    1.4754    1.1542   -2.1293 C   0  0  0  0  0  0  0  0  0  0  0  0
    0.5596    1.4552   -3.1491 N   0  0  0  0  0  0  0  0  0  0  0  0
    1.6902   -0.1801   -1.7128 C   0  0  0  0  0  0  0  0  0  0  0  0
    0.9010   -1.2359   -2.2028 N   0  0  0  0  0  0  0  0  0  0  0  0
   -0.2543   -1.4919   -1.6622 C   0  0  0  0  0  0  0  0  0  0  0  0
   -0.9207   -0.7608   -0.5206 C   0  0  0  0  0  0  0  0  0  0  0  0
   -1.4567   -1.7125    0.5242 C   0  0  0  0  0  0  0  0  0  0  0  0
   -1.1553   -2.9042    0.5548 O   0  0  0  0  0  0  0  0  0  0  0  0
   -2.3203   -1.1045    1.6112 C   0  0  0  0  0  0  0  0  0  0  0  0
   -3.4623   -0.2570    1.0208 C   0  0  0  0  0  0  0  0  0  0  0  0
   -4.1804    0.4752    2.1688 C   0  0  0  0  0  0  0  0  0  0  0  0
   -4.4881   -1.1597    0.3074 C   0  0  0  0  0  0  0  0  0  0  0  0
   -2.8963    0.7893    0.0432 C   0  0  0  0  0  0  0  0  0  0  0  0
   -2.0239    0.1474   -1.0163 C   0  0  0  0  0  0  0  0  0  0  0  0
   -2.1711    0.4273   -2.2058 O   0  0  0  0  0  0  0  0  0  0  0  0
    2.7159   -0.4759   -0.8073 C   0  0  0  0  0  0  0  0  0  0  0  0
    5.7221   -2.4576    2.0389 H   0  0  0  0  0  0  0  0  0  0  0  0
    6.7226   -1.1063    1.4694 H   0  0  0  0  0  0  0  0  0  0  0  0
    5.5771   -0.8808    2.8417 H   0  0  0  0  0  0  0  0  0  0  0  0
    3.9881    2.6570   -0.3852 H   0  0  0  0  0  0  0  0  0  0  0  0
    2.2253    3.1763   -2.0220 H   0  0  0  0  0  0  0  0  0  0  0  0
   -0.1566    0.7384   -3.2745 H   0  0  0  0  0  0  0  0  0  0  0  0
    0.1752    2.3918   -3.1363 H   0  0  0  0  0  0  0  0  0  0  0  0
   -0.8345   -2.3170   -2.1133 H   0  0  0  0  0  0  0  0  0  0  0  0
   -0.1938   -0.1242   -0.0068 H   0  0  0  0  0  0  0  0  0  0  0  0
   -1.6639   -0.4962    2.2454 H   0  0  0  0  0  0  0  0  0  0  0  0
   -2.7215   -1.9127    2.2343 H   0  0  0  0  0  0  0  0  0  0  0  0
   -5.0032    1.0926    1.7910 H   0  0  0  0  0  0  0  0  0  0  0  0
   -3.4927    1.1337    2.7114 H   0  0  0  0  0  0  0  0  0  0  0  0
   -4.5994   -0.2351    2.8905 H   0  0  0  0  0  0  0  0  0  0  0  0
   -4.0417   -1.7136   -0.5251 H   0  0  0  0  0  0  0  0  0  0  0  0
   -4.9138   -1.8943    1.0004 H   0  0  0  0  0  0  0  0  0  0  0  0
   -5.3169   -0.5682   -0.0980 H   0  0  0  0  0  0  0  0  0  0  0  0
   -3.7086    1.3337   -0.4531 H   0  0  0  0  0  0  0  0  0  0  0  0
   -2.2789    1.5283    0.5684 H   0  0  0  0  0  0  0  0  0  0  0  0
    2.8654   -1.5118   -0.5137 H   0  0  0  0  0  0  0  0  0  0  0  0
  1  2  1  0
  2  3  1  0
  3  4  2  0
  3  5  1  0
  5  6  2  0
  6  7  1  0
  7  8  2  0
  8  9  1  0
  8 10  1  0
 10 11  1  0
 11 12  2  3
 12 13  1  0
 13 14  1  0
 14 15  2  0
 14 16  1  0
 16 17  1  0
 17 18  1  0
 17 19  1  0
 17 20  1  0
 20 21  1  0
 21 22  2  0
 10 23  2  0
 23  5  1  0
 21 13  1  0
  1 24  1  0
  1 25  1  0
  1 26  1  0
  6 27  1  0
  7 28  1  0
  9 29  1  0
  9 30  1  0
 12 31  1  0
 13 32  1  0
 16 33  1  0
 16 34  1  0
 18 35  1  0
 18 36  1  0
 18 37  1  0
 19 38  1  0
 19 39  1  0
 19 40  1  0
 20 41  1  0
 20 42  1  0
 23 43  1  0
M  END
$$$$
