
     RDKit          3D

 52 54  0  0  0  0  0  0  0  0999 V2000
    0.5087   -2.1939   -1.7294 C   0  0  0  0  0  0  0  0  0  0  0  0
    1.0377   -1.7972   -0.3524 C   0  0  0  0  0  0  0  0  0  0  0  0
    0.6390   -0.4179   -0.0363 N   0  0  0  0  0  0  0  0  0  0  0  0
    1.7977    0.4628    0.1924 C   0  0  0  0  0  0  0  0  0  0  0  0
    2.6343    0.7065   -1.0484 C   0  0  0  0  0  0  0  0  0  0  0  0
    2.0681    1.2865   -2.1951 C   0  0  0  0  0  0  0  0  0  0  0  0
    2.8485    1.5293   -3.3270 C   0  0  0  0  0  0  0  0  0  0  0  0
    4.2041    1.2029   -3.3236 C   0  0  0  0  0  0  0  0  0  0  0  0
    4.7811    0.6330   -2.1893 C   0  0  0  0  0  0  0  0  0  0  0  0
    4.0018    0.3876   -1.0568 C   0  0  0  0  0  0  0  0  0  0  0  0
   -0.3905   -0.2819    1.0299 C   0  0  0  0  0  0  0  0  0  0  0  0
    0.1177   -0.4606    2.4684 C   0  0  0  0  0  0  0  0  0  0  0  0
    0.3822   -1.7111    3.0413 C   0  0  0  0  0  0  0  0  0  0  0  0
    0.8535   -1.7742    4.3455 C   0  0  0  0  0  0  0  0  0  0  0  0
    1.0861   -0.6905    5.1168 N   0  0  0  0  0  0  0  0  0  0  0  0
    0.8245    0.5097    4.5620 C   0  0  0  0  0  0  0  0  0  0  0  0
    0.3487    0.6738    3.2685 C   0  0  0  0  0  0  0  0  0  0  0  0
   -1.6540   -1.0560    0.7296 C   0  0  0  0  0  0  0  0  0  0  0  0
   -1.8818   -2.3209    1.0512 N   0  0  0  0  0  0  0  0  0  0  0  0
   -3.1306   -2.6289    0.6067 N   0  0  0  0  0  0  0  0  0  0  0  0
   -3.6879   -1.5889    0.0180 N   0  0  0  0  0  0  0  0  0  0  0  0
   -2.7721   -0.5946    0.0590 N   0  0  0  0  0  0  0  0  0  0  0  0
   -3.1155    0.7144   -0.5167 C   0  0  0  0  0  0  0  0  0  0  0  0
   -2.0185    1.2336   -1.4640 C   0  0  0  0  0  0  0  0  0  0  0  0
   -4.4137    0.6340   -1.3669 C   0  0  0  0  0  0  0  0  0  0  0  0
   -3.3780    1.7308    0.6103 C   0  0  0  0  0  0  0  0  0  0  0  0
   -0.5821   -2.1179   -1.7806 H   0  0  0  0  0  0  0  0  0  0  0  0
    0.9372   -1.5697   -2.5209 H   0  0  0  0  0  0  0  0  0  0  0  0
    0.7748   -3.2319   -1.9433 H   0  0  0  0  0  0  0  0  0  0  0  0
    2.1274   -1.9211   -0.3572 H   0  0  0  0  0  0  0  0  0  0  0  0
    0.6751   -2.5238    0.3759 H   0  0  0  0  0  0  0  0  0  0  0  0
    1.4598    1.4563    0.5180 H   0  0  0  0  0  0  0  0  0  0  0  0
    2.4303    0.0703    0.9996 H   0  0  0  0  0  0  0  0  0  0  0  0
    1.0108    1.5409   -2.2141 H   0  0  0  0  0  0  0  0  0  0  0  0
    2.3985    1.9753   -4.2111 H   0  0  0  0  0  0  0  0  0  0  0  0
    4.8122    1.3918   -4.2046 H   0  0  0  0  0  0  0  0  0  0  0  0
    5.8393    0.3786   -2.1867 H   0  0  0  0  0  0  0  0  0  0  0  0
    4.4712   -0.0539   -0.1797 H   0  0  0  0  0  0  0  0  0  0  0  0
   -0.6932    0.7687    0.9891 H   0  0  0  0  0  0  0  0  0  0  0  0
    0.2131   -2.6385    2.5034 H   0  0  0  0  0  0  0  0  0  0  0  0
    1.0600   -2.7326    4.8166 H   0  0  0  0  0  0  0  0  0  0  0  0
    1.0149    1.3674    5.2019 H   0  0  0  0  0  0  0  0  0  0  0  0
    0.1684    1.6792    2.8980 H   0  0  0  0  0  0  0  0  0  0  0  0
   -2.3654    2.1034   -2.0348 H   0  0  0  0  0  0  0  0  0  0  0  0
   -1.7180    0.4641   -2.1828 H   0  0  0  0  0  0  0  0  0  0  0  0
   -1.1269    1.5657   -0.9295 H   0  0  0  0  0  0  0  0  0  0  0  0
   -4.6558    1.6062   -1.8142 H   0  0  0  0  0  0  0  0  0  0  0  0
   -4.3120   -0.0902   -2.1854 H   0  0  0  0  0  0  0  0  0  0  0  0
   -5.2781    0.3370   -0.7621 H   0  0  0  0  0  0  0  0  0  0  0  0
   -3.6692    2.7051    0.2027 H   0  0  0  0  0  0  0  0  0  0  0  0
   -2.4995    1.8936    1.2403 H   0  0  0  0  0  0  0  0  0  0  0  0
   -4.1840    1.3878    1.2679 H   0  0  0  0  0  0  0  0  0  0  0  0
  1  2  1  0
  2  3  1  0
  3  4  1  0
  4  5  1  0
  5  6  2  0
  6  7  1  0
  7  8  2  0
  8  9  1  0
  9 10  2  0
  3 11  1  0
 11 12  1  0
 12 13  2  0
 13 14  1  0
 14 15  2  0
 15 16  1  0
 16 17  2  0
 11 18  1  0
 18 19  2  0
 19 20  1  0
 20 21  2  0
 21 22  1  0
 22 23  1  0
 23 24  1  0
 23 25  1  0
 23 26  1  0
 10  5  1  0
 17 12  1  0
 22 18  1  0
  1 27  1  0
  1 28  1  0
  1 29  1  0
  2 30  1  0
  2 31  1  0
  4 32  1  0
  4 33  1  0
  6 34  1  0
  7 35  1  0
  8 36  1  0
  9 37  1  0
 10 38  1  0
 11 39  1  0
 13 40  1  0
 14 41  1  0
 16 42  1  0
 17 43  1  0
 24 44  1  0
 24 45  1  0
 24 46  1  0
 25 47  1  0
 25 48  1  0
 25 49  1  0
 26 50  1  0
 26 51  1  0
 26 52  1  0
M  END
$$$$
