
     RDKit          3D

 34 36  0  0  0  0  0  0  0  0999 V2000
   -2.6671   -2.9847   -2.3449 O   0  0  0  0  0  0  0  0  0  0  0  0
   -2.3460   -2.0096   -1.6762 C   0  0  0  0  0  0  0  0  0  0  0  0
   -3.3096   -1.1301   -1.1968 O   0  0  0  0  0  0  0  0  0  0  0  0
   -2.9584   -0.0220   -0.4038 C   0  0  0  0  0  0  0  0  0  0  0  0
   -4.0158    0.7671    0.0519 C   0  0  0  0  0  0  0  0  0  0  0  0
   -3.7460    1.8684    0.8583 C   0  0  0  0  0  0  0  0  0  0  0  0
   -2.4291    2.1659    1.2035 C   0  0  0  0  0  0  0  0  0  0  0  0
   -1.3799    1.3650    0.7374 C   0  0  0  0  0  0  0  0  0  0  0  0
   -1.6271    0.2561   -0.0861 C   0  0  0  0  0  0  0  0  0  0  0  0
   -0.5498   -0.6210   -0.6052 C   0  0  0  0  0  0  0  0  0  0  0  0
    0.7639   -0.2504   -0.2734 N   0  0  0  0  0  0  0  0  0  0  0  0
    1.5978   -1.1095    0.5831 C   0  0  0  0  0  0  0  0  0  0  0  0
    2.4882   -0.2357    1.4643 C   0  0  0  0  0  0  0  0  0  0  0  0
    3.1864    0.8848    0.6895 C   0  0  0  0  0  0  0  0  0  0  0  0
    2.9910    0.7532   -0.8157 C   0  0  0  0  0  0  0  0  0  0  0  0
    1.5104    0.6521   -1.1803 C   0  0  0  0  0  0  0  0  0  0  0  0
   -0.9691   -1.6729   -1.3321 C   0  0  0  0  0  0  0  0  0  0  0  0
    0.0189   -2.5489   -1.8725 N   0  0  0  0  0  4  0  0  0  0  0  0
    0.5015   -2.2492   -2.9741 O   0  0  0  0  0  0  0  0  0  0  0  0
    0.3319   -3.5354   -1.1903 O   0  0  0  0  0  1  0  0  0  0  0  0
   -5.0402    0.5225   -0.2158 H   0  0  0  0  0  0  0  0  0  0  0  0
   -4.5595    2.4911    1.2223 H   0  0  0  0  0  0  0  0  0  0  0  0
   -2.2143    3.0216    1.8396 H   0  0  0  0  0  0  0  0  0  0  0  0
   -0.3642    1.6189    1.0326 H   0  0  0  0  0  0  0  0  0  0  0  0
    2.2083   -1.7805   -0.0329 H   0  0  0  0  0  0  0  0  0  0  0  0
    0.9719   -1.7394    1.2270 H   0  0  0  0  0  0  0  0  0  0  0  0
    1.8864    0.2136    2.2645 H   0  0  0  0  0  0  0  0  0  0  0  0
    3.2343   -0.8676    1.9602 H   0  0  0  0  0  0  0  0  0  0  0  0
    4.2558    0.8937    0.9294 H   0  0  0  0  0  0  0  0  0  0  0  0
    2.7877    1.8518    1.0211 H   0  0  0  0  0  0  0  0  0  0  0  0
    3.4413    1.6087   -1.3316 H   0  0  0  0  0  0  0  0  0  0  0  0
    3.5206   -0.1388   -1.1733 H   0  0  0  0  0  0  0  0  0  0  0  0
    1.4202    0.3109   -2.2181 H   0  0  0  0  0  0  0  0  0  0  0  0
    1.0598    1.6503   -1.1277 H   0  0  0  0  0  0  0  0  0  0  0  0
  1  2  2  0
  2  3  1  0
  3  4  1  0
  4  5  2  0
  5  6  1  0
  6  7  2  0
  7  8  1  0
  8  9  2  0
  9 10  1  0
 10 11  1  0
 11 12  1  0
 12 13  1  0
 13 14  1  0
 14 15  1  0
 15 16  1  0
 10 17  2  0
 17 18  1  0
 18 19  2  0
 18 20  1  0
 17  2  1  0
  9  4  1  0
 16 11  1  0
  5 21  1  0
  6 22  1  0
  7 23  1  0
  8 24  1  0
 12 25  1  0
 12 26  1  0
 13 27  1  0
 13 28  1  0
 14 29  1  0
 14 30  1  0
 15 31  1  0
 15 32  1  0
 16 33  1  0
 16 34  1  0
M  CHG  2  18   1  20  -1
M  END
$$$$
