
     RDKit          3D

 39 41  0  0  0  0  0  0  0  0999 V2000
    0.2917   -0.9874   -1.8084 O   0  0  0  0  0  0  0  0  0  0  0  0
    0.0708   -0.5359   -0.6882 C   0  0  0  0  0  0  0  0  0  0  0  0
    1.0715   -0.2858    0.2235 N   0  0  0  0  0  0  0  0  0  0  0  0
    2.4810   -0.3834   -0.1154 C   0  0  0  0  0  0  0  0  0  0  0  0
    2.9638    0.8776   -0.8366 C   0  0  0  0  0  0  0  0  0  0  0  0
    4.4209    0.7537   -1.2884 C   0  0  0  0  0  0  0  0  0  0  0  0
    5.2581   -0.1772   -0.4099 C   0  0  0  0  0  0  0  0  0  0  0  0
    4.7698   -0.1838    1.0315 C   0  0  0  0  0  0  0  0  0  0  0  0
    3.3180   -0.6561    1.1447 C   0  0  0  0  0  0  0  0  0  0  0  0
   -1.3335   -0.2327   -0.2608 C   0  0  0  0  0  0  0  0  0  0  0  0
   -2.3603   -0.6183   -1.1397 C   0  0  0  0  0  0  0  0  0  0  0  0
   -3.7118   -0.3836   -0.8381 C   0  0  0  0  0  0  0  0  0  0  0  0
   -4.7346   -0.7722   -1.7180 C   0  0  0  0  0  0  0  0  0  0  0  0
   -6.0735   -0.5333   -1.4056 C   0  0  0  0  0  0  0  0  0  0  0  0
   -6.4065    0.0967   -0.2105 C   0  0  0  0  0  0  0  0  0  0  0  0
   -5.4012    0.4893    0.6747 C   0  0  0  0  0  0  0  0  0  0  0  0
   -4.0487    0.2559    0.3748 C   0  0  0  0  0  0  0  0  0  0  0  0
   -3.0251    0.6454    1.2534 C   0  0  0  0  0  0  0  0  0  0  0  0
   -1.6825    0.4049    0.9382 C   0  0  0  0  0  0  0  0  0  0  0  0
   -0.7198    0.8148    1.8267 O   0  0  0  0  0  0  0  0  0  0  0  0
    0.8008    0.2177    1.0645 H   0  0  0  0  0  0  0  0  0  0  0  0
    2.5956   -1.2336   -0.8010 H   0  0  0  0  0  0  0  0  0  0  0  0
    2.3335    1.1022   -1.7055 H   0  0  0  0  0  0  0  0  0  0  0  0
    2.8646    1.7401   -0.1636 H   0  0  0  0  0  0  0  0  0  0  0  0
    4.4588    0.3880   -2.3218 H   0  0  0  0  0  0  0  0  0  0  0  0
    4.8698    1.7543   -1.3027 H   0  0  0  0  0  0  0  0  0  0  0  0
    6.3108    0.1244   -0.4538 H   0  0  0  0  0  0  0  0  0  0  0  0
    5.2094   -1.1976   -0.8107 H   0  0  0  0  0  0  0  0  0  0  0  0
    4.8528    0.8307    1.4419 H   0  0  0  0  0  0  0  0  0  0  0  0
    5.4129   -0.8221    1.6479 H   0  0  0  0  0  0  0  0  0  0  0  0
    3.2972   -1.7346    1.3480 H   0  0  0  0  0  0  0  0  0  0  0  0
    2.8696   -0.1815    2.0271 H   0  0  0  0  0  0  0  0  0  0  0  0
   -2.0992   -1.1124   -2.0753 H   0  0  0  0  0  0  0  0  0  0  0  0
   -4.4936   -1.2660   -2.6575 H   0  0  0  0  0  0  0  0  0  0  0  0
   -6.8546   -0.8397   -2.0967 H   0  0  0  0  0  0  0  0  0  0  0  0
   -7.4493    0.2831    0.0333 H   0  0  0  0  0  0  0  0  0  0  0  0
   -5.6849    0.9803    1.6029 H   0  0  0  0  0  0  0  0  0  0  0  0
   -3.2887    1.1397    2.1849 H   0  0  0  0  0  0  0  0  0  0  0  0
   -1.1535    1.2381    2.5885 H   0  0  0  0  0  0  0  0  0  0  0  0
  1  2  2  0
  2  3  1  0
  3  4  1  0
  4  5  1  0
  5  6  1  0
  6  7  1  0
  7  8  1  0
  8  9  1  0
  2 10  1  0
 10 11  2  0
 11 12  1  0
 12 13  2  0
 13 14  1  0
 14 15  2  0
 15 16  1  0
 16 17  2  0
 17 18  1  0
 18 19  2  0
 19 20  1  0
  9  4  1  0
 19 10  1  0
 17 12  1  0
  3 21  1  0
  4 22  1  0
  5 23  1  0
  5 24  1  0
  6 25  1  0
  6 26  1  0
  7 27  1  0
  7 28  1  0
  8 29  1  0
  8 30  1  0
  9 31  1  0
  9 32  1  0
 11 33  1  0
 13 34  1  0
 14 35  1  0
 15 36  1  0
 16 37  1  0
 18 38  1  0
 20 39  1  0
M  END
$$$$
