
     RDKit          3D

 55 57  0  0  0  0  0  0  0  0999 V2000
    6.6593    0.0410   -2.7241 C   0  0  0  0  0  0  0  0  0  0  0  0
    5.2688   -0.0722   -2.9972 O   0  0  0  0  0  0  0  0  0  0  0  0
    4.4258   -0.0750   -1.9206 C   0  0  0  0  0  0  0  0  0  0  0  0
    4.8006    0.0292   -0.5830 C   0  0  0  0  0  0  0  0  0  0  0  0
    3.8283    0.0131    0.4250 C   0  0  0  0  0  0  0  0  0  0  0  0
    2.4623   -0.1059    0.1165 C   0  0  0  0  0  0  0  0  0  0  0  0
    1.4306   -0.1143    1.2431 C   0  0  0  0  0  0  0  0  0  0  0  0
    0.6314   -1.7726    1.3241 S   0  0  0  0  0  0  0  0  0  0  0  0
   -0.7375   -1.4132    2.4132 C   0  0  0  0  0  0  0  0  0  0  0  0
   -0.7781   -2.1192    3.6253 C   0  0  0  0  0  0  0  0  0  0  0  0
   -1.8611   -1.9842    4.4923 C   0  0  0  0  0  0  0  0  0  0  0  0
   -2.9211   -1.1541    4.1482 C   0  0  0  0  0  0  0  0  0  0  0  0
   -2.8987   -0.4580    2.9378 C   0  0  0  0  0  0  0  0  0  0  0  0
   -1.8111   -0.5703    2.0563 C   0  0  0  0  0  0  0  0  0  0  0  0
   -1.8350    0.1721    0.8349 N   0  0  0  0  0  0  0  0  0  0  0  0
   -3.0356    0.0813   -0.0123 C   0  0  0  0  0  0  0  0  0  0  0  0
   -2.9009   -1.0337   -1.0730 C   0  0  0  0  0  0  0  0  0  0  0  0
   -4.1170   -1.2297   -1.8904 N   0  0  0  0  0  0  0  0  0  0  0  0
   -3.9881   -2.4587   -2.6797 C   0  0  0  0  0  0  0  0  0  0  0  0
   -4.3471   -0.0944   -2.7888 C   0  0  0  0  0  0  0  0  0  0  0  0
   -0.7390    0.8721    0.3198 C   0  0  0  0  0  0  0  0  0  0  0  0
   -0.7529    1.3591   -0.8158 O   0  0  0  0  0  0  0  0  0  0  0  0
    0.4642    1.0887    1.2553 C   0  0  0  0  0  0  0  0  0  0  0  0
    1.1912    2.2896    0.9240 O   0  0  0  0  0  0  0  0  0  0  0  0
    0.5175    3.4470    1.1567 C   0  0  0  0  0  0  0  0  0  0  0  0
    1.3053    4.6131    0.6457 C   0  0  0  0  0  0  0  0  0  0  0  0
   -0.5635    3.5318    1.7219 O   0  0  0  0  0  0  0  0  0  0  0  0
    2.0996   -0.2146   -1.2333 C   0  0  0  0  0  0  0  0  0  0  0  0
    3.0728   -0.1968   -2.2371 C   0  0  0  0  0  0  0  0  0  0  0  0
    7.1904    0.0241   -3.6807 H   0  0  0  0  0  0  0  0  0  0  0  0
    6.8890    0.9923   -2.2327 H   0  0  0  0  0  0  0  0  0  0  0  0
    7.0158   -0.8075   -2.1306 H   0  0  0  0  0  0  0  0  0  0  0  0
    5.8397    0.1236   -0.2866 H   0  0  0  0  0  0  0  0  0  0  0  0
    4.1545    0.0956    1.4599 H   0  0  0  0  0  0  0  0  0  0  0  0
    1.9978   -0.0402    2.1812 H   0  0  0  0  0  0  0  0  0  0  0  0
    0.0297   -2.7961    3.8975 H   0  0  0  0  0  0  0  0  0  0  0  0
   -1.8810   -2.5354    5.4293 H   0  0  0  0  0  0  0  0  0  0  0  0
   -3.7681   -1.0438    4.8215 H   0  0  0  0  0  0  0  0  0  0  0  0
   -3.7292    0.2086    2.7166 H   0  0  0  0  0  0  0  0  0  0  0  0
   -3.1741    1.0542   -0.4975 H   0  0  0  0  0  0  0  0  0  0  0  0
   -3.9314   -0.0957    0.5906 H   0  0  0  0  0  0  0  0  0  0  0  0
   -2.0296   -0.8469   -1.7144 H   0  0  0  0  0  0  0  0  0  0  0  0
   -2.6885   -1.9663   -0.5328 H   0  0  0  0  0  0  0  0  0  0  0  0
   -3.1349   -2.4222   -3.3670 H   0  0  0  0  0  0  0  0  0  0  0  0
   -3.8665   -3.3275   -2.0231 H   0  0  0  0  0  0  0  0  0  0  0  0
   -4.8967   -2.6373   -3.2657 H   0  0  0  0  0  0  0  0  0  0  0  0
   -5.2297   -0.2730   -3.4138 H   0  0  0  0  0  0  0  0  0  0  0  0
   -4.5578    0.8199   -2.2256 H   0  0  0  0  0  0  0  0  0  0  0  0
   -3.4924    0.0914   -3.4493 H   0  0  0  0  0  0  0  0  0  0  0  0
    0.0944    1.2187    2.2813 H   0  0  0  0  0  0  0  0  0  0  0  0
    0.7271    5.5307    0.7867 H   0  0  0  0  0  0  0  0  0  0  0  0
    1.5006    4.4888   -0.4225 H   0  0  0  0  0  0  0  0  0  0  0  0
    2.2425    4.6987    1.2011 H   0  0  0  0  0  0  0  0  0  0  0  0
    1.0588   -0.3199   -1.5302 H   0  0  0  0  0  0  0  0  0  0  0  0
    2.7686   -0.2801   -3.2778 H   0  0  0  0  0  0  0  0  0  0  0  0
  1  2  1  0
  2  3  1  0
  3  4  2  0
  4  5  1  0
  5  6  2  0
  6  7  1  0
  7  8  1  0
  8  9  1  0
  9 10  2  0
 10 11  1  0
 11 12  2  0
 12 13  1  0
 13 14  2  0
 14 15  1  0
 15 16  1  0
 16 17  1  0
 17 18  1  0
 18 19  1  0
 18 20  1  0
 15 21  1  0
 21 22  2  0
 21 23  1  0
 23 24  1  0
 24 25  1  0
 25 26  1  0
 25 27  2  0
  6 28  1  0
 28 29  2  0
 29  3  1  0
 23  7  1  0
 14  9  1  0
  1 30  1  0
  1 31  1  0
  1 32  1  0
  4 33  1  0
  5 34  1  0
  7 35  1  0
 10 36  1  0
 11 37  1  0
 12 38  1  0
 13 39  1  0
 16 40  1  0
 16 41  1  0
 17 42  1  0
 17 43  1  0
 19 44  1  0
 19 45  1  0
 19 46  1  0
 20 47  1  0
 20 48  1  0
 20 49  1  0
 23 50  1  0
 26 51  1  0
 26 52  1  0
 26 53  1  0
 28 54  1  0
 29 55  1  0
M  END
$$$$
