
     RDKit          3D

 47 50  0  0  0  0  0  0  0  0999 V2000
   -2.2284    0.5091    2.2356 O   0  0  0  0  0  0  0  0  0  0  0  0
   -2.8405    0.4903    1.1611 C   0  0  0  0  0  0  0  0  0  0  0  0
   -4.2579    1.1189    1.0248 C   0  0  0  0  0  0  0  0  0  0  0  0
   -4.8698    1.7962    2.2877 C   0  0  0  0  0  0  0  0  0  0  0  0
   -6.2399    1.2637    1.8321 C   0  0  0  0  0  0  0  0  0  0  0  0
   -5.4791    0.1573    1.0796 C   0  0  0  0  0  0  0  0  0  0  0  0
   -2.3164   -0.0736    0.0012 N   0  0  0  0  0  0  0  0  0  0  0  0
   -2.9848   -0.1094   -1.3099 C   0  0  0  0  0  0  0  0  0  0  0  0
   -2.0162   -0.7508   -2.3108 C   0  0  0  0  0  0  0  0  0  0  0  0
   -0.8803   -1.1580   -1.4294 C   0  0  0  0  0  0  0  0  0  0  0  0
    0.2671   -1.8410   -1.8069 C   0  0  0  0  0  0  0  0  0  0  0  0
    1.2184   -2.1108   -0.8194 C   0  0  0  0  0  0  0  0  0  0  0  0
    2.7229   -2.9513   -1.2475 S   0  0  0  0  0  6  0  0  0  0  0  0
    2.7699   -3.1170   -2.6832 O   0  0  0  0  0  0  0  0  0  0  0  0
    2.8680   -4.0655   -0.3393 O   0  0  0  0  0  0  0  0  0  0  0  0
    3.8721   -1.8229   -0.8242 N   0  0  0  0  0  0  0  0  0  0  0  0
    4.1577   -0.7289   -1.7527 C   0  0  0  0  0  0  0  0  0  0  0  0
    4.7065    0.4791   -1.0242 C   0  0  0  0  0  0  0  0  0  0  0  0
    3.8423    1.3341   -0.3409 C   0  0  0  0  0  0  0  0  0  0  0  0
    4.3771    2.4142    0.3550 C   0  0  0  0  0  0  0  0  0  0  0  0
    5.7529    2.6078    0.3583 C   0  0  0  0  0  0  0  0  0  0  0  0
    6.5423    1.7056   -0.3342 C   0  0  0  0  0  0  0  0  0  0  0  0
    6.0534    0.6471   -1.0174 N   0  0  0  0  0  0  0  0  0  0  0  0
    1.0191   -1.7095    0.5127 C   0  0  0  0  0  0  0  0  0  0  0  0
   -0.1411   -1.0151    0.8704 C   0  0  0  0  0  0  0  0  0  0  0  0
   -1.0831   -0.7434   -0.1101 C   0  0  0  0  0  0  0  0  0  0  0  0
   -4.3133    1.8097    0.1709 H   0  0  0  0  0  0  0  0  0  0  0  0
   -4.7805    2.8850    2.3304 H   0  0  0  0  0  0  0  0  0  0  0  0
   -4.5348    1.3757    3.2431 H   0  0  0  0  0  0  0  0  0  0  0  0
   -6.9088    0.9259    2.6272 H   0  0  0  0  0  0  0  0  0  0  0  0
   -6.7836    1.9511    1.1739 H   0  0  0  0  0  0  0  0  0  0  0  0
   -5.3110   -0.7488    1.6734 H   0  0  0  0  0  0  0  0  0  0  0  0
   -5.9079   -0.1256    0.1148 H   0  0  0  0  0  0  0  0  0  0  0  0
   -3.2576    0.9059   -1.6159 H   0  0  0  0  0  0  0  0  0  0  0  0
   -3.9029   -0.6998   -1.2182 H   0  0  0  0  0  0  0  0  0  0  0  0
   -2.4727   -1.6104   -2.8103 H   0  0  0  0  0  0  0  0  0  0  0  0
   -1.6856   -0.0227   -3.0583 H   0  0  0  0  0  0  0  0  0  0  0  0
    0.4171   -2.1527   -2.8367 H   0  0  0  0  0  0  0  0  0  0  0  0
    4.6490   -2.1797   -0.2697 H   0  0  0  0  0  0  0  0  0  0  0  0
    3.2610   -0.4250   -2.3040 H   0  0  0  0  0  0  0  0  0  0  0  0
    4.8974   -1.0712   -2.4855 H   0  0  0  0  0  0  0  0  0  0  0  0
    2.7706    1.1593   -0.3402 H   0  0  0  0  0  0  0  0  0  0  0  0
    3.7252    3.0947    0.8957 H   0  0  0  0  0  0  0  0  0  0  0  0
    6.2003    3.4384    0.8925 H   0  0  0  0  0  0  0  0  0  0  0  0
    7.6233    1.8116   -0.3568 H   0  0  0  0  0  0  0  0  0  0  0  0
    1.7652   -1.9352    1.2722 H   0  0  0  0  0  0  0  0  0  0  0  0
   -0.2826   -0.7124    1.9027 H   0  0  0  0  0  0  0  0  0  0  0  0
  1  2  2  0
  2  3  1  0
  3  4  1  0
  4  5  1  0
  5  6  1  0
  2  7  1  0
  7  8  1  0
  8  9  1  0
  9 10  1  0
 10 11  2  0
 11 12  1  0
 12 13  1  0
 13 14  2  0
 13 15  2  0
 13 16  1  0
 16 17  1  0
 17 18  1  0
 18 19  2  0
 19 20  1  0
 20 21  2  0
 21 22  1  0
 22 23  2  0
 12 24  2  0
 24 25  1  0
 25 26  2  0
  6  3  1  0
 26  7  1  0
 26 10  1  0
 23 18  1  0
  3 27  1  0
  4 28  1  0
  4 29  1  0
  5 30  1  0
  5 31  1  0
  6 32  1  0
  6 33  1  0
  8 34  1  0
  8 35  1  0
  9 36  1  0
  9 37  1  0
 11 38  1  0
 16 39  1  0
 17 40  1  0
 17 41  1  0
 19 42  1  0
 20 43  1  0
 21 44  1  0
 22 45  1  0
 24 46  1  0
 25 47  1  0
M  END
$$$$
