
     RDKit          3D

 43 45  0  0  0  0  0  0  0  0999 V2000
    2.1540    3.3714   -1.1569 O   0  0  0  0  0  0  0  0  0  0  0  0
    2.3458    2.1772   -0.8993 C   0  0  0  0  0  0  0  0  0  0  0  0
    3.5849    1.4747   -1.5001 C   0  0  0  0  0  0  0  0  0  0  0  0
    4.7911    1.6017   -0.5827 C   0  0  0  0  0  0  0  0  0  0  0  0
    5.7013    0.5260   -1.1172 C   0  0  0  0  0  0  0  0  0  0  0  0
    4.7230   -0.5574   -1.5145 C   0  0  0  0  0  0  0  0  0  0  0  0
    3.4834    0.0892   -1.8388 O   0  0  0  0  0  0  0  0  0  0  0  0
    1.5092    1.4893   -0.0339 N   0  0  0  0  0  0  0  0  0  0  0  0
    1.6746    0.0864    0.3586 C   0  0  0  0  0  0  0  0  0  0  0  0
    0.7803   -0.3128    1.5437 C   0  0  0  0  0  0  0  0  0  0  0  0
   -0.6485   -0.0346    1.2753 N   0  0  0  0  0  0  0  0  0  0  0  0
   -1.6638   -1.0045    1.4398 C   0  0  0  0  0  0  0  0  0  0  0  0
   -1.3946   -2.5536    2.0426 S   0  0  0  0  0  0  0  0  0  0  0  0
   -2.9253   -0.5197    1.1134 N   0  0  0  0  0  0  0  0  0  0  0  0
   -4.0754   -1.2052    0.6640 C   0  0  0  0  0  0  0  0  0  0  0  0
   -5.3159   -0.5806    0.8581 C   0  0  0  0  0  0  0  0  0  0  0  0
   -6.4926   -1.1830    0.4050 C   0  0  0  0  0  0  0  0  0  0  0  0
   -6.4259   -2.4005   -0.2588 C   0  0  0  0  0  0  0  0  0  0  0  0
   -7.5533   -2.9774   -0.6947 F   0  0  0  0  0  0  0  0  0  0  0  0
   -5.2045   -3.0204   -0.4863 C   0  0  0  0  0  0  0  0  0  0  0  0
   -4.0275   -2.4179   -0.0313 C   0  0  0  0  0  0  0  0  0  0  0  0
   -0.8952    1.2476    0.5789 C   0  0  0  0  0  0  0  0  0  0  0  0
    0.3305    2.1704    0.5034 C   0  0  0  0  0  0  0  0  0  0  0  0
    3.7932    1.9902   -2.4475 H   0  0  0  0  0  0  0  0  0  0  0  0
    5.2404    2.5988   -0.6127 H   0  0  0  0  0  0  0  0  0  0  0  0
    4.5258    1.3891    0.4595 H   0  0  0  0  0  0  0  0  0  0  0  0
    6.4493    0.1836   -0.3969 H   0  0  0  0  0  0  0  0  0  0  0  0
    6.2288    0.8955   -2.0046 H   0  0  0  0  0  0  0  0  0  0  0  0
    5.0697   -1.1386   -2.3737 H   0  0  0  0  0  0  0  0  0  0  0  0
    4.5346   -1.2458   -0.6845 H   0  0  0  0  0  0  0  0  0  0  0  0
    1.4177   -0.5260   -0.5130 H   0  0  0  0  0  0  0  0  0  0  0  0
    2.7195   -0.0939    0.6212 H   0  0  0  0  0  0  0  0  0  0  0  0
    0.9695   -1.3591    1.7859 H   0  0  0  0  0  0  0  0  0  0  0  0
    1.0483    0.2759    2.4297 H   0  0  0  0  0  0  0  0  0  0  0  0
   -3.1015    0.4122    1.4610 H   0  0  0  0  0  0  0  0  0  0  0  0
   -5.3855    0.3724    1.3762 H   0  0  0  0  0  0  0  0  0  0  0  0
   -7.4565   -0.7109    0.5659 H   0  0  0  0  0  0  0  0  0  0  0  0
   -5.1702   -3.9631   -1.0224 H   0  0  0  0  0  0  0  0  0  0  0  0
   -3.0836   -2.9018   -0.2614 H   0  0  0  0  0  0  0  0  0  0  0  0
   -1.2321    0.9987   -0.4354 H   0  0  0  0  0  0  0  0  0  0  0  0
   -1.7049    1.7827    1.0851 H   0  0  0  0  0  0  0  0  0  0  0  0
    0.0819    3.0565   -0.0897 H   0  0  0  0  0  0  0  0  0  0  0  0
    0.6001    2.5171    1.5084 H   0  0  0  0  0  0  0  0  0  0  0  0
  1  2  2  0
  2  3  1  0
  3  4  1  0
  4  5  1  0
  5  6  1  0
  6  7  1  0
  2  8  1  0
  8  9  1  0
  9 10  1  0
 10 11  1  0
 11 12  1  0
 12 13  2  0
 12 14  1  0
 14 15  1  0
 15 16  2  0
 16 17  1  0
 17 18  2  0
 18 19  1  0
 18 20  1  0
 20 21  2  0
 11 22  1  0
 22 23  1  0
  7  3  1  0
 23  8  1  0
 21 15  1  0
  3 24  1  0
  4 25  1  0
  4 26  1  0
  5 27  1  0
  5 28  1  0
  6 29  1  0
  6 30  1  0
  9 31  1  0
  9 32  1  0
 10 33  1  0
 10 34  1  0
 14 35  1  0
 16 36  1  0
 17 37  1  0
 20 38  1  0
 21 39  1  0
 22 40  1  0
 22 41  1  0
 23 42  1  0
 23 43  1  0
M  END
$$$$
