
     RDKit          3D

 55 59  0  0  0  0  0  0  0  0999 V2000
   -5.8621    1.5166    3.3101 C   0  0  0  0  0  0  0  0  0  0  0  0
   -5.2571    1.2809    1.9553 C   0  0  0  0  0  0  0  0  0  0  0  0
   -3.9342    1.6518    1.6944 C   0  0  0  0  0  0  0  0  0  0  0  0
   -3.3631    1.4072    0.4427 C   0  0  0  0  0  0  0  0  0  0  0  0
   -4.1034    0.7782   -0.5698 C   0  0  0  0  0  0  0  0  0  0  0  0
   -3.4985    0.5341   -1.9311 C   0  0  0  0  0  0  0  0  0  0  0  0
   -3.2161   -1.2202   -2.3125 S   0  0  0  0  0  0  0  0  0  0  0  0
   -1.9567   -1.5507   -1.1342 C   0  0  0  0  0  0  0  0  0  0  0  0
   -2.3352   -2.1610   -0.0447 N   0  0  0  0  0  0  0  0  0  0  0  0
   -1.3924   -2.4561    0.9633 C   0  0  0  0  0  0  0  0  0  0  0  0
   -1.8291   -3.0665    2.1394 C   0  0  0  0  0  0  0  0  0  0  0  0
   -0.9204   -3.3721    3.1602 C   0  0  0  0  0  0  0  0  0  0  0  0
    0.4335   -3.0667    3.0096 C   0  0  0  0  0  0  0  0  0  0  0  0
    0.8837   -2.4551    1.8380 C   0  0  0  0  0  0  0  0  0  0  0  0
   -0.0282   -2.1499    0.8211 C   0  0  0  0  0  0  0  0  0  0  0  0
    0.3634   -1.4989   -0.4158 C   0  0  0  0  0  0  0  0  0  0  0  0
    1.5642   -1.1272   -0.8075 N   0  0  0  0  0  0  0  0  0  0  0  0
    1.3797   -0.5504   -2.0442 C   0  0  0  0  0  0  0  0  0  0  0  0
    2.5542   -0.0190   -2.7869 C   0  0  0  0  0  0  0  0  0  0  0  0
    3.0574    1.2699   -2.1629 C   0  0  0  0  0  0  0  0  0  0  0  0
    2.9985    2.3458   -2.7498 O   0  0  0  0  0  0  0  0  0  0  0  0
    3.6023    1.1089   -0.9045 N   0  0  0  0  0  0  0  0  0  0  0  0
    4.1618    2.1999   -0.1445 C   0  0  0  0  0  0  0  0  0  0  0  0
    5.6273    2.2359   -0.3758 C   0  0  0  0  0  0  0  0  0  0  0  0
    6.4338    2.9788   -1.2151 C   0  0  0  0  0  0  0  0  0  0  0  0
    7.7648    2.5456   -0.9763 C   0  0  0  0  0  0  0  0  0  0  0  0
    7.6842    1.5698   -0.0095 C   0  0  0  0  0  0  0  0  0  0  0  0
    6.3909    1.3744    0.3630 O   0  0  0  0  0  0  0  0  0  0  0  0
    0.0388   -0.5552   -2.3950 C   0  0  0  0  0  0  0  0  0  0  0  0
   -0.6018   -0.0701   -3.4583 O   0  0  0  0  0  0  0  0  0  0  0  0
   -0.6102   -1.2014   -1.3517 N   0  0  0  0  0  0  0  0  0  0  0  0
   -5.4222    0.3902   -0.2970 C   0  0  0  0  0  0  0  0  0  0  0  0
   -5.9915    0.6349    0.9531 C   0  0  0  0  0  0  0  0  0  0  0  0
   -5.6619    0.6618    3.9678 H   0  0  0  0  0  0  0  0  0  0  0  0
   -6.9438    1.6566    3.2322 H   0  0  0  0  0  0  0  0  0  0  0  0
   -5.4509    2.4219    3.7700 H   0  0  0  0  0  0  0  0  0  0  0  0
   -3.3397    2.1369    2.4673 H   0  0  0  0  0  0  0  0  0  0  0  0
   -2.3350    1.7150    0.2690 H   0  0  0  0  0  0  0  0  0  0  0  0
   -4.1737    0.9407   -2.6919 H   0  0  0  0  0  0  0  0  0  0  0  0
   -2.5613    1.0905   -2.0349 H   0  0  0  0  0  0  0  0  0  0  0  0
   -2.8846   -3.3007    2.2589 H   0  0  0  0  0  0  0  0  0  0  0  0
   -1.2726   -3.8474    4.0728 H   0  0  0  0  0  0  0  0  0  0  0  0
    1.1362   -3.3012    3.8044 H   0  0  0  0  0  0  0  0  0  0  0  0
    1.9377   -2.2158    1.7212 H   0  0  0  0  0  0  0  0  0  0  0  0
    3.3695   -0.7519   -2.7844 H   0  0  0  0  0  0  0  0  0  0  0  0
    2.3023    0.1734   -3.8342 H   0  0  0  0  0  0  0  0  0  0  0  0
    3.4298    0.2359   -0.4176 H   0  0  0  0  0  0  0  0  0  0  0  0
    3.6921    3.1493   -0.4229 H   0  0  0  0  0  0  0  0  0  0  0  0
    3.9470    2.0098    0.9148 H   0  0  0  0  0  0  0  0  0  0  0  0
    6.0940    3.7232   -1.9319 H   0  0  0  0  0  0  0  0  0  0  0  0
    8.6685    2.8955   -1.4555 H   0  0  0  0  0  0  0  0  0  0  0  0
    8.4157    0.9502    0.4993 H   0  0  0  0  0  0  0  0  0  0  0  0
    0.0444    0.3605   -4.0494 H   0  0  0  0  0  0  0  0  0  0  0  0
   -6.0155   -0.1136   -1.0582 H   0  0  0  0  0  0  0  0  0  0  0  0
   -7.0141    0.3156    1.1401 H   0  0  0  0  0  0  0  0  0  0  0  0
  1  2  1  0
  2  3  2  0
  3  4  1  0
  4  5  2  0
  5  6  1  0
  6  7  1  0
  7  8  1  0
  8  9  2  0
  9 10  1  0
 10 11  2  0
 11 12  1  0
 12 13  2  0
 13 14  1  0
 14 15  2  0
 15 16  1  0
 16 17  2  0
 17 18  1  0
 18 19  1  0
 19 20  1  0
 20 21  2  0
 20 22  1  0
 22 23  1  0
 23 24  1  0
 24 25  2  0
 25 26  1  0
 26 27  2  0
 27 28  1  0
 18 29  2  0
 29 30  1  0
 29 31  1  0
  5 32  1  0
 32 33  2  0
 33  2  1  0
 31  8  1  0
 15 10  1  0
 31 16  1  0
 28 24  1  0
  1 34  1  0
  1 35  1  0
  1 36  1  0
  3 37  1  0
  4 38  1  0
  6 39  1  0
  6 40  1  0
 11 41  1  0
 12 42  1  0
 13 43  1  0
 14 44  1  0
 19 45  1  0
 19 46  1  0
 22 47  1  0
 23 48  1  0
 23 49  1  0
 25 50  1  0
 26 51  1  0
 27 52  1  0
 30 53  1  0
 32 54  1  0
 33 55  1  0
M  END
$$$$
