
     RDKit          3D

 56 59  0  0  0  0  0  0  0  0999 V2000
   -2.5247   -4.0594    2.1406 C   0  0  0  0  0  0  0  0  0  0  0  0
   -3.2471   -3.2839    1.0480 C   0  0  0  0  0  0  0  0  0  0  0  0
   -2.3024   -2.8440   -0.0822 C   0  0  0  0  0  0  0  0  0  0  0  0
   -3.1343   -2.2383   -1.2332 C   0  0  0  0  0  0  0  0  0  0  0  0
   -3.6773   -2.9551   -2.0708 O   0  0  0  0  0  0  0  0  0  0  0  0
   -3.3212   -0.8742   -1.1104 N   0  0  0  0  0  0  0  0  0  0  0  0
   -4.0458   -0.0032   -1.9435 C   0  0  0  0  0  0  0  0  0  0  0  0
   -4.7346   -0.4020   -3.0880 C   0  0  0  0  0  0  0  0  0  0  0  0
   -5.4203    0.5495   -3.8429 C   0  0  0  0  0  0  0  0  0  0  0  0
   -6.0819    0.1643   -4.9419 F   0  0  0  0  0  0  0  0  0  0  0  0
   -5.4333    1.8947   -3.4819 C   0  0  0  0  0  0  0  0  0  0  0  0
   -4.7470    2.3024   -2.3416 C   0  0  0  0  0  0  0  0  0  0  0  0
   -4.0618    1.3541   -1.5856 C   0  0  0  0  0  0  0  0  0  0  0  0
   -3.3978    1.7572   -0.4892 F   0  0  0  0  0  0  0  0  0  0  0  0
   -1.2724   -1.8802    0.3614 N   0  0  0  0  0  0  0  0  0  0  0  0
   -1.6909   -0.8418    1.2154 N   0  0  0  0  0  0  0  0  0  0  0  0
   -0.8572    0.0738    1.6288 C   0  0  0  0  0  0  0  0  0  0  0  0
   -1.3736    1.1466    2.5445 C   0  0  0  0  0  0  0  0  0  0  0  0
    0.5130    0.0322    1.1870 C   0  0  0  0  0  0  0  0  0  0  0  0
    1.6440    0.7756    1.4815 C   0  0  0  0  0  0  0  0  0  0  0  0
    1.8520    1.8240    2.5136 C   0  0  0  0  0  0  0  0  0  0  0  0
    2.6396    0.2929    0.6217 N   0  0  0  0  0  0  0  0  0  0  0  0
    3.9409    0.8038    0.3222 C   0  0  0  0  0  0  0  0  0  0  0  0
    4.8675   -0.0363   -0.3178 C   0  0  0  0  0  0  0  0  0  0  0  0
    6.1491    0.4231   -0.6357 C   0  0  0  0  0  0  0  0  0  0  0  0
    6.5294    1.7311   -0.3258 C   0  0  0  0  0  0  0  0  0  0  0  0
    7.8909    2.2369   -0.7003 C   0  0  0  0  0  0  0  0  0  0  0  0
    5.5960    2.5816    0.2752 C   0  0  0  0  0  0  0  0  0  0  0  0
    4.3112    2.1248    0.5960 C   0  0  0  0  0  0  0  0  0  0  0  0
    2.2284   -0.8451   -0.0017 N   0  0  0  0  0  0  0  0  0  0  0  0
    0.9323   -0.9567    0.2924 C   0  0  0  0  0  0  0  0  0  0  0  0
    0.0215   -1.9819   -0.1995 C   0  0  0  0  0  0  0  0  0  0  0  0
    0.3431   -2.8459   -1.0108 O   0  0  0  0  0  0  0  0  0  0  0  0
   -2.0250   -4.9419    1.7289 H   0  0  0  0  0  0  0  0  0  0  0  0
   -1.7738   -3.4412    2.6421 H   0  0  0  0  0  0  0  0  0  0  0  0
   -3.2393   -4.3978    2.8975 H   0  0  0  0  0  0  0  0  0  0  0  0
   -3.7599   -2.4218    1.4916 H   0  0  0  0  0  0  0  0  0  0  0  0
   -4.0356   -3.9235    0.6317 H   0  0  0  0  0  0  0  0  0  0  0  0
   -1.8015   -3.7284   -0.4945 H   0  0  0  0  0  0  0  0  0  0  0  0
   -2.8584   -0.4502   -0.3047 H   0  0  0  0  0  0  0  0  0  0  0  0
   -4.7620   -1.4334   -3.4215 H   0  0  0  0  0  0  0  0  0  0  0  0
   -5.9763    2.6090   -4.0929 H   0  0  0  0  0  0  0  0  0  0  0  0
   -4.7409    3.3437   -2.0376 H   0  0  0  0  0  0  0  0  0  0  0  0
   -1.0395    2.1298    2.2036 H   0  0  0  0  0  0  0  0  0  0  0  0
   -1.0115    0.9645    3.5598 H   0  0  0  0  0  0  0  0  0  0  0  0
   -2.4676    1.1381    2.5589 H   0  0  0  0  0  0  0  0  0  0  0  0
    1.6257    2.8159    2.1114 H   0  0  0  0  0  0  0  0  0  0  0  0
    2.8712    1.8116    2.9109 H   0  0  0  0  0  0  0  0  0  0  0  0
    1.2008    1.6571    3.3761 H   0  0  0  0  0  0  0  0  0  0  0  0
    4.6094   -1.0637   -0.5724 H   0  0  0  0  0  0  0  0  0  0  0  0
    6.8446   -0.2518   -1.1299 H   0  0  0  0  0  0  0  0  0  0  0  0
    8.6258    1.4252   -0.6912 H   0  0  0  0  0  0  0  0  0  0  0  0
    7.8640    2.6782   -1.7014 H   0  0  0  0  0  0  0  0  0  0  0  0
    8.2348    2.9942    0.0120 H   0  0  0  0  0  0  0  0  0  0  0  0
    5.8591    3.6164    0.4865 H   0  0  0  0  0  0  0  0  0  0  0  0
    3.6207    2.8491    1.0096 H   0  0  0  0  0  0  0  0  0  0  0  0
  1  2  1  0
  2  3  1  0
  3  4  1  0
  4  5  2  0
  4  6  1  0
  6  7  1  0
  7  8  2  0
  8  9  1  0
  9 10  1  0
  9 11  2  0
 11 12  1  0
 12 13  2  0
 13 14  1  0
  3 15  1  0
 15 16  1  0
 16 17  2  0
 17 18  1  0
 17 19  1  0
 19 20  2  0
 20 21  1  0
 20 22  1  0
 22 23  1  0
 23 24  2  0
 24 25  1  0
 25 26  2  0
 26 27  1  0
 26 28  1  0
 28 29  2  0
 22 30  1  0
 30 31  2  0
 31 32  1  0
 32 33  2  0
 13  7  1  0
 32 15  1  0
 31 19  1  0
 29 23  1  0
  1 34  1  0
  1 35  1  0
  1 36  1  0
  2 37  1  0
  2 38  1  0
  3 39  1  0
  6 40  1  0
  8 41  1  0
 11 42  1  0
 12 43  1  0
 18 44  1  0
 18 45  1  0
 18 46  1  0
 21 47  1  0
 21 48  1  0
 21 49  1  0
 24 50  1  0
 25 51  1  0
 27 52  1  0
 27 53  1  0
 27 54  1  0
 28 55  1  0
 29 56  1  0
M  END
$$$$
