
     RDKit          3D

 57 60  0  0  0  0  0  0  0  0999 V2000
   -4.5159   -3.0606   -0.8923 C   0  0  0  0  0  0  0  0  0  0  0  0
   -5.2199   -1.7888   -0.4190 C   0  0  0  0  0  0  0  0  0  0  0  0
   -6.6335   -2.1299    0.0618 C   0  0  0  0  0  0  0  0  0  0  0  0
   -4.4088   -1.1242    0.6985 C   0  0  0  0  0  0  0  0  0  0  0  0
   -4.7834   -1.1904    1.8710 O   0  0  0  0  0  0  0  0  0  0  0  0
   -3.2114   -0.4959    0.3533 N   0  0  0  0  0  0  0  0  0  0  0  0
   -2.4970    0.1935    1.4368 C   0  0  0  0  0  0  0  0  0  0  0  0
   -0.9949    0.3401    1.1606 C   0  0  0  0  0  0  0  0  0  0  0  0
   -0.7148    0.9264   -0.1690 N   0  0  0  0  0  0  0  0  0  0  0  0
   -0.5943    2.3308   -0.1639 C   0  0  0  0  0  0  0  0  0  0  0  0
   -1.6845    3.1981   -0.2989 C   0  0  0  0  0  0  0  0  0  0  0  0
   -1.5066    4.5837   -0.2581 C   0  0  0  0  0  0  0  0  0  0  0  0
   -0.2347    5.1216   -0.0823 C   0  0  0  0  0  0  0  0  0  0  0  0
    0.8688    4.2796    0.0529 C   0  0  0  0  0  0  0  0  0  0  0  0
    0.6981    2.8955    0.0132 C   0  0  0  0  0  0  0  0  0  0  0  0
    1.7593    1.9698    0.1152 N   0  0  0  0  0  0  0  0  0  0  0  0
    3.0960    2.2141    0.3342 C   0  0  0  0  0  0  0  0  0  0  0  0
    3.6174    3.3059    0.5294 O   0  0  0  0  0  0  0  0  0  0  0  0
    3.9629    0.9990    0.3693 C   0  0  0  0  0  0  0  0  0  0  0  0
    5.1117    1.0251    1.1742 C   0  0  0  0  0  0  0  0  0  0  0  0
    5.9524   -0.0884    1.2415 C   0  0  0  0  0  0  0  0  0  0  0  0
    5.6531   -1.2271    0.4976 C   0  0  0  0  0  0  0  0  0  0  0  0
    4.5028   -1.2620   -0.2984 C   0  0  0  0  0  0  0  0  0  0  0  0
    3.6697   -0.1465   -0.3831 C   0  0  0  0  0  0  0  0  0  0  0  0
    4.1324   -2.3596   -1.0338 O   0  0  0  0  0  0  0  0  0  0  0  0
    4.8404   -3.5324   -0.6113 C   0  0  0  0  0  0  0  0  0  0  0  0
    6.3217   -3.2345   -0.4463 C   0  0  0  0  0  0  0  0  0  0  0  0
    6.5296   -2.2767    0.5975 O   0  0  0  0  0  0  0  0  0  0  0  0
   -1.4547    0.2981   -1.2787 C   0  0  0  0  0  0  0  0  0  0  0  0
   -2.9451    0.0376   -0.9900 C   0  0  0  0  0  0  0  0  0  0  0  0
   -5.0743   -3.5330   -1.7070 H   0  0  0  0  0  0  0  0  0  0  0  0
   -4.4280   -3.7853   -0.0750 H   0  0  0  0  0  0  0  0  0  0  0  0
   -3.5025   -2.8586   -1.2534 H   0  0  0  0  0  0  0  0  0  0  0  0
   -5.3315   -1.0830   -1.2488 H   0  0  0  0  0  0  0  0  0  0  0  0
   -7.2301   -2.5508   -0.7544 H   0  0  0  0  0  0  0  0  0  0  0  0
   -7.1465   -1.2326    0.4268 H   0  0  0  0  0  0  0  0  0  0  0  0
   -6.6189   -2.8573    0.8810 H   0  0  0  0  0  0  0  0  0  0  0  0
   -2.6279   -0.3509    2.3787 H   0  0  0  0  0  0  0  0  0  0  0  0
   -2.9677    1.1757    1.5611 H   0  0  0  0  0  0  0  0  0  0  0  0
   -0.5181    0.9152    1.9640 H   0  0  0  0  0  0  0  0  0  0  0  0
   -0.5355   -0.6565    1.1796 H   0  0  0  0  0  0  0  0  0  0  0  0
   -2.6927    2.8211   -0.4118 H   0  0  0  0  0  0  0  0  0  0  0  0
   -2.3642    5.2443   -0.3564 H   0  0  0  0  0  0  0  0  0  0  0  0
   -0.0973    6.1995   -0.0495 H   0  0  0  0  0  0  0  0  0  0  0  0
    1.8485    4.7277    0.1818 H   0  0  0  0  0  0  0  0  0  0  0  0
    1.4246    1.0138    0.0482 H   0  0  0  0  0  0  0  0  0  0  0  0
    5.3539    1.9166    1.7506 H   0  0  0  0  0  0  0  0  0  0  0  0
    6.8429   -0.0612    1.8631 H   0  0  0  0  0  0  0  0  0  0  0  0
    2.8121   -0.1840   -1.0483 H   0  0  0  0  0  0  0  0  0  0  0  0
    4.6907   -4.3028   -1.3734 H   0  0  0  0  0  0  0  0  0  0  0  0
    4.3962   -3.8882    0.3263 H   0  0  0  0  0  0  0  0  0  0  0  0
    6.8630   -4.1459   -0.1730 H   0  0  0  0  0  0  0  0  0  0  0  0
    6.7575   -2.8415   -1.3730 H   0  0  0  0  0  0  0  0  0  0  0  0
   -1.3420    0.8709   -2.2075 H   0  0  0  0  0  0  0  0  0  0  0  0
   -0.9758   -0.6722   -1.4633 H   0  0  0  0  0  0  0  0  0  0  0  0
   -3.5301    0.9583   -1.0836 H   0  0  0  0  0  0  0  0  0  0  0  0
   -3.3232   -0.6415   -1.7579 H   0  0  0  0  0  0  0  0  0  0  0  0
  1  2  1  0
  2  3  1  0
  2  4  1  0
  4  5  2  0
  4  6  1  0
  6  7  1  0
  7  8  1  0
  8  9  1  0
  9 10  1  0
 10 11  2  0
 11 12  1  0
 12 13  2  0
 13 14  1  0
 14 15  2  0
 15 16  1  0
 16 17  1  0
 17 18  2  0
 17 19  1  0
 19 20  2  0
 20 21  1  0
 21 22  2  0
 22 23  1  0
 23 24  2  0
 23 25  1  0
 25 26  1  0
 26 27  1  0
 27 28  1  0
  9 29  1  0
 29 30  1  0
 30  6  1  0
 15 10  1  0
 24 19  1  0
 28 22  1  0
  1 31  1  0
  1 32  1  0
  1 33  1  0
  2 34  1  0
  3 35  1  0
  3 36  1  0
  3 37  1  0
  7 38  1  0
  7 39  1  0
  8 40  1  0
  8 41  1  0
 11 42  1  0
 12 43  1  0
 13 44  1  0
 14 45  1  0
 16 46  1  0
 20 47  1  0
 21 48  1  0
 24 49  1  0
 26 50  1  0
 26 51  1  0
 27 52  1  0
 27 53  1  0
 29 54  1  0
 29 55  1  0
 30 56  1  0
 30 57  1  0
M  END
$$$$
