
     RDKit          3D

 42 44  0  0  0  0  0  0  0  0999 V2000
    6.5144   -0.7108   -2.1857 C   0  0  0  0  0  0  0  0  0  0  0  0
    5.7760   -1.0923   -1.0226 O   0  0  0  0  0  0  0  0  0  0  0  0
    4.4493   -0.7696   -1.0732 C   0  0  0  0  0  0  0  0  0  0  0  0
    3.9003   -0.2385   -2.0289 O   0  0  0  0  0  0  0  0  0  0  0  0
    3.7726   -1.2289    0.1935 C   0  0  0  0  0  0  0  0  0  0  0  0
    2.5781   -0.4539    0.4973 N   0  0  0  0  0  0  0  0  0  0  0  0
    1.3026   -0.8273    0.1502 C   0  0  0  0  0  0  0  0  0  0  0  0
    0.4336    0.1365    0.6134 C   0  0  0  0  0  0  0  0  0  0  0  0
   -0.9860    0.1530    0.4345 C   0  0  0  0  0  0  0  0  0  0  0  0
   -1.7190   -0.8017   -0.1642 C   0  0  0  0  0  0  0  0  0  0  0  0
   -3.1728   -0.7166   -0.3341 C   0  0  0  0  0  0  0  0  0  0  0  0
   -3.9577   -1.8389   -0.0796 C   0  0  0  0  0  0  0  0  0  0  0  0
   -5.3342   -1.7731   -0.2642 C   0  0  0  0  0  0  0  0  0  0  0  0
   -5.9173   -0.6331   -0.6967 N   0  0  0  0  0  4  0  0  0  0  0  0
   -7.3753   -0.5853   -0.8984 C   0  0  0  0  0  0  0  0  0  0  0  0
   -5.1728    0.4605   -0.9740 C   0  0  0  0  0  0  0  0  0  0  0  0
   -3.7940    0.4411   -0.8001 C   0  0  0  0  0  0  0  0  0  0  0  0
    1.2142    1.1264    1.2909 C   0  0  0  0  0  0  0  0  0  0  0  0
    0.9107    2.3277    1.9703 C   0  0  0  0  0  0  0  0  0  0  0  0
    1.9397    3.0902    2.5329 C   0  0  0  0  0  0  0  0  0  0  0  0
    3.2626    2.6771    2.4272 C   0  0  0  0  0  0  0  0  0  0  0  0
    3.5945    1.4947    1.7608 C   0  0  0  0  0  0  0  0  0  0  0  0
    2.5545    0.7325    1.2023 C   0  0  0  0  0  0  0  0  0  0  0  0
    6.4771    0.3741   -2.3229 H   0  0  0  0  0  0  0  0  0  0  0  0
    6.1300   -1.2284   -3.0697 H   0  0  0  0  0  0  0  0  0  0  0  0
    7.5568   -1.0057   -2.0371 H   0  0  0  0  0  0  0  0  0  0  0  0
    3.4840   -2.2794    0.0857 H   0  0  0  0  0  0  0  0  0  0  0  0
    4.4505   -1.1380    1.0481 H   0  0  0  0  0  0  0  0  0  0  0  0
    1.1347   -1.7342   -0.4151 H   0  0  0  0  0  0  0  0  0  0  0  0
   -1.4936    1.0297    0.8306 H   0  0  0  0  0  0  0  0  0  0  0  0
   -1.2466   -1.7039   -0.5454 H   0  0  0  0  0  0  0  0  0  0  0  0
   -3.5054   -2.7650    0.2709 H   0  0  0  0  0  0  0  0  0  0  0  0
   -5.9754   -2.6286   -0.0713 H   0  0  0  0  0  0  0  0  0  0  0  0
   -7.7385    0.4045   -0.6078 H   0  0  0  0  0  0  0  0  0  0  0  0
   -7.5657   -0.7770   -1.9575 H   0  0  0  0  0  0  0  0  0  0  0  0
   -7.8547   -1.3444   -0.2747 H   0  0  0  0  0  0  0  0  0  0  0  0
   -5.6893    1.3432   -1.3402 H   0  0  0  0  0  0  0  0  0  0  0  0
   -3.2111    1.3280   -1.0430 H   0  0  0  0  0  0  0  0  0  0  0  0
   -0.1157    2.6679    2.0617 H   0  0  0  0  0  0  0  0  0  0  0  0
    1.7031    4.0142    3.0549 H   0  0  0  0  0  0  0  0  0  0  0  0
    4.0521    3.2831    2.8669 H   0  0  0  0  0  0  0  0  0  0  0  0
    4.6336    1.1904    1.6832 H   0  0  0  0  0  0  0  0  0  0  0  0
  1  2  1  0
  2  3  1  0
  3  4  2  0
  3  5  1  0
  5  6  1  0
  6  7  1  0
  7  8  2  0
  8  9  1  0
  9 10  2  3
 10 11  1  0
 11 12  2  0
 12 13  1  0
 13 14  2  0
 14 15  1  0
 14 16  1  0
 16 17  2  0
  8 18  1  0
 18 19  2  0
 19 20  1  0
 20 21  2  0
 21 22  1  0
 22 23  2  0
 23  6  1  0
 17 11  1  0
 23 18  1  0
  1 24  1  0
  1 25  1  0
  1 26  1  0
  5 27  1  0
  5 28  1  0
  7 29  1  0
  9 30  1  0
 10 31  1  0
 12 32  1  0
 13 33  1  0
 15 34  1  0
 15 35  1  0
 15 36  1  0
 16 37  1  0
 17 38  1  0
 19 39  1  0
 20 40  1  0
 21 41  1  0
 22 42  1  0
M  CHG  1  14   1
M  END
$$$$
