
     RDKit          3D

 67 72  0  0  0  0  0  0  0  0999 V2000
    3.6634   -0.1321   -1.6527 O   0  0  0  0  0  0  0  0  0  0  0  0
    2.8422   -0.0871   -0.7313 C   0  0  0  0  0  0  0  0  0  0  0  0
    3.2862   -0.0126    0.7417 C   0  0  0  0  0  0  0  0  0  0  0  0
    4.7343    0.5025    0.8348 C   0  0  0  0  0  0  0  0  0  0  0  0
    5.2876    0.5000    2.2428 C   0  0  0  0  0  0  0  0  0  0  0  0
    5.6845   -0.6972    2.8537 C   0  0  0  0  0  0  0  0  0  0  0  0
    6.1877   -0.6931    4.1561 C   0  0  0  0  0  0  0  0  0  0  0  0
    6.2981    0.5060    4.8579 C   0  0  0  0  0  0  0  0  0  0  0  0
    5.9043    1.7022    4.2603 C   0  0  0  0  0  0  0  0  0  0  0  0
    5.4005    1.6994    2.9591 C   0  0  0  0  0  0  0  0  0  0  0  0
    2.3845    0.8466    1.5039 N   0  0  0  0  0  0  0  0  0  0  0  0
    1.0484    0.4544    1.3742 C   0  0  0  0  0  0  0  0  0  0  0  0
    0.3282    0.5959    2.4957 N   0  0  0  0  0  0  0  0  0  0  0  0
   -0.9678    0.3220    2.3861 C   0  0  0  0  0  0  0  0  0  0  0  0
   -1.6004   -0.0117    1.2590 N   0  0  0  0  0  0  0  0  0  0  0  0
   -0.8724   -0.1024    0.1245 C   0  0  0  0  0  0  0  0  0  0  0  0
   -1.6052   -0.2430   -1.0668 N   0  0  0  0  0  0  0  0  0  0  0  0
   -1.7654    1.0639   -1.7689 C   0  0  0  0  0  0  0  0  0  0  0  0
   -2.9107    1.9283   -1.1954 C   0  0  0  0  0  0  0  0  0  0  0  0
   -4.1828    1.1761   -1.2232 N   0  0  0  0  0  0  0  0  0  0  0  0
   -5.3685    1.8868   -0.9702 C   0  0  0  0  0  0  0  0  0  0  0  0
   -5.4052    3.1539   -0.3700 C   0  0  0  0  0  0  0  0  0  0  0  0
   -6.6157    3.8212   -0.1484 C   0  0  0  0  0  0  0  0  0  0  0  0
   -7.8191    3.2371   -0.5315 C   0  0  0  0  0  0  0  0  0  0  0  0
   -7.8109    1.9868   -1.1391 C   0  0  0  0  0  0  0  0  0  0  0  0
   -6.5982    1.3252   -1.3562 C   0  0  0  0  0  0  0  0  0  0  0  0
   -4.0908   -0.0934   -0.4555 C   0  0  0  0  0  0  0  0  0  0  0  0
   -2.9026   -0.9605   -0.9406 C   0  0  0  0  0  0  0  0  0  0  0  0
    0.5286    0.0290    0.1404 C   0  0  0  0  0  0  0  0  0  0  0  0
    1.4573   -0.2187   -0.9452 N   0  0  0  0  0  0  0  0  0  0  0  0
    1.0769   -0.7942   -2.2292 C   0  0  0  0  0  0  0  0  0  0  0  0
    1.2829   -2.2985   -2.2737 C   0  0  0  0  0  0  0  0  0  0  0  0
    2.4160   -2.8396   -2.9038 C   0  0  0  0  0  0  0  0  0  0  0  0
    2.6237   -4.2206   -2.9358 C   0  0  0  0  0  0  0  0  0  0  0  0
    1.6986   -5.0716   -2.3369 C   0  0  0  0  0  0  0  0  0  0  0  0
    1.9770   -6.9408   -2.3770 Br  0  0  0  0  0  0  0  0  0  0  0  0
    0.5695   -4.5542   -1.7070 C   0  0  0  0  0  0  0  0  0  0  0  0
    0.3645   -3.1721   -1.6744 C   0  0  0  0  0  0  0  0  0  0  0  0
    3.2411   -1.0367    1.1394 H   0  0  0  0  0  0  0  0  0  0  0  0
    4.8001    1.5161    0.4147 H   0  0  0  0  0  0  0  0  0  0  0  0
    5.3998   -0.1124    0.2137 H   0  0  0  0  0  0  0  0  0  0  0  0
    5.6142   -1.6417    2.3194 H   0  0  0  0  0  0  0  0  0  0  0  0
    6.4974   -1.6267    4.6203 H   0  0  0  0  0  0  0  0  0  0  0  0
    6.6949    0.5096    5.8699 H   0  0  0  0  0  0  0  0  0  0  0  0
    5.9920    2.6373    4.8068 H   0  0  0  0  0  0  0  0  0  0  0  0
    5.0954    2.6410    2.5043 H   0  0  0  0  0  0  0  0  0  0  0  0
    2.5901    0.9222    2.4985 H   0  0  0  0  0  0  0  0  0  0  0  0
   -1.5697    0.3977    3.2851 H   0  0  0  0  0  0  0  0  0  0  0  0
   -0.8316    1.6403   -1.7640 H   0  0  0  0  0  0  0  0  0  0  0  0
   -1.9855    0.8446   -2.8222 H   0  0  0  0  0  0  0  0  0  0  0  0
   -2.9920    2.8302   -1.8147 H   0  0  0  0  0  0  0  0  0  0  0  0
   -2.6656    2.2344   -0.1709 H   0  0  0  0  0  0  0  0  0  0  0  0
   -4.4945    3.6434   -0.0418 H   0  0  0  0  0  0  0  0  0  0  0  0
   -6.6122    4.7978    0.3273 H   0  0  0  0  0  0  0  0  0  0  0  0
   -8.7588    3.7555   -0.3614 H   0  0  0  0  0  0  0  0  0  0  0  0
   -8.7428    1.5262   -1.4537 H   0  0  0  0  0  0  0  0  0  0  0  0
   -6.6140    0.3616   -1.8610 H   0  0  0  0  0  0  0  0  0  0  0  0
   -4.9994   -0.6962   -0.5735 H   0  0  0  0  0  0  0  0  0  0  0  0
   -3.9992    0.1341    0.6126 H   0  0  0  0  0  0  0  0  0  0  0  0
   -3.1500   -1.3395   -1.9411 H   0  0  0  0  0  0  0  0  0  0  0  0
   -2.7957   -1.8468   -0.3026 H   0  0  0  0  0  0  0  0  0  0  0  0
    1.7010   -0.3333   -3.0069 H   0  0  0  0  0  0  0  0  0  0  0  0
    0.0694   -0.5546   -2.5494 H   0  0  0  0  0  0  0  0  0  0  0  0
    3.1529   -2.1829   -3.3660 H   0  0  0  0  0  0  0  0  0  0  0  0
    3.5092   -4.6168   -3.4249 H   0  0  0  0  0  0  0  0  0  0  0  0
   -0.1553   -5.2147   -1.2372 H   0  0  0  0  0  0  0  0  0  0  0  0
   -0.5203   -2.7835   -1.1779 H   0  0  0  0  0  0  0  0  0  0  0  0
  1  2  2  0
  2  3  1  0
  3  4  1  0
  4  5  1  0
  5  6  2  0
  6  7  1  0
  7  8  2  0
  8  9  1  0
  9 10  2  0
  3 11  1  0
 11 12  1  0
 12 13  2  0
 13 14  1  0
 14 15  2  0
 15 16  1  0
 16 17  1  0
 17 18  1  0
 18 19  1  0
 19 20  1  0
 20 21  1  0
 21 22  2  0
 22 23  1  0
 23 24  2  0
 24 25  1  0
 25 26  2  0
 20 27  1  0
 27 28  1  0
 16 29  2  0
 29 30  1  0
 30 31  1  0
 31 32  1  0
 32 33  2  0
 33 34  1  0
 34 35  2  0
 35 36  1  0
 35 37  1  0
 37 38  2  0
 30  2  1  0
 38 32  1  0
 10  5  1  0
 29 12  1  0
 28 17  1  0
 26 21  1  0
  3 39  1  0
  4 40  1  0
  4 41  1  0
  6 42  1  0
  7 43  1  0
  8 44  1  0
  9 45  1  0
 10 46  1  0
 11 47  1  0
 14 48  1  0
 18 49  1  0
 18 50  1  0
 19 51  1  0
 19 52  1  0
 22 53  1  0
 23 54  1  0
 24 55  1  0
 25 56  1  0
 26 57  1  0
 27 58  1  0
 27 59  1  0
 28 60  1  0
 28 61  1  0
 31 62  1  0
 31 63  1  0
 33 64  1  0
 34 65  1  0
 37 66  1  0
 38 67  1  0
M  END
$$$$
