
     RDKit          3D

 57 61  0  0  0  0  0  0  0  0999 V2000
   -5.6009    3.6890    2.3558 C   0  0  0  0  0  0  0  0  0  0  0  0
   -5.2823    2.7195    1.2564 C   0  0  0  0  0  0  0  0  0  0  0  0
   -6.2660    1.8550    0.7645 C   0  0  0  0  0  0  0  0  0  0  0  0
   -5.9765    0.9719   -0.2780 C   0  0  0  0  0  0  0  0  0  0  0  0
   -4.7009    0.9485   -0.8582 C   0  0  0  0  0  0  0  0  0  0  0  0
   -4.3851   -0.0145   -1.9746 C   0  0  0  0  0  0  0  0  0  0  0  0
   -4.0563   -1.3288   -1.4647 N   0  0  0  0  0  0  0  0  0  0  0  0
   -4.9959   -2.3056   -1.3998 N   0  0  0  0  0  0  0  0  0  0  0  0
   -4.4107   -3.4001   -0.9129 N   0  0  0  0  0  0  0  0  0  0  0  0
   -3.1021   -3.0967   -0.6981 C   0  0  0  0  0  0  0  0  0  0  0  0
   -2.0215   -3.8956   -0.1888 C   0  0  0  0  0  0  0  0  0  0  0  0
   -2.0971   -5.0670    0.1635 O   0  0  0  0  0  0  0  0  0  0  0  0
   -0.8282   -3.1850   -0.1341 N   0  0  0  0  0  0  0  0  0  0  0  0
   -0.6865   -1.8611   -0.5338 C   0  0  0  0  0  0  0  0  0  0  0  0
    0.7015   -1.2544   -0.4040 C   0  0  0  0  0  0  0  0  0  0  0  0
    1.7166   -1.9911   -1.2848 C   0  0  0  0  0  0  0  0  0  0  0  0
    3.1128   -1.3974   -1.1180 C   0  0  0  0  0  0  0  0  0  0  0  0
    3.4820   -1.4446    0.3166 N   0  0  0  0  0  0  0  0  0  0  0  0
    5.1493   -1.3341    0.6751 S   0  0  0  0  0  6  0  0  0  0  0  0
    5.8594   -2.2142   -0.2287 O   0  0  0  0  0  0  0  0  0  0  0  0
    5.3063   -1.4522    2.1093 O   0  0  0  0  0  0  0  0  0  0  0  0
    5.5515    0.3406    0.2243 C   0  0  0  0  0  0  0  0  0  0  0  0
    6.0015    0.6193   -1.0701 C   0  0  0  0  0  0  0  0  0  0  0  0
    6.3348    1.9293   -1.4137 C   0  0  0  0  0  0  0  0  0  0  0  0
    6.2331    2.9480   -0.4645 C   0  0  0  0  0  0  0  0  0  0  0  0
    5.8074    2.6610    0.8336 C   0  0  0  0  0  0  0  0  0  0  0  0
    5.4720    1.3536    1.1852 C   0  0  0  0  0  0  0  0  0  0  0  0
    2.5706   -0.6487    1.1729 C   0  0  0  0  0  0  0  0  0  0  0  0
    1.1616   -1.2242    1.0578 C   0  0  0  0  0  0  0  0  0  0  0  0
   -1.6597   -1.1297   -1.0043 N   0  0  0  0  0  0  0  0  0  0  0  0
   -2.8400   -1.7960   -1.0553 C   0  0  0  0  0  0  0  0  0  0  0  0
   -3.7185    1.8193   -0.3674 C   0  0  0  0  0  0  0  0  0  0  0  0
   -4.0097    2.7021    0.6751 C   0  0  0  0  0  0  0  0  0  0  0  0
   -6.4134    3.3145    2.9872 H   0  0  0  0  0  0  0  0  0  0  0  0
   -4.7309    3.8411    3.0030 H   0  0  0  0  0  0  0  0  0  0  0  0
   -5.9004    4.6515    1.9305 H   0  0  0  0  0  0  0  0  0  0  0  0
   -7.2654    1.8578    1.1945 H   0  0  0  0  0  0  0  0  0  0  0  0
   -6.7544    0.2960   -0.6301 H   0  0  0  0  0  0  0  0  0  0  0  0
   -5.2389   -0.1126   -2.6558 H   0  0  0  0  0  0  0  0  0  0  0  0
   -3.5380    0.3375   -2.5749 H   0  0  0  0  0  0  0  0  0  0  0  0
   -0.0446   -3.7133    0.2219 H   0  0  0  0  0  0  0  0  0  0  0  0
    0.6356   -0.2160   -0.7592 H   0  0  0  0  0  0  0  0  0  0  0  0
    1.7478   -3.0570   -1.0265 H   0  0  0  0  0  0  0  0  0  0  0  0
    1.4122   -1.9334   -2.3367 H   0  0  0  0  0  0  0  0  0  0  0  0
    3.1313   -0.3640   -1.4812 H   0  0  0  0  0  0  0  0  0  0  0  0
    3.8116   -1.9868   -1.7195 H   0  0  0  0  0  0  0  0  0  0  0  0
    6.1028   -0.1735   -1.8079 H   0  0  0  0  0  0  0  0  0  0  0  0
    6.6862    2.1564   -2.4176 H   0  0  0  0  0  0  0  0  0  0  0  0
    6.5016    3.9672   -0.7334 H   0  0  0  0  0  0  0  0  0  0  0  0
    5.7494    3.4558    1.5738 H   0  0  0  0  0  0  0  0  0  0  0  0
    5.1611    1.1325    2.2039 H   0  0  0  0  0  0  0  0  0  0  0  0
    2.8785   -0.6993    2.2218 H   0  0  0  0  0  0  0  0  0  0  0  0
    2.5778    0.4016    0.8615 H   0  0  0  0  0  0  0  0  0  0  0  0
    0.4661   -0.6250    1.6577 H   0  0  0  0  0  0  0  0  0  0  0  0
    1.1518   -2.2350    1.4849 H   0  0  0  0  0  0  0  0  0  0  0  0
   -2.7159    1.8130   -0.7906 H   0  0  0  0  0  0  0  0  0  0  0  0
   -3.2344    3.3746    1.0351 H   0  0  0  0  0  0  0  0  0  0  0  0
  1  2  1  0
  2  3  2  0
  3  4  1  0
  4  5  2  0
  5  6  1  0
  6  7  1  0
  7  8  1  0
  8  9  2  0
  9 10  1  0
 10 11  1  0
 11 12  2  0
 11 13  1  0
 13 14  1  0
 14 15  1  0
 15 16  1  0
 16 17  1  0
 17 18  1  0
 18 19  1  0
 19 20  2  0
 19 21  2  0
 19 22  1  0
 22 23  2  0
 23 24  1  0
 24 25  2  0
 25 26  1  0
 26 27  2  0
 18 28  1  0
 28 29  1  0
 14 30  2  0
 30 31  1  0
  5 32  1  0
 32 33  2  0
 33  2  1  0
 31  7  1  0
 31 10  2  0
 29 15  1  0
 27 22  1  0
  1 34  1  0
  1 35  1  0
  1 36  1  0
  3 37  1  0
  4 38  1  0
  6 39  1  0
  6 40  1  0
 13 41  1  0
 15 42  1  0
 16 43  1  0
 16 44  1  0
 17 45  1  0
 17 46  1  0
 23 47  1  0
 24 48  1  0
 25 49  1  0
 26 50  1  0
 27 51  1  0
 28 52  1  0
 28 53  1  0
 29 54  1  0
 29 55  1  0
 32 56  1  0
 33 57  1  0
M  END
$$$$
