
     RDKit          3D

 74 79  0  0  0  0  0  0  0  0999 V2000
    8.5915    4.4896    0.4451 C   0  0  0  0  0  0  0  0  0  0  0  0
    7.2927    4.7038   -0.0918 O   0  0  0  0  0  0  0  0  0  0  0  0
    6.5083    3.6008   -0.2737 C   0  0  0  0  0  0  0  0  0  0  0  0
    6.7984    2.3088    0.1555 C   0  0  0  0  0  0  0  0  0  0  0  0
    5.9022    1.2631   -0.1066 C   0  0  0  0  0  0  0  0  0  0  0  0
    4.6935    1.4750   -0.7941 C   0  0  0  0  0  0  0  0  0  0  0  0
    3.7581    0.3562   -1.0461 C   0  0  0  0  0  0  0  0  0  0  0  0
    2.3902    0.5296   -1.1551 C   0  0  0  0  0  0  0  0  0  0  0  0
    1.5804   -0.5882   -1.3718 C   0  0  0  0  0  0  0  0  0  0  0  0
    0.1237   -0.3164   -1.4188 C   0  0  0  0  0  0  0  0  0  0  0  0
   -0.2722    0.5810   -2.1531 O   0  0  0  0  0  0  0  0  0  0  0  0
   -0.6271   -1.0698   -0.5473 N   0  0  0  0  0  0  0  0  0  0  0  0
   -2.0101   -0.9811   -0.2824 C   0  0  0  0  0  0  0  0  0  0  0  0
   -2.8700   -0.0939   -0.9248 C   0  0  0  0  0  0  0  0  0  0  0  0
   -4.2121   -0.0402   -0.5387 C   0  0  0  0  0  0  0  0  0  0  0  0
   -5.3069    1.1133   -1.3453 S   0  0  0  0  0  6  0  0  0  0  0  0
   -6.6530    0.5931   -1.2107 O   0  0  0  0  0  0  0  0  0  0  0  0
   -4.7521    1.4171   -2.6480 O   0  0  0  0  0  0  0  0  0  0  0  0
   -5.1873    2.5071   -0.3836 N   0  0  0  0  0  0  0  0  0  0  0  0
   -3.8643    3.1986   -0.3586 C   0  0  0  0  0  0  0  0  0  0  0  0
   -4.0225    4.5796    0.2925 C   0  0  0  0  0  0  0  0  0  0  0  0
   -4.5735    4.4698    1.6159 O   0  0  0  0  0  0  0  0  0  0  0  0
   -5.8690    3.8511    1.5662 C   0  0  0  0  0  0  0  0  0  0  0  0
   -5.7774    2.4363    0.9817 C   0  0  0  0  0  0  0  0  0  0  0  0
   -4.7121   -0.8993    0.4437 C   0  0  0  0  0  0  0  0  0  0  0  0
   -3.8539   -1.7995    1.0755 C   0  0  0  0  0  0  0  0  0  0  0  0
   -2.4963   -1.8508    0.7265 C   0  0  0  0  0  0  0  0  0  0  0  0
   -1.5874   -2.7555    1.3277 N   0  0  0  0  0  0  0  0  0  0  0  0
   -1.8283   -4.1530    0.8939 C   0  0  0  0  0  0  0  0  0  0  0  0
   -1.0143   -5.1092    1.7796 C   0  0  0  0  0  0  0  0  0  0  0  0
   -1.3895   -5.0615    3.1644 O   0  0  0  0  0  0  0  0  0  0  0  0
   -1.9922   -3.8190    3.5563 C   0  0  0  0  0  0  0  0  0  0  0  0
   -1.4426   -2.6029    2.7992 C   0  0  0  0  0  0  0  0  0  0  0  0
    2.1425   -1.8746   -1.5265 C   0  0  0  0  0  0  0  0  0  0  0  0
    1.4186   -3.0585   -1.8317 C   0  0  0  0  0  0  0  0  0  0  0  0
    2.0660   -4.2867   -1.9577 C   0  0  0  0  0  0  0  0  0  0  0  0
    3.4401   -4.3540   -1.7907 C   0  0  0  0  0  0  0  0  0  0  0  0
    4.1597   -3.1885   -1.5133 C   0  0  0  0  0  0  0  0  0  0  0  0
    3.5412   -1.9514   -1.3858 C   0  0  0  0  0  0  0  0  0  0  0  0
    4.3146   -0.8770   -1.1424 N   0  0  0  0  0  0  0  0  0  0  0  0
    4.4243    2.7878   -1.2187 C   0  0  0  0  0  0  0  0  0  0  0  0
    5.3162    3.8340   -0.9566 C   0  0  0  0  0  0  0  0  0  0  0  0
    8.5377    4.1914    1.4978 H   0  0  0  0  0  0  0  0  0  0  0  0
    9.1537    3.7590   -0.1465 H   0  0  0  0  0  0  0  0  0  0  0  0
    9.1344    5.4393    0.3883 H   0  0  0  0  0  0  0  0  0  0  0  0
    7.7081    2.0768    0.6991 H   0  0  0  0  0  0  0  0  0  0  0  0
    6.1527    0.2611    0.2409 H   0  0  0  0  0  0  0  0  0  0  0  0
    1.9338    1.5094   -1.0502 H   0  0  0  0  0  0  0  0  0  0  0  0
   -0.1624   -1.7421    0.0601 H   0  0  0  0  0  0  0  0  0  0  0  0
   -2.5188    0.5594   -1.7160 H   0  0  0  0  0  0  0  0  0  0  0  0
   -3.1576    2.6008    0.2332 H   0  0  0  0  0  0  0  0  0  0  0  0
   -3.4697    3.3257   -1.3722 H   0  0  0  0  0  0  0  0  0  0  0  0
   -4.6668    5.2329   -0.3091 H   0  0  0  0  0  0  0  0  0  0  0  0
   -3.0428    5.0596    0.3842 H   0  0  0  0  0  0  0  0  0  0  0  0
   -6.5465    4.4820    0.9749 H   0  0  0  0  0  0  0  0  0  0  0  0
   -6.2537    3.8078    2.5933 H   0  0  0  0  0  0  0  0  0  0  0  0
   -6.7764    1.9941    0.9553 H   0  0  0  0  0  0  0  0  0  0  0  0
   -5.1292    1.8271    1.6201 H   0  0  0  0  0  0  0  0  0  0  0  0
   -5.7655   -0.8782    0.7121 H   0  0  0  0  0  0  0  0  0  0  0  0
   -4.2562   -2.4648    1.8307 H   0  0  0  0  0  0  0  0  0  0  0  0
   -1.5201   -4.2668   -0.1523 H   0  0  0  0  0  0  0  0  0  0  0  0
   -2.8925   -4.4144    0.9689 H   0  0  0  0  0  0  0  0  0  0  0  0
    0.0559   -4.8710    1.7166 H   0  0  0  0  0  0  0  0  0  0  0  0
   -1.1449   -6.1426    1.4415 H   0  0  0  0  0  0  0  0  0  0  0  0
   -1.8136   -3.6967    4.6302 H   0  0  0  0  0  0  0  0  0  0  0  0
   -3.0775   -3.9132    3.4168 H   0  0  0  0  0  0  0  0  0  0  0  0
   -0.3675   -2.5199    3.0023 H   0  0  0  0  0  0  0  0  0  0  0  0
   -1.9046   -1.6813    3.1725 H   0  0  0  0  0  0  0  0  0  0  0  0
    0.3439   -3.0288   -2.0000 H   0  0  0  0  0  0  0  0  0  0  0  0
    1.4982   -5.1853   -2.1950 H   0  0  0  0  0  0  0  0  0  0  0  0
    3.9612   -5.3014   -1.8997 H   0  0  0  0  0  0  0  0  0  0  0  0
    5.2408   -3.2441   -1.4026 H   0  0  0  0  0  0  0  0  0  0  0  0
    3.5197    3.0219   -1.7776 H   0  0  0  0  0  0  0  0  0  0  0  0
    5.0785    4.8376   -1.3003 H   0  0  0  0  0  0  0  0  0  0  0  0
  1  2  1  0
  2  3  1  0
  3  4  2  0
  4  5  1  0
  5  6  2  0
  6  7  1  0
  7  8  2  0
  8  9  1  0
  9 10  1  0
 10 11  2  0
 10 12  1  0
 12 13  1  0
 13 14  2  0
 14 15  1  0
 15 16  1  0
 16 17  2  0
 16 18  2  0
 16 19  1  0
 19 20  1  0
 20 21  1  0
 21 22  1  0
 22 23  1  0
 23 24  1  0
 15 25  2  0
 25 26  1  0
 26 27  2  0
 27 28  1  0
 28 29  1  0
 29 30  1  0
 30 31  1  0
 31 32  1  0
 32 33  1  0
  9 34  2  0
 34 35  1  0
 35 36  2  0
 36 37  1  0
 37 38  2  0
 38 39  1  0
 39 40  2  0
  6 41  1  0
 41 42  2  0
 42  3  1  0
 40  7  1  0
 27 13  1  0
 33 28  1  0
 39 34  1  0
 24 19  1  0
  1 43  1  0
  1 44  1  0
  1 45  1  0
  4 46  1  0
  5 47  1  0
  8 48  1  0
 12 49  1  0
 14 50  1  0
 20 51  1  0
 20 52  1  0
 21 53  1  0
 21 54  1  0
 23 55  1  0
 23 56  1  0
 24 57  1  0
 24 58  1  0
 25 59  1  0
 26 60  1  0
 29 61  1  0
 29 62  1  0
 30 63  1  0
 30 64  1  0
 32 65  1  0
 32 66  1  0
 33 67  1  0
 33 68  1  0
 35 69  1  0
 36 70  1  0
 37 71  1  0
 38 72  1  0
 41 73  1  0
 42 74  1  0
M  END
$$$$
