
     RDKit          3D

 37 39  0  0  0  0  0  0  0  0999 V2000
   -0.4007   -0.8040    2.4499 C   0  0  0  0  0  0  0  0  0  0  0  0
   -0.8441   -0.4209    1.1257 N   0  0  0  0  0  0  0  0  0  0  0  0
   -0.0806   -0.0242    0.0195 C   0  0  0  0  0  0  0  0  0  0  0  0
    1.2420   -0.1144   -0.2295 C   0  0  0  0  0  0  0  0  0  0  0  0
    2.2580   -0.7599    0.5741 C   0  0  0  0  0  0  0  0  0  0  0  0
    3.5865   -0.6856    0.4043 C   0  0  0  0  0  0  0  0  0  0  0  0
    4.7032   -1.5416    1.4266 S   0  0  0  0  0  0  0  0  0  0  0  0
    6.0978   -0.9188    0.5799 C   0  0  0  0  0  0  0  0  0  0  0  0
    7.6842   -1.2468    0.9186 S   0  0  0  0  0  0  0  0  0  0  0  0
    5.6945   -0.1009   -0.4282 N   0  0  0  0  0  0  0  0  0  0  0  0
    4.3532    0.0957   -0.6106 C   0  0  0  0  0  0  0  0  0  0  0  0
    3.8890    0.8101   -1.4837 O   0  0  0  0  0  0  0  0  0  0  0  0
   -1.0540    0.5847   -1.0494 C   0  0  0  0  0  0  0  0  0  0  0  0
   -0.9790   -0.1559   -2.3935 C   0  0  0  0  0  0  0  0  0  0  0  0
   -0.8118    2.0893   -1.2353 C   0  0  0  0  0  0  0  0  0  0  0  0
   -2.4053    0.3463   -0.3949 C   0  0  0  0  0  0  0  0  0  0  0  0
   -3.6755    0.6322   -0.8811 C   0  0  0  0  0  0  0  0  0  0  0  0
   -4.7750    0.3117   -0.0868 C   0  0  0  0  0  0  0  0  0  0  0  0
   -4.5926   -0.2859    1.1674 C   0  0  0  0  0  0  0  0  0  0  0  0
   -3.3075   -0.5662    1.6472 C   0  0  0  0  0  0  0  0  0  0  0  0
   -2.2093   -0.2420    0.8661 C   0  0  0  0  0  0  0  0  0  0  0  0
    0.5207   -0.2805    2.7250 H   0  0  0  0  0  0  0  0  0  0  0  0
   -0.2239   -1.8834    2.4949 H   0  0  0  0  0  0  0  0  0  0  0  0
   -1.1205   -0.5422    3.2327 H   0  0  0  0  0  0  0  0  0  0  0  0
    1.5932    0.3061   -1.1703 H   0  0  0  0  0  0  0  0  0  0  0  0
    1.8898   -1.4012    1.3686 H   0  0  0  0  0  0  0  0  0  0  0  0
    6.3561    0.3593   -1.0346 H   0  0  0  0  0  0  0  0  0  0  0  0
   -1.7431    0.2048   -3.0919 H   0  0  0  0  0  0  0  0  0  0  0  0
   -0.0071   -0.0150   -2.8791 H   0  0  0  0  0  0  0  0  0  0  0  0
   -1.1354   -1.2341   -2.2679 H   0  0  0  0  0  0  0  0  0  0  0  0
    0.1735    2.2852   -1.6729 H   0  0  0  0  0  0  0  0  0  0  0  0
   -1.5601    2.5343   -1.9015 H   0  0  0  0  0  0  0  0  0  0  0  0
   -0.8642    2.6278   -0.2812 H   0  0  0  0  0  0  0  0  0  0  0  0
   -3.8146    1.0923   -1.8537 H   0  0  0  0  0  0  0  0  0  0  0  0
   -5.7804    0.5225   -0.4429 H   0  0  0  0  0  0  0  0  0  0  0  0
   -5.4595   -0.5373    1.7737 H   0  0  0  0  0  0  0  0  0  0  0  0
   -3.1976   -1.0414    2.6147 H   0  0  0  0  0  0  0  0  0  0  0  0
  1  2  1  0
  2  3  1  0
  3  4  2  3
  4  5  1  0
  5  6  2  3
  6  7  1  0
  7  8  1  0
  8  9  2  0
  8 10  1  0
 10 11  1  0
 11 12  2  0
  3 13  1  0
 13 14  1  0
 13 15  1  0
 13 16  1  0
 16 17  2  0
 17 18  1  0
 18 19  2  0
 19 20  1  0
 20 21  2  0
 21  2  1  0
 11  6  1  0
 21 16  1  0
  1 22  1  0
  1 23  1  0
  1 24  1  0
  4 25  1  0
  5 26  1  0
 10 27  1  0
 14 28  1  0
 14 29  1  0
 14 30  1  0
 15 31  1  0
 15 32  1  0
 15 33  1  0
 17 34  1  0
 18 35  1  0
 19 36  1  0
 20 37  1  0
M  END
$$$$
