
     RDKit          3D

 44 46  0  0  0  0  0  0  0  0999 V2000
   -6.0960    2.3303   -2.3499 C   0  0  0  0  0  0  0  0  0  0  0  0
   -5.1786    1.4067   -1.6050 C   0  0  0  0  0  0  0  0  0  0  0  0
   -5.0253    0.0753   -2.0135 C   0  0  0  0  0  0  0  0  0  0  0  0
   -4.1951   -0.8055   -1.3074 C   0  0  0  0  0  0  0  0  0  0  0  0
   -4.0451   -2.2263   -1.7739 C   0  0  0  0  0  0  0  0  0  0  0  0
   -3.5006   -0.3216   -0.1889 C   0  0  0  0  0  0  0  0  0  0  0  0
   -2.6645   -1.1586    0.5053 O   0  0  0  0  0  0  0  0  0  0  0  0
   -1.3538   -1.1457   -0.0565 C   0  0  0  0  0  0  0  0  0  0  0  0
   -0.2617   -0.9775    1.0105 C   0  0  0  0  0  0  0  0  0  0  0  0
   -0.5153   -0.9451    2.2095 O   0  0  0  0  0  0  0  0  0  0  0  0
    0.9888   -0.8668    0.4301 N   0  0  0  0  0  0  0  0  0  0  0  0
    2.1924   -0.7182    1.0700 C   0  0  0  0  0  0  0  0  0  0  0  0
    3.2981   -0.5696    0.3778 N   0  0  0  0  0  0  0  0  0  0  0  0
    4.3814   -0.4472    1.2453 C   0  0  0  0  0  0  0  0  0  0  0  0
    5.7487   -0.2619    0.7655 C   0  0  0  0  0  0  0  0  0  0  0  0
    6.0117   -0.1671   -0.5977 C   0  0  0  0  0  0  0  0  0  0  0  0
    7.3259    0.0226   -1.0186 C   0  0  0  0  0  0  0  0  0  0  0  0
    8.3361    0.1071   -0.0705 C   0  0  0  0  0  0  0  0  0  0  0  0
    7.9905   -0.0019    1.2654 C   0  0  0  0  0  0  0  0  0  0  0  0
    6.7258   -0.1808    1.7039 N   0  0  0  0  0  0  0  0  0  0  0  0
    4.0518   -0.5191    2.5864 C   0  0  0  0  0  0  0  0  0  0  0  0
    2.3632   -0.7304    2.7619 S   0  0  0  0  0  0  0  0  0  0  0  0
   -3.6826    0.9922    0.2730 C   0  0  0  0  0  0  0  0  0  0  0  0
   -2.9832    1.4889    1.5060 C   0  0  0  0  0  0  0  0  0  0  0  0
   -4.5159    1.8517   -0.4547 C   0  0  0  0  0  0  0  0  0  0  0  0
   -5.6895    3.3466   -2.3699 H   0  0  0  0  0  0  0  0  0  0  0  0
   -7.0788    2.3496   -1.8709 H   0  0  0  0  0  0  0  0  0  0  0  0
   -6.2181    2.0096   -3.3894 H   0  0  0  0  0  0  0  0  0  0  0  0
   -5.5628   -0.2798   -2.8904 H   0  0  0  0  0  0  0  0  0  0  0  0
   -3.0993   -2.3478   -2.3142 H   0  0  0  0  0  0  0  0  0  0  0  0
   -4.8619   -2.5117   -2.4455 H   0  0  0  0  0  0  0  0  0  0  0  0
   -4.0706   -2.9211   -0.9261 H   0  0  0  0  0  0  0  0  0  0  0  0
   -1.1903   -2.1161   -0.5443 H   0  0  0  0  0  0  0  0  0  0  0  0
   -1.2196   -0.3512   -0.8070 H   0  0  0  0  0  0  0  0  0  0  0  0
    1.0797   -0.8560   -0.5753 H   0  0  0  0  0  0  0  0  0  0  0  0
    5.2105   -0.2353   -1.3245 H   0  0  0  0  0  0  0  0  0  0  0  0
    7.5565    0.1004   -2.0761 H   0  0  0  0  0  0  0  0  0  0  0  0
    9.3692    0.2496   -0.3648 H   0  0  0  0  0  0  0  0  0  0  0  0
    8.7453    0.0552    2.0432 H   0  0  0  0  0  0  0  0  0  0  0  0
    4.7057   -0.4566    3.4446 H   0  0  0  0  0  0  0  0  0  0  0  0
   -3.1122    0.7833    2.3332 H   0  0  0  0  0  0  0  0  0  0  0  0
   -3.3873    2.4514    1.8326 H   0  0  0  0  0  0  0  0  0  0  0  0
   -1.9165    1.6208    1.3029 H   0  0  0  0  0  0  0  0  0  0  0  0
   -4.6566    2.8778   -0.1208 H   0  0  0  0  0  0  0  0  0  0  0  0
  1  2  1  0
  2  3  2  0
  3  4  1  0
  4  5  1  0
  4  6  2  0
  6  7  1  0
  7  8  1  0
  8  9  1  0
  9 10  2  0
  9 11  1  0
 11 12  1  0
 12 13  2  0
 13 14  1  0
 14 15  1  0
 15 16  2  0
 16 17  1  0
 17 18  2  0
 18 19  1  0
 19 20  2  0
 14 21  2  0
 21 22  1  0
  6 23  1  0
 23 24  1  0
 23 25  2  0
 25  2  1  0
 22 12  1  0
 20 15  1  0
  1 26  1  0
  1 27  1  0
  1 28  1  0
  3 29  1  0
  5 30  1  0
  5 31  1  0
  5 32  1  0
  8 33  1  0
  8 34  1  0
 11 35  1  0
 16 36  1  0
 17 37  1  0
 18 38  1  0
 19 39  1  0
 21 40  1  0
 24 41  1  0
 24 42  1  0
 24 43  1  0
 25 44  1  0
M  END
$$$$
