
     RDKit          3D

 37 38  0  0  0  0  0  0  0  0999 V2000
   -5.0997    2.5524   -0.3601 C   0  0  0  0  0  0  0  0  0  0  0  0
   -4.6131    1.4171    0.3403 O   0  0  0  0  0  0  0  0  0  0  0  0
   -3.4161    0.8796   -0.0628 C   0  0  0  0  0  0  0  0  0  0  0  0
   -2.6383    1.3819   -1.1122 C   0  0  0  0  0  0  0  0  0  0  0  0
   -1.4280    0.7706   -1.4520 C   0  0  0  0  0  0  0  0  0  0  0  0
   -0.9839   -0.3456   -0.7373 C   0  0  0  0  0  0  0  0  0  0  0  0
    0.2980   -1.0283   -1.0631 C   0  0  0  0  0  0  0  0  0  0  0  0
    0.4324   -2.2244   -0.8328 O   0  0  0  0  0  0  0  0  0  0  0  0
    1.2976   -0.2343   -1.5840 N   0  0  0  0  0  0  0  0  0  0  0  0
    2.6262   -0.7560   -1.8129 C   0  0  0  0  0  0  0  0  0  0  0  0
    3.5344   -0.4358   -0.6522 C   0  0  0  0  0  0  0  0  0  0  0  0
    4.3887    0.6736   -0.6934 C   0  0  0  0  0  0  0  0  0  0  0  0
    5.2085    0.9749    0.3974 C   0  0  0  0  0  0  0  0  0  0  0  0
    5.1791    0.1760    1.5443 C   0  0  0  0  0  0  0  0  0  0  0  0
    6.2192    0.6125    2.8532 Cl  0  0  0  0  0  0  0  0  0  0  0  0
    4.3242   -0.9290    1.5998 C   0  0  0  0  0  0  0  0  0  0  0  0
    4.2274   -1.9567    2.9853 Cl  0  0  0  0  0  0  0  0  0  0  0  0
    3.5060   -1.2298    0.5058 C   0  0  0  0  0  0  0  0  0  0  0  0
   -1.7657   -0.8646    0.3026 C   0  0  0  0  0  0  0  0  0  0  0  0
   -2.9777   -0.2574    0.6480 C   0  0  0  0  0  0  0  0  0  0  0  0
   -3.8006   -0.6907    1.6584 O   0  0  0  0  0  0  0  0  0  0  0  0
   -3.4244   -1.8708    2.3549 C   0  0  0  0  0  0  0  0  0  0  0  0
   -4.4160    3.4017   -0.2593 H   0  0  0  0  0  0  0  0  0  0  0  0
   -6.0546    2.8397    0.0904 H   0  0  0  0  0  0  0  0  0  0  0  0
   -5.2867    2.3168   -1.4130 H   0  0  0  0  0  0  0  0  0  0  0  0
   -2.9519    2.2443   -1.6914 H   0  0  0  0  0  0  0  0  0  0  0  0
   -0.8616    1.1617   -2.2923 H   0  0  0  0  0  0  0  0  0  0  0  0
    1.2014    0.7696   -1.5289 H   0  0  0  0  0  0  0  0  0  0  0  0
    3.0027   -0.2916   -2.7310 H   0  0  0  0  0  0  0  0  0  0  0  0
    2.5966   -1.8378   -1.9855 H   0  0  0  0  0  0  0  0  0  0  0  0
    4.4250    1.3108   -1.5750 H   0  0  0  0  0  0  0  0  0  0  0  0
    5.8694    1.8373    0.3477 H   0  0  0  0  0  0  0  0  0  0  0  0
    2.8339   -2.0868    0.5522 H   0  0  0  0  0  0  0  0  0  0  0  0
   -1.4008   -1.7410    0.8299 H   0  0  0  0  0  0  0  0  0  0  0  0
   -4.2015   -2.0836    3.0955 H   0  0  0  0  0  0  0  0  0  0  0  0
   -3.3672   -2.7294    1.6777 H   0  0  0  0  0  0  0  0  0  0  0  0
   -2.4826   -1.7267    2.8943 H   0  0  0  0  0  0  0  0  0  0  0  0
  1  2  1  0
  2  3  1  0
  3  4  2  0
  4  5  1  0
  5  6  2  0
  6  7  1  0
  7  8  2  0
  7  9  1  0
  9 10  1  0
 10 11  1  0
 11 12  2  0
 12 13  1  0
 13 14  2  0
 14 15  1  0
 14 16  1  0
 16 17  1  0
 16 18  2  0
  6 19  1  0
 19 20  2  0
 20 21  1  0
 21 22  1  0
 20  3  1  0
 18 11  1  0
  1 23  1  0
  1 24  1  0
  1 25  1  0
  4 26  1  0
  5 27  1  0
  9 28  1  0
 10 29  1  0
 10 30  1  0
 12 31  1  0
 13 32  1  0
 18 33  1  0
 19 34  1  0
 22 35  1  0
 22 36  1  0
 22 37  1  0
M  END
$$$$
