
     RDKit          3D

 52 56  0  0  0  0  0  0  0  0999 V2000
    2.4624   -2.3925    3.1608 O   0  0  0  0  0  0  0  0  0  0  0  0
    1.6460   -1.5218    2.8634 C   0  0  0  0  0  0  0  0  0  0  0  0
    0.2187   -1.5881    3.3933 C   0  0  0  0  0  0  0  0  0  0  0  0
   -0.9238   -2.2621    2.1471 S   0  0  0  0  0  0  0  0  0  0  0  0
   -1.2253   -0.8639    1.1630 C   0  0  0  0  0  0  0  0  0  0  0  0
   -0.7115    0.3212    1.4104 N   0  0  0  0  0  0  0  0  0  0  0  0
   -0.9851    1.1251    0.3435 N   0  0  0  0  0  0  0  0  0  0  0  0
   -1.7165    0.4407   -0.5203 C   0  0  0  0  0  0  0  0  0  0  0  0
   -2.4015    1.0548   -1.7003 C   0  0  0  0  0  0  0  0  0  0  0  0
   -3.7784    1.5484   -1.3458 C   0  0  0  0  0  0  0  0  0  0  0  0
   -4.1185    2.6681   -0.6069 C   0  0  0  0  0  0  0  0  0  0  0  0
   -5.5231    2.8280   -0.4762 C   0  0  0  0  0  0  0  0  0  0  0  0
   -6.2157    1.8271   -1.1214 C   0  0  0  0  0  0  0  0  0  0  0  0
   -5.1695    0.6959   -1.8671 S   0  0  0  0  0  0  0  0  0  0  0  0
   -1.8792   -0.8624   -0.0564 N   0  0  0  0  0  0  0  0  0  0  0  0
   -2.5716   -1.9258   -0.6868 C   0  0  0  0  0  0  0  0  0  0  0  0
   -3.4720   -2.7109    0.0436 C   0  0  0  0  0  0  0  0  0  0  0  0
   -4.1545   -3.7549   -0.5849 C   0  0  0  0  0  0  0  0  0  0  0  0
   -3.9355   -4.0222   -1.9333 C   0  0  0  0  0  0  0  0  0  0  0  0
   -3.0347   -3.2461   -2.6604 C   0  0  0  0  0  0  0  0  0  0  0  0
   -2.3507   -2.1983   -2.0408 C   0  0  0  0  0  0  0  0  0  0  0  0
    1.8888   -0.4092    2.0773 N   0  0  0  0  0  0  0  0  0  0  0  0
    3.0972   -0.0220    1.4645 C   0  0  0  0  0  0  0  0  0  0  0  0
    4.3155   -0.6779    1.6552 C   0  0  0  0  0  0  0  0  0  0  0  0
    5.4792   -0.2004    1.0423 C   0  0  0  0  0  0  0  0  0  0  0  0
    5.4278    0.9275    0.2292 C   0  0  0  0  0  0  0  0  0  0  0  0
    4.2059    1.5632   -0.0001 C   0  0  0  0  0  0  0  0  0  0  0  0
    3.0509    1.1029    0.6305 C   0  0  0  0  0  0  0  0  0  0  0  0
    4.0667    2.6521   -0.8239 O   0  0  0  0  0  0  0  0  0  0  0  0
    5.2210    2.8306   -1.6510 C   0  0  0  0  0  0  0  0  0  0  0  0
    6.4991    2.6836   -0.8349 C   0  0  0  0  0  0  0  0  0  0  0  0
    6.6128    1.3522   -0.3169 O   0  0  0  0  0  0  0  0  0  0  0  0
   -0.1040   -0.6055    3.7578 H   0  0  0  0  0  0  0  0  0  0  0  0
    0.2132   -2.2594    4.2602 H   0  0  0  0  0  0  0  0  0  0  0  0
   -1.8027    1.9168   -2.0306 H   0  0  0  0  0  0  0  0  0  0  0  0
   -2.4336    0.3886   -2.5653 H   0  0  0  0  0  0  0  0  0  0  0  0
   -3.3863    3.3397   -0.1760 H   0  0  0  0  0  0  0  0  0  0  0  0
   -5.9990    3.6392    0.0611 H   0  0  0  0  0  0  0  0  0  0  0  0
   -7.2865    1.7010   -1.1904 H   0  0  0  0  0  0  0  0  0  0  0  0
   -3.6937   -2.5056    1.0911 H   0  0  0  0  0  0  0  0  0  0  0  0
   -4.8621   -4.3590   -0.0208 H   0  0  0  0  0  0  0  0  0  0  0  0
   -4.4630   -4.8413   -2.4203 H   0  0  0  0  0  0  0  0  0  0  0  0
   -2.8547   -3.4670   -3.7091 H   0  0  0  0  0  0  0  0  0  0  0  0
   -1.6168   -1.6477   -2.6248 H   0  0  0  0  0  0  0  0  0  0  0  0
    1.0809    0.1794    1.8675 H   0  0  0  0  0  0  0  0  0  0  0  0
    4.4003   -1.5526    2.2920 H   0  0  0  0  0  0  0  0  0  0  0  0
    6.4249   -0.7049    1.2164 H   0  0  0  0  0  0  0  0  0  0  0  0
    2.1128    1.6266    0.4549 H   0  0  0  0  0  0  0  0  0  0  0  0
    5.1800    2.0972   -2.4688 H   0  0  0  0  0  0  0  0  0  0  0  0
    5.1622    3.8315   -2.0889 H   0  0  0  0  0  0  0  0  0  0  0  0
    7.3774    2.8696   -1.4680 H   0  0  0  0  0  0  0  0  0  0  0  0
    6.5253    3.3907    0.0085 H   0  0  0  0  0  0  0  0  0  0  0  0
  1  2  2  0
  2  3  1  0
  3  4  1  0
  4  5  1  0
  5  6  2  0
  6  7  1  0
  7  8  2  0
  8  9  1  0
  9 10  1  0
 10 11  2  0
 11 12  1  0
 12 13  2  0
 13 14  1  0
  8 15  1  0
 15 16  1  0
 16 17  2  0
 17 18  1  0
 18 19  2  0
 19 20  1  0
 20 21  2  0
  2 22  1  0
 22 23  1  0
 23 24  2  0
 24 25  1  0
 25 26  2  0
 26 27  1  0
 27 28  2  0
 27 29  1  0
 29 30  1  0
 30 31  1  0
 31 32  1  0
 15  5  1  0
 21 16  1  0
 28 23  1  0
 14 10  1  0
 32 26  1  0
  3 33  1  0
  3 34  1  0
  9 35  1  0
  9 36  1  0
 11 37  1  0
 12 38  1  0
 13 39  1  0
 17 40  1  0
 18 41  1  0
 19 42  1  0
 20 43  1  0
 21 44  1  0
 22 45  1  0
 24 46  1  0
 25 47  1  0
 28 48  1  0
 30 49  1  0
 30 50  1  0
 31 51  1  0
 31 52  1  0
M  END
$$$$
