
     RDKit          3D

 37 39  0  0  0  0  0  0  0  0999 V2000
    3.8129   -1.2445    0.4349 N   0  0  0  0  0  0  0  0  0  0  0  0
    3.0053   -0.4400   -0.4791 C   0  0  0  0  0  0  0  0  0  0  0  0
    2.1730    0.5994    0.2671 C   0  0  0  0  0  0  0  0  0  0  0  0
    1.0470    0.0324    1.1498 C   0  0  0  0  0  0  0  0  0  0  0  0
   -0.1742   -0.3111    0.3711 N   0  0  0  0  0  0  0  0  0  0  0  0
   -0.4061   -1.6895    0.0718 C   0  0  0  0  0  0  0  0  0  0  0  0
    0.5138   -2.7123    0.4006 C   0  0  0  0  0  0  0  0  0  0  0  0
    0.2918   -4.0664    0.1116 C   0  0  0  0  0  0  0  0  0  0  0  0
   -0.8700   -4.4566   -0.5260 C   0  0  0  0  0  0  0  0  0  0  0  0
   -1.7995   -3.4864   -0.8730 C   0  0  0  0  0  0  0  0  0  0  0  0
   -1.5780   -2.1220   -0.5839 C   0  0  0  0  0  0  0  0  0  0  0  0
   -2.8815   -1.0399   -1.1096 S   0  0  0  0  0  0  0  0  0  0  0  0
   -2.2870    0.5525   -0.6090 C   0  0  0  0  0  0  0  0  0  0  0  0
   -3.1478    1.6255   -0.9213 C   0  0  0  0  0  0  0  0  0  0  0  0
   -2.8214    2.9353   -0.5912 C   0  0  0  0  0  0  0  0  0  0  0  0
   -1.6237    3.1952    0.0651 C   0  0  0  0  0  0  0  0  0  0  0  0
   -1.2210    4.6058    0.4169 C   0  0  0  0  0  0  0  0  0  0  0  0
   -2.2731    5.4676    0.4899 F   0  0  0  0  0  0  0  0  0  0  0  0
   -0.5875    4.6901    1.6204 F   0  0  0  0  0  0  0  0  0  0  0  0
   -0.3613    5.1393   -0.4940 F   0  0  0  0  0  0  0  0  0  0  0  0
   -0.7651    2.1168    0.3667 C   0  0  0  0  0  0  0  0  0  0  0  0
   -1.0611    0.7670    0.0506 C   0  0  0  0  0  0  0  0  0  0  0  0
    4.3449   -1.9248   -0.1094 H   0  0  0  0  0  0  0  0  0  0  0  0
    4.5092   -0.6508    0.8864 H   0  0  0  0  0  0  0  0  0  0  0  0
    3.6805    0.0745   -1.1724 H   0  0  0  0  0  0  0  0  0  0  0  0
    2.3661   -1.0885   -1.0849 H   0  0  0  0  0  0  0  0  0  0  0  0
    2.8422    1.1925    0.9046 H   0  0  0  0  0  0  0  0  0  0  0  0
    1.7679    1.2963   -0.4751 H   0  0  0  0  0  0  0  0  0  0  0  0
    0.7895    0.7710    1.9202 H   0  0  0  0  0  0  0  0  0  0  0  0
    1.4129   -0.7847    1.7772 H   0  0  0  0  0  0  0  0  0  0  0  0
    1.4600   -2.5046    0.8869 H   0  0  0  0  0  0  0  0  0  0  0  0
    1.0390   -4.8058    0.3889 H   0  0  0  0  0  0  0  0  0  0  0  0
   -1.0529   -5.5023   -0.7545 H   0  0  0  0  0  0  0  0  0  0  0  0
   -2.7123   -3.7987   -1.3773 H   0  0  0  0  0  0  0  0  0  0  0  0
   -4.0912    1.4382   -1.4328 H   0  0  0  0  0  0  0  0  0  0  0  0
   -3.5050    3.7421   -0.8488 H   0  0  0  0  0  0  0  0  0  0  0  0
    0.1637    2.3874    0.8616 H   0  0  0  0  0  0  0  0  0  0  0  0
  1  2  1  0
  2  3  1  0
  3  4  1  0
  4  5  1  0
  5  6  1  0
  6  7  2  0
  7  8  1  0
  8  9  2  0
  9 10  1  0
 10 11  2  0
 11 12  1  0
 12 13  1  0
 13 14  2  0
 14 15  1  0
 15 16  2  0
 16 17  1  0
 17 18  1  0
 17 19  1  0
 17 20  1  0
 16 21  1  0
 21 22  2  0
 22  5  1  0
 11  6  1  0
 22 13  1  0
  1 23  1  0
  1 24  1  0
  2 25  1  0
  2 26  1  0
  3 27  1  0
  3 28  1  0
  4 29  1  0
  4 30  1  0
  7 31  1  0
  8 32  1  0
  9 33  1  0
 10 34  1  0
 14 35  1  0
 15 36  1  0
 21 37  1  0
M  END
$$$$
