
     RDKit          3D

 37 39  0  0  0  0  0  0  0  0999 V2000
    6.6643   -1.4107   -0.1547 C   0  0  0  0  0  0  0  0  0  0  0  0
    6.5923   -0.2043    0.7716 C   0  0  0  0  0  0  0  0  0  0  0  0
    5.8837    0.9978    0.1439 C   0  0  0  0  0  0  0  0  0  0  0  0
    4.4258    0.7624   -0.0826 C   0  0  0  0  0  0  0  0  0  0  0  0
    3.8989    0.3564   -1.2194 N   0  0  0  0  0  0  0  0  0  0  0  0
    2.5271    0.2269   -1.1339 N   0  0  0  0  0  0  0  0  0  0  0  0
    2.0707    0.5443    0.0574 C   0  0  0  0  0  0  0  0  0  0  0  0
    0.7381    0.4891    0.3668 N   0  0  0  0  0  0  0  0  0  0  0  0
    0.1402    0.7923    1.5672 C   0  0  0  0  0  0  0  0  0  0  0  0
    0.6951    1.1724    2.5943 O   0  0  0  0  0  0  0  0  0  0  0  0
   -1.3808    0.6100    1.5350 C   0  0  0  0  0  0  0  0  0  0  0  0
   -1.8193    0.1630    0.2536 O   0  0  0  0  0  0  0  0  0  0  0  0
   -3.1644   -0.0382    0.0961 C   0  0  0  0  0  0  0  0  0  0  0  0
   -3.5389   -0.4795   -1.1897 C   0  0  0  0  0  0  0  0  0  0  0  0
   -4.8778   -0.7297   -1.5071 C   0  0  0  0  0  0  0  0  0  0  0  0
   -5.8134   -0.5290   -0.5184 C   0  0  0  0  0  0  0  0  0  0  0  0
   -5.4536   -0.0989    0.7367 C   0  0  0  0  0  0  0  0  0  0  0  0
   -4.1397    0.1559    1.0781 C   0  0  0  0  0  0  0  0  0  0  0  0
   -6.5254    0.0364    1.5642 O   0  0  0  0  0  0  0  0  0  0  0  0
   -7.5998   -0.3582    0.6847 C   0  0  0  0  0  0  0  0  0  0  0  0
   -7.1536   -0.7183   -0.6391 O   0  0  0  0  0  0  0  0  0  0  0  0
    3.2730    1.0244    1.1635 S   0  0  0  0  0  0  0  0  0  0  0  0
    5.6687   -1.8083   -0.3739 H   0  0  0  0  0  0  0  0  0  0  0  0
    7.1492   -1.1509   -1.1011 H   0  0  0  0  0  0  0  0  0  0  0  0
    7.2460   -2.2104    0.3150 H   0  0  0  0  0  0  0  0  0  0  0  0
    6.1011   -0.4961    1.7074 H   0  0  0  0  0  0  0  0  0  0  0  0
    7.6159    0.0927    1.0300 H   0  0  0  0  0  0  0  0  0  0  0  0
    6.0195    1.8718    0.7931 H   0  0  0  0  0  0  0  0  0  0  0  0
    6.3597    1.2497   -0.8118 H   0  0  0  0  0  0  0  0  0  0  0  0
    0.1397    0.1855   -0.3937 H   0  0  0  0  0  0  0  0  0  0  0  0
   -1.8253    1.5846    1.7675 H   0  0  0  0  0  0  0  0  0  0  0  0
   -1.6308   -0.1337    2.3004 H   0  0  0  0  0  0  0  0  0  0  0  0
   -2.7761   -0.6292   -1.9509 H   0  0  0  0  0  0  0  0  0  0  0  0
   -5.1689   -1.0690   -2.4946 H   0  0  0  0  0  0  0  0  0  0  0  0
   -3.9164    0.4926    2.0822 H   0  0  0  0  0  0  0  0  0  0  0  0
   -8.1167   -1.2178    1.1267 H   0  0  0  0  0  0  0  0  0  0  0  0
   -8.3083    0.4740    0.6019 H   0  0  0  0  0  0  0  0  0  0  0  0
  1  2  1  0
  2  3  1  0
  3  4  1  0
  4  5  2  0
  5  6  1  0
  6  7  2  0
  7  8  1  0
  8  9  1  0
  9 10  2  0
  9 11  1  0
 11 12  1  0
 12 13  1  0
 13 14  2  0
 14 15  1  0
 15 16  2  0
 16 17  1  0
 17 18  2  0
 17 19  1  0
 19 20  1  0
 20 21  1  0
  7 22  1  0
 22  4  1  0
 18 13  1  0
 21 16  1  0
  1 23  1  0
  1 24  1  0
  1 25  1  0
  2 26  1  0
  2 27  1  0
  3 28  1  0
  3 29  1  0
  8 30  1  0
 11 31  1  0
 11 32  1  0
 14 33  1  0
 15 34  1  0
 18 35  1  0
 20 36  1  0
 20 37  1  0
M  END
$$$$
