
     RDKit          3D

 43 45  0  0  0  0  0  0  0  0999 V2000
    4.5403    4.5520    2.4514 C   0  0  0  0  0  0  0  0  0  0  0  0
    4.4814    3.6933    1.3198 O   0  0  0  0  0  0  0  0  0  0  0  0
    3.4789    2.7642    1.2758 C   0  0  0  0  0  0  0  0  0  0  0  0
    2.5041    2.5980    2.2623 C   0  0  0  0  0  0  0  0  0  0  0  0
    1.4848    1.6488    2.1063 C   0  0  0  0  0  0  0  0  0  0  0  0
    1.4120    0.8539    0.9559 C   0  0  0  0  0  0  0  0  0  0  0  0
    0.3278   -0.1328    0.8445 C   0  0  0  0  0  0  0  0  0  0  0  0
   -0.2628   -0.4634   -0.3159 C   0  0  0  0  0  0  0  0  0  0  0  0
   -1.3572   -1.4385   -0.3884 C   0  0  0  0  0  0  0  0  0  0  0  0
   -1.0905   -2.7635   -0.0371 C   0  0  0  0  0  0  0  0  0  0  0  0
   -2.0827   -3.7227   -0.1310 C   0  0  0  0  0  0  0  0  0  0  0  0
   -3.3418   -3.3583   -0.5931 C   0  0  0  0  0  0  0  0  0  0  0  0
   -4.3516   -4.3263   -0.7037 C   0  0  0  0  0  0  0  0  0  0  0  0
   -5.6160   -3.9814   -1.1760 C   0  0  0  0  0  0  0  0  0  0  0  0
   -5.8820   -2.6694   -1.5479 C   0  0  0  0  0  0  0  0  0  0  0  0
   -4.8853   -1.6935   -1.4425 C   0  0  0  0  0  0  0  0  0  0  0  0
   -3.5993   -2.0077   -0.9565 C   0  0  0  0  0  0  0  0  0  0  0  0
   -2.5983   -1.0735   -0.8248 N   0  0  0  0  0  4  0  0  0  0  0  0
   -2.8891    0.3488   -1.1351 C   0  0  0  0  0  0  0  0  0  0  0  0
    2.3996    1.0031   -0.0222 C   0  0  0  0  0  0  0  0  0  0  0  0
    3.4287    1.9378    0.1435 C   0  0  0  0  0  0  0  0  0  0  0  0
    4.3177    2.0337   -0.8994 O   0  0  0  0  0  0  0  0  0  0  0  0
    5.6319    1.6305   -0.5110 C   0  0  0  0  0  0  0  0  0  0  0  0
    3.6428    5.1767    2.5164 H   0  0  0  0  0  0  0  0  0  0  0  0
    5.4024    5.2143    2.3235 H   0  0  0  0  0  0  0  0  0  0  0  0
    4.6961    3.9817    3.3734 H   0  0  0  0  0  0  0  0  0  0  0  0
    2.5012    3.1968    3.1673 H   0  0  0  0  0  0  0  0  0  0  0  0
    0.7398    1.5555    2.8953 H   0  0  0  0  0  0  0  0  0  0  0  0
    0.0049   -0.5717    1.7877 H   0  0  0  0  0  0  0  0  0  0  0  0
    0.0408   -0.0153   -1.2594 H   0  0  0  0  0  0  0  0  0  0  0  0
   -0.0992   -3.0573    0.3050 H   0  0  0  0  0  0  0  0  0  0  0  0
   -1.8576   -4.7536    0.1458 H   0  0  0  0  0  0  0  0  0  0  0  0
   -4.1659   -5.3652   -0.4257 H   0  0  0  0  0  0  0  0  0  0  0  0
   -6.3926   -4.7413   -1.2582 H   0  0  0  0  0  0  0  0  0  0  0  0
   -6.8713   -2.4055   -1.9227 H   0  0  0  0  0  0  0  0  0  0  0  0
   -5.1581   -0.6914   -1.7608 H   0  0  0  0  0  0  0  0  0  0  0  0
   -3.7987    0.6395   -0.6009 H   0  0  0  0  0  0  0  0  0  0  0  0
   -2.0978    1.0168   -0.7972 H   0  0  0  0  0  0  0  0  0  0  0  0
   -3.0092    0.4342   -2.2187 H   0  0  0  0  0  0  0  0  0  0  0  0
    2.4054    0.3902   -0.9197 H   0  0  0  0  0  0  0  0  0  0  0  0
    5.6144    0.6762    0.0308 H   0  0  0  0  0  0  0  0  0  0  0  0
    6.1367    2.4001    0.0826 H   0  0  0  0  0  0  0  0  0  0  0  0
    6.2155    1.4863   -1.4259 H   0  0  0  0  0  0  0  0  0  0  0  0
  1  2  1  0
  2  3  1  0
  3  4  2  0
  4  5  1  0
  5  6  2  0
  6  7  1  0
  7  8  2  3
  8  9  1  0
  9 10  2  0
 10 11  1  0
 11 12  2  0
 12 13  1  0
 13 14  2  0
 14 15  1  0
 15 16  2  0
 16 17  1  0
 17 18  2  0
 18 19  1  0
  6 20  1  0
 20 21  2  0
 21 22  1  0
 22 23  1  0
 21  3  1  0
 18  9  1  0
 17 12  1  0
  1 24  1  0
  1 25  1  0
  1 26  1  0
  4 27  1  0
  5 28  1  0
  7 29  1  0
  8 30  1  0
 10 31  1  0
 11 32  1  0
 13 33  1  0
 14 34  1  0
 15 35  1  0
 16 36  1  0
 19 37  1  0
 19 38  1  0
 19 39  1  0
 20 40  1  0
 23 41  1  0
 23 42  1  0
 23 43  1  0
M  CHG  1  18   1
M  END
$$$$
