
     RDKit          3D

 41 44  0  0  0  0  0  0  0  0999 V2000
    0.3292   -1.8990   -1.7843 O   0  0  0  0  0  0  0  0  0  0  0  0
    0.2649   -0.6893   -1.5793 C   0  0  0  0  0  0  0  0  0  0  0  0
   -1.0164    0.0920   -1.8983 C   0  0  0  0  0  0  0  0  0  0  0  0
   -1.7622    0.4594   -0.6887 N   0  0  0  0  0  0  0  0  0  0  0  0
   -1.3104    1.5547    0.0395 C   0  0  0  0  0  0  0  0  0  0  0  0
   -0.3460    2.2325   -0.3313 O   0  0  0  0  0  0  0  0  0  0  0  0
   -1.9694    1.8372    1.3688 C   0  0  0  0  0  0  0  0  0  0  0  0
   -3.2163    2.6802    1.2222 C   0  0  0  0  0  0  0  0  0  0  0  0
   -4.4113    2.1143   -0.0250 S   0  0  0  0  0  0  0  0  0  0  0  0
   -4.1490    0.3431    0.0257 C   0  0  0  0  0  0  0  0  0  0  0  0
   -5.2737   -0.4408    0.3281 C   0  0  0  0  0  0  0  0  0  0  0  0
   -5.2163   -1.8311    0.2490 C   0  0  0  0  0  0  0  0  0  0  0  0
   -4.0405   -2.4507   -0.1565 C   0  0  0  0  0  0  0  0  0  0  0  0
   -2.9178   -1.6824   -0.4729 C   0  0  0  0  0  0  0  0  0  0  0  0
   -2.9447   -0.2810   -0.3710 C   0  0  0  0  0  0  0  0  0  0  0  0
    1.2655    0.1092   -1.0520 N   0  0  0  0  0  0  0  0  0  0  0  0
    2.5625   -0.2690   -0.6549 C   0  0  0  0  0  0  0  0  0  0  0  0
    3.0805   -1.5692   -0.8084 C   0  0  0  0  0  0  0  0  0  0  0  0
    4.3824   -1.8807   -0.3931 C   0  0  0  0  0  0  0  0  0  0  0  0
    5.1370   -0.8757    0.1674 C   0  0  0  0  0  0  0  0  0  0  0  0
    4.6402    0.3954    0.3190 C   0  0  0  0  0  0  0  0  0  0  0  0
    3.3628    0.7301   -0.0809 C   0  0  0  0  0  0  0  0  0  0  0  0
    5.5404    1.2393    0.8916 O   0  0  0  0  0  0  0  0  0  0  0  0
    6.6622    0.3511    1.0798 C   0  0  0  0  0  0  0  0  0  0  0  0
    6.4115   -0.9944    0.6240 O   0  0  0  0  0  0  0  0  0  0  0  0
   -1.6408   -0.4983   -2.5791 H   0  0  0  0  0  0  0  0  0  0  0  0
   -0.7422    1.0024   -2.4460 H   0  0  0  0  0  0  0  0  0  0  0  0
   -1.2441    2.3688    1.9978 H   0  0  0  0  0  0  0  0  0  0  0  0
   -2.1701    0.8999    1.9004 H   0  0  0  0  0  0  0  0  0  0  0  0
   -3.7318    2.7354    2.1870 H   0  0  0  0  0  0  0  0  0  0  0  0
   -2.9397    3.7048    0.9504 H   0  0  0  0  0  0  0  0  0  0  0  0
   -6.2145    0.0295    0.6083 H   0  0  0  0  0  0  0  0  0  0  0  0
   -6.0941   -2.4271    0.4860 H   0  0  0  0  0  0  0  0  0  0  0  0
   -3.9917   -3.5350   -0.2284 H   0  0  0  0  0  0  0  0  0  0  0  0
   -2.0125   -2.2095   -0.7654 H   0  0  0  0  0  0  0  0  0  0  0  0
    1.0088    1.0839   -0.8781 H   0  0  0  0  0  0  0  0  0  0  0  0
    2.4911   -2.3648   -1.2540 H   0  0  0  0  0  0  0  0  0  0  0  0
    4.7814   -2.8818   -0.5113 H   0  0  0  0  0  0  0  0  0  0  0  0
    3.0039    1.7446    0.0550 H   0  0  0  0  0  0  0  0  0  0  0  0
    7.5227    0.7524    0.5321 H   0  0  0  0  0  0  0  0  0  0  0  0
    6.9086    0.3195    2.1474 H   0  0  0  0  0  0  0  0  0  0  0  0
  1  2  2  0
  2  3  1  0
  3  4  1  0
  4  5  1  0
  5  6  2  0
  5  7  1  0
  7  8  1  0
  8  9  1  0
  9 10  1  0
 10 11  2  0
 11 12  1  0
 12 13  2  0
 13 14  1  0
 14 15  2  0
  2 16  1  0
 16 17  1  0
 17 18  2  0
 18 19  1  0
 19 20  2  0
 20 21  1  0
 21 22  2  0
 21 23  1  0
 23 24  1  0
 24 25  1  0
 15  4  1  0
 22 17  1  0
 15 10  1  0
 25 20  1  0
  3 26  1  0
  3 27  1  0
  7 28  1  0
  7 29  1  0
  8 30  1  0
  8 31  1  0
 11 32  1  0
 12 33  1  0
 13 34  1  0
 14 35  1  0
 16 36  1  0
 18 37  1  0
 19 38  1  0
 22 39  1  0
 24 40  1  0
 24 41  1  0
M  END
$$$$
