
     RDKit          3D

 51 54  0  0  0  0  0  0  0  0999 V2000
   -6.5821   -1.8709    1.1873 C   0  0  0  0  0  0  0  0  0  0  0  0
   -6.4811   -1.1230   -0.1346 C   0  0  0  0  0  0  0  0  0  0  0  0
   -5.6849    0.1041    0.0081 N   0  0  0  0  0  0  0  0  0  0  0  0
   -6.4314    1.3154    0.3734 C   0  0  0  0  0  0  0  0  0  0  0  0
   -6.9061    2.0649   -0.8635 C   0  0  0  0  0  0  0  0  0  0  0  0
   -4.3084    0.1202   -0.1932 C   0  0  0  0  0  0  0  0  0  0  0  0
   -3.5567   -1.0632   -0.3312 C   0  0  0  0  0  0  0  0  0  0  0  0
   -2.1656   -1.0645   -0.5320 C   0  0  0  0  0  0  0  0  0  0  0  0
   -1.4738    0.1359   -0.6100 C   0  0  0  0  0  0  0  0  0  0  0  0
   -0.0406    0.2012   -0.8256 C   0  0  0  0  0  0  0  0  0  0  0  0
    0.5814    1.3875   -0.9431 C   0  0  0  0  0  0  0  0  0  0  0  0
    1.9922    1.3821   -1.1658 C   0  0  0  0  0  0  0  0  0  0  0  0
    2.8621    0.5966   -0.5484 N   0  0  0  0  0  0  0  0  0  0  0  0
    4.1481    0.7880   -1.0314 C   0  0  0  0  0  0  0  0  0  0  0  0
    5.2779    0.0601   -0.4656 C   0  0  0  0  0  0  0  0  0  0  0  0
    5.2146   -0.3773    0.8671 C   0  0  0  0  0  0  0  0  0  0  0  0
    6.2831   -1.0680    1.4510 C   0  0  0  0  0  0  0  0  0  0  0  0
    7.4306   -1.3385    0.7065 C   0  0  0  0  0  0  0  0  0  0  0  0
    8.5440   -1.9926    1.1550 O   0  0  0  0  0  0  0  0  0  0  0  0
    8.4685   -2.5652    2.4545 C   0  0  0  0  0  0  0  0  0  0  0  0
    7.4970   -0.9137   -0.6237 C   0  0  0  0  0  0  0  0  0  0  0  0
    6.4309   -0.2218   -1.2086 C   0  0  0  0  0  0  0  0  0  0  0  0
    4.2481    1.7200   -2.0417 C   0  0  0  0  0  0  0  0  0  0  0  0
    2.7033    2.3574   -2.4103 S   0  0  0  0  0  0  0  0  0  0  0  0
   -0.1702    2.6628   -0.7980 C   0  0  0  0  0  0  0  0  0  0  0  0
    0.3615    3.7668   -0.8547 O   0  0  0  0  0  0  0  0  0  0  0  0
   -1.5433    2.5580   -0.5743 O   0  0  0  0  0  0  0  0  0  0  0  0
   -2.1917    1.3115   -0.4854 C   0  0  0  0  0  0  0  0  0  0  0  0
   -3.5746    1.3156   -0.2744 C   0  0  0  0  0  0  0  0  0  0  0  0
   -5.5965   -2.1228    1.5899 H   0  0  0  0  0  0  0  0  0  0  0  0
   -7.0989   -1.2671    1.9398 H   0  0  0  0  0  0  0  0  0  0  0  0
   -7.1434   -2.8007    1.0563 H   0  0  0  0  0  0  0  0  0  0  0  0
   -6.0847   -1.7740   -0.9228 H   0  0  0  0  0  0  0  0  0  0  0  0
   -7.4952   -0.8683   -0.4673 H   0  0  0  0  0  0  0  0  0  0  0  0
   -5.8436    1.9723    1.0258 H   0  0  0  0  0  0  0  0  0  0  0  0
   -7.3110    1.0394    0.9696 H   0  0  0  0  0  0  0  0  0  0  0  0
   -7.5705    1.4425   -1.4724 H   0  0  0  0  0  0  0  0  0  0  0  0
   -7.4593    2.9627   -0.5704 H   0  0  0  0  0  0  0  0  0  0  0  0
   -6.0704    2.3760   -1.4987 H   0  0  0  0  0  0  0  0  0  0  0  0
   -4.0359   -2.0385   -0.2670 H   0  0  0  0  0  0  0  0  0  0  0  0
   -1.6472   -2.0147   -0.6250 H   0  0  0  0  0  0  0  0  0  0  0  0
    0.5077   -0.7355   -0.8971 H   0  0  0  0  0  0  0  0  0  0  0  0
    4.3278   -0.1738    1.4676 H   0  0  0  0  0  0  0  0  0  0  0  0
    6.1854   -1.3692    2.4894 H   0  0  0  0  0  0  0  0  0  0  0  0
    7.6646   -3.3028    2.5118 H   0  0  0  0  0  0  0  0  0  0  0  0
    8.3532   -1.7913    3.2200 H   0  0  0  0  0  0  0  0  0  0  0  0
    9.4121   -3.0837    2.6460 H   0  0  0  0  0  0  0  0  0  0  0  0
    8.3874   -1.1256   -1.2128 H   0  0  0  0  0  0  0  0  0  0  0  0
    6.5188    0.0775   -2.2505 H   0  0  0  0  0  0  0  0  0  0  0  0
    5.1254    2.0654   -2.5709 H   0  0  0  0  0  0  0  0  0  0  0  0
   -4.0585    2.2828   -0.1937 H   0  0  0  0  0  0  0  0  0  0  0  0
  1  2  1  0
  2  3  1  0
  3  4  1  0
  4  5  1  0
  3  6  1  0
  6  7  2  0
  7  8  1  0
  8  9  2  0
  9 10  1  0
 10 11  2  0
 11 12  1  0
 12 13  2  0
 13 14  1  0
 14 15  1  0
 15 16  2  0
 16 17  1  0
 17 18  2  0
 18 19  1  0
 19 20  1  0
 18 21  1  0
 21 22  2  0
 14 23  2  0
 23 24  1  0
 11 25  1  0
 25 26  2  0
 25 27  1  0
 27 28  1  0
 28 29  2  0
 29  6  1  0
 28  9  1  0
 24 12  1  0
 22 15  1  0
  1 30  1  0
  1 31  1  0
  1 32  1  0
  2 33  1  0
  2 34  1  0
  4 35  1  0
  4 36  1  0
  5 37  1  0
  5 38  1  0
  5 39  1  0
  7 40  1  0
  8 41  1  0
 10 42  1  0
 16 43  1  0
 17 44  1  0
 20 45  1  0
 20 46  1  0
 20 47  1  0
 21 48  1  0
 22 49  1  0
 23 50  1  0
 29 51  1  0
M  END
$$$$
