
     RDKit          3D

 46 49  0  0  0  0  0  0  0  0999 V2000
    1.3489    0.4020   -1.5945 O   0  0  0  0  0  0  0  0  0  0  0  0
    1.7806    1.2045   -0.7757 C   0  0  0  0  0  0  0  0  0  0  0  0
    1.0036    1.6869    0.4424 C   0  0  0  0  0  0  0  0  0  0  0  0
   -0.3272    1.0558    0.5259 N   0  0  0  0  0  4  0  0  0  0  0  0
   -1.5631    1.6845    0.3898 C   0  0  0  0  0  0  0  0  0  0  0  0
   -2.5690    0.7278    0.4757 C   0  0  0  0  0  0  0  0  0  0  0  0
   -4.1188    0.9915    0.4060 C   0  0  0  0  0  0  0  0  0  0  0  0
   -5.0307   -0.0501    0.5832 C   0  0  0  0  0  0  0  0  0  0  0  0
   -6.4069    0.2002    0.5219 C   0  0  0  0  0  0  0  0  0  0  0  0
   -6.8834    1.4916    0.2826 C   0  0  0  0  0  0  0  0  0  0  0  0
   -8.5914    1.7235    0.2196 Cl  0  0  0  0  0  0  0  0  0  0  0  0
   -5.9738    2.5374    0.1105 C   0  0  0  0  0  0  0  0  0  0  0  0
   -6.4750    4.1643   -0.1784 Cl  0  0  0  0  0  0  0  0  0  0  0  0
   -4.5954    2.2880    0.1736 C   0  0  0  0  0  0  0  0  0  0  0  0
   -1.8693   -0.4554    0.6322 N   0  0  0  0  0  0  0  0  0  0  0  0
   -0.5549   -0.2470    0.6673 C   0  0  0  0  0  0  0  0  0  0  0  0
    0.2288   -1.4909    0.8569 C   0  0  0  0  0  0  0  0  0  0  0  0
   -0.8230   -2.5772    0.5613 C   0  0  0  0  0  0  0  0  0  0  0  0
   -2.1939   -1.8714    0.7462 C   0  0  0  0  0  0  0  0  0  0  0  0
    3.0219    1.7586   -0.7789 O   0  0  0  0  0  0  0  0  0  0  0  0
    3.9326    1.2302   -1.7560 C   0  0  0  0  0  0  0  0  0  0  0  0
    4.6146    0.0188   -1.1763 C   0  0  0  0  0  0  0  0  0  0  0  0
    5.5496    0.1610   -0.1412 C   0  0  0  0  0  0  0  0  0  0  0  0
    6.1692   -0.9611    0.4113 C   0  0  0  0  0  0  0  0  0  0  0  0
    5.8565   -2.2344   -0.0610 C   0  0  0  0  0  0  0  0  0  0  0  0
    4.9235   -2.3879   -1.0848 C   0  0  0  0  0  0  0  0  0  0  0  0
    4.3028   -1.2672   -1.6392 C   0  0  0  0  0  0  0  0  0  0  0  0
    0.8794    2.7723    0.3838 H   0  0  0  0  0  0  0  0  0  0  0  0
    1.5517    1.4194    1.3515 H   0  0  0  0  0  0  0  0  0  0  0  0
   -1.5715    2.7525    0.2530 H   0  0  0  0  0  0  0  0  0  0  0  0
   -4.7147   -1.0665    0.7832 H   0  0  0  0  0  0  0  0  0  0  0  0
   -7.1091   -0.6203    0.6633 H   0  0  0  0  0  0  0  0  0  0  0  0
   -3.9180    3.1256    0.0328 H   0  0  0  0  0  0  0  0  0  0  0  0
    1.0741   -1.5109    0.1701 H   0  0  0  0  0  0  0  0  0  0  0  0
    0.5529   -1.4954    1.9003 H   0  0  0  0  0  0  0  0  0  0  0  0
   -0.7267   -2.8918   -0.4842 H   0  0  0  0  0  0  0  0  0  0  0  0
   -0.7124   -3.4633    1.1913 H   0  0  0  0  0  0  0  0  0  0  0  0
   -2.6034   -2.0594    1.7427 H   0  0  0  0  0  0  0  0  0  0  0  0
   -2.8992   -2.1751   -0.0304 H   0  0  0  0  0  0  0  0  0  0  0  0
    3.4281    1.0124   -2.7054 H   0  0  0  0  0  0  0  0  0  0  0  0
    4.6774    2.0048   -1.9706 H   0  0  0  0  0  0  0  0  0  0  0  0
    5.8107    1.1487    0.2339 H   0  0  0  0  0  0  0  0  0  0  0  0
    6.9049   -0.8427    1.2036 H   0  0  0  0  0  0  0  0  0  0  0  0
    6.3498   -3.1073    0.3617 H   0  0  0  0  0  0  0  0  0  0  0  0
    4.6900   -3.3818   -1.4598 H   0  0  0  0  0  0  0  0  0  0  0  0
    3.5791   -1.4054   -2.4409 H   0  0  0  0  0  0  0  0  0  0  0  0
  1  2  2  0
  2  3  1  0
  3  4  1  0
  4  5  1  0
  5  6  2  0
  6  7  1  0
  7  8  2  0
  8  9  1  0
  9 10  2  0
 10 11  1  0
 10 12  1  0
 12 13  1  0
 12 14  2  0
  6 15  1  0
 15 16  1  0
 16 17  1  0
 17 18  1  0
 18 19  1  0
  2 20  1  0
 20 21  1  0
 21 22  1  0
 22 23  2  0
 23 24  1  0
 24 25  2  0
 25 26  1  0
 26 27  2  0
 16  4  2  0
 27 22  1  0
 14  7  1  0
 19 15  1  0
  3 28  1  0
  3 29  1  0
  5 30  1  0
  8 31  1  0
  9 32  1  0
 14 33  1  0
 17 34  1  0
 17 35  1  0
 18 36  1  0
 18 37  1  0
 19 38  1  0
 19 39  1  0
 21 40  1  0
 21 41  1  0
 23 42  1  0
 24 43  1  0
 25 44  1  0
 26 45  1  0
 27 46  1  0
M  CHG  1   4   1
M  END
$$$$
