
     RDKit          3D

 57 61  0  0  0  0  0  0  0  0999 V2000
    1.1615   -3.8610    0.9810 O   0  0  0  0  0  0  0  0  0  0  0  0
    1.6181   -2.7366    0.8078 C   0  0  0  0  0  0  0  0  0  0  0  0
    0.8087   -1.6660    0.4484 N   0  0  0  0  0  0  0  0  0  0  0  0
    1.2704   -0.3741    0.2228 C   0  0  0  0  0  0  0  0  0  0  0  0
    0.2287    0.6728   -0.1565 C   0  0  0  0  0  0  0  0  0  0  0  0
   -0.5166    0.3034   -1.4436 C   0  0  0  0  0  0  0  0  0  0  0  0
   -1.8686    0.9999   -1.4951 C   0  0  0  0  0  0  0  0  0  0  0  0
   -2.7414    0.4983   -0.3979 N   0  0  0  0  0  0  0  0  0  0  0  0
   -4.2267    1.3606   -0.2873 S   0  0  0  0  0  6  0  0  0  0  0  0
   -4.7761    1.4879   -1.6183 O   0  0  0  0  0  0  0  0  0  0  0  0
   -3.9444    2.5109    0.5379 O   0  0  0  0  0  0  0  0  0  0  0  0
   -5.2740    0.2157    0.5924 C   0  0  0  0  0  0  0  0  0  0  0  0
   -5.2435   -1.1253    0.1579 C   0  0  0  0  0  0  0  0  0  0  0  0
   -6.0089   -2.0947    0.8032 C   0  0  0  0  0  0  0  0  0  0  0  0
   -6.8098   -1.7314    1.8810 C   0  0  0  0  0  0  0  0  0  0  0  0
   -6.8558   -0.3980    2.3054 C   0  0  0  0  0  0  0  0  0  0  0  0
   -6.0973    0.6042    1.6645 C   0  0  0  0  0  0  0  0  0  0  0  0
   -6.2148    2.0306    2.1543 C   0  0  0  0  0  0  0  0  0  0  0  0
   -6.4275    2.9296    1.1577 F   0  0  0  0  0  0  0  0  0  0  0  0
   -5.1265    2.4342    2.8629 F   0  0  0  0  0  0  0  0  0  0  0  0
   -7.2701    2.1994    3.0045 F   0  0  0  0  0  0  0  0  0  0  0  0
   -2.0574    0.2422    0.9012 C   0  0  0  0  0  0  0  0  0  0  0  0
   -0.7240    0.9702    1.0116 C   0  0  0  0  0  0  0  0  0  0  0  0
    2.5198   -0.0170    0.3398 N   0  0  0  0  0  0  0  0  0  0  0  0
    3.3322   -1.0437    0.6931 C   0  0  0  0  0  0  0  0  0  0  0  0
    2.9954   -2.3527    0.9380 C   0  0  0  0  0  0  0  0  0  0  0  0
    4.0946   -3.0762    1.2794 N   0  0  0  0  0  0  0  0  0  0  0  0
    5.1374   -2.2468    1.2540 N   0  0  0  0  0  0  0  0  0  0  0  0
    4.6839   -1.0229    0.8839 N   0  0  0  0  0  0  0  0  0  0  0  0
    5.5848    0.1063    0.7906 C   0  0  0  0  0  0  0  0  0  0  0  0
    6.0712    0.3116   -0.6229 C   0  0  0  0  0  0  0  0  0  0  0  0
    5.4031    1.1960   -1.4868 C   0  0  0  0  0  0  0  0  0  0  0  0
    5.8445    1.3796   -2.8003 C   0  0  0  0  0  0  0  0  0  0  0  0
    6.9547    0.6768   -3.2653 C   0  0  0  0  0  0  0  0  0  0  0  0
    7.6105   -0.2067   -2.4161 C   0  0  0  0  0  0  0  0  0  0  0  0
    8.6739   -0.8852   -2.8664 F   0  0  0  0  0  0  0  0  0  0  0  0
    7.1803   -0.3983   -1.1062 C   0  0  0  0  0  0  0  0  0  0  0  0
   -0.1590   -1.9139    0.3144 H   0  0  0  0  0  0  0  0  0  0  0  0
    0.7857    1.6012   -0.3498 H   0  0  0  0  0  0  0  0  0  0  0  0
   -0.6635   -0.7790   -1.5339 H   0  0  0  0  0  0  0  0  0  0  0  0
    0.0879    0.5985   -2.3091 H   0  0  0  0  0  0  0  0  0  0  0  0
   -1.7426    2.0871   -1.4213 H   0  0  0  0  0  0  0  0  0  0  0  0
   -2.3442    0.7710   -2.4568 H   0  0  0  0  0  0  0  0  0  0  0  0
   -4.6281   -1.4170   -0.6927 H   0  0  0  0  0  0  0  0  0  0  0  0
   -5.9834   -3.1282    0.4626 H   0  0  0  0  0  0  0  0  0  0  0  0
   -7.4108   -2.4828    2.3868 H   0  0  0  0  0  0  0  0  0  0  0  0
   -7.5034   -0.1392    3.1455 H   0  0  0  0  0  0  0  0  0  0  0  0
   -1.9155   -0.8393    0.9894 H   0  0  0  0  0  0  0  0  0  0  0  0
   -2.6890    0.5280    1.7489 H   0  0  0  0  0  0  0  0  0  0  0  0
   -0.2522    0.7328    1.9727 H   0  0  0  0  0  0  0  0  0  0  0  0
   -0.9247    2.0500    1.0277 H   0  0  0  0  0  0  0  0  0  0  0  0
    6.4264   -0.0686    1.4710 H   0  0  0  0  0  0  0  0  0  0  0  0
    5.0576    0.9931    1.1583 H   0  0  0  0  0  0  0  0  0  0  0  0
    4.5265    1.7444   -1.1420 H   0  0  0  0  0  0  0  0  0  0  0  0
    5.3200    2.0668   -3.4607 H   0  0  0  0  0  0  0  0  0  0  0  0
    7.3088    0.8076   -4.2831 H   0  0  0  0  0  0  0  0  0  0  0  0
    7.7128   -1.1062   -0.4764 H   0  0  0  0  0  0  0  0  0  0  0  0
  1  2  2  0
  2  3  1  0
  3  4  1  0
  4  5  1  0
  5  6  1  0
  6  7  1  0
  7  8  1  0
  8  9  1  0
  9 10  2  0
  9 11  2  0
  9 12  1  0
 12 13  2  0
 13 14  1  0
 14 15  2  0
 15 16  1  0
 16 17  2  0
 17 18  1  0
 18 19  1  0
 18 20  1  0
 18 21  1  0
  8 22  1  0
 22 23  1  0
  4 24  2  0
 24 25  1  0
 25 26  2  0
 26 27  1  0
 27 28  2  0
 28 29  1  0
 29 30  1  0
 30 31  1  0
 31 32  2  0
 32 33  1  0
 33 34  2  0
 34 35  1  0
 35 36  1  0
 35 37  2  0
 26  2  1  0
 37 31  1  0
 23  5  1  0
 29 25  1  0
 17 12  1  0
  3 38  1  0
  5 39  1  0
  6 40  1  0
  6 41  1  0
  7 42  1  0
  7 43  1  0
 13 44  1  0
 14 45  1  0
 15 46  1  0
 16 47  1  0
 22 48  1  0
 22 49  1  0
 23 50  1  0
 23 51  1  0
 30 52  1  0
 30 53  1  0
 32 54  1  0
 33 55  1  0
 34 56  1  0
 37 57  1  0
M  END
$$$$
