
     RDKit          3D

 44 46  0  0  0  0  0  0  0  0999 V2000
   -5.6655   -0.8899    1.9978 C   0  0  0  0  0  0  0  0  0  0  0  0
   -4.7460   -0.2261    1.0146 C   0  0  0  0  0  0  0  0  0  0  0  0
   -3.5427    0.3480    1.4480 C   0  0  0  0  0  0  0  0  0  0  0  0
   -2.6713    0.9404    0.5328 C   0  0  0  0  0  0  0  0  0  0  0  0
   -2.9966    0.9389   -0.8257 C   0  0  0  0  0  0  0  0  0  0  0  0
   -1.8985    1.6914   -1.9982 S   0  0  0  0  0  6  0  0  0  0  0  0
   -2.7177    2.3193   -3.0144 O   0  0  0  0  0  0  0  0  0  0  0  0
   -0.8911    2.4458   -1.2842 O   0  0  0  0  0  0  0  0  0  0  0  0
   -1.1768    0.3539   -2.7445 N   0  0  0  0  0  0  0  0  0  0  0  0
   -0.0860   -0.2686   -2.0773 C   0  0  0  0  0  0  0  0  0  0  0  0
   -0.3331   -1.2456   -1.1145 C   0  0  0  0  0  0  0  0  0  0  0  0
    0.7280   -1.8304   -0.4129 C   0  0  0  0  0  0  0  0  0  0  0  0
    0.4594   -2.8821    0.6250 C   0  0  0  0  0  0  0  0  0  0  0  0
    2.0367   -1.4052   -0.6864 C   0  0  0  0  0  0  0  0  0  0  0  0
    3.0420   -1.9900    0.0397 O   0  0  0  0  0  0  0  0  0  0  0  0
    2.2971   -0.4244   -1.6594 C   0  0  0  0  0  0  0  0  0  0  0  0
    3.9414    0.0906   -2.1396 S   0  0  0  0  0  0  0  0  0  0  0  0
    4.5115    0.8806   -0.6994 C   0  0  0  0  0  0  0  0  0  0  0  0
    4.9843    2.1279   -0.7010 N   0  0  0  0  0  0  0  0  0  0  0  0
    5.3027    2.2954    0.5910 N   0  0  0  0  0  0  0  0  0  0  0  0
    5.0493    1.1651    1.3167 C   0  0  0  0  0  0  0  0  0  0  0  0
    5.3123    1.0648    2.7669 C   0  0  0  0  0  0  0  0  0  0  0  0
    4.5560    0.2445    0.5152 N   0  0  0  0  0  0  0  0  0  0  0  0
    1.2180    0.1424   -2.3505 C   0  0  0  0  0  0  0  0  0  0  0  0
   -4.1914    0.3700   -1.2732 C   0  0  0  0  0  0  0  0  0  0  0  0
   -5.0586   -0.2193   -0.3521 C   0  0  0  0  0  0  0  0  0  0  0  0
   -5.5973   -0.4122    2.9808 H   0  0  0  0  0  0  0  0  0  0  0  0
   -5.4035   -1.9475    2.0990 H   0  0  0  0  0  0  0  0  0  0  0  0
   -6.7078   -0.8124    1.6710 H   0  0  0  0  0  0  0  0  0  0  0  0
   -3.2795    0.3402    2.5039 H   0  0  0  0  0  0  0  0  0  0  0  0
   -1.7441    1.3886    0.8835 H   0  0  0  0  0  0  0  0  0  0  0  0
   -1.0882    0.5117   -3.7479 H   0  0  0  0  0  0  0  0  0  0  0  0
   -1.3534   -1.5644   -0.9155 H   0  0  0  0  0  0  0  0  0  0  0  0
    0.7836   -2.5326    1.6105 H   0  0  0  0  0  0  0  0  0  0  0  0
   -0.6079   -3.1188    0.6898 H   0  0  0  0  0  0  0  0  0  0  0  0
    0.9884   -3.8074    0.3747 H   0  0  0  0  0  0  0  0  0  0  0  0
    3.7621   -1.3296    0.1307 H   0  0  0  0  0  0  0  0  0  0  0  0
    5.6825    3.1839    0.8993 H   0  0  0  0  0  0  0  0  0  0  0  0
    5.0408    0.0722    3.1393 H   0  0  0  0  0  0  0  0  0  0  0  0
    4.7264    1.8070    3.3178 H   0  0  0  0  0  0  0  0  0  0  0  0
    6.3729    1.2299    2.9796 H   0  0  0  0  0  0  0  0  0  0  0  0
    1.3947    0.9140   -3.0958 H   0  0  0  0  0  0  0  0  0  0  0  0
   -4.4492    0.3800   -2.3297 H   0  0  0  0  0  0  0  0  0  0  0  0
   -5.9839   -0.6699   -0.7055 H   0  0  0  0  0  0  0  0  0  0  0  0
  1  2  1  0
  2  3  2  0
  3  4  1  0
  4  5  2  0
  5  6  1  0
  6  7  2  0
  6  8  2  0
  6  9  1  0
  9 10  1  0
 10 11  2  0
 11 12  1  0
 12 13  1  0
 12 14  2  0
 14 15  1  0
 14 16  1  0
 16 17  1  0
 17 18  1  0
 18 19  2  0
 19 20  1  0
 20 21  1  0
 21 22  1  0
 21 23  2  0
 16 24  2  0
  5 25  1  0
 25 26  2  0
 26  2  1  0
 24 10  1  0
 23 18  1  0
  1 27  1  0
  1 28  1  0
  1 29  1  0
  3 30  1  0
  4 31  1  0
  9 32  1  0
 11 33  1  0
 13 34  1  0
 13 35  1  0
 13 36  1  0
 15 37  1  0
 20 38  1  0
 22 39  1  0
 22 40  1  0
 22 41  1  0
 24 42  1  0
 25 43  1  0
 26 44  1  0
M  END
$$$$
