
     RDKit          3D

 27 27  0  0  0  0  0  0  0  0999 V2000
   -1.3505   -1.4136   -0.2215 C   0  0  0  0  0  0  0  0  0  0  0  0
   -1.4926    0.1062   -0.3328 C   0  0  0  0  0  0  0  0  0  0  0  0
   -2.5762    0.4276   -1.3782 C   0  0  0  0  0  0  0  0  0  0  0  0
   -1.9290    0.6795    1.0234 C   0  0  0  0  0  0  0  0  0  0  0  0
    0.0555    0.8848   -0.8906 S   0  0  0  0  0  6  0  0  0  0  0  0
    0.5545    0.2473   -2.0902 O   0  0  0  0  0  0  0  0  0  0  0  0
   -0.0987    2.3268   -0.8335 O   0  0  0  0  0  0  0  0  0  0  0  0
    1.2685    0.5692    0.3191 C   0  0  0  0  0  0  0  0  0  0  0  0
    1.4617    1.4311    1.4488 C   0  0  0  0  0  0  0  0  0  0  0  0
    2.5146    1.0293    2.2371 C   0  0  0  0  0  0  0  0  0  0  0  0
    3.2793   -0.3637    1.6154 S   0  0  0  0  0  0  0  0  0  0  0  0
    2.2047   -0.4493    0.2758 C   0  0  0  0  0  0  0  0  0  0  0  0
    2.3493   -1.5275   -0.6689 C   0  0  0  0  0  0  0  0  0  0  0  0
    1.4795   -2.2817   -1.0761 O   0  0  0  0  0  0  0  0  0  0  0  0
    3.6248   -1.6663   -1.0913 O   0  0  0  0  0  0  0  0  0  0  0  0
   -2.2972   -1.8755    0.0820 H   0  0  0  0  0  0  0  0  0  0  0  0
   -0.6004   -1.6952    0.5238 H   0  0  0  0  0  0  0  0  0  0  0  0
   -1.0649   -1.8580   -1.1802 H   0  0  0  0  0  0  0  0  0  0  0  0
   -3.5426   -0.0057   -1.0962 H   0  0  0  0  0  0  0  0  0  0  0  0
   -2.7151    1.5093   -1.4882 H   0  0  0  0  0  0  0  0  0  0  0  0
   -2.3067    0.0309   -2.3637 H   0  0  0  0  0  0  0  0  0  0  0  0
   -2.9072    0.2844    1.3203 H   0  0  0  0  0  0  0  0  0  0  0  0
   -2.0095    1.7714    0.9931 H   0  0  0  0  0  0  0  0  0  0  0  0
   -1.2224    0.4201    1.8179 H   0  0  0  0  0  0  0  0  0  0  0  0
    0.8689    2.3151    1.6583 H   0  0  0  0  0  0  0  0  0  0  0  0
    2.8828    1.4965    3.1410 H   0  0  0  0  0  0  0  0  0  0  0  0
    3.5689   -2.3930   -1.7446 H   0  0  0  0  0  0  0  0  0  0  0  0
  1  2  1  0
  2  3  1  0
  2  4  1  0
  2  5  1  0
  5  6  2  0
  5  7  2  0
  5  8  1  0
  8  9  1  0
  9 10  2  0
 10 11  1  0
 11 12  1  0
 12 13  1  0
 13 14  2  0
 13 15  1  0
 12  8  2  0
  1 16  1  0
  1 17  1  0
  1 18  1  0
  3 19  1  0
  3 20  1  0
  3 21  1  0
  4 22  1  0
  4 23  1  0
  4 24  1  0
  9 25  1  0
 10 26  1  0
 15 27  1  0
M  END
$$$$
