
     RDKit          3D

 38 39  0  0  0  0  0  0  0  0999 V2000
    1.8839   -1.5082   -0.5231 C   0  0  0  0  0  0  0  0  0  0  0  0
    1.0373   -0.5162   -1.2912 C   0  0  0  0  0  0  0  0  0  0  0  0
    1.6705    0.2620   -2.3908 C   0  0  0  0  0  0  0  0  0  0  0  0
    2.7940    0.9886   -2.2923 C   0  0  0  0  0  0  0  0  0  0  0  0
    3.5961    1.2112   -1.0852 C   0  0  0  0  0  0  0  0  0  0  0  0
    3.0214    1.7116    0.0899 C   0  0  0  0  0  0  0  0  0  0  0  0
    3.8088    1.9352    1.2212 C   0  0  0  0  0  0  0  0  0  0  0  0
    5.1769    1.6724    1.1823 C   0  0  0  0  0  0  0  0  0  0  0  0
    5.7601    1.1905    0.0114 C   0  0  0  0  0  0  0  0  0  0  0  0
    4.9735    0.9658   -1.1207 C   0  0  0  0  0  0  0  0  0  0  0  0
   -0.2320   -0.3160   -1.0756 N   0  0  0  0  0  0  0  0  0  0  0  0
   -0.8131   -1.0388   -0.0749 N   0  0  0  0  0  0  0  0  0  0  0  0
   -2.1769   -0.8253    0.1998 C   0  0  0  0  0  0  0  0  0  0  0  0
   -2.7556    0.3649   -0.0377 N   0  0  0  0  0  0  0  0  0  0  0  0
   -4.0623    0.4985    0.2555 C   0  0  0  0  0  0  0  0  0  0  0  0
   -4.6942    1.8290   -0.0185 C   0  0  0  0  0  0  0  0  0  0  0  0
   -4.8067   -0.5322    0.7881 C   0  0  0  0  0  0  0  0  0  0  0  0
   -4.1406   -1.7196    1.0070 C   0  0  0  0  0  0  0  0  0  0  0  0
   -4.8665   -2.8967    1.5849 C   0  0  0  0  0  0  0  0  0  0  0  0
   -2.8329   -1.8793    0.7197 N   0  0  0  0  0  0  0  0  0  0  0  0
    1.9377   -1.2118    0.5280 H   0  0  0  0  0  0  0  0  0  0  0  0
    1.4372   -2.5043   -0.5945 H   0  0  0  0  0  0  0  0  0  0  0  0
    2.8963   -1.5749   -0.9288 H   0  0  0  0  0  0  0  0  0  0  0  0
    1.1121    0.2495   -3.3221 H   0  0  0  0  0  0  0  0  0  0  0  0
    3.1536    1.5104   -3.1769 H   0  0  0  0  0  0  0  0  0  0  0  0
    1.9560    1.9323    0.1347 H   0  0  0  0  0  0  0  0  0  0  0  0
    3.3520    2.3177    2.1303 H   0  0  0  0  0  0  0  0  0  0  0  0
    5.7889    1.8480    2.0632 H   0  0  0  0  0  0  0  0  0  0  0  0
    6.8279    0.9911   -0.0212 H   0  0  0  0  0  0  0  0  0  0  0  0
    5.4435    0.5907   -2.0267 H   0  0  0  0  0  0  0  0  0  0  0  0
   -0.6774   -2.0449   -0.0442 H   0  0  0  0  0  0  0  0  0  0  0  0
   -3.9664    2.5269   -0.4449 H   0  0  0  0  0  0  0  0  0  0  0  0
   -5.5168    1.7175   -0.7318 H   0  0  0  0  0  0  0  0  0  0  0  0
   -5.0793    2.2631    0.9094 H   0  0  0  0  0  0  0  0  0  0  0  0
   -5.8568   -0.4146    1.0218 H   0  0  0  0  0  0  0  0  0  0  0  0
   -5.2624   -2.6485    2.5746 H   0  0  0  0  0  0  0  0  0  0  0  0
   -4.1951   -3.7548    1.6922 H   0  0  0  0  0  0  0  0  0  0  0  0
   -5.6926   -3.1907    0.9300 H   0  0  0  0  0  0  0  0  0  0  0  0
  1  2  1  0
  2  3  1  0
  3  4  2  3
  4  5  1  0
  5  6  2  0
  6  7  1  0
  7  8  2  0
  8  9  1  0
  9 10  2  0
  2 11  2  3
 11 12  1  0
 12 13  1  0
 13 14  2  0
 14 15  1  0
 15 16  1  0
 15 17  2  0
 17 18  1  0
 18 19  1  0
 18 20  2  0
 10  5  1  0
 20 13  1  0
  1 21  1  0
  1 22  1  0
  1 23  1  0
  3 24  1  0
  4 25  1  0
  6 26  1  0
  7 27  1  0
  8 28  1  0
  9 29  1  0
 10 30  1  0
 12 31  1  0
 16 32  1  0
 16 33  1  0
 16 34  1  0
 17 35  1  0
 19 36  1  0
 19 37  1  0
 19 38  1  0
M  END
$$$$
