
     RDKit          3D

 40 42  0  0  0  0  0  0  0  0999 V2000
    2.5163    5.2157   -0.5584 C   0  0  0  0  0  0  0  0  0  0  0  0
    2.0770    3.7800   -0.3249 C   0  0  0  0  0  0  0  0  0  0  0  0
    0.7008    3.3596   -1.4477 S   0  0  0  0  0  0  0  0  0  0  0  0
    0.3423    1.6943   -0.9043 C   0  0  0  0  0  0  0  0  0  0  0  0
   -0.8663    1.1318   -1.2597 C   0  0  0  0  0  0  0  0  0  0  0  0
   -1.1178   -0.1562   -0.8325 C   0  0  0  0  0  0  0  0  0  0  0  0
   -2.3080   -0.7986   -1.1626 N   0  0  0  0  0  0  0  0  0  0  0  0
   -2.4049   -2.2270   -0.8157 C   0  0  0  0  0  0  0  0  0  0  0  0
   -3.7337   -2.7867   -1.3456 C   0  0  0  0  0  0  0  0  0  0  0  0
   -4.8952   -2.1438   -0.7971 O   0  0  0  0  0  0  0  0  0  0  0  0
   -4.6246   -0.8347   -0.2720 C   0  0  0  0  0  0  0  0  0  0  0  0
   -3.5766   -0.0488   -1.0803 C   0  0  0  0  0  0  0  0  0  0  0  0
   -0.1923   -0.8300   -0.1271 N   0  0  0  0  0  0  0  0  0  0  0  0
    0.9622   -0.2091    0.1775 C   0  0  0  0  0  0  0  0  0  0  0  0
    1.9517   -0.9497    0.9883 C   0  0  0  0  0  0  0  0  0  0  0  0
    1.6633   -2.2218    1.5211 C   0  0  0  0  0  0  0  0  0  0  0  0
    2.5952   -2.9184    2.2999 C   0  0  0  0  0  0  0  0  0  0  0  0
    3.8398   -2.3562    2.5653 C   0  0  0  0  0  0  0  0  0  0  0  0
    4.1572   -1.1048    2.0473 C   0  0  0  0  0  0  0  0  0  0  0  0
    3.2244   -0.4127    1.2671 C   0  0  0  0  0  0  0  0  0  0  0  0
    1.2680    1.0458   -0.1834 N   0  0  0  0  0  0  0  0  0  0  0  0
    1.6958    5.9224   -0.3896 H   0  0  0  0  0  0  0  0  0  0  0  0
    2.8943    5.3573   -1.5786 H   0  0  0  0  0  0  0  0  0  0  0  0
    3.3266    5.4752    0.1342 H   0  0  0  0  0  0  0  0  0  0  0  0
    2.9220    3.1086   -0.5116 H   0  0  0  0  0  0  0  0  0  0  0  0
    1.7483    3.6608    0.7126 H   0  0  0  0  0  0  0  0  0  0  0  0
   -1.5767    1.6765   -1.8660 H   0  0  0  0  0  0  0  0  0  0  0  0
   -1.5780   -2.7888   -1.2680 H   0  0  0  0  0  0  0  0  0  0  0  0
   -2.3660   -2.3540    0.2730 H   0  0  0  0  0  0  0  0  0  0  0  0
   -3.7846   -2.6737   -2.4329 H   0  0  0  0  0  0  0  0  0  0  0  0
   -3.8120   -3.8548   -1.1225 H   0  0  0  0  0  0  0  0  0  0  0  0
   -5.5732   -0.2849   -0.2524 H   0  0  0  0  0  0  0  0  0  0  0  0
   -4.2968   -0.9499    0.7689 H   0  0  0  0  0  0  0  0  0  0  0  0
   -3.9430    0.1036   -2.1017 H   0  0  0  0  0  0  0  0  0  0  0  0
   -3.4542    0.9347   -0.6114 H   0  0  0  0  0  0  0  0  0  0  0  0
    0.6922   -2.6807    1.3369 H   0  0  0  0  0  0  0  0  0  0  0  0
    2.3404   -3.8953    2.7014 H   0  0  0  0  0  0  0  0  0  0  0  0
    4.5586   -2.8887    3.1780 H   0  0  0  0  0  0  0  0  0  0  0  0
    5.1279   -0.6615    2.2490 H   0  0  0  0  0  0  0  0  0  0  0  0
    3.4996    0.5645    0.8733 H   0  0  0  0  0  0  0  0  0  0  0  0
  1  2  1  0
  2  3  1  0
  3  4  1  0
  4  5  2  0
  5  6  1  0
  6  7  1  0
  7  8  1  0
  8  9  1  0
  9 10  1  0
 10 11  1  0
 11 12  1  0
  6 13  2  0
 13 14  1  0
 14 15  1  0
 15 16  2  0
 16 17  1  0
 17 18  2  0
 18 19  1  0
 19 20  2  0
 14 21  2  0
 21  4  1  0
 12  7  1  0
 20 15  1  0
  1 22  1  0
  1 23  1  0
  1 24  1  0
  2 25  1  0
  2 26  1  0
  5 27  1  0
  8 28  1  0
  8 29  1  0
  9 30  1  0
  9 31  1  0
 11 32  1  0
 11 33  1  0
 12 34  1  0
 12 35  1  0
 16 36  1  0
 17 37  1  0
 18 38  1  0
 19 39  1  0
 20 40  1  0
M  END
$$$$
