
     RDKit          3D

 54 57  0  0  0  0  0  0  0  0999 V2000
   -6.0284   -1.6557   -3.5338 C   0  0  0  0  0  0  0  0  0  0  0  0
   -5.5420   -0.8319   -2.4816 O   0  0  0  0  0  0  0  0  0  0  0  0
   -4.2785   -1.0878   -2.0268 C   0  0  0  0  0  0  0  0  0  0  0  0
   -3.4182   -2.0761   -2.5030 C   0  0  0  0  0  0  0  0  0  0  0  0
   -2.1426   -2.2287   -1.9468 C   0  0  0  0  0  0  0  0  0  0  0  0
   -1.7226   -1.3954   -0.9020 C   0  0  0  0  0  0  0  0  0  0  0  0
   -0.4283   -1.5554   -0.3473 N   0  0  0  0  0  0  0  0  0  0  0  0
   -0.0513   -1.5813    0.9930 C   0  0  0  0  0  0  0  0  0  0  0  0
   -0.9484   -1.4926    2.1848 C   0  0  0  0  0  0  0  0  0  0  0  0
   -1.1586   -0.1079    2.7332 C   0  0  0  0  0  0  0  0  0  0  0  0
   -2.3608    0.4992    3.0680 C   0  0  0  0  0  0  0  0  0  0  0  0
   -2.0831    1.7961    3.5485 C   0  0  0  0  0  0  0  0  0  0  0  0
   -0.7188    1.9520    3.5206 C   0  0  0  0  0  0  0  0  0  0  0  0
   -0.1578    0.7868    3.0576 N   0  0  0  0  0  0  0  0  0  0  0  0
    1.2738    0.5802    2.9586 C   0  0  0  0  0  0  0  0  0  0  0  0
    1.2377   -1.8685    1.0751 N   0  0  0  0  0  0  0  0  0  0  0  0
    1.7447   -1.9743   -0.1837 N   0  0  0  0  0  0  0  0  0  0  0  0
    0.7613   -1.7627   -1.0230 C   0  0  0  0  0  0  0  0  0  0  0  0
    1.0454   -1.5370   -2.7198 S   0  0  0  0  0  0  0  0  0  0  0  0
    0.8340    0.2579   -2.8836 C   0  0  0  0  0  0  0  0  0  0  0  0
    1.6933    1.1297   -1.9736 C   0  0  0  0  0  0  0  0  0  0  0  0
    1.3348    2.2866   -1.7524 O   0  0  0  0  0  0  0  0  0  0  0  0
    2.8512    0.5518   -1.4956 N   0  0  0  0  0  0  0  0  0  0  0  0
    3.8282    1.1401   -0.6661 C   0  0  0  0  0  0  0  0  0  0  0  0
    3.8979    2.5091   -0.3903 C   0  0  0  0  0  0  0  0  0  0  0  0
    4.9045    3.0194    0.4386 C   0  0  0  0  0  0  0  0  0  0  0  0
    5.8485    2.1635    0.9973 C   0  0  0  0  0  0  0  0  0  0  0  0
    5.7785    0.8048    0.7208 C   0  0  0  0  0  0  0  0  0  0  0  0
    6.6858   -0.0232    1.2571 F   0  0  0  0  0  0  0  0  0  0  0  0
    4.7830    0.2872   -0.1027 C   0  0  0  0  0  0  0  0  0  0  0  0
   -2.5787   -0.4010   -0.4296 C   0  0  0  0  0  0  0  0  0  0  0  0
   -3.8500   -0.2533   -0.9922 C   0  0  0  0  0  0  0  0  0  0  0  0
   -7.0413   -1.3215   -3.7800 H   0  0  0  0  0  0  0  0  0  0  0  0
   -5.4143   -1.5489   -4.4356 H   0  0  0  0  0  0  0  0  0  0  0  0
   -6.0893   -2.7024   -3.2188 H   0  0  0  0  0  0  0  0  0  0  0  0
   -3.7101   -2.7494   -3.3025 H   0  0  0  0  0  0  0  0  0  0  0  0
   -1.5119   -3.0329   -2.3228 H   0  0  0  0  0  0  0  0  0  0  0  0
   -0.5196   -2.1081    2.9872 H   0  0  0  0  0  0  0  0  0  0  0  0
   -1.9172   -1.9523    1.9544 H   0  0  0  0  0  0  0  0  0  0  0  0
   -3.3423    0.0510    2.9648 H   0  0  0  0  0  0  0  0  0  0  0  0
   -2.7979    2.5366    3.8831 H   0  0  0  0  0  0  0  0  0  0  0  0
   -0.1005    2.7934    3.8084 H   0  0  0  0  0  0  0  0  0  0  0  0
    1.7896    1.3333    3.5603 H   0  0  0  0  0  0  0  0  0  0  0  0
    1.5645    0.6895    1.9124 H   0  0  0  0  0  0  0  0  0  0  0  0
    1.5164   -0.4118    3.3466 H   0  0  0  0  0  0  0  0  0  0  0  0
   -0.2164    0.5058   -2.6993 H   0  0  0  0  0  0  0  0  0  0  0  0
    1.0678    0.5333   -3.9173 H   0  0  0  0  0  0  0  0  0  0  0  0
    2.9313   -0.4543   -1.6188 H   0  0  0  0  0  0  0  0  0  0  0  0
    3.1895    3.2128   -0.8168 H   0  0  0  0  0  0  0  0  0  0  0  0
    4.9476    4.0877    0.6390 H   0  0  0  0  0  0  0  0  0  0  0  0
    6.6354    2.5439    1.6389 H   0  0  0  0  0  0  0  0  0  0  0  0
    4.7620   -0.7840   -0.2793 H   0  0  0  0  0  0  0  0  0  0  0  0
   -2.2681    0.3149    0.3245 H   0  0  0  0  0  0  0  0  0  0  0  0
   -4.5096    0.5317   -0.6276 H   0  0  0  0  0  0  0  0  0  0  0  0
  1  2  1  0
  2  3  1  0
  3  4  2  0
  4  5  1  0
  5  6  2  0
  6  7  1  0
  7  8  1  0
  8  9  1  0
  9 10  1  0
 10 11  2  0
 11 12  1  0
 12 13  2  0
 13 14  1  0
 14 15  1  0
  8 16  2  0
 16 17  1  0
 17 18  2  0
 18 19  1  0
 19 20  1  0
 20 21  1  0
 21 22  2  0
 21 23  1  0
 23 24  1  0
 24 25  2  0
 25 26  1  0
 26 27  2  0
 27 28  1  0
 28 29  1  0
 28 30  2  0
  6 31  1  0
 31 32  2  0
 32  3  1  0
 18  7  1  0
 30 24  1  0
 14 10  1  0
  1 33  1  0
  1 34  1  0
  1 35  1  0
  4 36  1  0
  5 37  1  0
  9 38  1  0
  9 39  1  0
 11 40  1  0
 12 41  1  0
 13 42  1  0
 15 43  1  0
 15 44  1  0
 15 45  1  0
 20 46  1  0
 20 47  1  0
 23 48  1  0
 25 49  1  0
 26 50  1  0
 27 51  1  0
 30 52  1  0
 31 53  1  0
 32 54  1  0
M  END
$$$$
