
     RDKit          3D

 59 62  0  0  0  0  0  0  0  0999 V2000
    6.9971   -2.4560   -0.4826 C   0  0  0  0  0  0  0  0  0  0  0  0
    5.7372   -1.8840   -1.1026 C   0  0  0  0  0  0  0  0  0  0  0  0
    4.8066   -1.6154   -0.0572 O   0  0  0  0  0  0  0  0  0  0  0  0
    3.5752   -1.0571   -0.5232 C   0  0  0  0  0  0  0  0  0  0  0  0
    2.6155   -2.1502   -0.9836 C   0  0  0  0  0  0  0  0  0  0  0  0
    1.2999   -1.6027   -1.5398 C   0  0  0  0  0  0  0  0  0  0  0  0
    0.4504   -0.9967   -0.4945 N   0  0  0  0  0  0  0  0  0  0  0  0
   -0.3259   -1.8464    0.3147 C   0  0  0  0  0  0  0  0  0  0  0  0
   -0.2688   -3.1333    0.1270 N   0  0  0  0  0  0  0  0  0  0  0  0
   -1.1961   -1.2399    1.3695 C   0  0  0  0  0  0  0  0  0  0  0  0
   -2.3026   -2.1549    2.3233 S   0  0  0  0  0  6  0  0  0  0  0  0
   -1.9860   -3.5712    2.2458 O   0  0  0  0  0  0  0  0  0  0  0  0
   -2.4827   -1.5272    3.6212 O   0  0  0  0  0  0  0  0  0  0  0  0
   -3.8268   -1.9347    1.4212 C   0  0  0  0  0  0  0  0  0  0  0  0
   -4.0567   -2.6930    0.2698 C   0  0  0  0  0  0  0  0  0  0  0  0
   -5.2476   -2.5220   -0.4371 C   0  0  0  0  0  0  0  0  0  0  0  0
   -6.2164   -1.6133    0.0108 C   0  0  0  0  0  0  0  0  0  0  0  0
   -7.4819   -1.4130   -0.7710 C   0  0  0  0  0  0  0  0  0  0  0  0
   -5.9709   -0.8609    1.1676 C   0  0  0  0  0  0  0  0  0  0  0  0
   -4.7827   -1.0258    1.8811 C   0  0  0  0  0  0  0  0  0  0  0  0
   -1.1490    0.0947    1.5108 C   0  0  0  0  0  0  0  0  0  0  0  0
   -0.3025    0.9346    0.6780 C   0  0  0  0  0  0  0  0  0  0  0  0
   -0.2992    2.4098    0.8912 C   0  0  0  0  0  0  0  0  0  0  0  0
   -1.0268    2.9025    1.7563 O   0  0  0  0  0  0  0  0  0  0  0  0
    0.5403    3.1410    0.0708 N   0  0  0  0  0  0  0  0  0  0  0  0
    0.6122    4.5225    0.2204 C   0  0  0  0  0  0  0  0  0  0  0  0
    1.4017    5.2848   -0.5527 C   0  0  0  0  0  0  0  0  0  0  0  0
    1.4988    6.7731   -0.4121 C   0  0  0  0  0  0  0  0  0  0  0  0
    2.2032    4.6513   -1.5752 C   0  0  0  0  0  0  0  0  0  0  0  0
    2.1612    3.3258   -1.7534 C   0  0  0  0  0  0  0  0  0  0  0  0
    1.2831    2.4872   -0.8923 C   0  0  0  0  0  0  0  0  0  0  0  0
    1.2628    1.2084   -1.0906 N   0  0  0  0  0  0  0  0  0  0  0  0
    0.4679    0.4081   -0.3014 C   0  0  0  0  0  0  0  0  0  0  0  0
    7.7464   -2.6716   -1.2495 H   0  0  0  0  0  0  0  0  0  0  0  0
    6.7733   -3.3792    0.0621 H   0  0  0  0  0  0  0  0  0  0  0  0
    7.4238   -1.7542    0.2415 H   0  0  0  0  0  0  0  0  0  0  0  0
    5.9750   -0.9551   -1.6325 H   0  0  0  0  0  0  0  0  0  0  0  0
    5.3184   -2.6040   -1.8121 H   0  0  0  0  0  0  0  0  0  0  0  0
    3.1450   -0.5226    0.3291 H   0  0  0  0  0  0  0  0  0  0  0  0
    3.7662   -0.3224   -1.3139 H   0  0  0  0  0  0  0  0  0  0  0  0
    3.0937   -2.7490   -1.7670 H   0  0  0  0  0  0  0  0  0  0  0  0
    2.4385   -2.8442   -0.1535 H   0  0  0  0  0  0  0  0  0  0  0  0
    0.7517   -2.4181   -2.0292 H   0  0  0  0  0  0  0  0  0  0  0  0
    1.5061   -0.8925   -2.3502 H   0  0  0  0  0  0  0  0  0  0  0  0
   -0.8299   -3.6674    0.8120 H   0  0  0  0  0  0  0  0  0  0  0  0
   -3.3234   -3.4144   -0.0851 H   0  0  0  0  0  0  0  0  0  0  0  0
   -5.4205   -3.1077   -1.3381 H   0  0  0  0  0  0  0  0  0  0  0  0
   -8.2931   -1.0646   -0.1229 H   0  0  0  0  0  0  0  0  0  0  0  0
   -7.8107   -2.3536   -1.2254 H   0  0  0  0  0  0  0  0  0  0  0  0
   -7.3195   -0.6737   -1.5613 H   0  0  0  0  0  0  0  0  0  0  0  0
   -6.7099   -0.1457    1.5241 H   0  0  0  0  0  0  0  0  0  0  0  0
   -4.6172   -0.4446    2.7857 H   0  0  0  0  0  0  0  0  0  0  0  0
   -1.7649    0.6010    2.2525 H   0  0  0  0  0  0  0  0  0  0  0  0
   -0.0069    4.9590    1.0013 H   0  0  0  0  0  0  0  0  0  0  0  0
    2.5257    7.0711   -0.1755 H   0  0  0  0  0  0  0  0  0  0  0  0
    0.8517    7.1497    0.3874 H   0  0  0  0  0  0  0  0  0  0  0  0
    1.1989    7.2679   -1.3420 H   0  0  0  0  0  0  0  0  0  0  0  0
    2.8427    5.2689   -2.1991 H   0  0  0  0  0  0  0  0  0  0  0  0
    2.7487    2.8205   -2.5094 H   0  0  0  0  0  0  0  0  0  0  0  0
  1  2  1  0
  2  3  1  0
  3  4  1  0
  4  5  1  0
  5  6  1  0
  6  7  1  0
  7  8  1  0
  8  9  2  3
  8 10  1  0
 10 11  1  0
 11 12  2  0
 11 13  2  0
 11 14  1  0
 14 15  2  0
 15 16  1  0
 16 17  2  0
 17 18  1  0
 17 19  1  0
 19 20  2  0
 10 21  2  0
 21 22  1  0
 22 23  1  0
 23 24  2  0
 23 25  1  0
 25 26  1  0
 26 27  2  0
 27 28  1  0
 27 29  1  0
 29 30  2  0
 30 31  1  0
 31 32  2  0
 32 33  1  0
 33  7  1  0
 20 14  1  0
 33 22  2  0
 31 25  1  0
  1 34  1  0
  1 35  1  0
  1 36  1  0
  2 37  1  0
  2 38  1  0
  4 39  1  0
  4 40  1  0
  5 41  1  0
  5 42  1  0
  6 43  1  0
  6 44  1  0
  9 45  1  0
 15 46  1  0
 16 47  1  0
 18 48  1  0
 18 49  1  0
 18 50  1  0
 19 51  1  0
 20 52  1  0
 21 53  1  0
 26 54  1  0
 28 55  1  0
 28 56  1  0
 28 57  1  0
 29 58  1  0
 30 59  1  0
M  END
$$$$
