
     RDKit          3D

 59 62  0  0  0  0  0  0  0  0999 V2000
   -3.2972   -0.2436    1.1497 C   0  0  0  0  0  0  0  0  0  0  0  0
   -2.1726   -0.3619    0.2696 O   0  0  0  0  0  0  0  0  0  0  0  0
   -2.5855   -0.2626   -1.0355 C   0  0  0  0  0  0  0  0  0  0  0  0
   -2.8430   -1.4525   -1.7385 C   0  0  0  0  0  0  0  0  0  0  0  0
   -2.6671   -2.7959   -1.0899 C   0  0  0  0  0  0  0  0  0  0  0  0
   -3.2999   -1.3719   -3.0616 C   0  0  0  0  0  0  0  0  0  0  0  0
   -3.4561   -0.1305   -3.6768 C   0  0  0  0  0  0  0  0  0  0  0  0
   -4.0660   -0.0429   -5.4654 Br  0  0  0  0  0  0  0  0  0  0  0  0
   -3.1515    1.0430   -2.9937 C   0  0  0  0  0  0  0  0  0  0  0  0
   -2.6956    0.9884   -1.6678 C   0  0  0  0  0  0  0  0  0  0  0  0
   -2.3234    2.2869   -1.0228 C   0  0  0  0  0  0  0  0  0  0  0  0
   -2.8739    3.3070   -1.4261 O   0  0  0  0  0  0  0  0  0  0  0  0
   -1.3265    2.2135   -0.0713 N   0  0  0  0  0  0  0  0  0  0  0  0
   -0.7046    3.2668    0.6393 C   0  0  0  0  0  0  0  0  0  0  0  0
   -1.2133    4.5732    0.6164 C   0  0  0  0  0  0  0  0  0  0  0  0
   -0.6178    5.5942    1.3610 C   0  0  0  0  0  0  0  0  0  0  0  0
    0.4984    5.3251    2.1405 C   0  0  0  0  0  0  0  0  0  0  0  0
    1.0235    4.0341    2.1645 C   0  0  0  0  0  0  0  0  0  0  0  0
    0.4493    2.9876    1.4168 C   0  0  0  0  0  0  0  0  0  0  0  0
    1.1075    1.7503    1.5016 N   0  0  0  0  0  0  0  0  0  0  0  0
    1.6533    1.1921    0.2514 C   0  0  0  0  0  0  0  0  0  0  0  0
    2.6276    0.0375    0.5609 C   0  0  0  0  0  0  0  0  0  0  0  0
    2.0312   -0.9477    1.4787 N   0  0  0  0  0  0  0  0  0  0  0  0
    2.0022   -2.3239    1.2941 C   0  0  0  0  0  0  0  0  0  0  0  0
    1.4079   -3.1039    2.0362 O   0  0  0  0  0  0  0  0  0  0  0  0
    2.7241   -2.9044    0.1444 C   0  0  0  0  0  0  0  0  0  0  0  0
    1.9993   -3.5911   -0.8339 C   0  0  0  0  0  0  0  0  0  0  0  0
    2.6732   -4.1691   -1.9097 C   0  0  0  0  0  0  0  0  0  0  0  0
    4.0649   -4.0721   -1.9963 C   0  0  0  0  0  0  0  0  0  0  0  0
    4.7869   -3.4002   -1.0067 C   0  0  0  0  0  0  0  0  0  0  0  0
    4.1182   -2.8190    0.0714 C   0  0  0  0  0  0  0  0  0  0  0  0
    1.4695   -0.3765    2.7085 C   0  0  0  0  0  0  0  0  0  0  0  0
    0.4904    0.7744    2.4188 C   0  0  0  0  0  0  0  0  0  0  0  0
   -2.9567   -0.4939    2.1592 H   0  0  0  0  0  0  0  0  0  0  0  0
   -4.1004   -0.9399    0.8814 H   0  0  0  0  0  0  0  0  0  0  0  0
   -3.6764    0.7832    1.1656 H   0  0  0  0  0  0  0  0  0  0  0  0
   -2.6540   -3.5953   -1.8369 H   0  0  0  0  0  0  0  0  0  0  0  0
   -3.4875   -2.9928   -0.3938 H   0  0  0  0  0  0  0  0  0  0  0  0
   -1.7148   -2.8426   -0.5512 H   0  0  0  0  0  0  0  0  0  0  0  0
   -3.5294   -2.2809   -3.6123 H   0  0  0  0  0  0  0  0  0  0  0  0
   -3.2523    2.0048   -3.4921 H   0  0  0  0  0  0  0  0  0  0  0  0
   -0.9645    1.2930    0.1354 H   0  0  0  0  0  0  0  0  0  0  0  0
   -2.0979    4.8282    0.0409 H   0  0  0  0  0  0  0  0  0  0  0  0
   -1.0376    6.5964    1.3314 H   0  0  0  0  0  0  0  0  0  0  0  0
    0.9657    6.1124    2.7256 H   0  0  0  0  0  0  0  0  0  0  0  0
    1.9064    3.8340    2.7678 H   0  0  0  0  0  0  0  0  0  0  0  0
    2.1884    1.9667   -0.3092 H   0  0  0  0  0  0  0  0  0  0  0  0
    0.8625    0.7958   -0.3917 H   0  0  0  0  0  0  0  0  0  0  0  0
    2.9302   -0.4238   -0.3816 H   0  0  0  0  0  0  0  0  0  0  0  0
    3.5272    0.4257    1.0529 H   0  0  0  0  0  0  0  0  0  0  0  0
    0.9186   -3.6810   -0.7522 H   0  0  0  0  0  0  0  0  0  0  0  0
    2.1175   -4.7074   -2.6738 H   0  0  0  0  0  0  0  0  0  0  0  0
    4.5890   -4.5342   -2.8315 H   0  0  0  0  0  0  0  0  0  0  0  0
    5.8710   -3.3426   -1.0719 H   0  0  0  0  0  0  0  0  0  0  0  0
    4.6766   -2.3153    0.8555 H   0  0  0  0  0  0  0  0  0  0  0  0
    2.3186   -0.0047    3.2947 H   0  0  0  0  0  0  0  0  0  0  0  0
    0.9677   -1.1413    3.3092 H   0  0  0  0  0  0  0  0  0  0  0  0
   -0.4221    0.3628    1.9824 H   0  0  0  0  0  0  0  0  0  0  0  0
    0.2205    1.2525    3.3682 H   0  0  0  0  0  0  0  0  0  0  0  0
  1  2  1  0
  2  3  1  0
  3  4  2  0
  4  5  1  0
  4  6  1  0
  6  7  2  0
  7  8  1  0
  7  9  1  0
  9 10  2  0
 10 11  1  0
 11 12  2  0
 11 13  1  0
 13 14  1  0
 14 15  2  0
 15 16  1  0
 16 17  2  0
 17 18  1  0
 18 19  2  0
 19 20  1  0
 20 21  1  0
 21 22  1  0
 22 23  1  0
 23 24  1  0
 24 25  2  0
 24 26  1  0
 26 27  2  0
 27 28  1  0
 28 29  2  0
 29 30  1  0
 30 31  2  0
 23 32  1  0
 32 33  1  0
 10  3  1  0
 19 14  1  0
 33 20  1  0
 31 26  1  0
  1 34  1  0
  1 35  1  0
  1 36  1  0
  5 37  1  0
  5 38  1  0
  5 39  1  0
  6 40  1  0
  9 41  1  0
 13 42  1  0
 15 43  1  0
 16 44  1  0
 17 45  1  0
 18 46  1  0
 21 47  1  0
 21 48  1  0
 22 49  1  0
 22 50  1  0
 27 51  1  0
 28 52  1  0
 29 53  1  0
 30 54  1  0
 31 55  1  0
 32 56  1  0
 32 57  1  0
 33 58  1  0
 33 59  1  0
M  END
$$$$
