
     RDKit          3D

 29 30  0  0  0  0  0  0  0  0999 V2000
    2.4150    2.3530    2.2127 O   0  0  0  0  0  0  0  0  0  0  0  0
    3.2740    1.8763    1.4813 C   0  0  0  0  0  0  0  0  0  0  0  0
    2.9773    0.7744    0.5452 C   0  0  0  0  0  0  0  0  0  0  0  0
    3.9721    0.3326   -0.3320 C   0  0  0  0  0  0  0  0  0  0  0  0
    3.6962   -0.7106   -1.2168 C   0  0  0  0  0  0  0  0  0  0  0  0
    2.4307   -1.3005   -1.2274 C   0  0  0  0  0  0  0  0  0  0  0  0
    1.4339   -0.8432   -0.3620 C   0  0  0  0  0  0  0  0  0  0  0  0
    0.2255   -1.5031   -0.4189 O   0  0  0  0  0  0  0  0  0  0  0  0
   -0.9157   -0.7573   -0.2438 C   0  0  0  0  0  0  0  0  0  0  0  0
   -1.1947    0.3260   -1.0868 C   0  0  0  0  0  0  0  0  0  0  0  0
   -2.3928    1.0359   -0.9481 C   0  0  0  0  0  0  0  0  0  0  0  0
   -3.3274    0.6473    0.0252 C   0  0  0  0  0  0  0  0  0  0  0  0
   -4.5866    1.3922    0.1612 N   0  0  0  0  0  4  0  0  0  0  0  0
   -4.8057    2.3033   -0.6482 O   0  0  0  0  0  0  0  0  0  0  0  0
   -5.3512    1.0602    1.0767 O   0  0  0  0  0  1  0  0  0  0  0  0
   -3.0759   -0.4475    0.8607 C   0  0  0  0  0  0  0  0  0  0  0  0
   -1.8661   -1.1377    0.7092 C   0  0  0  0  0  0  0  0  0  0  0  0
   -1.6132   -2.2747    1.5732 N   0  0  0  0  0  4  0  0  0  0  0  0
   -0.5747   -2.2623    2.2453 O   0  0  0  0  0  0  0  0  0  0  0  0
   -2.4813   -3.1572    1.5994 O   0  0  0  0  0  1  0  0  0  0  0  0
    1.7100    0.1838    0.5425 C   0  0  0  0  0  0  0  0  0  0  0  0
    4.3082    2.2594    1.4833 H   0  0  0  0  0  0  0  0  0  0  0  0
    4.9608    0.7848   -0.3321 H   0  0  0  0  0  0  0  0  0  0  0  0
    4.4668   -1.0693   -1.8954 H   0  0  0  0  0  0  0  0  0  0  0  0
    2.2223   -2.1202   -1.9112 H   0  0  0  0  0  0  0  0  0  0  0  0
   -0.4872    0.6185   -1.8606 H   0  0  0  0  0  0  0  0  0  0  0  0
   -2.5848    1.8804   -1.6091 H   0  0  0  0  0  0  0  0  0  0  0  0
   -3.7981   -0.7642    1.6117 H   0  0  0  0  0  0  0  0  0  0  0  0
    0.9625    0.5198    1.2564 H   0  0  0  0  0  0  0  0  0  0  0  0
  1  2  2  0
  2  3  1  0
  3  4  2  0
  4  5  1  0
  5  6  2  0
  6  7  1  0
  7  8  1  0
  8  9  1  0
  9 10  2  0
 10 11  1  0
 11 12  2  0
 12 13  1  0
 13 14  2  0
 13 15  1  0
 12 16  1  0
 16 17  2  0
 17 18  1  0
 18 19  2  0
 18 20  1  0
  7 21  2  0
 21  3  1  0
 17  9  1  0
  2 22  1  0
  4 23  1  0
  5 24  1  0
  6 25  1  0
 10 26  1  0
 11 27  1  0
 16 28  1  0
 21 29  1  0
M  CHG  4  13   1  15  -1  18   1  20  -1
M  END
$$$$
