
     RDKit          3D

 41 43  0  0  0  0  0  0  0  0999 V2000
   -3.0120    0.8305   -2.1081 C   0  0  0  0  0  0  0  0  0  0  0  0
   -2.4856    1.1918   -0.8166 N   0  0  0  0  0  0  0  0  0  0  0  0
   -1.5789    2.1759   -0.5421 C   0  0  0  0  0  0  0  0  0  0  0  0
   -0.9421    3.2788   -1.7074 S   0  0  0  0  0  0  0  0  0  0  0  0
    0.5234    3.8842   -0.8163 C   0  0  0  0  0  0  0  0  0  0  0  0
    1.6039    2.8161   -0.7863 C   0  0  0  0  0  0  0  0  0  0  0  0
    2.3893    2.6699   -1.7232 O   0  0  0  0  0  0  0  0  0  0  0  0
    1.6032    2.0546    0.3836 N   0  0  0  0  0  0  0  0  0  0  0  0
    2.3796    0.9295    0.5554 N   0  0  0  0  0  0  0  0  0  0  0  0
    3.6072    0.9709    0.1408 C   0  0  0  0  0  0  0  0  0  0  0  0
    4.4873   -0.1745    0.2272 C   0  0  0  0  0  0  0  0  0  0  0  0
    5.8065   -0.2467   -0.1827 C   0  0  0  0  0  0  0  0  0  0  0  0
    6.3764   -1.5360    0.0453 C   0  0  0  0  0  0  0  0  0  0  0  0
    5.4635   -2.3948    0.6179 C   0  0  0  0  0  0  0  0  0  0  0  0
    5.6930   -3.7679    0.9853 N   0  0  0  0  0  4  0  0  0  0  0  0
    6.8540   -4.1819    0.8523 O   0  0  0  0  0  0  0  0  0  0  0  0
    4.7375   -4.4372    1.3986 O   0  0  0  0  0  1  0  0  0  0  0  0
    3.9540   -1.6656    0.8840 S   0  0  0  0  0  0  0  0  0  0  0  0
   -1.2457    2.1387    0.7250 N   0  0  0  0  0  0  0  0  0  0  0  0
   -1.9495    1.1182    1.3052 N   0  0  0  0  0  0  0  0  0  0  0  0
   -2.7310    0.5680    0.3905 C   0  0  0  0  0  0  0  0  0  0  0  0
   -3.6560   -0.5367    0.6337 C   0  0  0  0  0  0  0  0  0  0  0  0
   -3.2190   -1.6497    1.3667 C   0  0  0  0  0  0  0  0  0  0  0  0
   -4.0819   -2.7196    1.6220 C   0  0  0  0  0  0  0  0  0  0  0  0
   -5.3929   -2.6757    1.1550 C   0  0  0  0  0  0  0  0  0  0  0  0
   -6.4579   -3.9901    1.4663 Cl  0  0  0  0  0  0  0  0  0  0  0  0
   -5.8491   -1.5691    0.4412 C   0  0  0  0  0  0  0  0  0  0  0  0
   -4.9841   -0.5001    0.1854 C   0  0  0  0  0  0  0  0  0  0  0  0
   -3.3140   -0.2194   -2.1095 H   0  0  0  0  0  0  0  0  0  0  0  0
   -3.8691    1.4746   -2.3214 H   0  0  0  0  0  0  0  0  0  0  0  0
   -2.2398    0.9576   -2.8702 H   0  0  0  0  0  0  0  0  0  0  0  0
    0.2697    4.2190    0.1945 H   0  0  0  0  0  0  0  0  0  0  0  0
    0.9243    4.7538   -1.3479 H   0  0  0  0  0  0  0  0  0  0  0  0
    0.7088    1.9949    0.8838 H   0  0  0  0  0  0  0  0  0  0  0  0
    4.0580    1.8893   -0.2740 H   0  0  0  0  0  0  0  0  0  0  0  0
    6.3405    0.5846   -0.6301 H   0  0  0  0  0  0  0  0  0  0  0  0
    7.3957   -1.8114   -0.2022 H   0  0  0  0  0  0  0  0  0  0  0  0
   -2.1979   -1.6871    1.7451 H   0  0  0  0  0  0  0  0  0  0  0  0
   -3.7241   -3.5754    2.1882 H   0  0  0  0  0  0  0  0  0  0  0  0
   -6.8769   -1.5290    0.0901 H   0  0  0  0  0  0  0  0  0  0  0  0
   -5.3682    0.3669   -0.3469 H   0  0  0  0  0  0  0  0  0  0  0  0
  1  2  1  0
  2  3  1  0
  3  4  1  0
  4  5  1  0
  5  6  1  0
  6  7  2  0
  6  8  1  0
  8  9  1  0
  9 10  2  3
 10 11  1  0
 11 12  2  0
 12 13  1  0
 13 14  2  0
 14 15  1  0
 15 16  2  0
 15 17  1  0
 14 18  1  0
  3 19  2  0
 19 20  1  0
 20 21  2  0
 21 22  1  0
 22 23  2  0
 23 24  1  0
 24 25  2  0
 25 26  1  0
 25 27  1  0
 27 28  2  0
 21  2  1  0
 28 22  1  0
 18 11  1  0
  1 29  1  0
  1 30  1  0
  1 31  1  0
  5 32  1  0
  5 33  1  0
  8 34  1  0
 10 35  1  0
 12 36  1  0
 13 37  1  0
 23 38  1  0
 24 39  1  0
 27 40  1  0
 28 41  1  0
M  CHG  2  15   1  17  -1
M  END
$$$$
