
     RDKit          3D

 50 53  0  0  0  0  0  0  0  0999 V2000
   -2.9933    3.2242    2.0596 C   0  0  0  0  0  0  0  0  0  0  0  0
   -2.1206    2.5069    1.1361 N   0  0  0  0  0  0  0  0  0  0  0  0
   -2.9050    1.8757    0.0539 C   0  0  0  0  0  0  0  0  0  0  0  0
   -2.1322    0.7760   -0.7080 C   0  0  0  0  0  0  0  0  0  0  0  0
   -1.6439   -0.2992    0.1903 N   0  0  0  0  0  0  0  0  0  0  0  0
   -2.2272   -1.5708   -0.0449 C   0  0  0  0  0  0  0  0  0  0  0  0
   -3.6065   -1.8007    0.0527 C   0  0  0  0  0  0  0  0  0  0  0  0
   -4.1288   -3.0763   -0.1678 C   0  0  0  0  0  0  0  0  0  0  0  0
   -3.2789   -4.1344   -0.4854 C   0  0  0  0  0  0  0  0  0  0  0  0
   -1.9018   -3.9257   -0.5884 C   0  0  0  0  0  0  0  0  0  0  0  0
   -1.3745   -2.6532   -0.3727 C   0  0  0  0  0  0  0  0  0  0  0  0
   -0.0089   -2.3358   -0.4715 N   0  0  0  0  0  0  0  0  0  0  0  0
    1.0663   -3.1434   -0.7586 C   0  0  0  0  0  0  0  0  0  0  0  0
    1.0161   -4.3521   -0.9628 O   0  0  0  0  0  0  0  0  0  0  0  0
    2.3162   -2.4042   -0.7956 C   0  0  0  0  0  0  0  0  0  0  0  0
    3.6159   -2.8178   -1.0063 C   0  0  0  0  0  0  0  0  0  0  0  0
    4.4284   -1.6589   -0.9378 C   0  0  0  0  0  0  0  0  0  0  0  0
    3.5840   -0.5929   -0.6946 C   0  0  0  0  0  0  0  0  0  0  0  0
    3.7692    0.8463   -0.5199 C   0  0  0  0  0  0  0  0  0  0  0  0
    5.0577    1.3948   -0.4428 C   0  0  0  0  0  0  0  0  0  0  0  0
    5.2431    2.7716   -0.2755 C   0  0  0  0  0  0  0  0  0  0  0  0
    4.1411    3.6236   -0.1855 C   0  0  0  0  0  0  0  0  0  0  0  0
    4.4438    5.3113    0.0212 Cl  0  0  0  0  0  0  0  0  0  0  0  0
    2.8503    3.0941   -0.2647 C   0  0  0  0  0  0  0  0  0  0  0  0
    1.4376    4.0852   -0.1709 Cl  0  0  0  0  0  0  0  0  0  0  0  0
    2.6694    1.7153   -0.4294 C   0  0  0  0  0  0  0  0  0  0  0  0
    2.2994   -1.0470   -0.6028 O   0  0  0  0  0  0  0  0  0  0  0  0
   -1.6560    0.0506    1.6304 C   0  0  0  0  0  0  0  0  0  0  0  0
   -1.2564    1.5293    1.8323 C   0  0  0  0  0  0  0  0  0  0  0  0
   -2.4002    3.7791    2.7945 H   0  0  0  0  0  0  0  0  0  0  0  0
   -3.5988    3.9631    1.5233 H   0  0  0  0  0  0  0  0  0  0  0  0
   -3.6681    2.5488    2.5983 H   0  0  0  0  0  0  0  0  0  0  0  0
   -3.2070    2.6524   -0.6585 H   0  0  0  0  0  0  0  0  0  0  0  0
   -3.8253    1.4330    0.4580 H   0  0  0  0  0  0  0  0  0  0  0  0
   -1.2540    1.2273   -1.1863 H   0  0  0  0  0  0  0  0  0  0  0  0
   -2.7545    0.3833   -1.5220 H   0  0  0  0  0  0  0  0  0  0  0  0
   -4.2838   -0.9920    0.3083 H   0  0  0  0  0  0  0  0  0  0  0  0
   -5.1995   -3.2461   -0.0896 H   0  0  0  0  0  0  0  0  0  0  0  0
   -3.6864   -5.1279   -0.6580 H   0  0  0  0  0  0  0  0  0  0  0  0
   -1.2675   -4.7681   -0.8444 H   0  0  0  0  0  0  0  0  0  0  0  0
    0.1805   -1.3476   -0.3119 H   0  0  0  0  0  0  0  0  0  0  0  0
    3.9268   -3.8382   -1.1877 H   0  0  0  0  0  0  0  0  0  0  0  0
    5.5014   -1.6143   -1.0601 H   0  0  0  0  0  0  0  0  0  0  0  0
    5.9377    0.7586   -0.5070 H   0  0  0  0  0  0  0  0  0  0  0  0
    6.2529    3.1709   -0.2151 H   0  0  0  0  0  0  0  0  0  0  0  0
    1.6564    1.3206   -0.4919 H   0  0  0  0  0  0  0  0  0  0  0  0
   -0.9396   -0.5872    2.1615 H   0  0  0  0  0  0  0  0  0  0  0  0
   -2.6443   -0.1157    2.0789 H   0  0  0  0  0  0  0  0  0  0  0  0
   -0.2414    1.6632    1.4380 H   0  0  0  0  0  0  0  0  0  0  0  0
   -1.1903    1.7444    2.9062 H   0  0  0  0  0  0  0  0  0  0  0  0
  1  2  1  0
  2  3  1  0
  3  4  1  0
  4  5  1  0
  5  6  1  0
  6  7  2  0
  7  8  1  0
  8  9  2  0
  9 10  1  0
 10 11  2  0
 11 12  1  0
 12 13  1  0
 13 14  2  0
 13 15  1  0
 15 16  2  0
 16 17  1  0
 17 18  2  0
 18 19  1  0
 19 20  2  0
 20 21  1  0
 21 22  2  0
 22 23  1  0
 22 24  1  0
 24 25  1  0
 24 26  2  0
 18 27  1  0
  5 28  1  0
 28 29  1  0
 29  2  1  0
 11  6  1  0
 27 15  1  0
 26 19  1  0
  1 30  1  0
  1 31  1  0
  1 32  1  0
  3 33  1  0
  3 34  1  0
  4 35  1  0
  4 36  1  0
  7 37  1  0
  8 38  1  0
  9 39  1  0
 10 40  1  0
 12 41  1  0
 16 42  1  0
 17 43  1  0
 20 44  1  0
 21 45  1  0
 26 46  1  0
 28 47  1  0
 28 48  1  0
 29 49  1  0
 29 50  1  0
M  END
$$$$
