
     RDKit          3D

 59 62  0  0  0  0  0  0  0  0999 V2000
   -9.0000    1.3502   -2.0227 C   0  0  0  0  0  0  0  0  0  0  0  0
   -7.9621    1.0557   -0.9791 C   0  0  0  0  0  0  0  0  0  0  0  0
   -7.0476    2.0508   -0.6057 C   0  0  0  0  0  0  0  0  0  0  0  0
   -6.0727    1.7898    0.3587 C   0  0  0  0  0  0  0  0  0  0  0  0
   -6.0025    0.5235    0.9471 C   0  0  0  0  0  0  0  0  0  0  0  0
   -4.9790    0.2244    1.9738 C   0  0  0  0  0  0  0  0  0  0  0  0
   -5.3572   -0.2102    3.0574 O   0  0  0  0  0  0  0  0  0  0  0  0
   -3.6414    0.4434    1.6648 N   0  0  0  0  0  0  0  0  0  0  0  0
   -3.1176    0.5789    0.2982 C   0  0  0  0  0  0  0  0  0  0  0  0
   -1.7152   -0.0379    0.1277 C   0  0  0  0  0  0  0  0  0  0  0  0
   -0.7620    0.5211    1.0986 N   0  0  0  0  0  0  0  0  0  0  0  0
    0.6053    0.4877    0.8769 C   0  0  0  0  0  0  0  0  0  0  0  0
    1.1882   -0.3680   -0.0674 C   0  0  0  0  0  0  0  0  0  0  0  0
    2.5732   -0.3984   -0.2873 C   0  0  0  0  0  0  0  0  0  0  0  0
    3.4282    0.4404    0.4286 C   0  0  0  0  0  0  0  0  0  0  0  0
    4.8052    0.3436    0.1538 N   0  0  0  0  0  0  0  0  0  0  0  0
    5.8379    1.0845    0.7006 C   0  0  0  0  0  0  0  0  0  0  0  0
    5.7221    1.9725    1.5428 O   0  0  0  0  0  0  0  0  0  0  0  0
    7.2212    0.6475    0.2341 C   0  0  0  0  0  0  0  0  0  0  0  0
    7.3652    0.6565   -1.5885 S   0  0  0  0  0  0  0  0  0  0  0  0
    7.1454   -1.0690   -1.9759 C   0  0  0  0  0  0  0  0  0  0  0  0
    6.1653   -1.4305   -2.9083 C   0  0  0  0  0  0  0  0  0  0  0  0
    5.9666   -2.7734   -3.2405 C   0  0  0  0  0  0  0  0  0  0  0  0
    6.7573   -3.7567   -2.6501 C   0  0  0  0  0  0  0  0  0  0  0  0
    6.5163   -5.4091   -3.0617 Cl  0  0  0  0  0  0  0  0  0  0  0  0
    7.7486   -3.4072   -1.7361 C   0  0  0  0  0  0  0  0  0  0  0  0
    7.9466   -2.0631   -1.4044 C   0  0  0  0  0  0  0  0  0  0  0  0
    2.8734    1.3044    1.3642 C   0  0  0  0  0  0  0  0  0  0  0  0
    1.4860    1.3220    1.5812 C   0  0  0  0  0  0  0  0  0  0  0  0
   -1.2988    0.9267    2.4130 C   0  0  0  0  0  0  0  0  0  0  0  0
   -2.6451    0.2446    2.7186 C   0  0  0  0  0  0  0  0  0  0  0  0
   -6.9266   -0.4665    0.6033 C   0  0  0  0  0  0  0  0  0  0  0  0
   -7.8974   -0.2020   -0.3651 C   0  0  0  0  0  0  0  0  0  0  0  0
   -9.6585    0.4917   -2.1890 H   0  0  0  0  0  0  0  0  0  0  0  0
   -8.5170    1.5915   -2.9743 H   0  0  0  0  0  0  0  0  0  0  0  0
   -9.6217    2.1947   -1.7103 H   0  0  0  0  0  0  0  0  0  0  0  0
   -7.1018    3.0369   -1.0559 H   0  0  0  0  0  0  0  0  0  0  0  0
   -5.3838    2.5748    0.6582 H   0  0  0  0  0  0  0  0  0  0  0  0
   -3.0729    1.6534    0.0835 H   0  0  0  0  0  0  0  0  0  0  0  0
   -3.8037    0.1144   -0.4173 H   0  0  0  0  0  0  0  0  0  0  0  0
   -1.7725   -1.1252    0.2630 H   0  0  0  0  0  0  0  0  0  0  0  0
   -1.3894    0.1648   -0.8999 H   0  0  0  0  0  0  0  0  0  0  0  0
    0.5756   -1.0578   -0.6405 H   0  0  0  0  0  0  0  0  0  0  0  0
    2.9622   -1.0942   -1.0254 H   0  0  0  0  0  0  0  0  0  0  0  0
    5.0670   -0.3280   -0.5552 H   0  0  0  0  0  0  0  0  0  0  0  0
    7.9498    1.3700    0.6150 H   0  0  0  0  0  0  0  0  0  0  0  0
    7.4542   -0.3239    0.6769 H   0  0  0  0  0  0  0  0  0  0  0  0
    5.5517   -0.6712   -3.3904 H   0  0  0  0  0  0  0  0  0  0  0  0
    5.2033   -3.0429   -3.9660 H   0  0  0  0  0  0  0  0  0  0  0  0
    8.3770   -4.1722   -1.2870 H   0  0  0  0  0  0  0  0  0  0  0  0
    8.7438   -1.8070   -0.7105 H   0  0  0  0  0  0  0  0  0  0  0  0
    3.4835    1.9864    1.9475 H   0  0  0  0  0  0  0  0  0  0  0  0
    1.1056    2.0349    2.3083 H   0  0  0  0  0  0  0  0  0  0  0  0
   -1.4319    2.0159    2.4145 H   0  0  0  0  0  0  0  0  0  0  0  0
   -0.6047    0.6651    3.2213 H   0  0  0  0  0  0  0  0  0  0  0  0
   -2.5009   -0.8385    2.8198 H   0  0  0  0  0  0  0  0  0  0  0  0
   -3.0446    0.6134    3.6701 H   0  0  0  0  0  0  0  0  0  0  0  0
   -6.8914   -1.4398    1.0891 H   0  0  0  0  0  0  0  0  0  0  0  0
   -8.6061   -0.9831   -0.6312 H   0  0  0  0  0  0  0  0  0  0  0  0
  1  2  1  0
  2  3  2  0
  3  4  1  0
  4  5  2  0
  5  6  1  0
  6  7  2  0
  6  8  1  0
  8  9  1  0
  9 10  1  0
 10 11  1  0
 11 12  1  0
 12 13  2  0
 13 14  1  0
 14 15  2  0
 15 16  1  0
 16 17  1  0
 17 18  2  0
 17 19  1  0
 19 20  1  0
 20 21  1  0
 21 22  2  0
 22 23  1  0
 23 24  2  0
 24 25  1  0
 24 26  1  0
 26 27  2  0
 15 28  1  0
 28 29  2  0
 11 30  1  0
 30 31  1  0
  5 32  1  0
 32 33  2  0
 33  2  1  0
 31  8  1  0
 29 12  1  0
 27 21  1  0
  1 34  1  0
  1 35  1  0
  1 36  1  0
  3 37  1  0
  4 38  1  0
  9 39  1  0
  9 40  1  0
 10 41  1  0
 10 42  1  0
 13 43  1  0
 14 44  1  0
 16 45  1  0
 19 46  1  0
 19 47  1  0
 22 48  1  0
 23 49  1  0
 26 50  1  0
 27 51  1  0
 28 52  1  0
 29 53  1  0
 30 54  1  0
 30 55  1  0
 31 56  1  0
 31 57  1  0
 32 58  1  0
 33 59  1  0
M  END
$$$$
