
     RDKit          3D

 43 46  0  0  0  0  0  0  0  0999 V2000
    6.4324    1.6430   -1.4312 C   0  0  0  0  0  0  0  0  0  0  0  0
    5.0359    1.3381   -0.9725 C   0  0  0  0  0  0  0  0  0  0  0  0
    4.6730    0.0341   -0.6226 C   0  0  0  0  0  0  0  0  0  0  0  0
    3.3646   -0.2596   -0.2247 C   0  0  0  0  0  0  0  0  0  0  0  0
    2.4012    0.7484   -0.1807 C   0  0  0  0  0  0  0  0  0  0  0  0
    0.9279    0.4326    0.2633 C   0  0  0  0  0  0  0  0  0  0  0  0
   -0.1381    1.3250    0.2781 C   0  0  0  0  0  0  0  0  0  0  0  0
   -1.2881    0.6540    0.6970 N   0  0  0  0  0  4  0  0  0  0  0  0
   -2.6258    1.2218    0.8479 C   0  0  0  0  0  0  0  0  0  0  0  0
   -3.5923    0.4780   -0.0372 C   0  0  0  0  0  0  0  0  0  0  0  0
   -4.7694   -0.0702    0.4960 C   0  0  0  0  0  0  0  0  0  0  0  0
   -5.6664   -0.7603   -0.3233 C   0  0  0  0  0  0  0  0  0  0  0  0
   -5.4016   -0.9069   -1.6845 C   0  0  0  0  0  0  0  0  0  0  0  0
   -4.2434   -0.3562   -2.2244 C   0  0  0  0  0  0  0  0  0  0  0  0
   -3.9071   -0.5352   -3.9005 Cl  0  0  0  0  0  0  0  0  0  0  0  0
   -3.3450    0.3375   -1.4129 C   0  0  0  0  0  0  0  0  0  0  0  0
   -0.9393   -0.6027    0.9540 C   0  0  0  0  0  0  0  0  0  0  0  0
    0.3620   -0.7441    0.7203 N   0  0  0  0  0  0  0  0  0  0  0  0
    0.8198   -2.0975    1.0013 C   0  0  0  0  0  0  0  0  0  0  0  0
   -0.3704   -2.7293    1.7749 C   0  0  0  0  0  0  0  0  0  0  0  0
   -1.5866   -1.8483    1.4275 C   0  0  0  0  0  0  0  0  0  0  0  0
    2.7542    2.0516   -0.5495 C   0  0  0  0  0  0  0  0  0  0  0  0
    4.0633    2.3414   -0.9460 C   0  0  0  0  0  0  0  0  0  0  0  0
    6.7098    2.6722   -1.1801 H   0  0  0  0  0  0  0  0  0  0  0  0
    7.1567    0.9831   -0.9421 H   0  0  0  0  0  0  0  0  0  0  0  0
    6.5074    1.5101   -2.5149 H   0  0  0  0  0  0  0  0  0  0  0  0
    5.4123   -0.7648   -0.6614 H   0  0  0  0  0  0  0  0  0  0  0  0
    3.1368   -1.2873    0.0256 H   0  0  0  0  0  0  0  0  0  0  0  0
   -0.2296    2.3670    0.0222 H   0  0  0  0  0  0  0  0  0  0  0  0
   -2.9013    1.1407    1.9053 H   0  0  0  0  0  0  0  0  0  0  0  0
   -2.6154    2.2833    0.5780 H   0  0  0  0  0  0  0  0  0  0  0  0
   -5.0093    0.0363    1.5534 H   0  0  0  0  0  0  0  0  0  0  0  0
   -6.5793   -1.1797    0.0963 H   0  0  0  0  0  0  0  0  0  0  0  0
   -6.1052   -1.4428   -2.3178 H   0  0  0  0  0  0  0  0  0  0  0  0
   -2.4504    0.7665   -1.8592 H   0  0  0  0  0  0  0  0  0  0  0  0
    0.9941   -2.6147    0.0533 H   0  0  0  0  0  0  0  0  0  0  0  0
    1.7236   -2.0874    1.6144 H   0  0  0  0  0  0  0  0  0  0  0  0
   -0.1724   -2.6583    2.8510 H   0  0  0  0  0  0  0  0  0  0  0  0
   -0.5234   -3.7838    1.5303 H   0  0  0  0  0  0  0  0  0  0  0  0
   -2.1603   -2.2450    0.5874 H   0  0  0  0  0  0  0  0  0  0  0  0
   -2.2178   -1.6189    2.2867 H   0  0  0  0  0  0  0  0  0  0  0  0
    2.0401    2.8695   -0.5396 H   0  0  0  0  0  0  0  0  0  0  0  0
    4.3226    3.3590   -1.2349 H   0  0  0  0  0  0  0  0  0  0  0  0
  1  2  1  0
  2  3  2  0
  3  4  1  0
  4  5  2  0
  5  6  1  0
  6  7  2  0
  7  8  1  0
  8  9  1  0
  9 10  1  0
 10 11  2  0
 11 12  1  0
 12 13  2  0
 13 14  1  0
 14 15  1  0
 14 16  2  0
  8 17  2  0
 17 18  1  0
 18 19  1  0
 19 20  1  0
 20 21  1  0
  5 22  1  0
 22 23  2  0
 23  2  1  0
 18  6  1  0
 16 10  1  0
 21 17  1  0
  1 24  1  0
  1 25  1  0
  1 26  1  0
  3 27  1  0
  4 28  1  0
  7 29  1  0
  9 30  1  0
  9 31  1  0
 11 32  1  0
 12 33  1  0
 13 34  1  0
 16 35  1  0
 19 36  1  0
 19 37  1  0
 20 38  1  0
 20 39  1  0
 21 40  1  0
 21 41  1  0
 22 42  1  0
 23 43  1  0
M  CHG  1   8   1
M  END
$$$$
