
     RDKit          3D

 49 50  0  0  0  0  0  0  0  0999 V2000
    1.9140   -1.5319    1.1702 C   0  0  0  0  0  0  0  0  0  0  0  0
    2.6986   -1.6325   -0.1393 C   0  0  0  0  0  0  0  0  0  0  0  0
    3.3000   -3.0357   -0.2612 C   0  0  0  0  0  0  0  0  0  0  0  0
    3.8140   -0.5745   -0.2200 C   0  0  0  0  0  0  0  0  0  0  0  0
    3.3283    0.8634   -0.4277 C   0  0  0  0  0  0  0  0  0  0  0  0
    2.8185    1.0631   -1.8158 N   0  0  0  0  0  4  0  0  0  0  0  0
    3.7330    1.1012   -2.8207 C   0  0  0  0  0  0  0  0  0  0  0  0
    3.3536    1.2596   -4.1461 C   0  0  0  0  0  0  0  0  0  0  0  0
    2.0125    1.3958   -4.4558 C   0  0  0  0  0  0  0  0  0  0  0  0
    1.0806    1.3806   -3.4276 C   0  0  0  0  0  0  0  0  0  0  0  0
    1.4921    1.2162   -2.0955 C   0  0  0  0  0  0  0  0  0  0  0  0
    0.4873    1.2675   -1.0296 C   0  0  0  0  0  0  0  0  0  0  0  0
   -0.5148    0.3772   -0.9441 C   0  0  0  0  0  0  0  0  0  0  0  0
   -1.5721    0.4118    0.0780 C   0  0  0  0  0  0  0  0  0  0  0  0
   -1.3795    0.9155    1.3639 C   0  0  0  0  0  0  0  0  0  0  0  0
   -2.4221    0.8999    2.3056 C   0  0  0  0  0  0  0  0  0  0  0  0
   -3.6913    0.3707    2.0189 C   0  0  0  0  0  0  0  0  0  0  0  0
   -4.7296    0.3826    2.9529 N   0  0  0  0  0  0  0  0  0  0  0  0
   -5.9496   -0.3791    2.6859 C   0  0  0  0  0  0  0  0  0  0  0  0
   -4.4244    0.6092    4.3651 C   0  0  0  0  0  0  0  0  0  0  0  0
   -3.8575   -0.1324    0.7185 C   0  0  0  0  0  0  0  0  0  0  0  0
   -2.8223   -0.1240   -0.2304 C   0  0  0  0  0  0  0  0  0  0  0  0
    1.4607   -0.5463    1.2969 H   0  0  0  0  0  0  0  0  0  0  0  0
    2.5616   -1.7140    2.0349 H   0  0  0  0  0  0  0  0  0  0  0  0
    1.1067   -2.2718    1.1941 H   0  0  0  0  0  0  0  0  0  0  0  0
    2.0068   -1.4989   -0.9779 H   0  0  0  0  0  0  0  0  0  0  0  0
    2.5168   -3.8000   -0.2171 H   0  0  0  0  0  0  0  0  0  0  0  0
    3.8244   -3.1523   -1.2156 H   0  0  0  0  0  0  0  0  0  0  0  0
    4.0145   -3.2345    0.5450 H   0  0  0  0  0  0  0  0  0  0  0  0
    4.5067   -0.8434   -1.0263 H   0  0  0  0  0  0  0  0  0  0  0  0
    4.4017   -0.6068    0.7066 H   0  0  0  0  0  0  0  0  0  0  0  0
    4.1683    1.5609   -0.3156 H   0  0  0  0  0  0  0  0  0  0  0  0
    2.5815    1.1620    0.3085 H   0  0  0  0  0  0  0  0  0  0  0  0
    4.7809    0.9976   -2.5497 H   0  0  0  0  0  0  0  0  0  0  0  0
    4.1035    1.2794   -4.9345 H   0  0  0  0  0  0  0  0  0  0  0  0
    1.6923    1.5258   -5.4886 H   0  0  0  0  0  0  0  0  0  0  0  0
    0.0256    1.5138   -3.6660 H   0  0  0  0  0  0  0  0  0  0  0  0
    0.5719    2.0975   -0.3337 H   0  0  0  0  0  0  0  0  0  0  0  0
   -0.6065   -0.4313   -1.6691 H   0  0  0  0  0  0  0  0  0  0  0  0
   -0.4246    1.3271    1.6755 H   0  0  0  0  0  0  0  0  0  0  0  0
   -2.2073    1.3242    3.2822 H   0  0  0  0  0  0  0  0  0  0  0  0
   -5.7323   -1.4492    2.5972 H   0  0  0  0  0  0  0  0  0  0  0  0
   -6.4452   -0.0267    1.7749 H   0  0  0  0  0  0  0  0  0  0  0  0
   -6.6814   -0.2555    3.4921 H   0  0  0  0  0  0  0  0  0  0  0  0
   -5.3296    0.5721    4.9816 H   0  0  0  0  0  0  0  0  0  0  0  0
   -3.9946    1.6042    4.5220 H   0  0  0  0  0  0  0  0  0  0  0  0
   -3.7355   -0.1534    4.7450 H   0  0  0  0  0  0  0  0  0  0  0  0
   -4.8085   -0.5496    0.4000 H   0  0  0  0  0  0  0  0  0  0  0  0
   -3.0277   -0.5351   -1.2165 H   0  0  0  0  0  0  0  0  0  0  0  0
  1  2  1  0
  2  3  1  0
  2  4  1  0
  4  5  1  0
  5  6  1  0
  6  7  2  0
  7  8  1  0
  8  9  2  0
  9 10  1  0
 10 11  2  0
 11 12  1  0
 12 13  2  3
 13 14  1  0
 14 15  2  0
 15 16  1  0
 16 17  2  0
 17 18  1  0
 18 19  1  0
 18 20  1  0
 17 21  1  0
 21 22  2  0
 11  6  1  0
 22 14  1  0
  1 23  1  0
  1 24  1  0
  1 25  1  0
  2 26  1  0
  3 27  1  0
  3 28  1  0
  3 29  1  0
  4 30  1  0
  4 31  1  0
  5 32  1  0
  5 33  1  0
  7 34  1  0
  8 35  1  0
  9 36  1  0
 10 37  1  0
 12 38  1  0
 13 39  1  0
 15 40  1  0
 16 41  1  0
 19 42  1  0
 19 43  1  0
 19 44  1  0
 20 45  1  0
 20 46  1  0
 20 47  1  0
 21 48  1  0
 22 49  1  0
M  CHG  1   6   1
M  END
$$$$
