
     RDKit          3D

 68 71  0  0  0  0  0  0  0  0999 V2000
    4.6537    6.1664    2.6471 C   0  0  0  0  0  0  0  0  0  0  0  0
    5.0071    5.0192    1.7939 C   0  0  0  0  0  0  0  0  0  0  0  0
    4.5670    3.7220    1.7095 C   0  0  0  0  0  0  0  0  0  0  0  0
    5.3393    3.1517    0.6739 C   0  0  0  0  0  0  0  0  0  0  0  0
    5.3116    1.8734    0.1623 N   0  0  0  0  0  0  0  0  0  0  0  0
    4.5101    0.8526    0.6193 C   0  0  0  0  0  0  0  0  0  0  0  0
    3.7647    0.9042    1.5935 O   0  0  0  0  0  0  0  0  0  0  0  0
    4.7023   -0.4230   -0.1817 C   0  0  0  0  0  0  0  0  0  0  0  0
    3.5280   -1.3820   -0.0037 C   0  0  0  0  0  0  0  0  0  0  0  0
    2.2924   -0.9069   -0.7584 C   0  0  0  0  0  0  0  0  0  0  0  0
    2.3684    0.0483   -1.5338 O   0  0  0  0  0  0  0  0  0  0  0  0
    1.1148   -1.6288   -0.5904 N   0  0  0  0  0  0  0  0  0  0  0  0
    0.9993   -2.7759    0.3196 C   0  0  0  0  0  0  0  0  0  0  0  0
    0.4084   -2.4232    1.6359 C   0  0  0  0  0  0  0  0  0  0  0  0
    0.5755   -1.3811    2.5261 C   0  0  0  0  0  0  0  0  0  0  0  0
   -0.2733   -1.6489    3.6270 C   0  0  0  0  0  0  0  0  0  0  0  0
   -0.8710   -2.8563    3.3631 C   0  0  0  0  0  0  0  0  0  0  0  0
   -0.4694   -3.3323    2.1562 O   0  0  0  0  0  0  0  0  0  0  0  0
   -0.0930   -1.1014   -1.2747 C   0  0  0  0  0  0  0  0  0  0  0  0
   -0.8295    0.0331   -0.4886 C   0  0  0  0  0  0  0  0  0  0  0  0
   -0.3581    0.5929    0.5001 O   0  0  0  0  0  0  0  0  0  0  0  0
   -2.0317    0.4499   -1.0473 N   0  0  0  0  0  0  0  0  0  0  0  0
   -2.8665    1.4618   -0.4093 C   0  0  0  0  0  0  0  0  0  0  0  0
   -3.6611    0.8713    0.7657 C   0  0  0  0  0  0  0  0  0  0  0  0
   -4.7942   -0.0462    0.3091 C   0  0  0  0  0  0  0  0  0  0  0  0
   -5.7156    0.6501   -0.6858 C   0  0  0  0  0  0  0  0  0  0  0  0
   -4.9402    1.2030   -1.8770 C   0  0  0  0  0  0  0  0  0  0  0  0
   -3.7984    2.1189   -1.4355 C   0  0  0  0  0  0  0  0  0  0  0  0
   -1.0148   -2.2001   -1.8075 C   0  0  0  0  0  0  0  0  0  0  0  0
   -0.8330   -2.6742   -3.1191 C   0  0  0  0  0  0  0  0  0  0  0  0
   -1.6504   -3.6820   -3.6315 C   0  0  0  0  0  0  0  0  0  0  0  0
   -2.6537   -4.2373   -2.8392 C   0  0  0  0  0  0  0  0  0  0  0  0
   -2.8399   -3.7856   -1.5341 C   0  0  0  0  0  0  0  0  0  0  0  0
   -2.0273   -2.7744   -1.0196 C   0  0  0  0  0  0  0  0  0  0  0  0
    6.1870    4.0495    0.1572 N   0  0  0  0  0  0  0  0  0  0  0  0
    5.9824    5.2191    0.8675 O   0  0  0  0  0  0  0  0  0  0  0  0
    5.1299    6.0664    3.6267 H   0  0  0  0  0  0  0  0  0  0  0  0
    3.5702    6.2223    2.7933 H   0  0  0  0  0  0  0  0  0  0  0  0
    4.9857    7.1090    2.1989 H   0  0  0  0  0  0  0  0  0  0  0  0
    3.7899    3.2601    2.3019 H   0  0  0  0  0  0  0  0  0  0  0  0
    5.9254    1.7358   -0.6284 H   0  0  0  0  0  0  0  0  0  0  0  0
    4.8575   -0.1844   -1.2399 H   0  0  0  0  0  0  0  0  0  0  0  0
    5.6178   -0.8984    0.1889 H   0  0  0  0  0  0  0  0  0  0  0  0
    3.8143   -2.3570   -0.4159 H   0  0  0  0  0  0  0  0  0  0  0  0
    3.2952   -1.5018    1.0590 H   0  0  0  0  0  0  0  0  0  0  0  0
    0.4328   -3.5730   -0.1713 H   0  0  0  0  0  0  0  0  0  0  0  0
    1.9828   -3.2179    0.5004 H   0  0  0  0  0  0  0  0  0  0  0  0
    1.2114   -0.5150    2.3851 H   0  0  0  0  0  0  0  0  0  0  0  0
   -0.4166   -1.0373    4.5066 H   0  0  0  0  0  0  0  0  0  0  0  0
   -1.5766   -3.4749    3.8991 H   0  0  0  0  0  0  0  0  0  0  0  0
    0.2552   -0.5594   -2.1669 H   0  0  0  0  0  0  0  0  0  0  0  0
   -2.4496   -0.1311   -1.7643 H   0  0  0  0  0  0  0  0  0  0  0  0
   -2.1885    2.2298   -0.0161 H   0  0  0  0  0  0  0  0  0  0  0  0
   -2.9997    0.3165    1.4414 H   0  0  0  0  0  0  0  0  0  0  0  0
   -4.0931    1.6941    1.3521 H   0  0  0  0  0  0  0  0  0  0  0  0
   -5.3767   -0.3736    1.1785 H   0  0  0  0  0  0  0  0  0  0  0  0
   -4.3771   -0.9492   -0.1507 H   0  0  0  0  0  0  0  0  0  0  0  0
   -6.4791   -0.0525   -1.0365 H   0  0  0  0  0  0  0  0  0  0  0  0
   -6.2430    1.4691   -0.1820 H   0  0  0  0  0  0  0  0  0  0  0  0
   -4.5438    0.3696   -2.4714 H   0  0  0  0  0  0  0  0  0  0  0  0
   -5.6210    1.7582   -2.5325 H   0  0  0  0  0  0  0  0  0  0  0  0
   -4.2291    3.0258   -0.9949 H   0  0  0  0  0  0  0  0  0  0  0  0
   -3.2282    2.4378   -2.3154 H   0  0  0  0  0  0  0  0  0  0  0  0
   -0.0470   -2.2578   -3.7490 H   0  0  0  0  0  0  0  0  0  0  0  0
   -1.5021   -4.0366   -4.6493 H   0  0  0  0  0  0  0  0  0  0  0  0
   -3.2872   -5.0257   -3.2362 H   0  0  0  0  0  0  0  0  0  0  0  0
   -3.6154   -4.2276   -0.9104 H   0  0  0  0  0  0  0  0  0  0  0  0
   -2.1847   -2.4491    0.0093 H   0  0  0  0  0  0  0  0  0  0  0  0
  1  2  1  0
  2  3  2  0
  3  4  1  0
  4  5  1  0
  5  6  1  0
  6  7  2  0
  6  8  1  0
  8  9  1  0
  9 10  1  0
 10 11  2  0
 10 12  1  0
 12 13  1  0
 13 14  1  0
 14 15  2  0
 15 16  1  0
 16 17  2  0
 17 18  1  0
 12 19  1  0
 19 20  1  0
 20 21  2  0
 20 22  1  0
 22 23  1  0
 23 24  1  0
 24 25  1  0
 25 26  1  0
 26 27  1  0
 27 28  1  0
 19 29  1  0
 29 30  2  0
 30 31  1  0
 31 32  2  0
 32 33  1  0
 33 34  2  0
  4 35  2  0
 35 36  1  0
 36  2  1  0
 18 14  1  0
 28 23  1  0
 34 29  1  0
  1 37  1  0
  1 38  1  0
  1 39  1  0
  3 40  1  0
  5 41  1  0
  8 42  1  0
  8 43  1  0
  9 44  1  0
  9 45  1  0
 13 46  1  0
 13 47  1  0
 15 48  1  0
 16 49  1  0
 17 50  1  0
 19 51  1  0
 22 52  1  0
 23 53  1  0
 24 54  1  0
 24 55  1  0
 25 56  1  0
 25 57  1  0
 26 58  1  0
 26 59  1  0
 27 60  1  0
 27 61  1  0
 28 62  1  0
 28 63  1  0
 30 64  1  0
 31 65  1  0
 32 66  1  0
 33 67  1  0
 34 68  1  0
M  END
$$$$
