
     RDKit          3D

 61 67  0  0  0  0  0  0  0  0999 V2000
    3.4447    1.5086   -2.0629 O   0  0  0  0  0  0  0  0  0  0  0  0
    3.1799    1.0260   -0.9645 C   0  0  0  0  0  0  0  0  0  0  0  0
    4.3022    0.4823   -0.1680 C   0  0  0  0  0  0  0  0  0  0  0  0
    5.1948   -0.4190   -0.7849 C   0  0  0  0  0  0  0  0  0  0  0  0
    6.2815   -0.9335   -0.0722 C   0  0  0  0  0  0  0  0  0  0  0  0
    6.4470   -0.5148    1.2315 C   0  0  0  0  0  0  0  0  0  0  0  0
    5.5867    0.3824    1.8236 C   0  0  0  0  0  0  0  0  0  0  0  0
    4.5064    0.9098    1.1505 C   0  0  0  0  0  0  0  0  0  0  0  0
    5.9368    0.6666    3.1065 O   0  0  0  0  0  0  0  0  0  0  0  0
    7.1213   -0.1456    3.2524 C   0  0  0  0  0  0  0  0  0  0  0  0
    7.4434   -0.9064    2.0696 O   0  0  0  0  0  0  0  0  0  0  0  0
    1.8860    0.9870   -0.4332 N   0  0  0  0  0  0  0  0  0  0  0  0
    1.4391   -0.0268    0.5167 C   0  0  0  0  0  0  0  0  0  0  0  0
    0.6517   -1.1217   -0.1982 C   0  0  0  0  0  0  0  0  0  0  0  0
   -0.4357   -0.6451   -1.2104 C   0  0  0  0  0  0  0  0  0  0  0  0
    0.1055    0.5478   -2.0448 C   0  0  0  0  0  0  0  0  0  0  0  0
    0.8218    1.6015   -1.2113 C   0  0  0  0  0  0  0  0  0  0  0  0
   -0.5152   -1.7958   -2.1153 O   0  0  0  0  0  0  0  0  0  0  0  0
   -1.5904   -1.8974   -2.9439 C   0  0  0  0  0  0  0  0  0  0  0  0
   -1.4828   -2.8234   -3.9830 C   0  0  0  0  0  0  0  0  0  0  0  0
   -2.5320   -2.9803   -4.8904 C   0  0  0  0  0  0  0  0  0  0  0  0
   -3.6832   -2.2120   -4.7491 C   0  0  0  0  0  0  0  0  0  0  0  0
   -4.6857   -2.3619   -5.6238 F   0  0  0  0  0  0  0  0  0  0  0  0
   -3.8091   -1.2957   -3.7137 C   0  0  0  0  0  0  0  0  0  0  0  0
   -2.7568   -1.1547   -2.8057 C   0  0  0  0  0  0  0  0  0  0  0  0
   -2.8544   -0.2132   -1.6855 C   0  0  0  0  0  0  0  0  0  0  0  0
   -3.7106    0.6678   -1.7086 O   0  0  0  0  0  0  0  0  0  0  0  0
   -1.8334   -0.3943   -0.5597 C   0  0  0  0  0  0  0  0  0  0  0  0
   -1.9648    0.7384    0.4433 C   0  0  0  0  0  0  0  0  0  0  0  0
   -2.9628    0.1158    1.3626 C   0  0  0  0  0  0  0  0  0  0  0  0
   -3.7129    0.9041    2.3680 C   0  0  0  0  0  0  0  0  0  0  0  0
   -3.4688    2.2684    2.5626 C   0  0  0  0  0  0  0  0  0  0  0  0
   -4.1928    2.9784    3.5246 C   0  0  0  0  0  0  0  0  0  0  0  0
   -5.1584    2.3311    4.2944 C   0  0  0  0  0  0  0  0  0  0  0  0
   -5.4038    0.9724    4.1061 C   0  0  0  0  0  0  0  0  0  0  0  0
   -4.6830    0.2596    3.1461 C   0  0  0  0  0  0  0  0  0  0  0  0
   -3.0790   -1.1680    1.2349 N   0  0  0  0  0  0  0  0  0  0  0  0
   -2.2297   -1.5660    0.1795 O   0  0  0  0  0  0  0  0  0  0  0  0
    5.0392   -0.7104   -1.8220 H   0  0  0  0  0  0  0  0  0  0  0  0
    6.9759   -1.6298   -0.5293 H   0  0  0  0  0  0  0  0  0  0  0  0
    3.8511    1.6312    1.6242 H   0  0  0  0  0  0  0  0  0  0  0  0
    7.9679    0.5086    3.4907 H   0  0  0  0  0  0  0  0  0  0  0  0
    6.9683   -0.8410    4.0857 H   0  0  0  0  0  0  0  0  0  0  0  0
    2.2802   -0.4980    1.0298 H   0  0  0  0  0  0  0  0  0  0  0  0
    0.8525    0.4711    1.2900 H   0  0  0  0  0  0  0  0  0  0  0  0
    1.3849   -1.7302   -0.7494 H   0  0  0  0  0  0  0  0  0  0  0  0
    0.2249   -1.8099    0.5407 H   0  0  0  0  0  0  0  0  0  0  0  0
    0.8086    0.1605   -2.7959 H   0  0  0  0  0  0  0  0  0  0  0  0
   -0.6948    1.0252   -2.6212 H   0  0  0  0  0  0  0  0  0  0  0  0
    1.2264    2.3799   -1.8676 H   0  0  0  0  0  0  0  0  0  0  0  0
    0.1410    2.1040   -0.5191 H   0  0  0  0  0  0  0  0  0  0  0  0
   -0.5787   -3.4180   -4.0907 H   0  0  0  0  0  0  0  0  0  0  0  0
   -2.4584   -3.6940   -5.7053 H   0  0  0  0  0  0  0  0  0  0  0  0
   -4.7202   -0.7129   -3.6166 H   0  0  0  0  0  0  0  0  0  0  0  0
   -1.0723    0.9140    1.0375 H   0  0  0  0  0  0  0  0  0  0  0  0
   -2.3053    1.6828    0.0138 H   0  0  0  0  0  0  0  0  0  0  0  0
   -2.7237    2.8032    1.9825 H   0  0  0  0  0  0  0  0  0  0  0  0
   -4.0050    4.0392    3.6732 H   0  0  0  0  0  0  0  0  0  0  0  0
   -5.7217    2.8862    5.0408 H   0  0  0  0  0  0  0  0  0  0  0  0
   -6.1574    0.4660    4.7042 H   0  0  0  0  0  0  0  0  0  0  0  0
   -4.8868   -0.8006    3.0082 H   0  0  0  0  0  0  0  0  0  0  0  0
  1  2  2  0
  2  3  1  0
  3  4  2  0
  4  5  1  0
  5  6  2  0
  6  7  1  0
  7  8  2  0
  7  9  1  0
  9 10  1  0
 10 11  1  0
  2 12  1  0
 12 13  1  0
 13 14  1  0
 14 15  1  0
 15 16  1  0
 16 17  1  0
 15 18  1  0
 18 19  1  0
 19 20  2  0
 20 21  1  0
 21 22  2  0
 22 23  1  0
 22 24  1  0
 24 25  2  0
 25 26  1  0
 26 27  2  0
 26 28  1  0
 28 29  1  0
 29 30  1  0
 30 31  1  0
 31 32  2  0
 32 33  1  0
 33 34  2  0
 34 35  1  0
 35 36  2  0
 30 37  2  0
 37 38  1  0
  8  3  1  0
 17 12  1  0
 25 19  1  0
 38 28  1  0
 11  6  1  0
 28 15  1  0
 36 31  1  0
  4 39  1  0
  5 40  1  0
  8 41  1  0
 10 42  1  0
 10 43  1  0
 13 44  1  0
 13 45  1  0
 14 46  1  0
 14 47  1  0
 16 48  1  0
 16 49  1  0
 17 50  1  0
 17 51  1  0
 20 52  1  0
 21 53  1  0
 24 54  1  0
 29 55  1  0
 29 56  1  0
 32 57  1  0
 33 58  1  0
 34 59  1  0
 35 60  1  0
 36 61  1  0
M  END
$$$$
