
     RDKit          3D

 49 53  0  0  0  0  0  0  0  0999 V2000
   -1.5900   -3.3832    1.5753 O   0  0  0  0  0  0  0  0  0  0  0  0
   -1.3283   -2.2592    1.1441 C   0  0  0  0  0  0  0  0  0  0  0  0
   -2.3677   -1.2793    0.8841 C   0  0  0  0  0  0  0  0  0  0  0  0
   -2.5510   -0.3376   -0.1143 C   0  0  0  0  0  0  0  0  0  0  0  0
   -3.7837    0.3262    0.1473 C   0  0  0  0  0  0  0  0  0  0  0  0
   -4.2865   -0.2771    1.2922 C   0  0  0  0  0  0  0  0  0  0  0  0
   -5.4893    0.0677    1.9003 C   0  0  0  0  0  0  0  0  0  0  0  0
   -6.2252    1.0953    1.3000 C   0  0  0  0  0  0  0  0  0  0  0  0
   -5.7748    1.7458    0.1390 C   0  0  0  0  0  0  0  0  0  0  0  0
   -6.5205    2.7737   -0.4577 C   0  0  0  0  0  0  0  0  0  0  0  0
   -6.0637    3.4118   -1.6143 C   0  0  0  0  0  0  0  0  0  0  0  0
   -4.8547    3.0342   -2.1954 C   0  0  0  0  0  0  0  0  0  0  0  0
   -4.0926    2.0158   -1.6235 C   0  0  0  0  0  0  0  0  0  0  0  0
   -4.5427    1.3658   -0.4566 C   0  0  0  0  0  0  0  0  0  0  0  0
   -3.4437   -1.2488    1.7306 O   0  0  0  0  0  0  0  0  0  0  0  0
   -0.0040   -1.9075    0.8671 N   0  0  0  0  0  0  0  0  0  0  0  0
    0.4963   -0.5322    0.7370 C   0  0  0  0  0  0  0  0  0  0  0  0
    1.8832   -0.3250    1.3833 C   0  0  0  0  0  0  0  0  0  0  0  0
    2.8785   -1.3259    0.9431 N   0  0  0  0  0  0  0  0  0  0  0  0
    4.0441   -0.8108    0.3638 C   0  0  0  0  0  0  0  0  0  0  0  0
    4.3188   -1.1661   -0.9175 N   0  0  0  0  0  0  0  0  0  0  0  0
    5.4369   -0.6863   -1.5123 C   0  0  0  0  0  0  0  0  0  0  0  0
    6.3467    0.1494   -0.8915 C   0  0  0  0  0  0  0  0  0  0  0  0
    7.5435    0.6498   -1.6360 C   0  0  0  0  0  0  0  0  0  0  0  0
    7.2637    1.7584   -2.3733 F   0  0  0  0  0  0  0  0  0  0  0  0
    8.0472   -0.2644   -2.5096 F   0  0  0  0  0  0  0  0  0  0  0  0
    8.5766    0.9937   -0.8191 F   0  0  0  0  0  0  0  0  0  0  0  0
    6.0771    0.5141    0.4275 C   0  0  0  0  0  0  0  0  0  0  0  0
    4.9304    0.0300    1.0652 C   0  0  0  0  0  0  0  0  0  0  0  0
    4.7156    0.4596    2.7279 Cl  0  0  0  0  0  0  0  0  0  0  0  0
    2.3344   -2.5318    0.2889 C   0  0  0  0  0  0  0  0  0  0  0  0
    1.0184   -2.9546    0.9580 C   0  0  0  0  0  0  0  0  0  0  0  0
   -1.8829   -0.1610   -0.9444 H   0  0  0  0  0  0  0  0  0  0  0  0
   -5.8343   -0.4404    2.7930 H   0  0  0  0  0  0  0  0  0  0  0  0
   -7.1713    1.3850    1.7545 H   0  0  0  0  0  0  0  0  0  0  0  0
   -7.4688    3.0873   -0.0263 H   0  0  0  0  0  0  0  0  0  0  0  0
   -6.6563    4.2054   -2.0631 H   0  0  0  0  0  0  0  0  0  0  0  0
   -4.5066    3.5332   -3.0962 H   0  0  0  0  0  0  0  0  0  0  0  0
   -3.1541    1.7340   -2.0926 H   0  0  0  0  0  0  0  0  0  0  0  0
    0.5588   -0.3209   -0.3369 H   0  0  0  0  0  0  0  0  0  0  0  0
   -0.2068    0.1746    1.1869 H   0  0  0  0  0  0  0  0  0  0  0  0
    2.2016    0.7031    1.1714 H   0  0  0  0  0  0  0  0  0  0  0  0
    1.7768   -0.4197    2.4708 H   0  0  0  0  0  0  0  0  0  0  0  0
    5.5758   -1.0139   -2.5413 H   0  0  0  0  0  0  0  0  0  0  0  0
    6.7660    1.1628    0.9657 H   0  0  0  0  0  0  0  0  0  0  0  0
    2.1365   -2.3472   -0.7754 H   0  0  0  0  0  0  0  0  0  0  0  0
    3.0567   -3.3530    0.3689 H   0  0  0  0  0  0  0  0  0  0  0  0
    1.1800   -3.1611    2.0233 H   0  0  0  0  0  0  0  0  0  0  0  0
    0.6358   -3.8703    0.4933 H   0  0  0  0  0  0  0  0  0  0  0  0
  1  2  2  0
  2  3  1  0
  3  4  2  0
  4  5  1  0
  5  6  2  0
  6  7  1  0
  7  8  2  0
  8  9  1  0
  9 10  2  0
 10 11  1  0
 11 12  2  0
 12 13  1  0
 13 14  2  0
  6 15  1  0
  2 16  1  0
 16 17  1  0
 17 18  1  0
 18 19  1  0
 19 20  1  0
 20 21  2  0
 21 22  1  0
 22 23  2  0
 23 24  1  0
 24 25  1  0
 24 26  1  0
 24 27  1  0
 23 28  1  0
 28 29  2  0
 29 30  1  0
 19 31  1  0
 31 32  1  0
 15  3  1  0
 32 16  1  0
 14  5  1  0
 29 20  1  0
 14  9  1  0
  4 33  1  0
  7 34  1  0
  8 35  1  0
 10 36  1  0
 11 37  1  0
 12 38  1  0
 13 39  1  0
 17 40  1  0
 17 41  1  0
 18 42  1  0
 18 43  1  0
 22 44  1  0
 28 45  1  0
 31 46  1  0
 31 47  1  0
 32 48  1  0
 32 49  1  0
M  END
$$$$
