
     RDKit          3D

 55 58  0  0  0  0  0  0  0  0999 V2000
    2.2839    0.4712   -1.8008 O   0  0  0  0  0  0  0  0  0  0  0  0
    1.9195   -0.6553   -1.4610 C   0  0  0  0  0  0  0  0  0  0  0  0
    0.7378   -1.3460   -2.1071 C   0  0  0  0  0  0  0  0  0  0  0  0
   -0.4438   -2.0236   -0.9129 S   0  0  0  0  0  0  0  0  0  0  0  0
   -0.8735   -0.5914   -0.0487 C   0  0  0  0  0  0  0  0  0  0  0  0
   -0.1720   -0.0699    0.9251 N   0  0  0  0  0  0  0  0  0  0  0  0
   -0.8167    1.0661    1.3339 N   0  0  0  0  0  0  0  0  0  0  0  0
   -1.9301    1.2028    0.6288 C   0  0  0  0  0  0  0  0  0  0  0  0
   -2.8362    2.3460    0.7551 C   0  0  0  0  0  0  0  0  0  0  0  0
   -4.2312    2.1883    0.7784 C   0  0  0  0  0  0  0  0  0  0  0  0
   -5.0750    3.3009    0.8704 C   0  0  0  0  0  0  0  0  0  0  0  0
   -4.5362    4.5824    0.9559 C   0  0  0  0  0  0  0  0  0  0  0  0
   -3.1545    4.7534    0.9698 C   0  0  0  0  0  0  0  0  0  0  0  0
   -2.3176    3.6426    0.8855 C   0  0  0  0  0  0  0  0  0  0  0  0
   -0.9703    3.8923    0.9319 O   0  0  0  0  0  0  0  0  0  0  0  0
   -1.9965    0.1612   -0.2785 N   0  0  0  0  0  0  0  0  0  0  0  0
   -2.9555   -0.0096   -1.3529 C   0  0  0  0  0  0  0  0  0  0  0  0
   -3.9854   -1.0938   -1.1228 C   0  0  0  0  0  0  0  0  0  0  0  0
   -4.7443   -1.5261   -2.2261 C   0  0  0  0  0  0  0  0  0  0  0  0
   -5.7266   -2.5080   -2.0846 C   0  0  0  0  0  0  0  0  0  0  0  0
   -5.9721   -3.0718   -0.8362 C   0  0  0  0  0  0  0  0  0  0  0  0
   -5.2378   -2.6487    0.2693 C   0  0  0  0  0  0  0  0  0  0  0  0
   -4.2548   -1.6648    0.1306 C   0  0  0  0  0  0  0  0  0  0  0  0
    2.6154   -1.4142   -0.5442 N   0  0  0  0  0  0  0  0  0  0  0  0
    3.6650   -0.7901    0.1495 N   0  0  0  0  0  0  0  0  0  0  0  0
    4.6582   -1.5995    0.6658 C   0  0  0  0  0  0  0  0  0  0  0  0
    4.5807   -2.8294    0.6911 O   0  0  0  0  0  0  0  0  0  0  0  0
    5.8893   -0.9302    1.1652 C   0  0  0  0  0  0  0  0  0  0  0  0
    5.9015    0.4293    1.5105 C   0  0  0  0  0  0  0  0  0  0  0  0
    7.0836    1.0350    1.9569 C   0  0  0  0  0  0  0  0  0  0  0  0
    8.2555    0.2877    2.0664 C   0  0  0  0  0  0  0  0  0  0  0  0
    8.2483   -1.0686    1.7460 C   0  0  0  0  0  0  0  0  0  0  0  0
    7.0714   -1.6742    1.3051 C   0  0  0  0  0  0  0  0  0  0  0  0
    7.1532   -3.0105    1.0213 O   0  0  0  0  0  0  0  0  0  0  0  0
    1.1137   -2.1584   -2.7386 H   0  0  0  0  0  0  0  0  0  0  0  0
    0.2200   -0.6268   -2.7541 H   0  0  0  0  0  0  0  0  0  0  0  0
   -4.6878    1.2018    0.7420 H   0  0  0  0  0  0  0  0  0  0  0  0
   -6.1560    3.1652    0.8811 H   0  0  0  0  0  0  0  0  0  0  0  0
   -5.1902    5.4479    1.0266 H   0  0  0  0  0  0  0  0  0  0  0  0
   -2.7270    5.7486    1.0577 H   0  0  0  0  0  0  0  0  0  0  0  0
   -0.5122    3.0500    1.1285 H   0  0  0  0  0  0  0  0  0  0  0  0
   -2.3792   -0.2293   -2.2601 H   0  0  0  0  0  0  0  0  0  0  0  0
   -3.4606    0.9447   -1.5316 H   0  0  0  0  0  0  0  0  0  0  0  0
   -4.5730   -1.0984   -3.2122 H   0  0  0  0  0  0  0  0  0  0  0  0
   -6.3015   -2.8350   -2.9495 H   0  0  0  0  0  0  0  0  0  0  0  0
   -6.7336   -3.8406   -0.7224 H   0  0  0  0  0  0  0  0  0  0  0  0
   -5.4270   -3.0900    1.2469 H   0  0  0  0  0  0  0  0  0  0  0  0
   -3.7074   -1.3670    1.0243 H   0  0  0  0  0  0  0  0  0  0  0  0
    2.1811   -2.2092   -0.0758 H   0  0  0  0  0  0  0  0  0  0  0  0
    3.8423    0.1737   -0.1277 H   0  0  0  0  0  0  0  0  0  0  0  0
    5.0025    1.0358    1.4613 H   0  0  0  0  0  0  0  0  0  0  0  0
    7.0888    2.0908    2.2223 H   0  0  0  0  0  0  0  0  0  0  0  0
    9.1737    0.7591    2.4053 H   0  0  0  0  0  0  0  0  0  0  0  0
    9.1580   -1.6552    1.8394 H   0  0  0  0  0  0  0  0  0  0  0  0
    6.2423   -3.3412    0.8491 H   0  0  0  0  0  0  0  0  0  0  0  0
  1  2  2  0
  2  3  1  0
  3  4  1  0
  4  5  1  0
  5  6  2  0
  6  7  1  0
  7  8  2  0
  8  9  1  0
  9 10  2  0
 10 11  1  0
 11 12  2  0
 12 13  1  0
 13 14  2  0
 14 15  1  0
  8 16  1  0
 16 17  1  0
 17 18  1  0
 18 19  2  0
 19 20  1  0
 20 21  2  0
 21 22  1  0
 22 23  2  0
  2 24  1  0
 24 25  1  0
 25 26  1  0
 26 27  2  0
 26 28  1  0
 28 29  2  0
 29 30  1  0
 30 31  2  0
 31 32  1  0
 32 33  2  0
 33 34  1  0
 16  5  1  0
 23 18  1  0
 33 28  1  0
 14  9  1  0
  3 35  1  0
  3 36  1  0
 10 37  1  0
 11 38  1  0
 12 39  1  0
 13 40  1  0
 15 41  1  0
 17 42  1  0
 17 43  1  0
 19 44  1  0
 20 45  1  0
 21 46  1  0
 22 47  1  0
 23 48  1  0
 24 49  1  0
 25 50  1  0
 29 51  1  0
 30 52  1  0
 31 53  1  0
 32 54  1  0
 34 55  1  0
M  END
$$$$
