
     RDKit          3D

 36 38  0  0  0  0  0  0  0  0999 V2000
   -5.9455    0.6081    1.1266 C   0  0  0  0  0  0  0  0  0  0  0  0
   -5.2845   -0.0693    0.0127 N   0  0  0  0  0  0  0  0  0  0  0  0
   -6.0833   -1.0829   -0.6737 C   0  0  0  0  0  0  0  0  0  0  0  0
   -3.8906   -0.1973    0.0248 C   0  0  0  0  0  0  0  0  0  0  0  0
   -3.2099   -1.0508   -0.8606 C   0  0  0  0  0  0  0  0  0  0  0  0
   -1.8108   -1.1701   -0.8652 C   0  0  0  0  0  0  0  0  0  0  0  0
   -1.0283   -0.4168    0.0082 C   0  0  0  0  0  0  0  0  0  0  0  0
    0.4315   -0.5891   -0.0045 C   0  0  0  0  0  0  0  0  0  0  0  0
    1.2937    0.4311    0.1375 C   0  0  0  0  0  0  0  0  0  0  0  0
    2.7183    0.3193    0.1277 C   0  0  0  0  0  0  0  0  0  0  0  0
    3.5221    1.3553    0.2792 N   0  0  0  0  0  0  0  0  0  0  0  0
    4.8507    0.9721    0.2303 C   0  0  0  0  0  0  0  0  0  0  0  0
    5.9639    1.8279    0.3564 C   0  0  0  0  0  0  0  0  0  0  0  0
    7.2578    1.3012    0.2872 C   0  0  0  0  0  0  0  0  0  0  0  0
    7.4529   -0.0628    0.0947 C   0  0  0  0  0  0  0  0  0  0  0  0
    6.3643   -0.9313   -0.0331 C   0  0  0  0  0  0  0  0  0  0  0  0
    5.0698   -0.3895    0.0381 C   0  0  0  0  0  0  0  0  0  0  0  0
    3.5526   -1.1835   -0.0811 S   0  0  0  0  0  0  0  0  0  0  0  0
   -1.6766    0.4383    0.8979 C   0  0  0  0  0  0  0  0  0  0  0  0
   -3.0768    0.5491    0.8945 C   0  0  0  0  0  0  0  0  0  0  0  0
   -5.6254    1.6529    1.2020 H   0  0  0  0  0  0  0  0  0  0  0  0
   -5.7494    0.0927    2.0733 H   0  0  0  0  0  0  0  0  0  0  0  0
   -7.0319    0.6378    0.9855 H   0  0  0  0  0  0  0  0  0  0  0  0
   -5.9127   -2.0763   -0.2442 H   0  0  0  0  0  0  0  0  0  0  0  0
   -7.1548   -0.8679   -0.5921 H   0  0  0  0  0  0  0  0  0  0  0  0
   -5.8630   -1.1020   -1.7464 H   0  0  0  0  0  0  0  0  0  0  0  0
   -3.7515   -1.6524   -1.5840 H   0  0  0  0  0  0  0  0  0  0  0  0
   -1.3474   -1.8521   -1.5745 H   0  0  0  0  0  0  0  0  0  0  0  0
    0.7654   -1.6114   -0.1587 H   0  0  0  0  0  0  0  0  0  0  0  0
    0.9205    1.4444    0.2619 H   0  0  0  0  0  0  0  0  0  0  0  0
    5.8055    2.8912    0.5062 H   0  0  0  0  0  0  0  0  0  0  0  0
    8.1138    1.9648    0.3848 H   0  0  0  0  0  0  0  0  0  0  0  0
    8.4644   -0.4605    0.0426 H   0  0  0  0  0  0  0  0  0  0  0  0
    6.5171   -1.9956   -0.1833 H   0  0  0  0  0  0  0  0  0  0  0  0
   -1.1118    1.0296    1.6145 H   0  0  0  0  0  0  0  0  0  0  0  0
   -3.5101    1.2458    1.6055 H   0  0  0  0  0  0  0  0  0  0  0  0
  1  2  1  0
  2  3  1  0
  2  4  1  0
  4  5  2  0
  5  6  1  0
  6  7  2  0
  7  8  1  0
  8  9  2  3
  9 10  1  0
 10 11  2  0
 11 12  1  0
 12 13  2  0
 13 14  1  0
 14 15  2  0
 15 16  1  0
 16 17  2  0
 17 18  1  0
  7 19  1  0
 19 20  2  0
 20  4  1  0
 18 10  1  0
 17 12  1  0
  1 21  1  0
  1 22  1  0
  1 23  1  0
  3 24  1  0
  3 25  1  0
  3 26  1  0
  5 27  1  0
  6 28  1  0
  8 29  1  0
  9 30  1  0
 13 31  1  0
 14 32  1  0
 15 33  1  0
 16 34  1  0
 19 35  1  0
 20 36  1  0
M  END
$$$$
