
     RDKit          3D

 53 57  0  0  0  0  0  0  0  0999 V2000
    6.0794    2.2000    1.9045 C   0  0  0  0  0  0  0  0  0  0  0  0
    5.7968    0.8096    1.8068 O   0  0  0  0  0  0  0  0  0  0  0  0
    4.7900    0.4441    0.9566 C   0  0  0  0  0  0  0  0  0  0  0  0
    4.0068    1.3066    0.1916 C   0  0  0  0  0  0  0  0  0  0  0  0
    3.0019    0.7965   -0.6389 C   0  0  0  0  0  0  0  0  0  0  0  0
    2.7591   -0.5825   -0.7119 C   0  0  0  0  0  0  0  0  0  0  0  0
    1.6713   -1.1336   -1.6108 C   0  0  0  0  0  0  0  0  0  0  0  0
    0.3278   -0.6787   -1.2270 N   0  0  0  0  0  0  0  0  0  0  0  0
   -0.4178   -1.2619   -0.2258 C   0  0  0  0  0  0  0  0  0  0  0  0
    0.1231   -2.4327    0.4944 C   0  0  0  0  0  0  0  0  0  0  0  0
    0.0110   -3.7074   -0.0677 C   0  0  0  0  0  0  0  0  0  0  0  0
    0.5047   -4.8084    0.6317 C   0  0  0  0  0  0  0  0  0  0  0  0
    1.0892   -4.6328    1.8882 C   0  0  0  0  0  0  0  0  0  0  0  0
    1.1741   -3.3591    2.4549 C   0  0  0  0  0  0  0  0  0  0  0  0
    0.6821   -2.2537    1.7619 C   0  0  0  0  0  0  0  0  0  0  0  0
   -1.5862   -0.8460    0.1311 N   0  0  0  0  0  0  0  0  0  0  0  0
   -2.1609    0.2492   -0.4746 C   0  0  0  0  0  0  0  0  0  0  0  0
   -1.5232    0.8922   -1.4760 C   0  0  0  0  0  0  0  0  0  0  0  0
   -2.1506    2.0867   -2.0937 C   0  0  0  0  0  0  0  0  0  0  0  0
   -1.5797    2.7926   -2.9191 O   0  0  0  0  0  0  0  0  0  0  0  0
   -3.5230    2.4399   -1.6858 C   0  0  0  0  0  0  0  0  0  0  0  0
   -4.1805    3.4950   -2.3411 C   0  0  0  0  0  0  0  0  0  0  0  0
   -5.4744    3.8461   -1.9734 C   0  0  0  0  0  0  0  0  0  0  0  0
   -6.1064    3.1445   -0.9546 C   0  0  0  0  0  0  0  0  0  0  0  0
   -5.4435    2.0960   -0.3033 C   0  0  0  0  0  0  0  0  0  0  0  0
   -4.1326    1.7192   -0.6507 C   0  0  0  0  0  0  0  0  0  0  0  0
   -3.4249    0.6743   -0.0169 N   0  0  0  0  0  0  0  0  0  0  0  0
   -4.0944   -0.0133    1.0932 C   0  0  0  0  0  0  0  0  0  0  0  0
   -0.2029    0.3892   -1.9291 C   0  0  0  0  0  0  0  0  0  0  0  0
    0.3811    0.8914   -2.8877 O   0  0  0  0  0  0  0  0  0  0  0  0
    3.5626   -1.4430    0.0467 C   0  0  0  0  0  0  0  0  0  0  0  0
    4.5630   -0.9308    0.8767 C   0  0  0  0  0  0  0  0  0  0  0  0
    5.2188    2.7510    2.2978 H   0  0  0  0  0  0  0  0  0  0  0  0
    6.9051    2.3241    2.6118 H   0  0  0  0  0  0  0  0  0  0  0  0
    6.4032    2.6062    0.9405 H   0  0  0  0  0  0  0  0  0  0  0  0
    4.1504    2.3818    0.2109 H   0  0  0  0  0  0  0  0  0  0  0  0
    2.4150    1.4918   -1.2377 H   0  0  0  0  0  0  0  0  0  0  0  0
    1.6968   -2.2277   -1.6069 H   0  0  0  0  0  0  0  0  0  0  0  0
    1.9020   -0.8438   -2.6429 H   0  0  0  0  0  0  0  0  0  0  0  0
   -0.4618   -3.8446   -1.0363 H   0  0  0  0  0  0  0  0  0  0  0  0
    0.4264   -5.8052    0.2044 H   0  0  0  0  0  0  0  0  0  0  0  0
    1.4702   -5.4934    2.4336 H   0  0  0  0  0  0  0  0  0  0  0  0
    1.6205   -3.2287    3.4377 H   0  0  0  0  0  0  0  0  0  0  0  0
    0.7419   -1.2616    2.2025 H   0  0  0  0  0  0  0  0  0  0  0  0
   -3.6810    4.0410   -3.1393 H   0  0  0  0  0  0  0  0  0  0  0  0
   -5.9846    4.6610   -2.4801 H   0  0  0  0  0  0  0  0  0  0  0  0
   -7.1195    3.4095   -0.6610 H   0  0  0  0  0  0  0  0  0  0  0  0
   -5.9912    1.5824    0.4815 H   0  0  0  0  0  0  0  0  0  0  0  0
   -4.4100    0.7008    1.8629 H   0  0  0  0  0  0  0  0  0  0  0  0
   -4.9663   -0.5704    0.7317 H   0  0  0  0  0  0  0  0  0  0  0  0
   -3.4481   -0.7321    1.6077 H   0  0  0  0  0  0  0  0  0  0  0  0
    3.4153   -2.5203    0.0077 H   0  0  0  0  0  0  0  0  0  0  0  0
    5.1735   -1.6110    1.4657 H   0  0  0  0  0  0  0  0  0  0  0  0
  1  2  1  0
  2  3  1  0
  3  4  2  0
  4  5  1  0
  5  6  2  0
  6  7  1  0
  7  8  1  0
  8  9  1  0
  9 10  1  0
 10 11  2  0
 11 12  1  0
 12 13  2  0
 13 14  1  0
 14 15  2  0
  9 16  2  0
 16 17  1  0
 17 18  2  0
 18 19  1  0
 19 20  2  0
 19 21  1  0
 21 22  2  0
 22 23  1  0
 23 24  2  0
 24 25  1  0
 25 26  2  0
 26 27  1  0
 27 28  1  0
 18 29  1  0
 29 30  2  0
  6 31  1  0
 31 32  2  0
 32  3  1  0
 29  8  1  0
 15 10  1  0
 27 17  1  0
 26 21  1  0
  1 33  1  0
  1 34  1  0
  1 35  1  0
  4 36  1  0
  5 37  1  0
  7 38  1  0
  7 39  1  0
 11 40  1  0
 12 41  1  0
 13 42  1  0
 14 43  1  0
 15 44  1  0
 22 45  1  0
 23 46  1  0
 24 47  1  0
 25 48  1  0
 28 49  1  0
 28 50  1  0
 28 51  1  0
 31 52  1  0
 32 53  1  0
M  END
$$$$
