
     RDKit          3D

 59 62  0  0  0  0  0  0  0  0999 V2000
    8.3484    1.5256    1.9748 C   0  0  0  0  0  0  0  0  0  0  0  0
    7.8402    0.2035    2.1032 O   0  0  0  0  0  0  0  0  0  0  0  0
    6.5691   -0.0171    1.6478 C   0  0  0  0  0  0  0  0  0  0  0  0
    6.0690   -1.2943    1.9205 C   0  0  0  0  0  0  0  0  0  0  0  0
    4.7840   -1.6631    1.5130 C   0  0  0  0  0  0  0  0  0  0  0  0
    3.9895   -0.7520    0.8182 C   0  0  0  0  0  0  0  0  0  0  0  0
    2.6402   -1.0947    0.3723 C   0  0  0  0  0  0  0  0  0  0  0  0
    1.8807   -0.2056   -0.2956 C   0  0  0  0  0  0  0  0  0  0  0  0
    0.4838   -0.4701   -0.7805 C   0  0  0  0  0  0  0  0  0  0  0  0
   -0.2942   -1.2546    0.2093 N   0  0  0  0  0  0  0  0  0  0  0  0
   -0.9952   -2.4430   -0.3409 C   0  0  0  0  0  0  0  0  0  0  0  0
   -2.2442   -2.1204   -1.1623 C   0  0  0  0  0  0  0  0  0  0  0  0
   -2.9071   -3.3643   -1.7356 C   0  0  0  0  0  0  0  0  0  0  0  0
   -3.6852   -2.7853   -2.8912 C   0  0  0  0  0  0  0  0  0  0  0  0
   -2.7404   -1.7209   -3.4107 C   0  0  0  0  0  0  0  0  0  0  0  0
   -1.9350   -1.2935   -2.3003 O   0  0  0  0  0  0  0  0  0  0  0  0
   -0.9063   -0.4735    1.5785 S   0  0  0  0  0  6  0  0  0  0  0  0
    0.1356    0.3506    2.1522 O   0  0  0  0  0  0  0  0  0  0  0  0
   -1.5736   -1.4781    2.3840 O   0  0  0  0  0  0  0  0  0  0  0  0
   -2.1672    0.6472    0.9966 C   0  0  0  0  0  0  0  0  0  0  0  0
   -1.8005    1.8849    0.4623 C   0  0  0  0  0  0  0  0  0  0  0  0
   -2.7894    2.7861    0.0581 C   0  0  0  0  0  0  0  0  0  0  0  0
   -4.1468    2.4726    0.2158 C   0  0  0  0  0  0  0  0  0  0  0  0
   -5.1637    3.4726   -0.2294 C   0  0  0  0  0  0  0  0  0  0  0  0
   -6.6206    3.2038    0.0426 C   0  0  0  0  0  0  0  0  0  0  0  0
   -4.8058    4.4929   -0.8136 O   0  0  0  0  0  0  0  0  0  0  0  0
   -4.5066    1.2476    0.7928 C   0  0  0  0  0  0  0  0  0  0  0  0
   -3.5184    0.3420    1.1946 C   0  0  0  0  0  0  0  0  0  0  0  0
    2.4233    1.1546   -0.5932 C   0  0  0  0  0  0  0  0  0  0  0  0
    1.7657    1.9926   -1.2047 O   0  0  0  0  0  0  0  0  0  0  0  0
    3.6935    1.4336   -0.1636 N   0  0  0  0  0  0  0  0  0  0  0  0
    4.4929    0.5245    0.5420 C   0  0  0  0  0  0  0  0  0  0  0  0
    5.7751    0.8984    0.9540 C   0  0  0  0  0  0  0  0  0  0  0  0
    8.4368    1.8174    0.9224 H   0  0  0  0  0  0  0  0  0  0  0  0
    7.7318    2.2389    2.5327 H   0  0  0  0  0  0  0  0  0  0  0  0
    9.3526    1.5421    2.4102 H   0  0  0  0  0  0  0  0  0  0  0  0
    6.6861   -2.0087    2.4626 H   0  0  0  0  0  0  0  0  0  0  0  0
    4.4173   -2.6591    1.7484 H   0  0  0  0  0  0  0  0  0  0  0  0
    2.2622   -2.0842    0.6092 H   0  0  0  0  0  0  0  0  0  0  0  0
    0.5752   -1.0243   -1.7231 H   0  0  0  0  0  0  0  0  0  0  0  0
   -0.0630    0.4394   -1.0335 H   0  0  0  0  0  0  0  0  0  0  0  0
   -1.2481   -3.1251    0.4785 H   0  0  0  0  0  0  0  0  0  0  0  0
   -0.2743   -2.9898   -0.9632 H   0  0  0  0  0  0  0  0  0  0  0  0
   -2.9746   -1.5767   -0.5601 H   0  0  0  0  0  0  0  0  0  0  0  0
   -2.1581   -4.0713   -2.1145 H   0  0  0  0  0  0  0  0  0  0  0  0
   -3.5348   -3.8843   -1.0067 H   0  0  0  0  0  0  0  0  0  0  0  0
   -4.6065   -2.3182   -2.5215 H   0  0  0  0  0  0  0  0  0  0  0  0
   -3.9587   -3.5211   -3.6518 H   0  0  0  0  0  0  0  0  0  0  0  0
   -3.2715   -0.8610   -3.8299 H   0  0  0  0  0  0  0  0  0  0  0  0
   -2.0691   -2.1239   -4.1772 H   0  0  0  0  0  0  0  0  0  0  0  0
   -0.7532    2.1647    0.3624 H   0  0  0  0  0  0  0  0  0  0  0  0
   -2.4917    3.7419   -0.3717 H   0  0  0  0  0  0  0  0  0  0  0  0
   -6.7866    3.0496    1.1121 H   0  0  0  0  0  0  0  0  0  0  0  0
   -6.9583    2.3395   -0.5350 H   0  0  0  0  0  0  0  0  0  0  0  0
   -7.2112    4.0737   -0.2638 H   0  0  0  0  0  0  0  0  0  0  0  0
   -5.5465    0.9749    0.9481 H   0  0  0  0  0  0  0  0  0  0  0  0
   -3.8119   -0.5950    1.6644 H   0  0  0  0  0  0  0  0  0  0  0  0
    4.0324    2.3636   -0.3687 H   0  0  0  0  0  0  0  0  0  0  0  0
    6.1329    1.8944    0.7217 H   0  0  0  0  0  0  0  0  0  0  0  0
  1  2  1  0
  2  3  1  0
  3  4  2  0
  4  5  1  0
  5  6  2  0
  6  7  1  0
  7  8  2  0
  8  9  1  0
  9 10  1  0
 10 11  1  0
 11 12  1  0
 12 13  1  0
 13 14  1  0
 14 15  1  0
 15 16  1  0
 10 17  1  0
 17 18  2  0
 17 19  2  0
 17 20  1  0
 20 21  2  0
 21 22  1  0
 22 23  2  0
 23 24  1  0
 24 25  1  0
 24 26  2  0
 23 27  1  0
 27 28  2  0
  8 29  1  0
 29 30  2  0
 29 31  1  0
 31 32  1  0
 32 33  2  0
 33  3  1  0
 32  6  1  0
 16 12  1  0
 28 20  1  0
  1 34  1  0
  1 35  1  0
  1 36  1  0
  4 37  1  0
  5 38  1  0
  7 39  1  0
  9 40  1  0
  9 41  1  0
 11 42  1  0
 11 43  1  0
 12 44  1  0
 13 45  1  0
 13 46  1  0
 14 47  1  0
 14 48  1  0
 15 49  1  0
 15 50  1  0
 21 51  1  0
 22 52  1  0
 25 53  1  0
 25 54  1  0
 25 55  1  0
 27 56  1  0
 28 57  1  0
 31 58  1  0
 33 59  1  0
M  END
$$$$
