
     RDKit          3D

 57 59  0  0  0  0  0  0  0  0999 V2000
   -1.8012   -3.1346   -2.0935 C   0  0  0  0  0  0  0  0  0  0  0  0
   -3.0450   -2.2642   -1.9463 C   0  0  0  0  0  0  0  0  0  0  0  0
   -2.8697   -0.9813   -1.2399 N   0  0  0  0  0  0  0  0  0  0  0  0
   -2.3688   -1.1225    0.1372 C   0  0  0  0  0  0  0  0  0  0  0  0
   -3.2135   -2.0307    1.0250 C   0  0  0  0  0  0  0  0  0  0  0  0
   -2.0453   -0.0395   -2.0394 C   0  0  0  0  0  0  0  0  0  0  0  0
   -2.0686    1.4189   -1.5462 C   0  0  0  0  0  0  0  0  0  0  0  0
   -1.0852    1.5822   -0.5204 O   0  0  0  0  0  0  0  0  0  0  0  0
   -1.1270    2.7180    0.2418 C   0  0  0  0  0  0  0  0  0  0  0  0
   -1.7907    3.8588   -0.0517 C   0  0  0  0  0  0  0  0  0  0  0  0
   -1.8044    4.9606    0.9730 C   0  0  2  0  0  0  0  0  0  0  0  0
   -2.0292    6.2586    0.4451 O   0  0  0  0  0  0  0  0  0  0  0  0
   -1.6359    7.1465    1.4262 C   0  0  0  0  0  0  0  0  0  0  0  0
   -1.8281    8.3475    1.3595 O   0  0  0  0  0  0  0  0  0  0  0  0
   -0.7370    6.4017    2.7687 S   0  0  0  0  0  0  0  0  0  0  0  0
   -0.4524    5.0106    1.6893 C   0  0  1  0  0  0  0  0  0  0  0  0
   -0.1043    3.6858    2.2655 C   0  0  0  0  0  0  0  0  0  0  0  0
   -0.4072    2.5970    1.5307 C   0  0  0  0  0  0  0  0  0  0  0  0
    0.0214    1.2751    2.0668 C   0  0  0  0  0  0  0  0  0  0  0  0
   -0.4522    0.8142    3.0984 O   0  0  0  0  0  0  0  0  0  0  0  0
    1.0777    0.5874    1.2821 C   0  0  0  0  0  0  0  0  0  0  0  0
    1.5069   -0.6319    1.6425 C   0  0  0  0  0  0  0  0  0  0  0  0
    2.5650   -1.3425    0.9184 C   0  0  0  0  0  0  0  0  0  0  0  0
    2.4218   -2.7078    0.6482 C   0  0  0  0  0  0  0  0  0  0  0  0
    3.4323   -3.4161   -0.0161 C   0  0  0  0  0  0  0  0  0  0  0  0
    4.6034   -2.7670   -0.4047 C   0  0  0  0  0  0  0  0  0  0  0  0
    5.6653   -3.3382   -1.0542 O   0  0  0  0  0  0  0  0  0  0  0  0
    5.6057   -4.7409   -1.2834 C   0  0  0  0  0  0  0  0  0  0  0  0
    4.7525   -1.4075   -0.1289 C   0  0  0  0  0  0  0  0  0  0  0  0
    3.7460   -0.7000    0.5354 C   0  0  0  0  0  0  0  0  0  0  0  0
   -2.0546   -4.0493   -2.6456 H   0  0  0  0  0  0  0  0  0  0  0  0
   -1.0096   -2.6230   -2.6536 H   0  0  0  0  0  0  0  0  0  0  0  0
   -1.3997   -3.4394   -1.1252 H   0  0  0  0  0  0  0  0  0  0  0  0
   -3.8285   -2.8434   -1.4531 H   0  0  0  0  0  0  0  0  0  0  0  0
   -3.4508   -2.0718   -2.9461 H   0  0  0  0  0  0  0  0  0  0  0  0
   -2.3841   -0.1410    0.6223 H   0  0  0  0  0  0  0  0  0  0  0  0
   -1.3290   -1.4677    0.1468 H   0  0  0  0  0  0  0  0  0  0  0  0
   -3.1703   -3.0731    0.7126 H   0  0  0  0  0  0  0  0  0  0  0  0
   -4.2617   -1.7161    1.0258 H   0  0  0  0  0  0  0  0  0  0  0  0
   -2.8507   -1.9827    2.0561 H   0  0  0  0  0  0  0  0  0  0  0  0
   -1.0107   -0.3907   -2.0948 H   0  0  0  0  0  0  0  0  0  0  0  0
   -2.4464   -0.0230   -3.0623 H   0  0  0  0  0  0  0  0  0  0  0  0
   -3.0701    1.6769   -1.1847 H   0  0  0  0  0  0  0  0  0  0  0  0
   -1.8057    2.0804   -2.3846 H   0  0  0  0  0  0  0  0  0  0  0  0
   -2.3721    3.9905   -0.9574 H   0  0  0  0  0  0  0  0  0  0  0  0
   -2.6461    4.7320    1.6461 H   0  0  0  0  0  0  0  0  0  0  0  0
    0.3539    5.3122    1.0052 H   0  0  0  0  0  0  0  0  0  0  0  0
    0.4429    3.6106    3.2066 H   0  0  0  0  0  0  0  0  0  0  0  0
    1.4770    1.1084    0.4218 H   0  0  0  0  0  0  0  0  0  0  0  0
    1.0702   -1.1509    2.4921 H   0  0  0  0  0  0  0  0  0  0  0  0
    1.5178   -3.2371    0.9468 H   0  0  0  0  0  0  0  0  0  0  0  0
    3.2734   -4.4707   -0.2114 H   0  0  0  0  0  0  0  0  0  0  0  0
    4.7915   -4.9936   -1.9732 H   0  0  0  0  0  0  0  0  0  0  0  0
    6.5463   -5.0402   -1.7562 H   0  0  0  0  0  0  0  0  0  0  0  0
    5.5133   -5.2927   -0.3426 H   0  0  0  0  0  0  0  0  0  0  0  0
    5.6655   -0.8944   -0.4223 H   0  0  0  0  0  0  0  0  0  0  0  0
    3.9060    0.3514    0.7576 H   0  0  0  0  0  0  0  0  0  0  0  0
  1  2  1  0
  2  3  1  0
  3  4  1  0
  4  5  1  0
  3  6  1  0
  6  7  1  0
  7  8  1  0
  8  9  1  0
  9 10  2  0
 10 11  1  0
 11 12  1  0
 12 13  1  0
 13 14  2  0
 13 15  1  0
 15 16  1  0
 16 17  1  0
 17 18  2  0
 18 19  1  0
 19 20  2  0
 19 21  1  0
 21 22  2  0
 22 23  1  0
 23 24  2  0
 24 25  1  0
 25 26  2  0
 26 27  1  0
 27 28  1  0
 26 29  1  0
 29 30  2  0
 18  9  1  0
 30 23  1  0
 16 11  1  0
  1 31  1  0
  1 32  1  0
  1 33  1  0
  2 34  1  0
  2 35  1  0
  4 36  1  0
  4 37  1  0
  5 38  1  0
  5 39  1  0
  5 40  1  0
  6 41  1  0
  6 42  1  0
  7 43  1  0
  7 44  1  0
 10 45  1  0
 11 46  1  1
 16 47  1  6
 17 48  1  0
 21 49  1  0
 22 50  1  0
 24 51  1  0
 25 52  1  0
 28 53  1  0
 28 54  1  0
 28 55  1  0
 29 56  1  0
 30 57  1  0
M  END
$$$$
