
     RDKit          3D

 42 46  0  0  0  0  0  0  0  0999 V2000
    4.9903    2.3154    0.2104 C   0  0  0  0  0  0  0  0  0  0  0  0
    5.1148    1.3157   -0.7523 C   0  0  0  0  0  0  0  0  0  0  0  0
    4.0664    0.4132   -0.9853 C   0  0  0  0  0  0  0  0  0  0  0  0
    4.1816   -0.5928   -1.9505 C   0  0  0  0  0  0  0  0  0  0  0  0
    3.1328   -1.4850   -2.1752 C   0  0  0  0  0  0  0  0  0  0  0  0
    1.9434   -1.3943   -1.4402 C   0  0  0  0  0  0  0  0  0  0  0  0
    0.8966   -2.2909   -1.6695 C   0  0  0  0  0  0  0  0  0  0  0  0
   -0.2838   -2.2022   -0.9365 C   0  0  0  0  0  0  0  0  0  0  0  0
   -0.4522   -1.2123    0.0473 C   0  0  0  0  0  0  0  0  0  0  0  0
   -1.7674   -1.1893    0.8125 C   0  0  0  0  0  0  0  0  0  0  0  0
   -2.6120   -0.0222    0.5154 N   0  0  0  0  0  0  0  0  0  0  0  0
   -3.8013    0.0325    1.3909 C   0  0  0  0  0  0  0  0  0  0  0  0
   -5.0850   -0.4701    0.7124 C   0  0  0  0  0  0  0  0  0  0  0  0
   -5.4276    0.2697   -0.4669 O   0  0  0  0  0  0  0  0  0  0  0  0
   -4.2879    0.8512   -1.1172 C   0  0  0  0  0  0  0  0  0  0  0  0
   -3.0078    0.0285   -0.9098 C   0  0  0  0  0  0  0  0  0  0  0  0
    0.5982   -0.2848    0.2948 C   0  0  0  0  0  0  0  0  0  0  0  0
    0.5156    0.7443    1.2557 C   0  0  0  0  0  0  0  0  0  0  0  0
    1.5686    1.6362    1.4756 C   0  0  0  0  0  0  0  0  0  0  0  0
    2.7515    1.5358    0.7404 C   0  0  0  0  0  0  0  0  0  0  0  0
    3.8158    2.4250    0.9520 C   0  0  0  0  0  0  0  0  0  0  0  0
    2.8712    0.5198   -0.2337 C   0  0  0  0  0  0  0  0  0  0  0  0
    1.7990   -0.3865   -0.4567 C   0  0  0  0  0  0  0  0  0  0  0  0
    5.8085    3.0097    0.3824 H   0  0  0  0  0  0  0  0  0  0  0  0
    6.0389    1.2462   -1.3217 H   0  0  0  0  0  0  0  0  0  0  0  0
    5.0909   -0.6920   -2.5390 H   0  0  0  0  0  0  0  0  0  0  0  0
    3.2552   -2.2552   -2.9336 H   0  0  0  0  0  0  0  0  0  0  0  0
    0.9906   -3.0701   -2.4226 H   0  0  0  0  0  0  0  0  0  0  0  0
   -1.0795   -2.9158   -1.1401 H   0  0  0  0  0  0  0  0  0  0  0  0
   -2.3266   -2.1171    0.6295 H   0  0  0  0  0  0  0  0  0  0  0  0
   -1.5159   -1.2107    1.8814 H   0  0  0  0  0  0  0  0  0  0  0  0
   -3.9467    1.0858    1.6623 H   0  0  0  0  0  0  0  0  0  0  0  0
   -3.6383   -0.5046    2.3327 H   0  0  0  0  0  0  0  0  0  0  0  0
   -4.9889   -1.5266    0.4360 H   0  0  0  0  0  0  0  0  0  0  0  0
   -5.9303   -0.3915    1.4036 H   0  0  0  0  0  0  0  0  0  0  0  0
   -4.1626    1.8745   -0.7443 H   0  0  0  0  0  0  0  0  0  0  0  0
   -4.5219    0.9209   -2.1844 H   0  0  0  0  0  0  0  0  0  0  0  0
   -2.1963    0.4712   -1.4975 H   0  0  0  0  0  0  0  0  0  0  0  0
   -3.1947   -0.9837   -1.2919 H   0  0  0  0  0  0  0  0  0  0  0  0
   -0.3868    0.8768    1.8482 H   0  0  0  0  0  0  0  0  0  0  0  0
    1.4479    2.4130    2.2271 H   0  0  0  0  0  0  0  0  0  0  0  0
    3.7358    3.2121    1.6984 H   0  0  0  0  0  0  0  0  0  0  0  0
  1  2  2  0
  2  3  1  0
  3  4  2  0
  4  5  1  0
  5  6  2  0
  6  7  1  0
  7  8  2  0
  8  9  1  0
  9 10  1  0
 10 11  1  0
 11 12  1  0
 12 13  1  0
 13 14  1  0
 14 15  1  0
 15 16  1  0
  9 17  2  0
 17 18  1  0
 18 19  2  0
 19 20  1  0
 20 21  2  0
 20 22  1  0
 22 23  2  0
 21  1  1  0
 22  3  1  0
 23  6  1  0
 16 11  1  0
 23 17  1  0
  1 24  1  0
  2 25  1  0
  4 26  1  0
  5 27  1  0
  7 28  1  0
  8 29  1  0
 10 30  1  0
 10 31  1  0
 12 32  1  0
 12 33  1  0
 13 34  1  0
 13 35  1  0
 15 36  1  0
 15 37  1  0
 16 38  1  0
 16 39  1  0
 18 40  1  0
 19 41  1  0
 21 42  1  0
M  END
$$$$
