
     RDKit          3D

 60 66  0  0  0  0  0  0  0  0999 V2000
   -0.0834    2.2309    3.7661 O   0  0  0  0  0  0  0  0  0  0  0  0
   -0.1533    2.5204    2.5808 C   0  0  0  0  0  0  0  0  0  0  0  0
   -0.3631    3.8158    2.0955 N   0  0  0  0  0  0  0  0  0  0  0  0
   -0.4090    3.8378    0.7087 C   0  0  0  0  0  0  0  0  0  0  0  0
   -0.6035    4.9406   -0.0958 C   0  0  0  0  0  0  0  0  0  0  0  0
   -0.6287    4.7313   -1.4766 C   0  0  0  0  0  0  0  0  0  0  0  0
   -0.4614    3.4416   -2.0132 C   0  0  0  0  0  0  0  0  0  0  0  0
   -0.2627    2.3380   -1.1784 C   0  0  0  0  0  0  0  0  0  0  0  0
   -0.2388    2.5496    0.1923 C   0  0  0  0  0  0  0  0  0  0  0  0
   -0.0481    1.5926    1.3344 C   0  0  0  0  0  0  0  0  0  0  0  0
    1.2420    0.8377    1.3164 N   0  0  0  0  0  0  0  0  0  0  0  0
    0.9661   -0.6050    1.6697 C   0  0  2  0  0  0  0  0  0  0  0  0
    1.7453   -1.6012    0.7893 C   0  0  0  0  0  0  0  0  0  0  0  0
    3.2338   -1.4540    0.8775 C   0  0  0  0  0  0  0  0  0  0  0  0
    4.0352   -1.8528    1.9300 C   0  0  0  0  0  0  0  0  0  0  0  0
    5.3307   -1.5270    1.6316 N   0  0  0  0  0  0  0  0  0  0  0  0
    5.4003   -0.9354    0.3925 C   0  0  0  0  0  0  0  0  0  0  0  0
    6.5079   -0.4497   -0.3129 C   0  0  0  0  0  0  0  0  0  0  0  0
    6.2793    0.1117   -1.5723 C   0  0  0  0  0  0  0  0  0  0  0  0
    4.9939    0.1825   -2.1027 C   0  0  0  0  0  0  0  0  0  0  0  0
    3.8975   -0.3076   -1.3834 C   0  0  0  0  0  0  0  0  0  0  0  0
    4.0997   -0.8778   -0.1088 C   0  0  0  0  0  0  0  0  0  0  0  0
   -0.5028   -0.7099    1.4851 C   0  0  0  0  0  0  0  0  0  0  0  0
   -1.0803    0.5485    1.2774 C   0  0  0  0  0  0  0  0  0  0  0  0
   -2.4300    0.3875    1.1001 C   0  0  0  0  0  0  0  0  0  0  0  0
   -3.4100    1.2529    0.8707 O   0  0  0  0  0  0  0  0  0  0  0  0
   -2.6745   -0.9739    1.1924 N   0  0  0  0  0  0  0  0  0  0  0  0
   -3.9868   -1.5950    1.0681 C   0  0  0  0  0  0  0  0  0  0  0  0
   -4.2843   -1.9875   -0.3593 C   0  0  0  0  0  0  0  0  0  0  0  0
   -4.9139   -1.0866   -1.2305 C   0  0  0  0  0  0  0  0  0  0  0  0
   -5.1809   -1.4468   -2.5523 C   0  0  0  0  0  0  0  0  0  0  0  0
   -4.8174   -2.7087   -3.0187 C   0  0  0  0  0  0  0  0  0  0  0  0
   -4.1829   -3.6097   -2.1657 C   0  0  0  0  0  0  0  0  0  0  0  0
   -3.9152   -3.2508   -0.8436 C   0  0  0  0  0  0  0  0  0  0  0  0
   -1.4975   -1.6522    1.4722 C   0  0  0  0  0  0  0  0  0  0  0  0
   -1.4876   -2.9650    1.6646 O   0  0  0  0  0  0  0  0  0  0  0  0
   -0.4498    4.6129    2.7074 H   0  0  0  0  0  0  0  0  0  0  0  0
   -0.7320    5.9344    0.3176 H   0  0  0  0  0  0  0  0  0  0  0  0
   -0.7793    5.5744   -2.1477 H   0  0  0  0  0  0  0  0  0  0  0  0
   -0.4884    3.3022   -3.0922 H   0  0  0  0  0  0  0  0  0  0  0  0
   -0.1439    1.3425   -1.5963 H   0  0  0  0  0  0  0  0  0  0  0  0
    1.6023    0.8579    0.3657 H   0  0  0  0  0  0  0  0  0  0  0  0
    1.2181   -0.7468    2.7277 H   0  0  0  0  0  0  0  0  0  0  0  0
    1.4843   -2.6268    1.0823 H   0  0  0  0  0  0  0  0  0  0  0  0
    1.4263   -1.5070   -0.2574 H   0  0  0  0  0  0  0  0  0  0  0  0
    3.7928   -2.3271    2.8717 H   0  0  0  0  0  0  0  0  0  0  0  0
    6.1264   -1.6921    2.2319 H   0  0  0  0  0  0  0  0  0  0  0  0
    7.5106   -0.5028    0.0981 H   0  0  0  0  0  0  0  0  0  0  0  0
    7.1189    0.4984   -2.1453 H   0  0  0  0  0  0  0  0  0  0  0  0
    4.8385    0.6219   -3.0848 H   0  0  0  0  0  0  0  0  0  0  0  0
    2.9020   -0.2485   -1.8118 H   0  0  0  0  0  0  0  0  0  0  0  0
   -3.0084    2.1361    0.7839 H   0  0  0  0  0  0  0  0  0  0  0  0
   -4.7386   -0.8929    1.4471 H   0  0  0  0  0  0  0  0  0  0  0  0
   -4.0206   -2.4681    1.7302 H   0  0  0  0  0  0  0  0  0  0  0  0
   -5.1930   -0.0943   -0.8812 H   0  0  0  0  0  0  0  0  0  0  0  0
   -5.6695   -0.7405   -3.2179 H   0  0  0  0  0  0  0  0  0  0  0  0
   -5.0243   -2.9882   -4.0481 H   0  0  0  0  0  0  0  0  0  0  0  0
   -3.8924   -4.5916   -2.5297 H   0  0  0  0  0  0  0  0  0  0  0  0
   -3.4094   -3.9594   -0.1905 H   0  0  0  0  0  0  0  0  0  0  0  0
   -0.5862   -3.2174    1.9289 H   0  0  0  0  0  0  0  0  0  0  0  0
  1  2  2  0
  2  3  1  0
  3  4  1  0
  4  5  2  0
  5  6  1  0
  6  7  2  0
  7  8  1  0
  8  9  2  0
  9 10  1  0
 10 11  1  0
 11 12  1  0
 12 13  1  0
 13 14  1  0
 14 15  2  0
 15 16  1  0
 16 17  1  0
 17 18  2  0
 18 19  1  0
 19 20  2  0
 20 21  1  0
 21 22  2  0
 12 23  1  0
 23 24  1  0
 24 25  2  0
 25 26  1  0
 25 27  1  0
 27 28  1  0
 28 29  1  0
 29 30  2  0
 30 31  1  0
 31 32  2  0
 32 33  1  0
 33 34  2  0
 27 35  1  0
 35 36  1  0
 10  2  1  0
 22 14  1  0
 35 23  2  0
  9  4  1  0
 24 10  1  0
 34 29  1  0
 22 17  1  0
  3 37  1  0
  5 38  1  0
  6 39  1  0
  7 40  1  0
  8 41  1  0
 11 42  1  0
 12 43  1  1
 13 44  1  0
 13 45  1  0
 15 46  1  0
 16 47  1  0
 18 48  1  0
 19 49  1  0
 20 50  1  0
 21 51  1  0
 26 52  1  0
 28 53  1  0
 28 54  1  0
 30 55  1  0
 31 56  1  0
 32 57  1  0
 33 58  1  0
 34 59  1  0
 36 60  1  0
M  END
$$$$
