
     RDKit          3D

 42 44  0  0  0  0  0  0  0  0999 V2000
    2.8918    1.5692   -1.1094 O   0  0  0  0  0  0  0  0  0  0  0  0
    2.0974    1.3248   -0.2077 C   0  0  0  0  0  0  0  0  0  0  0  0
    2.0808    0.1873    0.5713 N   0  0  0  0  0  0  0  0  0  0  0  0
    2.9223   -0.9474    0.4920 C   0  0  0  0  0  0  0  0  0  0  0  0
    3.9878   -1.0530   -0.4053 C   0  0  0  0  0  0  0  0  0  0  0  0
    4.7839   -2.2040   -0.4329 C   0  0  0  0  0  0  0  0  0  0  0  0
    4.5244   -3.2632    0.4341 C   0  0  0  0  0  0  0  0  0  0  0  0
    3.4648   -3.1759    1.3337 C   0  0  0  0  0  0  0  0  0  0  0  0
    2.6702   -2.0267    1.3613 C   0  0  0  0  0  0  0  0  0  0  0  0
    1.3535   -1.9752    2.4869 Cl  0  0  0  0  0  0  0  0  0  0  0  0
    1.0444    2.3432    0.0979 C   0  0  0  0  0  0  0  0  0  0  0  0
    1.3139    3.6756   -0.2543 C   0  0  0  0  0  0  0  0  0  0  0  0
    0.3780    4.6827   -0.0062 C   0  0  0  0  0  0  0  0  0  0  0  0
   -0.8385    4.3713    0.5970 C   0  0  0  0  0  0  0  0  0  0  0  0
   -1.1277    3.0514    0.9402 C   0  0  0  0  0  0  0  0  0  0  0  0
   -0.2002    2.0364    0.6701 C   0  0  0  0  0  0  0  0  0  0  0  0
   -0.5091    0.7438    1.0339 O   0  0  0  0  0  0  0  0  0  0  0  0
   -1.5264    0.1313    0.3345 C   0  0  0  0  0  0  0  0  0  0  0  0
   -1.5591    0.1426   -1.0648 C   0  0  0  0  0  0  0  0  0  0  0  0
   -2.5561   -0.5576   -1.7553 C   0  0  0  0  0  0  0  0  0  0  0  0
   -3.5339   -1.2926   -1.0649 C   0  0  0  0  0  0  0  0  0  0  0  0
   -4.5896   -2.0693   -1.8186 C   0  0  0  0  0  0  0  0  0  0  0  0
   -5.7684   -2.1457   -1.1424 F   0  0  0  0  0  0  0  0  0  0  0  0
   -4.2088   -3.3515   -2.0620 F   0  0  0  0  0  0  0  0  0  0  0  0
   -4.8881   -1.5252   -3.0298 F   0  0  0  0  0  0  0  0  0  0  0  0
   -3.4871   -1.3281    0.3373 C   0  0  0  0  0  0  0  0  0  0  0  0
   -2.4880   -0.6170    1.0206 C   0  0  0  0  0  0  0  0  0  0  0  0
   -2.4848   -0.6654    2.4741 N   0  0  0  0  0  4  0  0  0  0  0  0
   -2.3836    0.4076    3.0837 O   0  0  0  0  0  0  0  0  0  0  0  0
   -2.6307   -1.7776    2.9988 O   0  0  0  0  0  1  0  0  0  0  0  0
    1.3674    0.1282    1.2927 H   0  0  0  0  0  0  0  0  0  0  0  0
    4.2326   -0.2532   -1.0974 H   0  0  0  0  0  0  0  0  0  0  0  0
    5.6110   -2.2674   -1.1368 H   0  0  0  0  0  0  0  0  0  0  0  0
    5.1470   -4.1541    0.4078 H   0  0  0  0  0  0  0  0  0  0  0  0
    3.2618   -4.0036    2.0081 H   0  0  0  0  0  0  0  0  0  0  0  0
    2.2633    3.9365   -0.7201 H   0  0  0  0  0  0  0  0  0  0  0  0
    0.6046    5.7115   -0.2773 H   0  0  0  0  0  0  0  0  0  0  0  0
   -1.5601    5.1580    0.8046 H   0  0  0  0  0  0  0  0  0  0  0  0
   -2.0722    2.8198    1.4271 H   0  0  0  0  0  0  0  0  0  0  0  0
   -0.8029    0.6746   -1.6390 H   0  0  0  0  0  0  0  0  0  0  0  0
   -2.5586   -0.5349   -2.8460 H   0  0  0  0  0  0  0  0  0  0  0  0
   -4.2271   -1.9072    0.8909 H   0  0  0  0  0  0  0  0  0  0  0  0
  1  2  2  0
  2  3  1  0
  3  4  1  0
  4  5  2  0
  5  6  1  0
  6  7  2  0
  7  8  1  0
  8  9  2  0
  9 10  1  0
  2 11  1  0
 11 12  2  0
 12 13  1  0
 13 14  2  0
 14 15  1  0
 15 16  2  0
 16 17  1  0
 17 18  1  0
 18 19  2  0
 19 20  1  0
 20 21  2  0
 21 22  1  0
 22 23  1  0
 22 24  1  0
 22 25  1  0
 21 26  1  0
 26 27  2  0
 27 28  1  0
 28 29  2  0
 28 30  1  0
  9  4  1  0
 16 11  1  0
 27 18  1  0
  3 31  1  0
  5 32  1  0
  6 33  1  0
  7 34  1  0
  8 35  1  0
 12 36  1  0
 13 37  1  0
 14 38  1  0
 15 39  1  0
 19 40  1  0
 20 41  1  0
 26 42  1  0
M  CHG  2  28   1  30  -1
M  END
$$$$
