
     RDKit          3D

 44 46  0  0  0  0  0  0  0  0999 V2000
   -2.6366    3.0073   -1.0637 C   0  0  0  0  0  0  0  0  0  0  0  0
   -3.5822    1.9111   -0.5664 C   0  0  0  0  0  0  0  0  0  0  0  0
   -4.9074    1.9437   -1.3315 C   0  0  0  0  0  0  0  0  0  0  0  0
   -2.9276    0.5416   -0.6351 C   0  0  0  0  0  0  0  0  0  0  0  0
   -2.7050   -0.1810    0.5484 C   0  0  0  0  0  0  0  0  0  0  0  0
   -2.0961   -1.4364    0.5146 C   0  0  0  0  0  0  0  0  0  0  0  0
   -1.6912   -1.9710   -0.7098 C   0  0  0  0  0  0  0  0  0  0  0  0
   -0.8855   -3.5554   -0.7603 S   0  0  0  0  0  6  0  0  0  0  0  0
   -1.1840   -4.2573    0.4694 O   0  0  0  0  0  0  0  0  0  0  0  0
   -1.1691   -4.1486   -2.0507 O   0  0  0  0  0  0  0  0  0  0  0  0
    0.7568   -3.1420   -0.7874 N   0  0  0  0  0  0  0  0  0  0  0  0
    1.2629   -2.2819    0.2274 C   0  0  0  0  0  0  0  0  0  0  0  0
    1.3343   -2.7137    1.5500 C   0  0  0  0  0  0  0  0  0  0  0  0
    1.7769   -1.8395    2.5413 C   0  0  0  0  0  0  0  0  0  0  0  0
    2.1470   -0.5381    2.2067 C   0  0  0  0  0  0  0  0  0  0  0  0
    2.5707    0.2486    3.2427 O   0  0  0  0  0  0  0  0  0  0  0  0
    2.0733   -0.0863    0.8811 C   0  0  0  0  0  0  0  0  0  0  0  0
    2.4287    1.5936    0.3876 S   0  0  0  0  0  0  0  0  0  0  0  0
    4.1317    1.7109    0.7222 C   0  0  0  0  0  0  0  0  0  0  0  0
    5.0907    1.7834   -0.2470 N   0  0  0  0  0  0  0  0  0  0  0  0
    6.2029    1.8666    0.4445 C   0  0  0  0  0  0  0  0  0  0  0  0
    5.9151    1.8487    1.7727 N   0  0  0  0  0  0  0  0  0  0  0  0
    4.5893    1.7524    1.9805 N   0  0  0  0  0  0  0  0  0  0  0  0
    1.6255   -0.9746   -0.1072 C   0  0  0  0  0  0  0  0  0  0  0  0
   -1.9238   -1.2802   -1.9008 C   0  0  0  0  0  0  0  0  0  0  0  0
   -2.5355   -0.0260   -1.8590 C   0  0  0  0  0  0  0  0  0  0  0  0
   -3.0895    3.9958   -0.9305 H   0  0  0  0  0  0  0  0  0  0  0  0
   -1.6931    2.9929   -0.5065 H   0  0  0  0  0  0  0  0  0  0  0  0
   -2.3979    2.8914   -2.1265 H   0  0  0  0  0  0  0  0  0  0  0  0
   -3.8121    2.1358    0.4837 H   0  0  0  0  0  0  0  0  0  0  0  0
   -5.4046    2.9106   -1.1982 H   0  0  0  0  0  0  0  0  0  0  0  0
   -5.5874    1.1644   -0.9699 H   0  0  0  0  0  0  0  0  0  0  0  0
   -4.7646    1.7896   -2.4066 H   0  0  0  0  0  0  0  0  0  0  0  0
   -3.0034    0.2316    1.5105 H   0  0  0  0  0  0  0  0  0  0  0  0
   -1.9307   -1.9791    1.4429 H   0  0  0  0  0  0  0  0  0  0  0  0
    1.0880   -2.9991   -1.7402 H   0  0  0  0  0  0  0  0  0  0  0  0
    1.0476   -3.7277    1.8189 H   0  0  0  0  0  0  0  0  0  0  0  0
    1.8334   -2.1711    3.5747 H   0  0  0  0  0  0  0  0  0  0  0  0
    3.0994    0.9861    2.8684 H   0  0  0  0  0  0  0  0  0  0  0  0
    7.2075    1.9404    0.0527 H   0  0  0  0  0  0  0  0  0  0  0  0
    6.5456    1.8972    2.5662 H   0  0  0  0  0  0  0  0  0  0  0  0
    1.5393   -0.6360   -1.1367 H   0  0  0  0  0  0  0  0  0  0  0  0
   -1.6340   -1.7054   -2.8588 H   0  0  0  0  0  0  0  0  0  0  0  0
   -2.7054    0.5069   -2.7924 H   0  0  0  0  0  0  0  0  0  0  0  0
  1  2  1  0
  2  3  1  0
  2  4  1  0
  4  5  2  0
  5  6  1  0
  6  7  2  0
  7  8  1  0
  8  9  2  0
  8 10  2  0
  8 11  1  0
 11 12  1  0
 12 13  2  0
 13 14  1  0
 14 15  2  0
 15 16  1  0
 15 17  1  0
 17 18  1  0
 18 19  1  0
 19 20  1  0
 20 21  2  0
 21 22  1  0
 22 23  1  0
 17 24  2  0
  7 25  1  0
 25 26  2  0
 26  4  1  0
 24 12  1  0
 23 19  2  0
  1 27  1  0
  1 28  1  0
  1 29  1  0
  2 30  1  0
  3 31  1  0
  3 32  1  0
  3 33  1  0
  5 34  1  0
  6 35  1  0
 11 36  1  0
 13 37  1  0
 14 38  1  0
 16 39  1  0
 21 40  1  0
 22 41  1  0
 24 42  1  0
 25 43  1  0
 26 44  1  0
M  END
$$$$
