
     RDKit          3D

 48 50  0  0  0  0  0  0  0  0999 V2000
   -5.3735   -1.5003    0.5577 C   0  0  0  0  0  0  0  0  0  0  0  0
   -4.5216   -0.5009    1.1212 O   0  0  0  0  0  0  0  0  0  0  0  0
   -3.7020    0.0207    0.1543 C   0  0  0  0  0  0  0  0  0  0  0  0
   -2.3709   -0.3928    0.1470 C   0  0  0  0  0  0  0  0  0  0  0  0
   -1.4882    0.1195   -0.8085 C   0  0  0  0  0  0  0  0  0  0  0  0
   -0.0737   -0.2781   -0.8333 C   0  0  0  0  0  0  0  0  0  0  0  0
    0.3882   -1.5355   -0.9790 C   0  0  0  0  0  0  0  0  0  0  0  0
   -0.4385   -2.6725   -1.1953 C   0  0  0  0  0  0  0  0  0  0  0  0
   -1.1423   -3.5867   -1.3266 N   0  0  0  0  0  0  0  0  0  0  0  0
    1.8653   -1.7464   -1.0060 C   0  0  0  0  0  0  0  0  0  0  0  0
    2.3684   -2.3683   -1.9315 O   0  0  0  0  0  0  0  0  0  0  0  0
    2.5118   -1.2109    0.0956 N   0  0  0  0  0  0  0  0  0  0  0  0
    3.9082   -1.1920    0.3651 C   0  0  0  0  0  0  0  0  0  0  0  0
    4.8363   -1.6606   -0.5716 C   0  0  0  0  0  0  0  0  0  0  0  0
    6.1989   -1.6179   -0.3007 C   0  0  0  0  0  0  0  0  0  0  0  0
    6.6477   -1.1051    0.9117 C   0  0  0  0  0  0  0  0  0  0  0  0
    5.7701   -0.6303    1.8701 C   0  0  0  0  0  0  0  0  0  0  0  0
    6.3054   -0.1574    3.0091 N   0  0  0  0  0  0  0  0  0  0  0  0
    5.4783    0.3080    3.9647 C   0  0  0  0  0  0  0  0  0  0  0  0
    4.1083    0.3256    3.8385 C   0  0  0  0  0  0  0  0  0  0  0  0
    3.5565   -0.1638    2.6576 C   0  0  0  0  0  0  0  0  0  0  0  0
    4.3771   -0.6653    1.6148 C   0  0  0  0  0  0  0  0  0  0  0  0
   -1.9444    1.0713   -1.7359 C   0  0  0  0  0  0  0  0  0  0  0  0
   -3.2749    1.5082   -1.7198 C   0  0  0  0  0  0  0  0  0  0  0  0
   -3.8041    2.4393   -2.5748 O   0  0  0  0  0  0  0  0  0  0  0  0
   -3.0115    2.8338   -3.6874 C   0  0  0  0  0  0  0  0  0  0  0  0
   -4.1468    0.9924   -0.7494 C   0  0  0  0  0  0  0  0  0  0  0  0
   -5.4592    1.4004   -0.7239 O   0  0  0  0  0  0  0  0  0  0  0  0
   -5.6071    2.4969    0.1759 C   0  0  0  0  0  0  0  0  0  0  0  0
   -6.0130   -1.8825    1.3585 H   0  0  0  0  0  0  0  0  0  0  0  0
   -4.7838   -2.3376    0.1673 H   0  0  0  0  0  0  0  0  0  0  0  0
   -6.0221   -1.0940   -0.2238 H   0  0  0  0  0  0  0  0  0  0  0  0
   -2.0452   -1.1162    0.8903 H   0  0  0  0  0  0  0  0  0  0  0  0
    0.6219    0.5576   -0.7631 H   0  0  0  0  0  0  0  0  0  0  0  0
    1.9194   -0.8212    0.8129 H   0  0  0  0  0  0  0  0  0  0  0  0
    4.5378   -2.0663   -1.5328 H   0  0  0  0  0  0  0  0  0  0  0  0
    6.9124   -1.9843   -1.0352 H   0  0  0  0  0  0  0  0  0  0  0  0
    7.7155   -1.0758    1.1156 H   0  0  0  0  0  0  0  0  0  0  0  0
    5.9668    0.6768    4.8620 H   0  0  0  0  0  0  0  0  0  0  0  0
    3.4829    0.7078    4.6367 H   0  0  0  0  0  0  0  0  0  0  0  0
    2.4757   -0.1478    2.5802 H   0  0  0  0  0  0  0  0  0  0  0  0
   -1.2420    1.4642   -2.4647 H   0  0  0  0  0  0  0  0  0  0  0  0
   -2.7275    1.9696   -4.2980 H   0  0  0  0  0  0  0  0  0  0  0  0
   -2.1309    3.3964   -3.3594 H   0  0  0  0  0  0  0  0  0  0  0  0
   -3.6169    3.4995   -4.3119 H   0  0  0  0  0  0  0  0  0  0  0  0
   -5.4157    2.1887    1.2082 H   0  0  0  0  0  0  0  0  0  0  0  0
   -6.6426    2.8424    0.1150 H   0  0  0  0  0  0  0  0  0  0  0  0
   -4.9548    3.3331   -0.0971 H   0  0  0  0  0  0  0  0  0  0  0  0
  1  2  1  0
  2  3  1  0
  3  4  2  0
  4  5  1  0
  5  6  1  0
  6  7  2  3
  7  8  1  0
  8  9  3  0
  7 10  1  0
 10 11  2  0
 10 12  1  0
 12 13  1  0
 13 14  2  0
 14 15  1  0
 15 16  2  0
 16 17  1  0
 17 18  2  0
 18 19  1  0
 19 20  2  0
 20 21  1  0
 21 22  2  0
  5 23  2  0
 23 24  1  0
 24 25  1  0
 25 26  1  0
 24 27  2  0
 27 28  1  0
 28 29  1  0
 27  3  1  0
 22 13  1  0
 22 17  1  0
  1 30  1  0
  1 31  1  0
  1 32  1  0
  4 33  1  0
  6 34  1  0
 12 35  1  0
 14 36  1  0
 15 37  1  0
 16 38  1  0
 19 39  1  0
 20 40  1  0
 21 41  1  0
 23 42  1  0
 26 43  1  0
 26 44  1  0
 26 45  1  0
 29 46  1  0
 29 47  1  0
 29 48  1  0
M  END
$$$$
