
     RDKit          3D

 46 49  0  0  0  0  0  0  0  0999 V2000
   -6.1377    1.7319    3.0292 C   0  0  0  0  0  0  0  0  0  0  0  0
   -5.7836    1.9363    1.6672 O   0  0  0  0  0  0  0  0  0  0  0  0
   -4.6632    1.2984    1.2139 C   0  0  0  0  0  0  0  0  0  0  0  0
   -3.8763    0.4046    1.9389 C   0  0  0  0  0  0  0  0  0  0  0  0
   -2.7554   -0.1898    1.3453 C   0  0  0  0  0  0  0  0  0  0  0  0
   -2.4075    0.1166    0.0229 C   0  0  0  0  0  0  0  0  0  0  0  0
   -1.2702   -0.5027   -0.5696 N   0  0  0  0  0  0  0  0  0  0  0  0
   -0.2795    0.0658   -1.3641 C   0  0  0  0  0  0  0  0  0  0  0  0
   -0.1738    1.7591   -1.7460 S   0  0  0  0  0  0  0  0  0  0  0  0
    1.2988    1.8078   -2.8024 C   0  0  0  0  0  0  0  0  0  0  0  0
    2.5330    2.1067   -1.9703 C   0  0  0  0  0  0  0  0  0  0  0  0
    2.9830    3.2501   -1.9329 O   0  0  0  0  0  0  0  0  0  0  0  0
    3.0473    0.9968   -1.3244 N   0  0  0  0  0  0  0  0  0  0  0  0
    4.1903    0.9981   -0.5027 C   0  0  0  0  0  0  0  0  0  0  0  0
    4.8809    2.1445   -0.3224 N   0  0  0  0  0  0  0  0  0  0  0  0
    5.9705    2.1234    0.4822 C   0  0  0  0  0  0  0  0  0  0  0  0
    6.4242    0.9863    1.1259 C   0  0  0  0  0  0  0  0  0  0  0  0
    7.8102    1.0327    2.1349 Cl  0  0  0  0  0  0  0  0  0  0  0  0
    5.7262   -0.1970    0.9369 C   0  0  0  0  0  0  0  0  0  0  0  0
    4.5968   -0.1941    0.1139 C   0  0  0  0  0  0  0  0  0  0  0  0
    3.7579   -1.6827   -0.1072 Cl  0  0  0  0  0  0  0  0  0  0  0  0
    0.6542   -0.7955   -1.7061 N   0  0  0  0  0  0  0  0  0  0  0  0
    0.2368   -1.9938   -1.1932 C   0  0  0  0  0  0  0  0  0  0  0  0
    0.8294   -3.2607   -1.3234 C   0  0  0  0  0  0  0  0  0  0  0  0
    0.2208   -4.3637   -0.7175 C   0  0  0  0  0  0  0  0  0  0  0  0
   -0.9688   -4.2146   -0.0096 C   0  0  0  0  0  0  0  0  0  0  0  0
   -1.5793   -2.9624    0.1232 C   0  0  0  0  0  0  0  0  0  0  0  0
   -0.9412   -1.8541   -0.4631 C   0  0  0  0  0  0  0  0  0  0  0  0
   -3.1944    1.0147   -0.7033 C   0  0  0  0  0  0  0  0  0  0  0  0
   -4.3170    1.5957   -0.1061 C   0  0  0  0  0  0  0  0  0  0  0  0
   -5.3524    2.0970    3.7002 H   0  0  0  0  0  0  0  0  0  0  0  0
   -6.3705    0.6801    3.2267 H   0  0  0  0  0  0  0  0  0  0  0  0
   -7.0426    2.3146    3.2284 H   0  0  0  0  0  0  0  0  0  0  0  0
   -4.1030    0.1505    2.9689 H   0  0  0  0  0  0  0  0  0  0  0  0
   -2.1445   -0.8563    1.9506 H   0  0  0  0  0  0  0  0  0  0  0  0
    1.4378    0.8949   -3.3895 H   0  0  0  0  0  0  0  0  0  0  0  0
    1.1743    2.6234   -3.5229 H   0  0  0  0  0  0  0  0  0  0  0  0
    2.5292    0.1221   -1.3972 H   0  0  0  0  0  0  0  0  0  0  0  0
    6.4751    3.0794    0.5899 H   0  0  0  0  0  0  0  0  0  0  0  0
    6.0533   -1.1113    1.4229 H   0  0  0  0  0  0  0  0  0  0  0  0
    1.7453   -3.3786   -1.8930 H   0  0  0  0  0  0  0  0  0  0  0  0
    0.6758   -5.3472   -0.8121 H   0  0  0  0  0  0  0  0  0  0  0  0
   -1.4396   -5.0882    0.4377 H   0  0  0  0  0  0  0  0  0  0  0  0
   -2.5272   -2.8733    0.6443 H   0  0  0  0  0  0  0  0  0  0  0  0
   -2.9905    1.2495   -1.7443 H   0  0  0  0  0  0  0  0  0  0  0  0
   -4.9328    2.2850   -0.6806 H   0  0  0  0  0  0  0  0  0  0  0  0
  1  2  1  0
  2  3  1  0
  3  4  2  0
  4  5  1  0
  5  6  2  0
  6  7  1  0
  7  8  1  0
  8  9  1  0
  9 10  1  0
 10 11  1  0
 11 12  2  0
 11 13  1  0
 13 14  1  0
 14 15  2  0
 15 16  1  0
 16 17  2  0
 17 18  1  0
 17 19  1  0
 19 20  2  0
 20 21  1  0
  8 22  2  0
 22 23  1  0
 23 24  2  0
 24 25  1  0
 25 26  2  0
 26 27  1  0
 27 28  2  0
  6 29  1  0
 29 30  2  0
 30  3  1  0
 28  7  1  0
 20 14  1  0
 28 23  1  0
  1 31  1  0
  1 32  1  0
  1 33  1  0
  4 34  1  0
  5 35  1  0
 10 36  1  0
 10 37  1  0
 13 38  1  0
 16 39  1  0
 19 40  1  0
 24 41  1  0
 25 42  1  0
 26 43  1  0
 27 44  1  0
 29 45  1  0
 30 46  1  0
M  END
$$$$
