
     RDKit          3D

 36 38  0  0  0  0  0  0  0  0999 V2000
    3.0969    2.1818   -1.2917 C   0  0  0  0  0  0  0  0  0  0  0  0
    3.7190    1.2822   -0.2423 C   0  0  0  0  0  0  0  0  0  0  0  0
    2.7493    0.2299    0.1383 N   0  0  0  0  0  4  0  0  0  0  0  0
    2.7319   -0.9438   -0.5345 C   0  0  0  0  0  0  0  0  0  0  0  0
    1.8126   -1.9348   -0.2109 C   0  0  0  0  0  0  0  0  0  0  0  0
    0.8923   -1.7107    0.8095 C   0  0  0  0  0  0  0  0  0  0  0  0
   -0.1110   -2.7355    1.1191 C   0  0  0  0  0  0  0  0  0  0  0  0
   -1.4372   -2.5408    1.2356 C   0  0  0  0  0  0  0  0  0  0  0  0
   -2.1566   -1.3214    1.0562 C   0  0  0  0  0  0  0  0  0  0  0  0
   -3.0245   -0.8173    1.9989 C   0  0  0  0  0  0  0  0  0  0  0  0
   -3.5239    0.3656    1.5204 N   0  0  0  0  0  0  0  0  0  0  0  0
   -2.9988    0.6354    0.2761 C   0  0  0  0  0  0  0  0  0  0  0  0
   -3.2253    1.7213   -0.5783 C   0  0  0  0  0  0  0  0  0  0  0  0
   -2.5876    1.7135   -1.8221 C   0  0  0  0  0  0  0  0  0  0  0  0
   -1.7641    0.6563   -2.1993 C   0  0  0  0  0  0  0  0  0  0  0  0
   -1.5452   -0.4196   -1.3313 C   0  0  0  0  0  0  0  0  0  0  0  0
   -2.1592   -0.4294   -0.0598 C   0  0  0  0  0  0  0  0  0  0  0  0
    0.9549   -0.5110    1.5162 C   0  0  0  0  0  0  0  0  0  0  0  0
    1.8846    0.4533    1.1540 C   0  0  0  0  0  0  0  0  0  0  0  0
    3.8003    2.9665   -1.5858 H   0  0  0  0  0  0  0  0  0  0  0  0
    2.8238    1.6131   -2.1865 H   0  0  0  0  0  0  0  0  0  0  0  0
    2.1882    2.6603   -0.9124 H   0  0  0  0  0  0  0  0  0  0  0  0
    4.6238    0.7929   -0.6181 H   0  0  0  0  0  0  0  0  0  0  0  0
    3.9867    1.8425    0.6598 H   0  0  0  0  0  0  0  0  0  0  0  0
    3.4496   -1.0742   -1.3393 H   0  0  0  0  0  0  0  0  0  0  0  0
    1.8006   -2.8647   -0.7762 H   0  0  0  0  0  0  0  0  0  0  0  0
    0.2768   -3.7416    1.2723 H   0  0  0  0  0  0  0  0  0  0  0  0
   -2.0414   -3.4023    1.5211 H   0  0  0  0  0  0  0  0  0  0  0  0
   -3.3305   -1.1892    2.9684 H   0  0  0  0  0  0  0  0  0  0  0  0
   -4.1973    0.9503    1.9977 H   0  0  0  0  0  0  0  0  0  0  0  0
   -3.8902    2.5338   -0.3010 H   0  0  0  0  0  0  0  0  0  0  0  0
   -2.7616    2.5346   -2.5149 H   0  0  0  0  0  0  0  0  0  0  0  0
   -1.3082    0.6554   -3.1864 H   0  0  0  0  0  0  0  0  0  0  0  0
   -0.9299   -1.2548   -1.6491 H   0  0  0  0  0  0  0  0  0  0  0  0
    0.2630   -0.3081    2.3315 H   0  0  0  0  0  0  0  0  0  0  0  0
    1.9382    1.4107    1.6640 H   0  0  0  0  0  0  0  0  0  0  0  0
  1  2  1  0
  2  3  1  0
  3  4  2  0
  4  5  1  0
  5  6  2  0
  6  7  1  0
  7  8  2  3
  8  9  1  0
  9 10  2  0
 10 11  1  0
 11 12  1  0
 12 13  2  0
 13 14  1  0
 14 15  2  0
 15 16  1  0
 16 17  2  0
  6 18  1  0
 18 19  2  0
 19  3  1  0
 17  9  1  0
 17 12  1  0
  1 20  1  0
  1 21  1  0
  1 22  1  0
  2 23  1  0
  2 24  1  0
  4 25  1  0
  5 26  1  0
  7 27  1  0
  8 28  1  0
 10 29  1  0
 11 30  1  0
 13 31  1  0
 14 32  1  0
 15 33  1  0
 16 34  1  0
 18 35  1  0
 19 36  1  0
M  CHG  1   3   1
M  END
$$$$
