
     RDKit          3D

 53 55  0  0  0  0  0  0  0  0999 V2000
   -8.1057    0.1354    2.0162 C   0  0  0  0  0  0  0  0  0  0  0  0
   -6.9253    0.8257    1.6263 O   0  0  0  0  0  0  0  0  0  0  0  0
   -5.9577    0.0981    0.9857 C   0  0  0  0  0  0  0  0  0  0  0  0
   -4.8087    0.8277    0.6614 C   0  0  0  0  0  0  0  0  0  0  0  0
   -3.7139    0.2173    0.0415 C   0  0  0  0  0  0  0  0  0  0  0  0
   -2.5964    1.0329   -0.2432 N   0  0  0  0  0  0  0  0  0  0  0  0
   -1.3751    0.6366   -0.7652 C   0  0  0  0  0  0  0  0  0  0  0  0
   -1.0346   -0.5072   -1.0438 O   0  0  0  0  0  0  0  0  0  0  0  0
   -0.4430    1.8176   -0.9656 C   0  0  0  0  0  0  0  0  0  0  0  0
    0.9382    1.3536   -1.4081 C   0  0  0  0  0  0  0  0  0  0  0  0
    1.8094    2.5262   -1.5842 N   0  0  0  0  0  0  0  0  0  0  0  0
    3.2538    2.3380   -2.4339 S   0  0  0  0  0  6  0  0  0  0  0  0
    2.9564    1.7400   -3.7165 O   0  0  0  0  0  0  0  0  0  0  0  0
    3.9613    3.5946   -2.3128 O   0  0  0  0  0  0  0  0  0  0  0  0
    4.1168    1.1392   -1.4448 C   0  0  0  0  0  0  0  0  0  0  0  0
    4.1388   -0.2030   -1.8327 C   0  0  0  0  0  0  0  0  0  0  0  0
    4.8184   -1.1373   -1.0447 C   0  0  0  0  0  0  0  0  0  0  0  0
    5.4634   -0.7223    0.1215 C   0  0  0  0  0  0  0  0  0  0  0  0
    5.4671    0.6276    0.4956 C   0  0  0  0  0  0  0  0  0  0  0  0
    4.7967    1.5659   -0.2985 C   0  0  0  0  0  0  0  0  0  0  0  0
    6.2840    1.0534    1.6830 C   0  0  0  0  0  0  0  0  0  0  0  0
    6.3029   -0.0333    2.7447 C   0  0  0  0  0  0  0  0  0  0  0  0
    6.6437   -1.3854    2.1587 C   0  0  0  0  0  0  0  0  0  0  0  0
    7.2613   -2.2412    2.7942 O   0  0  0  0  0  0  0  0  0  0  0  0
    6.1335   -1.6592    0.9162 N   0  0  0  0  0  0  0  0  0  0  0  0
   -3.7895   -1.1422   -0.2601 C   0  0  0  0  0  0  0  0  0  0  0  0
   -4.9436   -1.8791    0.0365 C   0  0  0  0  0  0  0  0  0  0  0  0
   -4.8792   -3.1959   -0.3306 O   0  0  0  0  0  0  0  0  0  0  0  0
   -6.0492   -3.9837   -0.1509 C   0  0  0  0  0  0  0  0  0  0  0  0
   -6.0266   -1.2576    0.6631 C   0  0  0  0  0  0  0  0  0  0  0  0
   -8.7224    0.8281    2.6002 H   0  0  0  0  0  0  0  0  0  0  0  0
   -8.6841   -0.1724    1.1363 H   0  0  0  0  0  0  0  0  0  0  0  0
   -7.8744   -0.7267    2.6573 H   0  0  0  0  0  0  0  0  0  0  0  0
   -4.7826    1.8858    0.9213 H   0  0  0  0  0  0  0  0  0  0  0  0
   -2.7002    2.0138   -0.0113 H   0  0  0  0  0  0  0  0  0  0  0  0
   -0.8785    2.4817   -1.7197 H   0  0  0  0  0  0  0  0  0  0  0  0
   -0.3687    2.3761   -0.0250 H   0  0  0  0  0  0  0  0  0  0  0  0
    1.3682    0.6955   -0.6440 H   0  0  0  0  0  0  0  0  0  0  0  0
    0.8617    0.7934   -2.3467 H   0  0  0  0  0  0  0  0  0  0  0  0
    1.9164    3.1605   -0.7934 H   0  0  0  0  0  0  0  0  0  0  0  0
    3.6323   -0.5305   -2.7373 H   0  0  0  0  0  0  0  0  0  0  0  0
    4.8291   -2.1811   -1.3463 H   0  0  0  0  0  0  0  0  0  0  0  0
    4.8141    2.6207   -0.0321 H   0  0  0  0  0  0  0  0  0  0  0  0
    7.3053    1.2601    1.3386 H   0  0  0  0  0  0  0  0  0  0  0  0
    5.8819    1.9773    2.1152 H   0  0  0  0  0  0  0  0  0  0  0  0
    5.3204   -0.1224    3.2270 H   0  0  0  0  0  0  0  0  0  0  0  0
    7.0372    0.2155    3.5158 H   0  0  0  0  0  0  0  0  0  0  0  0
    6.2531   -2.6123    0.5932 H   0  0  0  0  0  0  0  0  0  0  0  0
   -2.9664   -1.6666   -0.7339 H   0  0  0  0  0  0  0  0  0  0  0  0
   -6.2692   -4.1193    0.9134 H   0  0  0  0  0  0  0  0  0  0  0  0
   -5.8539   -4.9745   -0.5786 H   0  0  0  0  0  0  0  0  0  0  0  0
   -6.9034   -3.5564   -0.6836 H   0  0  0  0  0  0  0  0  0  0  0  0
   -6.9130   -1.8287    0.9038 H   0  0  0  0  0  0  0  0  0  0  0  0
  1  2  1  0
  2  3  1  0
  3  4  2  0
  4  5  1  0
  5  6  1  0
  6  7  1  0
  7  8  2  0
  7  9  1  0
  9 10  1  0
 10 11  1  0
 11 12  1  0
 12 13  2  0
 12 14  2  0
 12 15  1  0
 15 16  2  0
 16 17  1  0
 17 18  2  0
 18 19  1  0
 19 20  2  0
 19 21  1  0
 21 22  1  0
 22 23  1  0
 23 24  2  0
 23 25  1  0
  5 26  2  0
 26 27  1  0
 27 28  1  0
 28 29  1  0
 27 30  2  0
 30  3  1  0
 20 15  1  0
 25 18  1  0
  1 31  1  0
  1 32  1  0
  1 33  1  0
  4 34  1  0
  6 35  1  0
  9 36  1  0
  9 37  1  0
 10 38  1  0
 10 39  1  0
 11 40  1  0
 16 41  1  0
 17 42  1  0
 20 43  1  0
 21 44  1  0
 21 45  1  0
 22 46  1  0
 22 47  1  0
 25 48  1  0
 26 49  1  0
 29 50  1  0
 29 51  1  0
 29 52  1  0
 30 53  1  0
M  END
$$$$
