
     RDKit          3D

 41 42  0  0  0  0  0  0  0  0999 V2000
    5.8184    2.6941    0.4020 C   0  0  0  0  0  0  0  0  0  0  0  0
    5.1854    1.5038   -0.0666 O   0  0  0  0  0  0  0  0  0  0  0  0
    4.1173    1.1091    0.6835 C   0  0  0  0  0  0  0  0  0  0  0  0
    3.7081    1.7055    1.6712 O   0  0  0  0  0  0  0  0  0  0  0  0
    3.5452   -0.1057    0.1296 C   0  0  0  0  0  0  0  0  0  0  0  0
    3.9284   -0.7944   -1.0111 C   0  0  0  0  0  0  0  0  0  0  0  0
    3.0717   -1.8998   -1.1676 C   0  0  0  0  0  0  0  0  0  0  0  0
    2.1571   -1.8973   -0.1258 C   0  0  0  0  0  0  0  0  0  0  0  0
    0.8091   -3.0123    0.1940 S   0  0  0  0  0  6  0  0  0  0  0  0
    0.6984   -3.8380   -0.9860 O   0  0  0  0  0  0  0  0  0  0  0  0
    1.0677   -3.5641    1.5023 O   0  0  0  0  0  0  0  0  0  0  0  0
   -0.5778   -2.0739    0.3038 N   0  0  0  0  0  0  0  0  0  0  0  0
   -1.0633   -1.5090   -0.9623 C   0  0  0  0  0  0  0  0  0  0  0  0
   -2.1766   -0.5239   -0.7044 C   0  0  0  0  0  0  0  0  0  0  0  0
   -1.8878    0.7541   -0.2101 C   0  0  0  0  0  0  0  0  0  0  0  0
   -2.9185    1.6604    0.0482 C   0  0  0  0  0  0  0  0  0  0  0  0
   -4.2510    1.3078   -0.1752 C   0  0  0  0  0  0  0  0  0  0  0  0
   -5.1583    2.2878    0.1186 O   0  0  0  0  0  0  0  0  0  0  0  0
   -6.5300    1.9795   -0.0938 C   0  0  0  0  0  0  0  0  0  0  0  0
   -4.5457    0.0333   -0.6590 C   0  0  0  0  0  0  0  0  0  0  0  0
   -3.5151   -0.8781   -0.9188 C   0  0  0  0  0  0  0  0  0  0  0  0
    2.4760   -0.8112    0.6741 N   0  0  0  0  0  0  0  0  0  0  0  0
    1.8140   -0.4298    1.9087 C   0  0  0  0  0  0  0  0  0  0  0  0
    5.1209    3.5370    0.3717 H   0  0  0  0  0  0  0  0  0  0  0  0
    6.6574    2.9159   -0.2633 H   0  0  0  0  0  0  0  0  0  0  0  0
    6.2088    2.5487    1.4141 H   0  0  0  0  0  0  0  0  0  0  0  0
    4.7441   -0.5159   -1.6682 H   0  0  0  0  0  0  0  0  0  0  0  0
    3.0957   -2.6356   -1.9630 H   0  0  0  0  0  0  0  0  0  0  0  0
   -1.2999   -2.5748    0.8216 H   0  0  0  0  0  0  0  0  0  0  0  0
   -1.4300   -2.3138   -1.6097 H   0  0  0  0  0  0  0  0  0  0  0  0
   -0.2570   -0.9929   -1.4953 H   0  0  0  0  0  0  0  0  0  0  0  0
   -0.8588    1.0513   -0.0198 H   0  0  0  0  0  0  0  0  0  0  0  0
   -2.6815    2.6507    0.4301 H   0  0  0  0  0  0  0  0  0  0  0  0
   -6.8515    1.1499    0.5446 H   0  0  0  0  0  0  0  0  0  0  0  0
   -6.7281    1.7666   -1.1495 H   0  0  0  0  0  0  0  0  0  0  0  0
   -7.1174    2.8600    0.1839 H   0  0  0  0  0  0  0  0  0  0  0  0
   -5.5662   -0.2853   -0.8439 H   0  0  0  0  0  0  0  0  0  0  0  0
   -3.7701   -1.8680   -1.2921 H   0  0  0  0  0  0  0  0  0  0  0  0
    2.5679   -0.3626    2.6975 H   0  0  0  0  0  0  0  0  0  0  0  0
    1.0698   -1.1630    2.2100 H   0  0  0  0  0  0  0  0  0  0  0  0
    1.3232    0.5337    1.7482 H   0  0  0  0  0  0  0  0  0  0  0  0
  1  2  1  0
  2  3  1  0
  3  4  2  0
  3  5  1  0
  5  6  2  0
  6  7  1  0
  7  8  2  0
  8  9  1  0
  9 10  2  0
  9 11  2  0
  9 12  1  0
 12 13  1  0
 13 14  1  0
 14 15  2  0
 15 16  1  0
 16 17  2  0
 17 18  1  0
 18 19  1  0
 17 20  1  0
 20 21  2  0
  8 22  1  0
 22 23  1  0
 22  5  1  0
 21 14  1  0
  1 24  1  0
  1 25  1  0
  1 26  1  0
  6 27  1  0
  7 28  1  0
 12 29  1  0
 13 30  1  0
 13 31  1  0
 15 32  1  0
 16 33  1  0
 19 34  1  0
 19 35  1  0
 19 36  1  0
 20 37  1  0
 21 38  1  0
 23 39  1  0
 23 40  1  0
 23 41  1  0
M  END
$$$$
