
     RDKit          3D

 46 48  0  0  0  0  0  0  0  0999 V2000
   -1.7650    1.3488   -1.5949 C   0  0  0  0  0  0  0  0  0  0  0  0
   -2.0228   -0.1455   -1.5412 C   0  0  0  0  0  0  0  0  0  0  0  0
   -2.5854   -0.5189   -0.2071 N   0  0  0  0  0  4  0  0  0  0  0  0
   -1.7362   -0.9220    0.7868 C   0  0  0  0  0  0  0  0  0  0  0  0
   -0.2873   -0.9981    0.5652 C   0  0  0  0  0  0  0  0  0  0  0  0
    0.5681   -0.1323    1.1324 C   0  0  0  0  0  0  0  0  0  0  0  0
    2.0188   -0.1734    0.9006 C   0  0  0  0  0  0  0  0  0  0  0  0
    2.7353   -1.3741    0.8890 C   0  0  0  0  0  0  0  0  0  0  0  0
    4.1164   -1.3763    0.6694 C   0  0  0  0  0  0  0  0  0  0  0  0
    4.8032   -0.1759    0.4708 C   0  0  0  0  0  0  0  0  0  0  0  0
    6.1521   -0.0808    0.2424 O   0  0  0  0  0  0  0  0  0  0  0  0
    6.9136   -1.2801    0.2454 C   0  0  0  0  0  0  0  0  0  0  0  0
    4.0946    1.0408    0.5079 C   0  0  0  0  0  0  0  0  0  0  0  0
    4.8370    2.1767    0.3020 O   0  0  0  0  0  0  0  0  0  0  0  0
    4.2328    3.4276    0.5966 C   0  0  0  0  0  0  0  0  0  0  0  0
    2.7103    1.0332    0.7242 C   0  0  0  0  0  0  0  0  0  0  0  0
   -2.2250   -1.2853    2.0418 C   0  0  0  0  0  0  0  0  0  0  0  0
   -3.5818   -1.2396    2.2977 C   0  0  0  0  0  0  0  0  0  0  0  0
   -4.4503   -0.8199    1.2984 C   0  0  0  0  0  0  0  0  0  0  0  0
   -5.8272   -0.7637    1.5606 C   0  0  0  0  0  0  0  0  0  0  0  0
   -6.7194   -0.3348    0.5825 C   0  0  0  0  0  0  0  0  0  0  0  0
   -6.2443    0.0454   -0.6647 C   0  0  0  0  0  0  0  0  0  0  0  0
   -4.8736   -0.0074   -0.9413 C   0  0  0  0  0  0  0  0  0  0  0  0
   -3.9425   -0.4458    0.0224 C   0  0  0  0  0  0  0  0  0  0  0  0
   -2.6839    1.9225   -1.4417 H   0  0  0  0  0  0  0  0  0  0  0  0
   -1.0532    1.6581   -0.8237 H   0  0  0  0  0  0  0  0  0  0  0  0
   -1.3512    1.6255   -2.5694 H   0  0  0  0  0  0  0  0  0  0  0  0
   -2.7115   -0.4757   -2.3233 H   0  0  0  0  0  0  0  0  0  0  0  0
   -1.1042   -0.7073   -1.7274 H   0  0  0  0  0  0  0  0  0  0  0  0
    0.0579   -1.7943   -0.0901 H   0  0  0  0  0  0  0  0  0  0  0  0
    0.2215    0.6756    1.7757 H   0  0  0  0  0  0  0  0  0  0  0  0
    2.2394   -2.3266    1.0604 H   0  0  0  0  0  0  0  0  0  0  0  0
    4.6299   -2.3325    0.6642 H   0  0  0  0  0  0  0  0  0  0  0  0
    6.8602   -1.7795    1.2184 H   0  0  0  0  0  0  0  0  0  0  0  0
    6.5976   -1.9495   -0.5613 H   0  0  0  0  0  0  0  0  0  0  0  0
    7.9594   -1.0131    0.0655 H   0  0  0  0  0  0  0  0  0  0  0  0
    5.0018    4.2009    0.5067 H   0  0  0  0  0  0  0  0  0  0  0  0
    3.8506    3.4549    1.6226 H   0  0  0  0  0  0  0  0  0  0  0  0
    3.4430    3.6588   -0.1252 H   0  0  0  0  0  0  0  0  0  0  0  0
    2.1538    1.9646    0.7409 H   0  0  0  0  0  0  0  0  0  0  0  0
   -1.5459   -1.6132    2.8283 H   0  0  0  0  0  0  0  0  0  0  0  0
   -3.9499   -1.5292    3.2818 H   0  0  0  0  0  0  0  0  0  0  0  0
   -6.2249   -1.0512    2.5342 H   0  0  0  0  0  0  0  0  0  0  0  0
   -7.7864   -0.2936    0.7974 H   0  0  0  0  0  0  0  0  0  0  0  0
   -6.9446    0.3875   -1.4262 H   0  0  0  0  0  0  0  0  0  0  0  0
   -4.5807    0.3184   -1.9344 H   0  0  0  0  0  0  0  0  0  0  0  0
  1  2  1  0
  2  3  1  0
  3  4  2  0
  4  5  1  0
  5  6  2  3
  6  7  1  0
  7  8  2  0
  8  9  1  0
  9 10  2  0
 10 11  1  0
 11 12  1  0
 10 13  1  0
 13 14  1  0
 14 15  1  0
 13 16  2  0
  4 17  1  0
 17 18  2  0
 18 19  1  0
 19 20  2  0
 20 21  1  0
 21 22  2  0
 22 23  1  0
 23 24  2  0
 24  3  1  0
 16  7  1  0
 24 19  1  0
  1 25  1  0
  1 26  1  0
  1 27  1  0
  2 28  1  0
  2 29  1  0
  5 30  1  0
  6 31  1  0
  8 32  1  0
  9 33  1  0
 12 34  1  0
 12 35  1  0
 12 36  1  0
 15 37  1  0
 15 38  1  0
 15 39  1  0
 16 40  1  0
 17 41  1  0
 18 42  1  0
 20 43  1  0
 21 44  1  0
 22 45  1  0
 23 46  1  0
M  CHG  1   3   1
M  END
$$$$
