
     RDKit          3D

 56 59  0  0  0  0  0  0  0  0999 V2000
    3.8602    3.7102    2.5750 C   0  0  0  0  0  0  0  0  0  0  0  0
    2.5377    3.7961    1.8334 C   0  0  0  0  0  0  0  0  0  0  0  0
    2.6317    3.1801    0.5499 O   0  0  0  0  0  0  0  0  0  0  0  0
    2.3935    1.8408    0.4356 C   0  0  0  0  0  0  0  0  0  0  0  0
    2.1063    0.9572    1.4747 C   0  0  0  0  0  0  0  0  0  0  0  0
    1.8722   -0.3965    1.2052 C   0  0  0  0  0  0  0  0  0  0  0  0
    1.9334   -0.8794   -0.1062 C   0  0  0  0  0  0  0  0  0  0  0  0
    1.6416   -2.2782   -0.3868 C   0  0  0  0  0  0  0  0  0  0  0  0
    0.4267   -2.9558   -0.4765 C   0  0  0  0  0  0  0  0  0  0  0  0
   -0.9604   -2.4938   -0.3337 C   0  0  0  0  0  0  0  0  0  0  0  0
   -1.8807   -3.2993   -0.2009 O   0  0  0  0  0  0  0  0  0  0  0  0
   -1.1539   -1.1161   -0.3766 N   0  0  0  0  0  0  0  0  0  0  0  0
   -2.4169   -0.6065   -0.2909 N   0  0  0  0  0  0  0  0  0  0  0  0
   -2.5847    0.6788   -0.3884 C   0  0  0  0  0  0  0  0  0  0  0  0
   -1.4859    1.6984   -0.5597 C   0  0  0  0  0  0  0  0  0  0  0  0
   -3.9600    1.2111   -0.3132 C   0  0  0  0  0  0  0  0  0  0  0  0
   -4.3678    1.8687    0.8514 C   0  0  0  0  0  0  0  0  0  0  0  0
   -5.6623    2.3845    0.9313 C   0  0  0  0  0  0  0  0  0  0  0  0
   -6.5381    2.2496   -0.1486 C   0  0  0  0  0  0  0  0  0  0  0  0
   -6.1267    1.5915   -1.3102 C   0  0  0  0  0  0  0  0  0  0  0  0
   -4.8411    1.0549   -1.3861 C   0  0  0  0  0  0  0  0  0  0  0  0
   -4.4291    0.4606   -2.5493 O   0  0  0  0  0  0  0  0  0  0  0  0
   -4.9061   -0.8865   -2.6085 C   0  0  0  0  0  0  0  0  0  0  0  0
    0.6819   -4.2812   -0.7294 N   0  0  0  0  0  0  0  0  0  0  0  0
    1.9860   -4.4575   -0.8117 N   0  0  0  0  0  0  0  0  0  0  0  0
    2.6111   -3.2712   -0.5855 N   0  0  0  0  0  0  0  0  0  0  0  0
    4.0270   -3.1821   -0.5529 C   0  0  0  0  0  0  0  0  0  0  0  0
    4.6442   -2.0365   -0.2624 N   0  0  0  0  0  0  0  0  0  0  0  0
    5.9993   -2.3583   -0.3094 O   0  0  0  0  0  0  0  0  0  0  0  0
    6.1894   -3.6997   -0.6227 N   0  0  0  0  0  0  0  0  0  0  0  0
    4.9668   -4.2058   -0.7800 C   0  0  0  0  0  0  0  0  0  0  0  0
    4.7107   -5.4877   -1.1040 N   0  0  0  0  0  0  0  0  0  0  0  0
    2.2254    0.0047   -1.1486 C   0  0  0  0  0  0  0  0  0  0  0  0
    2.4552    1.3547   -0.8735 C   0  0  0  0  0  0  0  0  0  0  0  0
    3.8039    4.2466    3.5263 H   0  0  0  0  0  0  0  0  0  0  0  0
    4.1392    2.6719    2.7771 H   0  0  0  0  0  0  0  0  0  0  0  0
    4.6661    4.1442    1.9740 H   0  0  0  0  0  0  0  0  0  0  0  0
    2.3120    4.8529    1.6518 H   0  0  0  0  0  0  0  0  0  0  0  0
    1.6998    3.4094    2.4243 H   0  0  0  0  0  0  0  0  0  0  0  0
    2.0624    1.2811    2.5092 H   0  0  0  0  0  0  0  0  0  0  0  0
    1.6469   -1.0667    2.0335 H   0  0  0  0  0  0  0  0  0  0  0  0
   -0.3882   -0.4880   -0.5696 H   0  0  0  0  0  0  0  0  0  0  0  0
   -0.8260    1.6670    0.3116 H   0  0  0  0  0  0  0  0  0  0  0  0
   -1.8903    2.7107   -0.6514 H   0  0  0  0  0  0  0  0  0  0  0  0
   -0.9139    1.4773   -1.4653 H   0  0  0  0  0  0  0  0  0  0  0  0
   -3.6908    1.9713    1.6945 H   0  0  0  0  0  0  0  0  0  0  0  0
   -5.9907    2.8929    1.8350 H   0  0  0  0  0  0  0  0  0  0  0  0
   -7.5436    2.6599   -0.0872 H   0  0  0  0  0  0  0  0  0  0  0  0
   -6.8055    1.5047   -2.1538 H   0  0  0  0  0  0  0  0  0  0  0  0
   -4.3994   -1.3844   -3.4404 H   0  0  0  0  0  0  0  0  0  0  0  0
   -5.9830   -0.9042   -2.8081 H   0  0  0  0  0  0  0  0  0  0  0  0
   -4.6836   -1.4436   -1.6916 H   0  0  0  0  0  0  0  0  0  0  0  0
    3.7719   -5.8759   -1.0118 H   0  0  0  0  0  0  0  0  0  0  0  0
    5.4547   -6.1731   -1.0243 H   0  0  0  0  0  0  0  0  0  0  0  0
    2.2826   -0.3412   -2.1787 H   0  0  0  0  0  0  0  0  0  0  0  0
    2.6887    2.0371   -1.6882 H   0  0  0  0  0  0  0  0  0  0  0  0
  1  2  1  0
  2  3  1  0
  3  4  1  0
  4  5  2  0
  5  6  1  0
  6  7  2  0
  7  8  1  0
  8  9  2  0
  9 10  1  0
 10 11  2  0
 10 12  1  0
 12 13  1  0
 13 14  2  3
 14 15  1  0
 14 16  1  0
 16 17  2  0
 17 18  1  0
 18 19  2  0
 19 20  1  0
 20 21  2  0
 21 22  1  0
 22 23  1  0
  9 24  1  0
 24 25  2  0
 25 26  1  0
 26 27  1  0
 27 28  2  0
 28 29  1  0
 29 30  1  0
 30 31  2  0
 31 32  1  0
  7 33  1  0
 33 34  2  0
 34  4  1  0
 26  8  1  0
 31 27  1  0
 21 16  1  0
  1 35  1  0
  1 36  1  0
  1 37  1  0
  2 38  1  0
  2 39  1  0
  5 40  1  0
  6 41  1  0
 12 42  1  0
 15 43  1  0
 15 44  1  0
 15 45  1  0
 17 46  1  0
 18 47  1  0
 19 48  1  0
 20 49  1  0
 23 50  1  0
 23 51  1  0
 23 52  1  0
 32 53  1  0
 32 54  1  0
 33 55  1  0
 34 56  1  0
M  END
$$$$
