
     RDKit          3D

 57 59  0  0  0  0  0  0  0  0999 V2000
    8.6951   -2.5237   -2.9788 C   0  0  0  0  0  0  0  0  0  0  0  0
    8.1877   -1.4820   -2.1548 O   0  0  0  0  0  0  0  0  0  0  0  0
    7.3986   -1.8560   -1.1021 C   0  0  0  0  0  0  0  0  0  0  0  0
    6.9299   -0.7990   -0.3193 C   0  0  0  0  0  0  0  0  0  0  0  0
    6.1140   -1.0389    0.7888 C   0  0  0  0  0  0  0  0  0  0  0  0
    5.7591   -2.3479    1.1368 C   0  0  0  0  0  0  0  0  0  0  0  0
    4.8616   -2.6054    2.3185 C   0  0  0  0  0  0  0  0  0  0  0  0
    3.4758   -2.5450    1.9356 N   0  0  0  0  0  0  0  0  0  0  0  0
    2.7275   -1.3991    2.0595 C   0  0  0  0  0  0  0  0  0  0  0  0
    3.0711   -0.3605    2.6063 O   0  0  0  0  0  0  0  0  0  0  0  0
    1.3299   -1.5059    1.4075 C   0  0  0  0  0  0  0  0  0  0  0  0
    1.0245   -2.5063    0.7742 O   0  0  0  0  0  0  0  0  0  0  0  0
    0.5402   -0.3997    1.6102 N   0  0  0  0  0  0  0  0  0  0  0  0
   -0.7158   -0.2074    0.9024 C   0  0  0  0  0  0  0  0  0  0  0  0
   -1.5766    0.9035    1.5497 C   0  0  0  0  0  0  0  0  0  0  0  0
   -0.7726    2.0999    1.6689 O   0  0  0  0  0  0  0  0  0  0  0  0
   -0.9930    2.8383    0.4636 C   0  0  0  0  0  0  0  0  0  0  0  0
   -2.4490    2.5977    0.1268 C   0  0  0  0  0  0  0  0  0  0  0  0
   -2.7668    1.3268    0.7941 N   0  0  0  0  0  0  0  0  0  0  0  0
   -3.6410    0.1626   -0.0290 S   0  0  0  0  0  6  0  0  0  0  0  0
   -3.9090   -0.9248    0.8851 O   0  0  0  0  0  0  0  0  0  0  0  0
   -2.9702   -0.0593   -1.2922 O   0  0  0  0  0  0  0  0  0  0  0  0
   -5.1789    0.9885   -0.3444 C   0  0  0  0  0  0  0  0  0  0  0  0
   -5.5661    1.2805   -1.6541 C   0  0  0  0  0  0  0  0  0  0  0  0
   -6.7795    1.9368   -1.8866 C   0  0  0  0  0  0  0  0  0  0  0  0
   -7.6021    2.2947   -0.8151 C   0  0  0  0  0  0  0  0  0  0  0  0
   -8.8052    2.9387   -0.9062 O   0  0  0  0  0  0  0  0  0  0  0  0
   -9.2821    3.2338   -2.2130 C   0  0  0  0  0  0  0  0  0  0  0  0
   -7.2038    1.9896    0.4911 C   0  0  0  0  0  0  0  0  0  0  0  0
   -5.9958    1.3340    0.7333 C   0  0  0  0  0  0  0  0  0  0  0  0
    6.2212   -3.4055    0.3423 C   0  0  0  0  0  0  0  0  0  0  0  0
    7.0388   -3.1616   -0.7678 C   0  0  0  0  0  0  0  0  0  0  0  0
    9.3408   -3.1999   -2.4086 H   0  0  0  0  0  0  0  0  0  0  0  0
    9.3053   -2.0633   -3.7617 H   0  0  0  0  0  0  0  0  0  0  0  0
    7.8829   -3.0709   -3.4686 H   0  0  0  0  0  0  0  0  0  0  0  0
    7.1998    0.2225   -0.5763 H   0  0  0  0  0  0  0  0  0  0  0  0
    5.7530   -0.1971    1.3775 H   0  0  0  0  0  0  0  0  0  0  0  0
    5.0475   -3.6047    2.7273 H   0  0  0  0  0  0  0  0  0  0  0  0
    5.0677   -1.8839    3.1176 H   0  0  0  0  0  0  0  0  0  0  0  0
    3.0863   -3.2695    1.3389 H   0  0  0  0  0  0  0  0  0  0  0  0
    1.0035    0.4141    2.0137 H   0  0  0  0  0  0  0  0  0  0  0  0
   -1.2464   -1.1641    0.8759 H   0  0  0  0  0  0  0  0  0  0  0  0
   -0.4465    0.0530   -0.1272 H   0  0  0  0  0  0  0  0  0  0  0  0
   -1.8650    0.6106    2.5647 H   0  0  0  0  0  0  0  0  0  0  0  0
   -0.7651    3.8957    0.6233 H   0  0  0  0  0  0  0  0  0  0  0  0
   -0.3276    2.4512   -0.3156 H   0  0  0  0  0  0  0  0  0  0  0  0
   -3.0793    3.3789    0.5655 H   0  0  0  0  0  0  0  0  0  0  0  0
   -2.6092    2.5919   -0.9544 H   0  0  0  0  0  0  0  0  0  0  0  0
   -4.9376    1.0009   -2.4971 H   0  0  0  0  0  0  0  0  0  0  0  0
   -7.0549    2.1508   -2.9145 H   0  0  0  0  0  0  0  0  0  0  0  0
  -10.2541    3.7259   -2.1106 H   0  0  0  0  0  0  0  0  0  0  0  0
   -8.6108    3.9279   -2.7295 H   0  0  0  0  0  0  0  0  0  0  0  0
   -9.4313    2.3189   -2.7956 H   0  0  0  0  0  0  0  0  0  0  0  0
   -7.8460    2.2618    1.3261 H   0  0  0  0  0  0  0  0  0  0  0  0
   -5.7013    1.0963    1.7529 H   0  0  0  0  0  0  0  0  0  0  0  0
    5.9476   -4.4312    0.5812 H   0  0  0  0  0  0  0  0  0  0  0  0
    7.3735   -4.0134   -1.3502 H   0  0  0  0  0  0  0  0  0  0  0  0
  1  2  1  0
  2  3  1  0
  3  4  2  0
  4  5  1  0
  5  6  2  0
  6  7  1  0
  7  8  1  0
  8  9  1  0
  9 10  2  0
  9 11  1  0
 11 12  2  0
 11 13  1  0
 13 14  1  0
 14 15  1  0
 15 16  1  0
 16 17  1  0
 17 18  1  0
 18 19  1  0
 19 20  1  0
 20 21  2  0
 20 22  2  0
 20 23  1  0
 23 24  2  0
 24 25  1  0
 25 26  2  0
 26 27  1  0
 27 28  1  0
 26 29  1  0
 29 30  2  0
  6 31  1  0
 31 32  2  0
 32  3  1  0
 19 15  1  0
 30 23  1  0
  1 33  1  0
  1 34  1  0
  1 35  1  0
  4 36  1  0
  5 37  1  0
  7 38  1  0
  7 39  1  0
  8 40  1  0
 13 41  1  0
 14 42  1  0
 14 43  1  0
 15 44  1  0
 17 45  1  0
 17 46  1  0
 18 47  1  0
 18 48  1  0
 24 49  1  0
 25 50  1  0
 28 51  1  0
 28 52  1  0
 28 53  1  0
 29 54  1  0
 30 55  1  0
 31 56  1  0
 32 57  1  0
M  END
$$$$
