
     RDKit          3D

 51 55  0  0  0  0  0  0  0  0999 V2000
    1.7067    1.7810   -1.7566 O   0  0  0  0  0  0  0  0  0  0  0  0
    1.0308    0.7629   -1.8775 C   0  0  0  0  0  0  0  0  0  0  0  0
   -0.1004    0.6939   -2.9137 C   0  0  0  0  0  0  0  0  0  0  0  0
   -1.4217    0.6691   -2.2698 N   0  0  0  0  0  0  0  0  0  0  0  0
   -1.8908   -0.5600   -1.8156 C   0  0  0  0  0  0  0  0  0  0  0  0
   -1.1936   -1.5785   -1.8674 O   0  0  0  0  0  0  0  0  0  0  0  0
   -3.3049   -0.6235   -1.2894 C   0  0  0  0  0  0  0  0  0  0  0  0
   -3.3922   -0.2791    0.1911 C   0  0  0  0  0  0  0  0  0  0  0  0
   -2.9959   -1.4476    1.0412 C   0  0  0  0  0  0  0  0  0  0  0  0
   -1.8050   -1.9005    1.5774 C   0  0  0  0  0  0  0  0  0  0  0  0
   -2.1046   -3.0924    2.2783 C   0  0  0  0  0  0  0  0  0  0  0  0
   -3.4544   -3.2982    2.1233 C   0  0  0  0  0  0  0  0  0  0  0  0
   -4.0040   -2.3100    1.3726 O   0  0  0  0  0  0  0  0  0  0  0  0
   -2.4585    1.2162    0.6968 S   0  0  0  0  0  0  0  0  0  0  0  0
   -2.6425    2.2355   -0.7596 C   0  0  0  0  0  0  0  0  0  0  0  0
   -3.2731    3.4760   -0.5751 C   0  0  0  0  0  0  0  0  0  0  0  0
   -3.3605    4.3943   -1.6196 C   0  0  0  0  0  0  0  0  0  0  0  0
   -2.8024    4.0888   -2.8548 C   0  0  0  0  0  0  0  0  0  0  0  0
   -2.1598    2.8639   -3.0476 C   0  0  0  0  0  0  0  0  0  0  0  0
   -2.0738    1.9171   -2.0125 C   0  0  0  0  0  0  0  0  0  0  0  0
    1.1846   -0.4181   -1.1706 N   0  0  0  0  0  0  0  0  0  0  0  0
    2.1193   -0.7149   -0.1614 C   0  0  0  0  0  0  0  0  0  0  0  0
    2.0571   -1.9996    0.3984 C   0  0  0  0  0  0  0  0  0  0  0  0
    2.9410   -2.3822    1.4102 C   0  0  0  0  0  0  0  0  0  0  0  0
    3.8938   -1.4806    1.8710 C   0  0  0  0  0  0  0  0  0  0  0  0
    3.9801   -0.2074    1.3005 C   0  0  0  0  0  0  0  0  0  0  0  0
    3.0865    0.1802    0.2986 C   0  0  0  0  0  0  0  0  0  0  0  0
    4.9168    0.7207    1.6827 O   0  0  0  0  0  0  0  0  0  0  0  0
    5.9750    0.1155    2.4329 C   0  0  0  0  0  0  0  0  0  0  0  0
    5.4136   -0.8221    3.4886 C   0  0  0  0  0  0  0  0  0  0  0  0
    4.7173   -1.9144    2.8778 O   0  0  0  0  0  0  0  0  0  0  0  0
    0.0329   -0.2129   -3.5162 H   0  0  0  0  0  0  0  0  0  0  0  0
    0.0093    1.5389   -3.5985 H   0  0  0  0  0  0  0  0  0  0  0  0
   -3.9475    0.0354   -1.8862 H   0  0  0  0  0  0  0  0  0  0  0  0
   -3.6890   -1.6342   -1.4828 H   0  0  0  0  0  0  0  0  0  0  0  0
   -4.4438   -0.0557    0.4132 H   0  0  0  0  0  0  0  0  0  0  0  0
   -0.8390   -1.4229    1.4791 H   0  0  0  0  0  0  0  0  0  0  0  0
   -1.4213   -3.7226    2.8293 H   0  0  0  0  0  0  0  0  0  0  0  0
   -4.1396   -4.0604    2.4668 H   0  0  0  0  0  0  0  0  0  0  0  0
   -3.6858    3.7462    0.3956 H   0  0  0  0  0  0  0  0  0  0  0  0
   -3.8501    5.3523   -1.4625 H   0  0  0  0  0  0  0  0  0  0  0  0
   -2.8650    4.8042   -3.6715 H   0  0  0  0  0  0  0  0  0  0  0  0
   -1.7646    2.6519   -4.0377 H   0  0  0  0  0  0  0  0  0  0  0  0
    0.5122   -1.1561   -1.3905 H   0  0  0  0  0  0  0  0  0  0  0  0
    1.3167   -2.7185    0.0547 H   0  0  0  0  0  0  0  0  0  0  0  0
    2.8797   -3.3771    1.8416 H   0  0  0  0  0  0  0  0  0  0  0  0
    3.1770    1.1825   -0.1066 H   0  0  0  0  0  0  0  0  0  0  0  0
    6.5476    0.9190    2.9065 H   0  0  0  0  0  0  0  0  0  0  0  0
    6.6387   -0.4128    1.7371 H   0  0  0  0  0  0  0  0  0  0  0  0
    4.7220   -0.3012    4.1627 H   0  0  0  0  0  0  0  0  0  0  0  0
    6.2254   -1.2424    4.0908 H   0  0  0  0  0  0  0  0  0  0  0  0
  1  2  2  0
  2  3  1  0
  3  4  1  0
  4  5  1  0
  5  6  2  0
  5  7  1  0
  7  8  1  0
  8  9  1  0
  9 10  2  0
 10 11  1  0
 11 12  2  0
 12 13  1  0
  8 14  1  0
 14 15  1  0
 15 16  2  0
 16 17  1  0
 17 18  2  0
 18 19  1  0
 19 20  2  0
  2 21  1  0
 21 22  1  0
 22 23  2  0
 23 24  1  0
 24 25  2  0
 25 26  1  0
 26 27  2  0
 26 28  1  0
 28 29  1  0
 29 30  1  0
 30 31  1  0
 20  4  1  0
 27 22  1  0
 13  9  1  0
 20 15  1  0
 31 25  1  0
  3 32  1  0
  3 33  1  0
  7 34  1  0
  7 35  1  0
  8 36  1  0
 10 37  1  0
 11 38  1  0
 12 39  1  0
 16 40  1  0
 17 41  1  0
 18 42  1  0
 19 43  1  0
 21 44  1  0
 23 45  1  0
 24 46  1  0
 27 47  1  0
 29 48  1  0
 29 49  1  0
 30 50  1  0
 30 51  1  0
M  END
$$$$
