
     RDKit          3D

 43 45  0  0  0  0  0  0  0  0999 V2000
   -6.7396   -1.4805   -0.5066 C   0  0  0  0  0  0  0  0  0  0  0  0
   -6.1226   -0.1633   -0.3622 N   0  0  0  0  0  0  0  0  0  0  0  0
   -6.4959    0.8251   -1.3733 C   0  0  0  0  0  0  0  0  0  0  0  0
   -4.8717   -0.0558    0.2570 C   0  0  0  0  0  0  0  0  0  0  0  0
   -4.1400    1.1459    0.2545 C   0  0  0  0  0  0  0  0  0  0  0  0
   -2.8945    1.2688    0.8883 C   0  0  0  0  0  0  0  0  0  0  0  0
   -2.3377    0.1841    1.5591 C   0  0  0  0  0  0  0  0  0  0  0  0
   -1.0373    0.2975    2.2203 C   0  0  0  0  0  0  0  0  0  0  0  0
    0.1626    0.2319    1.6192 C   0  0  0  0  0  0  0  0  0  0  0  0
    0.3945    0.0226    0.2029 C   0  0  0  0  0  0  0  0  0  0  0  0
    1.5744   -0.0363   -0.4360 C   0  0  0  0  0  0  0  0  0  0  0  0
    1.6672   -0.2981   -2.1365 S   0  0  0  0  0  0  0  0  0  0  0  0
    3.4270   -0.3747   -2.1358 C   0  0  0  0  0  0  0  0  0  0  0  0
    4.2263   -0.8628   -3.5250 S   0  0  0  0  0  0  0  0  0  0  0  0
    3.9138   -0.0732   -0.8687 N   0  0  0  0  0  0  0  0  0  0  0  0
    5.3072    0.0504   -0.5418 C   0  0  0  0  0  0  0  0  0  0  0  0
    6.2078    0.7049   -1.3961 C   0  0  0  0  0  0  0  0  0  0  0  0
    7.5620    0.8251   -1.0650 C   0  0  0  0  0  0  0  0  0  0  0  0
    8.0387    0.2993    0.1316 C   0  0  0  0  0  0  0  0  0  0  0  0
    7.1605   -0.3391    1.0010 C   0  0  0  0  0  0  0  0  0  0  0  0
    5.8068   -0.4560    0.6695 C   0  0  0  0  0  0  0  0  0  0  0  0
    2.9504    0.1062    0.1286 C   0  0  0  0  0  0  0  0  0  0  0  0
    3.1519    0.3807    1.3058 O   0  0  0  0  0  0  0  0  0  0  0  0
   -3.0417   -1.0154    1.5961 C   0  0  0  0  0  0  0  0  0  0  0  0
   -4.2878   -1.1254    0.9602 C   0  0  0  0  0  0  0  0  0  0  0  0
   -7.7266   -1.4069   -0.9774 H   0  0  0  0  0  0  0  0  0  0  0  0
   -6.9088   -1.9483    0.4693 H   0  0  0  0  0  0  0  0  0  0  0  0
   -6.1232   -2.1376   -1.1299 H   0  0  0  0  0  0  0  0  0  0  0  0
   -5.7677    0.8482   -2.1917 H   0  0  0  0  0  0  0  0  0  0  0  0
   -7.4747    0.5983   -1.8111 H   0  0  0  0  0  0  0  0  0  0  0  0
   -6.5883    1.8247   -0.9338 H   0  0  0  0  0  0  0  0  0  0  0  0
   -4.5255    2.0329   -0.2390 H   0  0  0  0  0  0  0  0  0  0  0  0
   -2.3712    2.2214    0.8515 H   0  0  0  0  0  0  0  0  0  0  0  0
   -1.0864    0.4455    3.2970 H   0  0  0  0  0  0  0  0  0  0  0  0
    1.0332    0.3393    2.2635 H   0  0  0  0  0  0  0  0  0  0  0  0
   -0.5080   -0.1060   -0.3959 H   0  0  0  0  0  0  0  0  0  0  0  0
    5.8751    1.1765   -2.3168 H   0  0  0  0  0  0  0  0  0  0  0  0
    8.2405    1.3399   -1.7408 H   0  0  0  0  0  0  0  0  0  0  0  0
    9.0904    0.3936    0.3895 H   0  0  0  0  0  0  0  0  0  0  0  0
    7.5244   -0.7455    1.9417 H   0  0  0  0  0  0  0  0  0  0  0  0
    5.1579   -0.9744    1.3724 H   0  0  0  0  0  0  0  0  0  0  0  0
   -2.6355   -1.8773    2.1196 H   0  0  0  0  0  0  0  0  0  0  0  0
   -4.7877   -2.0861    1.0334 H   0  0  0  0  0  0  0  0  0  0  0  0
  1  2  1  0
  2  3  1  0
  2  4  1  0
  4  5  2  0
  5  6  1  0
  6  7  2  0
  7  8  1  0
  8  9  2  3
  9 10  1  0
 10 11  2  3
 11 12  1  0
 12 13  1  0
 13 14  2  0
 13 15  1  0
 15 16  1  0
 16 17  2  0
 17 18  1  0
 18 19  2  0
 19 20  1  0
 20 21  2  0
 15 22  1  0
 22 23  2  0
  7 24  1  0
 24 25  2  0
 25  4  1  0
 22 11  1  0
 21 16  1  0
  1 26  1  0
  1 27  1  0
  1 28  1  0
  3 29  1  0
  3 30  1  0
  3 31  1  0
  5 32  1  0
  6 33  1  0
  8 34  1  0
  9 35  1  0
 10 36  1  0
 17 37  1  0
 18 38  1  0
 19 39  1  0
 20 40  1  0
 21 41  1  0
 24 42  1  0
 25 43  1  0
M  END
$$$$
