
     RDKit          3D

 40 42  0  0  0  0  0  0  0  0999 V2000
   -4.0475   -1.4983   -1.9730 C   0  0  0  0  0  0  0  0  0  0  0  0
   -4.8172   -0.6871   -0.9652 C   0  0  0  0  0  0  0  0  0  0  0  0
   -6.2221   -0.6909   -1.0446 C   0  0  0  0  0  0  0  0  0  0  0  0
   -6.9914    0.0374   -0.1406 C   0  0  0  0  0  0  0  0  0  0  0  0
   -6.3658    0.7795    0.8527 C   0  0  0  0  0  0  0  0  0  0  0  0
   -4.9716    0.7938    0.9450 C   0  0  0  0  0  0  0  0  0  0  0  0
   -4.1812    0.0647    0.0487 C   0  0  0  0  0  0  0  0  0  0  0  0
   -2.7669    0.0664    0.1121 N   0  0  0  0  0  0  0  0  0  0  0  0
   -1.9619    0.6563    1.0702 C   0  0  0  0  0  0  0  0  0  0  0  0
   -2.3175    1.2287    2.0921 O   0  0  0  0  0  0  0  0  0  0  0  0
   -0.5007    0.5259    0.8120 C   0  0  0  0  0  0  0  0  0  0  0  0
    0.3570    0.3010    1.8915 C   0  0  0  0  0  0  0  0  0  0  0  0
    1.7364    0.1739    1.6852 C   0  0  0  0  0  0  0  0  0  0  0  0
    2.2756    0.2840    0.4018 C   0  0  0  0  0  0  0  0  0  0  0  0
    3.6510    0.1766    0.1047 N   0  0  0  0  0  0  0  0  0  0  0  0
    4.6926   -0.1163    0.9778 C   0  0  0  0  0  0  0  0  0  0  0  0
    4.5404   -0.3658    2.1697 O   0  0  0  0  0  0  0  0  0  0  0  0
    6.0095   -0.1175    0.3490 C   0  0  0  0  0  0  0  0  0  0  0  0
    6.4703    0.2016   -0.9197 C   0  0  0  0  0  0  0  0  0  0  0  0
    7.8735   -0.0022   -0.9163 C   0  0  0  0  0  0  0  0  0  0  0  0
    8.1926   -0.4305    0.3479 C   0  0  0  0  0  0  0  0  0  0  0  0
    7.0799   -0.5023    1.1177 O   0  0  0  0  0  0  0  0  0  0  0  0
    1.4108    0.5331   -0.6744 C   0  0  0  0  0  0  0  0  0  0  0  0
    0.0309    0.6554   -0.4748 C   0  0  0  0  0  0  0  0  0  0  0  0
   -4.7140   -2.0108   -2.6749 H   0  0  0  0  0  0  0  0  0  0  0  0
   -3.3905   -0.8494   -2.5611 H   0  0  0  0  0  0  0  0  0  0  0  0
   -3.4521   -2.2658   -1.4680 H   0  0  0  0  0  0  0  0  0  0  0  0
   -6.7291   -1.2667   -1.8162 H   0  0  0  0  0  0  0  0  0  0  0  0
   -8.0757    0.0257   -0.2113 H   0  0  0  0  0  0  0  0  0  0  0  0
   -6.9576    1.3524    1.5621 H   0  0  0  0  0  0  0  0  0  0  0  0
   -4.5312    1.3949    1.7344 H   0  0  0  0  0  0  0  0  0  0  0  0
   -2.2945   -0.4903   -0.5847 H   0  0  0  0  0  0  0  0  0  0  0  0
   -0.0432    0.2226    2.9011 H   0  0  0  0  0  0  0  0  0  0  0  0
    2.3580   -0.0006    2.5584 H   0  0  0  0  0  0  0  0  0  0  0  0
    3.8986    0.3067   -0.8644 H   0  0  0  0  0  0  0  0  0  0  0  0
    5.8821    0.5488   -1.7564 H   0  0  0  0  0  0  0  0  0  0  0  0
    8.5669    0.1480   -1.7321 H   0  0  0  0  0  0  0  0  0  0  0  0
    9.1162   -0.7095    0.8364 H   0  0  0  0  0  0  0  0  0  0  0  0
    1.7981    0.6443   -1.6844 H   0  0  0  0  0  0  0  0  0  0  0  0
   -0.6088    0.8825   -1.3237 H   0  0  0  0  0  0  0  0  0  0  0  0
  1  2  1  0
  2  3  2  0
  3  4  1  0
  4  5  2  0
  5  6  1  0
  6  7  2  0
  7  8  1  0
  8  9  1  0
  9 10  2  0
  9 11  1  0
 11 12  2  0
 12 13  1  0
 13 14  2  0
 14 15  1  0
 15 16  1  0
 16 17  2  0
 16 18  1  0
 18 19  2  0
 19 20  1  0
 20 21  2  0
 21 22  1  0
 14 23  1  0
 23 24  2  0
  7  2  1  0
 24 11  1  0
 22 18  1  0
  1 25  1  0
  1 26  1  0
  1 27  1  0
  3 28  1  0
  4 29  1  0
  5 30  1  0
  6 31  1  0
  8 32  1  0
 12 33  1  0
 13 34  1  0
 15 35  1  0
 19 36  1  0
 20 37  1  0
 21 38  1  0
 23 39  1  0
 24 40  1  0
M  END
$$$$
