
     RDKit          3D

 35 37  0  0  0  0  0  0  0  0999 V2000
   -4.2854   -1.0732    1.6743 C   0  0  0  0  0  0  0  0  0  0  0  0
   -3.9636   -0.1753    0.5111 C   0  0  0  0  0  0  0  0  0  0  0  0
   -4.6028    1.0687    0.3992 C   0  0  0  0  0  0  0  0  0  0  0  0
   -4.3183    1.9171   -0.6685 C   0  0  0  0  0  0  0  0  0  0  0  0
   -3.3929    1.5302   -1.6325 C   0  0  0  0  0  0  0  0  0  0  0  0
   -2.7490    0.2941   -1.5337 C   0  0  0  0  0  0  0  0  0  0  0  0
   -3.0297   -0.5656   -0.4668 C   0  0  0  0  0  0  0  0  0  0  0  0
   -2.4430   -1.7883   -0.2630 O   0  0  0  0  0  0  0  0  0  0  0  0
   -1.5386   -2.2792   -1.2436 C   0  0  0  0  0  0  0  0  0  0  0  0
   -0.1244   -1.6925   -1.1575 C   0  0  0  0  0  0  0  0  0  0  0  0
    0.6203   -1.7213   -2.1322 O   0  0  0  0  0  0  0  0  0  0  0  0
    0.1655   -1.2060    0.0969 N   0  0  0  0  0  0  0  0  0  0  0  0
    1.3356   -0.6309    0.5182 C   0  0  0  0  0  0  0  0  0  0  0  0
    1.4817   -0.1571    1.7361 N   0  0  0  0  0  0  0  0  0  0  0  0
    2.7424    0.3705    1.9392 N   0  0  0  0  0  0  0  0  0  0  0  0
    3.4966    0.2696    0.8622 C   0  0  0  0  0  0  0  0  0  0  0  0
    4.8496    0.7422    0.8096 C   0  0  0  0  0  0  0  0  0  0  0  0
    5.5798    1.3598    1.8149 C   0  0  0  0  0  0  0  0  0  0  0  0
    6.8650    1.6436    1.2940 C   0  0  0  0  0  0  0  0  0  0  0  0
    6.8560    1.1865   -0.0000 C   0  0  0  0  0  0  0  0  0  0  0  0
    5.6512    0.6429   -0.3032 O   0  0  0  0  0  0  0  0  0  0  0  0
    2.7153   -0.4785   -0.4673 S   0  0  0  0  0  0  0  0  0  0  0  0
   -3.3855   -1.2577    2.2701 H   0  0  0  0  0  0  0  0  0  0  0  0
   -4.6879   -2.0266    1.3171 H   0  0  0  0  0  0  0  0  0  0  0  0
   -5.0345   -0.6238    2.3347 H   0  0  0  0  0  0  0  0  0  0  0  0
   -5.3276    1.3847    1.1465 H   0  0  0  0  0  0  0  0  0  0  0  0
   -4.8173    2.8796   -0.7470 H   0  0  0  0  0  0  0  0  0  0  0  0
   -3.1683    2.1931   -2.4647 H   0  0  0  0  0  0  0  0  0  0  0  0
   -2.0324    0.0459   -2.3100 H   0  0  0  0  0  0  0  0  0  0  0  0
   -1.4357   -3.3563   -1.0676 H   0  0  0  0  0  0  0  0  0  0  0  0
   -1.9400   -2.1656   -2.2571 H   0  0  0  0  0  0  0  0  0  0  0  0
   -0.5763   -1.2013    0.7886 H   0  0  0  0  0  0  0  0  0  0  0  0
    5.2137    1.5761    2.8101 H   0  0  0  0  0  0  0  0  0  0  0  0
    7.6927    2.1213    1.7992 H   0  0  0  0  0  0  0  0  0  0  0  0
    7.5880    1.1731   -0.7959 H   0  0  0  0  0  0  0  0  0  0  0  0
  1  2  1  0
  2  3  2  0
  3  4  1  0
  4  5  2  0
  5  6  1  0
  6  7  2  0
  7  8  1  0
  8  9  1  0
  9 10  1  0
 10 11  2  0
 10 12  1  0
 12 13  1  0
 13 14  2  0
 14 15  1  0
 15 16  2  0
 16 17  1  0
 17 18  2  0
 18 19  1  0
 19 20  2  0
 20 21  1  0
 16 22  1  0
  7  2  1  0
 22 13  1  0
 21 17  1  0
  1 23  1  0
  1 24  1  0
  1 25  1  0
  3 26  1  0
  4 27  1  0
  5 28  1  0
  6 29  1  0
  9 30  1  0
  9 31  1  0
 12 32  1  0
 18 33  1  0
 19 34  1  0
 20 35  1  0
M  END
$$$$
