
     RDKit          3D

 34 35  0  0  0  0  0  0  0  0999 V2000
   -0.9541    1.2871   -2.7030 C   0  0  0  0  0  0  0  0  0  0  0  0
    0.2996    0.8980   -2.0724 N   0  0  0  0  0  0  0  0  0  0  0  0
    0.2935    0.3480   -0.9003 C   0  0  0  0  0  0  0  0  0  0  0  0
    1.6079   -0.0423   -0.2768 C   0  0  0  0  0  0  0  0  0  0  0  0
    2.7931    0.2028   -0.9855 C   0  0  0  0  0  0  0  0  0  0  0  0
    4.0325   -0.1440   -0.4426 C   0  0  0  0  0  0  0  0  0  0  0  0
    4.1002   -0.7395    0.8147 C   0  0  0  0  0  0  0  0  0  0  0  0
    2.9302   -0.9885    1.5294 C   0  0  0  0  0  0  0  0  0  0  0  0
    1.6884   -0.6423    0.9881 C   0  0  0  0  0  0  0  0  0  0  0  0
   -0.9551    0.0787   -0.1301 C   0  0  0  0  0  0  0  0  0  0  0  0
   -1.4470    1.0619    0.7538 C   0  0  0  0  0  0  0  0  0  0  0  0
   -0.7432    2.3754    0.9554 C   0  0  0  0  0  0  0  0  0  0  0  0
   -2.6078    0.7818    1.4866 C   0  0  0  0  0  0  0  0  0  0  0  0
   -3.2644   -0.4400    1.3384 C   0  0  0  0  0  0  0  0  0  0  0  0
   -2.7697   -1.4041    0.4599 C   0  0  0  0  0  0  0  0  0  0  0  0
   -1.6116   -1.1597   -0.2896 C   0  0  0  0  0  0  0  0  0  0  0  0
   -1.0841   -2.2282   -1.2069 C   0  0  0  0  0  0  0  0  0  0  0  0
   -0.7320    1.7293   -3.6796 H   0  0  0  0  0  0  0  0  0  0  0  0
   -1.6069    0.4278   -2.8823 H   0  0  0  0  0  0  0  0  0  0  0  0
   -1.4870    2.0458   -2.1224 H   0  0  0  0  0  0  0  0  0  0  0  0
    2.7578    0.6673   -1.9689 H   0  0  0  0  0  0  0  0  0  0  0  0
    4.9423    0.0523   -1.0040 H   0  0  0  0  0  0  0  0  0  0  0  0
    5.0647   -1.0094    1.2371 H   0  0  0  0  0  0  0  0  0  0  0  0
    2.9828   -1.4534    2.5108 H   0  0  0  0  0  0  0  0  0  0  0  0
    0.7988   -0.8521    1.5749 H   0  0  0  0  0  0  0  0  0  0  0  0
   -1.3466    3.0609    1.5603 H   0  0  0  0  0  0  0  0  0  0  0  0
   -0.5576    2.8732   -0.0008 H   0  0  0  0  0  0  0  0  0  0  0  0
    0.2068    2.2201    1.4759 H   0  0  0  0  0  0  0  0  0  0  0  0
   -3.0106    1.5153    2.1822 H   0  0  0  0  0  0  0  0  0  0  0  0
   -4.1652   -0.6432    1.9129 H   0  0  0  0  0  0  0  0  0  0  0  0
   -3.2970   -2.3514    0.3660 H   0  0  0  0  0  0  0  0  0  0  0  0
   -0.9062   -1.8323   -2.2109 H   0  0  0  0  0  0  0  0  0  0  0  0
   -0.1534   -2.6437   -0.8087 H   0  0  0  0  0  0  0  0  0  0  0  0
   -1.7992   -3.0515   -1.3106 H   0  0  0  0  0  0  0  0  0  0  0  0
  1  2  1  0
  2  3  2  3
  3  4  1  0
  4  5  2  0
  5  6  1  0
  6  7  2  0
  7  8  1  0
  8  9  2  0
  3 10  1  0
 10 11  2  0
 11 12  1  0
 11 13  1  0
 13 14  2  0
 14 15  1  0
 15 16  2  0
 16 17  1  0
  9  4  1  0
 16 10  1  0
  1 18  1  0
  1 19  1  0
  1 20  1  0
  5 21  1  0
  6 22  1  0
  7 23  1  0
  8 24  1  0
  9 25  1  0
 12 26  1  0
 12 27  1  0
 12 28  1  0
 13 29  1  0
 14 30  1  0
 15 31  1  0
 17 32  1  0
 17 33  1  0
 17 34  1  0
M  END
$$$$
