
     RDKit          3D

 43 45  0  0  0  0  0  0  0  0999 V2000
    7.3919   -2.5086   -0.8208 O   0  0  0  0  0  0  0  0  0  0  0  0
    7.9854   -1.6435   -0.1999 C   0  0  0  0  0  0  0  0  0  0  0  0
    9.3271   -1.7206   -0.0632 O   0  0  0  0  0  0  0  0  0  0  0  0
    7.4225   -0.4233    0.4893 C   0  0  0  0  0  0  0  0  0  0  0  0
    5.9232   -0.2937    0.3730 C   0  0  0  0  0  0  0  0  0  0  0  0
    5.3486    0.4646   -0.6544 C   0  0  0  0  0  0  0  0  0  0  0  0
    3.9574    0.5693   -0.7747 C   0  0  0  0  0  0  0  0  0  0  0  0
    3.1167   -0.0885    0.1228 C   0  0  0  0  0  0  0  0  0  0  0  0
    1.7076   -0.0387    0.0674 N   0  0  0  0  0  0  0  0  0  0  0  0
    0.9261    0.5759   -0.8931 C   0  0  0  0  0  0  0  0  0  0  0  0
    1.3107    1.1537   -1.9028 O   0  0  0  0  0  0  0  0  0  0  0  0
   -0.5426    0.4635   -0.6676 C   0  0  0  0  0  0  0  0  0  0  0  0
   -1.1019    0.5302    0.6135 C   0  0  0  0  0  0  0  0  0  0  0  0
   -2.4885    0.4182    0.7834 C   0  0  0  0  0  0  0  0  0  0  0  0
   -3.3306    0.2513   -0.3192 C   0  0  0  0  0  0  0  0  0  0  0  0
   -4.7347    0.1403   -0.2392 N   0  0  0  0  0  0  0  0  0  0  0  0
   -5.5349    0.2028    0.8956 C   0  0  0  0  0  0  0  0  0  0  0  0
   -5.1028    0.3598    2.0339 O   0  0  0  0  0  0  0  0  0  0  0  0
   -6.9624    0.0780    0.6180 C   0  0  0  0  0  0  0  0  0  0  0  0
   -7.6978   -0.2291   -0.5171 C   0  0  0  0  0  0  0  0  0  0  0  0
   -9.0671   -0.1772   -0.1526 C   0  0  0  0  0  0  0  0  0  0  0  0
   -9.0938    0.1542    1.1778 C   0  0  0  0  0  0  0  0  0  0  0  0
   -7.8339    0.2981    1.6555 O   0  0  0  0  0  0  0  0  0  0  0  0
   -2.7643    0.2077   -1.6002 C   0  0  0  0  0  0  0  0  0  0  0  0
   -1.3811    0.3182   -1.7757 C   0  0  0  0  0  0  0  0  0  0  0  0
    3.6908   -0.8477    1.1498 C   0  0  0  0  0  0  0  0  0  0  0  0
    5.0801   -0.9531    1.2735 C   0  0  0  0  0  0  0  0  0  0  0  0
    9.5618   -2.5357   -0.5543 H   0  0  0  0  0  0  0  0  0  0  0  0
    7.8996    0.4673    0.0618 H   0  0  0  0  0  0  0  0  0  0  0  0
    7.6983   -0.4664    1.5514 H   0  0  0  0  0  0  0  0  0  0  0  0
    5.9752    0.9820   -1.3782 H   0  0  0  0  0  0  0  0  0  0  0  0
    3.5631    1.1716   -1.5873 H   0  0  0  0  0  0  0  0  0  0  0  0
    1.2267   -0.5790    0.7746 H   0  0  0  0  0  0  0  0  0  0  0  0
   -0.4822    0.7051    1.4903 H   0  0  0  0  0  0  0  0  0  0  0  0
   -2.8753    0.4771    1.7960 H   0  0  0  0  0  0  0  0  0  0  0  0
   -5.2121    0.0420   -1.1238 H   0  0  0  0  0  0  0  0  0  0  0  0
   -7.3108   -0.4734   -1.4940 H   0  0  0  0  0  0  0  0  0  0  0  0
   -9.9272   -0.3580   -0.7823 H   0  0  0  0  0  0  0  0  0  0  0  0
   -9.8860    0.3122    1.8971 H   0  0  0  0  0  0  0  0  0  0  0  0
   -3.3869    0.1005   -2.4853 H   0  0  0  0  0  0  0  0  0  0  0  0
   -0.9604    0.2999   -2.7784 H   0  0  0  0  0  0  0  0  0  0  0  0
    3.0676   -1.3780    1.8651 H   0  0  0  0  0  0  0  0  0  0  0  0
    5.4968   -1.5608    2.0743 H   0  0  0  0  0  0  0  0  0  0  0  0
  1  2  2  0
  2  3  1  0
  2  4  1  0
  4  5  1  0
  5  6  2  0
  6  7  1  0
  7  8  2  0
  8  9  1  0
  9 10  1  0
 10 11  2  0
 10 12  1  0
 12 13  2  0
 13 14  1  0
 14 15  2  0
 15 16  1  0
 16 17  1  0
 17 18  2  0
 17 19  1  0
 19 20  2  0
 20 21  1  0
 21 22  2  0
 22 23  1  0
 15 24  1  0
 24 25  2  0
  8 26  1  0
 26 27  2  0
 27  5  1  0
 25 12  1  0
 23 19  1  0
  3 28  1  0
  4 29  1  0
  4 30  1  0
  6 31  1  0
  7 32  1  0
  9 33  1  0
 13 34  1  0
 14 35  1  0
 16 36  1  0
 20 37  1  0
 21 38  1  0
 22 39  1  0
 24 40  1  0
 25 41  1  0
 26 42  1  0
 27 43  1  0
M  END
$$$$
