
     RDKit          3D

 78 81  0  0  0  0  0  0  0  0999 V2000
   -0.8773    2.8042   -2.4865 C   0  0  0  0  0  0  0  0  0  0  0  0
   -0.8017    2.7937   -0.9519 C   0  0  0  0  0  0  0  0  0  0  0  0
   -1.8177    3.7666   -0.3484 C   0  0  0  0  0  0  0  0  0  0  0  0
   -1.5047    4.5217    0.8790 N   0  0  0  0  0  0  0  0  0  0  0  0
   -2.4397    5.6581    1.1245 C   0  0  0  0  0  0  0  0  0  0  0  0
   -3.6714    5.2420    1.9446 C   0  0  0  0  0  0  0  0  0  0  0  0
   -1.7689    6.9164    1.7221 C   0  0  0  0  0  0  0  0  0  0  0  0
   -2.5296    8.0807    1.3804 O   0  0  0  0  0  0  0  0  0  0  0  0
   -0.7352    4.1048    1.9808 C   0  0  0  0  0  0  0  0  0  0  0  0
   -0.8506    4.6270    3.0923 O   0  0  0  0  0  0  0  0  0  0  0  0
    0.3910    3.1517    1.8764 C   0  0  0  0  0  0  0  0  0  0  0  0
    1.6365    3.6280    2.3134 C   0  0  0  0  0  0  0  0  0  0  0  0
    2.7358    2.7765    2.3748 C   0  0  0  0  0  0  0  0  0  0  0  0
    2.5918    1.4271    2.0507 C   0  0  0  0  0  0  0  0  0  0  0  0
    1.3538    0.9149    1.6442 C   0  0  0  0  0  0  0  0  0  0  0  0
    1.1438   -0.4594    1.3682 N   0  0  0  0  0  0  0  0  0  0  0  0
    2.0217   -1.5149    1.5825 C   0  0  0  0  0  0  0  0  0  0  0  0
    3.1356   -1.4060    2.0810 O   0  0  0  0  0  0  0  0  0  0  0  0
    1.4674   -2.7068    1.1458 N   0  0  0  0  0  0  0  0  0  0  0  0
    2.0326   -3.9972    1.2078 C   0  0  0  0  0  0  0  0  0  0  0  0
    1.3509   -5.0245    0.5406 C   0  0  0  0  0  0  0  0  0  0  0  0
    1.8404   -6.3349    0.5471 C   0  0  0  0  0  0  0  0  0  0  0  0
    3.0227   -6.6464    1.2317 C   0  0  0  0  0  0  0  0  0  0  0  0
    3.5744   -8.0505    1.2459 C   0  0  0  0  0  0  0  0  0  0  0  0
    2.7224   -8.9754    0.7187 F   0  0  0  0  0  0  0  0  0  0  0  0
    3.8672   -8.4911    2.5015 F   0  0  0  0  0  0  0  0  0  0  0  0
    4.7294   -8.1588    0.5329 F   0  0  0  0  0  0  0  0  0  0  0  0
    3.7049   -5.6168    1.8980 C   0  0  0  0  0  0  0  0  0  0  0  0
    3.2105   -4.3062    1.8872 C   0  0  0  0  0  0  0  0  0  0  0  0
    0.2647    1.8073    1.5130 C   0  0  0  0  0  0  0  0  0  0  0  0
   -0.9468    1.3578    1.0602 O   0  0  0  0  0  0  0  0  0  0  0  0
   -0.9709    1.3565   -0.3865 C   0  0  0  0  0  0  0  0  0  0  0  0
   -2.2930    0.6521   -0.8069 C   0  0  0  0  0  0  0  0  0  0  0  0
   -2.3401   -0.7754   -0.4380 N   0  0  0  0  0  0  0  0  0  0  0  0
   -2.7765   -1.0823    0.9181 C   0  0  0  0  0  0  0  0  0  0  0  0
   -1.4259   -1.6581   -1.0159 C   0  0  0  0  0  0  0  0  0  0  0  0
   -0.7907   -2.4556   -0.3311 O   0  0  0  0  0  0  0  0  0  0  0  0
   -1.3400   -1.5228   -2.3824 N   0  0  0  0  0  0  0  0  0  0  0  0
   -0.4290   -2.1672   -3.2430 C   0  0  0  0  0  0  0  0  0  0  0  0
   -0.7607   -2.2221   -4.6059 C   0  0  0  0  0  0  0  0  0  0  0  0
    0.1009   -2.8378   -5.5190 C   0  0  0  0  0  0  0  0  0  0  0  0
    1.2935   -3.3903   -5.0726 C   0  0  0  0  0  0  0  0  0  0  0  0
    2.1187   -3.9780   -5.9484 F   0  0  0  0  0  0  0  0  0  0  0  0
    1.6405   -3.3357   -3.7289 C   0  0  0  0  0  0  0  0  0  0  0  0
    0.7815   -2.7193   -2.8127 C   0  0  0  0  0  0  0  0  0  0  0  0
   -0.5682    3.7801   -2.8768 H   0  0  0  0  0  0  0  0  0  0  0  0
   -1.8925    2.6181   -2.8522 H   0  0  0  0  0  0  0  0  0  0  0  0
   -0.2030    2.0536   -2.9142 H   0  0  0  0  0  0  0  0  0  0  0  0
    0.2064    3.1590   -0.7217 H   0  0  0  0  0  0  0  0  0  0  0  0
   -2.0146    4.5295   -1.1119 H   0  0  0  0  0  0  0  0  0  0  0  0
   -2.7792    3.2700   -0.1698 H   0  0  0  0  0  0  0  0  0  0  0  0
   -2.8214    5.9707    0.1413 H   0  0  0  0  0  0  0  0  0  0  0  0
   -4.3957    6.0659    1.9954 H   0  0  0  0  0  0  0  0  0  0  0  0
   -4.1727    4.3842    1.4873 H   0  0  0  0  0  0  0  0  0  0  0  0
   -3.4080    4.9632    2.9713 H   0  0  0  0  0  0  0  0  0  0  0  0
   -0.7618    7.0538    1.3079 H   0  0  0  0  0  0  0  0  0  0  0  0
   -1.6996    6.8664    2.8131 H   0  0  0  0  0  0  0  0  0  0  0  0
   -2.2276    8.7906    1.9731 H   0  0  0  0  0  0  0  0  0  0  0  0
    1.7427    4.6628    2.6290 H   0  0  0  0  0  0  0  0  0  0  0  0
    3.7004    3.1557    2.7085 H   0  0  0  0  0  0  0  0  0  0  0  0
    3.4735    0.7959    2.1362 H   0  0  0  0  0  0  0  0  0  0  0  0
    0.1983   -0.7173    1.1181 H   0  0  0  0  0  0  0  0  0  0  0  0
    0.5918   -2.6384    0.6315 H   0  0  0  0  0  0  0  0  0  0  0  0
    0.4294   -4.8130   -0.0009 H   0  0  0  0  0  0  0  0  0  0  0  0
    1.2918   -7.1111    0.0111 H   0  0  0  0  0  0  0  0  0  0  0  0
    4.6276   -5.8326    2.4368 H   0  0  0  0  0  0  0  0  0  0  0  0
    3.7694   -3.5504    2.4299 H   0  0  0  0  0  0  0  0  0  0  0  0
   -0.1369    0.7465   -0.7631 H   0  0  0  0  0  0  0  0  0  0  0  0
   -3.1624    1.1325   -0.3470 H   0  0  0  0  0  0  0  0  0  0  0  0
   -2.4285    0.7134   -1.8884 H   0  0  0  0  0  0  0  0  0  0  0  0
   -1.9890   -0.8363    1.6357 H   0  0  0  0  0  0  0  0  0  0  0  0
   -2.9965   -2.1527    0.9978 H   0  0  0  0  0  0  0  0  0  0  0  0
   -3.6835   -0.5177    1.1492 H   0  0  0  0  0  0  0  0  0  0  0  0
   -2.1852   -1.1669   -2.8109 H   0  0  0  0  0  0  0  0  0  0  0  0
   -1.6923   -1.7984   -4.9759 H   0  0  0  0  0  0  0  0  0  0  0  0
   -0.1637   -2.8979   -6.5709 H   0  0  0  0  0  0  0  0  0  0  0  0
    2.5818   -3.7683   -3.3965 H   0  0  0  0  0  0  0  0  0  0  0  0
    1.1069   -2.6642   -1.7761 H   0  0  0  0  0  0  0  0  0  0  0  0
  1  2  1  0
  2  3  1  0
  3  4  1  0
  4  5  1  0
  5  6  1  0
  5  7  1  0
  7  8  1  0
  4  9  1  0
  9 10  2  0
  9 11  1  0
 11 12  2  0
 12 13  1  0
 13 14  2  0
 14 15  1  0
 15 16  1  0
 16 17  1  0
 17 18  2  0
 17 19  1  0
 19 20  1  0
 20 21  2  0
 21 22  1  0
 22 23  2  0
 23 24  1  0
 24 25  1  0
 24 26  1  0
 24 27  1  0
 23 28  1  0
 28 29  2  0
 15 30  2  0
 30 31  1  0
 31 32  1  0
 32 33  1  0
 33 34  1  0
 34 35  1  0
 34 36  1  0
 36 37  2  0
 36 38  1  0
 38 39  1  0
 39 40  2  0
 40 41  1  0
 41 42  2  0
 42 43  1  0
 42 44  1  0
 44 45  2  0
 32  2  1  0
 45 39  1  0
 30 11  1  0
 29 20  1  0
  1 46  1  0
  1 47  1  0
  1 48  1  0
  2 49  1  0
  3 50  1  0
  3 51  1  0
  5 52  1  0
  6 53  1  0
  6 54  1  0
  6 55  1  0
  7 56  1  0
  7 57  1  0
  8 58  1  0
 12 59  1  0
 13 60  1  0
 14 61  1  0
 16 62  1  0
 19 63  1  0
 21 64  1  0
 22 65  1  0
 28 66  1  0
 29 67  1  0
 32 68  1  0
 33 69  1  0
 33 70  1  0
 35 71  1  0
 35 72  1  0
 35 73  1  0
 38 74  1  0
 40 75  1  0
 41 76  1  0
 44 77  1  0
 45 78  1  0
M  END
$$$$
