
     RDKit          3D

 56 59  0  0  0  0  0  0  0  0999 V2000
    9.5018   -0.5364    3.1374 C   0  0  0  0  0  0  0  0  0  0  0  0
    8.2660   -1.1868    3.4070 O   0  0  0  0  0  0  0  0  0  0  0  0
    7.1579   -0.7013    2.7693 C   0  0  0  0  0  0  0  0  0  0  0  0
    5.9574   -1.3195    3.1372 C   0  0  0  0  0  0  0  0  0  0  0  0
    4.7473   -0.9239    2.5653 C   0  0  0  0  0  0  0  0  0  0  0  0
    4.7445    0.0944    1.6106 C   0  0  0  0  0  0  0  0  0  0  0  0
    3.2033    0.5899    0.8848 S   0  0  0  0  0  6  0  0  0  0  0  0
    2.2594    0.7853    1.9612 O   0  0  0  0  0  0  0  0  0  0  0  0
    3.4668    1.6332   -0.0841 O   0  0  0  0  0  0  0  0  0  0  0  0
    2.7499   -0.7725    0.0260 N   0  0  0  0  0  0  0  0  0  0  0  0
    3.6183   -1.2565   -1.0580 C   0  0  0  0  0  0  0  0  0  0  0  0
    2.6710   -1.4857   -2.2136 C   0  0  0  0  0  0  0  0  0  0  0  0
    1.4122   -1.7518   -1.5923 O   0  0  0  0  0  0  0  0  0  0  0  0
    1.3500   -0.8848   -0.4348 C   0  0  0  0  0  0  0  0  0  0  0  0
    0.6610    0.4450   -0.8449 C   0  0  0  0  0  0  0  0  0  0  0  0
   -0.6237    0.2482   -1.4973 N   0  0  0  0  0  0  0  0  0  0  0  0
   -1.7222   -0.2092   -0.8082 C   0  0  0  0  0  0  0  0  0  0  0  0
   -1.7936   -0.3683    0.4018 O   0  0  0  0  0  0  0  0  0  0  0  0
   -2.9266   -0.5549   -1.7141 C   0  0  0  0  0  0  0  0  0  0  0  0
   -2.8305   -0.4469   -2.9285 O   0  0  0  0  0  0  0  0  0  0  0  0
   -4.0321   -0.9720   -1.0159 N   0  0  0  0  0  0  0  0  0  0  0  0
   -5.2847   -1.2903   -1.6481 C   0  0  0  0  0  0  0  0  0  0  0  0
   -6.3689   -0.3574   -1.1744 C   0  0  0  0  0  0  0  0  0  0  0  0
   -7.2598   -0.7545   -0.1498 C   0  0  0  0  0  0  0  0  0  0  0  0
   -8.2577    0.1107    0.3112 C   0  0  0  0  0  0  0  0  0  0  0  0
   -8.3364    1.3615   -0.2611 C   0  0  0  0  0  0  0  0  0  0  0  0
   -7.4701    1.7608   -1.2512 C   0  0  0  0  0  0  0  0  0  0  0  0
   -6.4774    0.9304   -1.7271 C   0  0  0  0  0  0  0  0  0  0  0  0
   -7.7153    3.0298   -1.6746 O   0  0  0  0  0  0  0  0  0  0  0  0
   -8.8340    3.3838   -0.8349 C   0  0  0  0  0  0  0  0  0  0  0  0
   -9.2370    2.3278    0.0622 O   0  0  0  0  0  0  0  0  0  0  0  0
    5.9341    0.7239    1.2367 C   0  0  0  0  0  0  0  0  0  0  0  0
    7.1416    0.3216    1.8173 C   0  0  0  0  0  0  0  0  0  0  0  0
    9.7875   -0.6543    2.0869 H   0  0  0  0  0  0  0  0  0  0  0  0
    9.4629    0.5206    3.4211 H   0  0  0  0  0  0  0  0  0  0  0  0
   10.2725   -1.0170    3.7476 H   0  0  0  0  0  0  0  0  0  0  0  0
    5.9672   -2.1120    3.8827 H   0  0  0  0  0  0  0  0  0  0  0  0
    3.8198   -1.4060    2.8665 H   0  0  0  0  0  0  0  0  0  0  0  0
    4.4232   -0.5710   -1.3346 H   0  0  0  0  0  0  0  0  0  0  0  0
    4.0669   -2.2020   -0.7337 H   0  0  0  0  0  0  0  0  0  0  0  0
    2.5754   -0.5941   -2.8430 H   0  0  0  0  0  0  0  0  0  0  0  0
    2.9672   -2.3290   -2.8432 H   0  0  0  0  0  0  0  0  0  0  0  0
    0.7570   -1.4059    0.3237 H   0  0  0  0  0  0  0  0  0  0  0  0
    0.4930    1.0800    0.0304 H   0  0  0  0  0  0  0  0  0  0  0  0
    1.2750    0.9993   -1.5617 H   0  0  0  0  0  0  0  0  0  0  0  0
   -0.6665    0.1568   -2.5092 H   0  0  0  0  0  0  0  0  0  0  0  0
   -3.9626   -0.9671   -0.0021 H   0  0  0  0  0  0  0  0  0  0  0  0
   -5.5280   -2.3255   -1.3851 H   0  0  0  0  0  0  0  0  0  0  0  0
   -5.1985   -1.2458   -2.7395 H   0  0  0  0  0  0  0  0  0  0  0  0
   -7.1763   -1.7453    0.2933 H   0  0  0  0  0  0  0  0  0  0  0  0
   -8.9451   -0.1889    1.0944 H   0  0  0  0  0  0  0  0  0  0  0  0
   -5.8004    1.2706   -2.5050 H   0  0  0  0  0  0  0  0  0  0  0  0
   -9.6848    3.6429   -1.4757 H   0  0  0  0  0  0  0  0  0  0  0  0
   -8.5616    4.2637   -0.2402 H   0  0  0  0  0  0  0  0  0  0  0  0
    5.9336    1.5269    0.5027 H   0  0  0  0  0  0  0  0  0  0  0  0
    8.0500    0.8288    1.5085 H   0  0  0  0  0  0  0  0  0  0  0  0
  1  2  1  0
  2  3  1  0
  3  4  2  0
  4  5  1  0
  5  6  2  0
  6  7  1  0
  7  8  2  0
  7  9  2  0
  7 10  1  0
 10 11  1  0
 11 12  1  0
 12 13  1  0
 13 14  1  0
 14 15  1  0
 15 16  1  0
 16 17  1  0
 17 18  2  0
 17 19  1  0
 19 20  2  0
 19 21  1  0
 21 22  1  0
 22 23  1  0
 23 24  2  0
 24 25  1  0
 25 26  2  0
 26 27  1  0
 27 28  2  0
 27 29  1  0
 29 30  1  0
 30 31  1  0
  6 32  1  0
 32 33  2  0
 33  3  1  0
 14 10  1  0
 28 23  1  0
 31 26  1  0
  1 34  1  0
  1 35  1  0
  1 36  1  0
  4 37  1  0
  5 38  1  0
 11 39  1  0
 11 40  1  0
 12 41  1  0
 12 42  1  0
 14 43  1  0
 15 44  1  0
 15 45  1  0
 16 46  1  0
 21 47  1  0
 22 48  1  0
 22 49  1  0
 24 50  1  0
 25 51  1  0
 28 52  1  0
 30 53  1  0
 30 54  1  0
 32 55  1  0
 33 56  1  0
M  END
$$$$
