
     RDKit          3D

 51 53  0  0  0  0  0  0  0  0999 V2000
    4.2306   -4.3964    1.1587 C   0  0  0  0  0  0  0  0  0  0  0  0
    4.1096   -3.0372    0.7611 O   0  0  0  0  0  0  0  0  0  0  0  0
    2.8473   -2.5033    0.7083 C   0  0  0  0  0  0  0  0  0  0  0  0
    1.6727   -3.2185    0.9705 C   0  0  0  0  0  0  0  0  0  0  0  0
    0.4296   -2.5842    0.9015 C   0  0  0  0  0  0  0  0  0  0  0  0
    0.3542   -1.2312    0.5697 C   0  0  0  0  0  0  0  0  0  0  0  0
   -0.9499   -0.5390    0.4969 C   0  0  0  0  0  0  0  0  0  0  0  0
   -2.0435   -1.1195    0.8755 N   0  0  0  0  0  0  0  0  0  0  0  0
   -3.2220   -0.4304    0.7360 N   0  0  0  0  0  0  0  0  0  0  0  0
   -3.5496    0.4267   -0.3037 C   0  0  0  0  0  0  0  0  0  0  0  0
   -2.7739    0.8021   -1.1808 O   0  0  0  0  0  0  0  0  0  0  0  0
   -4.9636    0.9339   -0.3236 C   0  0  0  0  0  0  0  0  0  0  0  0
   -5.2043    2.0837   -1.0981 C   0  0  0  0  0  0  0  0  0  0  0  0
   -6.4785    2.6464   -1.1705 C   0  0  0  0  0  0  0  0  0  0  0  0
   -7.5290    2.0682   -0.4664 C   0  0  0  0  0  0  0  0  0  0  0  0
   -7.3117    0.9188    0.2969 C   0  0  0  0  0  0  0  0  0  0  0  0
   -6.0387    0.3316    0.3614 C   0  0  0  0  0  0  0  0  0  0  0  0
   -5.7862   -0.8003    1.0952 O   0  0  0  0  0  0  0  0  0  0  0  0
   -6.8825   -1.6936    1.2846 C   0  0  0  0  0  0  0  0  0  0  0  0
    1.5193   -0.5095    0.2960 C   0  0  0  0  0  0  0  0  0  0  0  0
    2.7774   -1.1367    0.3563 C   0  0  0  0  0  0  0  0  0  0  0  0
    4.0606   -0.3725    0.0860 C   0  0  0  0  0  0  0  0  0  0  0  0
    3.7894    0.9262   -0.4494 O   0  0  0  0  0  0  0  0  0  0  0  0
    4.8497    1.7584   -0.6899 C   0  0  0  0  0  0  0  0  0  0  0  0
    4.5084    3.0362   -1.1524 C   0  0  0  0  0  0  0  0  0  0  0  0
    3.2184    3.3592   -1.3176 F   0  0  0  0  0  0  0  0  0  0  0  0
    5.4845    3.9869   -1.4449 C   0  0  0  0  0  0  0  0  0  0  0  0
    5.1290    5.2043   -1.8894 F   0  0  0  0  0  0  0  0  0  0  0  0
    6.8223    3.6747   -1.2789 C   0  0  0  0  0  0  0  0  0  0  0  0
    7.7665    4.5861   -1.5606 F   0  0  0  0  0  0  0  0  0  0  0  0
    7.1807    2.4144   -0.8225 C   0  0  0  0  0  0  0  0  0  0  0  0
    8.4738    2.1085   -0.6681 F   0  0  0  0  0  0  0  0  0  0  0  0
    6.2034    1.4612   -0.5295 C   0  0  0  0  0  0  0  0  0  0  0  0
    6.6039    0.2575   -0.0936 F   0  0  0  0  0  0  0  0  0  0  0  0
    5.2953   -4.6492    1.1649 H   0  0  0  0  0  0  0  0  0  0  0  0
    3.8472   -4.5439    2.1743 H   0  0  0  0  0  0  0  0  0  0  0  0
    3.7353   -5.0621    0.4456 H   0  0  0  0  0  0  0  0  0  0  0  0
    1.6864   -4.2748    1.2260 H   0  0  0  0  0  0  0  0  0  0  0  0
   -0.4757   -3.1531    1.1020 H   0  0  0  0  0  0  0  0  0  0  0  0
   -0.9187    0.5046    0.1402 H   0  0  0  0  0  0  0  0  0  0  0  0
   -3.9974   -0.8322    1.2587 H   0  0  0  0  0  0  0  0  0  0  0  0
   -4.3885    2.5523   -1.6477 H   0  0  0  0  0  0  0  0  0  0  0  0
   -6.6446    3.5386   -1.7695 H   0  0  0  0  0  0  0  0  0  0  0  0
   -8.5211    2.5129   -0.5090 H   0  0  0  0  0  0  0  0  0  0  0  0
   -8.1561    0.5098    0.8442 H   0  0  0  0  0  0  0  0  0  0  0  0
   -7.4166   -1.8822    0.3448 H   0  0  0  0  0  0  0  0  0  0  0  0
   -6.4769   -2.6477    1.6336 H   0  0  0  0  0  0  0  0  0  0  0  0
   -7.5620   -1.3184    2.0577 H   0  0  0  0  0  0  0  0  0  0  0  0
    1.4471    0.5440    0.0381 H   0  0  0  0  0  0  0  0  0  0  0  0
    4.5973   -0.2768    1.0379 H   0  0  0  0  0  0  0  0  0  0  0  0
    4.6510   -0.9347   -0.6473 H   0  0  0  0  0  0  0  0  0  0  0  0
  1  2  1  0
  2  3  1  0
  3  4  2  0
  4  5  1  0
  5  6  2  0
  6  7  1  0
  7  8  2  3
  8  9  1  0
  9 10  1  0
 10 11  2  0
 10 12  1  0
 12 13  2  0
 13 14  1  0
 14 15  2  0
 15 16  1  0
 16 17  2  0
 17 18  1  0
 18 19  1  0
  6 20  1  0
 20 21  2  0
 21 22  1  0
 22 23  1  0
 23 24  1  0
 24 25  2  0
 25 26  1  0
 25 27  1  0
 27 28  1  0
 27 29  2  0
 29 30  1  0
 29 31  1  0
 31 32  1  0
 31 33  2  0
 33 34  1  0
 21  3  1  0
 33 24  1  0
 17 12  1  0
  1 35  1  0
  1 36  1  0
  1 37  1  0
  4 38  1  0
  5 39  1  0
  7 40  1  0
  9 41  1  0
 13 42  1  0
 14 43  1  0
 15 44  1  0
 16 45  1  0
 19 46  1  0
 19 47  1  0
 19 48  1  0
 20 49  1  0
 22 50  1  0
 22 51  1  0
M  END
$$$$
