
     RDKit          3D

 70 75  0  0  0  0  0  0  0  0999 V2000
   -5.1616   -3.2991    2.4439 C   0  0  0  0  0  0  0  0  0  0  0  0
   -4.0723   -2.6684    1.6153 C   0  0  0  0  0  0  0  0  0  0  0  0
   -3.3705   -1.5632    2.1553 C   0  0  0  0  0  0  0  0  0  0  0  0
   -2.3538   -0.9251    1.4437 C   0  0  0  0  0  0  0  0  0  0  0  0
   -2.0491   -1.3980    0.1805 C   0  0  0  0  0  0  0  0  0  0  0  0
   -2.7274   -2.5036   -0.3504 C   0  0  0  0  0  0  0  0  0  0  0  0
   -3.7299   -3.1751    0.3401 C   0  0  0  0  0  0  0  0  0  0  0  0
   -4.4548   -4.3419   -0.2649 C   0  0  0  0  0  0  0  0  0  0  0  0
   -2.2376   -2.7878   -1.6246 N   0  0  0  0  0  0  0  0  0  0  0  0
   -1.2114   -1.9149   -1.9928 C   0  0  0  0  0  0  0  0  0  0  0  0
   -0.5803   -1.9797   -3.0373 O   0  0  0  0  0  0  0  0  0  0  0  0
   -1.0452   -0.9147   -0.8204 C   0  0  1  0  0  0  0  0  0  0  0  0
   -1.3666    0.4859   -1.2077 C   0  0  0  0  0  0  0  0  0  0  0  0
   -0.1841    1.2318   -1.3289 C   0  0  0  0  0  0  0  0  0  0  0  0
   -0.5021    2.5108   -1.6975 C   0  0  0  0  0  0  0  0  0  0  0  0
    0.2926    3.5619   -1.8833 O   0  0  0  0  0  0  0  0  0  0  0  0
   -1.9118    2.5812   -1.8139 N   0  0  0  0  0  0  0  0  0  0  0  0
   -2.6779    3.7432   -2.1833 C   0  0  0  0  0  0  0  0  0  0  0  0
   -2.1022    4.7735   -2.9417 C   0  0  0  0  0  0  0  0  0  0  0  0
   -2.8470    5.9026   -3.3001 C   0  0  0  0  0  0  0  0  0  0  0  0
   -4.1760    6.0192   -2.9059 C   0  0  0  0  0  0  0  0  0  0  0  0
   -4.7616    5.0060   -2.1537 C   0  0  0  0  0  0  0  0  0  0  0  0
   -4.0194    3.8753   -1.7949 C   0  0  0  0  0  0  0  0  0  0  0  0
   -2.4299    1.3028   -1.4959 C   0  0  0  0  0  0  0  0  0  0  0  0
   -3.7292    1.0150   -1.5408 O   0  0  0  0  0  0  0  0  0  0  0  0
    0.9914    0.3782   -1.0432 C   0  0  1  0  0  0  0  0  0  0  0  0
    2.0777    0.9343   -0.1243 C   0  0  0  0  0  0  0  0  0  0  0  0
    2.9489   -0.1204    0.4192 N   0  0  0  0  0  0  0  0  0  0  0  0
    4.0641    0.2690    1.1346 C   0  0  0  0  0  0  0  0  0  0  0  0
    4.3057    1.4369    1.4125 O   0  0  0  0  0  0  0  0  0  0  0  0
    4.8511   -0.7833    1.4721 O   0  0  0  0  0  0  0  0  0  0  0  0
    6.0763   -0.5907    2.2242 C   0  0  0  0  0  0  0  0  0  0  0  0
    6.6547   -2.0045    2.3906 C   0  0  0  0  0  0  0  0  0  0  0  0
    5.7922   -0.0126    3.6148 C   0  0  0  0  0  0  0  0  0  0  0  0
    7.0839    0.2598    1.4430 C   0  0  0  0  0  0  0  0  0  0  0  0
    2.7069   -1.5063   -0.0160 C   0  0  0  0  0  0  0  0  0  0  0  0
    1.2045   -1.8949   -0.1261 C   0  0  0  0  0  0  0  0  0  0  0  0
    0.3373   -0.7518   -0.3358 N   0  0  0  0  0  0  0  0  0  0  0  0
   -5.4129   -2.6818    3.3131 H   0  0  0  0  0  0  0  0  0  0  0  0
   -4.8375   -4.2790    2.8083 H   0  0  0  0  0  0  0  0  0  0  0  0
   -6.0771   -3.4111    1.8539 H   0  0  0  0  0  0  0  0  0  0  0  0
   -3.6236   -1.1895    3.1468 H   0  0  0  0  0  0  0  0  0  0  0  0
   -1.8248   -0.0752    1.8657 H   0  0  0  0  0  0  0  0  0  0  0  0
   -4.6900   -5.0979    0.4908 H   0  0  0  0  0  0  0  0  0  0  0  0
   -3.8484   -4.8491   -1.0214 H   0  0  0  0  0  0  0  0  0  0  0  0
   -5.3840   -4.0023   -0.7330 H   0  0  0  0  0  0  0  0  0  0  0  0
   -2.5388   -3.5426   -2.2221 H   0  0  0  0  0  0  0  0  0  0  0  0
    1.2083    3.2966   -1.6947 H   0  0  0  0  0  0  0  0  0  0  0  0
   -1.0808    4.7137   -3.3042 H   0  0  0  0  0  0  0  0  0  0  0  0
   -2.3848    6.6868   -3.8941 H   0  0  0  0  0  0  0  0  0  0  0  0
   -4.7534    6.8963   -3.1842 H   0  0  0  0  0  0  0  0  0  0  0  0
   -5.7975    5.0932   -1.8369 H   0  0  0  0  0  0  0  0  0  0  0  0
   -4.5118    3.1306   -1.1779 H   0  0  0  0  0  0  0  0  0  0  0  0
   -3.8505    0.1020   -1.2258 H   0  0  0  0  0  0  0  0  0  0  0  0
    1.4243    0.0324   -1.9919 H   0  0  0  0  0  0  0  0  0  0  0  0
    1.6454    1.4701    0.7310 H   0  0  0  0  0  0  0  0  0  0  0  0
    2.7010    1.6547   -0.6679 H   0  0  0  0  0  0  0  0  0  0  0  0
    6.8372   -2.4680    1.4139 H   0  0  0  0  0  0  0  0  0  0  0  0
    5.9452   -2.6563    2.9138 H   0  0  0  0  0  0  0  0  0  0  0  0
    7.5954   -1.9967    2.9512 H   0  0  0  0  0  0  0  0  0  0  0  0
    5.4383    1.0215    3.5641 H   0  0  0  0  0  0  0  0  0  0  0  0
    5.0093   -0.5878    4.1221 H   0  0  0  0  0  0  0  0  0  0  0  0
    6.6912   -0.0203    4.2406 H   0  0  0  0  0  0  0  0  0  0  0  0
    8.0655    0.2617    1.9294 H   0  0  0  0  0  0  0  0  0  0  0  0
    6.7611    1.3016    1.3569 H   0  0  0  0  0  0  0  0  0  0  0  0
    7.2017   -0.1183    0.4212 H   0  0  0  0  0  0  0  0  0  0  0  0
    3.1737   -1.5917   -1.0055 H   0  0  0  0  0  0  0  0  0  0  0  0
    3.2157   -2.2170    0.6428 H   0  0  0  0  0  0  0  0  0  0  0  0
    0.9040   -2.3841    0.8077 H   0  0  0  0  0  0  0  0  0  0  0  0
    1.1130   -2.6441   -0.9201 H   0  0  0  0  0  0  0  0  0  0  0  0
  1  2  1  0
  2  3  2  0
  3  4  1  0
  4  5  2  0
  5  6  1  0
  6  7  2  0
  7  8  1  0
  6  9  1  0
  9 10  1  0
 10 11  2  0
 10 12  1  0
 12 13  1  0
 13 14  1  0
 14 15  2  0
 15 16  1  0
 15 17  1  0
 17 18  1  0
 18 19  2  0
 19 20  1  0
 20 21  2  0
 21 22  1  0
 22 23  2  0
 17 24  1  0
 24 25  1  0
 14 26  1  0
 26 27  1  0
 27 28  1  0
 28 29  1  0
 29 30  2  0
 29 31  1  0
 31 32  1  0
 32 33  1  0
 32 34  1  0
 32 35  1  0
 28 36  1  0
 36 37  1  0
 37 38  1  0
  7  2  1  0
 12 38  1  1
 12  5  1  0
 24 13  2  0
 38 26  1  0
 23 18  1  0
  1 39  1  0
  1 40  1  0
  1 41  1  0
  3 42  1  0
  4 43  1  0
  8 44  1  0
  8 45  1  0
  8 46  1  0
  9 47  1  0
 16 48  1  0
 19 49  1  0
 20 50  1  0
 21 51  1  0
 22 52  1  0
 23 53  1  0
 25 54  1  0
 26 55  1  6
 27 56  1  0
 27 57  1  0
 33 58  1  0
 33 59  1  0
 33 60  1  0
 34 61  1  0
 34 62  1  0
 34 63  1  0
 35 64  1  0
 35 65  1  0
 35 66  1  0
 36 67  1  0
 36 68  1  0
 37 69  1  0
 37 70  1  0
M  END
$$$$
