
     RDKit          3D

 34 35  0  0  0  0  0  0  0  0999 V2000
    5.5374    1.4268   -0.1127 C   0  0  0  0  0  0  0  0  0  0  0  0
    4.7313    1.0221    1.1086 C   0  0  0  0  0  0  0  0  0  0  0  0
    3.3113    0.9227    0.8198 N   0  0  0  0  0  0  0  0  0  0  0  0
    2.5570    2.0350    0.9121 N   0  0  0  0  0  0  0  0  0  0  0  0
    1.3302    1.6125    0.6071 C   0  0  0  0  0  0  0  0  0  0  0  0
    1.2878    0.2323    0.3208 C   0  0  0  0  0  0  0  0  0  0  0  0
    0.1713   -0.5835   -0.0321 C   0  0  0  0  0  0  0  0  0  0  0  0
   -1.0906   -0.1520   -0.1896 C   0  0  0  0  0  0  0  0  0  0  0  0
   -2.1557   -1.1196   -0.5711 C   0  0  0  0  0  0  0  0  0  0  0  0
   -1.8933   -2.2614   -0.9350 O   0  0  0  0  0  0  0  0  0  0  0  0
   -3.5675   -0.6519   -0.5396 C   0  0  0  0  0  0  0  0  0  0  0  0
   -4.4769   -1.2439   -1.4263 C   0  0  0  0  0  0  0  0  0  0  0  0
   -5.8142   -0.8442   -1.4343 C   0  0  0  0  0  0  0  0  0  0  0  0
   -6.2518    0.1406   -0.5501 C   0  0  0  0  0  0  0  0  0  0  0  0
   -5.3565    0.7211    0.3480 C   0  0  0  0  0  0  0  0  0  0  0  0
   -4.0166    0.3245    0.3591 C   0  0  0  0  0  0  0  0  0  0  0  0
    2.5969   -0.1970    0.4574 C   0  0  0  0  0  0  0  0  0  0  0  0
    3.2279   -1.5329    0.2894 C   0  0  0  0  0  0  0  0  0  0  0  0
    6.6004    1.4926    0.1387 H   0  0  0  0  0  0  0  0  0  0  0  0
    5.2156    2.4022   -0.4928 H   0  0  0  0  0  0  0  0  0  0  0  0
    5.4220    0.6995   -0.9230 H   0  0  0  0  0  0  0  0  0  0  0  0
    5.0713    0.0567    1.4963 H   0  0  0  0  0  0  0  0  0  0  0  0
    4.8540    1.7580    1.9114 H   0  0  0  0  0  0  0  0  0  0  0  0
    0.5238    2.3334    0.6117 H   0  0  0  0  0  0  0  0  0  0  0  0
    0.3662   -1.6446   -0.1819 H   0  0  0  0  0  0  0  0  0  0  0  0
   -1.3603    0.8883   -0.0708 H   0  0  0  0  0  0  0  0  0  0  0  0
   -4.1443   -2.0185   -2.1150 H   0  0  0  0  0  0  0  0  0  0  0  0
   -6.5139   -1.3049   -2.1274 H   0  0  0  0  0  0  0  0  0  0  0  0
   -7.2947    0.4489   -0.5544 H   0  0  0  0  0  0  0  0  0  0  0  0
   -5.7058    1.4773    1.0473 H   0  0  0  0  0  0  0  0  0  0  0  0
   -3.3504    0.7709    1.0917 H   0  0  0  0  0  0  0  0  0  0  0  0
    3.4728   -1.9620    1.2663 H   0  0  0  0  0  0  0  0  0  0  0  0
    2.5675   -2.2330   -0.2298 H   0  0  0  0  0  0  0  0  0  0  0  0
    4.1476   -1.4624   -0.2999 H   0  0  0  0  0  0  0  0  0  0  0  0
  1  2  1  0
  2  3  1  0
  3  4  1  0
  4  5  2  0
  5  6  1  0
  6  7  1  0
  7  8  2  3
  8  9  1  0
  9 10  2  0
  9 11  1  0
 11 12  2  0
 12 13  1  0
 13 14  2  0
 14 15  1  0
 15 16  2  0
  6 17  2  0
 17 18  1  0
 17  3  1  0
 16 11  1  0
  1 19  1  0
  1 20  1  0
  1 21  1  0
  2 22  1  0
  2 23  1  0
  5 24  1  0
  7 25  1  0
  8 26  1  0
 12 27  1  0
 13 28  1  0
 14 29  1  0
 15 30  1  0
 16 31  1  0
 18 32  1  0
 18 33  1  0
 18 34  1  0
M  END
$$$$
