
     RDKit          3D

 56 58  0  0  0  0  0  0  0  0999 V2000
    8.2113    1.7363   -2.8237 C   0  0  0  0  0  0  0  0  0  0  0  0
    8.4774    0.9233   -1.5691 C   0  0  0  0  0  0  0  0  0  0  0  0
    8.0622    1.6397   -0.4059 O   0  0  0  0  0  0  0  0  0  0  0  0
    6.7929    1.4526    0.0624 C   0  0  0  0  0  0  0  0  0  0  0  0
    5.7695    0.7528   -0.5721 C   0  0  0  0  0  0  0  0  0  0  0  0
    4.5085    0.6320    0.0325 C   0  0  0  0  0  0  0  0  0  0  0  0
    4.2536    1.2122    1.2755 C   0  0  0  0  0  0  0  0  0  0  0  0
    3.0195    1.1249    1.9541 N   0  0  0  0  0  0  0  0  0  0  0  0
    1.8926    0.4164    1.5672 C   0  0  0  0  0  0  0  0  0  0  0  0
    1.7674   -0.2649    0.5555 O   0  0  0  0  0  0  0  0  0  0  0  0
    0.7712    0.5548    2.5794 C   0  0  0  0  0  0  0  0  0  0  0  0
   -0.4431   -0.2639    2.1627 C   0  0  0  0  0  0  0  0  0  0  0  0
   -1.4721   -0.1867    3.1994 N   0  0  0  0  0  0  0  0  0  0  0  0
   -2.8220    0.7791    3.0234 S   0  0  0  0  0  6  0  0  0  0  0  0
   -3.5439    0.7030    4.2749 O   0  0  0  0  0  0  0  0  0  0  0  0
   -2.3999    2.0419    2.4591 O   0  0  0  0  0  0  0  0  0  0  0  0
   -3.7629   -0.1148    1.8103 C   0  0  0  0  0  0  0  0  0  0  0  0
   -4.5467   -1.1972    2.2117 C   0  0  0  0  0  0  0  0  0  0  0  0
   -5.2847   -1.9110    1.2601 C   0  0  0  0  0  0  0  0  0  0  0  0
   -5.2542   -1.5501   -0.0979 C   0  0  0  0  0  0  0  0  0  0  0  0
   -4.4847   -0.4465   -0.4706 C   0  0  0  0  0  0  0  0  0  0  0  0
   -3.7415    0.2801    0.4744 C   0  0  0  0  0  0  0  0  0  0  0  0
   -4.4495   -0.0400   -1.8843 C   0  0  0  0  0  0  0  0  0  0  0  0
   -3.7408    0.9073   -2.2133 O   0  0  0  0  0  0  0  0  0  0  0  0
   -5.2300   -0.7716   -2.7645 N   0  0  0  0  0  0  0  0  0  0  0  0
   -5.2201   -0.3850   -4.1644 C   0  0  0  0  0  0  0  0  0  0  0  0
   -5.9564   -1.9106   -2.4327 C   0  0  0  0  0  0  0  0  0  0  0  0
   -6.5581   -2.5635   -3.2920 O   0  0  0  0  0  0  0  0  0  0  0  0
   -5.9679   -2.2763   -1.0890 N   0  0  0  0  0  0  0  0  0  0  0  0
   -6.7411   -3.4539   -0.7071 C   0  0  0  0  0  0  0  0  0  0  0  0
    5.2778    1.9301    1.9017 C   0  0  0  0  0  0  0  0  0  0  0  0
    6.5353    2.0480    1.2982 C   0  0  0  0  0  0  0  0  0  0  0  0
    8.7025    2.7115   -2.7552 H   0  0  0  0  0  0  0  0  0  0  0  0
    8.5857    1.2138   -3.7098 H   0  0  0  0  0  0  0  0  0  0  0  0
    7.1422    1.9289   -2.9570 H   0  0  0  0  0  0  0  0  0  0  0  0
    8.0480   -0.0842   -1.6211 H   0  0  0  0  0  0  0  0  0  0  0  0
    9.5602    0.7797   -1.4722 H   0  0  0  0  0  0  0  0  0  0  0  0
    5.9049    0.2907   -1.5452 H   0  0  0  0  0  0  0  0  0  0  0  0
    3.7447    0.0802   -0.5071 H   0  0  0  0  0  0  0  0  0  0  0  0
    2.9633    1.6278    2.8318 H   0  0  0  0  0  0  0  0  0  0  0  0
    0.5026    1.6155    2.6651 H   0  0  0  0  0  0  0  0  0  0  0  0
    1.1381    0.2156    3.5572 H   0  0  0  0  0  0  0  0  0  0  0  0
   -0.8271    0.0816    1.1947 H   0  0  0  0  0  0  0  0  0  0  0  0
   -0.1752   -1.3204    2.0335 H   0  0  0  0  0  0  0  0  0  0  0  0
   -1.3599   -0.6619    4.0946 H   0  0  0  0  0  0  0  0  0  0  0  0
   -4.5875   -1.4942    3.2586 H   0  0  0  0  0  0  0  0  0  0  0  0
   -5.8791   -2.7496    1.6149 H   0  0  0  0  0  0  0  0  0  0  0  0
   -3.1477    1.1388    0.1613 H   0  0  0  0  0  0  0  0  0  0  0  0
   -4.8531    0.6349   -4.3050 H   0  0  0  0  0  0  0  0  0  0  0  0
   -4.5706   -1.0759   -4.7109 H   0  0  0  0  0  0  0  0  0  0  0  0
   -6.2311   -0.4524   -4.5787 H   0  0  0  0  0  0  0  0  0  0  0  0
   -6.0826   -4.1801   -0.2163 H   0  0  0  0  0  0  0  0  0  0  0  0
   -7.1939   -3.9526   -1.5701 H   0  0  0  0  0  0  0  0  0  0  0  0
   -7.5499   -3.1505   -0.0333 H   0  0  0  0  0  0  0  0  0  0  0  0
    5.1218    2.4036    2.8675 H   0  0  0  0  0  0  0  0  0  0  0  0
    7.3239    2.6005    1.8027 H   0  0  0  0  0  0  0  0  0  0  0  0
  1  2  1  0
  2  3  1  0
  3  4  1  0
  4  5  2  0
  5  6  1  0
  6  7  2  0
  7  8  1  0
  8  9  1  0
  9 10  2  0
  9 11  1  0
 11 12  1  0
 12 13  1  0
 13 14  1  0
 14 15  2  0
 14 16  2  0
 14 17  1  0
 17 18  2  0
 18 19  1  0
 19 20  2  0
 20 21  1  0
 21 22  2  0
 21 23  1  0
 23 24  2  0
 23 25  1  0
 25 26  1  0
 25 27  1  0
 27 28  2  0
 27 29  1  0
 29 30  1  0
  7 31  1  0
 31 32  2  0
 32  4  1  0
 22 17  1  0
 29 20  1  0
  1 33  1  0
  1 34  1  0
  1 35  1  0
  2 36  1  0
  2 37  1  0
  5 38  1  0
  6 39  1  0
  8 40  1  0
 11 41  1  0
 11 42  1  0
 12 43  1  0
 12 44  1  0
 13 45  1  0
 18 46  1  0
 19 47  1  0
 22 48  1  0
 26 49  1  0
 26 50  1  0
 26 51  1  0
 30 52  1  0
 30 53  1  0
 30 54  1  0
 31 55  1  0
 32 56  1  0
M  END
$$$$
