
     RDKit          3D

 61 66  0  0  0  0  0  0  0  0999 V2000
    7.1727    2.5073   -1.7073 F   0  0  0  0  0  0  0  0  0  0  0  0
    7.4887    2.4677   -0.3816 C   0  0  0  0  0  0  0  0  0  0  0  0
    8.6506    1.7613   -0.2981 F   0  0  0  0  0  0  0  0  0  0  0  0
    7.8037    3.7483   -0.0377 F   0  0  0  0  0  0  0  0  0  0  0  0
    6.3886    1.8677    0.4586 C   0  0  0  0  0  0  0  0  0  0  0  0
    5.9439    2.5015    1.6279 C   0  0  0  0  0  0  0  0  0  0  0  0
    4.9313    1.9325    2.3994 C   0  0  0  0  0  0  0  0  0  0  0  0
    4.3554    0.7231    2.0125 C   0  0  0  0  0  0  0  0  0  0  0  0
    4.7823    0.0668    0.8488 C   0  0  0  0  0  0  0  0  0  0  0  0
    4.1591   -1.2530    0.4405 C   0  0  0  0  0  0  0  0  0  0  0  0
    2.7049   -1.1780    0.2683 N   0  0  0  0  0  0  0  0  0  0  0  0
    2.2951   -0.3350   -0.8669 C   0  0  0  0  0  0  0  0  0  0  0  0
    0.7546   -0.2475   -0.9989 C   0  0  0  0  0  0  0  0  0  0  0  0
    0.0869   -1.5659   -0.9358 N   0  0  0  0  0  0  0  0  0  0  0  0
   -1.1131   -1.6831   -0.2298 C   0  0  0  0  0  0  0  0  0  0  0  0
   -1.2589   -2.6871    0.6000 N   0  0  0  0  0  0  0  0  0  0  0  0
   -2.4286   -2.8257    1.3708 C   0  0  0  0  0  0  0  0  0  0  0  0
   -2.5161   -3.9027    2.2554 C   0  0  0  0  0  0  0  0  0  0  0  0
   -3.6474   -4.0783    3.0572 C   0  0  0  0  0  0  0  0  0  0  0  0
   -4.7068   -3.1742    2.9797 C   0  0  0  0  0  0  0  0  0  0  0  0
   -4.6418   -2.0921    2.1013 C   0  0  0  0  0  0  0  0  0  0  0  0
   -3.5024   -1.9284    1.3069 C   0  0  0  0  0  0  0  0  0  0  0  0
   -3.3569   -0.8747    0.3899 N   0  0  0  0  0  0  0  0  0  0  0  0
   -4.2344    0.1377    0.0806 C   0  0  0  0  0  0  0  0  0  0  0  0
   -3.6864    0.9024   -0.9325 C   0  0  0  0  0  0  0  0  0  0  0  0
   -4.3496    2.0450   -1.5461 C   0  0  0  0  0  0  0  0  0  0  0  0
   -5.1836    2.8875   -0.7985 C   0  0  0  0  0  0  0  0  0  0  0  0
   -5.8061    3.9867   -1.3969 C   0  0  0  0  0  0  0  0  0  0  0  0
   -5.6004    4.2564   -2.7478 C   0  0  0  0  0  0  0  0  0  0  0  0
   -4.7727    3.4280   -3.5016 C   0  0  0  0  0  0  0  0  0  0  0  0
   -4.1495    2.3291   -2.9037 C   0  0  0  0  0  0  0  0  0  0  0  0
   -2.4250    0.3197   -1.2347 C   0  0  0  0  0  0  0  0  0  0  0  0
   -2.2211   -0.7480   -0.3781 C   0  0  0  0  0  0  0  0  0  0  0  0
    1.0291   -2.6954   -0.9248 C   0  0  0  0  0  0  0  0  0  0  0  0
    2.0939   -2.5263    0.1823 C   0  0  0  0  0  0  0  0  0  0  0  0
    5.8050    0.6450    0.0821 C   0  0  0  0  0  0  0  0  0  0  0  0
    6.3833    3.4465    1.9431 H   0  0  0  0  0  0  0  0  0  0  0  0
    4.5871    2.4314    3.3019 H   0  0  0  0  0  0  0  0  0  0  0  0
    3.5600    0.2901    2.6169 H   0  0  0  0  0  0  0  0  0  0  0  0
    4.6324   -1.6325   -0.4749 H   0  0  0  0  0  0  0  0  0  0  0  0
    4.4043   -1.9693    1.2371 H   0  0  0  0  0  0  0  0  0  0  0  0
    2.6703    0.6879   -0.7472 H   0  0  0  0  0  0  0  0  0  0  0  0
    2.7222   -0.7202   -1.8022 H   0  0  0  0  0  0  0  0  0  0  0  0
    0.3843    0.3994   -0.1933 H   0  0  0  0  0  0  0  0  0  0  0  0
    0.5150    0.2300   -1.9549 H   0  0  0  0  0  0  0  0  0  0  0  0
   -1.6909   -4.6067    2.3196 H   0  0  0  0  0  0  0  0  0  0  0  0
   -3.6990   -4.9203    3.7429 H   0  0  0  0  0  0  0  0  0  0  0  0
   -5.5850   -3.3141    3.6060 H   0  0  0  0  0  0  0  0  0  0  0  0
   -5.4791   -1.4043    2.0578 H   0  0  0  0  0  0  0  0  0  0  0  0
   -5.1887    0.2231    0.5792 H   0  0  0  0  0  0  0  0  0  0  0  0
   -5.3476    2.7069    0.2605 H   0  0  0  0  0  0  0  0  0  0  0  0
   -6.4483    4.6334   -0.8053 H   0  0  0  0  0  0  0  0  0  0  0  0
   -6.0841    5.1115   -3.2127 H   0  0  0  0  0  0  0  0  0  0  0  0
   -4.6121    3.6342   -4.5562 H   0  0  0  0  0  0  0  0  0  0  0  0
   -3.5168    1.6906   -3.5147 H   0  0  0  0  0  0  0  0  0  0  0  0
   -1.7360    0.6550   -1.9969 H   0  0  0  0  0  0  0  0  0  0  0  0
    0.5163   -3.6583   -0.8155 H   0  0  0  0  0  0  0  0  0  0  0  0
    1.5234   -2.7407   -1.9041 H   0  0  0  0  0  0  0  0  0  0  0  0
    2.8553   -3.3007    0.0224 H   0  0  0  0  0  0  0  0  0  0  0  0
    1.6354   -2.7350    1.1564 H   0  0  0  0  0  0  0  0  0  0  0  0
    6.1532    0.1440   -0.8206 H   0  0  0  0  0  0  0  0  0  0  0  0
  1  2  1  0
  2  3  1  0
  2  4  1  0
  2  5  1  0
  5  6  2  0
  6  7  1  0
  7  8  2  0
  8  9  1  0
  9 10  1  0
 10 11  1  0
 11 12  1  0
 12 13  1  0
 13 14  1  0
 14 15  1  0
 15 16  2  0
 16 17  1  0
 17 18  2  0
 18 19  1  0
 19 20  2  0
 20 21  1  0
 21 22  2  0
 22 23  1  0
 23 24  1  0
 24 25  2  0
 25 26  1  0
 26 27  2  0
 27 28  1  0
 28 29  2  0
 29 30  1  0
 30 31  2  0
 25 32  1  0
 32 33  2  0
 14 34  1  0
 34 35  1  0
  9 36  2  0
 36  5  1  0
 35 11  1  0
 33 15  1  0
 22 17  1  0
 33 23  1  0
 31 26  1  0
  6 37  1  0
  7 38  1  0
  8 39  1  0
 10 40  1  0
 10 41  1  0
 12 42  1  0
 12 43  1  0
 13 44  1  0
 13 45  1  0
 18 46  1  0
 19 47  1  0
 20 48  1  0
 21 49  1  0
 24 50  1  0
 27 51  1  0
 28 52  1  0
 29 53  1  0
 30 54  1  0
 31 55  1  0
 32 56  1  0
 34 57  1  0
 34 58  1  0
 35 59  1  0
 35 60  1  0
 36 61  1  0
M  END
$$$$
