
     RDKit          3D

 64 67  0  0  0  0  0  0  0  0999 V2000
    6.8815   -4.2357    1.0348 C   0  0  0  0  0  0  0  0  0  0  0  0
    7.0749   -2.8928    1.4606 O   0  0  0  0  0  0  0  0  0  0  0  0
    6.1344   -1.9778    1.0680 C   0  0  0  0  0  0  0  0  0  0  0  0
    6.2395   -0.7308    1.6871 C   0  0  0  0  0  0  0  0  0  0  0  0
    5.3518    0.3023    1.3764 C   0  0  0  0  0  0  0  0  0  0  0  0
    4.3435    0.0984    0.4363 C   0  0  0  0  0  0  0  0  0  0  0  0
    3.4065    1.0890    0.0652 N   0  0  0  0  0  0  0  0  0  0  0  0
    3.2855    2.3766    0.5474 C   0  0  0  0  0  0  0  0  0  0  0  0
    3.9781    2.8911    1.4249 O   0  0  0  0  0  0  0  0  0  0  0  0
    2.2042    3.1879   -0.1500 C   0  0  0  0  0  0  0  0  0  0  0  0
    0.5642    2.8398    0.5455 S   0  0  0  0  0  0  0  0  0  0  0  0
    0.0568    1.5253   -0.4524 C   0  0  0  0  0  0  0  0  0  0  0  0
    0.8233    0.8461   -1.2701 N   0  0  0  0  0  0  0  0  0  0  0  0
    0.0405   -0.0815   -1.9034 N   0  0  0  0  0  0  0  0  0  0  0  0
   -1.1984    0.0510   -1.4646 C   0  0  0  0  0  0  0  0  0  0  0  0
   -2.3664   -0.7566   -1.9283 C   0  0  0  0  0  0  0  0  0  0  0  0
   -2.9016   -1.7046   -0.8941 C   0  0  0  0  0  0  0  0  0  0  0  0
   -4.1754   -1.7589   -0.3485 C   0  0  0  0  0  0  0  0  0  0  0  0
   -4.2019   -2.8100    0.5940 C   0  0  0  0  0  0  0  0  0  0  0  0
   -2.9544   -3.3924    0.5899 C   0  0  0  0  0  0  0  0  0  0  0  0
   -2.1698   -2.7226   -0.3167 N   0  0  0  0  0  0  0  0  0  0  0  0
   -0.7920   -3.0731   -0.6017 C   0  0  0  0  0  0  0  0  0  0  0  0
   -1.2315    1.0710   -0.5371 N   0  0  0  0  0  0  0  0  0  0  0  0
   -2.3948    1.5784    0.1619 C   0  0  0  0  0  0  0  0  0  0  0  0
   -3.0493    2.7423   -0.5831 C   0  0  0  0  0  0  0  0  0  0  0  0
   -4.3234    3.1833    0.0925 C   0  0  0  0  0  0  0  0  0  0  0  0
   -5.5670    2.7504   -0.3852 C   0  0  0  0  0  0  0  0  0  0  0  0
   -6.7442    3.1468    0.2533 C   0  0  0  0  0  0  0  0  0  0  0  0
   -6.6878    3.9731    1.3744 C   0  0  0  0  0  0  0  0  0  0  0  0
   -5.4538    4.4020    1.8607 C   0  0  0  0  0  0  0  0  0  0  0  0
   -4.2755    4.0086    1.2241 C   0  0  0  0  0  0  0  0  0  0  0  0
    4.2382   -1.1575   -0.2000 C   0  0  0  0  0  0  0  0  0  0  0  0
    3.2278   -1.2571   -1.1283 O   0  0  0  0  0  0  0  0  0  0  0  0
    2.9908   -2.5263   -1.7160 C   0  0  0  0  0  0  0  0  0  0  0  0
    5.1334   -2.1881    0.1191 C   0  0  0  0  0  0  0  0  0  0  0  0
    7.6442   -4.8533    1.5194 H   0  0  0  0  0  0  0  0  0  0  0  0
    7.0153   -4.3272   -0.0496 H   0  0  0  0  0  0  0  0  0  0  0  0
    5.9009   -4.6087    1.3458 H   0  0  0  0  0  0  0  0  0  0  0  0
    7.0234   -0.5577    2.4206 H   0  0  0  0  0  0  0  0  0  0  0  0
    5.4820    1.2526    1.8803 H   0  0  0  0  0  0  0  0  0  0  0  0
    2.7126    0.7651   -0.6172 H   0  0  0  0  0  0  0  0  0  0  0  0
    2.4233    4.2496    0.0105 H   0  0  0  0  0  0  0  0  0  0  0  0
    2.2409    3.0273   -1.2334 H   0  0  0  0  0  0  0  0  0  0  0  0
   -3.1643   -0.0786   -2.2564 H   0  0  0  0  0  0  0  0  0  0  0  0
   -2.0772   -1.3303   -2.8178 H   0  0  0  0  0  0  0  0  0  0  0  0
   -4.9962   -1.0925   -0.5923 H   0  0  0  0  0  0  0  0  0  0  0  0
   -5.0421   -3.1133    1.2065 H   0  0  0  0  0  0  0  0  0  0  0  0
   -2.5668   -4.2289    1.1602 H   0  0  0  0  0  0  0  0  0  0  0  0
   -0.6151   -4.1107   -0.3030 H   0  0  0  0  0  0  0  0  0  0  0  0
   -0.1425   -2.4059   -0.0276 H   0  0  0  0  0  0  0  0  0  0  0  0
   -0.6090   -2.9742   -1.6748 H   0  0  0  0  0  0  0  0  0  0  0  0
   -3.1042    0.7578    0.2927 H   0  0  0  0  0  0  0  0  0  0  0  0
   -2.0905    1.8696    1.1744 H   0  0  0  0  0  0  0  0  0  0  0  0
   -2.3633    3.5971   -0.6492 H   0  0  0  0  0  0  0  0  0  0  0  0
   -3.2615    2.4584   -1.6214 H   0  0  0  0  0  0  0  0  0  0  0  0
   -5.6310    2.1022   -1.2584 H   0  0  0  0  0  0  0  0  0  0  0  0
   -7.7078    2.8130   -0.1225 H   0  0  0  0  0  0  0  0  0  0  0  0
   -7.6078    4.2824    1.8655 H   0  0  0  0  0  0  0  0  0  0  0  0
   -5.4076    5.0428    2.7376 H   0  0  0  0  0  0  0  0  0  0  0  0
   -3.3211    4.3545    1.6167 H   0  0  0  0  0  0  0  0  0  0  0  0
    2.7517   -3.2759   -0.9541 H   0  0  0  0  0  0  0  0  0  0  0  0
    2.1218   -2.4326   -2.3747 H   0  0  0  0  0  0  0  0  0  0  0  0
    3.8413   -2.8376   -2.3314 H   0  0  0  0  0  0  0  0  0  0  0  0
    5.0630   -3.1428   -0.3828 H   0  0  0  0  0  0  0  0  0  0  0  0
  1  2  1  0
  2  3  1  0
  3  4  2  0
  4  5  1  0
  5  6  2  0
  6  7  1  0
  7  8  1  0
  8  9  2  0
  8 10  1  0
 10 11  1  0
 11 12  1  0
 12 13  2  0
 13 14  1  0
 14 15  2  0
 15 16  1  0
 16 17  1  0
 17 18  2  0
 18 19  1  0
 19 20  2  0
 20 21  1  0
 21 22  1  0
 15 23  1  0
 23 24  1  0
 24 25  1  0
 25 26  1  0
 26 27  2  0
 27 28  1  0
 28 29  2  0
 29 30  1  0
 30 31  2  0
  6 32  1  0
 32 33  1  0
 33 34  1  0
 32 35  2  0
 35  3  1  0
 23 12  1  0
 31 26  1  0
 21 17  1  0
  1 36  1  0
  1 37  1  0
  1 38  1  0
  4 39  1  0
  5 40  1  0
  7 41  1  0
 10 42  1  0
 10 43  1  0
 16 44  1  0
 16 45  1  0
 18 46  1  0
 19 47  1  0
 20 48  1  0
 22 49  1  0
 22 50  1  0
 22 51  1  0
 24 52  1  0
 24 53  1  0
 25 54  1  0
 25 55  1  0
 27 56  1  0
 28 57  1  0
 29 58  1  0
 30 59  1  0
 31 60  1  0
 34 61  1  0
 34 62  1  0
 34 63  1  0
 35 64  1  0
M  END
$$$$
