
     RDKit          3D

 55 58  0  0  0  0  0  0  0  0999 V2000
    0.3783   -1.9469   -1.9413 C   0  0  0  0  0  0  0  0  0  0  0  0
    1.8626   -2.2214   -1.8012 C   0  0  0  0  0  0  0  0  0  0  0  0
    2.3953   -1.3155   -0.8218 O   0  0  0  0  0  0  0  0  0  0  0  0
    3.7200   -1.4892   -0.5701 C   0  0  0  0  0  0  0  0  0  0  0  0
    4.4274   -2.3244   -1.1131 O   0  0  0  0  0  0  0  0  0  0  0  0
    4.2212   -0.5485    0.4806 C   0  0  0  0  0  0  0  0  0  0  0  0
    5.5098   -0.8388    0.9728 C   0  0  0  0  0  0  0  0  0  0  0  0
    6.1008   -0.0434    1.9513 C   0  0  0  0  0  0  0  0  0  0  0  0
    5.4115    1.0539    2.4484 C   0  0  0  0  0  0  0  0  0  0  0  0
    4.1345    1.3598    1.9678 C   0  0  0  0  0  0  0  0  0  0  0  0
    3.5191    0.5751    0.9810 C   0  0  0  0  0  0  0  0  0  0  0  0
    2.2279    0.8891    0.4900 N   0  0  0  0  0  0  0  0  0  0  0  0
    1.4180    1.9589    0.8118 C   0  0  0  0  0  0  0  0  0  0  0  0
    1.6710    2.8919    1.5613 O   0  0  0  0  0  0  0  0  0  0  0  0
    0.1126    1.9155    0.0883 C   0  0  0  0  0  0  0  0  0  0  0  0
   -0.7033    0.8886    0.3703 C   0  0  0  0  0  0  0  0  0  0  0  0
   -1.9410    0.6843   -0.2391 N   0  0  0  0  0  0  0  0  0  0  0  0
   -2.7437   -0.4711    0.1068 C   0  0  0  0  0  0  0  0  0  0  0  0
   -2.6753   -1.0412    1.3906 C   0  0  0  0  0  0  0  0  0  0  0  0
   -3.4234   -2.1786    1.7325 C   0  0  0  0  0  0  0  0  0  0  0  0
   -4.2574   -2.7771    0.7937 C   0  0  0  0  0  0  0  0  0  0  0  0
   -5.0327   -3.8844    0.9911 O   0  0  0  0  0  0  0  0  0  0  0  0
   -5.0300   -4.4483    2.2964 C   0  0  0  0  0  0  0  0  0  0  0  0
   -4.3362   -2.2250   -0.4827 C   0  0  0  0  0  0  0  0  0  0  0  0
   -3.5925   -1.0873   -0.8219 C   0  0  0  0  0  0  0  0  0  0  0  0
   -2.4170    1.6092   -1.2042 C   0  0  0  0  0  0  0  0  0  0  0  0
   -3.5019    1.5537   -1.7812 O   0  0  0  0  0  0  0  0  0  0  0  0
   -1.5424    2.7760   -1.5212 C   0  0  0  0  0  0  0  0  0  0  0  0
   -1.9710    3.7210   -2.4674 C   0  0  0  0  0  0  0  0  0  0  0  0
   -1.1725    4.8215   -2.7732 C   0  0  0  0  0  0  0  0  0  0  0  0
    0.0537    4.9832   -2.1355 C   0  0  0  0  0  0  0  0  0  0  0  0
    0.4837    4.0448   -1.1936 C   0  0  0  0  0  0  0  0  0  0  0  0
   -0.3100    2.9314   -0.8761 C   0  0  0  0  0  0  0  0  0  0  0  0
    0.2044   -0.9089   -2.2430 H   0  0  0  0  0  0  0  0  0  0  0  0
   -0.1299   -2.0920   -0.9827 H   0  0  0  0  0  0  0  0  0  0  0  0
   -0.0735   -2.6107   -2.6835 H   0  0  0  0  0  0  0  0  0  0  0  0
    2.0172   -3.2555   -1.4733 H   0  0  0  0  0  0  0  0  0  0  0  0
    2.3626   -2.0575   -2.7622 H   0  0  0  0  0  0  0  0  0  0  0  0
    6.0640   -1.6963    0.5919 H   0  0  0  0  0  0  0  0  0  0  0  0
    7.0950   -0.2802    2.3220 H   0  0  0  0  0  0  0  0  0  0  0  0
    5.8637    1.6817    3.2132 H   0  0  0  0  0  0  0  0  0  0  0  0
    3.6444    2.2297    2.3952 H   0  0  0  0  0  0  0  0  0  0  0  0
    1.8708    0.2406   -0.2086 H   0  0  0  0  0  0  0  0  0  0  0  0
   -0.3815    0.1334    1.0818 H   0  0  0  0  0  0  0  0  0  0  0  0
   -2.0762   -0.5889    2.1762 H   0  0  0  0  0  0  0  0  0  0  0  0
   -3.3345   -2.5610    2.7439 H   0  0  0  0  0  0  0  0  0  0  0  0
   -4.0340   -4.8158    2.5652 H   0  0  0  0  0  0  0  0  0  0  0  0
   -5.4004   -3.7321    3.0373 H   0  0  0  0  0  0  0  0  0  0  0  0
   -5.7109   -5.3049    2.2922 H   0  0  0  0  0  0  0  0  0  0  0  0
   -4.9824   -2.6815   -1.2290 H   0  0  0  0  0  0  0  0  0  0  0  0
   -3.6768   -0.7242   -1.8426 H   0  0  0  0  0  0  0  0  0  0  0  0
   -2.9316    3.6031   -2.9658 H   0  0  0  0  0  0  0  0  0  0  0  0
   -1.5099    5.5528   -3.5038 H   0  0  0  0  0  0  0  0  0  0  0  0
    0.6775    5.8440   -2.3663 H   0  0  0  0  0  0  0  0  0  0  0  0
    1.4446    4.2073   -0.7079 H   0  0  0  0  0  0  0  0  0  0  0  0
  1  2  1  0
  2  3  1  0
  3  4  1  0
  4  5  2  0
  4  6  1  0
  6  7  2  0
  7  8  1  0
  8  9  2  0
  9 10  1  0
 10 11  2  0
 11 12  1  0
 12 13  1  0
 13 14  2  0
 13 15  1  0
 15 16  2  0
 16 17  1  0
 17 18  1  0
 18 19  2  0
 19 20  1  0
 20 21  2  0
 21 22  1  0
 22 23  1  0
 21 24  1  0
 24 25  2  0
 17 26  1  0
 26 27  2  0
 26 28  1  0
 28 29  2  0
 29 30  1  0
 30 31  2  0
 31 32  1  0
 32 33  2  0
 11  6  1  0
 33 15  1  0
 25 18  1  0
 33 28  1  0
  1 34  1  0
  1 35  1  0
  1 36  1  0
  2 37  1  0
  2 38  1  0
  7 39  1  0
  8 40  1  0
  9 41  1  0
 10 42  1  0
 12 43  1  0
 16 44  1  0
 19 45  1  0
 20 46  1  0
 23 47  1  0
 23 48  1  0
 23 49  1  0
 24 50  1  0
 25 51  1  0
 29 52  1  0
 30 53  1  0
 31 54  1  0
 32 55  1  0
M  END
$$$$
