
     RDKit          3D

 51 55  0  0  0  0  0  0  0  0999 V2000
    6.1901   -1.8125   -0.8601 F   0  0  0  0  0  0  0  0  0  0  0  0
    6.0860   -0.5161   -0.5320 C   0  0  0  0  0  0  0  0  0  0  0  0
    6.9105    0.4058   -1.1707 C   0  0  0  0  0  0  0  0  0  0  0  0
    6.8120    1.7579   -0.8483 C   0  0  0  0  0  0  0  0  0  0  0  0
    5.8867    2.1773    0.1081 C   0  0  0  0  0  0  0  0  0  0  0  0
    5.0626    1.2461    0.7459 C   0  0  0  0  0  0  0  0  0  0  0  0
    5.1599   -0.1166    0.4355 C   0  0  0  0  0  0  0  0  0  0  0  0
    4.2681   -1.1313    1.1067 C   0  0  0  0  0  0  0  0  0  0  0  0
    3.0235   -1.4931    0.2743 C   0  0  0  0  0  0  0  0  0  0  0  0
    2.0549   -0.3908    0.1508 N   0  0  0  0  0  0  0  0  0  0  0  0
    1.1455   -0.6180   -0.9901 C   0  0  0  0  0  0  0  0  0  0  0  0
   -0.0832    0.3160   -0.9813 C   0  0  0  0  0  0  0  0  0  0  0  0
   -0.8934    0.1418    0.2340 N   0  0  0  0  0  0  0  0  0  0  0  0
   -2.2840    0.1032    0.1820 C   0  0  0  0  0  0  0  0  0  0  0  0
   -2.9035   -0.7530    0.9588 N   0  0  0  0  0  0  0  0  0  0  0  0
   -4.3051   -0.8750    0.9294 C   0  0  0  0  0  0  0  0  0  0  0  0
   -4.9064   -1.8161    1.7677 C   0  0  0  0  0  0  0  0  0  0  0  0
   -6.2933   -1.9876    1.7700 C   0  0  0  0  0  0  0  0  0  0  0  0
   -7.0950   -1.2153    0.9289 C   0  0  0  0  0  0  0  0  0  0  0  0
   -6.5155   -0.2687    0.0834 C   0  0  0  0  0  0  0  0  0  0  0  0
   -5.1263   -0.1092    0.0922 C   0  0  0  0  0  0  0  0  0  0  0  0
   -4.4619    0.8286   -0.7144 N   0  0  0  0  0  0  0  0  0  0  0  0
   -4.9845    1.7335   -1.6080 C   0  0  0  0  0  0  0  0  0  0  0  0
   -3.9500    2.4952   -2.1037 C   0  0  0  0  0  0  0  0  0  0  0  0
   -2.7598    2.0250   -1.5019 C   0  0  0  0  0  0  0  0  0  0  0  0
   -3.0899    0.9646   -0.6748 C   0  0  0  0  0  0  0  0  0  0  0  0
   -0.1993   -0.5190    1.3522 C   0  0  0  0  0  0  0  0  0  0  0  0
    1.2958   -0.1348    1.3950 C   0  0  0  0  0  0  0  0  0  0  0  0
    7.6209    0.0634   -1.9159 H   0  0  0  0  0  0  0  0  0  0  0  0
    7.4504    2.4844   -1.3439 H   0  0  0  0  0  0  0  0  0  0  0  0
    5.8014    3.2328    0.3551 H   0  0  0  0  0  0  0  0  0  0  0  0
    4.3355    1.5897    1.4783 H   0  0  0  0  0  0  0  0  0  0  0  0
    3.9899   -0.7759    2.1059 H   0  0  0  0  0  0  0  0  0  0  0  0
    4.8510   -2.0452    1.2819 H   0  0  0  0  0  0  0  0  0  0  0  0
    3.3639   -1.7951   -0.7253 H   0  0  0  0  0  0  0  0  0  0  0  0
    2.5351   -2.3723    0.7144 H   0  0  0  0  0  0  0  0  0  0  0  0
    1.7001   -0.4586   -1.9225 H   0  0  0  0  0  0  0  0  0  0  0  0
    0.7916   -1.6583   -0.9958 H   0  0  0  0  0  0  0  0  0  0  0  0
    0.2488    1.3587   -1.0428 H   0  0  0  0  0  0  0  0  0  0  0  0
   -0.6743    0.0943   -1.8773 H   0  0  0  0  0  0  0  0  0  0  0  0
   -4.2839   -2.4204    2.4221 H   0  0  0  0  0  0  0  0  0  0  0  0
   -6.7454   -2.7246    2.4286 H   0  0  0  0  0  0  0  0  0  0  0  0
   -8.1738   -1.3514    0.9342 H   0  0  0  0  0  0  0  0  0  0  0  0
   -7.1597    0.3220   -0.5591 H   0  0  0  0  0  0  0  0  0  0  0  0
   -6.0438    1.7865   -1.8123 H   0  0  0  0  0  0  0  0  0  0  0  0
   -4.0452    3.3087   -2.8115 H   0  0  0  0  0  0  0  0  0  0  0  0
   -1.7688    2.4270   -1.6587 H   0  0  0  0  0  0  0  0  0  0  0  0
   -0.2991   -1.6081    1.2628 H   0  0  0  0  0  0  0  0  0  0  0  0
   -0.6575   -0.2167    2.3017 H   0  0  0  0  0  0  0  0  0  0  0  0
    1.3637    0.9439    1.5870 H   0  0  0  0  0  0  0  0  0  0  0  0
    1.7546   -0.6228    2.2625 H   0  0  0  0  0  0  0  0  0  0  0  0
  1  2  1  0
  2  3  2  0
  3  4  1  0
  4  5  2  0
  5  6  1  0
  6  7  2  0
  7  8  1  0
  8  9  1  0
  9 10  1  0
 10 11  1  0
 11 12  1  0
 12 13  1  0
 13 14  1  0
 14 15  2  0
 15 16  1  0
 16 17  2  0
 17 18  1  0
 18 19  2  0
 19 20  1  0
 20 21  2  0
 21 22  1  0
 22 23  1  0
 23 24  2  0
 24 25  1  0
 25 26  2  0
 13 27  1  0
 27 28  1  0
  7  2  1  0
 28 10  1  0
 26 14  1  0
 21 16  1  0
 26 22  1  0
  3 29  1  0
  4 30  1  0
  5 31  1  0
  6 32  1  0
  8 33  1  0
  8 34  1  0
  9 35  1  0
  9 36  1  0
 11 37  1  0
 11 38  1  0
 12 39  1  0
 12 40  1  0
 17 41  1  0
 18 42  1  0
 19 43  1  0
 20 44  1  0
 23 45  1  0
 24 46  1  0
 25 47  1  0
 27 48  1  0
 27 49  1  0
 28 50  1  0
 28 51  1  0
M  END
$$$$
