
     RDKit          3D

 39 40  0  0  0  0  0  0  0  0999 V2000
   -1.2522   -2.2024    1.6761 C   0  0  0  0  0  0  0  0  0  0  0  0
   -1.3647   -0.9422    0.8203 C   0  0  0  0  0  0  0  0  0  0  0  0
   -2.5424   -0.2383    1.2316 O   0  0  0  0  0  0  0  0  0  0  0  0
   -3.4356   -0.0428    0.2115 C   0  0  0  0  0  0  0  0  0  0  0  0
   -4.1556   -1.1307   -0.2934 C   0  0  0  0  0  0  0  0  0  0  0  0
   -5.1035   -0.9359   -1.3001 C   0  0  0  0  0  0  0  0  0  0  0  0
   -5.3408    0.3589   -1.7845 C   0  0  0  0  0  0  0  0  0  0  0  0
   -6.3376    0.5663   -2.8423 N   0  0  0  0  0  4  0  0  0  0  0  0
   -6.8613   -0.4400   -3.3415 O   0  0  0  0  0  0  0  0  0  0  0  0
   -6.5908    1.7320   -3.1756 O   0  0  0  0  0  1  0  0  0  0  0  0
   -4.6439    1.4576   -1.2648 C   0  0  0  0  0  0  0  0  0  0  0  0
   -3.6949    1.2512   -0.2610 C   0  0  0  0  0  0  0  0  0  0  0  0
   -2.8600    2.6246    0.3643 Cl  0  0  0  0  0  0  0  0  0  0  0  0
   -0.0956   -0.0819    1.0229 C   0  0  0  0  0  0  0  0  0  0  0  0
   -0.1055    0.9471    1.6903 O   0  0  0  0  0  0  0  0  0  0  0  0
    1.0161   -0.6172    0.3768 N   0  0  0  0  0  0  0  0  0  0  0  0
    2.3325   -0.1086    0.3704 C   0  0  0  0  0  0  0  0  0  0  0  0
    3.2855   -0.8161   -0.3770 C   0  0  0  0  0  0  0  0  0  0  0  0
    4.6163   -0.3847   -0.4379 C   0  0  0  0  0  0  0  0  0  0  0  0
    5.0100    0.7662    0.2518 C   0  0  0  0  0  0  0  0  0  0  0  0
    6.4116    1.2609    0.2275 C   0  0  0  0  0  0  0  0  0  0  0  0
    7.1783    0.9222   -0.8540 N   0  0  0  0  0  0  0  0  0  0  0  0
    6.8610    1.9724    1.1169 O   0  0  0  0  0  0  0  0  0  0  0  0
    4.0669    1.4666    1.0098 C   0  0  0  0  0  0  0  0  0  0  0  0
    2.7351    1.0353    1.0623 C   0  0  0  0  0  0  0  0  0  0  0  0
   -0.3851   -2.8092    1.3967 H   0  0  0  0  0  0  0  0  0  0  0  0
   -2.1511   -2.8196    1.5821 H   0  0  0  0  0  0  0  0  0  0  0  0
   -1.1563   -1.9416    2.7366 H   0  0  0  0  0  0  0  0  0  0  0  0
   -1.4071   -1.2240   -0.2417 H   0  0  0  0  0  0  0  0  0  0  0  0
   -4.0027   -2.1278    0.1113 H   0  0  0  0  0  0  0  0  0  0  0  0
   -5.6569   -1.7938   -1.6815 H   0  0  0  0  0  0  0  0  0  0  0  0
   -4.8345    2.4676   -1.6249 H   0  0  0  0  0  0  0  0  0  0  0  0
    0.8727   -1.4622   -0.1619 H   0  0  0  0  0  0  0  0  0  0  0  0
    3.0111   -1.7193   -0.9168 H   0  0  0  0  0  0  0  0  0  0  0  0
    5.3349   -0.9728   -1.0024 H   0  0  0  0  0  0  0  0  0  0  0  0
    8.0770    1.3859   -0.9093 H   0  0  0  0  0  0  0  0  0  0  0  0
    6.7642    0.6213   -1.7242 H   0  0  0  0  0  0  0  0  0  0  0  0
    4.3613    2.3562    1.5655 H   0  0  0  0  0  0  0  0  0  0  0  0
    2.0434    1.6188    1.6621 H   0  0  0  0  0  0  0  0  0  0  0  0
  1  2  1  0
  2  3  1  0
  3  4  1  0
  4  5  2  0
  5  6  1  0
  6  7  2  0
  7  8  1  0
  8  9  2  0
  8 10  1  0
  7 11  1  0
 11 12  2  0
 12 13  1  0
  2 14  1  0
 14 15  2  0
 14 16  1  0
 16 17  1  0
 17 18  2  0
 18 19  1  0
 19 20  2  0
 20 21  1  0
 21 22  1  0
 21 23  2  0
 20 24  1  0
 24 25  2  0
 12  4  1  0
 25 17  1  0
  1 26  1  0
  1 27  1  0
  1 28  1  0
  2 29  1  0
  5 30  1  0
  6 31  1  0
 11 32  1  0
 16 33  1  0
 18 34  1  0
 19 35  1  0
 22 36  1  0
 22 37  1  0
 24 38  1  0
 25 39  1  0
M  CHG  2   8   1  10  -1
M  END
$$$$
