
     RDKit          3D

 40 41  0  0  0  0  0  0  0  0999 V2000
    7.7347   -0.9383   -0.5470 C   0  0  0  0  0  0  0  0  0  0  0  0
    7.1169   -0.6189    0.6931 O   0  0  0  0  0  0  0  0  0  0  0  0
    5.7987   -0.2586    0.6537 C   0  0  0  0  0  0  0  0  0  0  0  0
    4.9995   -0.1882   -0.4866 C   0  0  0  0  0  0  0  0  0  0  0  0
    3.6561    0.1969   -0.3834 C   0  0  0  0  0  0  0  0  0  0  0  0
    3.0937    0.5070    0.8608 C   0  0  0  0  0  0  0  0  0  0  0  0
    1.6985    0.9380    1.0031 C   0  0  0  0  0  0  0  0  0  0  0  0
    0.6733    0.3474    0.3694 C   0  0  0  0  0  0  0  0  0  0  0  0
   -0.7163    0.8429    0.5872 C   0  0  0  0  0  0  0  0  0  0  0  0
   -0.9367    1.8214    1.2872 O   0  0  0  0  0  0  0  0  0  0  0  0
   -1.6522    0.0718   -0.0783 N   0  0  0  0  0  0  0  0  0  0  0  0
   -3.0298    0.2234   -0.1231 C   0  0  0  0  0  0  0  0  0  0  0  0
   -3.6566    1.2276    0.5002 C   0  0  0  0  0  0  0  0  0  0  0  0
   -5.1145    1.3739    0.4354 C   0  0  0  0  0  0  0  0  0  0  0  0
   -5.6401    2.3463    0.9718 O   0  0  0  0  0  0  0  0  0  0  0  0
   -5.7926    0.3892   -0.2411 N   0  0  0  0  0  0  0  0  0  0  0  0
   -7.2379    0.4794   -0.3267 C   0  0  0  0  0  0  0  0  0  0  0  0
   -5.1744   -0.6353   -0.9387 C   0  0  0  0  0  0  0  0  0  0  0  0
   -5.8280   -1.4420   -1.6049 O   0  0  0  0  0  0  0  0  0  0  0  0
   -3.7789   -0.6991   -0.8505 N   0  0  0  0  0  0  0  0  0  0  0  0
   -3.1350   -1.7940   -1.5705 C   0  0  0  0  0  0  0  0  0  0  0  0
    3.9050    0.4517    1.9979 C   0  0  0  0  0  0  0  0  0  0  0  0
    5.2444    0.0651    1.8933 C   0  0  0  0  0  0  0  0  0  0  0  0
    7.7312   -0.0773   -1.2234 H   0  0  0  0  0  0  0  0  0  0  0  0
    7.2598   -1.8087   -1.0117 H   0  0  0  0  0  0  0  0  0  0  0  0
    8.7782   -1.1976   -0.3438 H   0  0  0  0  0  0  0  0  0  0  0  0
    5.3893   -0.4180   -1.4724 H   0  0  0  0  0  0  0  0  0  0  0  0
    3.0632    0.2662   -1.2920 H   0  0  0  0  0  0  0  0  0  0  0  0
    1.5240    1.7661    1.6889 H   0  0  0  0  0  0  0  0  0  0  0  0
    0.8294   -0.4944   -0.2922 H   0  0  0  0  0  0  0  0  0  0  0  0
   -1.2824   -0.7137   -0.5884 H   0  0  0  0  0  0  0  0  0  0  0  0
   -3.1643    1.9974    1.0782 H   0  0  0  0  0  0  0  0  0  0  0  0
   -7.6514    1.1719    0.4114 H   0  0  0  0  0  0  0  0  0  0  0  0
   -7.5045    0.8255   -1.3307 H   0  0  0  0  0  0  0  0  0  0  0  0
   -7.6819   -0.5090   -0.1699 H   0  0  0  0  0  0  0  0  0  0  0  0
   -3.8463   -2.4313   -2.1026 H   0  0  0  0  0  0  0  0  0  0  0  0
   -2.4428   -1.3805   -2.3112 H   0  0  0  0  0  0  0  0  0  0  0  0
   -2.5950   -2.4254   -0.8573 H   0  0  0  0  0  0  0  0  0  0  0  0
    3.5039    0.7014    2.9779 H   0  0  0  0  0  0  0  0  0  0  0  0
    5.8618    0.0198    2.7873 H   0  0  0  0  0  0  0  0  0  0  0  0
  1  2  1  0
  2  3  1  0
  3  4  2  0
  4  5  1  0
  5  6  2  0
  6  7  1  0
  7  8  2  3
  8  9  1  0
  9 10  2  0
  9 11  1  0
 11 12  1  0
 12 13  2  0
 13 14  1  0
 14 15  2  0
 14 16  1  0
 16 17  1  0
 16 18  1  0
 18 19  2  0
 18 20  1  0
 20 21  1  0
  6 22  1  0
 22 23  2  0
 23  3  1  0
 20 12  1  0
  1 24  1  0
  1 25  1  0
  1 26  1  0
  4 27  1  0
  5 28  1  0
  7 29  1  0
  8 30  1  0
 11 31  1  0
 13 32  1  0
 17 33  1  0
 17 34  1  0
 17 35  1  0
 21 36  1  0
 21 37  1  0
 21 38  1  0
 22 39  1  0
 23 40  1  0
M  END
$$$$
