
     RDKit          3D

 47 50  0  0  0  0  0  0  0  0999 V2000
   -2.2933   -3.1961    1.5324 C   0  0  0  0  0  0  0  0  0  0  0  0
   -1.3143   -2.0910    1.2554 C   0  0  0  0  0  0  0  0  0  0  0  0
   -0.0457   -2.3240    1.4480 N   0  0  0  0  0  0  0  0  0  0  0  0
    0.9174   -1.3355    1.2106 N   0  0  0  0  0  0  0  0  0  0  0  0
    2.3008   -1.7090    1.4925 C   0  0  0  0  0  0  0  0  0  0  0  0
    3.0641   -2.1176    0.2320 C   0  0  0  0  0  0  0  0  0  0  0  0
    3.6816   -3.1794    0.1621 O   0  0  0  0  0  0  0  0  0  0  0  0
    3.0959   -1.1683   -0.7675 N   0  0  0  0  0  0  0  0  0  0  0  0
    3.9138   -1.3250   -1.9467 C   0  0  0  0  0  0  0  0  0  0  0  0
    5.2385   -0.6759   -1.6986 C   0  0  0  0  0  0  0  0  0  0  0  0
    6.3483   -1.2150   -1.0760 C   0  0  0  0  0  0  0  0  0  0  0  0
    7.4364   -0.2983   -1.0157 C   0  0  0  0  0  0  0  0  0  0  0  0
    7.1226    0.9107   -1.5945 C   0  0  0  0  0  0  0  0  0  0  0  0
    5.5254    0.9363   -2.2044 S   0  0  0  0  0  0  0  0  0  0  0  0
    0.6402   -0.0328    0.7583 C   0  0  0  0  0  0  0  0  0  0  0  0
    1.5209    0.7966    0.5307 O   0  0  0  0  0  0  0  0  0  0  0  0
   -0.7804    0.2065    0.5544 C   0  0  0  0  0  0  0  0  0  0  0  0
   -1.3355    1.3320    0.1026 N   0  0  0  0  0  0  0  0  0  0  0  0
   -2.6781    1.1084    0.1502 N   0  0  0  0  0  0  0  0  0  0  0  0
   -3.5616    2.2112   -0.0683 C   0  0  0  0  0  0  0  0  0  0  0  0
   -3.0516    3.3806   -0.6599 C   0  0  0  0  0  0  0  0  0  0  0  0
   -3.8778    4.4838   -0.8870 C   0  0  0  0  0  0  0  0  0  0  0  0
   -5.2173    4.4391   -0.5128 C   0  0  0  0  0  0  0  0  0  0  0  0
   -5.7277    3.2965    0.0989 C   0  0  0  0  0  0  0  0  0  0  0  0
   -4.9043    2.1881    0.3275 C   0  0  0  0  0  0  0  0  0  0  0  0
   -2.9490   -0.2383    0.4266 C   0  0  0  0  0  0  0  0  0  0  0  0
   -4.2795   -0.8822    0.2745 C   0  0  0  0  0  0  0  0  0  0  0  0
   -1.7314   -0.7917    0.7869 C   0  0  0  0  0  0  0  0  0  0  0  0
   -3.1250   -2.8235    2.1359 H   0  0  0  0  0  0  0  0  0  0  0  0
   -1.8045   -4.0085    2.0785 H   0  0  0  0  0  0  0  0  0  0  0  0
   -2.6717   -3.5932    0.5868 H   0  0  0  0  0  0  0  0  0  0  0  0
    2.3059   -2.5462    2.1990 H   0  0  0  0  0  0  0  0  0  0  0  0
    2.8249   -0.8660    1.9565 H   0  0  0  0  0  0  0  0  0  0  0  0
    2.7948   -0.2219   -0.5385 H   0  0  0  0  0  0  0  0  0  0  0  0
    3.3815   -0.8565   -2.7809 H   0  0  0  0  0  0  0  0  0  0  0  0
    4.0429   -2.3871   -2.1815 H   0  0  0  0  0  0  0  0  0  0  0  0
    6.3693   -2.2233   -0.6765 H   0  0  0  0  0  0  0  0  0  0  0  0
    8.3986   -0.5146   -0.5686 H   0  0  0  0  0  0  0  0  0  0  0  0
    7.7535    1.7839   -1.6881 H   0  0  0  0  0  0  0  0  0  0  0  0
   -2.0070    3.4454   -0.9626 H   0  0  0  0  0  0  0  0  0  0  0  0
   -3.4704    5.3774   -1.3534 H   0  0  0  0  0  0  0  0  0  0  0  0
   -5.8593    5.2991   -0.6855 H   0  0  0  0  0  0  0  0  0  0  0  0
   -6.7686    3.2728    0.4130 H   0  0  0  0  0  0  0  0  0  0  0  0
   -5.3401    1.3510    0.8587 H   0  0  0  0  0  0  0  0  0  0  0  0
   -4.8375   -0.8478    1.2148 H   0  0  0  0  0  0  0  0  0  0  0  0
   -4.8704   -0.4190   -0.5210 H   0  0  0  0  0  0  0  0  0  0  0  0
   -4.1752   -1.9316   -0.0147 H   0  0  0  0  0  0  0  0  0  0  0  0
  1  2  1  0
  2  3  2  0
  3  4  1  0
  4  5  1  0
  5  6  1  0
  6  7  2  0
  6  8  1  0
  8  9  1  0
  9 10  1  0
 10 11  2  0
 11 12  1  0
 12 13  2  0
 13 14  1  0
  4 15  1  0
 15 16  2  0
 15 17  1  0
 17 18  2  0
 18 19  1  0
 19 20  1  0
 20 21  2  0
 21 22  1  0
 22 23  2  0
 23 24  1  0
 24 25  2  0
 19 26  1  0
 26 27  1  0
 26 28  2  0
 28  2  1  0
 14 10  1  0
 28 17  1  0
 25 20  1  0
  1 29  1  0
  1 30  1  0
  1 31  1  0
  5 32  1  0
  5 33  1  0
  8 34  1  0
  9 35  1  0
  9 36  1  0
 11 37  1  0
 12 38  1  0
 13 39  1  0
 21 40  1  0
 22 41  1  0
 23 42  1  0
 24 43  1  0
 25 44  1  0
 27 45  1  0
 27 46  1  0
 27 47  1  0
M  END
$$$$
