
     RDKit          3D

 33 36  0  0  0  0  0  0  0  0999 V2000
   -1.2596   -2.6314   -1.6049 C   0  0  0  0  0  0  0  0  0  0  0  0
   -1.0905   -1.3182   -0.8955 C   0  0  0  0  0  0  0  0  0  0  0  0
   -2.0377   -0.4009   -0.5961 C   0  0  0  0  0  0  0  0  0  0  0  0
   -3.4533   -0.6028   -0.9626 C   0  0  0  0  0  0  0  0  0  0  0  0
   -4.3521    0.3260   -0.6001 C   0  0  0  0  0  0  0  0  0  0  0  0
   -3.9900    1.4500    0.0939 N   0  0  0  0  0  0  0  0  0  0  0  0
   -2.6759    1.6932    0.4301 C   0  0  0  0  0  0  0  0  0  0  0  0
   -1.6509    0.8570    0.1321 C   0  0  0  0  0  0  0  0  0  0  0  0
   -0.2521    1.1537    0.5003 C   0  0  0  0  0  0  0  0  0  0  0  0
    0.0412    2.4832    1.1395 C   0  0  0  0  0  0  0  0  0  0  0  0
    0.6797    0.2227    0.2297 C   0  0  0  0  0  0  0  0  0  0  0  0
    0.3096   -1.0410   -0.4859 C   0  0  0  0  0  0  0  0  0  0  0  0
    1.3375   -1.8226   -0.6998 N   0  0  0  0  0  0  0  0  0  0  0  0
    2.4428   -1.1493   -0.1397 C   0  0  0  0  0  0  0  0  0  0  0  0
    3.7398   -1.6358   -0.1317 C   0  0  0  0  0  0  0  0  0  0  0  0
    4.7332   -0.8723    0.4816 C   0  0  0  0  0  0  0  0  0  0  0  0
    4.4147    0.3552    1.0810 C   0  0  0  0  0  0  0  0  0  0  0  0
    3.1012    0.8416    1.0709 C   0  0  0  0  0  0  0  0  0  0  0  0
    2.1206    0.0888    0.4467 C   0  0  0  0  0  0  0  0  0  0  0  0
   -0.9229   -3.4544   -0.9647 H   0  0  0  0  0  0  0  0  0  0  0  0
   -2.2887   -2.8561   -1.8893 H   0  0  0  0  0  0  0  0  0  0  0  0
   -0.6645   -2.6439   -2.5247 H   0  0  0  0  0  0  0  0  0  0  0  0
   -3.7794   -1.4748   -1.5119 H   0  0  0  0  0  0  0  0  0  0  0  0
   -5.4080    0.2413   -0.8348 H   0  0  0  0  0  0  0  0  0  0  0  0
   -4.6974    2.1372    0.3293 H   0  0  0  0  0  0  0  0  0  0  0  0
   -2.5559    2.6301    0.9613 H   0  0  0  0  0  0  0  0  0  0  0  0
    1.1035    2.7065    1.2116 H   0  0  0  0  0  0  0  0  0  0  0  0
   -0.3756    2.5251    2.1514 H   0  0  0  0  0  0  0  0  0  0  0  0
   -0.3834    3.3021    0.5473 H   0  0  0  0  0  0  0  0  0  0  0  0
    3.9673   -2.5918   -0.5901 H   0  0  0  0  0  0  0  0  0  0  0  0
    5.7580   -1.2350    0.5011 H   0  0  0  0  0  0  0  0  0  0  0  0
    5.1991    0.9338    1.5645 H   0  0  0  0  0  0  0  0  0  0  0  0
    2.8898    1.7829    1.5593 H   0  0  0  0  0  0  0  0  0  0  0  0
  1  2  1  0
  2  3  2  0
  3  4  1  0
  4  5  2  0
  5  6  1  0
  6  7  1  0
  7  8  2  0
  8  9  1  0
  9 10  1  0
  9 11  2  0
 11 12  1  0
 12 13  2  0
 13 14  1  0
 14 15  2  0
 15 16  1  0
 16 17  2  0
 17 18  1  0
 18 19  2  0
 12  2  1  0
 19 14  1  0
  8  3  1  0
 19 11  1  0
  1 20  1  0
  1 21  1  0
  1 22  1  0
  4 23  1  0
  5 24  1  0
  6 25  1  0
  7 26  1  0
 10 27  1  0
 10 28  1  0
 10 29  1  0
 15 30  1  0
 16 31  1  0
 17 32  1  0
 18 33  1  0
M  END
$$$$
