
     RDKit          3D

 51 54  0  0  0  0  0  0  0  0999 V2000
    6.3803    1.2517   -2.0494 C   0  0  0  0  0  0  0  0  0  0  0  0
    5.3251    0.1915   -2.3352 C   0  0  0  0  0  0  0  0  0  0  0  0
    4.0037    0.5362   -1.6983 C   0  0  0  0  0  0  0  0  0  0  0  0
    3.0621    1.3037   -2.3889 C   0  0  0  0  0  0  0  0  0  0  0  0
    1.8422    1.6430   -1.7910 C   0  0  0  0  0  0  0  0  0  0  0  0
    1.5238    1.2299   -0.4844 C   0  0  0  0  0  0  0  0  0  0  0  0
    0.2449    1.5739    0.1112 N   0  0  0  0  0  0  0  0  0  0  0  0
   -0.3079    2.8257   -0.1938 C   0  0  0  0  0  0  0  0  0  0  0  0
    0.2677    3.7424   -0.7829 O   0  0  0  0  0  0  0  0  0  0  0  0
   -1.6780    3.0948    0.2690 C   0  0  0  0  0  0  0  0  0  0  0  0
   -2.3271    4.2740   -0.1401 C   0  0  0  0  0  0  0  0  0  0  0  0
   -3.6251    4.5436    0.2808 C   0  0  0  0  0  0  0  0  0  0  0  0
   -4.2757    3.6331    1.1046 C   0  0  0  0  0  0  0  0  0  0  0  0
   -3.6244    2.4641    1.5143 C   0  0  0  0  0  0  0  0  0  0  0  0
   -2.3083    2.1851    1.1106 C   0  0  0  0  0  0  0  0  0  0  0  0
   -1.6055    1.0263    1.5234 N   0  0  0  0  0  0  0  0  0  0  0  0
   -2.2107    0.0745    2.4607 C   0  0  0  0  0  0  0  0  0  0  0  0
   -2.9885   -0.9962    1.6935 C   0  0  0  0  0  0  0  0  0  0  0  0
   -4.1624   -0.8466    1.3623 O   0  0  0  0  0  0  0  0  0  0  0  0
   -2.2379   -2.0999    1.3586 N   0  0  0  0  0  0  0  0  0  0  0  0
   -2.7514   -3.1052    0.4617 C   0  0  0  0  0  0  0  0  0  0  0  0
   -1.9465   -4.3405    0.6286 C   0  0  0  0  0  0  0  0  0  0  0  0
   -2.2361   -5.6136    1.0841 C   0  0  0  0  0  0  0  0  0  0  0  0
   -1.0319   -6.3535    0.9991 C   0  0  0  0  0  0  0  0  0  0  0  0
   -0.0794   -5.4810    0.5165 C   0  0  0  0  0  0  0  0  0  0  0  0
   -0.6236   -4.2569    0.2857 O   0  0  0  0  0  0  0  0  0  0  0  0
   -0.3672    0.6651    0.9862 C   0  0  0  0  0  0  0  0  0  0  0  0
    0.0972   -0.4460    1.2742 O   0  0  0  0  0  0  0  0  0  0  0  0
    2.4851    0.4668    0.1993 C   0  0  0  0  0  0  0  0  0  0  0  0
    3.7080    0.1256   -0.3956 C   0  0  0  0  0  0  0  0  0  0  0  0
    6.5761    1.3363   -0.9734 H   0  0  0  0  0  0  0  0  0  0  0  0
    7.3210    0.9926   -2.5462 H   0  0  0  0  0  0  0  0  0  0  0  0
    6.0624    2.2364   -2.4132 H   0  0  0  0  0  0  0  0  0  0  0  0
    5.6712   -0.7856   -1.9726 H   0  0  0  0  0  0  0  0  0  0  0  0
    5.1931    0.0827   -3.4211 H   0  0  0  0  0  0  0  0  0  0  0  0
    3.2658    1.6470   -3.4028 H   0  0  0  0  0  0  0  0  0  0  0  0
    1.1362    2.2179   -2.3860 H   0  0  0  0  0  0  0  0  0  0  0  0
   -1.8211    4.9851   -0.7914 H   0  0  0  0  0  0  0  0  0  0  0  0
   -4.1280    5.4533   -0.0369 H   0  0  0  0  0  0  0  0  0  0  0  0
   -5.2970    3.8250    1.4280 H   0  0  0  0  0  0  0  0  0  0  0  0
   -4.1964    1.7795    2.1348 H   0  0  0  0  0  0  0  0  0  0  0  0
   -1.4289   -0.4094    3.0598 H   0  0  0  0  0  0  0  0  0  0  0  0
   -2.8596    0.5665    3.1902 H   0  0  0  0  0  0  0  0  0  0  0  0
   -1.2215   -1.9912    1.3826 H   0  0  0  0  0  0  0  0  0  0  0  0
   -2.6648   -2.7219   -0.5627 H   0  0  0  0  0  0  0  0  0  0  0  0
   -3.8132   -3.2852    0.6720 H   0  0  0  0  0  0  0  0  0  0  0  0
   -3.2039   -5.9628    1.4234 H   0  0  0  0  0  0  0  0  0  0  0  0
   -0.8728   -7.3921    1.2608 H   0  0  0  0  0  0  0  0  0  0  0  0
    0.9751   -5.5694    0.2920 H   0  0  0  0  0  0  0  0  0  0  0  0
    2.3254    0.1430    1.2259 H   0  0  0  0  0  0  0  0  0  0  0  0
    4.4281   -0.4594    0.1740 H   0  0  0  0  0  0  0  0  0  0  0  0
  1  2  1  0
  2  3  1  0
  3  4  2  0
  4  5  1  0
  5  6  2  0
  6  7  1  0
  7  8  1  0
  8  9  2  0
  8 10  1  0
 10 11  2  0
 11 12  1  0
 12 13  2  0
 13 14  1  0
 14 15  2  0
 15 16  1  0
 16 17  1  0
 17 18  1  0
 18 19  2  0
 18 20  1  0
 20 21  1  0
 21 22  1  0
 22 23  2  0
 23 24  1  0
 24 25  2  0
 25 26  1  0
 16 27  1  0
 27 28  2  0
  6 29  1  0
 29 30  2  0
 30  3  1  0
 27  7  1  0
 15 10  1  0
 26 22  1  0
  1 31  1  0
  1 32  1  0
  1 33  1  0
  2 34  1  0
  2 35  1  0
  4 36  1  0
  5 37  1  0
 11 38  1  0
 12 39  1  0
 13 40  1  0
 14 41  1  0
 17 42  1  0
 17 43  1  0
 20 44  1  0
 21 45  1  0
 21 46  1  0
 23 47  1  0
 24 48  1  0
 25 49  1  0
 29 50  1  0
 30 51  1  0
M  END
$$$$
