
     RDKit          3D

 54 57  0  0  0  0  0  0  0  0999 V2000
   -3.2779    5.0262   -0.3758 C   0  0  0  0  0  0  0  0  0  0  0  0
   -2.8505    4.4837    0.8664 O   0  0  0  0  0  0  0  0  0  0  0  0
   -2.1174    3.3311    0.8196 C   0  0  0  0  0  0  0  0  0  0  0  0
   -1.7426    2.8278    2.0674 C   0  0  0  0  0  0  0  0  0  0  0  0
   -0.9879    1.6570    2.1701 C   0  0  0  0  0  0  0  0  0  0  0  0
   -0.6075    0.9723    1.0118 C   0  0  0  0  0  0  0  0  0  0  0  0
    0.1585   -0.2162    1.1131 N   0  0  0  0  0  0  0  0  0  0  0  0
   -0.0191   -1.4173    0.4331 C   0  0  0  0  0  0  0  0  0  0  0  0
   -1.1725   -1.7784   -0.4432 C   0  0  0  0  0  0  0  0  0  0  0  0
   -2.4620   -1.9172    0.3096 C   0  0  0  0  0  0  0  0  0  0  0  0
   -3.5878   -1.1131    0.2639 C   0  0  0  0  0  0  0  0  0  0  0  0
   -4.5492   -1.6546    1.1459 C   0  0  0  0  0  0  0  0  0  0  0  0
   -3.9938   -2.7807    1.7081 C   0  0  0  0  0  0  0  0  0  0  0  0
   -2.7288   -2.9364    1.2006 N   0  0  0  0  0  0  0  0  0  0  0  0
   -1.8352   -4.0120    1.5792 C   0  0  0  0  0  0  0  0  0  0  0  0
    0.9335   -2.2654    0.7790 N   0  0  0  0  0  0  0  0  0  0  0  0
    1.7416   -1.6582    1.6922 N   0  0  0  0  0  0  0  0  0  0  0  0
    1.2811   -0.4446    1.8898 C   0  0  0  0  0  0  0  0  0  0  0  0
    2.1788    0.7739    2.7417 S   0  0  0  0  0  0  0  0  0  0  0  0
    3.8375    0.4506    2.0618 C   0  0  0  0  0  0  0  0  0  0  0  0
    3.8692    0.7738    0.5732 C   0  0  0  0  0  0  0  0  0  0  0  0
    4.0887    1.9181    0.1830 O   0  0  0  0  0  0  0  0  0  0  0  0
    3.6132   -0.3218   -0.2344 N   0  0  0  0  0  0  0  0  0  0  0  0
    3.5215   -0.3558   -1.6435 C   0  0  0  0  0  0  0  0  0  0  0  0
    3.6952    0.7527   -2.4732 C   0  0  0  0  0  0  0  0  0  0  0  0
    3.5714    0.6225   -3.8619 C   0  0  0  0  0  0  0  0  0  0  0  0
    3.2795   -0.6165   -4.4347 C   0  0  0  0  0  0  0  0  0  0  0  0
    3.1108   -1.7302   -3.6176 C   0  0  0  0  0  0  0  0  0  0  0  0
    3.2302   -1.5906   -2.2378 C   0  0  0  0  0  0  0  0  0  0  0  0
    3.0720   -2.6770   -1.4661 F   0  0  0  0  0  0  0  0  0  0  0  0
   -0.9731    1.4750   -0.2418 C   0  0  0  0  0  0  0  0  0  0  0  0
   -1.7259    2.6523   -0.3345 C   0  0  0  0  0  0  0  0  0  0  0  0
   -3.8525    5.9323   -0.1629 H   0  0  0  0  0  0  0  0  0  0  0  0
   -3.9364    4.3295   -0.9052 H   0  0  0  0  0  0  0  0  0  0  0  0
   -2.4224    5.3130   -0.9971 H   0  0  0  0  0  0  0  0  0  0  0  0
   -2.0456    3.3521    2.9710 H   0  0  0  0  0  0  0  0  0  0  0  0
   -0.7428    1.2849    3.1623 H   0  0  0  0  0  0  0  0  0  0  0  0
   -1.2870   -1.0596   -1.2589 H   0  0  0  0  0  0  0  0  0  0  0  0
   -0.9518   -2.7306   -0.9432 H   0  0  0  0  0  0  0  0  0  0  0  0
   -3.7048   -0.2215   -0.3389 H   0  0  0  0  0  0  0  0  0  0  0  0
   -5.5386   -1.2678    1.3482 H   0  0  0  0  0  0  0  0  0  0  0  0
   -4.3971   -3.4794    2.4297 H   0  0  0  0  0  0  0  0  0  0  0  0
   -1.1465   -3.6277    2.3367 H   0  0  0  0  0  0  0  0  0  0  0  0
   -1.2964   -4.3647    0.6968 H   0  0  0  0  0  0  0  0  0  0  0  0
   -2.4229   -4.8368    1.9918 H   0  0  0  0  0  0  0  0  0  0  0  0
    4.1447   -0.5838    2.2472 H   0  0  0  0  0  0  0  0  0  0  0  0
    4.5629    1.0960    2.5677 H   0  0  0  0  0  0  0  0  0  0  0  0
    3.3784   -1.2045    0.2258 H   0  0  0  0  0  0  0  0  0  0  0  0
    3.9307    1.7355   -2.0744 H   0  0  0  0  0  0  0  0  0  0  0  0
    3.7078    1.4953   -4.4975 H   0  0  0  0  0  0  0  0  0  0  0  0
    3.1903   -0.7116   -5.5144 H   0  0  0  0  0  0  0  0  0  0  0  0
    2.8978   -2.7077   -4.0417 H   0  0  0  0  0  0  0  0  0  0  0  0
   -0.6414    1.0062   -1.1638 H   0  0  0  0  0  0  0  0  0  0  0  0
   -1.9782    3.0197   -1.3243 H   0  0  0  0  0  0  0  0  0  0  0  0
  1  2  1  0
  2  3  1  0
  3  4  2  0
  4  5  1  0
  5  6  2  0
  6  7  1  0
  7  8  1  0
  8  9  1  0
  9 10  1  0
 10 11  2  0
 11 12  1  0
 12 13  2  0
 13 14  1  0
 14 15  1  0
  8 16  2  0
 16 17  1  0
 17 18  2  0
 18 19  1  0
 19 20  1  0
 20 21  1  0
 21 22  2  0
 21 23  1  0
 23 24  1  0
 24 25  2  0
 25 26  1  0
 26 27  2  0
 27 28  1  0
 28 29  2  0
 29 30  1  0
  6 31  1  0
 31 32  2  0
 32  3  1  0
 18  7  1  0
 29 24  1  0
 14 10  1  0
  1 33  1  0
  1 34  1  0
  1 35  1  0
  4 36  1  0
  5 37  1  0
  9 38  1  0
  9 39  1  0
 11 40  1  0
 12 41  1  0
 13 42  1  0
 15 43  1  0
 15 44  1  0
 15 45  1  0
 20 46  1  0
 20 47  1  0
 23 48  1  0
 25 49  1  0
 26 50  1  0
 27 51  1  0
 28 52  1  0
 31 53  1  0
 32 54  1  0
M  END
$$$$
