
     RDKit          3D

 35 36  0  0  0  0  0  0  0  0999 V2000
   -5.8404   -0.0885    0.7074 C   0  0  0  0  0  0  0  0  0  0  0  0
   -5.2426    0.4701   -0.5572 C   0  0  0  0  0  0  0  0  0  0  0  0
   -5.9349    0.6752   -1.5520 O   0  0  0  0  0  0  0  0  0  0  0  0
   -3.7836    0.7866   -0.5899 C   0  0  0  0  0  0  0  0  0  0  0  0
   -3.2077    1.1531   -1.8145 C   0  0  0  0  0  0  0  0  0  0  0  0
   -1.8461    1.4572   -1.8948 C   0  0  0  0  0  0  0  0  0  0  0  0
   -1.0578    1.4113   -0.7463 C   0  0  0  0  0  0  0  0  0  0  0  0
    0.3405    1.6775   -0.8386 N   0  0  0  0  0  0  0  0  0  0  0  0
    1.3710    0.3246   -0.9727 S   0  0  0  0  0  6  0  0  0  0  0  0
    0.5754   -0.8756   -1.1129 O   0  0  0  0  0  0  0  0  0  0  0  0
    2.3449    0.7177   -1.9711 O   0  0  0  0  0  0  0  0  0  0  0  0
    2.1537    0.3546    0.6446 C   0  0  0  0  0  0  0  0  0  0  0  0
    3.1856   -0.7419    0.7197 C   0  0  0  0  0  0  0  0  0  0  0  0
    4.5211   -0.4880    0.3719 C   0  0  0  0  0  0  0  0  0  0  0  0
    5.4760   -1.5054    0.4376 C   0  0  0  0  0  0  0  0  0  0  0  0
    5.1013   -2.7824    0.8481 C   0  0  0  0  0  0  0  0  0  0  0  0
    6.2784   -4.0343    0.9304 Cl  0  0  0  0  0  0  0  0  0  0  0  0
    3.7785   -3.0520    1.1901 C   0  0  0  0  0  0  0  0  0  0  0  0
    2.8226   -2.0355    1.1251 C   0  0  0  0  0  0  0  0  0  0  0  0
   -1.6179    1.0380    0.4749 C   0  0  0  0  0  0  0  0  0  0  0  0
   -2.9807    0.7307    0.5563 C   0  0  0  0  0  0  0  0  0  0  0  0
   -5.2925   -0.9782    1.0288 H   0  0  0  0  0  0  0  0  0  0  0  0
   -6.8755   -0.3868    0.5137 H   0  0  0  0  0  0  0  0  0  0  0  0
   -5.8418    0.6733    1.4911 H   0  0  0  0  0  0  0  0  0  0  0  0
   -3.8164    1.1921   -2.7168 H   0  0  0  0  0  0  0  0  0  0  0  0
   -1.4161    1.7145   -2.8589 H   0  0  0  0  0  0  0  0  0  0  0  0
    0.5986    2.3375   -1.5769 H   0  0  0  0  0  0  0  0  0  0  0  0
    2.6140    1.3378    0.7830 H   0  0  0  0  0  0  0  0  0  0  0  0
    1.3806    0.2122    1.4051 H   0  0  0  0  0  0  0  0  0  0  0  0
    4.8284    0.5010    0.0357 H   0  0  0  0  0  0  0  0  0  0  0  0
    6.5063   -1.2966    0.1616 H   0  0  0  0  0  0  0  0  0  0  0  0
    3.4833   -4.0507    1.5008 H   0  0  0  0  0  0  0  0  0  0  0  0
    1.7899   -2.2672    1.3814 H   0  0  0  0  0  0  0  0  0  0  0  0
   -1.0071    0.9914    1.3713 H   0  0  0  0  0  0  0  0  0  0  0  0
   -3.3889    0.4531    1.5237 H   0  0  0  0  0  0  0  0  0  0  0  0
  1  2  1  0
  2  3  2  0
  2  4  1  0
  4  5  2  0
  5  6  1  0
  6  7  2  0
  7  8  1  0
  8  9  1  0
  9 10  2  0
  9 11  2  0
  9 12  1  0
 12 13  1  0
 13 14  2  0
 14 15  1  0
 15 16  2  0
 16 17  1  0
 16 18  1  0
 18 19  2  0
  7 20  1  0
 20 21  2  0
 21  4  1  0
 19 13  1  0
  1 22  1  0
  1 23  1  0
  1 24  1  0
  5 25  1  0
  6 26  1  0
  8 27  1  0
 12 28  1  0
 12 29  1  0
 14 30  1  0
 15 31  1  0
 18 32  1  0
 19 33  1  0
 20 34  1  0
 21 35  1  0
M  END
$$$$
