
     RDKit          3D

 37 38  0  0  0  0  0  0  0  0999 V2000
   -5.1528    1.4097   -2.1125 C   0  0  0  0  0  0  0  0  0  0  0  0
   -4.6725    0.4896   -1.1428 O   0  0  0  0  0  0  0  0  0  0  0  0
   -3.4084    0.6883   -0.6457 C   0  0  0  0  0  0  0  0  0  0  0  0
   -2.5634    1.7338   -1.0319 C   0  0  0  0  0  0  0  0  0  0  0  0
   -1.2897    1.8527   -0.4716 C   0  0  0  0  0  0  0  0  0  0  0  0
   -0.8455    0.9211    0.4703 C   0  0  0  0  0  0  0  0  0  0  0  0
    0.5225    1.0841    1.0324 C   0  0  0  0  0  0  0  0  0  0  0  0
    1.0219    2.1998    1.1187 O   0  0  0  0  0  0  0  0  0  0  0  0
    1.1735   -0.0764    1.3945 N   0  0  0  0  0  0  0  0  0  0  0  0
    2.5519   -0.0567    1.8295 C   0  0  0  0  0  0  0  0  0  0  0  0
    3.4823   -0.3443    0.6781 C   0  0  0  0  0  0  0  0  0  0  0  0
    3.8748    0.6859   -0.1876 C   0  0  0  0  0  0  0  0  0  0  0  0
    4.7164    0.4221   -1.2707 C   0  0  0  0  0  0  0  0  0  0  0  0
    5.1718   -0.8773   -1.5065 C   0  0  0  0  0  0  0  0  0  0  0  0
    6.2082   -1.1336   -2.8647 Cl  0  0  0  0  0  0  0  0  0  0  0  0
    4.7796   -1.9151   -0.6547 C   0  0  0  0  0  0  0  0  0  0  0  0
    5.2944   -3.5488   -0.8853 Cl  0  0  0  0  0  0  0  0  0  0  0  0
    3.9362   -1.6482    0.4306 C   0  0  0  0  0  0  0  0  0  0  0  0
   -1.6918   -0.1182    0.8781 C   0  0  0  0  0  0  0  0  0  0  0  0
   -2.9717   -0.2402    0.3236 C   0  0  0  0  0  0  0  0  0  0  0  0
   -3.8671   -1.2277    0.6546 O   0  0  0  0  0  0  0  0  0  0  0  0
   -3.5278   -2.1047    1.7187 C   0  0  0  0  0  0  0  0  0  0  0  0
   -5.2165    2.4217   -1.6994 H   0  0  0  0  0  0  0  0  0  0  0  0
   -6.1646    1.1017   -2.3934 H   0  0  0  0  0  0  0  0  0  0  0  0
   -4.5361    1.3884   -3.0170 H   0  0  0  0  0  0  0  0  0  0  0  0
   -2.8650    2.4749   -1.7646 H   0  0  0  0  0  0  0  0  0  0  0  0
   -0.6422    2.6730   -0.7765 H   0  0  0  0  0  0  0  0  0  0  0  0
    0.8057   -0.9606    1.0729 H   0  0  0  0  0  0  0  0  0  0  0  0
    2.8003    0.9065    2.2894 H   0  0  0  0  0  0  0  0  0  0  0  0
    2.6589   -0.8228    2.6054 H   0  0  0  0  0  0  0  0  0  0  0  0
    3.5181    1.7030   -0.0222 H   0  0  0  0  0  0  0  0  0  0  0  0
    5.0093    1.2369   -1.9288 H   0  0  0  0  0  0  0  0  0  0  0  0
    3.6333   -2.4619    1.0865 H   0  0  0  0  0  0  0  0  0  0  0  0
   -1.3509   -0.8064    1.6421 H   0  0  0  0  0  0  0  0  0  0  0  0
   -3.3614   -1.5531    2.6499 H   0  0  0  0  0  0  0  0  0  0  0  0
   -2.6580   -2.7174    1.4604 H   0  0  0  0  0  0  0  0  0  0  0  0
   -4.3738   -2.7799    1.8789 H   0  0  0  0  0  0  0  0  0  0  0  0
  1  2  1  0
  2  3  1  0
  3  4  2  0
  4  5  1  0
  5  6  2  0
  6  7  1  0
  7  8  2  0
  7  9  1  0
  9 10  1  0
 10 11  1  0
 11 12  2  0
 12 13  1  0
 13 14  2  0
 14 15  1  0
 14 16  1  0
 16 17  1  0
 16 18  2  0
  6 19  1  0
 19 20  2  0
 20 21  1  0
 21 22  1  0
 20  3  1  0
 18 11  1  0
  1 23  1  0
  1 24  1  0
  1 25  1  0
  4 26  1  0
  5 27  1  0
  9 28  1  0
 10 29  1  0
 10 30  1  0
 12 31  1  0
 13 32  1  0
 18 33  1  0
 19 34  1  0
 22 35  1  0
 22 36  1  0
 22 37  1  0
M  END
$$$$
