
     RDKit          3D

 34 35  0  0  0  0  0  0  0  0999 V2000
   -4.0607   -1.5714   -1.5172 O   0  0  0  0  0  0  0  0  0  0  0  0
   -3.8207   -1.3114   -0.3284 C   0  0  0  0  0  0  0  0  0  0  0  0
   -4.9477   -1.4835    0.6925 C   0  0  0  0  0  0  0  0  0  0  0  0
   -4.4781   -2.5239    2.0461 Cl  0  0  0  0  0  0  0  0  0  0  0  0
   -5.5620    0.0945    1.2184 Cl  0  0  0  0  0  0  0  0  0  0  0  0
   -2.5585   -0.8557    0.0372 N   0  0  0  0  0  0  0  0  0  0  0  0
   -2.1320   -0.4245    1.3764 C   0  0  0  0  0  0  0  0  0  0  0  0
   -1.0490    0.6675    1.2969 C   0  0  0  0  0  0  0  0  0  0  0  0
    0.1794    0.2239    0.6096 N   0  0  0  0  0  0  0  0  0  0  0  0
    0.9400    1.3840    0.1190 C   0  0  0  0  0  0  0  0  0  0  0  0
    2.3687    1.0534   -0.2613 C   0  0  0  0  0  0  0  0  0  0  0  0
    3.2118    0.3799    0.6357 C   0  0  0  0  0  0  0  0  0  0  0  0
    4.5341    0.0954    0.2917 C   0  0  0  0  0  0  0  0  0  0  0  0
    5.0311    0.4872   -0.9496 C   0  0  0  0  0  0  0  0  0  0  0  0
    4.2074    1.1649   -1.8466 C   0  0  0  0  0  0  0  0  0  0  0  0
    2.8840    1.4500   -1.5041 C   0  0  0  0  0  0  0  0  0  0  0  0
   -0.0997   -0.7712   -0.4474 C   0  0  0  0  0  0  0  0  0  0  0  0
   -1.5336   -0.7495   -1.0084 C   0  0  0  0  0  0  0  0  0  0  0  0
   -5.7777   -1.9912    0.1919 H   0  0  0  0  0  0  0  0  0  0  0  0
   -2.9757   -0.0475    1.9535 H   0  0  0  0  0  0  0  0  0  0  0  0
   -1.7375   -1.3068    1.8941 H   0  0  0  0  0  0  0  0  0  0  0  0
   -1.4853    1.5338    0.7805 H   0  0  0  0  0  0  0  0  0  0  0  0
   -0.7879    0.9893    2.3115 H   0  0  0  0  0  0  0  0  0  0  0  0
    1.0028    2.1477    0.9062 H   0  0  0  0  0  0  0  0  0  0  0  0
    0.4159    1.8491   -0.7264 H   0  0  0  0  0  0  0  0  0  0  0  0
    2.8322    0.0683    1.6067 H   0  0  0  0  0  0  0  0  0  0  0  0
    5.1748   -0.4323    0.9931 H   0  0  0  0  0  0  0  0  0  0  0  0
    6.0608    0.2655   -1.2171 H   0  0  0  0  0  0  0  0  0  0  0  0
    4.5965    1.4731   -2.8135 H   0  0  0  0  0  0  0  0  0  0  0  0
    2.2578    1.9827   -2.2158 H   0  0  0  0  0  0  0  0  0  0  0  0
    0.0679   -1.7586    0.0028 H   0  0  0  0  0  0  0  0  0  0  0  0
    0.6109   -0.7056   -1.2791 H   0  0  0  0  0  0  0  0  0  0  0  0
   -1.7155    0.1903   -1.5439 H   0  0  0  0  0  0  0  0  0  0  0  0
   -1.6547   -1.5677   -1.7272 H   0  0  0  0  0  0  0  0  0  0  0  0
  1  2  2  0
  2  3  1  0
  3  4  1  0
  3  5  1  0
  2  6  1  0
  6  7  1  0
  7  8  1  0
  8  9  1  0
  9 10  1  0
 10 11  1  0
 11 12  2  0
 12 13  1  0
 13 14  2  0
 14 15  1  0
 15 16  2  0
  9 17  1  0
 17 18  1  0
 18  6  1  0
 16 11  1  0
  3 19  1  0
  7 20  1  0
  7 21  1  0
  8 22  1  0
  8 23  1  0
 10 24  1  0
 10 25  1  0
 12 26  1  0
 13 27  1  0
 14 28  1  0
 15 29  1  0
 16 30  1  0
 17 31  1  0
 17 32  1  0
 18 33  1  0
 18 34  1  0
M  END
$$$$
