
     RDKit          3D

 35 37  0  0  0  0  0  0  0  0999 V2000
   -3.3947    4.6103    3.3498 C   0  0  0  0  0  0  0  0  0  0  0  0
   -3.0979    3.2719    3.7279 O   0  0  0  0  0  0  0  0  0  0  0  0
   -2.1944    2.5981    2.9537 C   0  0  0  0  0  0  0  0  0  0  0  0
   -1.4855    3.1227    1.8735 C   0  0  0  0  0  0  0  0  0  0  0  0
   -0.5848    2.3185    1.1639 C   0  0  0  0  0  0  0  0  0  0  0  0
   -0.3928    0.9792    1.5204 C   0  0  0  0  0  0  0  0  0  0  0  0
    0.5602    0.1186    0.8076 C   0  0  0  0  0  0  0  0  0  0  0  0
    0.5271   -0.2105   -0.5025 C   0  0  0  0  0  0  0  0  0  0  0  0
   -0.5114    0.2794   -1.3617 C   0  0  0  0  0  0  0  0  0  0  0  0
   -1.3499    0.6808   -2.0586 N   0  0  0  0  0  0  0  0  0  0  0  0
    1.5224   -1.0666   -1.0949 C   0  0  0  0  0  0  0  0  0  0  0  0
    2.8750   -0.9983   -0.8194 C   0  0  0  0  0  0  0  0  0  0  0  0
    3.5112   -1.9509   -1.5694 N   0  0  0  0  0  0  0  0  0  0  0  0
    2.5997   -2.6501   -2.3256 C   0  0  0  0  0  0  0  0  0  0  0  0
    2.8041   -3.7051   -3.2237 C   0  0  0  0  0  0  0  0  0  0  0  0
    1.6838   -4.2411   -3.8629 C   0  0  0  0  0  0  0  0  0  0  0  0
    0.4101   -3.7415   -3.6105 C   0  0  0  0  0  0  0  0  0  0  0  0
    0.2222   -2.6865   -2.7093 C   0  0  0  0  0  0  0  0  0  0  0  0
    1.3363   -2.1186   -2.0518 C   0  0  0  0  0  0  0  0  0  0  0  0
   -1.0939    0.4604    2.6123 C   0  0  0  0  0  0  0  0  0  0  0  0
   -1.9897    1.2663    3.3202 C   0  0  0  0  0  0  0  0  0  0  0  0
   -3.8142    4.6528    2.3391 H   0  0  0  0  0  0  0  0  0  0  0  0
   -2.5102    5.2497    3.4387 H   0  0  0  0  0  0  0  0  0  0  0  0
   -4.1521    4.9927    4.0408 H   0  0  0  0  0  0  0  0  0  0  0  0
   -1.6062    4.1528    1.5554 H   0  0  0  0  0  0  0  0  0  0  0  0
   -0.0381    2.7560    0.3312 H   0  0  0  0  0  0  0  0  0  0  0  0
    1.3357   -0.2981    1.4481 H   0  0  0  0  0  0  0  0  0  0  0  0
    3.4447   -0.3494   -0.1669 H   0  0  0  0  0  0  0  0  0  0  0  0
    4.5074   -2.1225   -1.5733 H   0  0  0  0  0  0  0  0  0  0  0  0
    3.7958   -4.0987   -3.4219 H   0  0  0  0  0  0  0  0  0  0  0  0
    1.8094   -5.0604   -4.5672 H   0  0  0  0  0  0  0  0  0  0  0  0
   -0.4505   -4.1716   -4.1174 H   0  0  0  0  0  0  0  0  0  0  0  0
   -0.7837   -2.3172   -2.5289 H   0  0  0  0  0  0  0  0  0  0  0  0
   -0.9588   -0.5741    2.9195 H   0  0  0  0  0  0  0  0  0  0  0  0
   -2.5363    0.8511    4.1636 H   0  0  0  0  0  0  0  0  0  0  0  0
  1  2  1  0
  2  3  1  0
  3  4  2  0
  4  5  1  0
  5  6  2  0
  6  7  1  0
  7  8  2  3
  8  9  1  0
  9 10  3  0
  8 11  1  0
 11 12  2  0
 12 13  1  0
 13 14  1  0
 14 15  2  0
 15 16  1  0
 16 17  2  0
 17 18  1  0
 18 19  2  0
  6 20  1  0
 20 21  2  0
 21  3  1  0
 19 11  1  0
 19 14  1  0
  1 22  1  0
  1 23  1  0
  1 24  1  0
  4 25  1  0
  5 26  1  0
  7 27  1  0
 12 28  1  0
 13 29  1  0
 15 30  1  0
 16 31  1  0
 17 32  1  0
 18 33  1  0
 20 34  1  0
 21 35  1  0
M  END
$$$$
