
     RDKit          3D

 53 55  0  0  0  0  0  0  0  0999 V2000
   -6.5951   -5.0925    3.7853 C   0  0  0  0  0  0  0  0  0  0  0  0
   -5.2325   -5.1313    3.3808 O   0  0  0  0  0  0  0  0  0  0  0  0
   -4.6333   -3.9328    3.1066 C   0  0  0  0  0  0  0  0  0  0  0  0
   -3.2623   -4.0154    2.8400 C   0  0  0  0  0  0  0  0  0  0  0  0
   -2.5229   -2.8687    2.5462 C   0  0  0  0  0  0  0  0  0  0  0  0
   -3.1683   -1.6315    2.5091 C   0  0  0  0  0  0  0  0  0  0  0  0
   -2.2231   -0.1790    2.1300 S   0  0  0  0  0  6  0  0  0  0  0  0
   -3.1246    0.9529    2.0657 O   0  0  0  0  0  0  0  0  0  0  0  0
   -1.0698   -0.1730    3.0010 O   0  0  0  0  0  0  0  0  0  0  0  0
   -1.7026   -0.4775    0.5679 N   0  0  0  0  0  0  0  0  0  0  0  0
   -2.6994   -0.6521   -0.4992 C   0  0  0  0  0  0  0  0  0  0  0  0
   -2.1941    0.2260   -1.6216 C   0  0  0  0  0  0  0  0  0  0  0  0
   -0.7825    0.2975   -1.4110 O   0  0  0  0  0  0  0  0  0  0  0  0
   -0.5967    0.3363    0.0238 C   0  0  0  0  0  0  0  0  0  0  0  0
   -0.5571    1.8201    0.4788 C   0  0  0  0  0  0  0  0  0  0  0  0
    0.4122    2.6150   -0.2589 N   0  0  0  0  0  0  0  0  0  0  0  0
    1.7646    2.4637   -0.0611 C   0  0  0  0  0  0  0  0  0  0  0  0
    2.2918    1.8060    0.8249 O   0  0  0  0  0  0  0  0  0  0  0  0
    2.6341    3.2022   -1.1039 C   0  0  0  0  0  0  0  0  0  0  0  0
    2.1084    3.7532   -2.0614 O   0  0  0  0  0  0  0  0  0  0  0  0
    3.9797    3.1442   -0.8309 N   0  0  0  0  0  0  0  0  0  0  0  0
    4.9759    3.6119   -1.7580 C   0  0  0  0  0  0  0  0  0  0  0  0
    5.5027    2.4755   -2.5973 C   0  0  0  0  0  0  0  0  0  0  0  0
    4.8244    2.0844   -3.7641 C   0  0  0  0  0  0  0  0  0  0  0  0
    5.2953    1.0178   -4.5314 C   0  0  0  0  0  0  0  0  0  0  0  0
    6.4392    0.3387   -4.1304 C   0  0  0  0  0  0  0  0  0  0  0  0
    6.8921   -0.6844   -4.8670 F   0  0  0  0  0  0  0  0  0  0  0  0
    7.1195    0.7025   -2.9738 C   0  0  0  0  0  0  0  0  0  0  0  0
    6.6502    1.7685   -2.2038 C   0  0  0  0  0  0  0  0  0  0  0  0
   -4.5364   -1.5331    2.7721 C   0  0  0  0  0  0  0  0  0  0  0  0
   -5.2679   -2.6881    3.0698 C   0  0  0  0  0  0  0  0  0  0  0  0
   -6.9024   -6.1155    4.0243 H   0  0  0  0  0  0  0  0  0  0  0  0
   -6.7242   -4.4859    4.6882 H   0  0  0  0  0  0  0  0  0  0  0  0
   -7.2356   -4.7335    2.9730 H   0  0  0  0  0  0  0  0  0  0  0  0
   -2.7659   -4.9832    2.8709 H   0  0  0  0  0  0  0  0  0  0  0  0
   -1.4552   -2.9449    2.3524 H   0  0  0  0  0  0  0  0  0  0  0  0
   -2.6910   -1.7052   -0.8002 H   0  0  0  0  0  0  0  0  0  0  0  0
   -3.7196   -0.3837   -0.2137 H   0  0  0  0  0  0  0  0  0  0  0  0
   -2.6127    1.2369   -1.5659 H   0  0  0  0  0  0  0  0  0  0  0  0
   -2.4075   -0.1869   -2.6114 H   0  0  0  0  0  0  0  0  0  0  0  0
    0.3584   -0.1548    0.2364 H   0  0  0  0  0  0  0  0  0  0  0  0
   -0.3070    1.8921    1.5421 H   0  0  0  0  0  0  0  0  0  0  0  0
   -1.5244    2.3066    0.3171 H   0  0  0  0  0  0  0  0  0  0  0  0
    0.1431    3.0293   -1.1484 H   0  0  0  0  0  0  0  0  0  0  0  0
    4.2543    2.5428   -0.0585 H   0  0  0  0  0  0  0  0  0  0  0  0
    5.7860    4.0619   -1.1733 H   0  0  0  0  0  0  0  0  0  0  0  0
    4.5617    4.3982   -2.3998 H   0  0  0  0  0  0  0  0  0  0  0  0
    3.9219    2.6092   -4.0746 H   0  0  0  0  0  0  0  0  0  0  0  0
    4.7759    0.7126   -5.4343 H   0  0  0  0  0  0  0  0  0  0  0  0
    8.0080    0.1532   -2.6790 H   0  0  0  0  0  0  0  0  0  0  0  0
    7.1839    2.0432   -1.2963 H   0  0  0  0  0  0  0  0  0  0  0  0
   -5.0401   -0.5688    2.7532 H   0  0  0  0  0  0  0  0  0  0  0  0
   -6.3292   -2.5825    3.2694 H   0  0  0  0  0  0  0  0  0  0  0  0
  1  2  1  0
  2  3  1  0
  3  4  2  0
  4  5  1  0
  5  6  2  0
  6  7  1  0
  7  8  2  0
  7  9  2  0
  7 10  1  0
 10 11  1  0
 11 12  1  0
 12 13  1  0
 13 14  1  0
 14 15  1  0
 15 16  1  0
 16 17  1  0
 17 18  2  0
 17 19  1  0
 19 20  2  0
 19 21  1  0
 21 22  1  0
 22 23  1  0
 23 24  2  0
 24 25  1  0
 25 26  2  0
 26 27  1  0
 26 28  1  0
 28 29  2  0
  6 30  1  0
 30 31  2  0
 31  3  1  0
 14 10  1  0
 29 23  1  0
  1 32  1  0
  1 33  1  0
  1 34  1  0
  4 35  1  0
  5 36  1  0
 11 37  1  0
 11 38  1  0
 12 39  1  0
 12 40  1  0
 14 41  1  0
 15 42  1  0
 15 43  1  0
 16 44  1  0
 21 45  1  0
 22 46  1  0
 22 47  1  0
 24 48  1  0
 25 49  1  0
 28 50  1  0
 29 51  1  0
 30 52  1  0
 31 53  1  0
M  END
$$$$
