
     RDKit          3D

 30 32  0  0  0  0  0  0  0  0999 V2000
   -0.3762    1.1820   -1.5749 C   0  0  0  0  0  0  0  0  0  0  0  0
   -0.7078    0.3651   -0.4259 N   0  0  0  0  0  0  0  0  0  0  0  0
    0.1968   -0.3010    0.3802 C   0  0  0  0  0  0  0  0  0  0  0  0
    1.6563   -0.2557    0.2355 C   0  0  0  0  0  0  0  0  0  0  0  0
    2.3509   -1.4532    0.0097 C   0  0  0  0  0  0  0  0  0  0  0  0
    3.7422   -1.4600   -0.1159 C   0  0  0  0  0  0  0  0  0  0  0  0
    4.4574   -0.2688   -0.0113 C   0  0  0  0  0  0  0  0  0  0  0  0
    3.7846    0.9308    0.2212 C   0  0  0  0  0  0  0  0  0  0  0  0
    2.3932    0.9340    0.3460 C   0  0  0  0  0  0  0  0  0  0  0  0
    1.7458    2.1178    0.5817 O   0  0  0  0  0  0  0  0  0  0  0  0
   -0.5491   -1.0154    1.3029 C   0  0  0  0  0  0  0  0  0  0  0  0
   -1.9246   -0.7509    1.0808 C   0  0  0  0  0  0  0  0  0  0  0  0
   -3.1116   -1.1764    1.7092 C   0  0  0  0  0  0  0  0  0  0  0  0
   -4.3442   -0.7123    1.2390 C   0  0  0  0  0  0  0  0  0  0  0  0
   -4.4039    0.1642    0.1600 C   0  0  0  0  0  0  0  0  0  0  0  0
   -3.2385    0.5987   -0.4794 C   0  0  0  0  0  0  0  0  0  0  0  0
   -2.0045    0.1246   -0.0023 C   0  0  0  0  0  0  0  0  0  0  0  0
   -0.3658    2.2277   -1.2588 H   0  0  0  0  0  0  0  0  0  0  0  0
    0.5952    0.8894   -1.9785 H   0  0  0  0  0  0  0  0  0  0  0  0
   -1.1281    1.0280   -2.3533 H   0  0  0  0  0  0  0  0  0  0  0  0
    1.8055   -2.3909   -0.0745 H   0  0  0  0  0  0  0  0  0  0  0  0
    4.2647   -2.3964   -0.2942 H   0  0  0  0  0  0  0  0  0  0  0  0
    5.5400   -0.2759   -0.1094 H   0  0  0  0  0  0  0  0  0  0  0  0
    4.3569    1.8500    0.2987 H   0  0  0  0  0  0  0  0  0  0  0  0
    2.4015    2.7860    0.8370 H   0  0  0  0  0  0  0  0  0  0  0  0
   -0.1383   -1.6501    2.0769 H   0  0  0  0  0  0  0  0  0  0  0  0
   -3.0704   -1.8569    2.5542 H   0  0  0  0  0  0  0  0  0  0  0  0
   -5.2609   -1.0381    1.7236 H   0  0  0  0  0  0  0  0  0  0  0  0
   -5.3699    0.5186   -0.1918 H   0  0  0  0  0  0  0  0  0  0  0  0
   -3.2975    1.2851   -1.3174 H   0  0  0  0  0  0  0  0  0  0  0  0
  1  2  1  0
  2  3  1  0
  3  4  1  0
  4  5  2  0
  5  6  1  0
  6  7  2  0
  7  8  1  0
  8  9  2  0
  9 10  1  0
  3 11  2  0
 11 12  1  0
 12 13  2  0
 13 14  1  0
 14 15  2  0
 15 16  1  0
 16 17  2  0
 17  2  1  0
  9  4  1  0
 17 12  1  0
  1 18  1  0
  1 19  1  0
  1 20  1  0
  5 21  1  0
  6 22  1  0
  7 23  1  0
  8 24  1  0
 10 25  1  0
 11 26  1  0
 13 27  1  0
 14 28  1  0
 15 29  1  0
 16 30  1  0
M  END
$$$$
