
     RDKit          3D

 53 58  0  0  0  0  0  0  0  0999 V2000
   -1.0302   -1.7027   -1.3919 O   0  0  0  0  0  0  0  0  0  0  0  0
   -1.5202   -1.1570   -0.3983 C   0  0  0  0  0  0  0  0  0  0  0  0
   -0.7615   -1.2822    0.9408 C   0  0  0  0  0  0  0  0  0  0  0  0
    0.6759   -1.0277    0.7297 N   0  0  0  0  0  4  0  0  0  0  0  0
    1.3548    0.1650    0.9770 C   0  0  0  0  0  0  0  0  0  0  0  0
    2.6725    0.0298    0.5554 C   0  0  0  0  0  0  0  0  0  0  0  0
    3.7852    1.1397    0.6075 C   0  0  0  0  0  0  0  0  0  0  0  0
    3.5050    2.3808    1.1946 C   0  0  0  0  0  0  0  0  0  0  0  0
    4.4868    3.3761    1.2406 C   0  0  0  0  0  0  0  0  0  0  0  0
    5.7453    3.1361    0.6976 C   0  0  0  0  0  0  0  0  0  0  0  0
    6.9498    4.3590    0.7514 Cl  0  0  0  0  0  0  0  0  0  0  0  0
    6.0303    1.9063    0.1102 C   0  0  0  0  0  0  0  0  0  0  0  0
    5.0513    0.9076    0.0649 C   0  0  0  0  0  0  0  0  0  0  0  0
    2.7258   -1.2727    0.0923 N   0  0  0  0  0  0  0  0  0  0  0  0
    1.5362   -1.8661    0.1602 C   0  0  0  0  0  0  0  0  0  0  0  0
    1.5446   -3.2512   -0.3662 C   0  0  0  0  0  0  0  0  0  0  0  0
    3.0552   -3.5484   -0.4508 C   0  0  0  0  0  0  0  0  0  0  0  0
    3.7340   -2.1519   -0.4837 C   0  0  0  0  0  0  0  0  0  0  0  0
   -2.6322   -0.2976   -0.3837 N   0  0  0  0  0  0  0  0  0  0  0  0
   -3.5007   -0.2121    0.7619 C   0  0  0  0  0  0  0  0  0  0  0  0
   -3.7543   -1.3727    1.5219 C   0  0  0  0  0  0  0  0  0  0  0  0
   -4.5812   -1.3363    2.6468 C   0  0  0  0  0  0  0  0  0  0  0  0
   -5.1792   -0.1423    3.0278 C   0  0  0  0  0  0  0  0  0  0  0  0
   -4.9676    1.0076    2.2713 C   0  0  0  0  0  0  0  0  0  0  0  0
   -4.1480    0.9750    1.1342 C   0  0  0  0  0  0  0  0  0  0  0  0
   -3.9213    2.4797    0.2306 S   0  0  0  0  0  0  0  0  0  0  0  0
   -3.5784    1.7851   -1.3692 C   0  0  0  0  0  0  0  0  0  0  0  0
   -3.8712    2.5869   -2.4850 C   0  0  0  0  0  0  0  0  0  0  0  0
   -3.5662    2.1516   -3.7698 C   0  0  0  0  0  0  0  0  0  0  0  0
   -2.9641    0.9141   -3.9443 C   0  0  0  0  0  0  0  0  0  0  0  0
   -2.6646    0.1142   -2.8351 C   0  0  0  0  0  0  0  0  0  0  0  0
   -2.9650    0.5255   -1.5239 C   0  0  0  0  0  0  0  0  0  0  0  0
   -1.1060   -0.5636    1.6892 H   0  0  0  0  0  0  0  0  0  0  0  0
   -0.8809   -2.2971    1.3314 H   0  0  0  0  0  0  0  0  0  0  0  0
    0.7987    0.9809    1.4082 H   0  0  0  0  0  0  0  0  0  0  0  0
    2.5378    2.6076    1.6321 H   0  0  0  0  0  0  0  0  0  0  0  0
    4.2649    4.3349    1.7029 H   0  0  0  0  0  0  0  0  0  0  0  0
    7.0127    1.7219   -0.3183 H   0  0  0  0  0  0  0  0  0  0  0  0
    5.3109   -0.0287   -0.4130 H   0  0  0  0  0  0  0  0  0  0  0  0
    1.0100   -3.9008    0.3276 H   0  0  0  0  0  0  0  0  0  0  0  0
    1.0767   -3.2233   -1.3518 H   0  0  0  0  0  0  0  0  0  0  0  0
    3.3222   -4.1723   -1.3078 H   0  0  0  0  0  0  0  0  0  0  0  0
    3.3677   -4.0727    0.4605 H   0  0  0  0  0  0  0  0  0  0  0  0
    3.9339   -1.8330   -1.5110 H   0  0  0  0  0  0  0  0  0  0  0  0
    4.6480   -2.1461    0.1140 H   0  0  0  0  0  0  0  0  0  0  0  0
   -3.3674   -2.3432    1.2202 H   0  0  0  0  0  0  0  0  0  0  0  0
   -4.7807   -2.2442    3.2131 H   0  0  0  0  0  0  0  0  0  0  0  0
   -5.8307   -0.1086    3.8985 H   0  0  0  0  0  0  0  0  0  0  0  0
   -5.4589    1.9318    2.5703 H   0  0  0  0  0  0  0  0  0  0  0  0
   -4.3360    3.5628   -2.3592 H   0  0  0  0  0  0  0  0  0  0  0  0
   -3.8008    2.7751   -4.6293 H   0  0  0  0  0  0  0  0  0  0  0  0
   -2.7335    0.5598   -4.9465 H   0  0  0  0  0  0  0  0  0  0  0  0
   -2.2358   -0.8601   -3.0459 H   0  0  0  0  0  0  0  0  0  0  0  0
  1  2  2  0
  2  3  1  0
  3  4  1  0
  4  5  1  0
  5  6  2  0
  6  7  1  0
  7  8  2  0
  8  9  1  0
  9 10  2  0
 10 11  1  0
 10 12  1  0
 12 13  2  0
  6 14  1  0
 14 15  1  0
 15 16  1  0
 16 17  1  0
 17 18  1  0
  2 19  1  0
 19 20  1  0
 20 21  2  0
 21 22  1  0
 22 23  2  0
 23 24  1  0
 24 25  2  0
 25 26  1  0
 26 27  1  0
 27 28  2  0
 28 29  1  0
 29 30  2  0
 30 31  1  0
 31 32  2  0
 15  4  2  0
 32 19  1  0
 13  7  1  0
 18 14  1  0
 25 20  1  0
 32 27  1  0
  3 33  1  0
  3 34  1  0
  5 35  1  0
  8 36  1  0
  9 37  1  0
 12 38  1  0
 13 39  1  0
 16 40  1  0
 16 41  1  0
 17 42  1  0
 17 43  1  0
 18 44  1  0
 18 45  1  0
 21 46  1  0
 22 47  1  0
 23 48  1  0
 24 49  1  0
 28 50  1  0
 29 51  1  0
 30 52  1  0
 31 53  1  0
M  CHG  1   4   1
M  END
$$$$
