
     RDKit          3D

 50 53  0  0  0  0  0  0  0  0999 V2000
   -6.0048   -0.7263   -1.5614 C   0  0  0  0  0  0  0  0  0  0  0  0
   -5.0959    0.3923   -1.6884 N   0  0  0  0  0  0  0  0  0  0  0  0
   -5.4328    1.6884   -1.3939 C   0  0  0  0  0  0  0  0  0  0  0  0
   -4.3588    2.4915   -1.6969 C   0  0  0  0  0  0  0  0  0  0  0  0
   -3.3336    1.6508   -2.1819 C   0  0  0  0  0  0  0  0  0  0  0  0
   -3.7935    0.3428   -2.1400 C   0  0  0  0  0  0  0  0  0  0  0  0
   -3.0884   -0.9276   -2.5265 C   0  0  0  0  0  0  0  0  0  0  0  0
   -1.6538   -0.9619   -2.0984 C   0  0  0  0  0  0  0  0  0  0  0  0
   -0.6289   -0.9673   -2.9308 N   0  0  0  0  0  0  0  0  0  0  0  0
    0.5152   -0.8023   -2.2042 N   0  0  0  0  0  0  0  0  0  0  0  0
    0.1812   -0.7116   -0.9378 C   0  0  0  0  0  0  0  0  0  0  0  0
    1.3277   -0.5945    0.3587 S   0  0  0  0  0  0  0  0  0  0  0  0
    2.8362   -1.1370   -0.4956 C   0  0  0  0  0  0  0  0  0  0  0  0
    4.0157   -1.0217    0.4557 C   0  0  0  0  0  0  0  0  0  0  0  0
    4.3791   -1.9826    1.1288 O   0  0  0  0  0  0  0  0  0  0  0  0
    4.5782    0.2473    0.4573 N   0  0  0  0  0  0  0  0  0  0  0  0
    5.6908    0.6958    1.1979 C   0  0  0  0  0  0  0  0  0  0  0  0
    6.4351   -0.1118    2.0591 C   0  0  0  0  0  0  0  0  0  0  0  0
    7.5314    0.4127    2.7524 C   0  0  0  0  0  0  0  0  0  0  0  0
    7.8931    1.7475    2.5897 C   0  0  0  0  0  0  0  0  0  0  0  0
    7.1576    2.5618    1.7336 C   0  0  0  0  0  0  0  0  0  0  0  0
    6.0620    2.0385    1.0418 C   0  0  0  0  0  0  0  0  0  0  0  0
   -1.1884   -0.8518   -0.7908 N   0  0  0  0  0  0  0  0  0  0  0  0
   -1.9546   -0.8928    0.4031 C   0  0  0  0  0  0  0  0  0  0  0  0
   -1.7539    0.0645    1.4075 C   0  0  0  0  0  0  0  0  0  0  0  0
   -2.5203    0.0173    2.5746 C   0  0  0  0  0  0  0  0  0  0  0  0
   -3.4719   -0.9829    2.7347 C   0  0  0  0  0  0  0  0  0  0  0  0
   -4.2051   -1.0240    3.8543 F   0  0  0  0  0  0  0  0  0  0  0  0
   -3.6731   -1.9428    1.7497 C   0  0  0  0  0  0  0  0  0  0  0  0
   -2.9158   -1.8997    0.5769 C   0  0  0  0  0  0  0  0  0  0  0  0
   -6.0247   -1.2684   -2.5103 H   0  0  0  0  0  0  0  0  0  0  0  0
   -5.6511   -1.3693   -0.7537 H   0  0  0  0  0  0  0  0  0  0  0  0
   -7.0086   -0.3596   -1.3307 H   0  0  0  0  0  0  0  0  0  0  0  0
   -6.4112    1.9416   -1.0063 H   0  0  0  0  0  0  0  0  0  0  0  0
   -4.3233    3.5677   -1.5885 H   0  0  0  0  0  0  0  0  0  0  0  0
   -2.3519    1.9625   -2.5188 H   0  0  0  0  0  0  0  0  0  0  0  0
   -3.1257   -1.0054   -3.6212 H   0  0  0  0  0  0  0  0  0  0  0  0
   -3.6073   -1.8134   -2.1511 H   0  0  0  0  0  0  0  0  0  0  0  0
    2.7410   -2.1811   -0.8120 H   0  0  0  0  0  0  0  0  0  0  0  0
    3.0242   -0.5275   -1.3864 H   0  0  0  0  0  0  0  0  0  0  0  0
    4.1236    0.9449   -0.1193 H   0  0  0  0  0  0  0  0  0  0  0  0
    6.1910   -1.1576    2.2165 H   0  0  0  0  0  0  0  0  0  0  0  0
    8.1018   -0.2286    3.4196 H   0  0  0  0  0  0  0  0  0  0  0  0
    8.7462    2.1506    3.1296 H   0  0  0  0  0  0  0  0  0  0  0  0
    7.4365    3.6039    1.6026 H   0  0  0  0  0  0  0  0  0  0  0  0
    5.5065    2.6973    0.3793 H   0  0  0  0  0  0  0  0  0  0  0  0
   -1.0424    0.8795    1.2892 H   0  0  0  0  0  0  0  0  0  0  0  0
   -2.3854    0.7594    3.3557 H   0  0  0  0  0  0  0  0  0  0  0  0
   -4.4110   -2.7231    1.9077 H   0  0  0  0  0  0  0  0  0  0  0  0
   -3.0580   -2.6860   -0.1593 H   0  0  0  0  0  0  0  0  0  0  0  0
  1  2  1  0
  2  3  1  0
  3  4  2  0
  4  5  1  0
  5  6  2  0
  6  7  1  0
  7  8  1  0
  8  9  2  0
  9 10  1  0
 10 11  2  0
 11 12  1  0
 12 13  1  0
 13 14  1  0
 14 15  2  0
 14 16  1  0
 16 17  1  0
 17 18  2  0
 18 19  1  0
 19 20  2  0
 20 21  1  0
 21 22  2  0
 11 23  1  0
 23 24  1  0
 24 25  2  0
 25 26  1  0
 26 27  2  0
 27 28  1  0
 27 29  1  0
 29 30  2  0
  6  2  1  0
 23  8  1  0
 30 24  1  0
 22 17  1  0
  1 31  1  0
  1 32  1  0
  1 33  1  0
  3 34  1  0
  4 35  1  0
  5 36  1  0
  7 37  1  0
  7 38  1  0
 13 39  1  0
 13 40  1  0
 16 41  1  0
 18 42  1  0
 19 43  1  0
 20 44  1  0
 21 45  1  0
 22 46  1  0
 25 47  1  0
 26 48  1  0
 29 49  1  0
 30 50  1  0
M  END
$$$$
