
     RDKit          3D

 53 58  0  0  0  0  0  0  0  0999 V2000
   -0.8455   -0.1245    1.8919 O   0  0  0  0  0  0  0  0  0  0  0  0
   -1.4099    0.4254    0.9414 C   0  0  0  0  0  0  0  0  0  0  0  0
   -0.5827    1.4166    0.0945 C   0  0  0  0  0  0  0  0  0  0  0  0
    0.7998    0.9212   -0.0524 N   0  0  0  0  0  4  0  0  0  0  0  0
    1.9650    1.5043    0.4409 C   0  0  0  0  0  0  0  0  0  0  0  0
    3.0385    0.6589    0.1788 C   0  0  0  0  0  0  0  0  0  0  0  0
    4.5365    0.8942    0.5952 C   0  0  0  0  0  0  0  0  0  0  0  0
    4.9067    2.0913    1.2238 C   0  0  0  0  0  0  0  0  0  0  0  0
    6.2350    2.3041    1.6063 C   0  0  0  0  0  0  0  0  0  0  0  0
    7.1934    1.3251    1.3615 C   0  0  0  0  0  0  0  0  0  0  0  0
    8.8257    1.5877    1.8270 Cl  0  0  0  0  0  0  0  0  0  0  0  0
    6.8328    0.1329    0.7387 C   0  0  0  0  0  0  0  0  0  0  0  0
    5.5044   -0.0849    0.3561 C   0  0  0  0  0  0  0  0  0  0  0  0
    2.4546   -0.3968   -0.4995 N   0  0  0  0  0  0  0  0  0  0  0  0
    1.1369   -0.2465   -0.5895 C   0  0  0  0  0  0  0  0  0  0  0  0
    0.4603   -1.3827   -1.2598 C   0  0  0  0  0  0  0  0  0  0  0  0
    1.6503   -2.1264   -1.8954 C   0  0  0  0  0  0  0  0  0  0  0  0
    2.8948   -1.6502   -1.0945 C   0  0  0  0  0  0  0  0  0  0  0  0
   -2.6817    0.0900    0.4462 N   0  0  0  0  0  0  0  0  0  0  0  0
   -3.2767   -1.1944    0.7343 C   0  0  0  0  0  0  0  0  0  0  0  0
   -3.0776   -1.8236    1.9763 C   0  0  0  0  0  0  0  0  0  0  0  0
   -3.6367   -3.0736    2.2609 C   0  0  0  0  0  0  0  0  0  0  0  0
   -4.4053   -3.7268    1.3063 C   0  0  0  0  0  0  0  0  0  0  0  0
   -4.6184   -3.1263    0.0694 C   0  0  0  0  0  0  0  0  0  0  0  0
   -4.0671   -1.8681   -0.2176 C   0  0  0  0  0  0  0  0  0  0  0  0
   -4.3284   -1.2124   -1.8512 S   0  0  0  0  0  0  0  0  0  0  0  0
   -4.2305    0.5131   -1.4548 C   0  0  0  0  0  0  0  0  0  0  0  0
   -4.9352    1.4178   -2.2602 C   0  0  0  0  0  0  0  0  0  0  0  0
   -4.8938    2.7848   -1.9921 C   0  0  0  0  0  0  0  0  0  0  0  0
   -4.1625    3.2534   -0.9073 C   0  0  0  0  0  0  0  0  0  0  0  0
   -3.4488    2.3572   -0.1086 C   0  0  0  0  0  0  0  0  0  0  0  0
   -3.4451    0.9768   -0.3881 C   0  0  0  0  0  0  0  0  0  0  0  0
   -0.5637    2.3880    0.5954 H   0  0  0  0  0  0  0  0  0  0  0  0
   -0.9678    1.5259   -0.9214 H   0  0  0  0  0  0  0  0  0  0  0  0
    1.8791    2.4500    0.9481 H   0  0  0  0  0  0  0  0  0  0  0  0
    4.1905    2.8810    1.4315 H   0  0  0  0  0  0  0  0  0  0  0  0
    6.5179    3.2340    2.0928 H   0  0  0  0  0  0  0  0  0  0  0  0
    7.5823   -0.6344    0.5554 H   0  0  0  0  0  0  0  0  0  0  0  0
    5.2629   -1.0346   -0.1060 H   0  0  0  0  0  0  0  0  0  0  0  0
   -0.0270   -1.9660   -0.4759 H   0  0  0  0  0  0  0  0  0  0  0  0
   -0.2526   -0.9938   -1.9892 H   0  0  0  0  0  0  0  0  0  0  0  0
    1.7565   -1.8039   -2.9388 H   0  0  0  0  0  0  0  0  0  0  0  0
    1.5297   -3.2129   -1.8899 H   0  0  0  0  0  0  0  0  0  0  0  0
    3.1411   -2.3537   -0.2933 H   0  0  0  0  0  0  0  0  0  0  0  0
    3.7516   -1.4903   -1.7533 H   0  0  0  0  0  0  0  0  0  0  0  0
   -2.5236   -1.3423    2.7772 H   0  0  0  0  0  0  0  0  0  0  0  0
   -3.4797   -3.5285    3.2370 H   0  0  0  0  0  0  0  0  0  0  0  0
   -4.8435   -4.6969    1.5274 H   0  0  0  0  0  0  0  0  0  0  0  0
   -5.2198   -3.6497   -0.6722 H   0  0  0  0  0  0  0  0  0  0  0  0
   -5.5360    1.0630   -3.0962 H   0  0  0  0  0  0  0  0  0  0  0  0
   -5.4585    3.4769   -2.6138 H   0  0  0  0  0  0  0  0  0  0  0  0
   -4.1706    4.3154   -0.6692 H   0  0  0  0  0  0  0  0  0  0  0  0
   -2.9577    2.7553    0.7759 H   0  0  0  0  0  0  0  0  0  0  0  0
  1  2  2  0
  2  3  1  0
  3  4  1  0
  4  5  1  0
  5  6  2  0
  6  7  1  0
  7  8  2  0
  8  9  1  0
  9 10  2  0
 10 11  1  0
 10 12  1  0
 12 13  2  0
  6 14  1  0
 14 15  1  0
 15 16  1  0
 16 17  1  0
 17 18  1  0
  2 19  1  0
 19 20  1  0
 20 21  2  0
 21 22  1  0
 22 23  2  0
 23 24  1  0
 24 25  2  0
 25 26  1  0
 26 27  1  0
 27 28  2  0
 28 29  1  0
 29 30  2  0
 30 31  1  0
 31 32  2  0
 15  4  2  0
 32 19  1  0
 13  7  1  0
 18 14  1  0
 25 20  1  0
 32 27  1  0
  3 33  1  0
  3 34  1  0
  5 35  1  0
  8 36  1  0
  9 37  1  0
 12 38  1  0
 13 39  1  0
 16 40  1  0
 16 41  1  0
 17 42  1  0
 17 43  1  0
 18 44  1  0
 18 45  1  0
 21 46  1  0
 22 47  1  0
 23 48  1  0
 24 49  1  0
 28 50  1  0
 29 51  1  0
 30 52  1  0
 31 53  1  0
M  CHG  1   4   1
M  END
$$$$
