
     RDKit          3D

 69 71  0  0  0  0  0  0  0  0999 V2000
   -4.0245   -2.3149   -5.2002 C   0  0  0  0  0  0  0  0  0  0  0  0
   -3.2269   -1.4042   -4.4557 O   0  0  0  0  0  0  0  0  0  0  0  0
   -3.0910   -1.6645   -3.1158 C   0  0  0  0  0  0  0  0  0  0  0  0
   -3.2449   -2.9319   -2.5526 C   0  0  0  0  0  0  0  0  0  0  0  0
   -3.1107   -3.1046   -1.1772 C   0  0  0  0  0  0  0  0  0  0  0  0
   -2.8368   -2.0126   -0.3511 C   0  0  0  0  0  0  0  0  0  0  0  0
   -2.6734   -0.7202   -0.8808 C   0  0  0  0  0  0  0  0  0  0  0  0
   -2.4343    0.4937    0.0227 C   0  0  0  0  0  0  0  0  0  0  0  0
   -2.9951    0.3304    1.4687 C   0  0  0  0  0  0  0  0  0  0  0  0
   -4.1922    0.4908    1.7150 O   0  0  0  0  0  0  0  0  0  0  0  0
   -2.0996   -0.1205    2.4223 N   0  0  0  0  0  0  0  0  0  0  0  0
   -2.4346   -0.4645    3.8112 C   0  0  0  0  0  0  0  0  0  0  0  0
   -3.0303    0.7436    4.5511 C   0  0  0  0  0  0  0  0  0  0  0  0
   -3.4108   -1.6501    3.8640 C   0  0  0  0  0  0  0  0  0  0  0  0
   -1.1324   -0.8730    4.5223 C   0  0  0  0  0  0  0  0  0  0  0  0
   -1.0438    1.0355   -0.0304 N   0  0  0  0  0  0  0  0  0  0  0  0
    0.0411    0.2024    0.2571 C   0  0  0  0  0  0  0  0  0  0  0  0
   -0.0995   -0.9509    0.6670 O   0  0  0  0  0  0  0  0  0  0  0  0
    1.4213    0.8090    0.0944 C   0  0  0  0  0  0  0  0  0  0  0  0
    2.5274   -0.2127    0.3441 C   0  0  0  0  0  0  0  0  0  0  0  0
    3.8962    0.3726    0.0590 C   0  0  0  0  0  0  0  0  0  0  0  0
    4.0553    1.5466   -0.2609 O   0  0  0  0  0  0  0  0  0  0  0  0
    4.8957   -0.5609    0.2111 N   0  0  0  0  0  0  0  0  0  0  0  0
    6.2366   -0.3314    0.0031 C   0  0  0  0  0  0  0  0  0  0  0  0
    6.8951    0.8493   -0.4016 C   0  0  0  0  0  0  0  0  0  0  0  0
    8.2237    0.5057   -0.4501 C   0  0  0  0  0  0  0  0  0  0  0  0
    9.4636    1.2269   -0.7845 C   0  0  0  0  0  0  0  0  0  0  0  0
    8.3560   -0.7989   -0.0945 O   0  0  0  0  0  0  0  0  0  0  0  0
    7.1111   -1.3265    0.1883 N   0  0  0  0  0  0  0  0  0  0  0  0
   -0.9166    2.4809    0.0721 C   0  0  0  0  0  0  0  0  0  0  0  0
   -0.1864    3.3049   -0.9607 C   0  0  0  0  0  0  0  0  0  0  0  0
   -1.6676    3.4361   -0.8254 C   0  0  0  0  0  0  0  0  0  0  0  0
   -2.7584   -0.5770   -2.2820 C   0  0  0  0  0  0  0  0  0  0  0  0
   -2.5967    0.6820   -2.8206 O   0  0  0  0  0  0  0  0  0  0  0  0
   -1.3531    0.7709   -3.5155 C   0  0  0  0  0  0  0  0  0  0  0  0
   -4.1862   -1.8841   -6.1927 H   0  0  0  0  0  0  0  0  0  0  0  0
   -3.5092   -3.2701   -5.3369 H   0  0  0  0  0  0  0  0  0  0  0  0
   -5.0052   -2.4603   -4.7351 H   0  0  0  0  0  0  0  0  0  0  0  0
   -3.4636   -3.8050   -3.1584 H   0  0  0  0  0  0  0  0  0  0  0  0
   -3.2292   -4.0931   -0.7410 H   0  0  0  0  0  0  0  0  0  0  0  0
   -2.7541   -2.1960    0.7171 H   0  0  0  0  0  0  0  0  0  0  0  0
   -3.0826    1.2839   -0.3845 H   0  0  0  0  0  0  0  0  0  0  0  0
   -1.2589   -0.5538    2.0380 H   0  0  0  0  0  0  0  0  0  0  0  0
   -4.0077    1.0311    4.1510 H   0  0  0  0  0  0  0  0  0  0  0  0
   -2.3762    1.6198    4.4676 H   0  0  0  0  0  0  0  0  0  0  0  0
   -3.1673    0.5270    5.6172 H   0  0  0  0  0  0  0  0  0  0  0  0
   -4.3743   -1.4058    3.4077 H   0  0  0  0  0  0  0  0  0  0  0  0
   -3.6074   -1.9577    4.8978 H   0  0  0  0  0  0  0  0  0  0  0  0
   -3.0072   -2.5167    3.3281 H   0  0  0  0  0  0  0  0  0  0  0  0
   -1.3134   -1.1446    5.5681 H   0  0  0  0  0  0  0  0  0  0  0  0
   -0.6652   -1.7355    4.0303 H   0  0  0  0  0  0  0  0  0  0  0  0
   -0.3983   -0.0588    4.5064 H   0  0  0  0  0  0  0  0  0  0  0  0
    1.5124    1.1824   -0.9296 H   0  0  0  0  0  0  0  0  0  0  0  0
    1.5327    1.6456    0.7955 H   0  0  0  0  0  0  0  0  0  0  0  0
    2.3855   -1.0884   -0.2999 H   0  0  0  0  0  0  0  0  0  0  0  0
    2.5023   -0.5518    1.3862 H   0  0  0  0  0  0  0  0  0  0  0  0
    4.6808   -1.5101    0.4876 H   0  0  0  0  0  0  0  0  0  0  0  0
    6.4694    1.8153   -0.6256 H   0  0  0  0  0  0  0  0  0  0  0  0
    9.2512    2.2508   -1.1048 H   0  0  0  0  0  0  0  0  0  0  0  0
    9.9941    0.7215   -1.5983 H   0  0  0  0  0  0  0  0  0  0  0  0
   10.1273    1.2694    0.0859 H   0  0  0  0  0  0  0  0  0  0  0  0
   -0.8225    2.7992    1.1107 H   0  0  0  0  0  0  0  0  0  0  0  0
    0.1841    2.8342   -1.8632 H   0  0  0  0  0  0  0  0  0  0  0  0
    0.4312    4.1250   -0.6091 H   0  0  0  0  0  0  0  0  0  0  0  0
   -2.0596    4.3478   -0.3851 H   0  0  0  0  0  0  0  0  0  0  0  0
   -2.2766    3.0517   -1.6357 H   0  0  0  0  0  0  0  0  0  0  0  0
   -1.2371    1.8031   -3.8591 H   0  0  0  0  0  0  0  0  0  0  0  0
   -1.3199    0.1237   -4.3982 H   0  0  0  0  0  0  0  0  0  0  0  0
   -0.5130    0.5384   -2.8518 H   0  0  0  0  0  0  0  0  0  0  0  0
  1  2  1  0
  2  3  1  0
  3  4  2  0
  4  5  1  0
  5  6  2  0
  6  7  1  0
  7  8  1  0
  8  9  1  0
  9 10  2  0
  9 11  1  0
 11 12  1  0
 12 13  1  0
 12 14  1  0
 12 15  1  0
  8 16  1  0
 16 17  1  0
 17 18  2  0
 17 19  1  0
 19 20  1  0
 20 21  1  0
 21 22  2  0
 21 23  1  0
 23 24  1  0
 24 25  1  0
 25 26  2  0
 26 27  1  0
 26 28  1  0
 28 29  1  0
 16 30  1  0
 30 31  1  0
 31 32  1  0
  7 33  2  0
 33 34  1  0
 34 35  1  0
 33  3  1  0
 29 24  2  0
 32 30  1  0
  1 36  1  0
  1 37  1  0
  1 38  1  0
  4 39  1  0
  5 40  1  0
  6 41  1  0
  8 42  1  0
 11 43  1  0
 13 44  1  0
 13 45  1  0
 13 46  1  0
 14 47  1  0
 14 48  1  0
 14 49  1  0
 15 50  1  0
 15 51  1  0
 15 52  1  0
 19 53  1  0
 19 54  1  0
 20 55  1  0
 20 56  1  0
 23 57  1  0
 25 58  1  0
 27 59  1  0
 27 60  1  0
 27 61  1  0
 30 62  1  0
 31 63  1  0
 31 64  1  0
 32 65  1  0
 32 66  1  0
 35 67  1  0
 35 68  1  0
 35 69  1  0
M  END
$$$$
