
     RDKit          3D

 52 57  0  0  0  0  0  0  0  0999 V2000
    4.9119   -2.5856   -0.7142 C   0  0  0  0  0  0  0  0  0  0  0  0
    3.8803   -1.9171    0.1440 C   0  0  0  0  0  0  0  0  0  0  0  0
    3.7960   -2.1700    1.5273 C   0  0  0  0  0  0  0  0  0  0  0  0
    4.8777   -3.2765    2.3026 Cl  0  0  0  0  0  0  0  0  0  0  0  0
    2.8351   -1.5341    2.3386 C   0  0  0  0  0  0  0  0  0  0  0  0
    1.9285   -0.6250    1.7939 C   0  0  0  0  0  0  0  0  0  0  0  0
    1.9994   -0.3727    0.4342 C   0  0  0  0  0  0  0  0  0  0  0  0
    2.9652   -1.0036   -0.3647 C   0  0  0  0  0  0  0  0  0  0  0  0
    2.8427   -0.5606   -1.6811 N   0  0  0  0  0  0  0  0  0  0  0  0
    1.8202    0.3827   -1.8222 C   0  0  0  0  0  0  0  0  0  0  0  0
    1.5373    0.9469   -2.8684 O   0  0  0  0  0  0  0  0  0  0  0  0
    1.1775    0.5449   -0.4223 C   0  0  1  0  0  0  0  0  0  0  0  0
   -0.2459    0.1094   -0.3834 C   0  0  0  0  0  0  0  0  0  0  0  0
   -1.0784    1.2353   -0.2773 C   0  0  0  0  0  0  0  0  0  0  0  0
   -2.3820    0.8328   -0.2995 C   0  0  0  0  0  0  0  0  0  0  0  0
   -3.4722    1.5948   -0.3768 O   0  0  0  0  0  0  0  0  0  0  0  0
   -2.3769   -0.5784   -0.3022 N   0  0  0  0  0  0  0  0  0  0  0  0
   -3.5301   -1.4177   -0.1764 C   0  0  0  0  0  0  0  0  0  0  0  0
   -4.6252   -0.9980    0.5952 C   0  0  0  0  0  0  0  0  0  0  0  0
   -5.7551   -1.8105    0.7174 C   0  0  0  0  0  0  0  0  0  0  0  0
   -5.7993   -3.0466    0.0770 C   0  0  0  0  0  0  0  0  0  0  0  0
   -4.7109   -3.4765   -0.6791 C   0  0  0  0  0  0  0  0  0  0  0  0
   -3.5767   -2.6692   -0.8026 C   0  0  0  0  0  0  0  0  0  0  0  0
   -1.0383   -1.0108   -0.4235 C   0  0  0  0  0  0  0  0  0  0  0  0
   -0.7020   -2.2975   -0.4794 O   0  0  0  0  0  0  0  0  0  0  0  0
   -0.2805    2.4774   -0.2903 C   0  0  1  0  0  0  0  0  0  0  0  0
   -0.6437    3.5887    0.7126 C   0  0  0  0  0  0  0  0  0  0  0  0
    0.5028    4.4397    1.1313 N   0  0  0  0  0  0  0  0  0  0  0  0
    1.6277    4.3547    0.1826 C   0  0  0  0  0  0  0  0  0  0  0  0
    2.1186    2.9035   -0.1252 C   0  0  0  0  0  0  0  0  0  0  0  0
    1.0581    1.9312    0.0554 N   0  0  0  0  0  0  0  0  0  0  0  0
    4.8041   -2.3321   -1.7724 H   0  0  0  0  0  0  0  0  0  0  0  0
    4.8237   -3.6745   -0.6398 H   0  0  0  0  0  0  0  0  0  0  0  0
    5.9169   -2.2796   -0.4059 H   0  0  0  0  0  0  0  0  0  0  0  0
    2.7969   -1.7453    3.4056 H   0  0  0  0  0  0  0  0  0  0  0  0
    1.1920   -0.1243    2.4170 H   0  0  0  0  0  0  0  0  0  0  0  0
    3.4240   -0.8316   -2.4600 H   0  0  0  0  0  0  0  0  0  0  0  0
   -4.1958    1.0595   -0.7508 H   0  0  0  0  0  0  0  0  0  0  0  0
   -4.6009   -0.0659    1.1562 H   0  0  0  0  0  0  0  0  0  0  0  0
   -6.5946   -1.4851    1.3269 H   0  0  0  0  0  0  0  0  0  0  0  0
   -6.6771   -3.6802    0.1752 H   0  0  0  0  0  0  0  0  0  0  0  0
   -4.7420   -4.4428   -1.1762 H   0  0  0  0  0  0  0  0  0  0  0  0
   -2.7567   -3.0268   -1.4196 H   0  0  0  0  0  0  0  0  0  0  0  0
    0.2672   -2.3594   -0.4155 H   0  0  0  0  0  0  0  0  0  0  0  0
   -0.2656    2.8814   -1.3126 H   0  0  0  0  0  0  0  0  0  0  0  0
   -1.0824    3.1636    1.6232 H   0  0  0  0  0  0  0  0  0  0  0  0
   -1.4140    4.2273    0.2628 H   0  0  0  0  0  0  0  0  0  0  0  0
    0.1928    5.4035    1.2341 H   0  0  0  0  0  0  0  0  0  0  0  0
    1.3221    4.8322   -0.7575 H   0  0  0  0  0  0  0  0  0  0  0  0
    2.4684    4.9381    0.5740 H   0  0  0  0  0  0  0  0  0  0  0  0
    2.5189    2.8940   -1.1448 H   0  0  0  0  0  0  0  0  0  0  0  0
    2.9402    2.6564    0.5566 H   0  0  0  0  0  0  0  0  0  0  0  0
  1  2  1  0
  2  3  2  0
  3  4  1  0
  3  5  1  0
  5  6  2  0
  6  7  1  0
  7  8  2  0
  8  9  1  0
  9 10  1  0
 10 11  2  0
 10 12  1  0
 12 13  1  0
 13 14  1  0
 14 15  2  0
 15 16  1  0
 15 17  1  0
 17 18  1  0
 18 19  2  0
 19 20  1  0
 20 21  2  0
 21 22  1  0
 22 23  2  0
 17 24  1  0
 24 25  1  0
 14 26  1  0
 26 27  1  0
 27 28  1  0
 28 29  1  0
 29 30  1  0
 30 31  1  0
  8  2  1  0
 12 31  1  1
 12  7  1  0
 24 13  2  0
 31 26  1  0
 23 18  1  0
  1 32  1  0
  1 33  1  0
  1 34  1  0
  5 35  1  0
  6 36  1  0
  9 37  1  0
 16 38  1  0
 19 39  1  0
 20 40  1  0
 21 41  1  0
 22 42  1  0
 23 43  1  0
 25 44  1  0
 26 45  1  6
 27 46  1  0
 27 47  1  0
 28 48  1  0
 29 49  1  0
 29 50  1  0
 30 51  1  0
 30 52  1  0
M  END
$$$$
