
     RDKit          3D

 97 99  0  0  0  0  0  0  0  0999 V2000
   -3.3528    3.8807   -2.6432 C   0  0  0  0  0  0  0  0  0  0  0  0
   -2.4845    2.7523   -2.1800 C   0  0  0  0  0  0  0  0  0  0  0  0
   -1.4471    2.4043   -2.7257 O   0  0  0  0  0  0  0  0  0  0  0  0
   -3.0223    2.1857   -1.0703 O   0  0  0  0  0  0  0  0  0  0  0  0
   -2.2896    1.0852   -0.4578 C   0  0  1  0  0  0  0  0  0  0  0  0
   -1.4006    1.6258    0.6990 C   0  0  2  0  0  0  0  0  0  0  0  0
   -0.4611    2.6124    0.2113 O   0  0  0  0  0  0  0  0  0  0  0  0
   -0.8113    3.9199    0.3138 C   0  0  0  0  0  0  0  0  0  0  0  0
    0.3054    4.7896   -0.1790 C   0  0  0  0  0  0  0  0  0  0  0  0
   -1.8738    4.3421    0.7464 O   0  0  0  0  0  0  0  0  0  0  0  0
   -0.5391    0.5891    1.4225 C   0  0  0  0  0  0  0  0  0  0  0  0
   -0.7781    0.5500    2.9169 C   0  0  0  0  0  0  0  0  0  0  0  0
    0.4349   -0.1958    0.9036 C   0  0  0  0  0  0  0  0  0  0  0  0
    0.9426   -0.3011   -0.5169 C   0  0  1  0  0  0  0  0  0  0  0  0
    1.9867    0.7779   -0.9070 C   0  0  1  0  0  0  0  0  0  0  0  0
    2.9699    0.8789    0.1376 O   0  0  0  0  0  0  0  0  0  0  0  0
    3.4471    2.1197    0.3975 C   0  0  0  0  0  0  0  0  0  0  0  0
    3.2639    3.1216   -0.2750 O   0  0  0  0  0  0  0  0  0  0  0  0
    4.2591    2.1058    1.6423 C   0  0  0  0  0  0  0  0  0  0  0  0
    5.0951    3.2009    1.9030 C   0  0  0  0  0  0  0  0  0  0  0  0
    5.8544    3.2390    3.0736 C   0  0  0  0  0  0  0  0  0  0  0  0
    5.7815    2.1871    3.9870 C   0  0  0  0  0  0  0  0  0  0  0  0
    4.9486    1.0965    3.7377 C   0  0  0  0  0  0  0  0  0  0  0  0
    4.1827    1.0578    2.5708 C   0  0  0  0  0  0  0  0  0  0  0  0
    2.5727    0.2771   -2.2509 C   0  0  1  0  0  0  0  0  0  0  0  0
    4.0914    0.3572   -2.3798 C   0  0  0  0  0  0  0  0  0  0  0  0
    2.0290   -1.1623   -2.4336 C   0  0  0  0  0  0  0  0  0  0  0  0
    1.5972   -1.6288   -1.0190 C   0  0  1  0  0  0  0  0  0  0  0  0
    2.9222   -1.9085   -0.4284 O   0  0  0  0  0  0  0  0  0  0  0  0
    3.1845   -2.3372    0.8240 C   0  0  0  0  0  0  0  0  0  0  0  0
    4.6649   -2.5239    0.9795 C   0  0  0  0  0  0  0  0  0  0  0  0
    2.3799   -2.5625    1.7126 O   0  0  0  0  0  0  0  0  0  0  0  0
    0.7420   -2.9392   -1.0553 C   0  0  1  0  0  0  0  0  0  0  0  0
    0.1268   -3.1469    0.2386 O   0  0  0  0  0  0  0  0  0  0  0  0
    0.3000   -4.3529    0.8417 C   0  0  0  0  0  0  0  0  0  0  0  0
   -0.3834   -4.3663    2.1767 C   0  0  0  0  0  0  0  0  0  0  0  0
    0.9282   -5.2980    0.3793 O   0  0  0  0  0  0  0  0  0  0  0  0
   -0.3625   -3.0724   -2.1582 C   0  0  1  0  0  0  0  0  0  0  0  0
   -0.9286   -4.5030   -2.2113 C   0  0  0  0  0  0  0  0  0  0  0  0
   -1.5037   -2.0690   -2.1137 C   0  0  0  0  0  0  0  0  0  0  0  0
   -2.4451   -2.0184   -1.1541 C   0  0  0  0  0  0  0  0  0  0  0  0
   -3.6482   -1.0756   -1.0427 C   0  0  0  0  0  0  0  0  0  0  0  0
   -4.0812   -0.4750   -2.3950 C   0  0  0  0  0  0  0  0  0  0  0  0
   -4.8372   -1.9376   -0.5463 C   0  0  0  0  0  0  0  0  0  0  0  0
   -3.3228    0.0251    0.0291 C   0  0  2  0  0  0  0  0  0  0  0  0
   -4.5492    0.7139    0.3965 O   0  0  0  0  0  0  0  0  0  0  0  0
   -4.9085    0.7134    1.7071 C   0  0  0  0  0  0  0  0  0  0  0  0
   -6.1470    1.5364    1.8954 C   0  0  0  0  0  0  0  0  0  0  0  0
   -4.3220    0.1249    2.6059 O   0  0  0  0  0  0  0  0  0  0  0  0
   -2.8980    4.3520   -3.5198 H   0  0  0  0  0  0  0  0  0  0  0  0
   -4.3384    3.4984   -2.9226 H   0  0  0  0  0  0  0  0  0  0  0  0
   -3.4392    4.6287   -1.8514 H   0  0  0  0  0  0  0  0  0  0  0  0
   -1.6554    0.6441   -1.2206 H   0  0  0  0  0  0  0  0  0  0  0  0
   -2.0620    2.1027    1.4338 H   0  0  0  0  0  0  0  0  0  0  0  0
    0.6726    4.4194   -1.1400 H   0  0  0  0  0  0  0  0  0  0  0  0
   -0.0632    5.8071   -0.3319 H   0  0  0  0  0  0  0  0  0  0  0  0
    1.1106    4.8107    0.5591 H   0  0  0  0  0  0  0  0  0  0  0  0
   -0.1217   -0.1607    3.4319 H   0  0  0  0  0  0  0  0  0  0  0  0
   -0.5931    1.5393    3.3535 H   0  0  0  0  0  0  0  0  0  0  0  0
   -1.8099    0.2593    3.1327 H   0  0  0  0  0  0  0  0  0  0  0  0
    0.9711   -0.8202    1.6115 H   0  0  0  0  0  0  0  0  0  0  0  0
    0.0920   -0.1389   -1.1754 H   0  0  0  0  0  0  0  0  0  0  0  0
    1.4846    1.7392   -1.0603 H   0  0  0  0  0  0  0  0  0  0  0  0
    5.1504    4.0295    1.2009 H   0  0  0  0  0  0  0  0  0  0  0  0
    6.4974    4.0924    3.2759 H   0  0  0  0  0  0  0  0  0  0  0  0
    6.3721    2.2212    4.9002 H   0  0  0  0  0  0  0  0  0  0  0  0
    4.8844    0.2848    4.4585 H   0  0  0  0  0  0  0  0  0  0  0  0
    3.5165    0.2132    2.4102 H   0  0  0  0  0  0  0  0  0  0  0  0
    2.1455    0.8788   -3.0646 H   0  0  0  0  0  0  0  0  0  0  0  0
    4.4262    1.3996   -2.3579 H   0  0  0  0  0  0  0  0  0  0  0  0
    4.6074   -0.1858   -1.5825 H   0  0  0  0  0  0  0  0  0  0  0  0
    4.4111   -0.0771   -3.3315 H   0  0  0  0  0  0  0  0  0  0  0  0
    2.7722   -1.8305   -2.8823 H   0  0  0  0  0  0  0  0  0  0  0  0
    1.1767   -1.1006   -3.1183 H   0  0  0  0  0  0  0  0  0  0  0  0
    4.8982   -2.7044    2.0333 H   0  0  0  0  0  0  0  0  0  0  0  0
    5.1964   -1.6228    0.6615 H   0  0  0  0  0  0  0  0  0  0  0  0
    4.9923   -3.3868    0.3936 H   0  0  0  0  0  0  0  0  0  0  0  0
    1.4611   -3.7466   -1.2454 H   0  0  0  0  0  0  0  0  0  0  0  0
   -0.7525   -5.3797    2.3732 H   0  0  0  0  0  0  0  0  0  0  0  0
    0.3193   -4.0665    2.9583 H   0  0  0  0  0  0  0  0  0  0  0  0
   -1.2490   -3.6921    2.1734 H   0  0  0  0  0  0  0  0  0  0  0  0
    0.1239   -2.9375   -3.1322 H   0  0  0  0  0  0  0  0  0  0  0  0
   -0.1183   -5.2288   -2.3470 H   0  0  0  0  0  0  0  0  0  0  0  0
   -1.4767   -4.7741   -1.3021 H   0  0  0  0  0  0  0  0  0  0  0  0
   -1.6164   -4.6219   -3.0586 H   0  0  0  0  0  0  0  0  0  0  0  0
   -1.5323   -1.3654   -2.9459 H   0  0  0  0  0  0  0  0  0  0  0  0
   -2.3593   -2.7279   -0.3270 H   0  0  0  0  0  0  0  0  0  0  0  0
   -4.3766   -1.2668   -3.0955 H   0  0  0  0  0  0  0  0  0  0  0  0
   -4.9426    0.1925   -2.2731 H   0  0  0  0  0  0  0  0  0  0  0  0
   -3.2866    0.0995   -2.8803 H   0  0  0  0  0  0  0  0  0  0  0  0
   -5.0151   -2.7920   -1.2105 H   0  0  0  0  0  0  0  0  0  0  0  0
   -4.6562   -2.3348    0.4615 H   0  0  0  0  0  0  0  0  0  0  0  0
   -5.7689   -1.3608   -0.5088 H   0  0  0  0  0  0  0  0  0  0  0  0
   -2.9154   -0.5099    0.8981 H   0  0  0  0  0  0  0  0  0  0  0  0
   -6.9853    1.0805    1.3622 H   0  0  0  0  0  0  0  0  0  0  0  0
   -5.9713    2.5530    1.5347 H   0  0  0  0  0  0  0  0  0  0  0  0
   -6.3893    1.5907    2.9613 H   0  0  0  0  0  0  0  0  0  0  0  0
  1  2  1  0
  2  3  2  0
  2  4  1  0
  4  5  1  0
  5  6  1  0
  6  7  1  0
  7  8  1  0
  8  9  1  0
  8 10  2  0
  6 11  1  0
 11 12  1  0
 11 13  2  0
 13 14  1  0
 14 15  1  0
 15 16  1  0
 16 17  1  0
 17 18  2  0
 17 19  1  0
 19 20  2  0
 20 21  1  0
 21 22  2  0
 22 23  1  0
 23 24  2  0
 15 25  1  0
 25 26  1  0
 25 27  1  0
 27 28  1  0
 28 29  1  1
 29 30  1  0
 30 31  1  0
 30 32  2  0
 28 33  1  0
 33 34  1  0
 34 35  1  0
 35 36  1  0
 35 37  2  0
 33 38  1  0
 38 39  1  0
 38 40  1  0
 40 41  2  0
 41 42  1  0
 42 43  1  0
 42 44  1  0
 42 45  1  0
 45 46  1  0
 46 47  1  0
 47 48  1  0
 47 49  2  0
 45  5  1  0
 28 14  1  0
 24 19  1  0
  1 50  1  0
  1 51  1  0
  1 52  1  0
  5 53  1  6
  6 54  1  1
  9 55  1  0
  9 56  1  0
  9 57  1  0
 12 58  1  0
 12 59  1  0
 12 60  1  0
 13 61  1  0
 14 62  1  6
 15 63  1  6
 20 64  1  0
 21 65  1  0
 22 66  1  0
 23 67  1  0
 24 68  1  0
 25 69  1  6
 26 70  1  0
 26 71  1  0
 26 72  1  0
 27 73  1  0
 27 74  1  0
 31 75  1  0
 31 76  1  0
 31 77  1  0
 33 78  1  6
 36 79  1  0
 36 80  1  0
 36 81  1  0
 38 82  1  6
 39 83  1  0
 39 84  1  0
 39 85  1  0
 40 86  1  0
 41 87  1  0
 43 88  1  0
 43 89  1  0
 43 90  1  0
 44 91  1  0
 44 92  1  0
 44 93  1  0
 45 94  1  1
 48 95  1  0
 48 96  1  0
 48 97  1  0
M  END
$$$$
