
     RDKit          3D

 49 52  0  0  0  0  0  0  0  0999 V2000
   -5.7063    1.8245    1.8768 C   0  0  0  0  0  0  0  0  0  0  0  0
   -4.4384    1.2966    1.2738 C   0  0  0  0  0  0  0  0  0  0  0  0
   -4.4520    0.6732    0.0216 C   0  0  0  0  0  0  0  0  0  0  0  0
   -3.2664    0.2101   -0.5540 C   0  0  0  0  0  0  0  0  0  0  0  0
   -2.0507    0.3748    0.1175 C   0  0  0  0  0  0  0  0  0  0  0  0
   -0.8455   -0.0804   -0.4747 N   0  0  0  0  0  0  0  0  0  0  0  0
   -0.4174    0.1180   -1.7836 C   0  0  0  0  0  0  0  0  0  0  0  0
   -1.0908    0.9648   -2.8178 C   0  0  0  0  0  0  0  0  0  0  0  0
   -1.8675    0.1715   -3.8342 C   0  0  0  0  0  0  0  0  0  0  0  0
   -1.5682   -1.0543   -4.4023 C   0  0  0  0  0  0  0  0  0  0  0  0
   -2.5512   -1.4737   -5.3440 C   0  0  0  0  0  0  0  0  0  0  0  0
   -3.5629   -0.5496   -5.4788 C   0  0  0  0  0  0  0  0  0  0  0  0
   -3.3198    0.8182   -4.4835 S   0  0  0  0  0  0  0  0  0  0  0  0
    0.7692   -0.4397   -1.9447 N   0  0  0  0  0  0  0  0  0  0  0  0
    1.1461   -1.0063   -0.7633 N   0  0  0  0  0  0  0  0  0  0  0  0
    0.1909   -0.7926    0.1080 C   0  0  0  0  0  0  0  0  0  0  0  0
    0.1883   -1.4477    1.7158 S   0  0  0  0  0  0  0  0  0  0  0  0
    1.4296   -2.7699    1.5579 C   0  0  0  0  0  0  0  0  0  0  0  0
    2.8846   -2.3064    1.5453 C   0  0  0  0  0  0  0  0  0  0  0  0
    3.7656   -3.1016    1.2209 O   0  0  0  0  0  0  0  0  0  0  0  0
    3.1015   -1.0158    1.9908 N   0  0  0  0  0  0  0  0  0  0  0  0
    4.3236   -0.3242    2.0974 C   0  0  0  0  0  0  0  0  0  0  0  0
    5.5702   -0.8825    1.7902 C   0  0  0  0  0  0  0  0  0  0  0  0
    6.7423   -0.1280    1.9230 C   0  0  0  0  0  0  0  0  0  0  0  0
    6.6675    1.1868    2.3625 C   0  0  0  0  0  0  0  0  0  0  0  0
    7.7906    1.9065    2.4874 F   0  0  0  0  0  0  0  0  0  0  0  0
    5.4361    1.7490    2.6647 C   0  0  0  0  0  0  0  0  0  0  0  0
    5.3591    3.0194    3.0806 F   0  0  0  0  0  0  0  0  0  0  0  0
    4.2660    1.0042    2.5355 C   0  0  0  0  0  0  0  0  0  0  0  0
   -2.0287    1.0023    1.3681 C   0  0  0  0  0  0  0  0  0  0  0  0
   -3.2173    1.4679    1.9361 C   0  0  0  0  0  0  0  0  0  0  0  0
   -5.6922    1.7127    2.9662 H   0  0  0  0  0  0  0  0  0  0  0  0
   -5.8231    2.8839    1.6323 H   0  0  0  0  0  0  0  0  0  0  0  0
   -6.5779    1.2778    1.5036 H   0  0  0  0  0  0  0  0  0  0  0  0
   -5.3907    0.5331   -0.5117 H   0  0  0  0  0  0  0  0  0  0  0  0
   -3.3300   -0.3195   -1.5011 H   0  0  0  0  0  0  0  0  0  0  0  0
   -1.7183    1.7264   -2.3424 H   0  0  0  0  0  0  0  0  0  0  0  0
   -0.3128    1.5219   -3.3565 H   0  0  0  0  0  0  0  0  0  0  0  0
   -0.6807   -1.6280   -4.1547 H   0  0  0  0  0  0  0  0  0  0  0  0
   -2.5131   -2.4035   -5.8991 H   0  0  0  0  0  0  0  0  0  0  0  0
   -4.4311   -0.6073   -6.1222 H   0  0  0  0  0  0  0  0  0  0  0  0
    1.2347   -3.3524    0.6516 H   0  0  0  0  0  0  0  0  0  0  0  0
    1.3125   -3.4350    2.4199 H   0  0  0  0  0  0  0  0  0  0  0  0
    2.2629   -0.4927    2.2171 H   0  0  0  0  0  0  0  0  0  0  0  0
    5.6665   -1.9048    1.4379 H   0  0  0  0  0  0  0  0  0  0  0  0
    7.7073   -0.5631    1.6826 H   0  0  0  0  0  0  0  0  0  0  0  0
    3.3232    1.4833    2.7783 H   0  0  0  0  0  0  0  0  0  0  0  0
   -1.1006    1.1818    1.9041 H   0  0  0  0  0  0  0  0  0  0  0  0
   -3.1848    1.9704    2.9011 H   0  0  0  0  0  0  0  0  0  0  0  0
  1  2  1  0
  2  3  2  0
  3  4  1  0
  4  5  2  0
  5  6  1  0
  6  7  1  0
  7  8  1  0
  8  9  1  0
  9 10  2  0
 10 11  1  0
 11 12  2  0
 12 13  1  0
  7 14  2  0
 14 15  1  0
 15 16  2  0
 16 17  1  0
 17 18  1  0
 18 19  1  0
 19 20  2  0
 19 21  1  0
 21 22  1  0
 22 23  2  0
 23 24  1  0
 24 25  2  0
 25 26  1  0
 25 27  1  0
 27 28  1  0
 27 29  2  0
  5 30  1  0
 30 31  2  0
 31  2  1  0
 16  6  1  0
 29 22  1  0
 13  9  1  0
  1 32  1  0
  1 33  1  0
  1 34  1  0
  3 35  1  0
  4 36  1  0
  8 37  1  0
  8 38  1  0
 10 39  1  0
 11 40  1  0
 12 41  1  0
 18 42  1  0
 18 43  1  0
 21 44  1  0
 23 45  1  0
 24 46  1  0
 29 47  1  0
 30 48  1  0
 31 49  1  0
M  END
$$$$
