
     RDKit          3D

 48 49  0  0  0  0  0  0  0  0999 V2000
   -4.7587   -2.3222   -0.3201 C   0  0  0  0  0  0  0  0  0  0  0  0
   -4.6003   -0.9554   -0.9687 C   0  0  0  0  0  0  0  0  0  0  0  0
   -5.1292    0.1222   -0.1264 N   0  0  0  0  0  0  0  0  0  0  0  0
   -6.5654    0.3854   -0.1927 C   0  0  0  0  0  0  0  0  0  0  0  0
   -6.9091    1.3975   -1.2749 C   0  0  0  0  0  0  0  0  0  0  0  0
   -4.3501    0.9738    0.6575 C   0  0  0  0  0  0  0  0  0  0  0  0
   -4.7919    1.9375    1.2780 O   0  0  0  0  0  0  0  0  0  0  0  0
   -2.9034    0.7144    0.7567 C   0  0  0  0  0  0  0  0  0  0  0  0
   -2.4286   -0.2182    1.6787 C   0  0  0  0  0  0  0  0  0  0  0  0
   -1.0533   -0.4506    1.7823 C   0  0  0  0  0  0  0  0  0  0  0  0
   -0.1527    0.2544    0.9782 C   0  0  0  0  0  0  0  0  0  0  0  0
    1.2423    0.0783    1.0245 N   0  0  0  0  0  0  0  0  0  0  0  0
    1.9693   -0.7821    1.8272 C   0  0  0  0  0  0  0  0  0  0  0  0
    1.5200   -1.5751    2.6500 O   0  0  0  0  0  0  0  0  0  0  0  0
    3.4784   -0.7016    1.5767 C   0  0  0  0  0  0  0  0  0  0  0  0
    3.8106    0.4439    0.7861 O   0  0  0  0  0  0  0  0  0  0  0  0
    5.0147    0.3023    0.1467 C   0  0  0  0  0  0  0  0  0  0  0  0
    6.1976    0.1497    0.8747 C   0  0  0  0  0  0  0  0  0  0  0  0
    7.4189    0.0470    0.2040 C   0  0  0  0  0  0  0  0  0  0  0  0
    7.4485    0.1090   -1.1969 C   0  0  0  0  0  0  0  0  0  0  0  0
    8.7332    0.0062   -1.9003 N   0  0  0  0  0  4  0  0  0  0  0  0
    9.7652    0.0165   -1.2154 O   0  0  0  0  0  0  0  0  0  0  0  0
    8.7055   -0.0860   -3.1351 O   0  0  0  0  0  1  0  0  0  0  0  0
    6.2683    0.2770   -1.9330 C   0  0  0  0  0  0  0  0  0  0  0  0
    5.0543    0.3824   -1.2534 C   0  0  0  0  0  0  0  0  0  0  0  0
    3.6056    0.6000   -2.1684 Cl  0  0  0  0  0  0  0  0  0  0  0  0
   -0.6457    1.2007    0.0674 C   0  0  0  0  0  0  0  0  0  0  0  0
   -2.0189    1.4387   -0.0418 C   0  0  0  0  0  0  0  0  0  0  0  0
   -5.8128   -2.5639   -0.1515 H   0  0  0  0  0  0  0  0  0  0  0  0
   -4.3344   -3.0981   -0.9657 H   0  0  0  0  0  0  0  0  0  0  0  0
   -4.2508   -2.3658    0.6475 H   0  0  0  0  0  0  0  0  0  0  0  0
   -3.5439   -0.7827   -1.1899 H   0  0  0  0  0  0  0  0  0  0  0  0
   -5.1280   -0.9319   -1.9291 H   0  0  0  0  0  0  0  0  0  0  0  0
   -7.0945   -0.5566   -0.3715 H   0  0  0  0  0  0  0  0  0  0  0  0
   -6.9059    0.7662    0.7771 H   0  0  0  0  0  0  0  0  0  0  0  0
   -6.4024    2.3521   -1.1002 H   0  0  0  0  0  0  0  0  0  0  0  0
   -7.9874    1.5816   -1.2940 H   0  0  0  0  0  0  0  0  0  0  0  0
   -6.6067    1.0364   -2.2635 H   0  0  0  0  0  0  0  0  0  0  0  0
   -3.1202   -0.7563    2.3220 H   0  0  0  0  0  0  0  0  0  0  0  0
   -0.7169   -1.1843    2.5089 H   0  0  0  0  0  0  0  0  0  0  0  0
    1.8007    0.6629    0.4073 H   0  0  0  0  0  0  0  0  0  0  0  0
    3.9722   -0.6287    2.5518 H   0  0  0  0  0  0  0  0  0  0  0  0
    3.7668   -1.6302    1.0681 H   0  0  0  0  0  0  0  0  0  0  0  0
    6.1825    0.1354    1.9629 H   0  0  0  0  0  0  0  0  0  0  0  0
    8.3339   -0.0667    0.7841 H   0  0  0  0  0  0  0  0  0  0  0  0
    6.2854    0.3362   -3.0190 H   0  0  0  0  0  0  0  0  0  0  0  0
    0.0316    1.7668   -0.5662 H   0  0  0  0  0  0  0  0  0  0  0  0
   -2.3942    2.1816   -0.7406 H   0  0  0  0  0  0  0  0  0  0  0  0
  1  2  1  0
  2  3  1  0
  3  4  1  0
  4  5  1  0
  3  6  1  0
  6  7  2  0
  6  8  1  0
  8  9  2  0
  9 10  1  0
 10 11  2  0
 11 12  1  0
 12 13  1  0
 13 14  2  0
 13 15  1  0
 15 16  1  0
 16 17  1  0
 17 18  2  0
 18 19  1  0
 19 20  2  0
 20 21  1  0
 21 22  2  0
 21 23  1  0
 20 24  1  0
 24 25  2  0
 25 26  1  0
 11 27  1  0
 27 28  2  0
 28  8  1  0
 25 17  1  0
  1 29  1  0
  1 30  1  0
  1 31  1  0
  2 32  1  0
  2 33  1  0
  4 34  1  0
  4 35  1  0
  5 36  1  0
  5 37  1  0
  5 38  1  0
  9 39  1  0
 10 40  1  0
 12 41  1  0
 15 42  1  0
 15 43  1  0
 18 44  1  0
 19 45  1  0
 24 46  1  0
 27 47  1  0
 28 48  1  0
M  CHG  2  21   1  23  -1
M  END
$$$$
