
     RDKit          3D

 30 31  0  0  0  0  0  0  0  0999 V2000
   -4.8034   -0.3522    0.6033 C   0  0  0  0  0  0  0  0  0  0  0  0
   -3.2775   -0.3886    0.5003 C   0  0  0  0  0  0  0  0  0  0  0  0
   -2.8728   -1.3278   -0.6400 C   0  0  0  0  0  0  0  0  0  0  0  0
   -2.8066   -0.8866    1.7606 O   0  0  0  0  0  0  0  0  0  0  0  0
   -1.5407   -0.6359    2.1305 C   0  0  0  0  0  0  0  0  0  0  0  0
   -1.0380   -1.0279    3.1672 O   0  0  0  0  0  0  0  0  0  0  0  0
   -0.8011    0.2272    1.1458 C   0  0  0  0  0  0  0  0  0  0  0  0
    0.4442   -0.0456    0.8752 N   0  0  0  0  0  0  0  0  0  0  0  0
    1.0662    0.7391   -0.0517 N   0  0  0  0  0  0  0  0  0  0  0  0
    2.4451    0.5287   -0.2818 C   0  0  0  0  0  0  0  0  0  0  0  0
    3.1530    1.4460   -1.0722 C   0  0  0  0  0  0  0  0  0  0  0  0
    4.5018    1.2419   -1.3776 C   0  0  0  0  0  0  0  0  0  0  0  0
    5.1566    0.1039   -0.9136 C   0  0  0  0  0  0  0  0  0  0  0  0
    4.4607   -0.8326   -0.1534 C   0  0  0  0  0  0  0  0  0  0  0  0
    3.1118   -0.6255    0.1492 C   0  0  0  0  0  0  0  0  0  0  0  0
   -1.6003    1.3120    0.4788 C   0  0  0  0  0  0  0  0  0  0  0  0
   -1.1168    2.4018    0.2200 O   0  0  0  0  0  0  0  0  0  0  0  0
   -2.8668    0.9579    0.2207 O   0  0  0  0  0  0  0  0  0  0  0  0
   -5.1144    0.3159    1.4153 H   0  0  0  0  0  0  0  0  0  0  0  0
   -5.2138   -1.3430    0.8262 H   0  0  0  0  0  0  0  0  0  0  0  0
   -5.2584    0.0269   -0.3180 H   0  0  0  0  0  0  0  0  0  0  0  0
   -1.7856   -1.3864   -0.7516 H   0  0  0  0  0  0  0  0  0  0  0  0
   -3.2264   -2.3477   -0.4545 H   0  0  0  0  0  0  0  0  0  0  0  0
   -3.2700   -0.9773   -1.5986 H   0  0  0  0  0  0  0  0  0  0  0  0
    0.8096    1.7331   -0.1117 H   0  0  0  0  0  0  0  0  0  0  0  0
    2.6568    2.3326   -1.4584 H   0  0  0  0  0  0  0  0  0  0  0  0
    5.0372    1.9691   -1.9822 H   0  0  0  0  0  0  0  0  0  0  0  0
    6.2049   -0.0574   -1.1501 H   0  0  0  0  0  0  0  0  0  0  0  0
    4.9622   -1.7283    0.2029 H   0  0  0  0  0  0  0  0  0  0  0  0
    2.5824   -1.3732    0.7344 H   0  0  0  0  0  0  0  0  0  0  0  0
  1  2  1  0
  2  3  1  0
  2  4  1  0
  4  5  1  0
  5  6  2  0
  5  7  1  0
  7  8  2  3
  8  9  1  0
  9 10  1  0
 10 11  2  0
 11 12  1  0
 12 13  2  0
 13 14  1  0
 14 15  2  0
  7 16  1  0
 16 17  2  0
 16 18  1  0
 18  2  1  0
 15 10  1  0
  1 19  1  0
  1 20  1  0
  1 21  1  0
  3 22  1  0
  3 23  1  0
  3 24  1  0
  9 25  1  0
 11 26  1  0
 12 27  1  0
 13 28  1  0
 14 29  1  0
 15 30  1  0
M  END
$$$$
