
     RDKit          3D

 58 63  0  0  0  0  0  0  0  0999 V2000
    5.7818    3.5542    1.4497 C   0  0  0  0  0  0  0  0  0  0  0  0
    5.5677    2.2775    0.7111 C   0  0  0  0  0  0  0  0  0  0  0  0
    6.4082    1.1880    0.6208 C   0  0  0  0  0  0  0  0  0  0  0  0
    5.8631    0.1554   -0.1955 C   0  0  0  0  0  0  0  0  0  0  0  0
    4.6036    0.4670   -0.6698 C   0  0  0  0  0  0  0  0  0  0  0  0
    3.7845   -0.3360   -1.5659 C   0  0  0  0  0  0  0  0  0  0  0  0
    4.2697   -0.8470   -2.5766 O   0  0  0  0  0  0  0  0  0  0  0  0
    2.4332   -0.5469   -1.2466 N   0  0  0  0  0  0  0  0  0  0  0  0
    1.8668   -0.3506    0.0854 C   0  0  0  0  0  0  0  0  0  0  0  0
    0.8109   -1.3994    0.4217 C   0  0  0  0  0  0  0  0  0  0  0  0
   -0.3370   -1.4855   -0.6230 C   0  0  0  0  0  0  0  0  0  0  0  0
    0.1253   -0.9445   -2.0023 C   0  0  0  0  0  0  0  0  0  0  0  0
    1.6037   -1.2282   -2.2357 C   0  0  0  0  0  0  0  0  0  0  0  0
   -0.5627   -2.9010   -0.8913 O   0  0  0  0  0  0  0  0  0  0  0  0
   -1.3629   -3.5965   -0.0361 C   0  0  0  0  0  0  0  0  0  0  0  0
   -1.3410   -4.9850   -0.1698 C   0  0  0  0  0  0  0  0  0  0  0  0
   -2.1120   -5.7841    0.6782 C   0  0  0  0  0  0  0  0  0  0  0  0
   -2.9064   -5.1902    1.6585 C   0  0  0  0  0  0  0  0  0  0  0  0
   -3.8497   -6.1769    2.7046 Cl  0  0  0  0  0  0  0  0  0  0  0  0
   -2.9438   -3.8052    1.7921 C   0  0  0  0  0  0  0  0  0  0  0  0
   -2.1755   -3.0158    0.9301 C   0  0  0  0  0  0  0  0  0  0  0  0
   -2.2110   -1.5520    1.0303 C   0  0  0  0  0  0  0  0  0  0  0  0
   -2.6626   -1.0221    2.0425 O   0  0  0  0  0  0  0  0  0  0  0  0
   -1.6460   -0.7842   -0.1610 C   0  0  0  0  0  0  0  0  0  0  0  0
   -1.5197    0.6983    0.1627 C   0  0  0  0  0  0  0  0  0  0  0  0
   -2.8308    1.1599   -0.3795 C   0  0  0  0  0  0  0  0  0  0  0  0
   -3.3848    2.5006   -0.0753 C   0  0  0  0  0  0  0  0  0  0  0  0
   -2.6729    3.4341    0.6876 C   0  0  0  0  0  0  0  0  0  0  0  0
   -3.2271    4.6916    0.9511 C   0  0  0  0  0  0  0  0  0  0  0  0
   -4.4880    5.0166    0.4524 C   0  0  0  0  0  0  0  0  0  0  0  0
   -5.1619    6.5649    0.7779 Cl  0  0  0  0  0  0  0  0  0  0  0  0
   -5.2023    4.0953   -0.3093 C   0  0  0  0  0  0  0  0  0  0  0  0
   -4.6511    2.8383   -0.5732 C   0  0  0  0  0  0  0  0  0  0  0  0
   -3.4214    0.3129   -1.1613 N   0  0  0  0  0  0  0  0  0  0  0  0
   -2.6225   -0.8496   -1.2135 O   0  0  0  0  0  0  0  0  0  0  0  0
    4.1386    2.0478   -0.2016 S   0  0  0  0  0  0  0  0  0  0  0  0
    4.9429    3.7632    2.1220 H   0  0  0  0  0  0  0  0  0  0  0  0
    6.6921    3.5063    2.0567 H   0  0  0  0  0  0  0  0  0  0  0  0
    5.8873    4.3911    0.7511 H   0  0  0  0  0  0  0  0  0  0  0  0
    7.3779    1.1373    1.1021 H   0  0  0  0  0  0  0  0  0  0  0  0
    6.3648   -0.7780   -0.4244 H   0  0  0  0  0  0  0  0  0  0  0  0
    2.6570   -0.3938    0.8416 H   0  0  0  0  0  0  0  0  0  0  0  0
    1.4290    0.6517    0.1120 H   0  0  0  0  0  0  0  0  0  0  0  0
    0.4185   -1.1963    1.4247 H   0  0  0  0  0  0  0  0  0  0  0  0
    1.3141   -2.3736    0.4952 H   0  0  0  0  0  0  0  0  0  0  0  0
   -0.0301    0.1359   -2.0857 H   0  0  0  0  0  0  0  0  0  0  0  0
   -0.4534   -1.4131   -2.8084 H   0  0  0  0  0  0  0  0  0  0  0  0
    1.8907   -0.8945   -3.2395 H   0  0  0  0  0  0  0  0  0  0  0  0
    1.8180   -2.3018   -2.1731 H   0  0  0  0  0  0  0  0  0  0  0  0
   -0.7195   -5.4486   -0.9325 H   0  0  0  0  0  0  0  0  0  0  0  0
   -2.0873   -6.8657    0.5691 H   0  0  0  0  0  0  0  0  0  0  0  0
   -3.5717   -3.3413    2.5494 H   0  0  0  0  0  0  0  0  0  0  0  0
   -1.3964    0.9150    1.2260 H   0  0  0  0  0  0  0  0  0  0  0  0
   -0.7354    1.2100   -0.3990 H   0  0  0  0  0  0  0  0  0  0  0  0
   -1.6880    3.2123    1.0872 H   0  0  0  0  0  0  0  0  0  0  0  0
   -2.6712    5.4126    1.5456 H   0  0  0  0  0  0  0  0  0  0  0  0
   -6.1855    4.3446   -0.7003 H   0  0  0  0  0  0  0  0  0  0  0  0
   -5.2183    2.1249   -1.1693 H   0  0  0  0  0  0  0  0  0  0  0  0
  1  2  1  0
  2  3  2  0
  3  4  1  0
  4  5  2  0
  5  6  1  0
  6  7  2  0
  6  8  1  0
  8  9  1  0
  9 10  1  0
 10 11  1  0
 11 12  1  0
 12 13  1  0
 11 14  1  0
 14 15  1  0
 15 16  2  0
 16 17  1  0
 17 18  2  0
 18 19  1  0
 18 20  1  0
 20 21  2  0
 21 22  1  0
 22 23  2  0
 22 24  1  0
 24 25  1  0
 25 26  1  0
 26 27  1  0
 27 28  2  0
 28 29  1  0
 29 30  2  0
 30 31  1  0
 30 32  1  0
 32 33  2  0
 26 34  2  0
 34 35  1  0
  5 36  1  0
 36  2  1  0
 13  8  1  0
 21 15  1  0
 35 24  1  0
 24 11  1  0
 33 27  1  0
  1 37  1  0
  1 38  1  0
  1 39  1  0
  3 40  1  0
  4 41  1  0
  9 42  1  0
  9 43  1  0
 10 44  1  0
 10 45  1  0
 12 46  1  0
 12 47  1  0
 13 48  1  0
 13 49  1  0
 16 50  1  0
 17 51  1  0
 20 52  1  0
 25 53  1  0
 25 54  1  0
 28 55  1  0
 29 56  1  0
 32 57  1  0
 33 58  1  0
M  END
$$$$
