
     RDKit          3D

 49 52  0  0  0  0  0  0  0  0999 V2000
   -4.1822   -1.7725    1.6123 O   0  0  0  0  0  0  0  0  0  0  0  0
   -4.0068   -0.5633    1.4815 C   0  0  0  0  0  0  0  0  0  0  0  0
   -2.6798    0.0185    1.3616 C   0  0  0  0  0  0  0  0  0  0  0  0
   -2.2494    1.3551    1.3258 C   0  0  0  0  0  0  0  0  0  0  0  0
   -0.9282    1.4719    1.1945 N   0  0  0  0  0  0  0  0  0  0  0  0
   -0.4593    0.1956    1.2115 N   0  0  0  0  0  0  0  0  0  0  0  0
    0.9458   -0.0360    1.1030 C   0  0  0  0  0  0  0  0  0  0  0  0
    1.7477    1.0257    0.6324 C   0  0  0  0  0  0  0  0  0  0  0  0
    3.1206    0.8591    0.4170 C   0  0  0  0  0  0  0  0  0  0  0  0
    3.7164   -0.3762    0.6716 C   0  0  0  0  0  0  0  0  0  0  0  0
    5.4623   -0.5972    0.4009 S   0  0  0  0  0  6  0  0  0  0  0  0
    5.9237   -1.5480    1.3900 O   0  0  0  0  0  0  0  0  0  0  0  0
    6.0653    0.7114    0.2769 O   0  0  0  0  0  0  0  0  0  0  0  0
    5.5151   -1.3937   -1.0823 N   0  0  0  0  0  0  0  0  0  0  0  0
    4.8273   -0.8541   -2.2035 C   0  0  0  0  0  0  0  0  0  0  0  0
    5.1453    0.4060   -2.7092 C   0  0  0  0  0  0  0  0  0  0  0  0
    4.4293    0.9247   -3.7890 C   0  0  0  0  0  0  0  0  0  0  0  0
    3.3986    0.1826   -4.3646 C   0  0  0  0  0  0  0  0  0  0  0  0
    3.0858   -1.0811   -3.8648 C   0  0  0  0  0  0  0  0  0  0  0  0
    3.8015   -1.6016   -2.7851 C   0  0  0  0  0  0  0  0  0  0  0  0
    2.9641   -1.4311    1.1882 C   0  0  0  0  0  0  0  0  0  0  0  0
    1.5864   -1.2484    1.4024 C   0  0  0  0  0  0  0  0  0  0  0  0
    0.9131   -2.3459    2.0624 N   0  0  0  0  0  4  0  0  0  0  0  0
    0.8508   -3.4128    1.4394 O   0  0  0  0  0  0  0  0  0  0  0  0
    0.4791   -2.1377    3.2009 O   0  0  0  0  0  1  0  0  0  0  0  0
   -1.5009   -0.6998    1.2663 C   0  0  0  0  0  0  0  0  0  0  0  0
   -5.1944    0.3159    1.5300 C   0  0  0  0  0  0  0  0  0  0  0  0
   -6.0460    0.1874    2.6333 C   0  0  0  0  0  0  0  0  0  0  0  0
   -7.1837    0.9802    2.7092 C   0  0  0  0  0  0  0  0  0  0  0  0
   -7.9959    0.8689    3.7676 F   0  0  0  0  0  0  0  0  0  0  0  0
   -7.4949    1.8892    1.7028 C   0  0  0  0  0  0  0  0  0  0  0  0
   -6.6610    2.0041    0.5891 C   0  0  0  0  0  0  0  0  0  0  0  0
   -5.5147    1.2110    0.5011 C   0  0  0  0  0  0  0  0  0  0  0  0
   -4.7169    1.2990   -0.6033 O   0  0  0  0  0  0  0  0  0  0  0  0
   -2.8414    2.2601    1.3754 H   0  0  0  0  0  0  0  0  0  0  0  0
    1.3099    1.9976    0.3992 H   0  0  0  0  0  0  0  0  0  0  0  0
    3.7082    1.6952    0.0400 H   0  0  0  0  0  0  0  0  0  0  0  0
    5.5634   -2.4065   -0.9870 H   0  0  0  0  0  0  0  0  0  0  0  0
    5.9559    0.9899   -2.2796 H   0  0  0  0  0  0  0  0  0  0  0  0
    4.6804    1.9062   -4.1838 H   0  0  0  0  0  0  0  0  0  0  0  0
    2.8440    0.5875   -5.2082 H   0  0  0  0  0  0  0  0  0  0  0  0
    2.2855   -1.6610   -4.3185 H   0  0  0  0  0  0  0  0  0  0  0  0
    3.5434   -2.5862   -2.4059 H   0  0  0  0  0  0  0  0  0  0  0  0
    3.4438   -2.3758    1.4417 H   0  0  0  0  0  0  0  0  0  0  0  0
   -1.3738   -1.7702    1.2143 H   0  0  0  0  0  0  0  0  0  0  0  0
   -5.8339   -0.5248    3.4258 H   0  0  0  0  0  0  0  0  0  0  0  0
   -8.3930    2.4939    1.7886 H   0  0  0  0  0  0  0  0  0  0  0  0
   -6.9240    2.7073   -0.1963 H   0  0  0  0  0  0  0  0  0  0  0  0
   -5.1324    1.8802   -1.2637 H   0  0  0  0  0  0  0  0  0  0  0  0
  1  2  2  0
  2  3  1  0
  3  4  1  0
  4  5  2  0
  5  6  1  0
  6  7  1  0
  7  8  2  0
  8  9  1  0
  9 10  2  0
 10 11  1  0
 11 12  2  0
 11 13  2  0
 11 14  1  0
 14 15  1  0
 15 16  2  0
 16 17  1  0
 17 18  2  0
 18 19  1  0
 19 20  2  0
 10 21  1  0
 21 22  2  0
 22 23  1  0
 23 24  2  0
 23 25  1  0
  6 26  1  0
  2 27  1  0
 27 28  2  0
 28 29  1  0
 29 30  1  0
 29 31  2  0
 31 32  1  0
 32 33  2  0
 33 34  1  0
 26  3  2  0
 33 27  1  0
 22  7  1  0
 20 15  1  0
  4 35  1  0
  8 36  1  0
  9 37  1  0
 14 38  1  0
 16 39  1  0
 17 40  1  0
 18 41  1  0
 19 42  1  0
 20 43  1  0
 21 44  1  0
 26 45  1  0
 28 46  1  0
 31 47  1  0
 32 48  1  0
 34 49  1  0
M  CHG  2  23   1  25  -1
M  END
$$$$
