
     RDKit          3D

 51 55  0  0  0  0  0  0  0  0999 V2000
  -10.3386    1.3399    0.6369 C   0  0  0  0  0  0  0  0  0  0  0  0
   -9.0129    1.3959   -0.0614 C   0  0  0  0  0  0  0  0  0  0  0  0
   -8.8552    2.1417   -1.2350 C   0  0  0  0  0  0  0  0  0  0  0  0
   -7.6099    2.2252   -1.8611 C   0  0  0  0  0  0  0  0  0  0  0  0
   -6.5089    1.5561   -1.3242 C   0  0  0  0  0  0  0  0  0  0  0  0
   -6.6566    0.7976   -0.1566 C   0  0  0  0  0  0  0  0  0  0  0  0
   -5.5138    0.0544    0.4458 C   0  0  0  0  0  0  0  0  0  0  0  0
   -5.4436   -0.0066    1.6655 O   0  0  0  0  0  0  0  0  0  0  0  0
   -4.6691   -0.5272   -0.4717 N   0  0  0  0  0  0  0  0  0  0  0  0
   -3.5609   -1.2897   -0.1957 C   0  0  0  0  0  0  0  0  0  0  0  0
   -2.8875   -1.8967   -1.1481 N   0  0  0  0  0  0  0  0  0  0  0  0
   -1.8202   -2.6165   -0.6478 N   0  0  0  0  0  0  0  0  0  0  0  0
   -1.7255   -2.5011    0.6601 C   0  0  0  0  0  0  0  0  0  0  0  0
   -0.5005   -3.3291    1.5929 S   0  0  0  0  0  0  0  0  0  0  0  0
    0.8361   -3.4385    0.3711 C   0  0  0  0  0  0  0  0  0  0  0  0
    1.6059   -2.1230    0.2803 C   0  0  0  0  0  0  0  0  0  0  0  0
    1.0349   -1.0443    0.1514 O   0  0  0  0  0  0  0  0  0  0  0  0
    2.9818   -2.3074    0.3467 N   0  0  0  0  0  0  0  0  0  0  0  0
    3.9906   -1.3210    0.2774 C   0  0  0  0  0  0  0  0  0  0  0  0
    3.7351    0.0418    0.0970 C   0  0  0  0  0  0  0  0  0  0  0  0
    4.7766    0.9858    0.0322 C   0  0  0  0  0  0  0  0  0  0  0  0
    6.1040    0.5433    0.1570 C   0  0  0  0  0  0  0  0  0  0  0  0
    6.3257   -0.8145    0.3420 C   0  0  0  0  0  0  0  0  0  0  0  0
    5.3142   -1.7730    0.4044 C   0  0  0  0  0  0  0  0  0  0  0  0
    7.6580   -1.0723    0.4540 O   0  0  0  0  0  0  0  0  0  0  0  0
    8.3040    0.1200    0.3363 C   0  0  0  0  0  0  0  0  0  0  0  0
    9.6843    0.2980    0.3959 C   0  0  0  0  0  0  0  0  0  0  0  0
   10.1539    1.6072    0.2421 C   0  0  0  0  0  0  0  0  0  0  0  0
    9.2713    2.6719    0.0407 C   0  0  0  0  0  0  0  0  0  0  0  0
    7.8854    2.4634   -0.0065 C   0  0  0  0  0  0  0  0  0  0  0  0
    7.3917    1.1529    0.1441 C   0  0  0  0  0  0  0  0  0  0  0  0
   -2.9423   -1.5314    1.3716 S   0  0  0  0  0  0  0  0  0  0  0  0
   -7.9012    0.7394    0.4843 C   0  0  0  0  0  0  0  0  0  0  0  0
  -11.1615    1.4997   -0.0662 H   0  0  0  0  0  0  0  0  0  0  0  0
  -10.4925    0.3580    1.0943 H   0  0  0  0  0  0  0  0  0  0  0  0
  -10.3890    2.1065    1.4161 H   0  0  0  0  0  0  0  0  0  0  0  0
   -9.7018    2.6743   -1.6632 H   0  0  0  0  0  0  0  0  0  0  0  0
   -7.4978    2.8249   -2.7619 H   0  0  0  0  0  0  0  0  0  0  0  0
   -5.5425    1.6614   -1.8113 H   0  0  0  0  0  0  0  0  0  0  0  0
   -4.8984   -0.5026   -1.4542 H   0  0  0  0  0  0  0  0  0  0  0  0
    1.4979   -4.2451    0.7036 H   0  0  0  0  0  0  0  0  0  0  0  0
    0.4730   -3.7113   -0.6246 H   0  0  0  0  0  0  0  0  0  0  0  0
    3.3160   -3.2558    0.4708 H   0  0  0  0  0  0  0  0  0  0  0  0
    2.7222    0.4214   -0.0025 H   0  0  0  0  0  0  0  0  0  0  0  0
    4.5501    2.0373   -0.1095 H   0  0  0  0  0  0  0  0  0  0  0  0
    5.5678   -2.8161    0.5481 H   0  0  0  0  0  0  0  0  0  0  0  0
   10.3547   -0.5398    0.5489 H   0  0  0  0  0  0  0  0  0  0  0  0
   11.2247    1.7966    0.2766 H   0  0  0  0  0  0  0  0  0  0  0  0
    9.6646    3.6796   -0.0816 H   0  0  0  0  0  0  0  0  0  0  0  0
    7.2087    3.2984   -0.1596 H   0  0  0  0  0  0  0  0  0  0  0  0
   -8.0030    0.1703    1.4077 H   0  0  0  0  0  0  0  0  0  0  0  0
  1  2  1  0
  2  3  2  0
  3  4  1  0
  4  5  2  0
  5  6  1  0
  6  7  1  0
  7  8  2  0
  7  9  1  0
  9 10  1  0
 10 11  2  0
 11 12  1  0
 12 13  2  0
 13 14  1  0
 14 15  1  0
 15 16  1  0
 16 17  2  0
 16 18  1  0
 18 19  1  0
 19 20  2  0
 20 21  1  0
 21 22  2  0
 22 23  1  0
 23 24  2  0
 23 25  1  0
 25 26  1  0
 26 27  2  0
 27 28  1  0
 28 29  2  0
 29 30  1  0
 30 31  2  0
 13 32  1  0
  6 33  2  0
 33  2  1  0
 32 10  1  0
 24 19  1  0
 31 26  1  0
 31 22  1  0
  1 34  1  0
  1 35  1  0
  1 36  1  0
  3 37  1  0
  4 38  1  0
  5 39  1  0
  9 40  1  0
 15 41  1  0
 15 42  1  0
 18 43  1  0
 20 44  1  0
 21 45  1  0
 24 46  1  0
 27 47  1  0
 28 48  1  0
 29 49  1  0
 30 50  1  0
 33 51  1  0
M  END
$$$$
