
     RDKit          3D

 51 54  0  0  0  0  0  0  0  0999 V2000
   -3.7567   -4.2730    2.2575 C   0  0  0  0  0  0  0  0  0  0  0  0
   -2.3715   -4.2961    1.9346 O   0  0  0  0  0  0  0  0  0  0  0  0
   -1.7642   -3.0932    1.6972 C   0  0  0  0  0  0  0  0  0  0  0  0
   -2.4206   -1.8732    1.5671 C   0  0  0  0  0  0  0  0  0  0  0  0
   -1.6894   -0.6953    1.3222 C   0  0  0  0  0  0  0  0  0  0  0  0
   -2.4151    0.5757    1.1664 C   0  0  0  0  0  0  0  0  0  0  0  0
   -3.6345    0.5944    1.3341 O   0  0  0  0  0  0  0  0  0  0  0  0
   -1.6615    1.6902    0.8338 N   0  0  0  0  0  0  0  0  0  0  0  0
   -2.3818    2.9280    0.5721 C   0  0  0  0  0  0  0  0  0  0  0  0
   -2.8501    2.9417   -0.8434 C   0  0  0  0  0  0  0  0  0  0  0  0
   -3.9579    2.4161   -1.4767 C   0  0  0  0  0  0  0  0  0  0  0  0
   -3.8404    2.7665   -2.8421 C   0  0  0  0  0  0  0  0  0  0  0  0
   -2.6714    3.4821   -2.9564 C   0  0  0  0  0  0  0  0  0  0  0  0
   -2.0645    3.5962   -1.7486 O   0  0  0  0  0  0  0  0  0  0  0  0
   -0.2789    1.7177    0.7619 C   0  0  0  0  0  0  0  0  0  0  0  0
    0.3475    2.7535    0.5253 O   0  0  0  0  0  0  0  0  0  0  0  0
    0.3900    0.5200    1.0042 N   0  0  0  0  0  0  0  0  0  0  0  0
    1.8541    0.5654    0.9416 C   0  0  0  0  0  0  0  0  0  0  0  0
    2.3603    0.2950   -0.4749 C   0  0  0  0  0  0  0  0  0  0  0  0
    1.7900   -0.4739   -1.2486 O   0  0  0  0  0  0  0  0  0  0  0  0
    3.6228    0.9531   -0.9232 C   0  0  0  0  0  0  0  0  0  0  0  0
    3.8570    1.0675   -2.3019 C   0  0  0  0  0  0  0  0  0  0  0  0
    5.0252    1.6684   -2.7746 C   0  0  0  0  0  0  0  0  0  0  0  0
    5.9694    2.1554   -1.8733 C   0  0  0  0  0  0  0  0  0  0  0  0
    5.7424    2.0322   -0.5030 C   0  0  0  0  0  0  0  0  0  0  0  0
    7.0322    2.6810    0.7184 Br  0  0  0  0  0  0  0  0  0  0  0  0
    4.5783    1.4314   -0.0197 C   0  0  0  0  0  0  0  0  0  0  0  0
   -0.2995   -0.7036    1.2196 C   0  0  0  0  0  0  0  0  0  0  0  0
    0.3551   -1.9353    1.3388 C   0  0  0  0  0  0  0  0  0  0  0  0
   -0.3732   -3.1114    1.5541 C   0  0  0  0  0  0  0  0  0  0  0  0
    0.3290   -4.2831    1.6919 O   0  0  0  0  0  0  0  0  0  0  0  0
    0.4407   -4.9377    0.4280 C   0  0  0  0  0  0  0  0  0  0  0  0
   -4.0602   -5.2956    2.5023 H   0  0  0  0  0  0  0  0  0  0  0  0
   -4.3537   -3.9452    1.4001 H   0  0  0  0  0  0  0  0  0  0  0  0
   -3.9491   -3.6488    3.1367 H   0  0  0  0  0  0  0  0  0  0  0  0
   -3.5012   -1.8049    1.6420 H   0  0  0  0  0  0  0  0  0  0  0  0
   -3.2455    3.0039    1.2445 H   0  0  0  0  0  0  0  0  0  0  0  0
   -1.7484    3.8005    0.7700 H   0  0  0  0  0  0  0  0  0  0  0  0
   -4.7445    1.8431   -1.0034 H   0  0  0  0  0  0  0  0  0  0  0  0
   -4.5202    2.5243   -3.6457 H   0  0  0  0  0  0  0  0  0  0  0  0
   -2.1558    3.9526   -3.7841 H   0  0  0  0  0  0  0  0  0  0  0  0
    2.3027   -0.1450    1.6420 H   0  0  0  0  0  0  0  0  0  0  0  0
    2.1814    1.5595    1.2645 H   0  0  0  0  0  0  0  0  0  0  0  0
    3.1247    0.6913   -3.0152 H   0  0  0  0  0  0  0  0  0  0  0  0
    5.1955    1.7586   -3.8454 H   0  0  0  0  0  0  0  0  0  0  0  0
    6.8765    2.6241   -2.2473 H   0  0  0  0  0  0  0  0  0  0  0  0
    4.4418    1.3367    1.0526 H   0  0  0  0  0  0  0  0  0  0  0  0
    1.4301   -2.0318    1.2442 H   0  0  0  0  0  0  0  0  0  0  0  0
    1.1795   -4.4214   -0.2010 H   0  0  0  0  0  0  0  0  0  0  0  0
   -0.5170   -5.0004   -0.0985 H   0  0  0  0  0  0  0  0  0  0  0  0
    0.8003   -5.9571    0.6123 H   0  0  0  0  0  0  0  0  0  0  0  0
  1  2  1  0
  2  3  1  0
  3  4  2  0
  4  5  1  0
  5  6  1  0
  6  7  2  0
  6  8  1  0
  8  9  1  0
  9 10  1  0
 10 11  2  0
 11 12  1  0
 12 13  2  0
 13 14  1  0
  8 15  1  0
 15 16  2  0
 15 17  1  0
 17 18  1  0
 18 19  1  0
 19 20  2  0
 19 21  1  0
 21 22  2  0
 22 23  1  0
 23 24  2  0
 24 25  1  0
 25 26  1  0
 25 27  2  0
 17 28  1  0
 28 29  1  0
 29 30  2  0
 30 31  1  0
 31 32  1  0
 30  3  1  0
 28  5  2  0
 14 10  1  0
 27 21  1  0
  1 33  1  0
  1 34  1  0
  1 35  1  0
  4 36  1  0
  9 37  1  0
  9 38  1  0
 11 39  1  0
 12 40  1  0
 13 41  1  0
 18 42  1  0
 18 43  1  0
 22 44  1  0
 23 45  1  0
 24 46  1  0
 27 47  1  0
 29 48  1  0
 32 49  1  0
 32 50  1  0
 32 51  1  0
M  END
$$$$
