
     RDKit          3D

 42 46  0  0  0  0  0  0  0  0999 V2000
    5.0794    2.0284    0.4682 C   0  0  0  0  0  0  0  0  0  0  0  0
    5.0288    1.5954   -0.8553 C   0  0  0  0  0  0  0  0  0  0  0  0
    3.9221    0.8759   -1.3301 C   0  0  0  0  0  0  0  0  0  0  0  0
    3.8624    0.4373   -2.6571 C   0  0  0  0  0  0  0  0  0  0  0  0
    2.7576   -0.2781   -3.1195 C   0  0  0  0  0  0  0  0  0  0  0  0
    1.6852   -0.5725   -2.2673 C   0  0  0  0  0  0  0  0  0  0  0  0
    0.5829   -1.2916   -2.7359 C   0  0  0  0  0  0  0  0  0  0  0  0
   -0.4816   -1.5858   -1.8881 C   0  0  0  0  0  0  0  0  0  0  0  0
   -0.4779   -1.1645   -0.5466 C   0  0  0  0  0  0  0  0  0  0  0  0
   -1.6733   -1.5402    0.3171 C   0  0  0  0  0  0  0  0  0  0  0  0
   -2.4718   -0.3915    0.7695 N   0  0  0  0  0  0  0  0  0  0  0  0
   -3.1898    0.3005   -0.3215 C   0  0  0  0  0  0  0  0  0  0  0  0
   -4.6738   -0.0876   -0.4206 C   0  0  0  0  0  0  0  0  0  0  0  0
   -5.4135    0.1768    0.7796 O   0  0  0  0  0  0  0  0  0  0  0  0
   -4.5967    0.1610    1.9585 C   0  0  0  0  0  0  0  0  0  0  0  0
   -3.4106   -0.8052    1.8344 C   0  0  0  0  0  0  0  0  0  0  0  0
    0.6353   -0.4320   -0.0468 C   0  0  0  0  0  0  0  0  0  0  0  0
    0.7311    0.0259    1.2838 C   0  0  0  0  0  0  0  0  0  0  0  0
    1.8406    0.7415    1.7419 C   0  0  0  0  0  0  0  0  0  0  0  0
    2.9049    1.0291    0.8853 C   0  0  0  0  0  0  0  0  0  0  0  0
    4.0239    1.7471    1.3332 C   0  0  0  0  0  0  0  0  0  0  0  0
    2.8468    0.5875   -0.4552 C   0  0  0  0  0  0  0  0  0  0  0  0
    1.7173   -0.1402   -0.9198 C   0  0  0  0  0  0  0  0  0  0  0  0
    5.9413    2.5856    0.8255 H   0  0  0  0  0  0  0  0  0  0  0  0
    5.8620    1.8246   -1.5157 H   0  0  0  0  0  0  0  0  0  0  0  0
    4.6774    0.6484   -3.3457 H   0  0  0  0  0  0  0  0  0  0  0  0
    2.7436   -0.6048   -4.1570 H   0  0  0  0  0  0  0  0  0  0  0  0
    0.5429   -1.6321   -3.7681 H   0  0  0  0  0  0  0  0  0  0  0  0
   -1.3237   -2.1489   -2.2851 H   0  0  0  0  0  0  0  0  0  0  0  0
   -2.3139   -2.2577   -0.2137 H   0  0  0  0  0  0  0  0  0  0  0  0
   -1.2773   -2.0887    1.1829 H   0  0  0  0  0  0  0  0  0  0  0  0
   -2.7084    0.1646   -1.2949 H   0  0  0  0  0  0  0  0  0  0  0  0
   -3.1322    1.3747   -0.1041 H   0  0  0  0  0  0  0  0  0  0  0  0
   -5.1548    0.4723   -1.2292 H   0  0  0  0  0  0  0  0  0  0  0  0
   -4.7791   -1.1529   -0.6565 H   0  0  0  0  0  0  0  0  0  0  0  0
   -4.2538    1.1834    2.1564 H   0  0  0  0  0  0  0  0  0  0  0  0
   -5.2373   -0.1345    2.7956 H   0  0  0  0  0  0  0  0  0  0  0  0
   -2.8711   -0.8514    2.7867 H   0  0  0  0  0  0  0  0  0  0  0  0
   -3.8102   -1.8062    1.6235 H   0  0  0  0  0  0  0  0  0  0  0  0
   -0.0727   -0.1607    1.9919 H   0  0  0  0  0  0  0  0  0  0  0  0
    1.8577    1.0738    2.7773 H   0  0  0  0  0  0  0  0  0  0  0  0
    4.0801    2.0935    2.3627 H   0  0  0  0  0  0  0  0  0  0  0  0
  1  2  2  0
  2  3  1  0
  3  4  2  0
  4  5  1  0
  5  6  2  0
  6  7  1  0
  7  8  2  0
  8  9  1  0
  9 10  1  0
 10 11  1  0
 11 12  1  0
 12 13  1  0
 13 14  1  0
 14 15  1  0
 15 16  1  0
  9 17  2  0
 17 18  1  0
 18 19  2  0
 19 20  1  0
 20 21  2  0
 20 22  1  0
 22 23  2  0
 21  1  1  0
 22  3  1  0
 23  6  1  0
 16 11  1  0
 23 17  1  0
  1 24  1  0
  2 25  1  0
  4 26  1  0
  5 27  1  0
  7 28  1  0
  8 29  1  0
 10 30  1  0
 10 31  1  0
 12 32  1  0
 12 33  1  0
 13 34  1  0
 13 35  1  0
 15 36  1  0
 15 37  1  0
 16 38  1  0
 16 39  1  0
 18 40  1  0
 19 41  1  0
 21 42  1  0
M  END
$$$$
