
     RDKit          3D

 63 67  0  0  0  0  0  0  0  0999 V2000
    6.8702   -0.0454   -4.0920 C   0  0  0  0  0  0  0  0  0  0  0  0
    6.8846   -1.1393   -3.0383 C   0  0  0  0  0  0  0  0  0  0  0  0
    6.0939   -0.7508   -1.9053 O   0  0  0  0  0  0  0  0  0  0  0  0
    4.7563   -1.0068   -1.9996 C   0  0  0  0  0  0  0  0  0  0  0  0
    4.2150   -1.5366   -2.9620 O   0  0  0  0  0  0  0  0  0  0  0  0
    4.0215   -0.5737   -0.8188 C   0  0  0  0  0  0  0  0  0  0  0  0
    2.6121   -0.6291   -0.6209 C   0  0  0  0  0  0  0  0  0  0  0  0
    2.3236   -0.1357    0.6386 C   0  0  0  0  0  0  0  0  0  0  0  0
    1.0675    0.0441    1.3568 C   0  0  0  0  0  0  0  0  0  0  0  0
   -0.1678   -0.3776    0.8751 N   0  0  0  0  0  0  0  0  0  0  0  0
   -0.3261   -1.6577    0.1668 C   0  0  0  0  0  0  0  0  0  0  0  0
   -1.6074   -2.4032    0.6009 C   0  0  0  0  0  0  0  0  0  0  0  0
   -2.8677   -1.6426    0.4397 N   0  0  0  0  0  0  0  0  0  0  0  0
   -3.5284   -1.9502   -0.8410 C   0  0  0  0  0  0  0  0  0  0  0  0
   -4.9871   -1.4480   -0.9583 C   0  0  0  0  0  0  0  0  0  0  0  0
   -5.1852    0.0011   -1.3679 C   0  0  0  0  0  0  0  0  0  0  0  0
   -4.5393    0.4770   -2.5263 C   0  0  0  0  0  0  0  0  0  0  0  0
   -4.6908    1.7973   -2.9514 C   0  0  0  0  0  0  0  0  0  0  0  0
   -5.5062    2.6661   -2.2384 C   0  0  0  0  0  0  0  0  0  0  0  0
   -6.1803    2.2089   -1.1070 C   0  0  0  0  0  0  0  0  0  0  0  0
   -6.0452    0.8771   -0.6621 C   0  0  0  0  0  0  0  0  0  0  0  0
   -6.8367    0.4378    0.5536 C   0  0  0  0  0  0  0  0  0  0  0  0
   -7.6103   -0.6560    0.3104 F   0  0  0  0  0  0  0  0  0  0  0  0
   -6.0472    0.1186    1.6168 F   0  0  0  0  0  0  0  0  0  0  0  0
   -7.6974    1.3927    1.0156 F   0  0  0  0  0  0  0  0  0  0  0  0
   -2.6259   -0.1921    0.6230 C   0  0  0  0  0  0  0  0  0  0  0  0
   -1.4003    0.1340    1.5038 C   0  0  0  0  0  0  0  0  0  0  0  0
    1.1013    0.6500    2.5180 N   0  0  0  0  0  0  0  0  0  0  0  0
    2.3197    1.0653    3.0848 C   0  0  0  0  0  0  0  0  0  0  0  0
    2.2935    1.6732    4.3415 C   0  0  0  0  0  0  0  0  0  0  0  0
    3.4758    2.0912    4.9561 C   0  0  0  0  0  0  0  0  0  0  0  0
    4.7006    1.9048    4.3167 C   0  0  0  0  0  0  0  0  0  0  0  0
    4.7503    1.3000    3.0602 C   0  0  0  0  0  0  0  0  0  0  0  0
    3.5591    0.8843    2.4589 C   0  0  0  0  0  0  0  0  0  0  0  0
    3.5160    0.2697    1.1973 N   0  0  0  0  0  0  0  0  0  0  0  0
    4.5462   -0.0139    0.3340 C   0  0  0  0  0  0  0  0  0  0  0  0
    7.1836    0.9104   -3.6595 H   0  0  0  0  0  0  0  0  0  0  0  0
    5.8625    0.1027   -4.4918 H   0  0  0  0  0  0  0  0  0  0  0  0
    7.5400   -0.2977   -4.9191 H   0  0  0  0  0  0  0  0  0  0  0  0
    7.9092   -1.2857   -2.6765 H   0  0  0  0  0  0  0  0  0  0  0  0
    6.5495   -2.0988   -3.4500 H   0  0  0  0  0  0  0  0  0  0  0  0
    1.8970   -0.9909   -1.3467 H   0  0  0  0  0  0  0  0  0  0  0  0
   -0.3626   -1.4672   -0.9114 H   0  0  0  0  0  0  0  0  0  0  0  0
    0.5253   -2.3186    0.3668 H   0  0  0  0  0  0  0  0  0  0  0  0
   -1.6592   -3.3744    0.0926 H   0  0  0  0  0  0  0  0  0  0  0  0
   -1.5156   -2.6452    1.6689 H   0  0  0  0  0  0  0  0  0  0  0  0
   -2.9132   -1.6225   -1.6854 H   0  0  0  0  0  0  0  0  0  0  0  0
   -3.5963   -3.0428   -0.9203 H   0  0  0  0  0  0  0  0  0  0  0  0
   -5.4950   -1.6740   -0.0160 H   0  0  0  0  0  0  0  0  0  0  0  0
   -5.4996   -2.0548   -1.7170 H   0  0  0  0  0  0  0  0  0  0  0  0
   -3.9067   -0.1811   -3.1178 H   0  0  0  0  0  0  0  0  0  0  0  0
   -4.1740    2.1457   -3.8426 H   0  0  0  0  0  0  0  0  0  0  0  0
   -5.6260    3.6964   -2.5658 H   0  0  0  0  0  0  0  0  0  0  0  0
   -6.8280    2.9031   -0.5709 H   0  0  0  0  0  0  0  0  0  0  0  0
   -3.5131    0.2596    1.0777 H   0  0  0  0  0  0  0  0  0  0  0  0
   -2.4614    0.2929   -0.3477 H   0  0  0  0  0  0  0  0  0  0  0  0
   -1.5220   -0.3008    2.5020 H   0  0  0  0  0  0  0  0  0  0  0  0
   -1.3374    1.2220    1.6173 H   0  0  0  0  0  0  0  0  0  0  0  0
    1.3413    1.8177    4.8448 H   0  0  0  0  0  0  0  0  0  0  0  0
    3.4390    2.5600    5.9362 H   0  0  0  0  0  0  0  0  0  0  0  0
    5.6174    2.2320    4.8007 H   0  0  0  0  0  0  0  0  0  0  0  0
    5.7147    1.1654    2.5850 H   0  0  0  0  0  0  0  0  0  0  0  0
    5.5729    0.2118    0.5835 H   0  0  0  0  0  0  0  0  0  0  0  0
  1  2  1  0
  2  3  1  0
  3  4  1  0
  4  5  2  0
  4  6  1  0
  6  7  1  0
  7  8  2  0
  8  9  1  0
  9 10  1  0
 10 11  1  0
 11 12  1  0
 12 13  1  0
 13 14  1  0
 14 15  1  0
 15 16  1  0
 16 17  2  0
 17 18  1  0
 18 19  2  0
 19 20  1  0
 20 21  2  0
 21 22  1  0
 22 23  1  0
 22 24  1  0
 22 25  1  0
 13 26  1  0
 26 27  1  0
  9 28  2  0
 28 29  1  0
 29 30  2  0
 30 31  1  0
 31 32  2  0
 32 33  1  0
 33 34  2  0
 34 35  1  0
 35 36  1  0
 36  6  2  0
 35  8  1  0
 27 10  1  0
 34 29  1  0
 21 16  1  0
  1 37  1  0
  1 38  1  0
  1 39  1  0
  2 40  1  0
  2 41  1  0
  7 42  1  0
 11 43  1  0
 11 44  1  0
 12 45  1  0
 12 46  1  0
 14 47  1  0
 14 48  1  0
 15 49  1  0
 15 50  1  0
 17 51  1  0
 18 52  1  0
 19 53  1  0
 20 54  1  0
 26 55  1  0
 26 56  1  0
 27 57  1  0
 27 58  1  0
 30 59  1  0
 31 60  1  0
 32 61  1  0
 33 62  1  0
 36 63  1  0
M  END
$$$$
