
     RDKit          3D

 67 72  0  0  0  0  0  0  0  0999 V2000
   -5.5573    3.5090    2.1334 C   0  0  0  0  0  0  0  0  0  0  0  0
   -4.3919    3.1769    1.2494 C   0  0  0  0  0  0  0  0  0  0  0  0
   -4.1001    3.9334    0.0982 C   0  0  0  0  0  0  0  0  0  0  0  0
   -5.0637    5.3022   -0.3462 Cl  0  0  0  0  0  0  0  0  0  0  0  0
   -3.0232    3.6060   -0.7515 C   0  0  0  0  0  0  0  0  0  0  0  0
   -2.2016    2.5134   -0.4735 C   0  0  0  0  0  0  0  0  0  0  0  0
   -2.4704    1.7608    0.6625 C   0  0  0  0  0  0  0  0  0  0  0  0
   -3.5600    2.0886    1.4896 C   0  0  0  0  0  0  0  0  0  0  0  0
   -3.6669    1.1564    2.5192 N   0  0  0  0  0  0  0  0  0  0  0  0
   -2.6959    0.1580    2.4199 C   0  0  0  0  0  0  0  0  0  0  0  0
   -2.6124   -0.7983    3.1777 O   0  0  0  0  0  0  0  0  0  0  0  0
   -1.7867    0.5314    1.2131 C   0  0  1  0  0  0  0  0  0  0  0  0
   -1.7516   -0.5017    0.1569 C   0  0  0  0  0  0  0  0  0  0  0  0
   -0.4700   -1.0316    0.0107 C   0  0  0  0  0  0  0  0  0  0  0  0
   -0.4868   -1.9502   -1.0069 C   0  0  0  0  0  0  0  0  0  0  0  0
    0.4824   -2.7310   -1.4816 O   0  0  0  0  0  0  0  0  0  0  0  0
   -1.8103   -2.0219   -1.4787 N   0  0  0  0  0  0  0  0  0  0  0  0
   -2.2874   -2.9081   -2.4913 C   0  0  0  0  0  0  0  0  0  0  0  0
   -3.5716   -3.4648   -2.3970 C   0  0  0  0  0  0  0  0  0  0  0  0
   -4.0293   -4.3136   -3.4038 C   0  0  0  0  0  0  0  0  0  0  0  0
   -5.2596   -4.8325   -3.3117 F   0  0  0  0  0  0  0  0  0  0  0  0
   -3.2385   -4.6254   -4.5012 C   0  0  0  0  0  0  0  0  0  0  0  0
   -1.9630   -4.0830   -4.5796 C   0  0  0  0  0  0  0  0  0  0  0  0
   -1.1863   -4.3788   -5.6291 F   0  0  0  0  0  0  0  0  0  0  0  0
   -1.4749   -3.2366   -3.5870 C   0  0  0  0  0  0  0  0  0  0  0  0
   -2.5809   -1.0834   -0.7662 C   0  0  0  0  0  0  0  0  0  0  0  0
   -3.8556   -0.7895   -1.0171 O   0  0  0  0  0  0  0  0  0  0  0  0
    0.4734   -0.4413    0.9876 C   0  0  1  0  0  0  0  0  0  0  0  0
    1.7772    0.0781    0.3508 C   0  0  0  0  0  0  0  0  0  0  0  0
    2.5306    0.9431    1.2598 N   0  0  0  0  0  0  0  0  0  0  0  0
    3.9063    0.9567    1.3468 C   0  0  0  0  0  0  0  0  0  0  0  0
    4.5231    1.6957    2.1041 O   0  0  0  0  0  0  0  0  0  0  0  0
    4.4814    0.0524    0.5127 O   0  0  0  0  0  0  0  0  0  0  0  0
    5.9163   -0.1727    0.5274 C   0  0  0  0  0  0  0  0  0  0  0  0
    6.3739   -0.7011    1.8944 C   0  0  0  0  0  0  0  0  0  0  0  0
    6.6929    1.0810    0.1045 C   0  0  0  0  0  0  0  0  0  0  0  0
    6.1508   -1.2677   -0.5252 C   0  0  0  0  0  0  0  0  0  0  0  0
    1.7540    1.8526    2.1069 C   0  0  0  0  0  0  0  0  0  0  0  0
    0.2727    1.9368    1.6895 C   0  0  0  0  0  0  0  0  0  0  0  0
   -0.3578    0.6155    1.6651 N   0  0  0  0  0  0  0  0  0  0  0  0
   -5.5307    4.5640    2.4304 H   0  0  0  0  0  0  0  0  0  0  0  0
   -5.5578    2.9278    3.0594 H   0  0  0  0  0  0  0  0  0  0  0  0
   -6.4972    3.3026    1.6108 H   0  0  0  0  0  0  0  0  0  0  0  0
   -2.8321    4.2041   -1.6420 H   0  0  0  0  0  0  0  0  0  0  0  0
   -1.3850    2.2549   -1.1436 H   0  0  0  0  0  0  0  0  0  0  0  0
   -4.3838    1.1249    3.2278 H   0  0  0  0  0  0  0  0  0  0  0  0
    1.2625   -2.6415   -0.9053 H   0  0  0  0  0  0  0  0  0  0  0  0
   -4.2185   -3.2925   -1.5404 H   0  0  0  0  0  0  0  0  0  0  0  0
   -3.6080   -5.2834   -5.2803 H   0  0  0  0  0  0  0  0  0  0  0  0
   -0.4767   -2.8239   -3.7111 H   0  0  0  0  0  0  0  0  0  0  0  0
   -4.0852   -1.0767   -1.9176 H   0  0  0  0  0  0  0  0  0  0  0  0
    0.7234   -1.1884    1.7526 H   0  0  0  0  0  0  0  0  0  0  0  0
    2.3859   -0.7705    0.0234 H   0  0  0  0  0  0  0  0  0  0  0  0
    1.5638    0.6783   -0.5441 H   0  0  0  0  0  0  0  0  0  0  0  0
    5.7271   -1.5218    2.2289 H   0  0  0  0  0  0  0  0  0  0  0  0
    7.4109   -1.0608    1.8685 H   0  0  0  0  0  0  0  0  0  0  0  0
    6.3213    0.0746    2.6681 H   0  0  0  0  0  0  0  0  0  0  0  0
    6.6135    1.8850    0.8421 H   0  0  0  0  0  0  0  0  0  0  0  0
    7.7595    0.8631   -0.0240 H   0  0  0  0  0  0  0  0  0  0  0  0
    6.3025    1.4819   -0.8396 H   0  0  0  0  0  0  0  0  0  0  0  0
    5.5678   -2.1673   -0.2909 H   0  0  0  0  0  0  0  0  0  0  0  0
    7.2083   -1.5501   -0.5919 H   0  0  0  0  0  0  0  0  0  0  0  0
    5.8180   -0.9318   -1.5164 H   0  0  0  0  0  0  0  0  0  0  0  0
    2.2113    2.8487    2.0746 H   0  0  0  0  0  0  0  0  0  0  0  0
    1.8352    1.4858    3.1368 H   0  0  0  0  0  0  0  0  0  0  0  0
    0.2362    2.4051    0.6984 H   0  0  0  0  0  0  0  0  0  0  0  0
   -0.2530    2.5931    2.3927 H   0  0  0  0  0  0  0  0  0  0  0  0
  1  2  1  0
  2  3  2  0
  3  4  1  0
  3  5  1  0
  5  6  2  0
  6  7  1  0
  7  8  2  0
  8  9  1  0
  9 10  1  0
 10 11  2  0
 10 12  1  0
 12 13  1  0
 13 14  1  0
 14 15  2  0
 15 16  1  0
 15 17  1  0
 17 18  1  0
 18 19  2  0
 19 20  1  0
 20 21  1  0
 20 22  2  0
 22 23  1  0
 23 24  1  0
 23 25  2  0
 17 26  1  0
 26 27  1  0
 14 28  1  0
 28 29  1  0
 29 30  1  0
 30 31  1  0
 31 32  2  0
 31 33  1  0
 33 34  1  0
 34 35  1  0
 34 36  1  0
 34 37  1  0
 30 38  1  0
 38 39  1  0
 39 40  1  0
  8  2  1  0
 12 40  1  1
 12  7  1  0
 26 13  2  0
 40 28  1  0
 25 18  1  0
  1 41  1  0
  1 42  1  0
  1 43  1  0
  5 44  1  0
  6 45  1  0
  9 46  1  0
 16 47  1  0
 19 48  1  0
 22 49  1  0
 25 50  1  0
 27 51  1  0
 28 52  1  1
 29 53  1  0
 29 54  1  0
 35 55  1  0
 35 56  1  0
 35 57  1  0
 36 58  1  0
 36 59  1  0
 36 60  1  0
 37 61  1  0
 37 62  1  0
 37 63  1  0
 38 64  1  0
 38 65  1  0
 39 66  1  0
 39 67  1  0
M  END
$$$$
