
     RDKit          3D

 71 72  0  0  0  0  0  0  0  0999 V2000
   -3.9547   -5.4293    1.1628 C   0  0  0  0  0  0  0  0  0  0  0  0
   -2.9037   -4.4723    1.1520 O   0  0  0  0  0  0  0  0  0  0  0  0
   -3.2324   -3.1744    0.8573 C   0  0  0  0  0  0  0  0  0  0  0  0
   -4.4892   -2.7589    0.4144 C   0  0  0  0  0  0  0  0  0  0  0  0
   -4.7415   -1.4070    0.1796 C   0  0  0  0  0  0  0  0  0  0  0  0
   -3.7404   -0.4573    0.3826 C   0  0  0  0  0  0  0  0  0  0  0  0
   -2.4576   -0.8404    0.8122 C   0  0  0  0  0  0  0  0  0  0  0  0
   -1.3444    0.1881    1.0347 C   0  0  0  0  0  0  0  0  0  0  0  0
   -1.8814    1.5370    1.6044 C   0  0  0  0  0  0  0  0  0  0  0  0
   -2.0822    2.5305    0.9079 O   0  0  0  0  0  0  0  0  0  0  0  0
   -2.1752    1.4927    2.9589 N   0  0  0  0  0  0  0  0  0  0  0  0
   -2.8009    2.5794    3.7253 C   0  0  0  0  0  0  0  0  0  0  0  0
   -1.9633    3.8661    3.6613 C   0  0  0  0  0  0  0  0  0  0  0  0
   -2.8877    2.1348    5.1976 C   0  0  0  0  0  0  0  0  0  0  0  0
   -4.2244    2.8472    3.2127 C   0  0  0  0  0  0  0  0  0  0  0  0
   -0.4669    0.3932   -0.1564 N   0  0  0  0  0  0  0  0  0  0  0  0
    0.9012    0.2651    0.0743 C   0  0  0  0  0  0  0  0  0  0  0  0
    1.3476   -0.0348    1.1862 O   0  0  0  0  0  0  0  0  0  0  0  0
    1.8786    0.5251   -1.0533 C   0  0  0  0  0  0  0  0  0  0  0  0
    3.2684   -0.0149   -0.7174 C   0  0  0  0  0  0  0  0  0  0  0  0
    4.2504    0.2113   -1.8485 C   0  0  0  0  0  0  0  0  0  0  0  0
    3.9471    0.8122   -2.8745 O   0  0  0  0  0  0  0  0  0  0  0  0
    5.4830   -0.3346   -1.5699 N   0  0  0  0  0  0  0  0  0  0  0  0
    6.5858   -0.2697   -2.3914 C   0  0  0  0  0  0  0  0  0  0  0  0
    6.7440    0.3774   -3.6370 C   0  0  0  0  0  0  0  0  0  0  0  0
    8.0426    0.1192   -3.9980 C   0  0  0  0  0  0  0  0  0  0  0  0
    8.8799    0.4762   -5.1553 C   0  0  0  0  0  0  0  0  0  0  0  0
    8.6301   -0.6352   -3.0326 O   0  0  0  0  0  0  0  0  0  0  0  0
    7.7176   -0.8802   -2.0226 N   0  0  0  0  0  0  0  0  0  0  0  0
   -1.1225    0.8053   -1.4264 C   0  0  0  0  0  0  0  0  0  0  0  0
   -1.1925   -0.3287   -2.4521 C   0  0  0  0  0  0  0  0  0  0  0  0
   -0.5870    2.0990   -2.0446 C   0  0  0  0  0  0  0  0  0  0  0  0
   -2.2174   -2.2123    1.0284 C   0  0  0  0  0  0  0  0  0  0  0  0
   -0.9847   -2.5790    1.5170 O   0  0  0  0  0  0  0  0  0  0  0  0
   -0.2097   -3.2450    0.5200 C   0  0  0  0  0  0  0  0  0  0  0  0
   -3.5348   -6.3829    1.4976 H   0  0  0  0  0  0  0  0  0  0  0  0
   -4.3590   -5.5786    0.1560 H   0  0  0  0  0  0  0  0  0  0  0  0
   -4.7431   -5.1482    1.8695 H   0  0  0  0  0  0  0  0  0  0  0  0
   -5.2989   -3.4616    0.2484 H   0  0  0  0  0  0  0  0  0  0  0  0
   -5.7263   -1.0905   -0.1573 H   0  0  0  0  0  0  0  0  0  0  0  0
   -3.9782    0.5901    0.1991 H   0  0  0  0  0  0  0  0  0  0  0  0
   -0.7328   -0.2010    1.8579 H   0  0  0  0  0  0  0  0  0  0  0  0
   -2.0634    0.5980    3.4236 H   0  0  0  0  0  0  0  0  0  0  0  0
   -2.3731    4.6375    4.3239 H   0  0  0  0  0  0  0  0  0  0  0  0
   -1.9345    4.2914    2.6533 H   0  0  0  0  0  0  0  0  0  0  0  0
   -0.9276    3.6763    3.9650 H   0  0  0  0  0  0  0  0  0  0  0  0
   -1.8916    1.9281    5.6062 H   0  0  0  0  0  0  0  0  0  0  0  0
   -3.3560    2.9041    5.8218 H   0  0  0  0  0  0  0  0  0  0  0  0
   -3.4782    1.2162    5.2989 H   0  0  0  0  0  0  0  0  0  0  0  0
   -4.8278    1.9332    3.2349 H   0  0  0  0  0  0  0  0  0  0  0  0
   -4.7318    3.5998    3.8267 H   0  0  0  0  0  0  0  0  0  0  0  0
   -4.2248    3.2109    2.1805 H   0  0  0  0  0  0  0  0  0  0  0  0
    1.5365    0.0545   -1.9743 H   0  0  0  0  0  0  0  0  0  0  0  0
    1.9498    1.6069   -1.2012 H   0  0  0  0  0  0  0  0  0  0  0  0
    3.6634    0.4790    0.1787 H   0  0  0  0  0  0  0  0  0  0  0  0
    3.2123   -1.0909   -0.5142 H   0  0  0  0  0  0  0  0  0  0  0  0
    5.6388   -0.8497   -0.7137 H   0  0  0  0  0  0  0  0  0  0  0  0
    6.0210    0.9607   -4.1896 H   0  0  0  0  0  0  0  0  0  0  0  0
    9.8119    0.9482   -4.8283 H   0  0  0  0  0  0  0  0  0  0  0  0
    9.1275   -0.4172   -5.7361 H   0  0  0  0  0  0  0  0  0  0  0  0
    8.3598    1.1783   -5.8140 H   0  0  0  0  0  0  0  0  0  0  0  0
   -2.1604    1.0429   -1.1785 H   0  0  0  0  0  0  0  0  0  0  0  0
   -0.2116   -0.6205   -2.8313 H   0  0  0  0  0  0  0  0  0  0  0  0
   -1.6517   -1.2237   -2.0210 H   0  0  0  0  0  0  0  0  0  0  0  0
   -1.7992   -0.0267   -3.3127 H   0  0  0  0  0  0  0  0  0  0  0  0
    0.3169    1.9387   -2.6370 H   0  0  0  0  0  0  0  0  0  0  0  0
   -0.3774    2.8527   -1.2793 H   0  0  0  0  0  0  0  0  0  0  0  0
   -1.3303    2.5197   -2.7321 H   0  0  0  0  0  0  0  0  0  0  0  0
   -0.4944   -4.2984    0.4404 H   0  0  0  0  0  0  0  0  0  0  0  0
   -0.2855   -2.7566   -0.4571 H   0  0  0  0  0  0  0  0  0  0  0  0
    0.8379   -3.2064    0.8336 H   0  0  0  0  0  0  0  0  0  0  0  0
  1  2  1  0
  2  3  1  0
  3  4  2  0
  4  5  1  0
  5  6  2  0
  6  7  1  0
  7  8  1  0
  8  9  1  0
  9 10  2  0
  9 11  1  0
 11 12  1  0
 12 13  1  0
 12 14  1  0
 12 15  1  0
  8 16  1  0
 16 17  1  0
 17 18  2  0
 17 19  1  0
 19 20  1  0
 20 21  1  0
 21 22  2  0
 21 23  1  0
 23 24  1  0
 24 25  1  0
 25 26  2  0
 26 27  1  0
 26 28  1  0
 28 29  1  0
 16 30  1  0
 30 31  1  0
 30 32  1  0
  7 33  2  0
 33 34  1  0
 34 35  1  0
 33  3  1  0
 29 24  2  0
  1 36  1  0
  1 37  1  0
  1 38  1  0
  4 39  1  0
  5 40  1  0
  6 41  1  0
  8 42  1  0
 11 43  1  0
 13 44  1  0
 13 45  1  0
 13 46  1  0
 14 47  1  0
 14 48  1  0
 14 49  1  0
 15 50  1  0
 15 51  1  0
 15 52  1  0
 19 53  1  0
 19 54  1  0
 20 55  1  0
 20 56  1  0
 23 57  1  0
 25 58  1  0
 27 59  1  0
 27 60  1  0
 27 61  1  0
 30 62  1  0
 31 63  1  0
 31 64  1  0
 31 65  1  0
 32 66  1  0
 32 67  1  0
 32 68  1  0
 35 69  1  0
 35 70  1  0
 35 71  1  0
M  END
$$$$
