
     RDKit          3D

 32 33  0  0  0  0  0  0  0  0999 V2000
   -4.5778    0.5857    0.5105 C   0  0  0  0  0  0  0  0  0  0  0  0
   -3.3416    0.1465    1.2800 C   0  0  0  0  0  0  0  0  0  0  0  0
   -2.8434   -1.2469    0.8867 C   0  0  0  0  0  0  0  0  0  0  0  0
   -2.2793   -1.3593   -0.5353 C   0  0  0  0  0  0  0  0  0  0  0  0
   -1.0481   -0.5904   -0.7246 N   0  0  0  0  0  0  0  0  0  0  0  0
   -1.0569    0.6163   -1.3508 C   0  0  0  0  0  0  0  0  0  0  0  0
   -1.9879    1.2316   -1.8281 O   0  0  0  0  0  0  0  0  0  0  0  0
    0.3907    1.0924   -1.3659 C   0  0  0  0  0  0  0  0  0  0  0  0
    0.7174    2.1647   -1.8371 O   0  0  0  0  0  0  0  0  0  0  0  0
    1.1127    0.1082   -0.7378 N   0  0  0  0  0  0  0  0  0  0  0  0
    2.5191    0.2260   -0.5159 C   0  0  0  0  0  0  0  0  0  0  0  0
    3.3273    0.9261   -1.4285 C   0  0  0  0  0  0  0  0  0  0  0  0
    4.7054    1.0622   -1.2279 C   0  0  0  0  0  0  0  0  0  0  0  0
    5.3040    0.5106   -0.1017 C   0  0  0  0  0  0  0  0  0  0  0  0
    4.5224   -0.1678    0.8264 C   0  0  0  0  0  0  0  0  0  0  0  0
    3.1436   -0.3029    0.6230 C   0  0  0  0  0  0  0  0  0  0  0  0
    0.2535   -0.9421   -0.3878 C   0  0  0  0  0  0  0  0  0  0  0  0
    0.6610   -2.4460    0.2402 S   0  0  0  0  0  0  0  0  0  0  0  0
   -4.9301    1.5515    0.8868 H   0  0  0  0  0  0  0  0  0  0  0  0
   -4.3724    0.7009   -0.5568 H   0  0  0  0  0  0  0  0  0  0  0  0
   -5.3901   -0.1385    0.6282 H   0  0  0  0  0  0  0  0  0  0  0  0
   -3.5916    0.1323    2.3480 H   0  0  0  0  0  0  0  0  0  0  0  0
   -2.5457    0.8890    1.1582 H   0  0  0  0  0  0  0  0  0  0  0  0
   -3.6692   -1.9614    0.9914 H   0  0  0  0  0  0  0  0  0  0  0  0
   -2.0782   -1.5502    1.6105 H   0  0  0  0  0  0  0  0  0  0  0  0
   -2.0695   -2.4121   -0.7524 H   0  0  0  0  0  0  0  0  0  0  0  0
   -3.0249   -1.0326   -1.2679 H   0  0  0  0  0  0  0  0  0  0  0  0
    2.9110    1.3626   -2.3341 H   0  0  0  0  0  0  0  0  0  0  0  0
    5.3070    1.6012   -1.9559 H   0  0  0  0  0  0  0  0  0  0  0  0
    6.3739    0.6173    0.0571 H   0  0  0  0  0  0  0  0  0  0  0  0
    4.9806   -0.5850    1.7201 H   0  0  0  0  0  0  0  0  0  0  0  0
    2.5776   -0.7899    1.4110 H   0  0  0  0  0  0  0  0  0  0  0  0
  1  2  1  0
  2  3  1  0
  3  4  1  0
  4  5  1  0
  5  6  1  0
  6  7  2  0
  6  8  1  0
  8  9  2  0
  8 10  1  0
 10 11  1  0
 11 12  2  0
 12 13  1  0
 13 14  2  0
 14 15  1  0
 15 16  2  0
 10 17  1  0
 17 18  2  0
 17  5  1  0
 16 11  1  0
  1 19  1  0
  1 20  1  0
  1 21  1  0
  2 22  1  0
  2 23  1  0
  3 24  1  0
  3 25  1  0
  4 26  1  0
  4 27  1  0
 12 28  1  0
 13 29  1  0
 14 30  1  0
 15 31  1  0
 16 32  1  0
M  END
$$$$
