
     RDKit          3D

 34 34  0  0  0  0  0  0  0  0999 V2000
    4.4394    1.9722   -0.8847 C   0  0  0  0  0  0  0  0  0  0  0  0
    4.1026    0.5934   -1.4304 C   0  0  0  0  0  0  0  0  0  0  0  0
    4.3459   -0.5367   -0.4253 C   0  0  0  0  0  0  0  0  0  0  0  0
    3.4898   -0.4559    0.8365 C   0  0  0  0  0  0  0  0  0  0  0  0
    2.1062   -0.4513    0.4650 O   0  0  0  0  0  0  0  0  0  0  0  0
    1.2468   -0.3511    1.5082 C   0  0  0  0  0  0  0  0  0  0  0  0
    1.5570   -0.2792    2.6870 O   0  0  0  0  0  0  0  0  0  0  0  0
   -0.1615   -0.3388    1.0278 C   0  0  0  0  0  0  0  0  0  0  0  0
   -0.4969   -0.4067   -0.3287 C   0  0  0  0  0  0  0  0  0  0  0  0
   -1.8401   -0.3904   -0.7291 C   0  0  0  0  0  0  0  0  0  0  0  0
   -2.8638   -0.3056    0.2164 C   0  0  0  0  0  0  0  0  0  0  0  0
   -4.2362   -0.2847   -0.1055 N   0  0  0  0  0  0  0  0  0  0  0  0
   -4.8067   -0.3296   -1.3650 C   0  0  0  0  0  0  0  0  0  0  0  0
   -6.3137   -0.2832   -1.3108 C   0  0  0  0  0  0  0  0  0  0  0  0
   -4.2198   -0.3755   -2.4399 O   0  0  0  0  0  0  0  0  0  0  0  0
   -2.5248   -0.2380    1.5737 C   0  0  0  0  0  0  0  0  0  0  0  0
   -1.1853   -0.2539    1.9778 C   0  0  0  0  0  0  0  0  0  0  0  0
    5.4666    2.0062   -0.5084 H   0  0  0  0  0  0  0  0  0  0  0  0
    4.3433    2.7228   -1.6758 H   0  0  0  0  0  0  0  0  0  0  0  0
    3.7629    2.2583   -0.0740 H   0  0  0  0  0  0  0  0  0  0  0  0
    4.7224    0.4074   -2.3158 H   0  0  0  0  0  0  0  0  0  0  0  0
    3.0607    0.5813   -1.7704 H   0  0  0  0  0  0  0  0  0  0  0  0
    4.1280   -1.4837   -0.9347 H   0  0  0  0  0  0  0  0  0  0  0  0
    5.4048   -0.5585   -0.1426 H   0  0  0  0  0  0  0  0  0  0  0  0
    3.7278    0.4485    1.4073 H   0  0  0  0  0  0  0  0  0  0  0  0
    3.6914   -1.3327    1.4632 H   0  0  0  0  0  0  0  0  0  0  0  0
    0.2727   -0.4728   -1.0943 H   0  0  0  0  0  0  0  0  0  0  0  0
   -2.0491   -0.4462   -1.7934 H   0  0  0  0  0  0  0  0  0  0  0  0
   -4.8736   -0.2215    0.6784 H   0  0  0  0  0  0  0  0  0  0  0  0
   -6.7236   -0.7233   -2.2245 H   0  0  0  0  0  0  0  0  0  0  0  0
   -6.6412    0.7565   -1.2297 H   0  0  0  0  0  0  0  0  0  0  0  0
   -6.6926   -0.8563   -0.4597 H   0  0  0  0  0  0  0  0  0  0  0  0
   -3.2940   -0.1714    2.3391 H   0  0  0  0  0  0  0  0  0  0  0  0
   -0.9454   -0.1997    3.0383 H   0  0  0  0  0  0  0  0  0  0  0  0
  1  2  1  0
  2  3  1  0
  3  4  1  0
  4  5  1  0
  5  6  1  0
  6  7  2  0
  6  8  1  0
  8  9  2  0
  9 10  1  0
 10 11  2  0
 11 12  1  0
 12 13  1  0
 13 14  1  0
 13 15  2  0
 11 16  1  0
 16 17  2  0
 17  8  1  0
  1 18  1  0
  1 19  1  0
  1 20  1  0
  2 21  1  0
  2 22  1  0
  3 23  1  0
  3 24  1  0
  4 25  1  0
  4 26  1  0
  9 27  1  0
 10 28  1  0
 12 29  1  0
 14 30  1  0
 14 31  1  0
 14 32  1  0
 16 33  1  0
 17 34  1  0
M  END
$$$$
