
     RDKit          3D

 84 89  0  0  0  0  0  0  0  0999 V2000
    8.1765   -1.0468   -4.5570 C   0  0  0  0  0  0  0  0  0  0  0  0
    7.6067   -0.2419   -3.5226 O   0  0  0  0  0  0  0  0  0  0  0  0
    8.5296    0.4281   -2.7726 C   0  0  0  0  0  0  0  0  0  0  0  0
    9.7390    0.3985   -2.9569 O   0  0  0  0  0  0  0  0  0  0  0  0
    7.8287    1.2359   -1.7017 C   0  0  0  0  0  0  0  0  0  0  0  0
    8.7900    1.6188   -0.5759 C   0  0  0  0  0  0  0  0  0  0  0  0
    8.1264    2.4368    0.5376 C   0  0  0  0  0  0  0  0  0  0  0  0
    7.7192    1.6193    1.7698 C   0  0  0  0  0  0  0  0  0  0  0  0
    6.6298    0.5697    1.5515 C   0  0  0  0  0  0  0  0  0  0  0  0
    5.2688    1.1755    1.2041 C   0  0  0  0  0  0  0  0  0  0  0  0
    4.2292    0.0843    0.9442 C   0  0  0  0  0  0  0  0  0  0  0  0
    2.8248    0.6726    0.7964 C   0  0  0  0  0  0  0  0  0  0  0  0
    1.7970   -0.3844    0.4130 C   0  0  0  0  0  0  0  0  0  0  0  0
    2.1346   -1.5167    0.0671 O   0  0  0  0  0  0  0  0  0  0  0  0
    0.4667    0.0071    0.4443 N   0  0  0  0  0  0  0  0  0  0  0  0
   -0.0025    1.3137    0.9215 C   0  0  0  0  0  0  0  0  0  0  0  0
   -1.5242    1.5065    0.7504 C   0  0  0  0  0  0  0  0  0  0  0  0
   -2.2730    0.4316    1.3982 N   0  0  0  0  0  0  0  0  0  0  0  0
   -1.7497   -0.9470    1.0738 C   0  0  2  0  0  0  0  0  0  0  0  0
   -0.5749   -0.9583    0.0761 C   0  0  0  0  0  0  0  0  0  0  0  0
   -2.9557   -1.6540    0.5849 C   0  0  0  0  0  0  0  0  0  0  0  0
   -4.0967   -0.8625    0.7003 C   0  0  0  0  0  0  0  0  0  0  0  0
   -5.1738   -1.5760    0.2331 C   0  0  0  0  0  0  0  0  0  0  0  0
   -6.4616   -1.2384    0.1958 O   0  0  0  0  0  0  0  0  0  0  0  0
   -4.6986   -2.8375   -0.1918 N   0  0  0  0  0  0  0  0  0  0  0  0
   -5.4858   -3.8935   -0.7708 C   0  0  0  0  0  0  0  0  0  0  0  0
   -5.0711   -5.2314   -0.6889 C   0  0  0  0  0  0  0  0  0  0  0  0
   -5.8390   -6.2546   -1.2562 C   0  0  0  0  0  0  0  0  0  0  0  0
   -7.0290   -5.9569   -1.9137 C   0  0  0  0  0  0  0  0  0  0  0  0
   -7.4528   -4.6340   -2.0047 C   0  0  0  0  0  0  0  0  0  0  0  0
   -6.6884   -3.6092   -1.4361 C   0  0  0  0  0  0  0  0  0  0  0  0
   -3.3080   -2.8695    0.0592 C   0  0  0  0  0  0  0  0  0  0  0  0
   -2.5441   -3.9169   -0.2394 O   0  0  0  0  0  0  0  0  0  0  0  0
   -3.7641    0.4516    1.2916 C   0  0  1  0  0  0  0  0  0  0  0  0
   -4.3761    0.6570    2.7107 C   0  0  0  0  0  0  0  0  0  0  0  0
   -4.1866    0.0117    3.7309 O   0  0  0  0  0  0  0  0  0  0  0  0
   -5.2221    1.7630    2.6287 N   0  0  0  0  0  0  0  0  0  0  0  0
   -5.2800    2.2809    1.3384 C   0  0  0  0  0  0  0  0  0  0  0  0
   -4.4548    1.5262    0.4876 C   0  0  0  0  0  0  0  0  0  0  0  0
   -4.4109    1.8088   -0.8697 C   0  0  0  0  0  0  0  0  0  0  0  0
   -5.1843    2.8673   -1.3492 C   0  0  0  0  0  0  0  0  0  0  0  0
   -5.9905    3.6280   -0.4799 C   0  0  0  0  0  0  0  0  0  0  0  0
   -6.9239    4.9038   -1.1838 Cl  0  0  0  0  0  0  0  0  0  0  0  0
   -6.0495    3.3526    0.8983 C   0  0  0  0  0  0  0  0  0  0  0  0
   -6.9319    4.1367    1.8245 C   0  0  0  0  0  0  0  0  0  0  0  0
    8.7051   -0.4192   -5.2818 H   0  0  0  0  0  0  0  0  0  0  0  0
    7.3628   -1.5651   -5.0743 H   0  0  0  0  0  0  0  0  0  0  0  0
    8.8487   -1.7997   -4.1300 H   0  0  0  0  0  0  0  0  0  0  0  0
    7.4117    2.1329   -2.1744 H   0  0  0  0  0  0  0  0  0  0  0  0
    7.0032    0.6349   -1.3069 H   0  0  0  0  0  0  0  0  0  0  0  0
    9.2712    0.7235   -0.1655 H   0  0  0  0  0  0  0  0  0  0  0  0
    9.5961    2.2258   -1.0098 H   0  0  0  0  0  0  0  0  0  0  0  0
    8.8589    3.1776    0.8847 H   0  0  0  0  0  0  0  0  0  0  0  0
    7.2793    3.0127    0.1511 H   0  0  0  0  0  0  0  0  0  0  0  0
    8.6101    1.1181    2.1690 H   0  0  0  0  0  0  0  0  0  0  0  0
    7.3865    2.3140    2.5516 H   0  0  0  0  0  0  0  0  0  0  0  0
    6.9408   -0.1476    0.7855 H   0  0  0  0  0  0  0  0  0  0  0  0
    6.5247   -0.0057    2.4810 H   0  0  0  0  0  0  0  0  0  0  0  0
    4.9386    1.8190    2.0295 H   0  0  0  0  0  0  0  0  0  0  0  0
    5.3434    1.8074    0.3132 H   0  0  0  0  0  0  0  0  0  0  0  0
    4.5051   -0.4669    0.0365 H   0  0  0  0  0  0  0  0  0  0  0  0
    4.2316   -0.6390    1.7686 H   0  0  0  0  0  0  0  0  0  0  0  0
    2.5374    1.1329    1.7474 H   0  0  0  0  0  0  0  0  0  0  0  0
    2.8234    1.4414    0.0162 H   0  0  0  0  0  0  0  0  0  0  0  0
    0.2627    1.3897    1.9823 H   0  0  0  0  0  0  0  0  0  0  0  0
    0.5367    2.0999    0.3827 H   0  0  0  0  0  0  0  0  0  0  0  0
   -1.8009    2.4733    1.1867 H   0  0  0  0  0  0  0  0  0  0  0  0
   -1.7380    1.5469   -0.3231 H   0  0  0  0  0  0  0  0  0  0  0  0
   -1.4201   -1.3928    2.0209 H   0  0  0  0  0  0  0  0  0  0  0  0
   -0.9137   -0.6848   -0.9321 H   0  0  0  0  0  0  0  0  0  0  0  0
   -0.1622   -1.9699   -0.0003 H   0  0  0  0  0  0  0  0  0  0  0  0
   -6.5729   -0.3820    0.6428 H   0  0  0  0  0  0  0  0  0  0  0  0
   -4.1694   -5.5195   -0.1556 H   0  0  0  0  0  0  0  0  0  0  0  0
   -5.5041   -7.2861   -1.1752 H   0  0  0  0  0  0  0  0  0  0  0  0
   -7.6253   -6.7526   -2.3514 H   0  0  0  0  0  0  0  0  0  0  0  0
   -8.3783   -4.3929   -2.5223 H   0  0  0  0  0  0  0  0  0  0  0  0
   -7.0427   -2.5901   -1.5625 H   0  0  0  0  0  0  0  0  0  0  0  0
   -1.6310   -3.7336    0.0365 H   0  0  0  0  0  0  0  0  0  0  0  0
   -5.7285    2.0978    3.4358 H   0  0  0  0  0  0  0  0  0  0  0  0
   -3.8094    1.2146   -1.5523 H   0  0  0  0  0  0  0  0  0  0  0  0
   -5.1686    3.0972   -2.4136 H   0  0  0  0  0  0  0  0  0  0  0  0
   -6.6941    3.9473    2.8762 H   0  0  0  0  0  0  0  0  0  0  0  0
   -7.9817    3.8703    1.6627 H   0  0  0  0  0  0  0  0  0  0  0  0
   -6.8007    5.2135    1.6718 H   0  0  0  0  0  0  0  0  0  0  0  0
  1  2  1  0
  2  3  1  0
  3  4  2  0
  3  5  1  0
  5  6  1  0
  6  7  1  0
  7  8  1  0
  8  9  1  0
  9 10  1  0
 10 11  1  0
 11 12  1  0
 12 13  1  0
 13 14  2  0
 13 15  1  0
 15 16  1  0
 16 17  1  0
 17 18  1  0
 18 19  1  0
 19 20  1  0
 19 21  1  0
 21 22  1  0
 22 23  2  0
 23 24  1  0
 23 25  1  0
 25 26  1  0
 26 27  2  0
 27 28  1  0
 28 29  2  0
 29 30  1  0
 30 31  2  0
 25 32  1  0
 32 33  1  0
 22 34  1  0
 34 35  1  0
 35 36  2  0
 35 37  1  0
 37 38  1  0
 38 39  2  0
 39 40  1  0
 40 41  2  0
 41 42  1  0
 42 43  1  0
 42 44  2  0
 44 45  1  0
 20 15  1  0
 32 21  2  0
 39 34  1  0
 34 18  1  1
 44 38  1  0
 31 26  1  0
  1 46  1  0
  1 47  1  0
  1 48  1  0
  5 49  1  0
  5 50  1  0
  6 51  1  0
  6 52  1  0
  7 53  1  0
  7 54  1  0
  8 55  1  0
  8 56  1  0
  9 57  1  0
  9 58  1  0
 10 59  1  0
 10 60  1  0
 11 61  1  0
 11 62  1  0
 12 63  1  0
 12 64  1  0
 16 65  1  0
 16 66  1  0
 17 67  1  0
 17 68  1  0
 19 69  1  1
 20 70  1  0
 20 71  1  0
 24 72  1  0
 27 73  1  0
 28 74  1  0
 29 75  1  0
 30 76  1  0
 31 77  1  0
 33 78  1  0
 37 79  1  0
 40 80  1  0
 41 81  1  0
 45 82  1  0
 45 83  1  0
 45 84  1  0
M  END
$$$$
