
     RDKit          3D

 63 66  0  0  0  0  0  0  0  0999 V2000
    1.6247    2.7235   -3.0160 C   0  0  0  0  0  0  0  0  0  0  0  0
    1.9788    2.5009   -1.5731 C   0  0  0  0  0  0  0  0  0  0  0  0
    1.0118    2.2977   -0.7223 N   0  0  0  0  0  0  0  0  0  0  0  0
    1.2785    2.0793    0.6336 N   0  0  0  0  0  0  0  0  0  0  0  0
    0.1094    1.8766    1.4850 C   0  0  0  0  0  0  0  0  0  0  0  0
   -0.2444    0.4013    1.6107 C   0  0  0  0  0  0  0  0  0  0  0  0
   -1.4590    0.2120    2.4891 C   0  0  0  0  0  0  0  0  0  0  0  0
   -2.0971    1.1404    2.9737 O   0  0  0  0  0  0  0  0  0  0  0  0
   -1.7750   -1.1146    2.6865 N   0  0  0  0  0  0  0  0  0  0  0  0
   -2.9565   -1.5178    3.4150 C   0  0  0  0  0  0  0  0  0  0  0  0
   -4.0403   -1.9636    2.4686 C   0  0  0  0  0  0  0  0  0  0  0  0
   -4.2592   -3.3230    2.2125 C   0  0  0  0  0  0  0  0  0  0  0  0
   -5.2590   -3.7306    1.3205 C   0  0  0  0  0  0  0  0  0  0  0  0
   -6.0517   -2.7847    0.6717 C   0  0  0  0  0  0  0  0  0  0  0  0
   -7.0529   -3.0408   -0.2222 O   0  0  0  0  0  0  0  0  0  0  0  0
   -7.5299   -4.3825   -0.3651 C   0  0  0  0  0  0  0  0  0  0  0  0
   -6.7615   -5.0874   -1.4793 C   0  0  0  0  0  0  0  0  0  0  0  0
   -9.0093   -4.2863   -0.7314 C   0  0  0  0  0  0  0  0  0  0  0  0
   -5.8220   -1.4280    0.9110 C   0  0  0  0  0  0  0  0  0  0  0  0
   -4.8273   -1.0174    1.8015 C   0  0  0  0  0  0  0  0  0  0  0  0
    2.5658    1.9771    1.2018 C   0  0  0  0  0  0  0  0  0  0  0  0
    2.7672    1.6975    2.3822 O   0  0  0  0  0  0  0  0  0  0  0  0
    3.6265    2.2357    0.2366 C   0  0  0  0  0  0  0  0  0  0  0  0
    4.9355    2.2844    0.4915 N   0  0  0  0  0  0  0  0  0  0  0  0
    5.5260    2.5061   -0.7147 N   0  0  0  0  0  0  0  0  0  0  0  0
    6.9518    2.4324   -0.7988 C   0  0  0  0  0  0  0  0  0  0  0  0
    7.6253    2.2604   -2.0141 C   0  0  0  0  0  0  0  0  0  0  0  0
    9.0233    2.1932   -2.0438 C   0  0  0  0  0  0  0  0  0  0  0  0
    9.7585    2.2846   -0.8637 C   0  0  0  0  0  0  0  0  0  0  0  0
    9.0991    2.4293    0.3533 C   0  0  0  0  0  0  0  0  0  0  0  0
    7.7040    2.4938    0.3885 C   0  0  0  0  0  0  0  0  0  0  0  0
    4.5666    2.7808   -1.6978 C   0  0  0  0  0  0  0  0  0  0  0  0
    4.8685    3.3303   -3.0447 C   0  0  0  0  0  0  0  0  0  0  0  0
    3.3444    2.5044   -1.1066 C   0  0  0  0  0  0  0  0  0  0  0  0
    2.2775    2.1320   -3.6634 H   0  0  0  0  0  0  0  0  0  0  0  0
    0.5883    2.4247   -3.2024 H   0  0  0  0  0  0  0  0  0  0  0  0
    1.7284    3.7855   -3.2563 H   0  0  0  0  0  0  0  0  0  0  0  0
   -0.7271    2.4462    1.0605 H   0  0  0  0  0  0  0  0  0  0  0  0
    0.3165    2.3024    2.4749 H   0  0  0  0  0  0  0  0  0  0  0  0
    0.5934   -0.1592    2.0423 H   0  0  0  0  0  0  0  0  0  0  0  0
   -0.4596   -0.0212    0.6220 H   0  0  0  0  0  0  0  0  0  0  0  0
   -1.3016   -1.8193    2.1371 H   0  0  0  0  0  0  0  0  0  0  0  0
   -2.6633   -2.3411    4.0757 H   0  0  0  0  0  0  0  0  0  0  0  0
   -3.3226   -0.7054    4.0529 H   0  0  0  0  0  0  0  0  0  0  0  0
   -3.6530   -4.0799    2.7061 H   0  0  0  0  0  0  0  0  0  0  0  0
   -5.3815   -4.7945    1.1491 H   0  0  0  0  0  0  0  0  0  0  0  0
   -7.4651   -4.9420    0.5750 H   0  0  0  0  0  0  0  0  0  0  0  0
   -7.1355   -6.1044   -1.6370 H   0  0  0  0  0  0  0  0  0  0  0  0
   -6.8417   -4.5334   -2.4215 H   0  0  0  0  0  0  0  0  0  0  0  0
   -5.6938   -5.1480   -1.2464 H   0  0  0  0  0  0  0  0  0  0  0  0
   -9.1501   -3.7158   -1.6565 H   0  0  0  0  0  0  0  0  0  0  0  0
   -9.4541   -5.2789   -0.8583 H   0  0  0  0  0  0  0  0  0  0  0  0
   -9.5620   -3.7572    0.0529 H   0  0  0  0  0  0  0  0  0  0  0  0
   -6.4252   -0.6803    0.4012 H   0  0  0  0  0  0  0  0  0  0  0  0
   -4.6669    0.0463    1.9712 H   0  0  0  0  0  0  0  0  0  0  0  0
    7.1039    2.1291   -2.9540 H   0  0  0  0  0  0  0  0  0  0  0  0
    9.5398    2.0556   -2.9910 H   0  0  0  0  0  0  0  0  0  0  0  0
   10.8440    2.2302   -0.8909 H   0  0  0  0  0  0  0  0  0  0  0  0
    9.6664    2.4910    1.2792 H   0  0  0  0  0  0  0  0  0  0  0  0
    7.2152    2.6088    1.3562 H   0  0  0  0  0  0  0  0  0  0  0  0
    4.0453    3.9540   -3.4054 H   0  0  0  0  0  0  0  0  0  0  0  0
    5.0190    2.5253   -3.7702 H   0  0  0  0  0  0  0  0  0  0  0  0
    5.7447    3.9847   -3.0317 H   0  0  0  0  0  0  0  0  0  0  0  0
  1  2  1  0
  2  3  2  0
  3  4  1  0
  4  5  1  0
  5  6  1  0
  6  7  1  0
  7  8  2  0
  7  9  1  0
  9 10  1  0
 10 11  1  0
 11 12  2  0
 12 13  1  0
 13 14  2  0
 14 15  1  0
 15 16  1  0
 16 17  1  0
 16 18  1  0
 14 19  1  0
 19 20  2  0
  4 21  1  0
 21 22  2  0
 21 23  1  0
 23 24  2  0
 24 25  1  0
 25 26  1  0
 26 27  2  0
 27 28  1  0
 28 29  2  0
 29 30  1  0
 30 31  2  0
 25 32  1  0
 32 33  1  0
 32 34  2  0
 34  2  1  0
 20 11  1  0
 34 23  1  0
 31 26  1  0
  1 35  1  0
  1 36  1  0
  1 37  1  0
  5 38  1  0
  5 39  1  0
  6 40  1  0
  6 41  1  0
  9 42  1  0
 10 43  1  0
 10 44  1  0
 12 45  1  0
 13 46  1  0
 16 47  1  0
 17 48  1  0
 17 49  1  0
 17 50  1  0
 18 51  1  0
 18 52  1  0
 18 53  1  0
 19 54  1  0
 20 55  1  0
 27 56  1  0
 28 57  1  0
 29 58  1  0
 30 59  1  0
 31 60  1  0
 33 61  1  0
 33 62  1  0
 33 63  1  0
M  END
$$$$
