
     RDKit          3D

 53 58  0  0  0  0  0  0  0  0999 V2000
    3.7235    0.2161   -1.8891 O   0  0  0  0  0  0  0  0  0  0  0  0
    2.7677   -0.3000   -1.3123 C   0  0  0  0  0  0  0  0  0  0  0  0
    1.7490   -1.1529   -2.0964 C   0  0  0  0  0  0  0  0  0  0  0  0
    0.3575   -0.8386   -1.7201 N   0  0  0  0  0  4  0  0  0  0  0  0
   -0.2541    0.4169   -1.7898 C   0  0  0  0  0  0  0  0  0  0  0  0
   -1.5003    0.3449   -1.1810 C   0  0  0  0  0  0  0  0  0  0  0  0
   -2.4786    1.5474   -0.9218 C   0  0  0  0  0  0  0  0  0  0  0  0
   -3.6894    1.3513   -0.2505 C   0  0  0  0  0  0  0  0  0  0  0  0
   -4.5448    2.4324   -0.0174 C   0  0  0  0  0  0  0  0  0  0  0  0
   -4.1864    3.7020   -0.4513 C   0  0  0  0  0  0  0  0  0  0  0  0
   -5.0077    4.7339   -0.2252 F   0  0  0  0  0  0  0  0  0  0  0  0
   -2.9851    3.9134   -1.1141 C   0  0  0  0  0  0  0  0  0  0  0  0
   -2.1263    2.8364   -1.3500 C   0  0  0  0  0  0  0  0  0  0  0  0
   -1.6230   -0.9981   -0.8716 N   0  0  0  0  0  0  0  0  0  0  0  0
   -0.5222   -1.6758   -1.1831 C   0  0  0  0  0  0  0  0  0  0  0  0
   -0.6045   -3.1140   -0.8402 C   0  0  0  0  0  0  0  0  0  0  0  0
   -2.1049   -3.2867   -0.5326 C   0  0  0  0  0  0  0  0  0  0  0  0
   -2.6277   -1.8510   -0.2531 C   0  0  0  0  0  0  0  0  0  0  0  0
    2.4417   -0.1280    0.0421 N   0  0  0  0  0  0  0  0  0  0  0  0
    2.3166   -1.2740    0.8975 C   0  0  0  0  0  0  0  0  0  0  0  0
    3.0518   -2.4382    0.5863 C   0  0  0  0  0  0  0  0  0  0  0  0
    2.9790   -3.5836    1.3827 C   0  0  0  0  0  0  0  0  0  0  0  0
    2.1753   -3.5881    2.5136 C   0  0  0  0  0  0  0  0  0  0  0  0
    1.4561   -2.4438    2.8500 C   0  0  0  0  0  0  0  0  0  0  0  0
    1.5297   -1.2865    2.0571 C   0  0  0  0  0  0  0  0  0  0  0  0
    0.5342    0.0894    2.5472 S   0  0  0  0  0  0  0  0  0  0  0  0
    1.3770    1.4013    1.6999 C   0  0  0  0  0  0  0  0  0  0  0  0
    1.1122    2.7049    2.1551 C   0  0  0  0  0  0  0  0  0  0  0  0
    1.6402    3.8114    1.4980 C   0  0  0  0  0  0  0  0  0  0  0  0
    2.4312    3.6224    0.3756 C   0  0  0  0  0  0  0  0  0  0  0  0
    2.6945    2.3284   -0.0855 C   0  0  0  0  0  0  0  0  0  0  0  0
    2.1847    1.1881    0.5677 C   0  0  0  0  0  0  0  0  0  0  0  0
    1.8521   -0.9267   -3.1636 H   0  0  0  0  0  0  0  0  0  0  0  0
    1.9469   -2.2174   -1.9521 H   0  0  0  0  0  0  0  0  0  0  0  0
    0.3098    1.2280   -2.2199 H   0  0  0  0  0  0  0  0  0  0  0  0
   -3.9965    0.3805    0.1154 H   0  0  0  0  0  0  0  0  0  0  0  0
   -5.4885    2.2956    0.5037 H   0  0  0  0  0  0  0  0  0  0  0  0
   -2.7259    4.9168   -1.4407 H   0  0  0  0  0  0  0  0  0  0  0  0
   -1.1933    3.0402   -1.8674 H   0  0  0  0  0  0  0  0  0  0  0  0
   -0.2644   -3.7025   -1.6931 H   0  0  0  0  0  0  0  0  0  0  0  0
    0.0188   -3.2699    0.0400 H   0  0  0  0  0  0  0  0  0  0  0  0
   -2.6097   -3.6824   -1.4219 H   0  0  0  0  0  0  0  0  0  0  0  0
   -2.2941   -3.9752    0.2953 H   0  0  0  0  0  0  0  0  0  0  0  0
   -2.6548   -1.6424    0.8203 H   0  0  0  0  0  0  0  0  0  0  0  0
   -3.6085   -1.6959   -0.7079 H   0  0  0  0  0  0  0  0  0  0  0  0
    3.7527   -2.4596   -0.2472 H   0  0  0  0  0  0  0  0  0  0  0  0
    3.5765   -4.4601    1.1380 H   0  0  0  0  0  0  0  0  0  0  0  0
    2.1282   -4.4696    3.1500 H   0  0  0  0  0  0  0  0  0  0  0  0
    0.8460   -2.4572    3.7527 H   0  0  0  0  0  0  0  0  0  0  0  0
    0.4831    2.8696    3.0287 H   0  0  0  0  0  0  0  0  0  0  0  0
    1.4383    4.8149    1.8658 H   0  0  0  0  0  0  0  0  0  0  0  0
    2.8633    4.4804   -0.1364 H   0  0  0  0  0  0  0  0  0  0  0  0
    3.3531    2.2513   -0.9470 H   0  0  0  0  0  0  0  0  0  0  0  0
  1  2  2  0
  2  3  1  0
  3  4  1  0
  4  5  1  0
  5  6  2  0
  6  7  1  0
  7  8  2  0
  8  9  1  0
  9 10  2  0
 10 11  1  0
 10 12  1  0
 12 13  2  0
  6 14  1  0
 14 15  1  0
 15 16  1  0
 16 17  1  0
 17 18  1  0
  2 19  1  0
 19 20  1  0
 20 21  2  0
 21 22  1  0
 22 23  2  0
 23 24  1  0
 24 25  2  0
 25 26  1  0
 26 27  1  0
 27 28  2  0
 28 29  1  0
 29 30  2  0
 30 31  1  0
 31 32  2  0
 15  4  2  0
 32 19  1  0
 13  7  1  0
 18 14  1  0
 25 20  1  0
 32 27  1  0
  3 33  1  0
  3 34  1  0
  5 35  1  0
  8 36  1  0
  9 37  1  0
 12 38  1  0
 13 39  1  0
 16 40  1  0
 16 41  1  0
 17 42  1  0
 17 43  1  0
 18 44  1  0
 18 45  1  0
 21 46  1  0
 22 47  1  0
 23 48  1  0
 24 49  1  0
 28 50  1  0
 29 51  1  0
 30 52  1  0
 31 53  1  0
M  CHG  1   4   1
M  END
$$$$
