
     RDKit          3D

 36 37  0  0  0  0  0  0  0  0999 V2000
    6.3429   -0.6522    1.6197 C   0  0  0  0  0  0  0  0  0  0  0  0
    4.9666   -0.3199    1.4334 O   0  0  0  0  0  0  0  0  0  0  0  0
    4.6234   -0.1019    0.1388 C   0  0  0  0  0  0  0  0  0  0  0  0
    5.3774   -0.1692   -0.8195 O   0  0  0  0  0  0  0  0  0  0  0  0
    3.1786    0.2377    0.0267 C   0  0  0  0  0  0  0  0  0  0  0  0
    2.6553    0.4908   -1.2465 C   0  0  0  0  0  0  0  0  0  0  0  0
    1.3040    0.8136   -1.4032 C   0  0  0  0  0  0  0  0  0  0  0  0
    0.4443    0.8824   -0.2938 C   0  0  0  0  0  0  0  0  0  0  0  0
   -1.0175    1.2609   -0.4890 C   0  0  0  0  0  0  0  0  0  0  0  0
   -1.5563    0.5859   -1.6353 O   0  0  0  0  0  0  0  0  0  0  0  0
   -2.1665   -0.6469   -1.2622 C   0  0  0  0  0  0  0  0  0  0  0  0
   -3.4108   -0.3587   -0.4046 C   0  0  0  0  0  0  0  0  0  0  0  0
   -3.6536   -1.5471    0.5387 C   0  0  0  0  0  0  0  0  0  0  0  0
   -4.6503   -0.1672   -1.2919 C   0  0  0  0  0  0  0  0  0  0  0  0
   -3.1650    0.9304    0.3976 C   0  0  0  0  0  0  0  0  0  0  0  0
   -1.7784    1.0338    0.7039 O   0  0  0  0  0  0  0  0  0  0  0  0
    0.9822    0.6381    0.9798 C   0  0  0  0  0  0  0  0  0  0  0  0
    2.3344    0.3148    1.1406 C   0  0  0  0  0  0  0  0  0  0  0  0
    6.5883   -1.5798    1.0930 H   0  0  0  0  0  0  0  0  0  0  0  0
    6.9846    0.1678    1.2823 H   0  0  0  0  0  0  0  0  0  0  0  0
    6.5122   -0.8064    2.6889 H   0  0  0  0  0  0  0  0  0  0  0  0
    3.2966    0.4384   -2.1246 H   0  0  0  0  0  0  0  0  0  0  0  0
    0.9183    1.0072   -2.4033 H   0  0  0  0  0  0  0  0  0  0  0  0
   -1.0490    2.3363   -0.7023 H   0  0  0  0  0  0  0  0  0  0  0  0
   -1.4311   -1.2681   -0.7350 H   0  0  0  0  0  0  0  0  0  0  0  0
   -2.4325   -1.1851   -2.1786 H   0  0  0  0  0  0  0  0  0  0  0  0
   -2.8085   -1.6910    1.2213 H   0  0  0  0  0  0  0  0  0  0  0  0
   -3.7913   -2.4767   -0.0249 H   0  0  0  0  0  0  0  0  0  0  0  0
   -4.5498   -1.3913    1.1497 H   0  0  0  0  0  0  0  0  0  0  0  0
   -5.5330    0.0764   -0.6899 H   0  0  0  0  0  0  0  0  0  0  0  0
   -4.8748   -1.0766   -1.8607 H   0  0  0  0  0  0  0  0  0  0  0  0
   -4.5012    0.6453   -2.0120 H   0  0  0  0  0  0  0  0  0  0  0  0
   -3.7235    0.9243    1.3400 H   0  0  0  0  0  0  0  0  0  0  0  0
   -3.4756    1.8299   -0.1497 H   0  0  0  0  0  0  0  0  0  0  0  0
    0.3482    0.6962    1.8632 H   0  0  0  0  0  0  0  0  0  0  0  0
    2.7115    0.1279    2.1431 H   0  0  0  0  0  0  0  0  0  0  0  0
  1  2  1  0
  2  3  1  0
  3  4  2  0
  3  5  1  0
  5  6  2  0
  6  7  1  0
  7  8  2  0
  8  9  1  0
  9 10  1  0
 10 11  1  0
 11 12  1  0
 12 13  1  0
 12 14  1  0
 12 15  1  0
 15 16  1  0
  8 17  1  0
 17 18  2  0
 18  5  1  0
 16  9  1  0
  1 19  1  0
  1 20  1  0
  1 21  1  0
  6 22  1  0
  7 23  1  0
  9 24  1  0
 11 25  1  0
 11 26  1  0
 13 27  1  0
 13 28  1  0
 13 29  1  0
 14 30  1  0
 14 31  1  0
 14 32  1  0
 15 33  1  0
 15 34  1  0
 17 35  1  0
 18 36  1  0
M  END
$$$$
