
     RDKit          3D

 49 53  0  0  0  0  0  0  0  0999 V2000
   -5.3334   -1.1958   -2.4004 C   0  0  0  0  0  0  0  0  0  0  0  0
   -4.6089   -0.9071   -1.1189 C   0  0  0  0  0  0  0  0  0  0  0  0
   -5.2538   -0.2435   -0.0661 C   0  0  0  0  0  0  0  0  0  0  0  0
   -4.5716    0.0475    1.1184 C   0  0  0  0  0  0  0  0  0  0  0  0
   -3.2327   -0.3125    1.2603 C   0  0  0  0  0  0  0  0  0  0  0  0
   -2.5801   -0.9546    0.2054 C   0  0  0  0  0  0  0  0  0  0  0  0
   -0.8808   -1.4372    0.3746 S   0  0  0  0  0  6  0  0  0  0  0  0
   -0.4254   -1.1362    1.7167 O   0  0  0  0  0  0  0  0  0  0  0  0
   -0.7780   -2.7853   -0.1477 O   0  0  0  0  0  0  0  0  0  0  0  0
   -0.0763   -0.4608   -0.7195 N   0  0  0  0  0  0  0  0  0  0  0  0
    0.2615    0.8434   -0.2835 C   0  0  0  0  0  0  0  0  0  0  0  0
   -0.7730    1.5907    0.1432 N   0  0  0  0  0  0  0  0  0  0  0  0
   -0.4940    2.8646    0.4662 C   0  0  0  0  0  0  0  0  0  0  0  0
   -1.5129    3.6848    0.9326 C   0  0  0  0  0  0  0  0  0  0  0  0
   -1.2722    5.0150    1.2782 C   0  0  0  0  0  0  0  0  0  0  0  0
    0.0095    5.5346    1.1529 C   0  0  0  0  0  0  0  0  0  0  0  0
    1.0408    4.7202    0.6818 C   0  0  0  0  0  0  0  0  0  0  0  0
    0.8151    3.3938    0.3357 C   0  0  0  0  0  0  0  0  0  0  0  0
    1.8390    2.6424   -0.1180 N   0  0  0  0  0  0  0  0  0  0  0  0
    1.5664    1.3533   -0.4185 C   0  0  0  0  0  0  0  0  0  0  0  0
    2.6467    0.5962   -0.9199 N   0  0  0  0  0  0  0  0  0  0  0  0
    3.1213   -0.6388   -0.4105 C   0  0  0  0  0  0  0  0  0  0  0  0
    2.8708   -1.0652    0.9117 C   0  0  0  0  0  0  0  0  0  0  0  0
    3.3887   -2.2735    1.3930 C   0  0  0  0  0  0  0  0  0  0  0  0
    4.1717   -3.0201    0.5426 C   0  0  0  0  0  0  0  0  0  0  0  0
    4.4474   -2.6005   -0.7358 C   0  0  0  0  0  0  0  0  0  0  0  0
    3.9487   -1.4154   -1.2358 C   0  0  0  0  0  0  0  0  0  0  0  0
    5.2450   -3.4731   -1.4080 O   0  0  0  0  0  0  0  0  0  0  0  0
    5.4195   -4.5025   -0.4113 C   0  0  0  0  0  0  0  0  0  0  0  0
    4.7597   -4.2090    0.8375 O   0  0  0  0  0  0  0  0  0  0  0  0
   -3.2601   -1.2571   -0.9795 C   0  0  0  0  0  0  0  0  0  0  0  0
   -5.0543   -2.1826   -2.7867 H   0  0  0  0  0  0  0  0  0  0  0  0
   -6.4184   -1.2002   -2.2494 H   0  0  0  0  0  0  0  0  0  0  0  0
   -5.0874   -0.4354   -3.1492 H   0  0  0  0  0  0  0  0  0  0  0  0
   -6.2972    0.0503   -0.1618 H   0  0  0  0  0  0  0  0  0  0  0  0
   -5.0855    0.5571    1.9294 H   0  0  0  0  0  0  0  0  0  0  0  0
   -2.7038   -0.0793    2.1813 H   0  0  0  0  0  0  0  0  0  0  0  0
    0.6556   -0.9679   -1.2131 H   0  0  0  0  0  0  0  0  0  0  0  0
   -2.5170    3.2768    1.0274 H   0  0  0  0  0  0  0  0  0  0  0  0
   -2.0846    5.6387    1.6440 H   0  0  0  0  0  0  0  0  0  0  0  0
    0.2114    6.5695    1.4193 H   0  0  0  0  0  0  0  0  0  0  0  0
    2.0437    5.1288    0.5832 H   0  0  0  0  0  0  0  0  0  0  0  0
    3.4271    1.2566   -0.9318 H   0  0  0  0  0  0  0  0  0  0  0  0
    2.2714   -0.4618    1.5907 H   0  0  0  0  0  0  0  0  0  0  0  0
    3.1819   -2.6076    2.4039 H   0  0  0  0  0  0  0  0  0  0  0  0
    4.1856   -1.1078   -2.2484 H   0  0  0  0  0  0  0  0  0  0  0  0
    6.4917   -4.6267   -0.2204 H   0  0  0  0  0  0  0  0  0  0  0  0
    5.0212   -5.4444   -0.8063 H   0  0  0  0  0  0  0  0  0  0  0  0
   -2.7398   -1.7622   -1.7904 H   0  0  0  0  0  0  0  0  0  0  0  0
  1  2  1  0
  2  3  2  0
  3  4  1  0
  4  5  2  0
  5  6  1  0
  6  7  1  0
  7  8  2  0
  7  9  2  0
  7 10  1  0
 10 11  1  0
 11 12  2  0
 12 13  1  0
 13 14  2  0
 14 15  1  0
 15 16  2  0
 16 17  1  0
 17 18  2  0
 18 19  1  0
 19 20  2  0
 20 21  1  0
 21 22  1  0
 22 23  2  0
 23 24  1  0
 24 25  2  0
 25 26  1  0
 26 27  2  0
 26 28  1  0
 28 29  1  0
 29 30  1  0
  6 31  2  0
 31  2  1  0
 20 11  1  0
 27 22  1  0
 18 13  1  0
 30 25  1  0
  1 32  1  0
  1 33  1  0
  1 34  1  0
  3 35  1  0
  4 36  1  0
  5 37  1  0
 10 38  1  0
 14 39  1  0
 15 40  1  0
 16 41  1  0
 17 42  1  0
 21 43  1  0
 23 44  1  0
 24 45  1  0
 27 46  1  0
 29 47  1  0
 29 48  1  0
 31 49  1  0
M  END
$$$$
