
     RDKit          3D

 60 65  0  0  0  0  0  0  0  0999 V2000
    3.9322   -4.6706    2.2729 O   0  0  0  0  0  0  0  0  0  0  0  0
    3.6152   -3.8857    1.3853 C   0  0  0  0  0  0  0  0  0  0  0  0
    2.2896   -3.6651    1.0353 N   0  0  0  0  0  0  0  0  0  0  0  0
    1.8830   -2.7988    0.0256 C   0  0  0  0  0  0  0  0  0  0  0  0
    0.3744   -2.6887   -0.1430 C   0  0  0  0  0  0  0  0  0  0  0  0
   -0.1242   -1.5684    0.7806 C   0  0  0  0  0  0  0  0  0  0  0  0
   -1.4531   -0.9869    0.3216 C   0  0  0  0  0  0  0  0  0  0  0  0
   -1.4027   -0.4903   -1.0748 N   0  0  0  0  0  0  0  0  0  0  0  0
   -1.7705    1.1560   -1.3277 S   0  0  0  0  0  6  0  0  0  0  0  0
   -0.8732    1.9365   -0.4980 O   0  0  0  0  0  0  0  0  0  0  0  0
   -1.8577    1.3820   -2.7547 O   0  0  0  0  0  0  0  0  0  0  0  0
   -3.4161    1.2815   -0.6744 C   0  0  0  0  0  0  0  0  0  0  0  0
   -4.4607    0.6410   -1.3471 C   0  0  0  0  0  0  0  0  0  0  0  0
   -5.7560    0.6910   -0.8209 C   0  0  0  0  0  0  0  0  0  0  0  0
   -5.9953    1.3834    0.3655 C   0  0  0  0  0  0  0  0  0  0  0  0
   -4.9501    2.0640    1.0060 C   0  0  0  0  0  0  0  0  0  0  0  0
   -3.6544    2.0067    0.4949 C   0  0  0  0  0  0  0  0  0  0  0  0
   -5.1294    2.7964    2.1517 O   0  0  0  0  0  0  0  0  0  0  0  0
   -6.5121    3.0847    2.3727 C   0  0  0  0  0  0  0  0  0  0  0  0
   -7.3444    1.8230    2.1989 C   0  0  0  0  0  0  0  0  0  0  0  0
   -7.2829    1.3553    0.8447 O   0  0  0  0  0  0  0  0  0  0  0  0
   -0.2619   -0.9773   -1.8922 C   0  0  0  0  0  0  0  0  0  0  0  0
   -0.0265   -2.4562   -1.6042 C   0  0  0  0  0  0  0  0  0  0  0  0
    2.6986   -2.0728   -0.6891 N   0  0  0  0  0  0  0  0  0  0  0  0
    3.9977   -2.2536   -0.3527 C   0  0  0  0  0  0  0  0  0  0  0  0
    4.5204   -3.0898    0.6004 C   0  0  0  0  0  0  0  0  0  0  0  0
    5.8738   -2.9850    0.6364 N   0  0  0  0  0  0  0  0  0  0  0  0
    6.2274   -2.0746   -0.2688 N   0  0  0  0  0  0  0  0  0  0  0  0
    5.0950   -1.6078   -0.8441 N   0  0  0  0  0  0  0  0  0  0  0  0
    5.1477   -0.5422   -1.8200 C   0  0  0  0  0  0  0  0  0  0  0  0
    4.8968    0.8050   -1.1785 C   0  0  0  0  0  0  0  0  0  0  0  0
    5.8932    1.4159   -0.3934 C   0  0  0  0  0  0  0  0  0  0  0  0
    5.6553    2.6487    0.2189 C   0  0  0  0  0  0  0  0  0  0  0  0
    4.4235    3.2726    0.0479 C   0  0  0  0  0  0  0  0  0  0  0  0
    4.1966    4.4562    0.6373 F   0  0  0  0  0  0  0  0  0  0  0  0
    3.4230    2.6852   -0.7219 C   0  0  0  0  0  0  0  0  0  0  0  0
    3.6572    1.4512   -1.3351 C   0  0  0  0  0  0  0  0  0  0  0  0
    1.6187   -4.2053    1.5610 H   0  0  0  0  0  0  0  0  0  0  0  0
   -0.0714   -3.6395    0.1772 H   0  0  0  0  0  0  0  0  0  0  0  0
   -0.2252   -1.9565    1.8009 H   0  0  0  0  0  0  0  0  0  0  0  0
    0.6128   -0.7576    0.8377 H   0  0  0  0  0  0  0  0  0  0  0  0
   -1.7431   -0.1977    1.0174 H   0  0  0  0  0  0  0  0  0  0  0  0
   -2.2329   -1.7514    0.3734 H   0  0  0  0  0  0  0  0  0  0  0  0
   -4.2689    0.1001   -2.2706 H   0  0  0  0  0  0  0  0  0  0  0  0
   -6.5748    0.1814   -1.3253 H   0  0  0  0  0  0  0  0  0  0  0  0
   -2.8473    2.5217    1.0067 H   0  0  0  0  0  0  0  0  0  0  0  0
   -6.6105    3.4722    3.3935 H   0  0  0  0  0  0  0  0  0  0  0  0
   -6.8275    3.8710    1.6740 H   0  0  0  0  0  0  0  0  0  0  0  0
   -8.3911    2.0260    2.4310 H   0  0  0  0  0  0  0  0  0  0  0  0
   -6.9921    1.0222    2.8607 H   0  0  0  0  0  0  0  0  0  0  0  0
   -0.5142   -0.8716   -2.9585 H   0  0  0  0  0  0  0  0  0  0  0  0
    0.6370   -0.3770   -1.6904 H   0  0  0  0  0  0  0  0  0  0  0  0
   -0.9597   -3.0047   -1.8014 H   0  0  0  0  0  0  0  0  0  0  0  0
    0.7213   -2.8627   -2.2972 H   0  0  0  0  0  0  0  0  0  0  0  0
    4.4059   -0.7579   -2.5953 H   0  0  0  0  0  0  0  0  0  0  0  0
    6.1347   -0.5651   -2.2998 H   0  0  0  0  0  0  0  0  0  0  0  0
    6.8548    0.9246   -0.2428 H   0  0  0  0  0  0  0  0  0  0  0  0
    6.4181    3.1210    0.8321 H   0  0  0  0  0  0  0  0  0  0  0  0
    2.4642    3.1869   -0.8356 H   0  0  0  0  0  0  0  0  0  0  0  0
    2.8616    0.9971   -1.9274 H   0  0  0  0  0  0  0  0  0  0  0  0
  1  2  2  0
  2  3  1  0
  3  4  1  0
  4  5  1  0
  5  6  1  0
  6  7  1  0
  7  8  1  0
  8  9  1  0
  9 10  2  0
  9 11  2  0
  9 12  1  0
 12 13  2  0
 13 14  1  0
 14 15  2  0
 15 16  1  0
 16 17  2  0
 16 18  1  0
 18 19  1  0
 19 20  1  0
 20 21  1  0
  8 22  1  0
 22 23  1  0
  4 24  2  0
 24 25  1  0
 25 26  2  0
 26 27  1  0
 27 28  2  0
 28 29  1  0
 29 30  1  0
 30 31  1  0
 31 32  2  0
 32 33  1  0
 33 34  2  0
 34 35  1  0
 34 36  1  0
 36 37  2  0
 26  2  1  0
 37 31  1  0
 23  5  1  0
 29 25  1  0
 17 12  1  0
 21 15  1  0
  3 38  1  0
  5 39  1  0
  6 40  1  0
  6 41  1  0
  7 42  1  0
  7 43  1  0
 13 44  1  0
 14 45  1  0
 17 46  1  0
 19 47  1  0
 19 48  1  0
 20 49  1  0
 20 50  1  0
 22 51  1  0
 22 52  1  0
 23 53  1  0
 23 54  1  0
 30 55  1  0
 30 56  1  0
 32 57  1  0
 33 58  1  0
 36 59  1  0
 37 60  1  0
M  END
$$$$
