
     RDKit          3D

 38 40  0  0  0  0  0  0  0  0999 V2000
   -2.1872    1.2757    1.3977 C   0  0  0  0  0  0  0  0  0  0  0  0
   -1.4258    0.7254    0.1878 C   0  0  0  0  0  0  0  0  0  0  0  0
   -1.5252    1.6999   -1.0114 C   0  0  0  0  0  0  0  0  0  0  0  0
   -1.4242    0.8114   -2.2551 C   0  0  0  0  0  0  0  0  0  0  0  0
   -1.2206   -0.6052   -1.6989 C   0  0  0  0  0  0  0  0  0  0  0  0
    0.2811   -0.7974   -1.5197 C   0  0  0  0  0  0  0  0  0  0  0  0
    0.8798   -1.4764   -2.3554 O   0  0  0  0  0  0  0  0  0  0  0  0
    0.8612   -0.0849   -0.4523 N   0  0  0  0  0  0  0  0  0  0  0  0
    2.2975   -0.1279   -0.2585 C   0  0  0  0  0  0  0  0  0  0  0  0
    3.0693   -1.2410   -0.6338 C   0  0  0  0  0  0  0  0  0  0  0  0
    4.4576   -1.2641   -0.4521 C   0  0  0  0  0  0  0  0  0  0  0  0
    5.1066   -0.1695    0.1080 C   0  0  0  0  0  0  0  0  0  0  0  0
    4.3626    0.9421    0.4848 C   0  0  0  0  0  0  0  0  0  0  0  0
    5.1605    2.3076    1.1657 Cl  0  0  0  0  0  0  0  0  0  0  0  0
    2.9766    0.9668    0.3062 C   0  0  0  0  0  0  0  0  0  0  0  0
    0.0748    0.5654    0.5254 C   0  0  0  0  0  0  0  0  0  0  0  0
    0.5009    0.9588    1.6135 O   0  0  0  0  0  0  0  0  0  0  0  0
   -1.9682   -0.6163   -0.3586 C   0  0  0  0  0  0  0  0  0  0  0  0
   -3.4985   -0.6145   -0.5911 C   0  0  0  0  0  0  0  0  0  0  0  0
   -1.6627   -1.8489    0.5131 C   0  0  0  0  0  0  0  0  0  0  0  0
   -1.7611    2.2294    1.7307 H   0  0  0  0  0  0  0  0  0  0  0  0
   -3.2420    1.4595    1.1700 H   0  0  0  0  0  0  0  0  0  0  0  0
   -2.1404    0.5831    2.2450 H   0  0  0  0  0  0  0  0  0  0  0  0
   -0.7266    2.4510   -1.0025 H   0  0  0  0  0  0  0  0  0  0  0  0
   -2.4783    2.2415   -1.0224 H   0  0  0  0  0  0  0  0  0  0  0  0
   -0.6081    1.1361   -2.9100 H   0  0  0  0  0  0  0  0  0  0  0  0
   -2.3512    0.8710   -2.8365 H   0  0  0  0  0  0  0  0  0  0  0  0
   -1.5924   -1.3705   -2.3893 H   0  0  0  0  0  0  0  0  0  0  0  0
    2.6117   -2.1368   -1.0468 H   0  0  0  0  0  0  0  0  0  0  0  0
    5.0263   -2.1429   -0.7472 H   0  0  0  0  0  0  0  0  0  0  0  0
    6.1840   -0.1890    0.2469 H   0  0  0  0  0  0  0  0  0  0  0  0
    2.4415    1.8685    0.5938 H   0  0  0  0  0  0  0  0  0  0  0  0
   -3.8011   -1.4957   -1.1689 H   0  0  0  0  0  0  0  0  0  0  0  0
   -3.8520    0.2663   -1.1347 H   0  0  0  0  0  0  0  0  0  0  0  0
   -4.0425   -0.6461    0.3597 H   0  0  0  0  0  0  0  0  0  0  0  0
   -2.1927   -1.7906    1.4703 H   0  0  0  0  0  0  0  0  0  0  0  0
   -0.6019   -1.9759    0.7442 H   0  0  0  0  0  0  0  0  0  0  0  0
   -1.9890   -2.7659    0.0085 H   0  0  0  0  0  0  0  0  0  0  0  0
  1  2  1  0
  2  3  1  0
  3  4  1  0
  4  5  1  0
  5  6  1  0
  6  7  2  0
  6  8  1  0
  8  9  1  0
  9 10  2  0
 10 11  1  0
 11 12  2  0
 12 13  1  0
 13 14  1  0
 13 15  2  0
  8 16  1  0
 16 17  2  0
  5 18  1  0
 18 19  1  0
 18 20  1  0
 16  2  1  0
 18  2  1  0
 15  9  1  0
  1 21  1  0
  1 22  1  0
  1 23  1  0
  3 24  1  0
  3 25  1  0
  4 26  1  0
  4 27  1  0
  5 28  1  0
 10 29  1  0
 11 30  1  0
 12 31  1  0
 15 32  1  0
 19 33  1  0
 19 34  1  0
 19 35  1  0
 20 36  1  0
 20 37  1  0
 20 38  1  0
M  END
$$$$
