
     RDKit          3D

 43 46  0  0  0  0  0  0  0  0999 V2000
   -1.4029    2.2114    0.8637 O   0  0  0  0  0  0  0  0  0  0  0  0
   -1.8239    1.1482    0.4176 C   0  0  0  0  0  0  0  0  0  0  0  0
   -1.0327    0.0874    0.0065 N   0  0  0  0  0  0  0  0  0  0  0  0
    0.3790    0.0155    0.0168 C   0  0  0  0  0  0  0  0  0  0  0  0
    1.2192    1.0364    0.4574 C   0  0  0  0  0  0  0  0  0  0  0  0
    2.6145    0.8817    0.4334 C   0  0  0  0  0  0  0  0  0  0  0  0
    3.1926   -0.2974   -0.0318 C   0  0  0  0  0  0  0  0  0  0  0  0
    4.5791   -0.5350   -0.0898 N   0  0  0  0  0  0  0  0  0  0  0  0
    5.6150    0.3063    0.2827 C   0  0  0  0  0  0  0  0  0  0  0  0
    5.4638    1.4355    0.7395 O   0  0  0  0  0  0  0  0  0  0  0  0
    6.9542   -0.2557    0.0909 C   0  0  0  0  0  0  0  0  0  0  0  0
    8.1567    0.3669    0.3788 C   0  0  0  0  0  0  0  0  0  0  0  0
    9.2865   -0.4468    0.0784 C   0  0  0  0  0  0  0  0  0  0  0  0
    8.9158   -1.6699   -0.4313 C   0  0  0  0  0  0  0  0  0  0  0  0
    7.2178   -1.8290   -0.5439 S   0  0  0  0  0  0  0  0  0  0  0  0
    2.3517   -1.3232   -0.4743 C   0  0  0  0  0  0  0  0  0  0  0  0
    0.9602   -1.1684   -0.4502 C   0  0  0  0  0  0  0  0  0  0  0  0
   -3.3157    0.9778    0.3061 C   0  0  0  0  0  0  0  0  0  0  0  0
   -4.1177    2.0514    0.7215 C   0  0  0  0  0  0  0  0  0  0  0  0
   -5.5116    1.9797    0.6530 C   0  0  0  0  0  0  0  0  0  0  0  0
   -6.1424    0.8289    0.1658 C   0  0  0  0  0  0  0  0  0  0  0  0
   -7.5416    0.7407    0.0904 C   0  0  0  0  0  0  0  0  0  0  0  0
   -8.1575   -0.4123   -0.3973 C   0  0  0  0  0  0  0  0  0  0  0  0
   -7.3827   -1.4897   -0.8150 C   0  0  0  0  0  0  0  0  0  0  0  0
   -5.9902   -1.4163   -0.7459 C   0  0  0  0  0  0  0  0  0  0  0  0
   -5.3522   -0.2632   -0.2575 C   0  0  0  0  0  0  0  0  0  0  0  0
   -3.9471   -0.1764   -0.1825 C   0  0  0  0  0  0  0  0  0  0  0  0
   -1.4879   -0.7386   -0.3438 H   0  0  0  0  0  0  0  0  0  0  0  0
    0.8293    1.9782    0.8310 H   0  0  0  0  0  0  0  0  0  0  0  0
    3.2138    1.7138    0.7900 H   0  0  0  0  0  0  0  0  0  0  0  0
    4.8680   -1.4359   -0.4495 H   0  0  0  0  0  0  0  0  0  0  0  0
    8.2133    1.3694    0.7897 H   0  0  0  0  0  0  0  0  0  0  0  0
   10.3171   -0.1483    0.2292 H   0  0  0  0  0  0  0  0  0  0  0  0
    9.5617   -2.4794   -0.7436 H   0  0  0  0  0  0  0  0  0  0  0  0
    2.7628   -2.2587   -0.8447 H   0  0  0  0  0  0  0  0  0  0  0  0
    0.3435   -1.9906   -0.8033 H   0  0  0  0  0  0  0  0  0  0  0  0
   -3.6595    2.9621    1.1059 H   0  0  0  0  0  0  0  0  0  0  0  0
   -6.0975    2.8343    0.9851 H   0  0  0  0  0  0  0  0  0  0  0  0
   -8.1638    1.5730    0.4124 H   0  0  0  0  0  0  0  0  0  0  0  0
   -9.2418   -0.4676   -0.4504 H   0  0  0  0  0  0  0  0  0  0  0  0
   -7.8617   -2.3884   -1.1952 H   0  0  0  0  0  0  0  0  0  0  0  0
   -5.4069   -2.2720   -1.0785 H   0  0  0  0  0  0  0  0  0  0  0  0
   -3.3783   -1.0356   -0.5169 H   0  0  0  0  0  0  0  0  0  0  0  0
  1  2  2  0
  2  3  1  0
  3  4  1  0
  4  5  2  0
  5  6  1  0
  6  7  2  0
  7  8  1  0
  8  9  1  0
  9 10  2  0
  9 11  1  0
 11 12  2  0
 12 13  1  0
 13 14  2  0
 14 15  1  0
  7 16  1  0
 16 17  2  0
  2 18  1  0
 18 19  2  0
 19 20  1  0
 20 21  2  0
 21 22  1  0
 22 23  2  0
 23 24  1  0
 24 25  2  0
 25 26  1  0
 26 27  2  0
 17  4  1  0
 27 18  1  0
 15 11  1  0
 26 21  1  0
  3 28  1  0
  5 29  1  0
  6 30  1  0
  8 31  1  0
 12 32  1  0
 13 33  1  0
 14 34  1  0
 16 35  1  0
 17 36  1  0
 19 37  1  0
 20 38  1  0
 22 39  1  0
 23 40  1  0
 24 41  1  0
 25 42  1  0
 27 43  1  0
M  END
$$$$
