
     RDKit          3D

 39 40  0  0  0  0  0  0  0  0999 V2000
    6.2770   -0.3831    0.4284 C   0  0  0  0  0  0  0  0  0  0  0  0
    4.8442   -0.3773    0.8747 C   0  0  0  0  0  0  0  0  0  0  0  0
    4.1727    0.8332    1.0817 C   0  0  0  0  0  0  0  0  0  0  0  0
    2.8294    0.8404    1.4660 C   0  0  0  0  0  0  0  0  0  0  0  0
    2.1362   -0.3643    1.6363 C   0  0  0  0  0  0  0  0  0  0  0  0
    0.7061   -0.2993    2.0396 C   0  0  0  0  0  0  0  0  0  0  0  0
    0.1256    0.7382    2.3116 O   0  0  0  0  0  0  0  0  0  0  0  0
    0.1470   -1.5361    2.0242 O   0  0  0  0  0  0  0  0  0  0  0  0
   -1.2265   -1.5711    2.4230 C   0  0  0  0  0  0  0  0  0  0  0  0
   -2.2108   -1.0933    1.3522 C   0  0  0  0  0  0  0  0  0  0  0  0
   -3.3457   -0.7128    1.6249 O   0  0  0  0  0  0  0  0  0  0  0  0
   -1.7368   -1.1900    0.0603 N   0  0  0  0  0  0  0  0  0  0  0  0
   -2.4889   -0.6743   -1.0677 C   0  0  0  0  0  0  0  0  0  0  0  0
   -2.4206    0.8540   -1.1736 C   0  0  0  0  0  0  0  0  0  0  0  0
   -2.9779    1.3384   -2.4240 N   0  0  0  0  0  0  0  0  0  0  0  0
   -4.2974    1.6765   -2.5900 C   0  0  0  0  0  0  0  0  0  0  0  0
   -5.1366    1.5965   -1.5222 O   0  0  0  0  0  0  0  0  0  0  0  0
   -4.6229    2.0528   -3.8319 C   0  0  0  0  0  0  0  0  0  0  0  0
   -3.2464    1.9834   -4.8913 S   0  0  0  0  0  0  0  0  0  0  0  0
   -2.2100    1.3987   -3.5749 C   0  0  0  0  0  0  0  0  0  0  0  0
   -1.0366    1.0967   -3.7168 O   0  0  0  0  0  0  0  0  0  0  0  0
    2.8022   -1.5770    1.4183 C   0  0  0  0  0  0  0  0  0  0  0  0
    4.1466   -1.5807    1.0343 C   0  0  0  0  0  0  0  0  0  0  0  0
    6.3283   -0.3613   -0.6645 H   0  0  0  0  0  0  0  0  0  0  0  0
    6.7948   -1.2778    0.7898 H   0  0  0  0  0  0  0  0  0  0  0  0
    6.8134    0.4849    0.8259 H   0  0  0  0  0  0  0  0  0  0  0  0
    4.6910    1.7804    0.9453 H   0  0  0  0  0  0  0  0  0  0  0  0
    2.3263    1.7923    1.6269 H   0  0  0  0  0  0  0  0  0  0  0  0
   -1.4719   -2.6138    2.6503 H   0  0  0  0  0  0  0  0  0  0  0  0
   -1.3739   -0.9876    3.3394 H   0  0  0  0  0  0  0  0  0  0  0  0
   -0.7546   -1.4020   -0.0695 H   0  0  0  0  0  0  0  0  0  0  0  0
   -3.5316   -0.9997   -0.9776 H   0  0  0  0  0  0  0  0  0  0  0  0
   -2.0711   -1.1438   -1.9649 H   0  0  0  0  0  0  0  0  0  0  0  0
   -1.3700    1.1684   -1.1269 H   0  0  0  0  0  0  0  0  0  0  0  0
   -2.9248    1.3344   -0.3272 H   0  0  0  0  0  0  0  0  0  0  0  0
   -6.0241    1.8805   -1.7977 H   0  0  0  0  0  0  0  0  0  0  0  0
   -5.6017    2.3558   -4.1729 H   0  0  0  0  0  0  0  0  0  0  0  0
    2.2925   -2.5289    1.5432 H   0  0  0  0  0  0  0  0  0  0  0  0
    4.6479   -2.5311    0.8616 H   0  0  0  0  0  0  0  0  0  0  0  0
  1  2  1  0
  2  3  2  0
  3  4  1  0
  4  5  2  0
  5  6  1  0
  6  7  2  0
  6  8  1  0
  8  9  1  0
  9 10  1  0
 10 11  2  0
 10 12  1  0
 12 13  1  0
 13 14  1  0
 14 15  1  0
 15 16  1  0
 16 17  1  0
 16 18  2  0
 18 19  1  0
 19 20  1  0
 20 21  2  0
  5 22  1  0
 22 23  2  0
 23  2  1  0
 20 15  1  0
  1 24  1  0
  1 25  1  0
  1 26  1  0
  3 27  1  0
  4 28  1  0
  9 29  1  0
  9 30  1  0
 12 31  1  0
 13 32  1  0
 13 33  1  0
 14 34  1  0
 14 35  1  0
 17 36  1  0
 18 37  1  0
 22 38  1  0
 23 39  1  0
M  END
$$$$
