
     RDKit          3D

 44 45  0  0  0  0  0  0  0  0999 V2000
   -7.8536   -1.0092    1.3035 C   0  0  0  0  0  0  0  0  0  0  0  0
   -7.5194    0.4545    1.5545 C   0  0  0  0  0  0  0  0  0  0  0  0
   -6.2656    0.8993    0.8084 C   0  0  0  0  0  0  0  0  0  0  0  0
   -5.1417    0.1586    1.3016 O   0  0  0  0  0  0  0  0  0  0  0  0
   -3.9653    0.4628    0.6969 C   0  0  0  0  0  0  0  0  0  0  0  0
   -3.8163    1.2886   -0.1885 O   0  0  0  0  0  0  0  0  0  0  0  0
   -2.8597   -0.3578    1.2666 C   0  0  0  0  0  0  0  0  0  0  0  0
   -3.0835   -1.3125    2.2672 C   0  0  0  0  0  0  0  0  0  0  0  0
   -2.0191   -2.0579    2.7693 C   0  0  0  0  0  0  0  0  0  0  0  0
   -0.7300   -1.8526    2.2746 C   0  0  0  0  0  0  0  0  0  0  0  0
   -0.4866   -0.9020    1.2735 C   0  0  0  0  0  0  0  0  0  0  0  0
    0.8495   -0.7665    0.8376 N   0  0  0  0  0  0  0  0  0  0  0  0
    1.3419    0.1008   -0.1328 C   0  0  0  0  0  0  0  0  0  0  0  0
    0.6808    0.9054   -0.7791 O   0  0  0  0  0  0  0  0  0  0  0  0
    2.8583   -0.0593   -0.3183 C   0  0  0  0  0  0  0  0  0  0  0  0
    3.3583    0.8261   -1.3086 O   0  0  0  0  0  0  0  0  0  0  0  0
    4.6969    0.7891   -1.5757 C   0  0  0  0  0  0  0  0  0  0  0  0
    5.6359   -0.0439   -0.9636 C   0  0  0  0  0  0  0  0  0  0  0  0
    6.9842    0.0229   -1.3358 C   0  0  0  0  0  0  0  0  0  0  0  0
    7.3895    0.9288   -2.3252 C   0  0  0  0  0  0  0  0  0  0  0  0
    8.8034    0.9980   -2.7146 N   0  0  0  0  0  4  0  0  0  0  0  0
    9.5958    0.2372   -2.1402 O   0  0  0  0  0  0  0  0  0  0  0  0
    9.1218    1.8114   -3.5933 O   0  0  0  0  0  1  0  0  0  0  0  0
    6.4558    1.7664   -2.9431 C   0  0  0  0  0  0  0  0  0  0  0  0
    5.1137    1.6897   -2.5625 C   0  0  0  0  0  0  0  0  0  0  0  0
   -1.5585   -0.1578    0.7738 C   0  0  0  0  0  0  0  0  0  0  0  0
   -7.0539   -1.6673    1.6578 H   0  0  0  0  0  0  0  0  0  0  0  0
   -8.0071   -1.1981    0.2363 H   0  0  0  0  0  0  0  0  0  0  0  0
   -8.7725   -1.2821    1.8321 H   0  0  0  0  0  0  0  0  0  0  0  0
   -8.3663    1.0767    1.2450 H   0  0  0  0  0  0  0  0  0  0  0  0
   -7.3753    0.5973    2.6318 H   0  0  0  0  0  0  0  0  0  0  0  0
   -6.0996    1.9682    0.9860 H   0  0  0  0  0  0  0  0  0  0  0  0
   -6.3837    0.7238   -0.2674 H   0  0  0  0  0  0  0  0  0  0  0  0
   -4.0810   -1.4861    2.6637 H   0  0  0  0  0  0  0  0  0  0  0  0
   -2.1938   -2.7987    3.5459 H   0  0  0  0  0  0  0  0  0  0  0  0
    0.0800   -2.4497    2.6865 H   0  0  0  0  0  0  0  0  0  0  0  0
    1.5208   -1.3741    1.2897 H   0  0  0  0  0  0  0  0  0  0  0  0
    3.0431   -1.0984   -0.6170 H   0  0  0  0  0  0  0  0  0  0  0  0
    3.3301    0.1548    0.6485 H   0  0  0  0  0  0  0  0  0  0  0  0
    5.3566   -0.7563   -0.1944 H   0  0  0  0  0  0  0  0  0  0  0  0
    7.7010   -0.6345   -0.8472 H   0  0  0  0  0  0  0  0  0  0  0  0
    6.7486    2.4767   -3.7133 H   0  0  0  0  0  0  0  0  0  0  0  0
    4.3805    2.3388   -3.0392 H   0  0  0  0  0  0  0  0  0  0  0  0
   -1.4141    0.5887   -0.0029 H   0  0  0  0  0  0  0  0  0  0  0  0
  1  2  1  0
  2  3  1  0
  3  4  1  0
  4  5  1  0
  5  6  2  0
  5  7  1  0
  7  8  2  0
  8  9  1  0
  9 10  2  0
 10 11  1  0
 11 12  1  0
 12 13  1  0
 13 14  2  0
 13 15  1  0
 15 16  1  0
 16 17  1  0
 17 18  2  0
 18 19  1  0
 19 20  2  0
 20 21  1  0
 21 22  2  0
 21 23  1  0
 20 24  1  0
 24 25  2  0
 11 26  2  0
 26  7  1  0
 25 17  1  0
  1 27  1  0
  1 28  1  0
  1 29  1  0
  2 30  1  0
  2 31  1  0
  3 32  1  0
  3 33  1  0
  8 34  1  0
  9 35  1  0
 10 36  1  0
 12 37  1  0
 15 38  1  0
 15 39  1  0
 18 40  1  0
 19 41  1  0
 24 42  1  0
 25 43  1  0
 26 44  1  0
M  CHG  2  21   1  23  -1
M  END
$$$$
