
     RDKit          3D

 70 76  0  0  0  0  0  0  0  0999 V2000
   -5.2879   -4.6237    0.9807 C   0  0  0  0  0  0  0  0  0  0  0  0
   -4.1540   -3.7318    1.3899 C   0  0  0  0  0  0  0  0  0  0  0  0
   -3.6373   -3.7490    2.7001 C   0  0  0  0  0  0  0  0  0  0  0  0
   -4.2950   -4.7977    3.9094 Cl  0  0  0  0  0  0  0  0  0  0  0  0
   -2.5628   -2.9209    3.0825 C   0  0  0  0  0  0  0  0  0  0  0  0
   -1.9673   -2.0529    2.1676 C   0  0  0  0  0  0  0  0  0  0  0  0
   -2.4664   -2.0290    0.8761 C   0  0  0  0  0  0  0  0  0  0  0  0
   -3.5323   -2.8624    0.5021 C   0  0  0  0  0  0  0  0  0  0  0  0
   -3.8245   -2.6684   -0.8477 N   0  0  0  0  0  0  0  0  0  0  0  0
   -2.9770   -1.7260   -1.4356 C   0  0  0  0  0  0  0  0  0  0  0  0
   -3.0009   -1.4052   -2.6139 O   0  0  0  0  0  0  0  0  0  0  0  0
   -2.0360   -1.2224   -0.3132 C   0  0  1  0  0  0  0  0  0  0  0  0
   -2.1985    0.2271   -0.0157 C   0  0  0  0  0  0  0  0  0  0  0  0
   -1.1255    0.9470   -0.5661 C   0  0  0  0  0  0  0  0  0  0  0  0
   -1.3008    2.2779   -0.3005 C   0  0  0  0  0  0  0  0  0  0  0  0
   -0.5286    3.3143   -0.6158 O   0  0  0  0  0  0  0  0  0  0  0  0
   -2.4895    2.4056    0.4589 N   0  0  0  0  0  0  0  0  0  0  0  0
   -3.0411    3.6290    0.9811 C   0  0  0  0  0  0  0  0  0  0  0  0
   -3.8889    3.6143    2.0991 C   0  0  0  0  0  0  0  0  0  0  0  0
   -4.4249    4.8018    2.6090 C   0  0  0  0  0  0  0  0  0  0  0  0
   -4.1240    6.0201    2.0083 C   0  0  0  0  0  0  0  0  0  0  0  0
   -3.2840    6.0519    0.8999 C   0  0  0  0  0  0  0  0  0  0  0  0
   -2.7447    4.8657    0.3893 C   0  0  0  0  0  0  0  0  0  0  0  0
   -3.0413    1.1103    0.6086 C   0  0  0  0  0  0  0  0  0  0  0  0
   -4.2023    0.8864    1.2205 O   0  0  0  0  0  0  0  0  0  0  0  0
   -0.2100    0.0222   -1.2718 C   0  0  1  0  0  0  0  0  0  0  0  0
    1.2984    0.2094   -1.1217 C   0  0  0  0  0  0  0  0  0  0  0  0
    2.0397   -0.9406   -1.6888 N   0  0  0  0  0  0  0  0  0  0  0  0
    3.3880   -0.8799   -2.0443 C   0  0  0  0  0  0  0  0  0  0  0  0
    4.0289   -1.8969   -2.3118 O   0  0  0  0  0  0  0  0  0  0  0  0
    4.0079    0.5074   -2.1513 C   0  0  0  0  0  0  0  0  0  0  0  0
    5.5220    0.4851   -2.3734 C   0  0  0  0  0  0  0  0  0  0  0  0
    6.2925    0.3173   -1.0838 C   0  0  0  0  0  0  0  0  0  0  0  0
    6.6792   -0.9550   -0.6443 C   0  0  0  0  0  0  0  0  0  0  0  0
    7.3733   -1.1093    0.5569 C   0  0  0  0  0  0  0  0  0  0  0  0
    7.6878    0.0063    1.3306 C   0  0  0  0  0  0  0  0  0  0  0  0
    7.3067    1.2773    0.9043 C   0  0  0  0  0  0  0  0  0  0  0  0
    6.6106    1.4327   -0.2958 C   0  0  0  0  0  0  0  0  0  0  0  0
    1.5046   -2.2818   -1.3696 C   0  0  0  0  0  0  0  0  0  0  0  0
   -0.0409   -2.3854   -1.3812 C   0  0  0  0  0  0  0  0  0  0  0  0
   -0.5940   -1.2713   -0.6299 N   0  0  0  0  0  0  0  0  0  0  0  0
   -5.6507   -4.4020   -0.0271 H   0  0  0  0  0  0  0  0  0  0  0  0
   -6.1416   -4.4936    1.6543 H   0  0  0  0  0  0  0  0  0  0  0  0
   -4.9685   -5.6710    0.9951 H   0  0  0  0  0  0  0  0  0  0  0  0
   -2.1845   -2.9572    4.1026 H   0  0  0  0  0  0  0  0  0  0  0  0
   -1.1357   -1.4172    2.4593 H   0  0  0  0  0  0  0  0  0  0  0  0
   -4.5296   -3.1541   -1.3824 H   0  0  0  0  0  0  0  0  0  0  0  0
    0.1927    3.0012   -1.1852 H   0  0  0  0  0  0  0  0  0  0  0  0
   -4.1260    2.6943    2.6241 H   0  0  0  0  0  0  0  0  0  0  0  0
   -5.0754    4.7695    3.4789 H   0  0  0  0  0  0  0  0  0  0  0  0
   -4.5422    6.9418    2.4036 H   0  0  0  0  0  0  0  0  0  0  0  0
   -3.0500    7.0000    0.4224 H   0  0  0  0  0  0  0  0  0  0  0  0
   -2.1242    4.9417   -0.4973 H   0  0  0  0  0  0  0  0  0  0  0  0
   -4.3721   -0.0714    1.2201 H   0  0  0  0  0  0  0  0  0  0  0  0
   -0.4781    0.0118   -2.3383 H   0  0  0  0  0  0  0  0  0  0  0  0
    1.5987    1.1318   -1.6275 H   0  0  0  0  0  0  0  0  0  0  0  0
    1.5934    0.3010   -0.0687 H   0  0  0  0  0  0  0  0  0  0  0  0
    3.7753    1.0899   -1.2538 H   0  0  0  0  0  0  0  0  0  0  0  0
    3.5377    0.9927   -3.0153 H   0  0  0  0  0  0  0  0  0  0  0  0
    5.8269    1.4362   -2.8298 H   0  0  0  0  0  0  0  0  0  0  0  0
    5.8158   -0.2916   -3.0901 H   0  0  0  0  0  0  0  0  0  0  0  0
    6.4374   -1.8367   -1.2358 H   0  0  0  0  0  0  0  0  0  0  0  0
    7.6671   -2.1023    0.8869 H   0  0  0  0  0  0  0  0  0  0  0  0
    8.2297   -0.1159    2.2645 H   0  0  0  0  0  0  0  0  0  0  0  0
    7.5527    2.1484    1.5063 H   0  0  0  0  0  0  0  0  0  0  0  0
    6.3203    2.4315   -0.6135 H   0  0  0  0  0  0  0  0  0  0  0  0
    1.9179   -3.0196   -2.0663 H   0  0  0  0  0  0  0  0  0  0  0  0
    1.8797   -2.5329   -0.3686 H   0  0  0  0  0  0  0  0  0  0  0  0
   -0.3969   -2.3830   -2.4184 H   0  0  0  0  0  0  0  0  0  0  0  0
   -0.3294   -3.3426   -0.9327 H   0  0  0  0  0  0  0  0  0  0  0  0
  1  2  1  0
  2  3  2  0
  3  4  1  0
  3  5  1  0
  5  6  2  0
  6  7  1  0
  7  8  2  0
  8  9  1  0
  9 10  1  0
 10 11  2  0
 10 12  1  0
 12 13  1  0
 13 14  1  0
 14 15  2  0
 15 16  1  0
 15 17  1  0
 17 18  1  0
 18 19  2  0
 19 20  1  0
 20 21  2  0
 21 22  1  0
 22 23  2  0
 17 24  1  0
 24 25  1  0
 14 26  1  0
 26 27  1  0
 27 28  1  0
 28 29  1  0
 29 30  2  0
 29 31  1  0
 31 32  1  0
 32 33  1  0
 33 34  2  0
 34 35  1  0
 35 36  2  0
 36 37  1  0
 37 38  2  0
 28 39  1  0
 39 40  1  0
 40 41  1  0
  8  2  1  0
 12 41  1  6
 12  7  1  0
 24 13  2  0
 41 26  1  0
 23 18  1  0
 38 33  1  0
  1 42  1  0
  1 43  1  0
  1 44  1  0
  5 45  1  0
  6 46  1  0
  9 47  1  0
 16 48  1  0
 19 49  1  0
 20 50  1  0
 21 51  1  0
 22 52  1  0
 23 53  1  0
 25 54  1  0
 26 55  1  6
 27 56  1  0
 27 57  1  0
 31 58  1  0
 31 59  1  0
 32 60  1  0
 32 61  1  0
 34 62  1  0
 35 63  1  0
 36 64  1  0
 37 65  1  0
 38 66  1  0
 39 67  1  0
 39 68  1  0
 40 69  1  0
 40 70  1  0
M  END
$$$$
