
     RDKit          3D

 79 84  0  0  0  0  0  0  0  0999 V2000
    0.2704   -3.3117   -3.9382 C   0  0  0  0  0  0  0  0  0  0  0  0
    0.6873   -3.9234   -2.8160 C   0  0  0  0  0  0  0  0  0  0  0  0
    1.1415   -5.3559   -2.8213 C   0  0  0  0  0  0  0  0  0  0  0  0
    0.6882   -3.2082   -1.4783 C   0  0  0  0  0  0  0  0  0  0  0  0
    2.0954   -2.9031   -0.9274 C   0  0  1  0  0  0  0  0  0  0  0  0
    2.7604   -1.9623   -1.7802 O   0  0  0  0  0  0  0  0  0  0  0  0
    2.0274   -2.3252    0.4969 C   0  0  0  0  0  0  0  0  0  0  0  0
    1.2817   -1.1005    0.4519 O   0  0  0  0  0  0  0  0  0  0  0  0
    0.5120   -0.8176    1.5472 C   0  0  0  0  0  0  0  0  0  0  0  0
   -0.4412   -1.7460    1.9883 C   0  0  0  0  0  0  0  0  0  0  0  0
   -1.2373   -1.3967    3.0530 C   0  0  0  0  0  0  0  0  0  0  0  0
   -1.1176   -0.1791    3.6693 C   0  0  0  0  0  0  0  0  0  0  0  0
   -0.2138    0.7699    3.2403 C   0  0  0  0  0  0  0  0  0  0  0  0
    0.6089    0.4828    2.1270 C   0  0  0  0  0  0  0  0  0  0  0  0
    1.6290    1.5307    1.5910 C   0  0  0  0  0  0  0  0  0  0  0  0
    1.7092    1.6481    0.0354 C   0  0  0  0  0  0  0  0  0  0  0  0
    2.9691    1.6836   -0.6093 C   0  0  0  0  0  0  0  0  0  0  0  0
    3.0142    1.7265   -1.9856 C   0  0  0  0  0  0  0  0  0  0  0  0
    1.8727    1.7481   -2.7422 C   0  0  0  0  0  0  0  0  0  0  0  0
    0.6182    1.7574   -2.1702 C   0  0  0  0  0  0  0  0  0  0  0  0
    0.5261    1.7273   -0.7720 C   0  0  0  0  0  0  0  0  0  0  0  0
   -0.6566    1.7665   -0.0861 O   0  0  0  0  0  0  0  0  0  0  0  0
   -1.9160    1.8059   -0.7645 C   0  0  0  0  0  0  0  0  0  0  0  0
   -2.4890    0.3893   -0.9443 C   0  0  2  0  0  0  0  0  0  0  0  0
   -1.8719   -0.2275   -2.0811 O   0  0  0  0  0  0  0  0  0  0  0  0
   -4.0121    0.4522   -1.1713 C   0  0  0  0  0  0  0  0  0  0  0  0
   -4.7879   -0.8566   -1.1324 C   0  0  0  0  0  0  0  0  0  0  0  0
   -4.3246   -2.0308   -0.6714 C   0  0  0  0  0  0  0  0  0  0  0  0
   -6.1972   -0.7533   -1.6591 C   0  0  0  0  0  0  0  0  0  0  0  0
    2.1381    1.7624   -4.0774 O   0  0  0  0  0  0  0  0  0  0  0  0
    3.5770    1.6596   -4.0682 C   0  0  0  0  0  0  0  0  0  0  0  0
    4.1421    1.7328   -2.7450 O   0  0  0  0  0  0  0  0  0  0  0  0
    3.0306    1.1254    2.2390 C   0  0  0  0  0  0  0  0  0  0  0  0
    3.6529    0.0782    2.1245 O   0  0  0  0  0  0  0  0  0  0  0  0
    3.4874    2.1938    3.0038 N   0  0  0  0  0  0  0  0  0  0  0  0
    2.6046    3.2548    2.9757 C   0  0  0  0  0  0  0  0  0  0  0  0
    2.7575    4.4635    3.6247 C   0  0  0  0  0  0  0  0  0  0  0  0
    1.7407    5.3978    3.4635 C   0  0  0  0  0  0  0  0  0  0  0  0
    1.8409    6.5874    4.0737 F   0  0  0  0  0  0  0  0  0  0  0  0
    0.6138    5.1278    2.6775 C   0  0  0  0  0  0  0  0  0  0  0  0
    0.4848    3.8954    2.0282 C   0  0  0  0  0  0  0  0  0  0  0  0
    1.4935    2.9505    2.1849 C   0  0  0  0  0  0  0  0  0  0  0  0
   -1.9883   -0.0355    4.7036 O   0  0  0  0  0  0  0  0  0  0  0  0
   -2.6820   -1.2971    4.6552 C   0  0  0  0  0  0  0  0  0  0  0  0
   -2.2096   -2.1678    3.6069 O   0  0  0  0  0  0  0  0  0  0  0  0
   -0.0585   -2.2756   -3.9316 H   0  0  0  0  0  0  0  0  0  0  0  0
    0.2631   -3.8213   -4.8986 H   0  0  0  0  0  0  0  0  0  0  0  0
    0.5585   -5.9446   -2.1032 H   0  0  0  0  0  0  0  0  0  0  0  0
    1.0100   -5.8240   -3.8047 H   0  0  0  0  0  0  0  0  0  0  0  0
    2.2010   -5.4265   -2.5523 H   0  0  0  0  0  0  0  0  0  0  0  0
    0.1176   -2.2726   -1.5719 H   0  0  0  0  0  0  0  0  0  0  0  0
    0.1428   -3.8340   -0.7591 H   0  0  0  0  0  0  0  0  0  0  0  0
    2.7067   -3.8134   -0.9064 H   0  0  0  0  0  0  0  0  0  0  0  0
    2.2915   -1.1112   -1.6628 H   0  0  0  0  0  0  0  0  0  0  0  0
    3.0361   -2.0842    0.8409 H   0  0  0  0  0  0  0  0  0  0  0  0
    1.6060   -3.0687    1.1772 H   0  0  0  0  0  0  0  0  0  0  0  0
   -0.5787   -2.7019    1.4980 H   0  0  0  0  0  0  0  0  0  0  0  0
   -0.1720    1.7142    3.7682 H   0  0  0  0  0  0  0  0  0  0  0  0
    3.9071    1.6514   -0.0659 H   0  0  0  0  0  0  0  0  0  0  0  0
   -0.2439    1.7665   -2.8240 H   0  0  0  0  0  0  0  0  0  0  0  0
   -2.5717    2.3668   -0.0881 H   0  0  0  0  0  0  0  0  0  0  0  0
   -1.8786    2.3775   -1.6978 H   0  0  0  0  0  0  0  0  0  0  0  0
   -2.2390   -0.2065   -0.0628 H   0  0  0  0  0  0  0  0  0  0  0  0
   -2.3095   -1.0861   -2.2186 H   0  0  0  0  0  0  0  0  0  0  0  0
   -4.1862    0.9127   -2.1540 H   0  0  0  0  0  0  0  0  0  0  0  0
   -4.4640    1.1119   -0.4193 H   0  0  0  0  0  0  0  0  0  0  0  0
   -3.3265   -2.1579   -0.2630 H   0  0  0  0  0  0  0  0  0  0  0  0
   -4.9506   -2.9219   -0.6732 H   0  0  0  0  0  0  0  0  0  0  0  0
   -6.7510    0.0215   -1.1225 H   0  0  0  0  0  0  0  0  0  0  0  0
   -6.7497   -1.6932   -1.5593 H   0  0  0  0  0  0  0  0  0  0  0  0
   -6.1818   -0.5022   -2.7222 H   0  0  0  0  0  0  0  0  0  0  0  0
    3.8636    0.7048   -4.5244 H   0  0  0  0  0  0  0  0  0  0  0  0
    3.9920    2.4735   -4.6698 H   0  0  0  0  0  0  0  0  0  0  0  0
    4.3631    2.1648    3.5048 H   0  0  0  0  0  0  0  0  0  0  0  0
    3.6210    4.6907    4.2376 H   0  0  0  0  0  0  0  0  0  0  0  0
   -0.1565    5.8866    2.5752 H   0  0  0  0  0  0  0  0  0  0  0  0
   -0.3901    3.6941    1.4199 H   0  0  0  0  0  0  0  0  0  0  0  0
   -2.5517   -1.8072    5.6170 H   0  0  0  0  0  0  0  0  0  0  0  0
   -3.7506   -1.1035    4.4964 H   0  0  0  0  0  0  0  0  0  0  0  0
  1  2  2  0
  2  3  1  0
  2  4  1  0
  4  5  1  0
  5  6  1  0
  5  7  1  0
  7  8  1  0
  8  9  1  0
  9 10  2  0
 10 11  1  0
 11 12  2  0
 12 13  1  0
 13 14  2  0
 14 15  1  0
 15 16  1  0
 16 17  2  0
 17 18  1  0
 18 19  2  0
 19 20  1  0
 20 21  2  0
 21 22  1  0
 22 23  1  0
 23 24  1  0
 24 25  1  0
 24 26  1  0
 26 27  1  0
 27 28  2  0
 27 29  1  0
 19 30  1  0
 30 31  1  0
 31 32  1  0
 15 33  1  0
 33 34  2  0
 33 35  1  0
 35 36  1  0
 36 37  2  0
 37 38  1  0
 38 39  1  0
 38 40  2  0
 40 41  1  0
 41 42  2  0
 12 43  1  0
 43 44  1  0
 44 45  1  0
 14  9  1  0
 42 15  1  0
 45 11  1  0
 21 16  1  0
 42 36  1  0
 32 18  1  0
  1 46  1  0
  1 47  1  0
  3 48  1  0
  3 49  1  0
  3 50  1  0
  4 51  1  0
  4 52  1  0
  5 53  1  1
  6 54  1  0
  7 55  1  0
  7 56  1  0
 10 57  1  0
 13 58  1  0
 17 59  1  0
 20 60  1  0
 23 61  1  0
 23 62  1  0
 24 63  1  1
 25 64  1  0
 26 65  1  0
 26 66  1  0
 28 67  1  0
 28 68  1  0
 29 69  1  0
 29 70  1  0
 29 71  1  0
 31 72  1  0
 31 73  1  0
 35 74  1  0
 37 75  1  0
 40 76  1  0
 41 77  1  0
 44 78  1  0
 44 79  1  0
M  END
$$$$
