
     RDKit          3D

 40 42  0  0  0  0  0  0  0  0999 V2000
   -2.5683    4.0386    3.9488 C   0  0  0  0  0  0  0  0  0  0  0  0
   -1.7992    3.3887    2.9437 O   0  0  0  0  0  0  0  0  0  0  0  0
   -2.0117    2.0464    2.7728 C   0  0  0  0  0  0  0  0  0  0  0  0
   -2.9045    1.2611    3.4964 C   0  0  0  0  0  0  0  0  0  0  0  0
   -3.0393   -0.1086    3.2342 C   0  0  0  0  0  0  0  0  0  0  0  0
   -2.2497   -0.6736    2.2212 C   0  0  0  0  0  0  0  0  0  0  0  0
   -1.3435    0.0863    1.4766 C   0  0  0  0  0  0  0  0  0  0  0  0
   -1.2317    1.4646    1.7648 C   0  0  0  0  0  0  0  0  0  0  0  0
   -0.7146   -0.7965    0.5425 C   0  0  0  0  0  0  0  0  0  0  0  0
    0.2863   -0.4383   -0.4151 C   0  0  0  0  0  0  0  0  0  0  0  0
    0.8422   -1.2564   -1.3254 C   0  0  0  0  0  0  0  0  0  0  0  0
    1.8638   -0.8223   -2.2841 C   0  0  0  0  0  0  0  0  0  0  0  0
    1.7885   -1.2588   -3.6051 C   0  0  0  0  0  0  0  0  0  0  0  0
    2.7620   -0.8670   -4.5173 C   0  0  0  0  0  0  0  0  0  0  0  0
    3.7859   -0.0728   -4.1330 N   0  0  0  0  0  4  0  0  0  0  0  0
    4.8104    0.3225   -5.1144 C   0  0  0  0  0  0  0  0  0  0  0  0
    3.8942    0.3417   -2.8511 C   0  0  0  0  0  0  0  0  0  0  0  0
    2.9424   -0.0236   -1.9061 C   0  0  0  0  0  0  0  0  0  0  0  0
   -1.2469   -2.0526    0.7409 C   0  0  0  0  0  0  0  0  0  0  0  0
   -2.1699   -1.9674    1.7521 N   0  0  0  0  0  0  0  0  0  0  0  0
   -2.9470   -3.0792    2.2552 C   0  0  0  0  0  0  0  0  0  0  0  0
   -2.2845    5.0954    3.9551 H   0  0  0  0  0  0  0  0  0  0  0  0
   -2.3486    3.6290    4.9402 H   0  0  0  0  0  0  0  0  0  0  0  0
   -3.6387    3.9827    3.7246 H   0  0  0  0  0  0  0  0  0  0  0  0
   -3.5224    1.6822    4.2836 H   0  0  0  0  0  0  0  0  0  0  0  0
   -3.7404   -0.7077    3.8073 H   0  0  0  0  0  0  0  0  0  0  0  0
   -0.5403    2.0879    1.2066 H   0  0  0  0  0  0  0  0  0  0  0  0
    0.5983    0.6036   -0.3897 H   0  0  0  0  0  0  0  0  0  0  0  0
    0.5273   -2.2946   -1.3990 H   0  0  0  0  0  0  0  0  0  0  0  0
    0.9687   -1.8953   -3.9342 H   0  0  0  0  0  0  0  0  0  0  0  0
    2.7307   -1.1853   -5.5556 H   0  0  0  0  0  0  0  0  0  0  0  0
    5.6003   -0.4322   -5.0847 H   0  0  0  0  0  0  0  0  0  0  0  0
    4.3561    0.3724   -6.1074 H   0  0  0  0  0  0  0  0  0  0  0  0
    5.2015    1.3074   -4.8461 H   0  0  0  0  0  0  0  0  0  0  0  0
    4.7480    0.9607   -2.5898 H   0  0  0  0  0  0  0  0  0  0  0  0
    3.0563    0.3105   -0.8763 H   0  0  0  0  0  0  0  0  0  0  0  0
   -1.0520   -3.0001    0.2571 H   0  0  0  0  0  0  0  0  0  0  0  0
   -2.6869   -3.9870    1.7048 H   0  0  0  0  0  0  0  0  0  0  0  0
   -4.0067   -2.8520    2.1137 H   0  0  0  0  0  0  0  0  0  0  0  0
   -2.7159   -3.2105    3.3153 H   0  0  0  0  0  0  0  0  0  0  0  0
  1  2  1  0
  2  3  1  0
  3  4  2  0
  4  5  1  0
  5  6  2  0
  6  7  1  0
  7  8  2  0
  7  9  1  0
  9 10  1  0
 10 11  2  3
 11 12  1  0
 12 13  2  0
 13 14  1  0
 14 15  2  0
 15 16  1  0
 15 17  1  0
 17 18  2  0
  9 19  2  0
 19 20  1  0
 20 21  1  0
  8  3  1  0
 18 12  1  0
 20  6  1  0
  1 22  1  0
  1 23  1  0
  1 24  1  0
  4 25  1  0
  5 26  1  0
  8 27  1  0
 10 28  1  0
 11 29  1  0
 13 30  1  0
 14 31  1  0
 16 32  1  0
 16 33  1  0
 16 34  1  0
 17 35  1  0
 18 36  1  0
 19 37  1  0
 21 38  1  0
 21 39  1  0
 21 40  1  0
M  CHG  1  15   1
M  END
$$$$
