
     RDKit          3D

 54 57  0  0  0  0  0  0  0  0999 V2000
    6.2160    0.8969    3.8284 C   0  0  0  0  0  0  0  0  0  0  0  0
    5.1123    0.0581    3.2055 C   0  0  0  0  0  0  0  0  0  0  0  0
    4.2289    0.8663    2.2677 C   0  0  0  0  0  0  0  0  0  0  0  0
    4.3596    2.0841    2.1477 O   0  0  0  0  0  0  0  0  0  0  0  0
    3.2658    0.1617    1.5598 N   0  0  0  0  0  0  0  0  0  0  0  0
    2.4368    0.8870    0.5889 C   0  0  0  0  0  0  0  0  0  0  0  0
    1.9602   -0.0182   -0.5576 C   0  0  0  0  0  0  0  0  0  0  0  0
    1.1627   -1.1605   -0.0382 N   0  0  0  0  0  0  0  0  0  0  0  0
    0.9567   -2.1366   -1.0477 C   0  0  0  0  0  0  0  0  0  0  0  0
    1.9316   -3.0852   -1.3872 C   0  0  0  0  0  0  0  0  0  0  0  0
    1.6955   -4.0062   -2.4095 C   0  0  0  0  0  0  0  0  0  0  0  0
    0.4849   -3.9831   -3.0996 C   0  0  0  0  0  0  0  0  0  0  0  0
    0.2088   -5.1266   -4.3572 Cl  0  0  0  0  0  0  0  0  0  0  0  0
   -0.4996   -3.0486   -2.7835 C   0  0  0  0  0  0  0  0  0  0  0  0
   -0.2688   -2.1257   -1.7631 C   0  0  0  0  0  0  0  0  0  0  0  0
   -1.2051   -1.1535   -1.3510 N   0  0  0  0  0  0  0  0  0  0  0  0
   -2.4292   -0.8551   -1.9056 C   0  0  0  0  0  0  0  0  0  0  0  0
   -2.9155   -1.3544   -2.9127 O   0  0  0  0  0  0  0  0  0  0  0  0
   -3.1865    0.2194   -1.2035 C   0  0  0  0  0  0  0  0  0  0  0  0
   -3.1371    0.3652    0.1911 C   0  0  0  0  0  0  0  0  0  0  0  0
   -3.8516    1.3931    0.8117 C   0  0  0  0  0  0  0  0  0  0  0  0
   -4.6161    2.2698    0.0435 C   0  0  0  0  0  0  0  0  0  0  0  0
   -4.7011    2.0988   -1.3425 C   0  0  0  0  0  0  0  0  0  0  0  0
   -3.9822    1.0821   -1.9676 C   0  0  0  0  0  0  0  0  0  0  0  0
   -5.4642    2.9018   -2.1512 O   0  0  0  0  0  0  0  0  0  0  0  0
   -6.4051    3.6669   -1.3901 C   0  0  0  0  0  0  0  0  0  0  0  0
   -5.7326    4.2871   -0.1768 C   0  0  0  0  0  0  0  0  0  0  0  0
   -5.2669    3.2701    0.7185 O   0  0  0  0  0  0  0  0  0  0  0  0
    1.6011   -1.6953    1.2743 C   0  0  0  0  0  0  0  0  0  0  0  0
    3.0363   -1.2863    1.6552 C   0  0  0  0  0  0  0  0  0  0  0  0
    5.7986    1.7185    4.4198 H   0  0  0  0  0  0  0  0  0  0  0  0
    6.8623    1.3308    3.0583 H   0  0  0  0  0  0  0  0  0  0  0  0
    6.8352    0.2817    4.4888 H   0  0  0  0  0  0  0  0  0  0  0  0
    5.5652   -0.7676    2.6462 H   0  0  0  0  0  0  0  0  0  0  0  0
    4.4884   -0.3520    4.0065 H   0  0  0  0  0  0  0  0  0  0  0  0
    2.9931    1.7377    0.1809 H   0  0  0  0  0  0  0  0  0  0  0  0
    1.5764    1.2837    1.1417 H   0  0  0  0  0  0  0  0  0  0  0  0
    1.3474    0.5699   -1.2506 H   0  0  0  0  0  0  0  0  0  0  0  0
    2.8399   -0.3776   -1.1079 H   0  0  0  0  0  0  0  0  0  0  0  0
    2.8879   -3.1077   -0.8749 H   0  0  0  0  0  0  0  0  0  0  0  0
    2.4597   -4.7347   -2.6669 H   0  0  0  0  0  0  0  0  0  0  0  0
   -1.4335   -3.0602   -3.3351 H   0  0  0  0  0  0  0  0  0  0  0  0
   -0.8544   -0.5928   -0.5799 H   0  0  0  0  0  0  0  0  0  0  0  0
   -2.5664   -0.3239    0.8082 H   0  0  0  0  0  0  0  0  0  0  0  0
   -3.8097    1.5141    1.8906 H   0  0  0  0  0  0  0  0  0  0  0  0
   -4.0454    0.9594   -3.0467 H   0  0  0  0  0  0  0  0  0  0  0  0
   -6.8030    4.4492   -2.0441 H   0  0  0  0  0  0  0  0  0  0  0  0
   -7.2340    3.0105   -1.0979 H   0  0  0  0  0  0  0  0  0  0  0  0
   -6.4432    4.9123    0.3726 H   0  0  0  0  0  0  0  0  0  0  0  0
   -4.8793    4.9128   -0.4667 H   0  0  0  0  0  0  0  0  0  0  0  0
    0.9157   -1.2810    2.0246 H   0  0  0  0  0  0  0  0  0  0  0  0
    1.4931   -2.7853    1.3357 H   0  0  0  0  0  0  0  0  0  0  0  0
    3.2533   -1.6358    2.6683 H   0  0  0  0  0  0  0  0  0  0  0  0
    3.7576   -1.7612    0.9804 H   0  0  0  0  0  0  0  0  0  0  0  0
  1  2  1  0
  2  3  1  0
  3  4  2  0
  3  5  1  0
  5  6  1  0
  6  7  1  0
  7  8  1  0
  8  9  1  0
  9 10  2  0
 10 11  1  0
 11 12  2  0
 12 13  1  0
 12 14  1  0
 14 15  2  0
 15 16  1  0
 16 17  1  0
 17 18  2  0
 17 19  1  0
 19 20  2  0
 20 21  1  0
 21 22  2  0
 22 23  1  0
 23 24  2  0
 23 25  1  0
 25 26  1  0
 26 27  1  0
 27 28  1  0
  8 29  1  0
 29 30  1  0
 30  5  1  0
 15  9  1  0
 24 19  1  0
 28 22  1  0
  1 31  1  0
  1 32  1  0
  1 33  1  0
  2 34  1  0
  2 35  1  0
  6 36  1  0
  6 37  1  0
  7 38  1  0
  7 39  1  0
 10 40  1  0
 11 41  1  0
 14 42  1  0
 16 43  1  0
 20 44  1  0
 21 45  1  0
 24 46  1  0
 26 47  1  0
 26 48  1  0
 27 49  1  0
 27 50  1  0
 29 51  1  0
 29 52  1  0
 30 53  1  0
 30 54  1  0
M  END
$$$$
