
     RDKit          3D

 60 65  0  0  0  0  0  0  0  0999 V2000
    6.4525   -0.5525   -1.5557 C   0  0  0  0  0  0  0  0  0  0  0  0
    5.6907    0.5759   -0.9708 C   0  0  0  0  0  0  0  0  0  0  0  0
    6.0423    1.8395   -1.2383 N   0  0  0  0  0  0  0  0  0  0  0  0
    5.1733    2.6315   -0.5140 O   0  0  0  0  0  0  0  0  0  0  0  0
    4.3044    1.8449    0.1750 C   0  0  0  0  0  0  0  0  0  0  0  0
    3.3528    2.5555    1.0512 C   0  0  0  0  0  0  0  0  0  0  0  0
    4.5567    0.5199   -0.1176 C   0  0  0  0  0  0  0  0  0  0  0  0
    3.8907   -0.6559    0.4038 C   0  0  0  0  0  0  0  0  0  0  0  0
    4.5453   -1.6299    0.7681 O   0  0  0  0  0  0  0  0  0  0  0  0
    2.4892   -0.6242    0.4914 N   0  0  0  0  0  0  0  0  0  0  0  0
    1.6953   -0.0691   -0.6024 C   0  0  0  0  0  0  0  0  0  0  0  0
    0.2915    0.3133   -0.1395 C   0  0  0  0  0  0  0  0  0  0  0  0
   -0.4512   -0.8727    0.5309 C   0  0  0  0  0  0  0  0  0  0  0  0
    0.4658   -1.3847    1.6774 C   0  0  0  0  0  0  0  0  0  0  0  0
    1.8653   -1.7423    1.1851 C   0  0  0  0  0  0  0  0  0  0  0  0
   -0.5775   -1.8839   -0.4983 O   0  0  0  0  0  0  0  0  0  0  0  0
   -1.3933   -2.9403   -0.2035 C   0  0  0  0  0  0  0  0  0  0  0  0
   -1.2284   -4.0811   -0.9902 C   0  0  0  0  0  0  0  0  0  0  0  0
   -2.0076   -5.2130   -0.7457 C   0  0  0  0  0  0  0  0  0  0  0  0
   -2.9485   -5.1937    0.2796 C   0  0  0  0  0  0  0  0  0  0  0  0
   -3.6922   -6.2827    0.5093 F   0  0  0  0  0  0  0  0  0  0  0  0
   -3.1337   -4.0610    1.0615 C   0  0  0  0  0  0  0  0  0  0  0  0
   -2.3562   -2.9287    0.8069 C   0  0  0  0  0  0  0  0  0  0  0  0
   -2.5560   -1.6940    1.5895 C   0  0  0  0  0  0  0  0  0  0  0  0
   -3.2883   -1.7105    2.5728 O   0  0  0  0  0  0  0  0  0  0  0  0
   -1.8569   -0.4525    1.0475 C   0  0  0  0  0  0  0  0  0  0  0  0
   -2.7859    0.1798    0.0163 C   0  0  0  0  0  0  0  0  0  0  0  0
   -2.6724    1.6049    0.4322 C   0  0  0  0  0  0  0  0  0  0  0  0
   -3.2004    2.7121   -0.3986 C   0  0  0  0  0  0  0  0  0  0  0  0
   -2.9630    4.0338    0.0033 C   0  0  0  0  0  0  0  0  0  0  0  0
   -3.4428    5.1010   -0.7610 C   0  0  0  0  0  0  0  0  0  0  0  0
   -4.1623    4.8478   -1.9263 C   0  0  0  0  0  0  0  0  0  0  0  0
   -4.7533    6.1585   -2.8697 Cl  0  0  0  0  0  0  0  0  0  0  0  0
   -4.4077    3.5368   -2.3322 C   0  0  0  0  0  0  0  0  0  0  0  0
   -3.9284    2.4666   -1.5691 C   0  0  0  0  0  0  0  0  0  0  0  0
   -2.0789    1.7932    1.5664 N   0  0  0  0  0  0  0  0  0  0  0  0
   -1.7382    0.5238    2.0870 O   0  0  0  0  0  0  0  0  0  0  0  0
    7.0316   -1.0627   -0.7796 H   0  0  0  0  0  0  0  0  0  0  0  0
    7.1487   -0.2102   -2.3284 H   0  0  0  0  0  0  0  0  0  0  0  0
    5.7741   -1.2785   -2.0152 H   0  0  0  0  0  0  0  0  0  0  0  0
    2.4901    2.9027    0.4751 H   0  0  0  0  0  0  0  0  0  0  0  0
    2.9932    1.9073    1.8557 H   0  0  0  0  0  0  0  0  0  0  0  0
    3.8275    3.4267    1.5138 H   0  0  0  0  0  0  0  0  0  0  0  0
    2.1782    0.8028   -1.0488 H   0  0  0  0  0  0  0  0  0  0  0  0
    1.6541   -0.8282   -1.3938 H   0  0  0  0  0  0  0  0  0  0  0  0
    0.3749    1.1525    0.5611 H   0  0  0  0  0  0  0  0  0  0  0  0
   -0.2569    0.6656   -1.0203 H   0  0  0  0  0  0  0  0  0  0  0  0
    0.5528   -0.6121    2.4522 H   0  0  0  0  0  0  0  0  0  0  0  0
    0.0475   -2.2741    2.1607 H   0  0  0  0  0  0  0  0  0  0  0  0
    1.8412   -2.5996    0.5016 H   0  0  0  0  0  0  0  0  0  0  0  0
    2.4830   -2.0295    2.0443 H   0  0  0  0  0  0  0  0  0  0  0  0
   -0.4865   -4.0965   -1.7853 H   0  0  0  0  0  0  0  0  0  0  0  0
   -1.8851   -6.1112   -1.3442 H   0  0  0  0  0  0  0  0  0  0  0  0
   -3.8812   -4.0682    1.8501 H   0  0  0  0  0  0  0  0  0  0  0  0
   -2.4705    0.0154   -1.0164 H   0  0  0  0  0  0  0  0  0  0  0  0
   -3.8303   -0.1327    0.1275 H   0  0  0  0  0  0  0  0  0  0  0  0
   -2.4059    4.2434    0.9152 H   0  0  0  0  0  0  0  0  0  0  0  0
   -3.2534    6.1220   -0.4393 H   0  0  0  0  0  0  0  0  0  0  0  0
   -4.9747    3.3420   -3.2395 H   0  0  0  0  0  0  0  0  0  0  0  0
   -4.1449    1.4570   -1.9057 H   0  0  0  0  0  0  0  0  0  0  0  0
  1  2  1  0
  2  3  2  0
  3  4  1  0
  4  5  1  0
  5  6  1  0
  5  7  2  0
  7  8  1  0
  8  9  2  0
  8 10  1  0
 10 11  1  0
 11 12  1  0
 12 13  1  0
 13 14  1  0
 14 15  1  0
 13 16  1  0
 16 17  1  0
 17 18  2  0
 18 19  1  0
 19 20  2  0
 20 21  1  0
 20 22  1  0
 22 23  2  0
 23 24  1  0
 24 25  2  0
 24 26  1  0
 26 27  1  0
 27 28  1  0
 28 29  1  0
 29 30  2  0
 30 31  1  0
 31 32  2  0
 32 33  1  0
 32 34  1  0
 34 35  2  0
 28 36  2  0
 36 37  1  0
  7  2  1  0
 15 10  1  0
 23 17  1  0
 37 26  1  0
 26 13  1  0
 35 29  1  0
  1 38  1  0
  1 39  1  0
  1 40  1  0
  6 41  1  0
  6 42  1  0
  6 43  1  0
 11 44  1  0
 11 45  1  0
 12 46  1  0
 12 47  1  0
 14 48  1  0
 14 49  1  0
 15 50  1  0
 15 51  1  0
 18 52  1  0
 19 53  1  0
 22 54  1  0
 27 55  1  0
 27 56  1  0
 30 57  1  0
 31 58  1  0
 34 59  1  0
 35 60  1  0
M  END
$$$$
