
     RDKit          3D

 71 75  0  0  0  0  0  0  0  0999 V2000
   -4.9570    2.8354    1.4894 C   0  0  0  0  0  0  0  0  0  0  0  0
   -5.7158    1.5615    1.7135 C   0  0  0  0  0  0  0  0  0  0  0  0
   -7.0685    1.4700    1.3857 C   0  0  0  0  0  0  0  0  0  0  0  0
   -7.7719    0.2871    1.6189 C   0  0  0  0  0  0  0  0  0  0  0  0
   -7.1457   -0.8275    2.1999 C   0  0  0  0  0  0  0  0  0  0  0  0
   -7.9528   -2.0824    2.3978 C   0  0  0  0  0  0  0  0  0  0  0  0
   -5.7803   -0.7452    2.5453 C   0  0  0  0  0  0  0  0  0  0  0  0
   -5.0165   -1.9032    3.1522 C   0  0  0  0  0  0  0  0  0  0  0  0
   -4.5286   -2.8238    2.1445 N   0  0  0  0  0  0  0  0  0  0  0  0
   -5.1041   -4.0415    1.9773 N   0  0  0  0  0  0  0  0  0  0  0  0
   -4.4312   -4.6823    1.0208 N   0  0  0  0  0  0  0  0  0  0  0  0
   -3.4170   -3.8671    0.6256 C   0  0  0  0  0  0  0  0  0  0  0  0
   -2.3833   -4.0557   -0.3544 C   0  0  0  0  0  0  0  0  0  0  0  0
   -2.2134   -5.0599   -1.0344 O   0  0  0  0  0  0  0  0  0  0  0  0
   -1.5440   -2.9506   -0.4510 N   0  0  0  0  0  0  0  0  0  0  0  0
   -1.6516   -1.8171    0.3465 C   0  0  0  0  0  0  0  0  0  0  0  0
   -0.6338   -0.7055    0.1208 C   0  0  0  0  0  0  0  0  0  0  0  0
    0.8005   -1.1873    0.3534 C   0  0  0  0  0  0  0  0  0  0  0  0
    1.7923   -0.2475   -0.3152 C   0  0  0  0  0  0  0  0  0  0  0  0
    1.6058   -0.2289   -1.7914 N   0  0  0  0  0  0  0  0  0  0  0  0
    2.7929   -1.0571   -2.7092 S   0  0  0  0  0  6  0  0  0  0  0  0
    2.4634   -0.9074   -4.1096 O   0  0  0  0  0  0  0  0  0  0  0  0
    2.9471   -2.3639   -2.1043 O   0  0  0  0  0  0  0  0  0  0  0  0
    4.2573   -0.1000   -2.4033 C   0  0  0  0  0  0  0  0  0  0  0  0
    5.3116   -0.6440   -1.6616 C   0  0  0  0  0  0  0  0  0  0  0  0
    6.4618    0.1173   -1.4450 C   0  0  0  0  0  0  0  0  0  0  0  0
    6.5454    1.4121   -1.9725 C   0  0  0  0  0  0  0  0  0  0  0  0
    8.0364    2.3663   -1.7389 S   0  0  0  0  0  6  0  0  0  0  0  0
    9.0856    1.4396   -1.3654 O   0  0  0  0  0  0  0  0  0  0  0  0
    8.1765    3.2314   -2.8919 O   0  0  0  0  0  0  0  0  0  0  0  0
    7.6704    3.3228   -0.3809 N   0  0  0  0  0  0  0  0  0  0  0  0
    6.6872    4.4027   -0.5577 C   0  0  0  0  0  0  0  0  0  0  0  0
    7.5558    2.6301    0.9132 C   0  0  0  0  0  0  0  0  0  0  0  0
    5.5043    1.9394   -2.7460 C   0  0  0  0  0  0  0  0  0  0  0  0
    4.3505    1.1831   -2.9544 C   0  0  0  0  0  0  0  0  0  0  0  0
    0.2197   -0.4930   -2.2677 C   0  0  0  0  0  0  0  0  0  0  0  0
   -0.8178   -0.0368   -1.2492 C   0  0  0  0  0  0  0  0  0  0  0  0
   -2.5756   -1.6462    1.2515 N   0  0  0  0  0  0  0  0  0  0  0  0
   -3.4346   -2.6917    1.3360 C   0  0  0  0  0  0  0  0  0  0  0  0
   -5.0859    0.4574    2.3002 C   0  0  0  0  0  0  0  0  0  0  0  0
   -3.9320    2.6231    1.1658 H   0  0  0  0  0  0  0  0  0  0  0  0
   -5.4254    3.4432    0.7071 H   0  0  0  0  0  0  0  0  0  0  0  0
   -4.9261    3.4191    2.4148 H   0  0  0  0  0  0  0  0  0  0  0  0
   -7.5856    2.3144    0.9373 H   0  0  0  0  0  0  0  0  0  0  0  0
   -8.8229    0.2423    1.3380 H   0  0  0  0  0  0  0  0  0  0  0  0
   -7.8390   -2.4633    3.4167 H   0  0  0  0  0  0  0  0  0  0  0  0
   -9.0218   -1.8960    2.2481 H   0  0  0  0  0  0  0  0  0  0  0  0
   -7.6458   -2.8480    1.6802 H   0  0  0  0  0  0  0  0  0  0  0  0
   -5.6315   -2.4599    3.8667 H   0  0  0  0  0  0  0  0  0  0  0  0
   -4.1457   -1.5454    3.7158 H   0  0  0  0  0  0  0  0  0  0  0  0
   -0.7879   -3.0707   -1.1088 H   0  0  0  0  0  0  0  0  0  0  0  0
   -0.8513    0.0644    0.8761 H   0  0  0  0  0  0  0  0  0  0  0  0
    0.9958   -1.2294    1.4324 H   0  0  0  0  0  0  0  0  0  0  0  0
    0.9526   -2.2067   -0.0219 H   0  0  0  0  0  0  0  0  0  0  0  0
    1.6655    0.7763    0.0568 H   0  0  0  0  0  0  0  0  0  0  0  0
    2.8100   -0.5440   -0.0444 H   0  0  0  0  0  0  0  0  0  0  0  0
    5.2538   -1.6561   -1.2674 H   0  0  0  0  0  0  0  0  0  0  0  0
    7.2909   -0.3074   -0.8817 H   0  0  0  0  0  0  0  0  0  0  0  0
    6.8401    4.9333   -1.5008 H   0  0  0  0  0  0  0  0  0  0  0  0
    5.6638    4.0168   -0.5230 H   0  0  0  0  0  0  0  0  0  0  0  0
    6.8055    5.1399    0.2437 H   0  0  0  0  0  0  0  0  0  0  0  0
    8.3620    1.9044    1.0495 H   0  0  0  0  0  0  0  0  0  0  0  0
    6.5907    2.1222    1.0024 H   0  0  0  0  0  0  0  0  0  0  0  0
    7.6420    3.3562    1.7272 H   0  0  0  0  0  0  0  0  0  0  0  0
    5.5920    2.9260   -3.1964 H   0  0  0  0  0  0  0  0  0  0  0  0
    3.5389    1.5837   -3.5601 H   0  0  0  0  0  0  0  0  0  0  0  0
    0.0889   -1.5601   -2.4850 H   0  0  0  0  0  0  0  0  0  0  0  0
    0.0647    0.0631   -3.2008 H   0  0  0  0  0  0  0  0  0  0  0  0
   -0.7216    1.0506   -1.1220 H   0  0  0  0  0  0  0  0  0  0  0  0
   -1.8262   -0.2114   -1.6434 H   0  0  0  0  0  0  0  0  0  0  0  0
   -4.0294    0.5292    2.5589 H   0  0  0  0  0  0  0  0  0  0  0  0
  1  2  1  0
  2  3  2  0
  3  4  1  0
  4  5  2  0
  5  6  1  0
  5  7  1  0
  7  8  1  0
  8  9  1  0
  9 10  1  0
 10 11  2  0
 11 12  1  0
 12 13  1  0
 13 14  2  0
 13 15  1  0
 15 16  1  0
 16 17  1  0
 17 18  1  0
 18 19  1  0
 19 20  1  0
 20 21  1  0
 21 22  2  0
 21 23  2  0
 21 24  1  0
 24 25  2  0
 25 26  1  0
 26 27  2  0
 27 28  1  0
 28 29  2  0
 28 30  2  0
 28 31  1  0
 31 32  1  0
 31 33  1  0
 27 34  1  0
 34 35  2  0
 20 36  1  0
 36 37  1  0
 16 38  2  0
 38 39  1  0
  7 40  2  0
 40  2  1  0
 39  9  1  0
 39 12  2  0
 37 17  1  0
 35 24  1  0
  1 41  1  0
  1 42  1  0
  1 43  1  0
  3 44  1  0
  4 45  1  0
  6 46  1  0
  6 47  1  0
  6 48  1  0
  8 49  1  0
  8 50  1  0
 15 51  1  0
 17 52  1  0
 18 53  1  0
 18 54  1  0
 19 55  1  0
 19 56  1  0
 25 57  1  0
 26 58  1  0
 32 59  1  0
 32 60  1  0
 32 61  1  0
 33 62  1  0
 33 63  1  0
 33 64  1  0
 34 65  1  0
 35 66  1  0
 36 67  1  0
 36 68  1  0
 37 69  1  0
 37 70  1  0
 40 71  1  0
M  END
$$$$
