
     RDKit          3D

 54 58  0  0  0  0  0  0  0  0999 V2000
    3.1035    2.5226    0.4620 F   0  0  0  0  0  0  0  0  0  0  0  0
    4.3675    2.6893   -0.0123 C   0  0  0  0  0  0  0  0  0  0  0  0
    4.2351    3.1159   -1.2972 F   0  0  0  0  0  0  0  0  0  0  0  0
    4.8730    3.7540    0.6717 F   0  0  0  0  0  0  0  0  0  0  0  0
    5.2065    1.4338    0.1094 C   0  0  0  0  0  0  0  0  0  0  0  0
    6.4443    1.5038    0.7809 C   0  0  0  0  0  0  0  0  0  0  0  0
    7.2482    0.3734    0.9300 C   0  0  0  0  0  0  0  0  0  0  0  0
    6.8296   -0.8473    0.4117 C   0  0  0  0  0  0  0  0  0  0  0  0
    5.6144   -0.9363   -0.2656 C   0  0  0  0  0  0  0  0  0  0  0  0
    4.7910    0.1931   -0.4295 C   0  0  0  0  0  0  0  0  0  0  0  0
    3.4755    0.0139   -1.1658 C   0  0  0  0  0  0  0  0  0  0  0  0
    2.3763   -0.5852   -0.2647 C   0  0  0  0  0  0  0  0  0  0  0  0
    1.1760   -0.9609   -1.0355 N   0  0  0  0  0  0  0  0  0  0  0  0
    0.3135   -1.8657   -0.2389 C   0  0  0  0  0  0  0  0  0  0  0  0
   -0.9671   -2.2836   -0.9941 C   0  0  0  0  0  0  0  0  0  0  0  0
   -1.7375   -1.1056   -1.4344 N   0  0  0  0  0  0  0  0  0  0  0  0
   -2.7270   -0.5955   -0.5973 C   0  0  0  0  0  0  0  0  0  0  0  0
   -2.6401    0.6406   -0.1749 N   0  0  0  0  0  0  0  0  0  0  0  0
   -3.6354    1.1845    0.6655 C   0  0  0  0  0  0  0  0  0  0  0  0
   -3.4940    2.5073    1.0913 C   0  0  0  0  0  0  0  0  0  0  0  0
   -4.4628    3.1032    1.9091 C   0  0  0  0  0  0  0  0  0  0  0  0
   -5.5834    2.3765    2.3147 C   0  0  0  0  0  0  0  0  0  0  0  0
   -5.7419    1.0501    1.9091 C   0  0  0  0  0  0  0  0  0  0  0  0
   -4.7671    0.4687    1.0878 C   0  0  0  0  0  0  0  0  0  0  0  0
   -4.8583   -0.8508    0.6165 N   0  0  0  0  0  0  0  0  0  0  0  0
   -5.8432   -1.7904    0.8240 C   0  0  0  0  0  0  0  0  0  0  0  0
   -5.5134   -2.9223    0.1086 C   0  0  0  0  0  0  0  0  0  0  0  0
   -4.2851   -2.6622   -0.5483 C   0  0  0  0  0  0  0  0  0  0  0  0
   -3.8850   -1.3836   -0.2014 C   0  0  0  0  0  0  0  0  0  0  0  0
   -0.8970   -0.1676   -2.2040 C   0  0  0  0  0  0  0  0  0  0  0  0
    0.3736    0.2281   -1.4229 C   0  0  0  0  0  0  0  0  0  0  0  0
    6.7908    2.4508    1.1997 H   0  0  0  0  0  0  0  0  0  0  0  0
    8.1973    0.4466    1.4566 H   0  0  0  0  0  0  0  0  0  0  0  0
    7.4502   -1.7308    0.5323 H   0  0  0  0  0  0  0  0  0  0  0  0
    5.3035   -1.9013   -0.6653 H   0  0  0  0  0  0  0  0  0  0  0  0
    3.1509    0.9657   -1.5978 H   0  0  0  0  0  0  0  0  0  0  0  0
    3.6502   -0.6498   -2.0268 H   0  0  0  0  0  0  0  0  0  0  0  0
    2.7867   -1.4890    0.2062 H   0  0  0  0  0  0  0  0  0  0  0  0
    2.1269    0.1043    0.5552 H   0  0  0  0  0  0  0  0  0  0  0  0
    0.8700   -2.7795    0.0016 H   0  0  0  0  0  0  0  0  0  0  0  0
    0.0376   -1.3902    0.7122 H   0  0  0  0  0  0  0  0  0  0  0  0
   -0.7041   -2.8787   -1.8762 H   0  0  0  0  0  0  0  0  0  0  0  0
   -1.5539   -2.9337   -0.3397 H   0  0  0  0  0  0  0  0  0  0  0  0
   -2.6217    3.0774    0.7764 H   0  0  0  0  0  0  0  0  0  0  0  0
   -4.3403    4.1364    2.2254 H   0  0  0  0  0  0  0  0  0  0  0  0
   -6.3354    2.8458    2.9444 H   0  0  0  0  0  0  0  0  0  0  0  0
   -6.6231    0.5073    2.2355 H   0  0  0  0  0  0  0  0  0  0  0  0
   -6.7081   -1.5871    1.4418 H   0  0  0  0  0  0  0  0  0  0  0  0
   -6.1013   -3.8300    0.0543 H   0  0  0  0  0  0  0  0  0  0  0  0
   -3.7526   -3.3306   -1.2136 H   0  0  0  0  0  0  0  0  0  0  0  0
   -1.4641    0.7276   -2.4855 H   0  0  0  0  0  0  0  0  0  0  0  0
   -0.6068   -0.6520   -3.1435 H   0  0  0  0  0  0  0  0  0  0  0  0
    0.9621    0.8876   -2.0653 H   0  0  0  0  0  0  0  0  0  0  0  0
    0.0951    0.8011   -0.5331 H   0  0  0  0  0  0  0  0  0  0  0  0
  1  2  1  0
  2  3  1  0
  2  4  1  0
  2  5  1  0
  5  6  2  0
  6  7  1  0
  7  8  2  0
  8  9  1  0
  9 10  2  0
 10 11  1  0
 11 12  1  0
 12 13  1  0
 13 14  1  0
 14 15  1  0
 15 16  1  0
 16 17  1  0
 17 18  2  0
 18 19  1  0
 19 20  2  0
 20 21  1  0
 21 22  2  0
 22 23  1  0
 23 24  2  0
 24 25  1  0
 25 26  1  0
 26 27  2  0
 27 28  1  0
 28 29  2  0
 16 30  1  0
 30 31  1  0
 10  5  1  0
 31 13  1  0
 29 17  1  0
 24 19  1  0
 29 25  1  0
  6 32  1  0
  7 33  1  0
  8 34  1  0
  9 35  1  0
 11 36  1  0
 11 37  1  0
 12 38  1  0
 12 39  1  0
 14 40  1  0
 14 41  1  0
 15 42  1  0
 15 43  1  0
 20 44  1  0
 21 45  1  0
 22 46  1  0
 23 47  1  0
 26 48  1  0
 27 49  1  0
 28 50  1  0
 30 51  1  0
 30 52  1  0
 31 53  1  0
 31 54  1  0
M  END
$$$$
