
     RDKit          3D

 51 55  0  0  0  0  0  0  0  0999 V2000
    5.7770   -2.3781    0.7357 F   0  0  0  0  0  0  0  0  0  0  0  0
    6.1575   -1.0929    0.7020 C   0  0  0  0  0  0  0  0  0  0  0  0
    7.2940   -0.7116    1.4089 C   0  0  0  0  0  0  0  0  0  0  0  0
    7.7000    0.6213    1.3945 C   0  0  0  0  0  0  0  0  0  0  0  0
    6.9642    1.5632    0.6745 C   0  0  0  0  0  0  0  0  0  0  0  0
    5.8236    1.1742   -0.0334 C   0  0  0  0  0  0  0  0  0  0  0  0
    5.4106   -0.1650   -0.0300 C   0  0  0  0  0  0  0  0  0  0  0  0
    4.1719   -0.5943   -0.7760 C   0  0  0  0  0  0  0  0  0  0  0  0
    2.9567   -0.7072    0.1605 C   0  0  0  0  0  0  0  0  0  0  0  0
    1.7319   -1.0966   -0.5574 N   0  0  0  0  0  0  0  0  0  0  0  0
    0.7347   -1.6507    0.3831 C   0  0  0  0  0  0  0  0  0  0  0  0
   -0.6852   -1.7425   -0.2155 C   0  0  0  0  0  0  0  0  0  0  0  0
   -1.1930   -0.4222   -0.6176 N   0  0  0  0  0  0  0  0  0  0  0  0
   -2.5015   -0.0317   -0.3476 C   0  0  0  0  0  0  0  0  0  0  0  0
   -2.7076    1.2102    0.0207 N   0  0  0  0  0  0  0  0  0  0  0  0
   -3.9990    1.6636    0.3482 C   0  0  0  0  0  0  0  0  0  0  0  0
   -4.1535    2.9924    0.7488 C   0  0  0  0  0  0  0  0  0  0  0  0
   -5.4115    3.4917    1.0967 C   0  0  0  0  0  0  0  0  0  0  0  0
   -6.5318    2.6616    1.0475 C   0  0  0  0  0  0  0  0  0  0  0  0
   -6.4006    1.3306    0.6496 C   0  0  0  0  0  0  0  0  0  0  0  0
   -5.1352    0.8456    0.3048 C   0  0  0  0  0  0  0  0  0  0  0  0
   -4.9151   -0.4742   -0.1208 N   0  0  0  0  0  0  0  0  0  0  0  0
   -5.8194   -1.4954   -0.2930 C   0  0  0  0  0  0  0  0  0  0  0  0
   -5.1471   -2.5843   -0.8016 C   0  0  0  0  0  0  0  0  0  0  0  0
   -3.7879   -2.2145   -0.9267 C   0  0  0  0  0  0  0  0  0  0  0  0
   -3.6541   -0.9171   -0.4613 C   0  0  0  0  0  0  0  0  0  0  0  0
   -0.1591    0.6107   -0.7983 C   0  0  0  0  0  0  0  0  0  0  0  0
    1.1493    0.0077   -1.3543 C   0  0  0  0  0  0  0  0  0  0  0  0
    7.8535   -1.4563    1.9660 H   0  0  0  0  0  0  0  0  0  0  0  0
    8.5868    0.9266    1.9439 H   0  0  0  0  0  0  0  0  0  0  0  0
    7.2795    2.6041    0.6640 H   0  0  0  0  0  0  0  0  0  0  0  0
    5.2617    1.9229   -0.5876 H   0  0  0  0  0  0  0  0  0  0  0  0
    4.3616   -1.5590   -1.2645 H   0  0  0  0  0  0  0  0  0  0  0  0
    3.9816    0.1171   -1.5882 H   0  0  0  0  0  0  0  0  0  0  0  0
    3.1906   -1.4719    0.9138 H   0  0  0  0  0  0  0  0  0  0  0  0
    2.8001    0.2302    0.7113 H   0  0  0  0  0  0  0  0  0  0  0  0
    1.0542   -2.6552    0.6848 H   0  0  0  0  0  0  0  0  0  0  0  0
    0.6864   -1.0377    1.2938 H   0  0  0  0  0  0  0  0  0  0  0  0
   -0.6734   -2.4030   -1.0901 H   0  0  0  0  0  0  0  0  0  0  0  0
   -1.3350   -2.1947    0.5425 H   0  0  0  0  0  0  0  0  0  0  0  0
   -3.2821    3.6403    0.7901 H   0  0  0  0  0  0  0  0  0  0  0  0
   -5.5144    4.5286    1.4063 H   0  0  0  0  0  0  0  0  0  0  0  0
   -7.5090    3.0541    1.3183 H   0  0  0  0  0  0  0  0  0  0  0  0
   -7.2865    0.7056    0.6161 H   0  0  0  0  0  0  0  0  0  0  0  0
   -6.8682   -1.3734   -0.0647 H   0  0  0  0  0  0  0  0  0  0  0  0
   -5.5908   -3.5356   -1.0658 H   0  0  0  0  0  0  0  0  0  0  0  0
   -2.9959   -2.8356   -1.3206 H   0  0  0  0  0  0  0  0  0  0  0  0
    0.0408    1.1115    0.1574 H   0  0  0  0  0  0  0  0  0  0  0  0
   -0.5151    1.3687   -1.5067 H   0  0  0  0  0  0  0  0  0  0  0  0
    1.8666    0.8209   -1.5128 H   0  0  0  0  0  0  0  0  0  0  0  0
    0.9374   -0.4027   -2.3502 H   0  0  0  0  0  0  0  0  0  0  0  0
  1  2  1  0
  2  3  2  0
  3  4  1  0
  4  5  2  0
  5  6  1  0
  6  7  2  0
  7  8  1  0
  8  9  1  0
  9 10  1  0
 10 11  1  0
 11 12  1  0
 12 13  1  0
 13 14  1  0
 14 15  2  0
 15 16  1  0
 16 17  2  0
 17 18  1  0
 18 19  2  0
 19 20  1  0
 20 21  2  0
 21 22  1  0
 22 23  1  0
 23 24  2  0
 24 25  1  0
 25 26  2  0
 13 27  1  0
 27 28  1  0
  7  2  1  0
 28 10  1  0
 26 14  1  0
 21 16  1  0
 26 22  1  0
  3 29  1  0
  4 30  1  0
  5 31  1  0
  6 32  1  0
  8 33  1  0
  8 34  1  0
  9 35  1  0
  9 36  1  0
 11 37  1  0
 11 38  1  0
 12 39  1  0
 12 40  1  0
 17 41  1  0
 18 42  1  0
 19 43  1  0
 20 44  1  0
 23 45  1  0
 24 46  1  0
 25 47  1  0
 27 48  1  0
 27 49  1  0
 28 50  1  0
 28 51  1  0
M  END
$$$$
