
     RDKit          3D

 34 35  0  0  0  0  0  0  0  0999 V2000
   -3.8287   -0.7588    2.5115 O   0  0  0  0  0  0  0  0  0  0  0  0
   -3.7468   -0.7247    1.2745 C   0  0  0  0  0  0  0  0  0  0  0  0
   -5.0431   -0.7736    0.4625 C   0  0  0  0  0  0  0  0  0  0  0  0
   -5.1789    0.5852   -0.6662 Cl  0  0  0  0  0  0  0  0  0  0  0  0
   -5.2301   -2.3472   -0.3317 Cl  0  0  0  0  0  0  0  0  0  0  0  0
   -2.4983   -0.6581    0.6646 N   0  0  0  0  0  0  0  0  0  0  0  0
   -1.3106   -0.5952    1.5263 C   0  0  0  0  0  0  0  0  0  0  0  0
   -0.1012    0.0306    0.8096 C   0  0  0  0  0  0  0  0  0  0  0  0
    0.2997   -0.6940   -0.4167 N   0  0  0  0  0  0  0  0  0  0  0  0
    1.0706    0.1668   -1.3286 C   0  0  0  0  0  0  0  0  0  0  0  0
    2.3793    0.6517   -0.7410 C   0  0  0  0  0  0  0  0  0  0  0  0
    2.6337    2.0229   -0.5945 C   0  0  0  0  0  0  0  0  0  0  0  0
    3.8455    2.4647   -0.0600 C   0  0  0  0  0  0  0  0  0  0  0  0
    4.8147    1.5426    0.3313 C   0  0  0  0  0  0  0  0  0  0  0  0
    4.5744    0.1774    0.1891 C   0  0  0  0  0  0  0  0  0  0  0  0
    3.3641   -0.2662   -0.3454 C   0  0  0  0  0  0  0  0  0  0  0  0
   -0.8541   -1.3141   -1.0974 C   0  0  0  0  0  0  0  0  0  0  0  0
   -2.2214   -0.6779   -0.7782 C   0  0  0  0  0  0  0  0  0  0  0  0
   -5.8797   -0.6743    1.1608 H   0  0  0  0  0  0  0  0  0  0  0  0
   -1.0816   -1.6209    1.8402 H   0  0  0  0  0  0  0  0  0  0  0  0
   -1.5383   -0.0169    2.4288 H   0  0  0  0  0  0  0  0  0  0  0  0
   -0.3616    1.0707    0.5697 H   0  0  0  0  0  0  0  0  0  0  0  0
    0.7433    0.0560    1.5077 H   0  0  0  0  0  0  0  0  0  0  0  0
    1.3311   -0.3942   -2.2364 H   0  0  0  0  0  0  0  0  0  0  0  0
    0.4605    1.0179   -1.6592 H   0  0  0  0  0  0  0  0  0  0  0  0
    1.8892    2.7566   -0.8940 H   0  0  0  0  0  0  0  0  0  0  0  0
    4.0338    3.5293    0.0515 H   0  0  0  0  0  0  0  0  0  0  0  0
    5.7571    1.8876    0.7482 H   0  0  0  0  0  0  0  0  0  0  0  0
    5.3277   -0.5432    0.4961 H   0  0  0  0  0  0  0  0  0  0  0  0
    3.1813   -1.3341   -0.4465 H   0  0  0  0  0  0  0  0  0  0  0  0
   -0.7127   -1.3480   -2.1846 H   0  0  0  0  0  0  0  0  0  0  0  0
   -0.8867   -2.3623   -0.7722 H   0  0  0  0  0  0  0  0  0  0  0  0
   -2.9984   -1.2185   -1.3176 H   0  0  0  0  0  0  0  0  0  0  0  0
   -2.2336    0.3622   -1.1245 H   0  0  0  0  0  0  0  0  0  0  0  0
  1  2  2  0
  2  3  1  0
  3  4  1  0
  3  5  1  0
  2  6  1  0
  6  7  1  0
  7  8  1  0
  8  9  1  0
  9 10  1  0
 10 11  1  0
 11 12  2  0
 12 13  1  0
 13 14  2  0
 14 15  1  0
 15 16  2  0
  9 17  1  0
 17 18  1  0
 18  6  1  0
 16 11  1  0
  3 19  1  0
  7 20  1  0
  7 21  1  0
  8 22  1  0
  8 23  1  0
 10 24  1  0
 10 25  1  0
 12 26  1  0
 13 27  1  0
 14 28  1  0
 15 29  1  0
 16 30  1  0
 17 31  1  0
 17 32  1  0
 18 33  1  0
 18 34  1  0
M  END
$$$$
