
     RDKit          3D

 54 58  0  0  0  0  0  0  0  0999 V2000
    1.7881   -2.2325    0.9502 O   0  0  0  0  0  0  0  0  0  0  0  0
    2.1145   -1.0608    0.7716 C   0  0  0  0  0  0  0  0  0  0  0  0
    1.2329   -0.0765    0.0292 C   0  0  0  0  0  0  0  0  0  0  0  0
   -0.0908    0.4761    1.1388 S   0  0  0  0  0  0  0  0  0  0  0  0
   -1.1725    1.1161   -0.0855 C   0  0  0  0  0  0  0  0  0  0  0  0
   -0.7206    2.1428   -0.7388 N   0  0  0  0  0  0  0  0  0  0  0  0
   -1.5905    2.6486   -1.7106 C   0  0  0  0  0  0  0  0  0  0  0  0
   -2.7919    2.0689   -1.9796 C   0  0  0  0  0  0  0  0  0  0  0  0
   -3.6276    2.8629   -3.2152 S   0  0  0  0  0  0  0  0  0  0  0  0
   -2.3687    4.0384   -3.3946 C   0  0  0  0  0  0  0  0  0  0  0  0
   -2.3411    5.1207   -4.2956 C   0  0  0  0  0  0  0  0  0  0  0  0
   -1.2346    5.9739   -4.2920 C   0  0  0  0  0  0  0  0  0  0  0  0
   -0.1776    5.7597   -3.4175 C   0  0  0  0  0  0  0  0  0  0  0  0
   -0.2059    4.6820   -2.5273 C   0  0  0  0  0  0  0  0  0  0  0  0
   -1.3133    3.7998   -2.5047 C   0  0  0  0  0  0  0  0  0  0  0  0
   -3.2720    0.9144   -1.2810 C   0  0  0  0  0  0  0  0  0  0  0  0
   -4.3248    0.3374   -1.5453 O   0  0  0  0  0  0  0  0  0  0  0  0
   -2.4043    0.4870   -0.2660 N   0  0  0  0  0  0  0  0  0  0  0  0
   -2.8401   -0.6954    0.4916 C   0  0  0  0  0  0  0  0  0  0  0  0
   -2.4214   -1.9990   -0.1999 C   0  0  0  0  0  0  0  0  0  0  0  0
   -2.7753   -3.2042    0.6321 C   0  0  0  0  0  0  0  0  0  0  0  0
   -1.8218   -3.7866    1.4783 C   0  0  0  0  0  0  0  0  0  0  0  0
   -2.1581   -4.8872    2.2675 C   0  0  0  0  0  0  0  0  0  0  0  0
   -3.4485   -5.4122    2.2212 C   0  0  0  0  0  0  0  0  0  0  0  0
   -4.4037   -4.8374    1.3845 C   0  0  0  0  0  0  0  0  0  0  0  0
   -4.0702   -3.7376    0.5929 C   0  0  0  0  0  0  0  0  0  0  0  0
    3.2964   -0.5308    1.2339 N   0  0  0  0  0  0  0  0  0  0  0  0
    4.1700   -1.3175    2.0741 C   0  0  0  0  0  0  0  0  0  0  0  0
    5.4892   -0.6466    2.1346 C   0  0  0  0  0  0  0  0  0  0  0  0
    6.7454   -0.9831    1.6745 C   0  0  0  0  0  0  0  0  0  0  0  0
    7.6017    0.0873    2.0294 C   0  0  0  0  0  0  0  0  0  0  0  0
    6.8164    1.0029    2.6904 C   0  0  0  0  0  0  0  0  0  0  0  0
    5.5314    0.5697    2.7567 O   0  0  0  0  0  0  0  0  0  0  0  0
    1.8162    0.7795   -0.3208 H   0  0  0  0  0  0  0  0  0  0  0  0
    0.8211   -0.5886   -0.8457 H   0  0  0  0  0  0  0  0  0  0  0  0
   -3.1665    5.2927   -4.9811 H   0  0  0  0  0  0  0  0  0  0  0  0
   -1.2044    6.8150   -4.9812 H   0  0  0  0  0  0  0  0  0  0  0  0
    0.6769    6.4324   -3.4215 H   0  0  0  0  0  0  0  0  0  0  0  0
    0.6233    4.5211   -1.8422 H   0  0  0  0  0  0  0  0  0  0  0  0
   -3.9324   -0.6681    0.5952 H   0  0  0  0  0  0  0  0  0  0  0  0
   -2.4550   -0.6545    1.5154 H   0  0  0  0  0  0  0  0  0  0  0  0
   -2.9012   -2.0810   -1.1846 H   0  0  0  0  0  0  0  0  0  0  0  0
   -1.3430   -1.9993   -0.4038 H   0  0  0  0  0  0  0  0  0  0  0  0
   -0.8088   -3.3902    1.5274 H   0  0  0  0  0  0  0  0  0  0  0  0
   -1.4111   -5.3352    2.9182 H   0  0  0  0  0  0  0  0  0  0  0  0
   -3.7091   -6.2697    2.8361 H   0  0  0  0  0  0  0  0  0  0  0  0
   -5.4098   -5.2470    1.3472 H   0  0  0  0  0  0  0  0  0  0  0  0
   -4.8272   -3.3002   -0.0556 H   0  0  0  0  0  0  0  0  0  0  0  0
    3.3651    0.4741    1.3407 H   0  0  0  0  0  0  0  0  0  0  0  0
    3.7186   -1.3846    3.0700 H   0  0  0  0  0  0  0  0  0  0  0  0
    4.2565   -2.3309    1.6689 H   0  0  0  0  0  0  0  0  0  0  0  0
    7.0079   -1.8870    1.1422 H   0  0  0  0  0  0  0  0  0  0  0  0
    8.6615    0.1769    1.8327 H   0  0  0  0  0  0  0  0  0  0  0  0
    7.0107    1.9635    3.1447 H   0  0  0  0  0  0  0  0  0  0  0  0
  1  2  2  0
  2  3  1  0
  3  4  1  0
  4  5  1  0
  5  6  2  0
  6  7  1  0
  7  8  2  0
  8  9  1  0
  9 10  1  0
 10 11  2  0
 11 12  1  0
 12 13  2  0
 13 14  1  0
 14 15  2  0
  8 16  1  0
 16 17  2  0
 16 18  1  0
 18 19  1  0
 19 20  1  0
 20 21  1  0
 21 22  2  0
 22 23  1  0
 23 24  2  0
 24 25  1  0
 25 26  2  0
  2 27  1  0
 27 28  1  0
 28 29  1  0
 29 30  2  0
 30 31  1  0
 31 32  2  0
 32 33  1  0
 18  5  1  0
 26 21  1  0
 33 29  1  0
 15  7  1  0
 15 10  1  0
  3 34  1  0
  3 35  1  0
 11 36  1  0
 12 37  1  0
 13 38  1  0
 14 39  1  0
 19 40  1  0
 19 41  1  0
 20 42  1  0
 20 43  1  0
 22 44  1  0
 23 45  1  0
 24 46  1  0
 25 47  1  0
 26 48  1  0
 27 49  1  0
 28 50  1  0
 28 51  1  0
 30 52  1  0
 31 53  1  0
 32 54  1  0
M  END
$$$$
