
     RDKit          3D

 40 42  0  0  0  0  0  0  0  0999 V2000
   -5.8301    0.2200    2.3006 C   0  0  0  0  0  0  0  0  0  0  0  0
   -5.3456   -0.0274    0.8555 C   0  0  0  0  0  0  0  0  0  0  0  0
   -5.8569   -1.4110    0.4138 C   0  0  0  0  0  0  0  0  0  0  0  0
   -5.9566    1.0633   -0.0433 C   0  0  0  0  0  0  0  0  0  0  0  0
   -3.8257    0.0245    0.8051 C   0  0  0  0  0  0  0  0  0  0  0  0
   -3.0459    0.2484    1.8462 N   0  0  0  0  0  0  0  0  0  0  0  0
   -1.7072    0.2411    1.5148 N   0  0  0  0  0  0  0  0  0  0  0  0
   -1.5133    0.0127    0.2362 C   0  0  0  0  0  0  0  0  0  0  0  0
   -0.2606   -0.0385   -0.3142 N   0  0  0  0  0  0  0  0  0  0  0  0
    0.0711   -0.2680   -1.6286 C   0  0  0  0  0  0  0  0  0  0  0  0
   -0.7005   -0.4715   -2.5616 O   0  0  0  0  0  0  0  0  0  0  0  0
    1.5839   -0.2517   -1.8708 C   0  0  0  0  0  0  0  0  0  0  0  0
    2.2978    0.0003   -0.6631 O   0  0  0  0  0  0  0  0  0  0  0  0
    3.6638    0.0402   -0.7449 C   0  0  0  0  0  0  0  0  0  0  0  0
    4.4223   -0.1457   -1.9165 C   0  0  0  0  0  0  0  0  0  0  0  0
    5.8215   -0.0823   -1.8785 C   0  0  0  0  0  0  0  0  0  0  0  0
    6.4230    0.1662   -0.6649 C   0  0  0  0  0  0  0  0  0  0  0  0
    5.6863    0.3479    0.4797 C   0  0  0  0  0  0  0  0  0  0  0  0
    4.3089    0.2910    0.4721 C   0  0  0  0  0  0  0  0  0  0  0  0
    6.4676    0.5805    1.5680 O   0  0  0  0  0  0  0  0  0  0  0  0
    7.7822    0.5241    0.9756 C   0  0  0  0  0  0  0  0  0  0  0  0
    7.7605    0.2610   -0.4432 O   0  0  0  0  0  0  0  0  0  0  0  0
   -2.9417   -0.2103   -0.6589 S   0  0  0  0  0  0  0  0  0  0  0  0
   -5.4368   -0.5371    2.9895 H   0  0  0  0  0  0  0  0  0  0  0  0
   -6.9240    0.1876    2.3639 H   0  0  0  0  0  0  0  0  0  0  0  0
   -5.5069    1.2012    2.6684 H   0  0  0  0  0  0  0  0  0  0  0  0
   -5.4144   -2.2102    1.0203 H   0  0  0  0  0  0  0  0  0  0  0  0
   -5.6152   -1.6212   -0.6341 H   0  0  0  0  0  0  0  0  0  0  0  0
   -6.9463   -1.4797    0.5143 H   0  0  0  0  0  0  0  0  0  0  0  0
   -5.7170    0.9040   -1.1006 H   0  0  0  0  0  0  0  0  0  0  0  0
   -7.0494    1.0782    0.0417 H   0  0  0  0  0  0  0  0  0  0  0  0
   -5.5865    2.0580    0.2318 H   0  0  0  0  0  0  0  0  0  0  0  0
    0.4965    0.1136    0.3434 H   0  0  0  0  0  0  0  0  0  0  0  0
    1.8543   -1.2356   -2.2711 H   0  0  0  0  0  0  0  0  0  0  0  0
    1.7826    0.5424   -2.5997 H   0  0  0  0  0  0  0  0  0  0  0  0
    3.9550   -0.3419   -2.8766 H   0  0  0  0  0  0  0  0  0  0  0  0
    6.4151   -0.2240   -2.7750 H   0  0  0  0  0  0  0  0  0  0  0  0
    3.7469    0.4375    1.3876 H   0  0  0  0  0  0  0  0  0  0  0  0
    8.3561   -0.2680    1.4703 H   0  0  0  0  0  0  0  0  0  0  0  0
    8.2854    1.4826    1.1468 H   0  0  0  0  0  0  0  0  0  0  0  0
  1  2  1  0
  2  3  1  0
  2  4  1  0
  2  5  1  0
  5  6  2  0
  6  7  1  0
  7  8  2  0
  8  9  1  0
  9 10  1  0
 10 11  2  0
 10 12  1  0
 12 13  1  0
 13 14  1  0
 14 15  2  0
 15 16  1  0
 16 17  2  0
 17 18  1  0
 18 19  2  0
 18 20  1  0
 20 21  1  0
 21 22  1  0
  8 23  1  0
 23  5  1  0
 19 14  1  0
 22 17  1  0
  1 24  1  0
  1 25  1  0
  1 26  1  0
  3 27  1  0
  3 28  1  0
  3 29  1  0
  4 30  1  0
  4 31  1  0
  4 32  1  0
  9 33  1  0
 12 34  1  0
 12 35  1  0
 15 36  1  0
 16 37  1  0
 19 38  1  0
 21 39  1  0
 21 40  1  0
M  END
$$$$
