
     RDKit          3D

 49 51  0  0  0  0  0  0  0  0999 V2000
    3.0446   -0.0311   -2.2817 O   0  0  0  0  0  0  0  0  0  0  0  0
    2.5100   -0.9536   -1.6825 C   0  0  0  0  0  0  0  0  0  0  0  0
    2.8359   -2.2853   -1.7712 N   0  0  0  0  0  0  0  0  0  0  0  0
    3.9963   -2.7503   -2.4843 C   0  0  0  0  0  0  0  0  0  0  0  0
    5.1602   -2.9436   -1.5484 C   0  0  0  0  0  0  0  0  0  0  0  0
    5.3973   -4.1883   -0.9480 C   0  0  0  0  0  0  0  0  0  0  0  0
    6.4644   -4.3550   -0.0635 C   0  0  0  0  0  0  0  0  0  0  0  0
    7.2991   -3.2794    0.2350 C   0  0  0  0  0  0  0  0  0  0  0  0
    7.0664   -2.0349   -0.3473 C   0  0  0  0  0  0  0  0  0  0  0  0
    6.0004   -1.8661   -1.2320 C   0  0  0  0  0  0  0  0  0  0  0  0
    1.3449   -0.6711   -0.7063 C   0  0  0  0  0  0  0  0  0  0  0  0
    0.7717   -1.5935   -0.1447 O   0  0  0  0  0  0  0  0  0  0  0  0
    1.0394    0.6632   -0.5771 N   0  0  0  0  0  0  0  0  0  0  0  0
   -0.1393    1.1079    0.1468 C   0  0  0  0  0  0  0  0  0  0  0  0
   -1.4647    0.7864   -0.5776 C   0  0  0  0  0  0  0  0  0  0  0  0
   -1.4168    1.3635   -1.9069 O   0  0  0  0  0  0  0  0  0  0  0  0
   -2.4139    2.3847   -1.9711 C   0  0  0  0  0  0  0  0  0  0  0  0
   -3.4544    1.9673   -0.9605 C   0  0  0  0  0  0  0  0  0  0  0  0
   -2.6157    1.4169    0.1132 N   0  0  0  0  0  0  0  0  0  0  0  0
   -3.3648    0.4138    1.2466 S   0  0  0  0  0  6  0  0  0  0  0  0
   -2.3870    0.0613    2.2510 O   0  0  0  0  0  0  0  0  0  0  0  0
   -4.1065   -0.5964    0.5239 O   0  0  0  0  0  0  0  0  0  0  0  0
   -4.5278    1.5193    2.0113 C   0  0  0  0  0  0  0  0  0  0  0  0
   -5.8983    1.3663    1.7806 C   0  0  0  0  0  0  0  0  0  0  0  0
   -6.7980    2.2416    2.3922 C   0  0  0  0  0  0  0  0  0  0  0  0
   -6.3223    3.2525    3.2297 C   0  0  0  0  0  0  0  0  0  0  0  0
   -7.5446    4.4358    4.0542 Br  0  0  0  0  0  0  0  0  0  0  0  0
   -4.9543    3.3970    3.4674 C   0  0  0  0  0  0  0  0  0  0  0  0
   -4.0503    2.5249    2.8588 C   0  0  0  0  0  0  0  0  0  0  0  0
    2.3663   -2.9068   -1.1190 H   0  0  0  0  0  0  0  0  0  0  0  0
    4.2620   -2.0468   -3.2817 H   0  0  0  0  0  0  0  0  0  0  0  0
    3.7304   -3.6990   -2.9634 H   0  0  0  0  0  0  0  0  0  0  0  0
    4.7515   -5.0362   -1.1646 H   0  0  0  0  0  0  0  0  0  0  0  0
    6.6428   -5.3237    0.3961 H   0  0  0  0  0  0  0  0  0  0  0  0
    8.1282   -3.4096    0.9254 H   0  0  0  0  0  0  0  0  0  0  0  0
    7.7121   -1.1935   -0.1099 H   0  0  0  0  0  0  0  0  0  0  0  0
    5.8221   -0.8865   -1.6727 H   0  0  0  0  0  0  0  0  0  0  0  0
    1.4831    1.2870   -1.2467 H   0  0  0  0  0  0  0  0  0  0  0  0
   -0.1203    0.6492    1.1400 H   0  0  0  0  0  0  0  0  0  0  0  0
   -0.0284    2.1911    0.2702 H   0  0  0  0  0  0  0  0  0  0  0  0
   -1.6008   -0.2920   -0.7109 H   0  0  0  0  0  0  0  0  0  0  0  0
   -2.8107    2.4623   -2.9867 H   0  0  0  0  0  0  0  0  0  0  0  0
   -1.9451    3.3365   -1.6978 H   0  0  0  0  0  0  0  0  0  0  0  0
   -4.1018    1.1941   -1.3873 H   0  0  0  0  0  0  0  0  0  0  0  0
   -4.0566    2.8158   -0.6283 H   0  0  0  0  0  0  0  0  0  0  0  0
   -6.2722    0.5729    1.1368 H   0  0  0  0  0  0  0  0  0  0  0  0
   -7.8647    2.1247    2.2159 H   0  0  0  0  0  0  0  0  0  0  0  0
   -4.5855    4.1787    4.1271 H   0  0  0  0  0  0  0  0  0  0  0  0
   -2.9839    2.6280    3.0486 H   0  0  0  0  0  0  0  0  0  0  0  0
  1  2  2  0
  2  3  1  0
  3  4  1  0
  4  5  1  0
  5  6  2  0
  6  7  1  0
  7  8  2  0
  8  9  1  0
  9 10  2  0
  2 11  1  0
 11 12  2  0
 11 13  1  0
 13 14  1  0
 14 15  1  0
 15 16  1  0
 16 17  1  0
 17 18  1  0
 18 19  1  0
 19 20  1  0
 20 21  2  0
 20 22  2  0
 20 23  1  0
 23 24  2  0
 24 25  1  0
 25 26  2  0
 26 27  1  0
 26 28  1  0
 28 29  2  0
 10  5  1  0
 19 15  1  0
 29 23  1  0
  3 30  1  0
  4 31  1  0
  4 32  1  0
  6 33  1  0
  7 34  1  0
  8 35  1  0
  9 36  1  0
 10 37  1  0
 13 38  1  0
 14 39  1  0
 14 40  1  0
 15 41  1  0
 17 42  1  0
 17 43  1  0
 18 44  1  0
 18 45  1  0
 24 46  1  0
 25 47  1  0
 28 48  1  0
 29 49  1  0
M  END
$$$$
