
     RDKit          3D

 72 77  0  0  0  0  0  0  0  0999 V2000
   -8.0526    2.4105   -0.4500 C   0  0  0  0  0  0  0  0  0  0  0  0
   -7.0777    1.3566   -0.8856 C   0  0  0  0  0  0  0  0  0  0  0  0
   -6.2277    1.5837   -1.9670 C   0  0  0  0  0  0  0  0  0  0  0  0
   -5.3005    0.6142   -2.3528 C   0  0  0  0  0  0  0  0  0  0  0  0
   -5.1871   -0.5986   -1.6540 C   0  0  0  0  0  0  0  0  0  0  0  0
   -4.1712   -1.6053   -2.1211 C   0  0  0  0  0  0  0  0  0  0  0  0
   -6.0170   -0.8288   -0.5357 C   0  0  0  0  0  0  0  0  0  0  0  0
   -5.9497   -2.1075    0.2765 C   0  0  0  0  0  0  0  0  0  0  0  0
   -5.7229   -1.8502    1.6866 N   0  0  0  0  0  0  0  0  0  0  0  0
   -6.7132   -2.0335    2.5975 N   0  0  0  0  0  0  0  0  0  0  0  0
   -6.2355   -1.6862    3.7929 N   0  0  0  0  0  0  0  0  0  0  0  0
   -4.9394   -1.3105    3.6154 C   0  0  0  0  0  0  0  0  0  0  0  0
   -3.9628   -0.8262    4.5520 C   0  0  0  0  0  0  0  0  0  0  0  0
   -4.1322   -0.6808    5.7578 O   0  0  0  0  0  0  0  0  0  0  0  0
   -2.7546   -0.5264    3.9334 N   0  0  0  0  0  0  0  0  0  0  0  0
   -2.5006   -0.7090    2.5758 C   0  0  0  0  0  0  0  0  0  0  0  0
   -1.1068   -0.2950    2.1349 C   0  0  0  0  0  0  0  0  0  0  0  0
   -0.7173   -0.9090    0.7867 C   0  0  0  0  0  0  0  0  0  0  0  0
    0.6966   -0.4913    0.3979 C   0  0  0  0  0  0  0  0  0  0  0  0
    0.9296    0.9714    0.5708 N   0  0  0  0  0  0  0  0  0  0  0  0
    2.2992    1.4200    1.4868 S   0  0  0  0  0  6  0  0  0  0  0  0
    2.2359    0.6979    2.7417 O   0  0  0  0  0  0  0  0  0  0  0  0
    2.4196    2.8610    1.4609 O   0  0  0  0  0  0  0  0  0  0  0  0
    3.6359    0.7594    0.5181 C   0  0  0  0  0  0  0  0  0  0  0  0
    4.3160   -0.3845    0.9486 C   0  0  0  0  0  0  0  0  0  0  0  0
    5.3614   -0.8935    0.1768 C   0  0  0  0  0  0  0  0  0  0  0  0
    5.7288   -0.2389   -1.0041 C   0  0  0  0  0  0  0  0  0  0  0  0
    7.0481   -0.8887   -2.0040 S   0  0  0  0  0  6  0  0  0  0  0  0
    6.6650   -0.7248   -3.3886 O   0  0  0  0  0  0  0  0  0  0  0  0
    7.4412   -2.1702   -1.4590 O   0  0  0  0  0  0  0  0  0  0  0  0
    8.3023    0.1969   -1.6192 N   0  0  0  0  0  0  0  0  0  0  0  0
    9.2548    0.4218   -2.7210 C   0  0  0  0  0  0  0  0  0  0  0  0
   10.6507    0.8989   -2.4334 C   0  0  0  0  0  0  0  0  0  0  0  0
   10.4222   -0.4986   -2.9360 C   0  0  0  0  0  0  0  0  0  0  0  0
    5.0512    0.9094   -1.4326 C   0  0  0  0  0  0  0  0  0  0  0  0
    4.0025    1.4138   -0.6635 C   0  0  0  0  0  0  0  0  0  0  0  0
   -0.2980    1.7557    0.8500 C   0  0  0  0  0  0  0  0  0  0  0  0
   -1.0070    1.2415    2.0987 C   0  0  0  0  0  0  0  0  0  0  0  0
   -3.3782   -1.1553    1.7219 N   0  0  0  0  0  0  0  0  0  0  0  0
   -4.5759   -1.4280    2.2951 C   0  0  0  0  0  0  0  0  0  0  0  0
   -6.9626    0.1556   -0.1769 C   0  0  0  0  0  0  0  0  0  0  0  0
   -8.4766    2.9301   -1.3153 H   0  0  0  0  0  0  0  0  0  0  0  0
   -7.5495    3.1410    0.1906 H   0  0  0  0  0  0  0  0  0  0  0  0
   -8.8875    1.9723    0.1070 H   0  0  0  0  0  0  0  0  0  0  0  0
   -6.2848    2.5156   -2.5245 H   0  0  0  0  0  0  0  0  0  0  0  0
   -4.6624    0.8173   -3.2115 H   0  0  0  0  0  0  0  0  0  0  0  0
   -3.6579   -1.2661   -3.0262 H   0  0  0  0  0  0  0  0  0  0  0  0
   -3.4068   -1.7664   -1.3545 H   0  0  0  0  0  0  0  0  0  0  0  0
   -4.6579   -2.5552   -2.3613 H   0  0  0  0  0  0  0  0  0  0  0  0
   -5.1452   -2.7742   -0.0447 H   0  0  0  0  0  0  0  0  0  0  0  0
   -6.8911   -2.6585    0.1728 H   0  0  0  0  0  0  0  0  0  0  0  0
   -2.0362   -0.1795    4.5535 H   0  0  0  0  0  0  0  0  0  0  0  0
   -0.4063   -0.6654    2.8975 H   0  0  0  0  0  0  0  0  0  0  0  0
   -1.4218   -0.5994    0.0045 H   0  0  0  0  0  0  0  0  0  0  0  0
   -0.7761   -2.0033    0.8321 H   0  0  0  0  0  0  0  0  0  0  0  0
    0.8885   -0.7514   -0.6506 H   0  0  0  0  0  0  0  0  0  0  0  0
    1.4020   -1.0726    1.0019 H   0  0  0  0  0  0  0  0  0  0  0  0
    4.0379   -0.8846    1.8735 H   0  0  0  0  0  0  0  0  0  0  0  0
    5.8814   -1.7917    0.5023 H   0  0  0  0  0  0  0  0  0  0  0  0
    8.7782   -0.1633   -0.7887 H   0  0  0  0  0  0  0  0  0  0  0  0
    8.7746    0.8428   -3.6018 H   0  0  0  0  0  0  0  0  0  0  0  0
   11.1106    1.5978   -3.1212 H   0  0  0  0  0  0  0  0  0  0  0  0
   10.9531    1.0252   -1.4017 H   0  0  0  0  0  0  0  0  0  0  0  0
   10.5601   -1.3230   -2.2476 H   0  0  0  0  0  0  0  0  0  0  0  0
   10.6985   -0.7230   -3.9604 H   0  0  0  0  0  0  0  0  0  0  0  0
    5.3397    1.4089   -2.3558 H   0  0  0  0  0  0  0  0  0  0  0  0
    3.4754    2.3102   -0.9819 H   0  0  0  0  0  0  0  0  0  0  0  0
   -0.0674    2.8209    0.9549 H   0  0  0  0  0  0  0  0  0  0  0  0
   -0.9593    1.6894   -0.0242 H   0  0  0  0  0  0  0  0  0  0  0  0
   -1.9980    1.7122    2.1536 H   0  0  0  0  0  0  0  0  0  0  0  0
   -0.4670    1.5802    2.9933 H   0  0  0  0  0  0  0  0  0  0  0  0
   -7.6186   -0.0138    0.6772 H   0  0  0  0  0  0  0  0  0  0  0  0
  1  2  1  0
  2  3  2  0
  3  4  1  0
  4  5  2  0
  5  6  1  0
  5  7  1  0
  7  8  1  0
  8  9  1  0
  9 10  1  0
 10 11  2  0
 11 12  1  0
 12 13  1  0
 13 14  2  0
 13 15  1  0
 15 16  1  0
 16 17  1  0
 17 18  1  0
 18 19  1  0
 19 20  1  0
 20 21  1  0
 21 22  2  0
 21 23  2  0
 21 24  1  0
 24 25  2  0
 25 26  1  0
 26 27  2  0
 27 28  1  0
 28 29  2  0
 28 30  2  0
 28 31  1  0
 31 32  1  0
 32 33  1  0
 33 34  1  0
 27 35  1  0
 35 36  2  0
 20 37  1  0
 37 38  1  0
 16 39  2  0
 39 40  1  0
  7 41  2  0
 41  2  1  0
 40  9  1  0
 40 12  2  0
 38 17  1  0
 36 24  1  0
 34 32  1  0
  1 42  1  0
  1 43  1  0
  1 44  1  0
  3 45  1  0
  4 46  1  0
  6 47  1  0
  6 48  1  0
  6 49  1  0
  8 50  1  0
  8 51  1  0
 15 52  1  0
 17 53  1  0
 18 54  1  0
 18 55  1  0
 19 56  1  0
 19 57  1  0
 25 58  1  0
 26 59  1  0
 31 60  1  0
 32 61  1  0
 33 62  1  0
 33 63  1  0
 34 64  1  0
 34 65  1  0
 35 66  1  0
 36 67  1  0
 37 68  1  0
 37 69  1  0
 38 70  1  0
 38 71  1  0
 41 72  1  0
M  END
$$$$
