
     RDKit          3D

 46 49  0  0  0  0  0  0  0  0999 V2000
    3.2613    3.7649   -0.7250 O   0  0  0  0  0  0  0  0  0  0  0  0
    2.6408    2.7807   -0.3263 C   0  0  0  0  0  0  0  0  0  0  0  0
    1.2486    2.9409    0.2487 C   0  0  0  0  0  0  0  0  0  0  0  0
   -0.0357    2.2974   -0.8681 S   0  0  0  0  0  0  0  0  0  0  0  0
   -0.2216    0.7034   -0.2175 C   0  0  0  0  0  0  0  0  0  0  0  0
    0.7784   -0.0564    0.1614 N   0  0  0  0  0  0  0  0  0  0  0  0
    0.2481   -1.2104    0.6599 N   0  0  0  0  0  0  0  0  0  0  0  0
   -1.0728   -1.1167    0.6263 C   0  0  0  0  0  0  0  0  0  0  0  0
   -2.0305   -2.1418    1.1575 C   0  0  0  0  0  0  0  0  0  0  0  0
   -2.8083   -1.6863    2.3696 C   0  0  0  0  0  0  0  0  0  0  0  0
   -4.1788   -1.6391    2.5330 C   0  0  0  0  0  0  0  0  0  0  0  0
   -4.5580   -1.1499    3.8176 C   0  0  0  0  0  0  0  0  0  0  0  0
   -3.4639   -0.8681    4.6055 C   0  0  0  0  0  0  0  0  0  0  0  0
   -1.9900   -1.2037    3.8059 S   0  0  0  0  0  0  0  0  0  0  0  0
   -1.4119    0.0775    0.0166 N   0  0  0  0  0  0  0  0  0  0  0  0
   -2.7489    0.5845   -0.2330 C   0  0  0  0  0  0  0  0  0  0  0  0
   -3.4390   -0.2098   -1.2799 C   0  0  0  0  0  0  0  0  0  0  0  0
   -3.1780   -0.4660   -2.6144 C   0  0  0  0  0  0  0  0  0  0  0  0
   -4.2308   -1.2990   -3.0757 C   0  0  0  0  0  0  0  0  0  0  0  0
   -5.0677   -1.4944   -1.9992 C   0  0  0  0  0  0  0  0  0  0  0  0
   -4.5953   -0.8381   -0.9042 O   0  0  0  0  0  0  0  0  0  0  0  0
    3.1109    1.4807   -0.2873 N   0  0  0  0  0  0  0  0  0  0  0  0
    4.4205    1.0263   -0.5368 C   0  0  0  0  0  0  0  0  0  0  0  0
    5.5083    1.8664   -0.7873 C   0  0  0  0  0  0  0  0  0  0  0  0
    6.7923    1.3297   -0.9640 C   0  0  0  0  0  0  0  0  0  0  0  0
    6.9878   -0.0503   -0.8863 C   0  0  0  0  0  0  0  0  0  0  0  0
    8.7280   -0.7652   -1.0849 Br  0  0  0  0  0  0  0  0  0  0  0  0
    5.9114   -0.8990   -0.6471 C   0  0  0  0  0  0  0  0  0  0  0  0
    4.6301   -0.3597   -0.4779 C   0  0  0  0  0  0  0  0  0  0  0  0
    1.0651    4.0074    0.4096 H   0  0  0  0  0  0  0  0  0  0  0  0
    1.2045    2.4621    1.2319 H   0  0  0  0  0  0  0  0  0  0  0  0
   -1.4700   -3.0507    1.4292 H   0  0  0  0  0  0  0  0  0  0  0  0
   -2.7208   -2.4513    0.3626 H   0  0  0  0  0  0  0  0  0  0  0  0
   -4.8886   -1.9177    1.7612 H   0  0  0  0  0  0  0  0  0  0  0  0
   -5.5836   -1.0022    4.1447 H   0  0  0  0  0  0  0  0  0  0  0  0
   -3.4597   -0.4897    5.6224 H   0  0  0  0  0  0  0  0  0  0  0  0
   -3.2934    0.5802    0.7161 H   0  0  0  0  0  0  0  0  0  0  0  0
   -2.6937    1.6256   -0.5535 H   0  0  0  0  0  0  0  0  0  0  0  0
   -2.3310   -0.0976   -3.1867 H   0  0  0  0  0  0  0  0  0  0  0  0
   -4.3678   -1.7063   -4.0688 H   0  0  0  0  0  0  0  0  0  0  0  0
   -5.9916   -2.0462   -1.8610 H   0  0  0  0  0  0  0  0  0  0  0  0
    2.4195    0.7549   -0.0913 H   0  0  0  0  0  0  0  0  0  0  0  0
    5.3952    2.9441   -0.8341 H   0  0  0  0  0  0  0  0  0  0  0  0
    7.6313    2.0046   -1.1426 H   0  0  0  0  0  0  0  0  0  0  0  0
    6.0523   -1.9745   -0.5797 H   0  0  0  0  0  0  0  0  0  0  0  0
    3.7969   -1.0413   -0.2955 H   0  0  0  0  0  0  0  0  0  0  0  0
  1  2  2  0
  2  3  1  0
  3  4  1  0
  4  5  1  0
  5  6  2  0
  6  7  1  0
  7  8  2  0
  8  9  1  0
  9 10  1  0
 10 11  2  0
 11 12  1  0
 12 13  2  0
 13 14  1  0
  8 15  1  0
 15 16  1  0
 16 17  1  0
 17 18  2  0
 18 19  1  0
 19 20  2  0
 20 21  1  0
  2 22  1  0
 22 23  1  0
 23 24  2  0
 24 25  1  0
 25 26  2  0
 26 27  1  0
 26 28  1  0
 28 29  2  0
 15  5  1  0
 21 17  1  0
 29 23  1  0
 14 10  1  0
  3 30  1  0
  3 31  1  0
  9 32  1  0
  9 33  1  0
 11 34  1  0
 12 35  1  0
 13 36  1  0
 16 37  1  0
 16 38  1  0
 18 39  1  0
 19 40  1  0
 20 41  1  0
 22 42  1  0
 24 43  1  0
 25 44  1  0
 28 45  1  0
 29 46  1  0
M  END
$$$$
