
     RDKit          3D

 65 66  0  0  0  0  0  0  0  0999 V2000
   -3.7593    5.9891    0.2879 C   0  0  0  0  0  0  0  0  0  0  0  0
   -3.0727    5.0569    1.1134 O   0  0  0  0  0  0  0  0  0  0  0  0
   -2.8525    3.8125    0.5929 C   0  0  0  0  0  0  0  0  0  0  0  0
   -3.1964    3.3833   -0.6856 C   0  0  0  0  0  0  0  0  0  0  0  0
   -2.9106    2.0728   -1.0909 C   0  0  0  0  0  0  0  0  0  0  0  0
   -2.2778    1.1608   -0.2281 C   0  0  0  0  0  0  0  0  0  0  0  0
   -1.9839   -0.2618   -0.7117 C   0  0  0  0  0  0  0  0  0  0  0  0
   -2.3829   -1.4412    0.2287 C   0  0  0  0  0  0  0  0  0  0  0  0
   -1.8426   -2.5455    0.1384 O   0  0  0  0  0  0  0  0  0  0  0  0
   -3.4705   -1.2112    1.0558 N   0  0  0  0  0  0  0  0  0  0  0  0
   -3.9865   -2.1692    2.0459 C   0  0  0  0  0  0  0  0  0  0  0  0
   -2.9133   -2.5054    3.0927 C   0  0  0  0  0  0  0  0  0  0  0  0
   -5.1793   -1.5097    2.7629 C   0  0  0  0  0  0  0  0  0  0  0  0
   -4.4882   -3.4543    1.3679 C   0  0  0  0  0  0  0  0  0  0  0  0
   -0.6189   -0.4199   -1.2704 N   0  0  0  0  0  0  0  0  0  0  0  0
   -0.5191   -0.8601   -2.6744 C   0  0  0  0  0  0  0  0  0  0  0  0
   -0.8981    0.2412   -3.6674 C   0  0  0  0  0  0  0  0  0  0  0  0
   -0.1333    1.4184   -3.4342 O   0  0  0  0  0  0  0  0  0  0  0  0
    0.4611   -0.4180   -0.3886 C   0  0  0  0  0  0  0  0  0  0  0  0
    0.3222   -0.2531    0.8244 O   0  0  0  0  0  0  0  0  0  0  0  0
    1.8498   -0.6173   -0.9703 C   0  0  0  0  0  0  0  0  0  0  0  0
    2.9237   -0.4769    0.1050 C   0  0  0  0  0  0  0  0  0  0  0  0
    4.3203   -0.6376   -0.4589 C   0  0  0  0  0  0  0  0  0  0  0  0
    4.5371   -0.7443   -1.6606 O   0  0  0  0  0  0  0  0  0  0  0  0
    5.2724   -0.6338    0.5354 N   0  0  0  0  0  0  0  0  0  0  0  0
    6.6317   -0.7267    0.3383 C   0  0  0  0  0  0  0  0  0  0  0  0
    7.3625   -0.8109   -0.8672 C   0  0  0  0  0  0  0  0  0  0  0  0
    8.6756   -0.8720   -0.4714 C   0  0  0  0  0  0  0  0  0  0  0  0
    9.9615   -0.9731   -1.1815 C   0  0  0  0  0  0  0  0  0  0  0  0
    8.7327   -0.8312    0.8858 O   0  0  0  0  0  0  0  0  0  0  0  0
    7.4510   -0.7425    1.3967 N   0  0  0  0  0  0  0  0  0  0  0  0
   -1.9379    1.6109    1.0550 C   0  0  0  0  0  0  0  0  0  0  0  0
   -2.2207    2.9199    1.4570 C   0  0  0  0  0  0  0  0  0  0  0  0
   -4.7634    5.6307    0.0396 H   0  0  0  0  0  0  0  0  0  0  0  0
   -3.8692    6.9197    0.8532 H   0  0  0  0  0  0  0  0  0  0  0  0
   -3.1844    6.2148   -0.6167 H   0  0  0  0  0  0  0  0  0  0  0  0
   -3.6858    4.0408   -1.3956 H   0  0  0  0  0  0  0  0  0  0  0  0
   -3.2004    1.7760   -2.0964 H   0  0  0  0  0  0  0  0  0  0  0  0
   -2.6741   -0.4239   -1.5536 H   0  0  0  0  0  0  0  0  0  0  0  0
   -3.7673   -0.2491    1.1676 H   0  0  0  0  0  0  0  0  0  0  0  0
   -2.5197   -1.5958    3.5606 H   0  0  0  0  0  0  0  0  0  0  0  0
   -3.3208   -3.1432    3.8854 H   0  0  0  0  0  0  0  0  0  0  0  0
   -2.0652   -3.0368    2.6507 H   0  0  0  0  0  0  0  0  0  0  0  0
   -5.6169   -2.1783    3.5130 H   0  0  0  0  0  0  0  0  0  0  0  0
   -4.8730   -0.5882    3.2716 H   0  0  0  0  0  0  0  0  0  0  0  0
   -5.9671   -1.2401    2.0506 H   0  0  0  0  0  0  0  0  0  0  0  0
   -4.9726   -4.1203    2.0914 H   0  0  0  0  0  0  0  0  0  0  0  0
   -5.2175   -3.2242    0.5819 H   0  0  0  0  0  0  0  0  0  0  0  0
   -3.6759   -4.0218    0.9038 H   0  0  0  0  0  0  0  0  0  0  0  0
   -1.1666   -1.7348   -2.8052 H   0  0  0  0  0  0  0  0  0  0  0  0
    0.4960   -1.1859   -2.9047 H   0  0  0  0  0  0  0  0  0  0  0  0
   -1.9574    0.5006   -3.5980 H   0  0  0  0  0  0  0  0  0  0  0  0
   -0.7076   -0.0940   -4.6917 H   0  0  0  0  0  0  0  0  0  0  0  0
   -0.2102    1.6228   -2.4829 H   0  0  0  0  0  0  0  0  0  0  0  0
    1.9144   -1.6216   -1.4011 H   0  0  0  0  0  0  0  0  0  0  0  0
    2.0129    0.1255   -1.7579 H   0  0  0  0  0  0  0  0  0  0  0  0
    2.8592    0.5113    0.5762 H   0  0  0  0  0  0  0  0  0  0  0  0
    2.7731   -1.2335    0.8843 H   0  0  0  0  0  0  0  0  0  0  0  0
    5.0013   -0.5684    1.5088 H   0  0  0  0  0  0  0  0  0  0  0  0
    6.9912   -0.8259   -1.8811 H   0  0  0  0  0  0  0  0  0  0  0  0
   10.3681   -1.9845   -1.0885 H   0  0  0  0  0  0  0  0  0  0  0  0
   10.6900   -0.2690   -0.7681 H   0  0  0  0  0  0  0  0  0  0  0  0
    9.8401   -0.7485   -2.2455 H   0  0  0  0  0  0  0  0  0  0  0  0
   -1.4480    0.9506    1.7688 H   0  0  0  0  0  0  0  0  0  0  0  0
   -1.9403    3.2450    2.4567 H   0  0  0  0  0  0  0  0  0  0  0  0
  1  2  1  0
  2  3  1  0
  3  4  2  0
  4  5  1  0
  5  6  2  0
  6  7  1  0
  7  8  1  0
  8  9  2  0
  8 10  1  0
 10 11  1  0
 11 12  1  0
 11 13  1  0
 11 14  1  0
  7 15  1  0
 15 16  1  0
 16 17  1  0
 17 18  1  0
 15 19  1  0
 19 20  2  0
 19 21  1  0
 21 22  1  0
 22 23  1  0
 23 24  2  0
 23 25  1  0
 25 26  1  0
 26 27  1  0
 27 28  2  0
 28 29  1  0
 28 30  1  0
 30 31  1  0
  6 32  1  0
 32 33  2  0
 33  3  1  0
 31 26  2  0
  1 34  1  0
  1 35  1  0
  1 36  1  0
  4 37  1  0
  5 38  1  0
  7 39  1  0
 10 40  1  0
 12 41  1  0
 12 42  1  0
 12 43  1  0
 13 44  1  0
 13 45  1  0
 13 46  1  0
 14 47  1  0
 14 48  1  0
 14 49  1  0
 16 50  1  0
 16 51  1  0
 17 52  1  0
 17 53  1  0
 18 54  1  0
 21 55  1  0
 21 56  1  0
 22 57  1  0
 22 58  1  0
 25 59  1  0
 27 60  1  0
 29 61  1  0
 29 62  1  0
 29 63  1  0
 32 64  1  0
 33 65  1  0
M  END
$$$$
