
     RDKit          3D

 35 36  0  0  0  0  0  0  0  0999 V2000
    5.4769    0.4751    2.4213 C   0  0  0  0  0  0  0  0  0  0  0  0
    4.6809   -0.0515    1.2645 C   0  0  0  0  0  0  0  0  0  0  0  0
    5.2462   -0.9735    0.3925 C   0  0  0  0  0  0  0  0  0  0  0  0
    4.4798   -1.4396   -0.6678 C   0  0  0  0  0  0  0  0  0  0  0  0
    3.1777   -0.9733   -0.8293 C   0  0  0  0  0  0  0  0  0  0  0  0
    2.6839   -0.0524    0.0816 C   0  0  0  0  0  0  0  0  0  0  0  0
    1.4036    0.4979    0.0334 N   0  0  0  0  0  0  0  0  0  0  0  0
    0.3906    0.2383   -0.8671 C   0  0  0  0  0  0  0  0  0  0  0  0
    0.4477   -0.5640   -1.7937 O   0  0  0  0  0  0  0  0  0  0  0  0
   -0.8570    1.0865   -0.5808 C   0  0  0  0  0  0  0  0  0  0  0  0
   -1.9728    0.8011   -1.4195 O   0  0  0  0  0  0  0  0  0  0  0  0
   -2.9390    0.0818   -0.7657 C   0  0  0  0  0  0  0  0  0  0  0  0
   -2.6946   -1.2320   -0.3573 C   0  0  0  0  0  0  0  0  0  0  0  0
   -3.6951   -1.9539    0.2919 C   0  0  0  0  0  0  0  0  0  0  0  0
   -4.9419   -1.3700    0.5145 C   0  0  0  0  0  0  0  0  0  0  0  0
   -5.1929   -0.0658    0.0818 C   0  0  0  0  0  0  0  0  0  0  0  0
   -4.1963    0.6705   -0.5738 C   0  0  0  0  0  0  0  0  0  0  0  0
   -4.4733    2.0680   -1.0470 C   0  0  0  0  0  0  0  0  0  0  0  0
    3.4161    0.4117    1.1184 N   0  0  0  0  0  0  0  0  0  0  0  0
    5.7971   -0.3487    3.0661 H   0  0  0  0  0  0  0  0  0  0  0  0
    6.3579    1.0136    2.0592 H   0  0  0  0  0  0  0  0  0  0  0  0
    4.8778    1.1655    3.0237 H   0  0  0  0  0  0  0  0  0  0  0  0
    6.2628   -1.3252    0.5320 H   0  0  0  0  0  0  0  0  0  0  0  0
    4.8903   -2.1611   -1.3694 H   0  0  0  0  0  0  0  0  0  0  0  0
    2.5888   -1.3397   -1.6617 H   0  0  0  0  0  0  0  0  0  0  0  0
    1.2554    1.1607    0.7826 H   0  0  0  0  0  0  0  0  0  0  0  0
   -0.5811    2.1301   -0.7760 H   0  0  0  0  0  0  0  0  0  0  0  0
   -1.1087    1.0169    0.4876 H   0  0  0  0  0  0  0  0  0  0  0  0
   -1.7377   -1.7064   -0.5595 H   0  0  0  0  0  0  0  0  0  0  0  0
   -3.5062   -2.9755    0.6119 H   0  0  0  0  0  0  0  0  0  0  0  0
   -5.7242   -1.9342    1.0157 H   0  0  0  0  0  0  0  0  0  0  0  0
   -6.1765    0.3677    0.2521 H   0  0  0  0  0  0  0  0  0  0  0  0
   -5.5172    2.3506   -0.8753 H   0  0  0  0  0  0  0  0  0  0  0  0
   -3.8388    2.7795   -0.5080 H   0  0  0  0  0  0  0  0  0  0  0  0
   -4.2802    2.1510   -2.1215 H   0  0  0  0  0  0  0  0  0  0  0  0
  1  2  1  0
  2  3  2  0
  3  4  1  0
  4  5  2  0
  5  6  1  0
  6  7  1  0
  7  8  1  0
  8  9  2  0
  8 10  1  0
 10 11  1  0
 11 12  1  0
 12 13  2  0
 13 14  1  0
 14 15  2  0
 15 16  1  0
 16 17  2  0
 17 18  1  0
  6 19  2  0
 19  2  1  0
 17 12  1  0
  1 20  1  0
  1 21  1  0
  1 22  1  0
  3 23  1  0
  4 24  1  0
  5 25  1  0
  7 26  1  0
 10 27  1  0
 10 28  1  0
 13 29  1  0
 14 30  1  0
 15 31  1  0
 16 32  1  0
 18 33  1  0
 18 34  1  0
 18 35  1  0
M  END
$$$$
