
     RDKit          3D

 71 75  0  0  0  0  0  0  0  0999 V2000
   -1.8865    4.1254    0.2415 C   0  0  0  0  0  0  0  0  0  0  0  0
   -1.4836    2.6608    0.3345 C   0  0  0  0  0  0  0  0  0  0  0  0
   -1.9172    1.8383   -0.6501 C   0  0  0  0  0  0  0  0  0  0  0  0
   -1.8074    0.3953   -0.9483 C   0  0  0  0  0  0  0  0  0  0  0  0
   -2.9224   -0.5881   -0.5999 C   0  0  2  0  0  0  0  0  0  0  0  0
   -2.6480   -2.0044   -0.1327 C   0  0  0  0  0  0  0  0  0  0  0  0
   -2.9466   -2.2721    1.3586 C   0  0  0  0  0  0  0  0  0  0  0  0
   -2.1593   -1.4441    2.3588 C   0  0  2  0  0  0  0  0  0  0  0  0
   -2.3436   -1.7758    3.8034 C   0  0  0  0  0  0  0  0  0  0  0  0
   -2.2816   -0.0637    2.0569 O   0  0  0  0  0  0  0  0  0  0  0  0
   -0.9587   -0.6225    1.9055 C   0  0  1  0  0  0  0  0  0  0  0  0
   -0.0111    0.2577    2.6251 C   0  0  1  0  0  0  0  0  0  0  0  0
    1.2511   -0.4288    3.1254 C   0  0  1  0  0  0  0  0  0  0  0  0
    1.8620   -1.2317    2.1214 O   0  0  0  0  0  0  0  0  0  0  0  0
    2.1290    0.7699    3.5051 C   0  0  1  0  0  0  0  0  0  0  0  0
    3.6300    0.5072    3.4710 C   0  0  0  0  0  0  0  0  0  0  0  0
    3.9225   -0.6651    4.2249 O   0  0  0  0  0  0  0  0  0  0  0  0
    1.7014    1.9306    2.5729 C   0  0  0  0  0  0  0  0  0  0  0  0
    0.5012    1.4151    1.7117 C   0  0  1  0  0  0  0  0  0  0  0  0
    1.0352    0.9120    0.4788 O   0  0  0  0  0  0  0  0  0  0  0  0
    1.5498    1.8053   -0.3971 C   0  0  0  0  0  0  0  0  0  0  0  0
    1.5942    3.0176   -0.2534 O   0  0  0  0  0  0  0  0  0  0  0  0
    2.0595    1.1454   -1.6150 C   0  0  0  0  0  0  0  0  0  0  0  0
    2.1793   -0.1834   -1.7601 C   0  0  0  0  0  0  0  0  0  0  0  0
    2.6338   -0.8158   -3.0055 C   0  0  0  0  0  0  0  0  0  0  0  0
    3.6981   -0.3069   -3.7620 C   0  0  0  0  0  0  0  0  0  0  0  0
    4.0912   -0.9358   -4.9465 C   0  0  0  0  0  0  0  0  0  0  0  0
    3.4253   -2.0760   -5.3840 C   0  0  0  0  0  0  0  0  0  0  0  0
    2.3784   -2.6025   -4.6297 C   0  0  0  0  0  0  0  0  0  0  0  0
    1.9921   -1.9798   -3.4409 C   0  0  0  0  0  0  0  0  0  0  0  0
   -0.6516    2.4520    1.5969 C   0  0  0  0  0  0  0  0  0  0  0  0
   -0.8999    3.1852    2.5689 O   0  0  0  0  0  0  0  0  0  0  0  0
   -2.6914   -0.2080   -2.0518 C   0  0  0  0  0  0  0  0  0  0  0  0
   -2.0221   -1.1781   -3.0004 C   0  0  0  0  0  0  0  0  0  0  0  0
   -3.8135    0.5621   -2.7134 C   0  0  0  0  0  0  0  0  0  0  0  0
   -2.3817    4.3725   -0.7044 H   0  0  0  0  0  0  0  0  0  0  0  0
   -1.0024    4.7704    0.3133 H   0  0  0  0  0  0  0  0  0  0  0  0
   -2.5817    4.3846    1.0473 H   0  0  0  0  0  0  0  0  0  0  0  0
   -2.4781    2.3600   -1.4265 H   0  0  0  0  0  0  0  0  0  0  0  0
   -0.7864    0.0338   -0.9548 H   0  0  0  0  0  0  0  0  0  0  0  0
   -3.8145   -0.1910   -0.1214 H   0  0  0  0  0  0  0  0  0  0  0  0
   -1.6143   -2.2950   -0.3530 H   0  0  0  0  0  0  0  0  0  0  0  0
   -3.2870   -2.6768   -0.7203 H   0  0  0  0  0  0  0  0  0  0  0  0
   -2.7477   -3.3323    1.5590 H   0  0  0  0  0  0  0  0  0  0  0  0
   -4.0157   -2.1089    1.5415 H   0  0  0  0  0  0  0  0  0  0  0  0
   -1.8287   -1.0704    4.4610 H   0  0  0  0  0  0  0  0  0  0  0  0
   -3.4051   -1.7638    4.0706 H   0  0  0  0  0  0  0  0  0  0  0  0
   -1.9502   -2.7740    4.0150 H   0  0  0  0  0  0  0  0  0  0  0  0
   -0.5444   -0.9285    0.9570 H   0  0  0  0  0  0  0  0  0  0  0  0
   -0.5148    0.6972    3.5001 H   0  0  0  0  0  0  0  0  0  0  0  0
    1.0382   -1.0731    3.9858 H   0  0  0  0  0  0  0  0  0  0  0  0
    2.5973   -1.6926    2.5741 H   0  0  0  0  0  0  0  0  0  0  0  0
    1.8555    1.0520    4.5318 H   0  0  0  0  0  0  0  0  0  0  0  0
    3.9936    0.3558    2.4493 H   0  0  0  0  0  0  0  0  0  0  0  0
    4.1724    1.3518    3.9081 H   0  0  0  0  0  0  0  0  0  0  0  0
    4.8853   -0.6718    4.3697 H   0  0  0  0  0  0  0  0  0  0  0  0
    1.4264    2.7921    3.1926 H   0  0  0  0  0  0  0  0  0  0  0  0
    2.5503    2.2517    1.9601 H   0  0  0  0  0  0  0  0  0  0  0  0
    2.3230    1.8384   -2.4073 H   0  0  0  0  0  0  0  0  0  0  0  0
    1.8949   -0.8634   -0.9579 H   0  0  0  0  0  0  0  0  0  0  0  0
    4.2372    0.5790   -3.4376 H   0  0  0  0  0  0  0  0  0  0  0  0
    4.9130   -0.5282   -5.5321 H   0  0  0  0  0  0  0  0  0  0  0  0
    3.7257   -2.5585   -6.3099 H   0  0  0  0  0  0  0  0  0  0  0  0
    1.8556   -3.4894   -4.9706 H   0  0  0  0  0  0  0  0  0  0  0  0
    1.1750   -2.4060   -2.8641 H   0  0  0  0  0  0  0  0  0  0  0  0
   -1.6497   -0.6468   -3.8835 H   0  0  0  0  0  0  0  0  0  0  0  0
   -2.7398   -1.9319   -3.3364 H   0  0  0  0  0  0  0  0  0  0  0  0
   -1.1710   -1.6940   -2.5464 H   0  0  0  0  0  0  0  0  0  0  0  0
   -4.3813    1.1763   -2.0062 H   0  0  0  0  0  0  0  0  0  0  0  0
   -3.4155    1.2158   -3.4971 H   0  0  0  0  0  0  0  0  0  0  0  0
   -4.5229   -0.1322   -3.1776 H   0  0  0  0  0  0  0  0  0  0  0  0
  1  2  1  0
  2  3  2  3
  3  4  1  0
  4  5  1  0
  5  6  1  0
  6  7  1  0
  7  8  1  0
  8  9  1  1
  8 10  1  0
 10 11  1  0
 11 12  1  0
 12 13  1  0
 13 14  1  0
 13 15  1  0
 15 16  1  0
 16 17  1  0
 15 18  1  0
 18 19  1  0
 19 20  1  6
 20 21  1  0
 21 22  2  0
 21 23  1  0
 23 24  2  0
 24 25  1  0
 25 26  2  0
 26 27  1  0
 27 28  2  0
 28 29  1  0
 29 30  2  0
 19 31  1  0
 31 32  2  0
  5 33  1  0
 33 34  1  0
 33 35  1  0
 31  2  1  0
 33  4  1  0
 11  8  1  0
 19 12  1  0
 30 25  1  0
  1 36  1  0
  1 37  1  0
  1 38  1  0
  3 39  1  0
  4 40  1  0
  5 41  1  1
  6 42  1  0
  6 43  1  0
  7 44  1  0
  7 45  1  0
  9 46  1  0
  9 47  1  0
  9 48  1  0
 11 49  1  6
 12 50  1  1
 13 51  1  1
 14 52  1  0
 15 53  1  1
 16 54  1  0
 16 55  1  0
 17 56  1  0
 18 57  1  0
 18 58  1  0
 23 59  1  0
 24 60  1  0
 26 61  1  0
 27 62  1  0
 28 63  1  0
 29 64  1  0
 30 65  1  0
 34 66  1  0
 34 67  1  0
 34 68  1  0
 35 69  1  0
 35 70  1  0
 35 71  1  0
M  END
$$$$
