
     RDKit          3D

 41 44  0  0  0  0  0  0  0  0999 V2000
    6.0450    1.9178    0.5219 C   0  0  0  0  0  0  0  0  0  0  0  0
    4.8647    1.0073    0.3677 C   0  0  0  0  0  0  0  0  0  0  0  0
    5.0187   -0.3759    0.4316 C   0  0  0  0  0  0  0  0  0  0  0  0
    3.9080   -1.2245    0.3177 C   0  0  0  0  0  0  0  0  0  0  0  0
    2.6056   -0.7264    0.1500 C   0  0  0  0  0  0  0  0  0  0  0  0
    1.5019   -1.6165    0.0365 N   0  0  0  0  0  0  0  0  0  0  0  0
    1.5558   -3.0405   -0.0830 C   0  0  0  0  0  0  0  0  0  0  0  0
    2.5122   -3.7966   -0.1261 O   0  0  0  0  0  0  0  0  0  0  0  0
    0.2294   -3.4847   -0.1621 N   0  0  0  0  0  0  0  0  0  0  0  0
   -0.6112   -2.3866   -0.0897 C   0  0  0  0  0  0  0  0  0  0  0  0
   -1.9694   -2.2626   -0.1086 C   0  0  0  0  0  0  0  0  0  0  0  0
   -2.8515   -3.4551   -0.2373 C   0  0  0  0  0  0  0  0  0  0  0  0
   -4.1952   -3.1957   -0.2427 N   0  0  0  0  0  0  0  0  0  0  0  0
   -2.4081   -4.5926   -0.3319 O   0  0  0  0  0  0  0  0  0  0  0  0
   -2.5807   -1.0588   -0.0075 N   0  0  0  0  0  0  0  0  0  0  0  0
   -1.7623    0.0074    0.1171 C   0  0  0  0  0  0  0  0  0  0  0  0
   -2.3785    1.3202    0.2366 C   0  0  0  0  0  0  0  0  0  0  0  0
   -1.8774    2.5989    0.3943 C   0  0  0  0  0  0  0  0  0  0  0  0
   -2.9908    3.4721    0.4471 C   0  0  0  0  0  0  0  0  0  0  0  0
   -4.1093    2.6788    0.3188 C   0  0  0  0  0  0  0  0  0  0  0  0
   -5.5584    2.9584    0.2947 C   0  0  0  0  0  0  0  0  0  0  0  0
   -3.7464    1.3721    0.1907 O   0  0  0  0  0  0  0  0  0  0  0  0
   -0.4128   -0.0214    0.1443 N   0  0  0  0  0  0  0  0  0  0  0  0
    0.1341   -1.2363    0.0321 C   0  0  0  0  0  0  0  0  0  0  0  0
    2.4722    0.6693    0.0995 C   0  0  0  0  0  0  0  0  0  0  0  0
    3.5797    1.5238    0.2123 C   0  0  0  0  0  0  0  0  0  0  0  0
    5.8941    2.8503   -0.0322 H   0  0  0  0  0  0  0  0  0  0  0  0
    6.9535    1.4501    0.1280 H   0  0  0  0  0  0  0  0  0  0  0  0
    6.1991    2.1555    1.5789 H   0  0  0  0  0  0  0  0  0  0  0  0
    6.0045   -0.8152    0.5708 H   0  0  0  0  0  0  0  0  0  0  0  0
    4.1071   -2.2903    0.3815 H   0  0  0  0  0  0  0  0  0  0  0  0
   -0.0611   -4.4514   -0.2537 H   0  0  0  0  0  0  0  0  0  0  0  0
   -4.5326   -2.2418   -0.1606 H   0  0  0  0  0  0  0  0  0  0  0  0
   -4.8524   -3.9584   -0.3254 H   0  0  0  0  0  0  0  0  0  0  0  0
   -0.8305    2.8606    0.4635 H   0  0  0  0  0  0  0  0  0  0  0  0
   -2.9796    4.5470    0.5646 H   0  0  0  0  0  0  0  0  0  0  0  0
   -5.9966    2.6260   -0.6514 H   0  0  0  0  0  0  0  0  0  0  0  0
   -6.0627    2.4352    1.1127 H   0  0  0  0  0  0  0  0  0  0  0  0
   -5.7535    4.0297    0.4032 H   0  0  0  0  0  0  0  0  0  0  0  0
    1.5132    1.1513   -0.0459 H   0  0  0  0  0  0  0  0  0  0  0  0
    3.4224    2.5996    0.1710 H   0  0  0  0  0  0  0  0  0  0  0  0
  1  2  1  0
  2  3  2  0
  3  4  1  0
  4  5  2  0
  5  6  1  0
  6  7  1  0
  7  8  2  0
  7  9  1  0
  9 10  1  0
 10 11  2  0
 11 12  1  0
 12 13  1  0
 12 14  2  0
 11 15  1  0
 15 16  2  0
 16 17  1  0
 17 18  2  0
 18 19  1  0
 19 20  2  0
 20 21  1  0
 20 22  1  0
 16 23  1  0
 23 24  2  0
  5 25  1  0
 25 26  2  0
 26  2  1  0
 24  6  1  0
 24 10  1  0
 22 17  1  0
  1 27  1  0
  1 28  1  0
  1 29  1  0
  3 30  1  0
  4 31  1  0
  9 32  1  0
 13 33  1  0
 13 34  1  0
 18 35  1  0
 19 36  1  0
 21 37  1  0
 21 38  1  0
 21 39  1  0
 25 40  1  0
 26 41  1  0
M  END
$$$$
