
     RDKit          3D

 68 74  0  0  0  0  0  0  0  0999 V2000
   -5.6503   -3.4097   -3.0937 C   0  0  0  0  0  0  0  0  0  0  0  0
   -4.7673   -3.0913   -1.9251 C   0  0  0  0  0  0  0  0  0  0  0  0
   -5.0149   -3.6271   -0.6464 C   0  0  0  0  0  0  0  0  0  0  0  0
   -6.3589   -4.6811   -0.3612 Cl  0  0  0  0  0  0  0  0  0  0  0  0
   -4.1825   -3.3355    0.4530 C   0  0  0  0  0  0  0  0  0  0  0  0
   -3.0790   -2.4947    0.3101 C   0  0  0  0  0  0  0  0  0  0  0  0
   -2.8330   -1.9516   -0.9403 C   0  0  0  0  0  0  0  0  0  0  0  0
   -3.6617   -2.2560   -2.0315 C   0  0  0  0  0  0  0  0  0  0  0  0
   -3.1878   -1.6098   -3.1735 N   0  0  0  0  0  0  0  0  0  0  0  0
   -2.0461   -0.8502   -2.9056 C   0  0  0  0  0  0  0  0  0  0  0  0
   -1.4284   -0.2060   -3.7409 O   0  0  0  0  0  0  0  0  0  0  0  0
   -1.7423   -1.0287   -1.3987 C   0  0  1  0  0  0  0  0  0  0  0  0
   -1.8000    0.2392   -0.6270 C   0  0  0  0  0  0  0  0  0  0  0  0
   -0.5005    0.6661   -0.3101 C   0  0  0  0  0  0  0  0  0  0  0  0
   -0.5718    1.8113    0.4293 C   0  0  0  0  0  0  0  0  0  0  0  0
    0.4252    2.4772    1.0080 O   0  0  0  0  0  0  0  0  0  0  0  0
   -1.9376    2.1419    0.5334 N   0  0  0  0  0  0  0  0  0  0  0  0
   -2.4725    3.2749    1.2130 C   0  0  0  0  0  0  0  0  0  0  0  0
   -3.6469    3.1493    1.9670 C   0  0  0  0  0  0  0  0  0  0  0  0
   -4.1682    4.2599    2.6326 C   0  0  0  0  0  0  0  0  0  0  0  0
   -3.5255    5.4940    2.5440 C   0  0  0  0  0  0  0  0  0  0  0  0
   -2.3586    5.6222    1.7916 C   0  0  0  0  0  0  0  0  0  0  0  0
   -1.8278    4.5156    1.1266 C   0  0  0  0  0  0  0  0  0  0  0  0
   -2.6889    1.1667   -0.1545 C   0  0  0  0  0  0  0  0  0  0  0  0
   -4.0067    1.2159   -0.3449 O   0  0  0  0  0  0  0  0  0  0  0  0
    0.4935   -0.2604   -0.8839 C   0  0  1  0  0  0  0  0  0  0  0  0
    1.7228   -0.6436   -0.0669 C   0  0  0  0  0  0  0  0  0  0  0  0
    2.4479   -1.7589   -0.7173 N   0  0  0  0  0  0  0  0  0  0  0  0
    3.7808   -2.0128   -0.4448 C   0  0  0  0  0  0  0  0  0  0  0  0
    4.3623   -3.0401   -0.7775 O   0  0  0  0  0  0  0  0  0  0  0  0
    4.3781   -0.9972    0.2293 O   0  0  0  0  0  0  0  0  0  0  0  0
    5.7620   -1.2236    0.5055 C   0  0  0  0  0  0  0  0  0  0  0  0
    6.3170    0.0030    1.1855 C   0  0  0  0  0  0  0  0  0  0  0  0
    6.6643   -0.0218    2.5432 C   0  0  0  0  0  0  0  0  0  0  0  0
    7.1808    1.1190    3.1619 C   0  0  0  0  0  0  0  0  0  0  0  0
    7.3510    2.2946    2.4319 C   0  0  0  0  0  0  0  0  0  0  0  0
    7.0012    2.3332    1.0835 C   0  0  0  0  0  0  0  0  0  0  0  0
    6.4845    1.1943    0.4634 C   0  0  0  0  0  0  0  0  0  0  0  0
    1.6329   -2.8729   -1.2304 C   0  0  0  0  0  0  0  0  0  0  0  0
    0.3165   -2.4389   -1.9234 C   0  0  0  0  0  0  0  0  0  0  0  0
   -0.3648   -1.4751   -1.0768 N   0  0  0  0  0  0  0  0  0  0  0  0
   -5.6551   -4.4879   -3.2831 H   0  0  0  0  0  0  0  0  0  0  0  0
   -5.3189   -2.9241   -4.0154 H   0  0  0  0  0  0  0  0  0  0  0  0
   -6.6729   -3.0692   -2.9006 H   0  0  0  0  0  0  0  0  0  0  0  0
   -4.3984   -3.7664    1.4283 H   0  0  0  0  0  0  0  0  0  0  0  0
   -2.4350   -2.2655    1.1539 H   0  0  0  0  0  0  0  0  0  0  0  0
   -3.5953   -1.6517   -4.0944 H   0  0  0  0  0  0  0  0  0  0  0  0
    0.0704    3.0076    1.7436 H   0  0  0  0  0  0  0  0  0  0  0  0
   -4.1444    2.1880    2.0851 H   0  0  0  0  0  0  0  0  0  0  0  0
   -5.0721    4.1614    3.2296 H   0  0  0  0  0  0  0  0  0  0  0  0
   -3.9347    6.3585    3.0618 H   0  0  0  0  0  0  0  0  0  0  0  0
   -1.8681    6.5900    1.7143 H   0  0  0  0  0  0  0  0  0  0  0  0
   -0.9421    4.6527    0.5087 H   0  0  0  0  0  0  0  0  0  0  0  0
   -4.3113    2.1335   -0.2248 H   0  0  0  0  0  0  0  0  0  0  0  0
    0.8101    0.1321   -1.8614 H   0  0  0  0  0  0  0  0  0  0  0  0
    1.4508   -0.9787    0.9422 H   0  0  0  0  0  0  0  0  0  0  0  0
    2.3824    0.2238    0.0458 H   0  0  0  0  0  0  0  0  0  0  0  0
    6.3169   -1.3989   -0.4252 H   0  0  0  0  0  0  0  0  0  0  0  0
    5.8715   -2.1024    1.1532 H   0  0  0  0  0  0  0  0  0  0  0  0
    6.5342   -0.9292    3.1292 H   0  0  0  0  0  0  0  0  0  0  0  0
    7.4496    1.0899    4.2149 H   0  0  0  0  0  0  0  0  0  0  0  0
    7.7538    3.1814    2.9145 H   0  0  0  0  0  0  0  0  0  0  0  0
    7.1285    3.2506    0.5143 H   0  0  0  0  0  0  0  0  0  0  0  0
    6.2075    1.2378   -0.5880 H   0  0  0  0  0  0  0  0  0  0  0  0
    2.2285   -3.4736   -1.9267 H   0  0  0  0  0  0  0  0  0  0  0  0
    1.4003   -3.5107   -0.3681 H   0  0  0  0  0  0  0  0  0  0  0  0
   -0.3029   -3.3284   -2.0835 H   0  0  0  0  0  0  0  0  0  0  0  0
    0.5478   -2.0118   -2.9064 H   0  0  0  0  0  0  0  0  0  0  0  0
  1  2  1  0
  2  3  2  0
  3  4  1  0
  3  5  1  0
  5  6  2  0
  6  7  1  0
  7  8  2  0
  8  9  1  0
  9 10  1  0
 10 11  2  0
 10 12  1  0
 12 13  1  0
 13 14  1  0
 14 15  2  0
 15 16  1  0
 15 17  1  0
 17 18  1  0
 18 19  2  0
 19 20  1  0
 20 21  2  0
 21 22  1  0
 22 23  2  0
 17 24  1  0
 24 25  1  0
 14 26  1  0
 26 27  1  0
 27 28  1  0
 28 29  1  0
 29 30  2  0
 29 31  1  0
 31 32  1  0
 32 33  1  0
 33 34  2  0
 34 35  1  0
 35 36  2  0
 36 37  1  0
 37 38  2  0
 28 39  1  0
 39 40  1  0
 40 41  1  0
  8  2  1  0
 12 41  1  6
 12  7  1  0
 24 13  2  0
 41 26  1  0
 23 18  1  0
 38 33  1  0
  1 42  1  0
  1 43  1  0
  1 44  1  0
  5 45  1  0
  6 46  1  0
  9 47  1  0
 16 48  1  0
 19 49  1  0
 20 50  1  0
 21 51  1  0
 22 52  1  0
 23 53  1  0
 25 54  1  0
 26 55  1  6
 27 56  1  0
 27 57  1  0
 32 58  1  0
 32 59  1  0
 34 60  1  0
 35 61  1  0
 36 62  1  0
 37 63  1  0
 38 64  1  0
 39 65  1  0
 39 66  1  0
 40 67  1  0
 40 68  1  0
M  END
$$$$
