
     RDKit          3D

 50 51  0  0  0  0  0  0  0  0999 V2000
   -6.4660   -2.5620    1.1704 C   0  0  0  0  0  0  0  0  0  0  0  0
   -5.4748   -2.2686    0.1971 O   0  0  0  0  0  0  0  0  0  0  0  0
   -4.2633   -1.7984    0.6379 C   0  0  0  0  0  0  0  0  0  0  0  0
   -3.9347   -1.6010    1.9830 C   0  0  0  0  0  0  0  0  0  0  0  0
   -2.6722   -1.1193    2.3358 C   0  0  0  0  0  0  0  0  0  0  0  0
   -1.7244   -0.8479    1.3503 C   0  0  0  0  0  0  0  0  0  0  0  0
   -0.4544   -0.3274    1.7788 N   0  0  0  0  0  0  0  0  0  0  0  0
   -0.2603    1.1357    1.5903 C   0  0  0  0  0  0  0  0  0  0  0  0
    0.2580    1.5635    0.2219 C   0  0  0  0  0  0  0  0  0  0  0  0
   -0.5287    1.8387   -0.6814 O   0  0  0  0  0  0  0  0  0  0  0  0
    1.6433    1.5986    0.1384 N   0  0  0  0  0  0  0  0  0  0  0  0
    2.4336    2.0642   -0.9436 C   0  0  0  0  0  0  0  0  0  0  0  0
    1.8670    2.7781   -2.0134 C   0  0  0  0  0  0  0  0  0  0  0  0
    2.6476    3.2723   -3.0622 C   0  0  0  0  0  0  0  0  0  0  0  0
    4.0200    3.0786   -3.0515 C   0  0  0  0  0  0  0  0  0  0  0  0
    4.5952    2.3775   -1.9857 C   0  0  0  0  0  0  0  0  0  0  0  0
    6.0432    2.2528   -2.0063 N   0  0  0  0  0  4  0  0  0  0  0  0
    6.6709    2.8064   -1.0933 O   0  0  0  0  0  0  0  0  0  0  0  0
    6.5416    1.6230   -2.9485 O   0  0  0  0  0  1  0  0  0  0  0  0
    3.8314    1.8370   -0.9264 C   0  0  0  0  0  0  0  0  0  0  0  0
    4.4705    1.0285    0.1752 C   0  0  0  0  0  0  0  0  0  0  0  0
    0.9154   -1.2871    1.4943 S   0  0  0  0  0  6  0  0  0  0  0  0
    0.6315   -2.6783    2.5709 C   0  0  0  0  0  0  0  0  0  0  0  0
    2.0465   -0.5414    2.0180 O   0  0  0  0  0  0  0  0  0  0  0  0
    0.9250   -1.7379    0.1215 O   0  0  0  0  0  0  0  0  0  0  0  0
   -2.0493   -1.0215    0.0041 C   0  0  0  0  0  0  0  0  0  0  0  0
   -3.3138   -1.4985   -0.3610 C   0  0  0  0  0  0  0  0  0  0  0  0
   -3.7154   -1.7081   -1.6580 O   0  0  0  0  0  0  0  0  0  0  0  0
   -2.8289   -1.3006   -2.6926 C   0  0  0  0  0  0  0  0  0  0  0  0
   -6.7461   -1.6648    1.7321 H   0  0  0  0  0  0  0  0  0  0  0  0
   -6.1365   -3.3625    1.8408 H   0  0  0  0  0  0  0  0  0  0  0  0
   -7.3577   -2.9159    0.6440 H   0  0  0  0  0  0  0  0  0  0  0  0
   -4.6410   -1.8077    2.7800 H   0  0  0  0  0  0  0  0  0  0  0  0
   -2.4353   -0.9595    3.3844 H   0  0  0  0  0  0  0  0  0  0  0  0
   -1.2064    1.6644    1.7662 H   0  0  0  0  0  0  0  0  0  0  0  0
    0.4152    1.5074    2.3709 H   0  0  0  0  0  0  0  0  0  0  0  0
    2.1397    1.1374    0.8999 H   0  0  0  0  0  0  0  0  0  0  0  0
    0.8011    2.9836   -2.0590 H   0  0  0  0  0  0  0  0  0  0  0  0
    2.1752    3.8174   -3.8763 H   0  0  0  0  0  0  0  0  0  0  0  0
    4.6305    3.4747   -3.8600 H   0  0  0  0  0  0  0  0  0  0  0  0
    5.5214    0.7928   -0.0087 H   0  0  0  0  0  0  0  0  0  0  0  0
    4.4092    1.5690    1.1249 H   0  0  0  0  0  0  0  0  0  0  0  0
    3.9678    0.0605    0.2658 H   0  0  0  0  0  0  0  0  0  0  0  0
   -0.2378   -3.2364    2.2201 H   0  0  0  0  0  0  0  0  0  0  0  0
    0.4849   -2.3137    3.5892 H   0  0  0  0  0  0  0  0  0  0  0  0
    1.5174   -3.3162    2.5312 H   0  0  0  0  0  0  0  0  0  0  0  0
   -1.3079   -0.7801   -0.7501 H   0  0  0  0  0  0  0  0  0  0  0  0
   -3.3267   -1.4844   -3.6496 H   0  0  0  0  0  0  0  0  0  0  0  0
   -1.9088   -1.8939   -2.6782 H   0  0  0  0  0  0  0  0  0  0  0  0
   -2.6127   -0.2287   -2.6314 H   0  0  0  0  0  0  0  0  0  0  0  0
  1  2  1  0
  2  3  1  0
  3  4  2  0
  4  5  1  0
  5  6  2  0
  6  7  1  0
  7  8  1  0
  8  9  1  0
  9 10  2  0
  9 11  1  0
 11 12  1  0
 12 13  2  0
 13 14  1  0
 14 15  2  0
 15 16  1  0
 16 17  1  0
 17 18  2  0
 17 19  1  0
 16 20  2  0
 20 21  1  0
  7 22  1  0
 22 23  1  0
 22 24  2  0
 22 25  2  0
  6 26  1  0
 26 27  2  0
 27 28  1  0
 28 29  1  0
 27  3  1  0
 20 12  1  0
  1 30  1  0
  1 31  1  0
  1 32  1  0
  4 33  1  0
  5 34  1  0
  8 35  1  0
  8 36  1  0
 11 37  1  0
 13 38  1  0
 14 39  1  0
 15 40  1  0
 21 41  1  0
 21 42  1  0
 21 43  1  0
 23 44  1  0
 23 45  1  0
 23 46  1  0
 26 47  1  0
 29 48  1  0
 29 49  1  0
 29 50  1  0
M  CHG  2  17   1  19  -1
M  END
$$$$
