
     RDKit          3D

 55 60  0  0  0  0  0  0  0  0999 V2000
    3.6562    1.2993    2.7757 O   0  0  0  0  0  0  0  0  0  0  0  0
    3.4841    1.5449    1.5837 C   0  0  0  0  0  0  0  0  0  0  0  0
    4.0466    2.7585    1.0167 C   0  0  0  0  0  0  0  0  0  0  0  0
    3.9488    4.0841    1.5301 C   0  0  0  0  0  0  0  0  0  0  0  0
    4.6787    4.8871    0.6855 C   0  0  0  0  0  0  0  0  0  0  0  0
    5.2489    4.1444   -0.2971 O   0  0  0  0  0  0  0  0  0  0  0  0
    4.8843    2.8551   -0.0767 C   0  0  0  0  0  0  0  0  0  0  0  0
    2.7398    0.6990    0.7480 N   0  0  0  0  0  0  0  0  0  0  0  0
    2.1939    1.1126   -0.5472 C   0  0  0  0  0  0  0  0  0  0  0  0
    1.6014   -0.0655   -1.3151 C   0  0  0  0  0  0  0  0  0  0  0  0
    0.4625   -0.7967   -0.5387 C   0  0  0  0  0  0  0  0  0  0  0  0
    0.6686   -0.5981    0.9891 C   0  0  0  0  0  0  0  0  0  0  0  0
    2.1499   -0.5003    1.3412 C   0  0  0  0  0  0  0  0  0  0  0  0
    0.6205   -2.2291   -0.7336 O   0  0  0  0  0  0  0  0  0  0  0  0
    0.2621   -2.7143   -1.9584 C   0  0  0  0  0  0  0  0  0  0  0  0
    0.7748   -3.9663   -2.2974 C   0  0  0  0  0  0  0  0  0  0  0  0
    0.4746   -4.5319   -3.5385 C   0  0  0  0  0  0  0  0  0  0  0  0
   -0.3443   -3.8453   -4.4352 C   0  0  0  0  0  0  0  0  0  0  0  0
   -0.7092   -4.5450   -5.9627 Cl  0  0  0  0  0  0  0  0  0  0  0  0
   -0.8739   -2.6022   -4.0983 C   0  0  0  0  0  0  0  0  0  0  0  0
   -0.5730   -2.0461   -2.8503 C   0  0  0  0  0  0  0  0  0  0  0  0
   -1.1576   -0.7534   -2.4495 C   0  0  0  0  0  0  0  0  0  0  0  0
   -1.7973   -0.1011   -3.2683 O   0  0  0  0  0  0  0  0  0  0  0  0
   -0.9575   -0.3535   -0.9906 C   0  0  0  0  0  0  0  0  0  0  0  0
   -2.1209   -0.9289   -0.1914 C   0  0  0  0  0  0  0  0  0  0  0  0
   -2.5242    0.2890    0.5644 C   0  0  0  0  0  0  0  0  0  0  0  0
   -3.5107    0.2377    1.6688 C   0  0  0  0  0  0  0  0  0  0  0  0
   -4.1955   -0.9420    1.9856 C   0  0  0  0  0  0  0  0  0  0  0  0
   -5.1149   -0.9552    3.0397 C   0  0  0  0  0  0  0  0  0  0  0  0
   -5.3507    0.2065    3.7739 C   0  0  0  0  0  0  0  0  0  0  0  0
   -6.4802    0.1825    5.0700 Cl  0  0  0  0  0  0  0  0  0  0  0  0
   -4.6744    1.3842    3.4653 C   0  0  0  0  0  0  0  0  0  0  0  0
   -3.7556    1.4002    2.4126 C   0  0  0  0  0  0  0  0  0  0  0  0
   -1.9461    1.3830    0.1862 N   0  0  0  0  0  0  0  0  0  0  0  0
   -1.0867    1.0688   -0.8881 O   0  0  0  0  0  0  0  0  0  0  0  0
    3.4057    4.4037    2.4083 H   0  0  0  0  0  0  0  0  0  0  0  0
    4.8925    5.9469    0.6560 H   0  0  0  0  0  0  0  0  0  0  0  0
    5.2979    2.1331   -0.7677 H   0  0  0  0  0  0  0  0  0  0  0  0
    2.9764    1.5648   -1.1586 H   0  0  0  0  0  0  0  0  0  0  0  0
    1.4385    1.8841   -0.3601 H   0  0  0  0  0  0  0  0  0  0  0  0
    1.2527    0.2928   -2.2905 H   0  0  0  0  0  0  0  0  0  0  0  0
    2.4106   -0.7762   -1.5355 H   0  0  0  0  0  0  0  0  0  0  0  0
    0.1838    0.3187    1.3416 H   0  0  0  0  0  0  0  0  0  0  0  0
    0.2336   -1.4370    1.5460 H   0  0  0  0  0  0  0  0  0  0  0  0
    2.7022   -1.3640    0.9536 H   0  0  0  0  0  0  0  0  0  0  0  0
    2.2665   -0.5064    2.4290 H   0  0  0  0  0  0  0  0  0  0  0  0
    1.4193   -4.4994   -1.6020 H   0  0  0  0  0  0  0  0  0  0  0  0
    0.8839   -5.5049   -3.8010 H   0  0  0  0  0  0  0  0  0  0  0  0
   -1.5200   -2.0732   -4.7957 H   0  0  0  0  0  0  0  0  0  0  0  0
   -2.9604   -1.2516   -0.8176 H   0  0  0  0  0  0  0  0  0  0  0  0
   -1.8336   -1.7503    0.4699 H   0  0  0  0  0  0  0  0  0  0  0  0
   -4.0400   -1.8608    1.4268 H   0  0  0  0  0  0  0  0  0  0  0  0
   -5.6456   -1.8731    3.2819 H   0  0  0  0  0  0  0  0  0  0  0  0
   -4.8538    2.2906    4.0369 H   0  0  0  0  0  0  0  0  0  0  0  0
   -3.2332    2.3266    2.1792 H   0  0  0  0  0  0  0  0  0  0  0  0
  1  2  2  0
  2  3  1  0
  3  4  1  0
  4  5  2  0
  5  6  1  0
  6  7  1  0
  2  8  1  0
  8  9  1  0
  9 10  1  0
 10 11  1  0
 11 12  1  0
 12 13  1  0
 11 14  1  0
 14 15  1  0
 15 16  2  0
 16 17  1  0
 17 18  2  0
 18 19  1  0
 18 20  1  0
 20 21  2  0
 21 22  1  0
 22 23  2  0
 22 24  1  0
 24 25  1  0
 25 26  1  0
 26 27  1  0
 27 28  2  0
 28 29  1  0
 29 30  2  0
 30 31  1  0
 30 32  1  0
 32 33  2  0
 26 34  2  0
 34 35  1  0
  7  3  2  0
 13  8  1  0
 21 15  1  0
 35 24  1  0
 24 11  1  0
 33 27  1  0
  4 36  1  0
  5 37  1  0
  7 38  1  0
  9 39  1  0
  9 40  1  0
 10 41  1  0
 10 42  1  0
 12 43  1  0
 12 44  1  0
 13 45  1  0
 13 46  1  0
 16 47  1  0
 17 48  1  0
 20 49  1  0
 25 50  1  0
 25 51  1  0
 28 52  1  0
 29 53  1  0
 32 54  1  0
 33 55  1  0
M  END
$$$$
