
     RDKit          3D

 64 69  0  0  0  0  0  0  0  0999 V2000
    5.9936    2.3655    0.7880 F   0  0  0  0  0  0  0  0  0  0  0  0
    6.8895    1.5514    1.4136 C   0  0  0  0  0  0  0  0  0  0  0  0
    8.0433    2.2753    1.4934 F   0  0  0  0  0  0  0  0  0  0  0  0
    6.4537    1.4207    2.6981 F   0  0  0  0  0  0  0  0  0  0  0  0
    7.0603    0.2167    0.7155 C   0  0  0  0  0  0  0  0  0  0  0  0
    8.3548   -0.1934    0.3380 C   0  0  0  0  0  0  0  0  0  0  0  0
    8.5676   -1.4167   -0.2986 C   0  0  0  0  0  0  0  0  0  0  0  0
    7.4901   -2.2505   -0.5732 C   0  0  0  0  0  0  0  0  0  0  0  0
    6.2003   -1.8654   -0.2069 C   0  0  0  0  0  0  0  0  0  0  0  0
    5.9671   -0.6393    0.4441 C   0  0  0  0  0  0  0  0  0  0  0  0
    4.5395   -0.2825    0.8141 C   0  0  0  0  0  0  0  0  0  0  0  0
    3.7694    0.3370   -0.3669 C   0  0  0  0  0  0  0  0  0  0  0  0
    2.4509    0.8672    0.0178 N   0  0  0  0  0  0  0  0  0  0  0  0
    1.8164    1.6149   -1.0929 C   0  0  0  0  0  0  0  0  0  0  0  0
    0.6356    0.9003   -1.7831 C   0  0  0  0  0  0  0  0  0  0  0  0
   -0.4170    0.5524   -0.8150 N   0  0  0  0  0  0  0  0  0  0  0  0
   -1.6649    0.1481   -1.2771 C   0  0  0  0  0  0  0  0  0  0  0  0
   -1.7657   -0.2085   -2.5355 N   0  0  0  0  0  0  0  0  0  0  0  0
   -2.9894   -0.6606   -3.0642 C   0  0  0  0  0  0  0  0  0  0  0  0
   -3.0348   -1.0274   -4.4114 C   0  0  0  0  0  0  0  0  0  0  0  0
   -4.2223   -1.4891   -4.9868 C   0  0  0  0  0  0  0  0  0  0  0  0
   -5.3794   -1.5922   -4.2148 C   0  0  0  0  0  0  0  0  0  0  0  0
   -5.3565   -1.2323   -2.8660 C   0  0  0  0  0  0  0  0  0  0  0  0
   -4.1622   -0.7680   -2.3057 C   0  0  0  0  0  0  0  0  0  0  0  0
   -4.0571   -0.3568   -0.9666 N   0  0  0  0  0  0  0  0  0  0  0  0
   -5.0274   -0.3107    0.0070 C   0  0  0  0  0  0  0  0  0  0  0  0
   -4.4848    0.2600    1.1417 C   0  0  0  0  0  0  0  0  0  0  0  0
   -5.2243    0.5036    2.3724 C   0  0  0  0  0  0  0  0  0  0  0  0
   -6.5785    0.8668    2.3471 C   0  0  0  0  0  0  0  0  0  0  0  0
   -7.2712    1.1107    3.5369 C   0  0  0  0  0  0  0  0  0  0  0  0
   -6.6175    0.9969    4.7628 C   0  0  0  0  0  0  0  0  0  0  0  0
   -5.2708    0.6391    4.8011 C   0  0  0  0  0  0  0  0  0  0  0  0
   -4.5777    0.3953    3.6121 C   0  0  0  0  0  0  0  0  0  0  0  0
   -3.1222    0.5336    0.8396 C   0  0  0  0  0  0  0  0  0  0  0  0
   -2.8668    0.1108   -0.4533 C   0  0  0  0  0  0  0  0  0  0  0  0
    0.0575    0.2361    0.5382 C   0  0  0  0  0  0  0  0  0  0  0  0
    1.5459   -0.1781    0.5390 C   0  0  0  0  0  0  0  0  0  0  0  0
    9.2140    0.4438    0.5454 H   0  0  0  0  0  0  0  0  0  0  0  0
    9.5752   -1.7170   -0.5778 H   0  0  0  0  0  0  0  0  0  0  0  0
    7.6533   -3.2060   -1.0683 H   0  0  0  0  0  0  0  0  0  0  0  0
    5.3714   -2.5357   -0.4285 H   0  0  0  0  0  0  0  0  0  0  0  0
    4.5284    0.3983    1.6727 H   0  0  0  0  0  0  0  0  0  0  0  0
    4.0366   -1.1947    1.1605 H   0  0  0  0  0  0  0  0  0  0  0  0
    3.6678   -0.3961   -1.1780 H   0  0  0  0  0  0  0  0  0  0  0  0
    4.3736    1.1618   -0.7669 H   0  0  0  0  0  0  0  0  0  0  0  0
    2.5500    1.9108   -1.8528 H   0  0  0  0  0  0  0  0  0  0  0  0
    1.4415    2.5540   -0.6642 H   0  0  0  0  0  0  0  0  0  0  0  0
    0.2273    1.5756   -2.5437 H   0  0  0  0  0  0  0  0  0  0  0  0
    0.9921   -0.0040   -2.2904 H   0  0  0  0  0  0  0  0  0  0  0  0
   -2.1344   -0.9485   -5.0144 H   0  0  0  0  0  0  0  0  0  0  0  0
   -4.2418   -1.7664   -6.0382 H   0  0  0  0  0  0  0  0  0  0  0  0
   -6.3014   -1.9503   -4.6669 H   0  0  0  0  0  0  0  0  0  0  0  0
   -6.2705   -1.3169   -2.2882 H   0  0  0  0  0  0  0  0  0  0  0  0
   -6.0292   -0.6693   -0.1820 H   0  0  0  0  0  0  0  0  0  0  0  0
   -7.1048    0.9792    1.4021 H   0  0  0  0  0  0  0  0  0  0  0  0
   -8.3199    1.3956    3.5042 H   0  0  0  0  0  0  0  0  0  0  0  0
   -7.1571    1.1879    5.6870 H   0  0  0  0  0  0  0  0  0  0  0  0
   -4.7573    0.5483    5.7555 H   0  0  0  0  0  0  0  0  0  0  0  0
   -3.5304    0.1064    3.6661 H   0  0  0  0  0  0  0  0  0  0  0  0
   -2.4113    1.0104    1.4994 H   0  0  0  0  0  0  0  0  0  0  0  0
   -0.5159   -0.5938    0.9669 H   0  0  0  0  0  0  0  0  0  0  0  0
   -0.0803    1.1125    1.1822 H   0  0  0  0  0  0  0  0  0  0  0  0
    1.8327   -0.4185    1.5690 H   0  0  0  0  0  0  0  0  0  0  0  0
    1.6453   -1.0983   -0.0532 H   0  0  0  0  0  0  0  0  0  0  0  0
  1  2  1  0
  2  3  1  0
  2  4  1  0
  2  5  1  0
  5  6  2  0
  6  7  1  0
  7  8  2  0
  8  9  1  0
  9 10  2  0
 10 11  1  0
 11 12  1  0
 12 13  1  0
 13 14  1  0
 14 15  1  0
 15 16  1  0
 16 17  1  0
 17 18  2  0
 18 19  1  0
 19 20  2  0
 20 21  1  0
 21 22  2  0
 22 23  1  0
 23 24  2  0
 24 25  1  0
 25 26  1  0
 26 27  2  0
 27 28  1  0
 28 29  2  0
 29 30  1  0
 30 31  2  0
 31 32  1  0
 32 33  2  0
 27 34  1  0
 34 35  2  0
 16 36  1  0
 36 37  1  0
 10  5  1  0
 37 13  1  0
 35 17  1  0
 24 19  1  0
 35 25  1  0
 33 28  1  0
  6 38  1  0
  7 39  1  0
  8 40  1  0
  9 41  1  0
 11 42  1  0
 11 43  1  0
 12 44  1  0
 12 45  1  0
 14 46  1  0
 14 47  1  0
 15 48  1  0
 15 49  1  0
 20 50  1  0
 21 51  1  0
 22 52  1  0
 23 53  1  0
 26 54  1  0
 29 55  1  0
 30 56  1  0
 31 57  1  0
 32 58  1  0
 33 59  1  0
 34 60  1  0
 36 61  1  0
 36 62  1  0
 37 63  1  0
 37 64  1  0
M  END
$$$$
