
     RDKit          3D

 37 39  0  0  0  0  0  0  0  0999 V2000
   -0.7353   -1.6519    2.2787 C   0  0  0  0  0  0  0  0  0  0  0  0
   -1.0127   -0.9014    1.0678 N   0  0  0  0  0  0  0  0  0  0  0  0
   -0.0974   -0.2753    0.1991 C   0  0  0  0  0  0  0  0  0  0  0  0
    1.2440   -0.4102    0.2746 C   0  0  0  0  0  0  0  0  0  0  0  0
    2.2578    0.1730   -0.5801 C   0  0  0  0  0  0  0  0  0  0  0  0
    3.5885    0.0585   -0.4471 C   0  0  0  0  0  0  0  0  0  0  0  0
    4.6963    0.8083   -1.5604 S   0  0  0  0  0  0  0  0  0  0  0  0
    6.0997    0.2031   -0.7163 C   0  0  0  0  0  0  0  0  0  0  0  0
    7.6828    0.4592   -1.1251 S   0  0  0  0  0  0  0  0  0  0  0  0
    5.7068   -0.5310    0.3580 N   0  0  0  0  0  0  0  0  0  0  0  0
    4.3674   -0.6715    0.5973 C   0  0  0  0  0  0  0  0  0  0  0  0
    3.9149   -1.3054    1.5362 O   0  0  0  0  0  0  0  0  0  0  0  0
   -0.9158    0.5868   -0.8232 C   0  0  0  0  0  0  0  0  0  0  0  0
   -0.5791    2.0844   -0.7476 C   0  0  0  0  0  0  0  0  0  0  0  0
   -0.8139    0.0482   -2.2575 C   0  0  0  0  0  0  0  0  0  0  0  0
   -2.3412    0.3798   -0.3151 C   0  0  0  0  0  0  0  0  0  0  0  0
   -3.5295    0.9210   -0.7939 C   0  0  0  0  0  0  0  0  0  0  0  0
   -4.7171    0.5960   -0.1401 C   0  0  0  0  0  0  0  0  0  0  0  0
   -4.7029   -0.2551    0.9726 C   0  0  0  0  0  0  0  0  0  0  0  0
   -3.5009   -0.7958    1.4438 C   0  0  0  0  0  0  0  0  0  0  0  0
   -2.3181   -0.4794    0.7942 C   0  0  0  0  0  0  0  0  0  0  0  0
   -0.7449   -0.9895    3.1508 H   0  0  0  0  0  0  0  0  0  0  0  0
    0.2382   -2.1497    2.2402 H   0  0  0  0  0  0  0  0  0  0  0  0
   -1.4686   -2.4507    2.4348 H   0  0  0  0  0  0  0  0  0  0  0  0
    1.6298   -1.0442    1.0674 H   0  0  0  0  0  0  0  0  0  0  0  0
    1.8966    0.7547   -1.4216 H   0  0  0  0  0  0  0  0  0  0  0  0
    6.3750   -0.9656    0.9759 H   0  0  0  0  0  0  0  0  0  0  0  0
   -0.6416    2.4576    0.2820 H   0  0  0  0  0  0  0  0  0  0  0  0
   -1.2732    2.6813   -1.3511 H   0  0  0  0  0  0  0  0  0  0  0  0
    0.4251    2.3063   -1.1173 H   0  0  0  0  0  0  0  0  0  0  0  0
    0.1900    0.1674   -2.6739 H   0  0  0  0  0  0  0  0  0  0  0  0
   -1.5022    0.5732   -2.9306 H   0  0  0  0  0  0  0  0  0  0  0  0
   -1.0653   -1.0185   -2.3049 H   0  0  0  0  0  0  0  0  0  0  0  0
   -3.5399    1.5834   -1.6529 H   0  0  0  0  0  0  0  0  0  0  0  0
   -5.6599    1.0062   -0.4935 H   0  0  0  0  0  0  0  0  0  0  0  0
   -5.6359   -0.4997    1.4744 H   0  0  0  0  0  0  0  0  0  0  0  0
   -3.5177   -1.4537    2.3046 H   0  0  0  0  0  0  0  0  0  0  0  0
  1  2  1  0
  2  3  1  0
  3  4  2  3
  4  5  1  0
  5  6  2  3
  6  7  1  0
  7  8  1  0
  8  9  2  0
  8 10  1  0
 10 11  1  0
 11 12  2  0
  3 13  1  0
 13 14  1  0
 13 15  1  0
 13 16  1  0
 16 17  2  0
 17 18  1  0
 18 19  2  0
 19 20  1  0
 20 21  2  0
 21  2  1  0
 11  6  1  0
 21 16  1  0
  1 22  1  0
  1 23  1  0
  1 24  1  0
  4 25  1  0
  5 26  1  0
 10 27  1  0
 14 28  1  0
 14 29  1  0
 14 30  1  0
 15 31  1  0
 15 32  1  0
 15 33  1  0
 17 34  1  0
 18 35  1  0
 19 36  1  0
 20 37  1  0
M  END
$$$$
