
     RDKit          3D

 39 42  0  0  0  0  0  0  0  0999 V2000
    6.0950   -0.1126   -1.0082 C   0  0  0  0  0  0  0  0  0  0  0  0
    5.8825   -0.2409    0.3752 C   0  0  0  0  0  0  0  0  0  0  0  0
    4.5915   -0.3909    0.8924 C   0  0  0  0  0  0  0  0  0  0  0  0
    3.5262   -0.4101    0.0081 C   0  0  0  0  0  0  0  0  0  0  0  0
    3.7469   -0.2806   -1.3806 C   0  0  0  0  0  0  0  0  0  0  0  0
    5.0217   -0.1318   -1.9010 C   0  0  0  0  0  0  0  0  0  0  0  0
    2.4301   -0.3318   -2.1280 C   0  0  0  0  0  0  0  0  0  0  0  0
    1.4338   -0.5049   -0.9991 C   0  0  0  0  0  0  0  0  0  0  0  0
    0.0543   -0.6137   -1.0852 C   0  0  0  0  0  0  0  0  0  0  0  0
   -0.6808   -0.7642    0.1015 C   0  0  0  0  0  0  0  0  0  0  0  0
   -2.1897   -0.9097    0.0502 C   0  0  0  0  0  0  0  0  0  0  0  0
   -2.8973    0.0051    0.9586 N   0  0  0  0  0  0  0  0  0  0  0  0
   -4.3090   -0.4086    1.1072 C   0  0  0  0  0  0  0  0  0  0  0  0
   -5.1990    0.7548    1.5656 C   0  0  0  0  0  0  0  0  0  0  0  0
   -5.2607    1.8116    0.5976 O   0  0  0  0  0  0  0  0  0  0  0  0
   -4.0653    1.9264   -0.1867 C   0  0  0  0  0  0  0  0  0  0  0  0
   -2.8084    1.4214    0.5397 C   0  0  0  0  0  0  0  0  0  0  0  0
   -0.0014   -0.8161    1.3411 C   0  0  0  0  0  0  0  0  0  0  0  0
    1.3916   -0.7049    1.4171 C   0  0  0  0  0  0  0  0  0  0  0  0
    2.1040   -0.5485    0.2418 C   0  0  0  0  0  0  0  0  0  0  0  0
    7.1084    0.0029   -1.3857 H   0  0  0  0  0  0  0  0  0  0  0  0
    6.7336   -0.2231    1.0520 H   0  0  0  0  0  0  0  0  0  0  0  0
    4.4378   -0.4889    1.9615 H   0  0  0  0  0  0  0  0  0  0  0  0
    5.1863   -0.0327   -2.9686 H   0  0  0  0  0  0  0  0  0  0  0  0
    2.2511    0.6065   -2.6610 H   0  0  0  0  0  0  0  0  0  0  0  0
    2.4019   -1.1915   -2.8037 H   0  0  0  0  0  0  0  0  0  0  0  0
   -0.4390   -0.5808   -2.0514 H   0  0  0  0  0  0  0  0  0  0  0  0
   -2.4061   -1.9501    0.3282 H   0  0  0  0  0  0  0  0  0  0  0  0
   -2.5510   -0.7789   -0.9785 H   0  0  0  0  0  0  0  0  0  0  0  0
   -4.3662   -1.2257    1.8346 H   0  0  0  0  0  0  0  0  0  0  0  0
   -4.7016   -0.7796    0.1509 H   0  0  0  0  0  0  0  0  0  0  0  0
   -4.8420    1.1745    2.5135 H   0  0  0  0  0  0  0  0  0  0  0  0
   -6.2226    0.4036    1.7310 H   0  0  0  0  0  0  0  0  0  0  0  0
   -4.2183    1.3756   -1.1221 H   0  0  0  0  0  0  0  0  0  0  0  0
   -3.9481    2.9830   -0.4487 H   0  0  0  0  0  0  0  0  0  0  0  0
   -2.6828    2.0129    1.4556 H   0  0  0  0  0  0  0  0  0  0  0  0
   -1.9232    1.6210   -0.0739 H   0  0  0  0  0  0  0  0  0  0  0  0
   -0.5739   -0.9372    2.2596 H   0  0  0  0  0  0  0  0  0  0  0  0
    1.8901   -0.7413    2.3795 H   0  0  0  0  0  0  0  0  0  0  0  0
  1  2  2  0
  2  3  1  0
  3  4  2  0
  4  5  1  0
  5  6  2  0
  5  7  1  0
  7  8  1  0
  8  9  2  0
  9 10  1  0
 10 11  1  0
 11 12  1  0
 12 13  1  0
 13 14  1  0
 14 15  1  0
 15 16  1  0
 16 17  1  0
 10 18  2  0
 18 19  1  0
 19 20  2  0
  6  1  1  0
 20  8  1  0
 20  4  1  0
 17 12  1  0
  1 21  1  0
  2 22  1  0
  3 23  1  0
  6 24  1  0
  7 25  1  0
  7 26  1  0
  9 27  1  0
 11 28  1  0
 11 29  1  0
 13 30  1  0
 13 31  1  0
 14 32  1  0
 14 33  1  0
 16 34  1  0
 16 35  1  0
 17 36  1  0
 17 37  1  0
 18 38  1  0
 19 39  1  0
M  END
$$$$
