
     RDKit          3D

 61 67  0  0  0  0  0  0  0  0999 V2000
    3.1441   -0.2416    3.2210 O   0  0  0  0  0  0  0  0  0  0  0  0
    3.0639   -0.0801    2.0058 C   0  0  0  0  0  0  0  0  0  0  0  0
    4.3188    0.1635    1.2600 C   0  0  0  0  0  0  0  0  0  0  0  0
    5.4003   -0.7212    1.4592 C   0  0  0  0  0  0  0  0  0  0  0  0
    6.6105   -0.5185    0.7899 C   0  0  0  0  0  0  0  0  0  0  0  0
    6.7020    0.5749   -0.0462 C   0  0  0  0  0  0  0  0  0  0  0  0
    5.6540    1.4515   -0.2184 C   0  0  0  0  0  0  0  0  0  0  0  0
    4.4473    1.2814    0.4254 C   0  0  0  0  0  0  0  0  0  0  0  0
    5.9632    2.4658   -1.0699 O   0  0  0  0  0  0  0  0  0  0  0  0
    7.3231    2.1292   -1.4150 C   0  0  0  0  0  0  0  0  0  0  0  0
    7.7963    0.9261   -0.7725 O   0  0  0  0  0  0  0  0  0  0  0  0
    1.8555   -0.1189    1.3112 N   0  0  0  0  0  0  0  0  0  0  0  0
    1.7267   -0.2856   -0.1374 C   0  0  0  0  0  0  0  0  0  0  0  0
    0.6402   -1.3045   -0.4709 C   0  0  0  0  0  0  0  0  0  0  0  0
   -0.7648   -0.9158    0.0907 C   0  0  0  0  0  0  0  0  0  0  0  0
   -0.5977    0.0924    1.2612 C   0  0  0  0  0  0  0  0  0  0  0  0
    0.6342   -0.2306    2.0986 C   0  0  0  0  0  0  0  0  0  0  0  0
   -1.3558   -2.0895    0.7134 O   0  0  0  0  0  0  0  0  0  0  0  0
   -1.8223   -3.0523   -0.1360 C   0  0  0  0  0  0  0  0  0  0  0  0
   -2.0109   -4.3202    0.4167 C   0  0  0  0  0  0  0  0  0  0  0  0
   -2.4683   -5.3679   -0.3845 C   0  0  0  0  0  0  0  0  0  0  0  0
   -2.7392   -5.1376   -1.7300 C   0  0  0  0  0  0  0  0  0  0  0  0
   -3.1755   -6.1458   -2.4952 F   0  0  0  0  0  0  0  0  0  0  0  0
   -2.5711   -3.8773   -2.2897 C   0  0  0  0  0  0  0  0  0  0  0  0
   -2.1187   -2.8314   -1.4805 C   0  0  0  0  0  0  0  0  0  0  0  0
   -1.9731   -1.4711   -2.0300 C   0  0  0  0  0  0  0  0  0  0  0  0
   -2.1054   -1.2903   -3.2365 O   0  0  0  0  0  0  0  0  0  0  0  0
   -1.7163   -0.3656   -1.0092 C   0  0  0  0  0  0  0  0  0  0  0  0
   -3.0720    0.1358   -0.5269 C   0  0  0  0  0  0  0  0  0  0  0  0
   -2.8544    1.6020   -0.6665 C   0  0  0  0  0  0  0  0  0  0  0  0
   -3.8185    2.5914   -0.1298 C   0  0  0  0  0  0  0  0  0  0  0  0
   -3.5281    3.9560   -0.2523 C   0  0  0  0  0  0  0  0  0  0  0  0
   -4.4155    4.9120    0.2461 C   0  0  0  0  0  0  0  0  0  0  0  0
   -5.5961    4.5102    0.8690 C   0  0  0  0  0  0  0  0  0  0  0  0
   -5.8924    3.1533    0.9921 C   0  0  0  0  0  0  0  0  0  0  0  0
   -5.0075    2.1931    0.4932 C   0  0  0  0  0  0  0  0  0  0  0  0
   -1.7692    1.9350   -1.2889 N   0  0  0  0  0  0  0  0  0  0  0  0
   -1.1092    0.7474   -1.6746 O   0  0  0  0  0  0  0  0  0  0  0  0
    5.2928   -1.5612    2.1423 H   0  0  0  0  0  0  0  0  0  0  0  0
    7.4506   -1.1905    0.9285 H   0  0  0  0  0  0  0  0  0  0  0  0
    3.6399    1.9926    0.2941 H   0  0  0  0  0  0  0  0  0  0  0  0
    7.3864    1.9926   -2.5004 H   0  0  0  0  0  0  0  0  0  0  0  0
    7.9776    2.9597   -1.1231 H   0  0  0  0  0  0  0  0  0  0  0  0
    2.6721   -0.6243   -0.5708 H   0  0  0  0  0  0  0  0  0  0  0  0
    1.4900    0.6939   -0.5671 H   0  0  0  0  0  0  0  0  0  0  0  0
    0.9453   -2.2769   -0.0606 H   0  0  0  0  0  0  0  0  0  0  0  0
    0.6125   -1.4356   -1.5587 H   0  0  0  0  0  0  0  0  0  0  0  0
   -0.4908    1.1172    0.8892 H   0  0  0  0  0  0  0  0  0  0  0  0
   -1.4760    0.0691    1.9174 H   0  0  0  0  0  0  0  0  0  0  0  0
    0.5832   -1.2498    2.4997 H   0  0  0  0  0  0  0  0  0  0  0  0
    0.6990    0.4536    2.9526 H   0  0  0  0  0  0  0  0  0  0  0  0
   -1.7891   -4.4970    1.4671 H   0  0  0  0  0  0  0  0  0  0  0  0
   -2.6112   -6.3619    0.0298 H   0  0  0  0  0  0  0  0  0  0  0  0
   -2.7997   -3.7210   -3.3402 H   0  0  0  0  0  0  0  0  0  0  0  0
   -3.9011   -0.1595   -1.1804 H   0  0  0  0  0  0  0  0  0  0  0  0
   -3.3057   -0.1563    0.4996 H   0  0  0  0  0  0  0  0  0  0  0  0
   -2.6112    4.2845   -0.7388 H   0  0  0  0  0  0  0  0  0  0  0  0
   -4.1847    5.9698    0.1452 H   0  0  0  0  0  0  0  0  0  0  0  0
   -6.2876    5.2555    1.2558 H   0  0  0  0  0  0  0  0  0  0  0  0
   -6.8169    2.8441    1.4752 H   0  0  0  0  0  0  0  0  0  0  0  0
   -5.2736    1.1460    0.5992 H   0  0  0  0  0  0  0  0  0  0  0  0
  1  2  2  0
  2  3  1  0
  3  4  2  0
  4  5  1  0
  5  6  2  0
  6  7  1  0
  7  8  2  0
  7  9  1  0
  9 10  1  0
 10 11  1  0
  2 12  1  0
 12 13  1  0
 13 14  1  0
 14 15  1  0
 15 16  1  0
 16 17  1  0
 15 18  1  0
 18 19  1  0
 19 20  2  0
 20 21  1  0
 21 22  2  0
 22 23  1  0
 22 24  1  0
 24 25  2  0
 25 26  1  0
 26 27  2  0
 26 28  1  0
 28 29  1  0
 29 30  1  0
 30 31  1  0
 31 32  2  0
 32 33  1  0
 33 34  2  0
 34 35  1  0
 35 36  2  0
 30 37  2  0
 37 38  1  0
  8  3  1  0
 17 12  1  0
 25 19  1  0
 38 28  1  0
 11  6  1  0
 28 15  1  0
 36 31  1  0
  4 39  1  0
  5 40  1  0
  8 41  1  0
 10 42  1  0
 10 43  1  0
 13 44  1  0
 13 45  1  0
 14 46  1  0
 14 47  1  0
 16 48  1  0
 16 49  1  0
 17 50  1  0
 17 51  1  0
 20 52  1  0
 21 53  1  0
 24 54  1  0
 29 55  1  0
 29 56  1  0
 32 57  1  0
 33 58  1  0
 34 59  1  0
 35 60  1  0
 36 61  1  0
M  END
$$$$
