
     RDKit          3D

 39 39  0  0  0  0  0  0  0  0999 V2000
    0.1228   -4.3072    2.1539 C   0  0  0  0  0  0  0  0  0  0  0  0
   -0.7857   -3.5362    1.2168 C   0  0  0  0  0  0  0  0  0  0  0  0
   -0.5218   -2.1395    1.3890 O   0  0  0  0  0  0  0  0  0  0  0  0
   -1.2429   -1.3123    0.5821 C   0  0  0  0  0  0  0  0  0  0  0  0
   -2.0838   -1.7015   -0.2290 O   0  0  0  0  0  0  0  0  0  0  0  0
   -0.8898    0.1765    0.7731 C   0  0  0  0  0  0  0  0  0  0  0  0
   -1.2954    0.8908   -0.4499 N   0  0  0  0  0  0  0  0  0  0  0  0
   -1.2458    2.2561   -0.5556 C   0  0  0  0  0  0  0  0  0  0  0  0
   -0.7645    2.9703    0.3148 O   0  0  0  0  0  0  0  0  0  0  0  0
   -1.8288    2.7742   -1.8544 C   0  0  0  0  0  0  0  0  0  0  0  0
   -1.7464    4.2862   -1.9615 C   0  0  0  0  0  0  0  0  0  0  0  0
    0.5661    0.4227    0.9518 N   0  0  0  0  0  0  0  0  0  0  0  0
    1.5639    0.1220    0.0264 C   0  0  0  0  0  0  0  0  0  0  0  0
    1.4144   -0.7247   -1.0764 C   0  0  0  0  0  0  0  0  0  0  0  0
    2.4955   -1.0255   -1.9156 C   0  0  0  0  0  0  0  0  0  0  0  0
    3.7565   -0.5013   -1.6530 C   0  0  0  0  0  0  0  0  0  0  0  0
    3.9380    0.3179   -0.5460 C   0  0  0  0  0  0  0  0  0  0  0  0
    2.8543    0.6141    0.2860 C   0  0  0  0  0  0  0  0  0  0  0  0
   -1.7359    0.5442    2.0404 C   0  0  0  0  0  0  0  0  0  0  0  0
   -3.0632    0.5873    1.7504 F   0  0  0  0  0  0  0  0  0  0  0  0
   -1.4071    1.7545    2.5537 F   0  0  0  0  0  0  0  0  0  0  0  0
   -1.5888   -0.3432    3.0553 F   0  0  0  0  0  0  0  0  0  0  0  0
    1.1739   -4.0897    1.9366 H   0  0  0  0  0  0  0  0  0  0  0  0
   -0.0422   -5.3841    2.0594 H   0  0  0  0  0  0  0  0  0  0  0  0
   -0.0551   -4.0116    3.1931 H   0  0  0  0  0  0  0  0  0  0  0  0
   -1.8335   -3.7450    1.4594 H   0  0  0  0  0  0  0  0  0  0  0  0
   -0.5811   -3.8267    0.1803 H   0  0  0  0  0  0  0  0  0  0  0  0
   -1.8776    0.3670   -1.0948 H   0  0  0  0  0  0  0  0  0  0  0  0
   -2.8766    2.4597   -1.9147 H   0  0  0  0  0  0  0  0  0  0  0  0
   -1.2825    2.3174   -2.6871 H   0  0  0  0  0  0  0  0  0  0  0  0
   -0.7070    4.6275   -1.9144 H   0  0  0  0  0  0  0  0  0  0  0  0
   -2.2948    4.7686   -1.1457 H   0  0  0  0  0  0  0  0  0  0  0  0
   -2.1752    4.6252   -2.9095 H   0  0  0  0  0  0  0  0  0  0  0  0
    0.6880    1.3806    1.2962 H   0  0  0  0  0  0  0  0  0  0  0  0
    0.4602   -1.1670   -1.3359 H   0  0  0  0  0  0  0  0  0  0  0  0
    2.3481   -1.6760   -2.7740 H   0  0  0  0  0  0  0  0  0  0  0  0
    4.5947   -0.7372   -2.3027 H   0  0  0  0  0  0  0  0  0  0  0  0
    4.9206    0.7232   -0.3204 H   0  0  0  0  0  0  0  0  0  0  0  0
    3.0285    1.2425    1.1573 H   0  0  0  0  0  0  0  0  0  0  0  0
  1  2  1  0
  2  3  1  0
  3  4  1  0
  4  5  2  0
  4  6  1  0
  6  7  1  0
  7  8  1  0
  8  9  2  0
  8 10  1  0
 10 11  1  0
  6 12  1  0
 12 13  1  0
 13 14  2  0
 14 15  1  0
 15 16  2  0
 16 17  1  0
 17 18  2  0
  6 19  1  0
 19 20  1  0
 19 21  1  0
 19 22  1  0
 18 13  1  0
  1 23  1  0
  1 24  1  0
  1 25  1  0
  2 26  1  0
  2 27  1  0
  7 28  1  0
 10 29  1  0
 10 30  1  0
 11 31  1  0
 11 32  1  0
 11 33  1  0
 12 34  1  0
 14 35  1  0
 15 36  1  0
 16 37  1  0
 17 38  1  0
 18 39  1  0
M  END
$$$$
