
     RDKit          3D

 40 41  0  0  0  0  0  0  0  0999 V2000
    5.7503    0.6484   -2.0426 C   0  0  0  0  0  0  0  0  0  0  0  0
    5.9418   -1.0467   -1.4380 S   0  0  0  0  0  0  0  0  0  0  0  0
    5.5315   -0.7901    0.3166 C   0  0  0  0  0  0  0  0  0  0  0  0
    4.1004   -0.3717    0.5466 C   0  0  0  0  0  0  0  0  0  0  0  0
    3.0482   -1.2738    0.3246 C   0  0  0  0  0  0  0  0  0  0  0  0
    1.7199   -0.8854    0.5268 C   0  0  0  0  0  0  0  0  0  0  0  0
    1.4282    0.4110    0.9676 C   0  0  0  0  0  0  0  0  0  0  0  0
    0.0310    0.8759    1.1903 C   0  0  0  0  0  0  0  0  0  0  0  0
   -0.2456    2.0670    1.1066 O   0  0  0  0  0  0  0  0  0  0  0  0
   -0.8936   -0.0942    1.5141 N   0  0  0  0  0  0  0  0  0  0  0  0
   -2.2717    0.2594    1.8032 C   0  0  0  0  0  0  0  0  0  0  0  0
   -3.2040   -0.9506    1.8923 C   0  0  0  0  0  0  0  0  0  0  0  0
   -3.1654   -2.0284    0.4110 S   0  0  0  0  0  0  0  0  0  0  0  0
   -3.9477   -0.9413   -0.7636 C   0  0  0  0  0  0  0  0  0  0  0  0
   -5.3407   -0.8247   -0.8005 C   0  0  0  0  0  0  0  0  0  0  0  0
   -5.9506    0.0346   -1.7185 C   0  0  0  0  0  0  0  0  0  0  0  0
   -5.1642    0.7702   -2.6037 C   0  0  0  0  0  0  0  0  0  0  0  0
   -5.9887    1.9399   -3.8397 Br  0  0  0  0  0  0  0  0  0  0  0  0
   -3.7760    0.6517   -2.5828 C   0  0  0  0  0  0  0  0  0  0  0  0
   -3.1690   -0.2071   -1.6635 C   0  0  0  0  0  0  0  0  0  0  0  0
    2.4721    1.3184    1.1805 C   0  0  0  0  0  0  0  0  0  0  0  0
    3.7986    0.9291    0.9766 C   0  0  0  0  0  0  0  0  0  0  0  0
    4.7035    0.9599   -2.0025 H   0  0  0  0  0  0  0  0  0  0  0  0
    6.0781    0.6927   -3.0843 H   0  0  0  0  0  0  0  0  0  0  0  0
    6.3659    1.3372   -1.4583 H   0  0  0  0  0  0  0  0  0  0  0  0
    6.2296   -0.0599    0.7411 H   0  0  0  0  0  0  0  0  0  0  0  0
    5.7128   -1.7306    0.8502 H   0  0  0  0  0  0  0  0  0  0  0  0
    3.2606   -2.2838   -0.0247 H   0  0  0  0  0  0  0  0  0  0  0  0
    0.9299   -1.5979    0.3060 H   0  0  0  0  0  0  0  0  0  0  0  0
   -0.5700   -1.0128    1.7867 H   0  0  0  0  0  0  0  0  0  0  0  0
   -2.2727    0.7894    2.7629 H   0  0  0  0  0  0  0  0  0  0  0  0
   -2.6193    0.9750    1.0496 H   0  0  0  0  0  0  0  0  0  0  0  0
   -4.2317   -0.6247    2.0843 H   0  0  0  0  0  0  0  0  0  0  0  0
   -2.8997   -1.5766    2.7384 H   0  0  0  0  0  0  0  0  0  0  0  0
   -5.9615   -1.4019   -0.1192 H   0  0  0  0  0  0  0  0  0  0  0  0
   -7.0339    0.1192   -1.7377 H   0  0  0  0  0  0  0  0  0  0  0  0
   -3.1580    1.2243   -3.2693 H   0  0  0  0  0  0  0  0  0  0  0  0
   -2.0842   -0.2872   -1.6483 H   0  0  0  0  0  0  0  0  0  0  0  0
    2.2536    2.3326    1.5083 H   0  0  0  0  0  0  0  0  0  0  0  0
    4.5922    1.6534    1.1496 H   0  0  0  0  0  0  0  0  0  0  0  0
  1  2  1  0
  2  3  1  0
  3  4  1  0
  4  5  2  0
  5  6  1  0
  6  7  2  0
  7  8  1  0
  8  9  2  0
  8 10  1  0
 10 11  1  0
 11 12  1  0
 12 13  1  0
 13 14  1  0
 14 15  2  0
 15 16  1  0
 16 17  2  0
 17 18  1  0
 17 19  1  0
 19 20  2  0
  7 21  1  0
 21 22  2  0
 22  4  1  0
 20 14  1  0
  1 23  1  0
  1 24  1  0
  1 25  1  0
  3 26  1  0
  3 27  1  0
  5 28  1  0
  6 29  1  0
 10 30  1  0
 11 31  1  0
 11 32  1  0
 12 33  1  0
 12 34  1  0
 15 35  1  0
 16 36  1  0
 19 37  1  0
 20 38  1  0
 21 39  1  0
 22 40  1  0
M  END
$$$$
