
     RDKit          3D

 33 34  0  0  0  0  0  0  0  0999 V2000
   -6.4921    1.4828    0.4416 N   0  0  0  0  0  0  0  0  0  0  0  0
   -5.1204    1.2170    0.4962 C   0  0  0  0  0  0  0  0  0  0  0  0
   -4.5230    0.4005   -0.4674 C   0  0  0  0  0  0  0  0  0  0  0  0
   -3.1783    0.0275   -0.3590 C   0  0  0  0  0  0  0  0  0  0  0  0
   -2.4225    0.4370    0.7455 C   0  0  0  0  0  0  0  0  0  0  0  0
   -0.9904    0.0711    0.9175 C   0  0  0  0  0  0  0  0  0  0  0  0
   -0.3200    0.4060    1.8813 O   0  0  0  0  0  0  0  0  0  0  0  0
   -0.5540   -0.6614   -0.1376 O   0  0  0  0  0  0  0  0  0  0  0  0
    0.8191   -1.0838   -0.0713 C   0  0  0  0  0  0  0  0  0  0  0  0
    1.7442    0.0246   -0.5708 C   0  0  0  0  0  0  0  0  0  0  0  0
    3.1877   -0.4057   -0.5748 C   0  0  0  0  0  0  0  0  0  0  0  0
    3.9568   -0.3062    0.5924 C   0  0  0  0  0  0  0  0  0  0  0  0
    5.2887   -0.7226    0.5986 C   0  0  0  0  0  0  0  0  0  0  0  0
    5.8620   -1.2447   -0.5593 C   0  0  0  0  0  0  0  0  0  0  0  0
    5.1039   -1.3521   -1.7240 C   0  0  0  0  0  0  0  0  0  0  0  0
    3.7715   -0.9365   -1.7324 C   0  0  0  0  0  0  0  0  0  0  0  0
   -3.0344    1.2057    1.7424 C   0  0  0  0  0  0  0  0  0  0  0  0
   -4.3792    1.5727    1.6251 C   0  0  0  0  0  0  0  0  0  0  0  0
   -6.8779    1.4814   -0.4974 H   0  0  0  0  0  0  0  0  0  0  0  0
   -6.7768    2.2995    0.9734 H   0  0  0  0  0  0  0  0  0  0  0  0
   -5.1018    0.0446   -1.3162 H   0  0  0  0  0  0  0  0  0  0  0  0
   -2.7429   -0.5937   -1.1373 H   0  0  0  0  0  0  0  0  0  0  0  0
    0.9070   -1.9678   -0.7134 H   0  0  0  0  0  0  0  0  0  0  0  0
    1.0756   -1.4107    0.9444 H   0  0  0  0  0  0  0  0  0  0  0  0
    1.6311    0.9272    0.0425 H   0  0  0  0  0  0  0  0  0  0  0  0
    1.4386    0.3340   -1.5787 H   0  0  0  0  0  0  0  0  0  0  0  0
    3.5205    0.0973    1.5044 H   0  0  0  0  0  0  0  0  0  0  0  0
    5.8783   -0.6395    1.5078 H   0  0  0  0  0  0  0  0  0  0  0  0
    6.8994   -1.5683   -0.5537 H   0  0  0  0  0  0  0  0  0  0  0  0
    5.5510   -1.7602   -2.6266 H   0  0  0  0  0  0  0  0  0  0  0  0
    3.1929   -1.0287   -2.6487 H   0  0  0  0  0  0  0  0  0  0  0  0
   -2.4729    1.5118    2.6231 H   0  0  0  0  0  0  0  0  0  0  0  0
   -4.8419    2.1415    2.4277 H   0  0  0  0  0  0  0  0  0  0  0  0
  1  2  1  0
  2  3  2  0
  3  4  1  0
  4  5  2  0
  5  6  1  0
  6  7  2  0
  6  8  1  0
  8  9  1  0
  9 10  1  0
 10 11  1  0
 11 12  2  0
 12 13  1  0
 13 14  2  0
 14 15  1  0
 15 16  2  0
  5 17  1  0
 17 18  2  0
 18  2  1  0
 16 11  1  0
  1 19  1  0
  1 20  1  0
  3 21  1  0
  4 22  1  0
  9 23  1  0
  9 24  1  0
 10 25  1  0
 10 26  1  0
 12 27  1  0
 13 28  1  0
 14 29  1  0
 15 30  1  0
 16 31  1  0
 17 32  1  0
 18 33  1  0
M  END
$$$$
