
     RDKit          3D

 69 73  0  0  0  0  0  0  0  0999 V2000
    3.5753   -4.1032   -3.4930 C   0  0  0  0  0  0  0  0  0  0  0  0
    3.4986   -2.7259   -3.1476 O   0  0  0  0  0  0  0  0  0  0  0  0
    3.5918   -2.4155   -1.8185 C   0  0  0  0  0  0  0  0  0  0  0  0
    3.7917   -3.3206   -0.7765 C   0  0  0  0  0  0  0  0  0  0  0  0
    3.8711   -2.8775    0.5488 C   0  0  0  0  0  0  0  0  0  0  0  0
    4.0661   -3.8723    1.4695 O   0  0  0  0  0  0  0  0  0  0  0  0
    4.2136   -3.4741    2.8267 C   0  0  0  0  0  0  0  0  0  0  0  0
    3.7452   -1.5166    0.8305 C   0  0  0  0  0  0  0  0  0  0  0  0
    3.5457   -0.5934   -0.2072 C   0  0  0  0  0  0  0  0  0  0  0  0
    3.3926    0.8385    0.0841 C   0  0  0  0  0  0  0  0  0  0  0  0
    4.7198    1.6749    0.7685 S   0  0  0  0  0  0  0  0  0  0  0  0
    3.8811    3.1721    0.7954 C   0  0  0  0  0  0  0  0  0  0  0  0
    4.3727    4.4071    1.2602 C   0  0  0  0  0  0  0  0  0  0  0  0
    3.5456    5.5352    1.2132 C   0  0  0  0  0  0  0  0  0  0  0  0
    2.2527    5.4435    0.7171 C   0  0  0  0  0  0  0  0  0  0  0  0
    1.3519    6.4689    0.6229 O   0  0  0  0  0  0  0  0  0  0  0  0
    1.7838    7.7499    1.0640 C   0  0  0  0  0  0  0  0  0  0  0  0
    1.7768    4.2092    0.2584 C   0  0  0  0  0  0  0  0  0  0  0  0
    2.5894    3.0449    0.2848 C   0  0  0  0  0  0  0  0  0  0  0  0
    2.3153    1.6856   -0.1310 C   0  0  0  0  0  0  0  0  0  0  0  0
    1.0645    1.2087   -0.7145 C   0  0  0  0  0  0  0  0  0  0  0  0
    0.2550    0.3023   -0.0217 C   0  0  0  0  0  0  0  0  0  0  0  0
   -0.9400   -0.1578   -0.5874 C   0  0  0  0  0  0  0  0  0  0  0  0
   -1.3376    0.2873   -1.8480 C   0  0  0  0  0  0  0  0  0  0  0  0
   -2.4749   -0.0724   -2.5148 O   0  0  0  0  0  0  0  0  0  0  0  0
   -3.3020   -1.0992   -1.9578 C   0  0  0  0  0  0  0  0  0  0  0  0
   -4.3378   -0.4996   -0.9900 C   0  0  0  0  0  0  0  0  0  0  0  0
   -5.3059   -1.4751   -0.4548 N   0  0  0  0  0  0  0  0  0  0  0  0
   -4.6478   -2.5382    0.3224 C   0  0  0  0  0  0  0  0  0  0  0  0
   -5.6049   -3.2399    1.2840 C   0  0  0  0  0  0  0  0  0  0  0  0
   -6.1640   -2.2657    2.3193 C   0  0  0  0  0  0  0  0  0  0  0  0
   -6.2282   -0.8336    1.7910 C   0  0  0  0  0  0  0  0  0  0  0  0
   -6.3978   -0.8073    0.2740 C   0  0  0  0  0  0  0  0  0  0  0  0
   -0.5330    1.2027   -2.5321 C   0  0  0  0  0  0  0  0  0  0  0  0
    0.6621    1.6623   -1.9733 C   0  0  0  0  0  0  0  0  0  0  0  0
    3.4713   -1.0554   -1.5273 C   0  0  0  0  0  0  0  0  0  0  0  0
    3.4654   -4.1820   -4.5789 H   0  0  0  0  0  0  0  0  0  0  0  0
    2.7599   -4.6722   -3.0338 H   0  0  0  0  0  0  0  0  0  0  0  0
    4.5509   -4.5228   -3.2259 H   0  0  0  0  0  0  0  0  0  0  0  0
    3.8925   -4.3851   -0.9609 H   0  0  0  0  0  0  0  0  0  0  0  0
    5.0791   -2.8156    2.9541 H   0  0  0  0  0  0  0  0  0  0  0  0
    4.3906   -4.3752    3.4217 H   0  0  0  0  0  0  0  0  0  0  0  0
    3.2986   -3.0032    3.2002 H   0  0  0  0  0  0  0  0  0  0  0  0
    3.7901   -1.1479    1.8502 H   0  0  0  0  0  0  0  0  0  0  0  0
    5.3833    4.4859    1.6521 H   0  0  0  0  0  0  0  0  0  0  0  0
    3.9523    6.4727    1.5785 H   0  0  0  0  0  0  0  0  0  0  0  0
    2.0247    7.7389    2.1320 H   0  0  0  0  0  0  0  0  0  0  0  0
    0.9563    8.4505    0.9167 H   0  0  0  0  0  0  0  0  0  0  0  0
    2.6319    8.1068    0.4704 H   0  0  0  0  0  0  0  0  0  0  0  0
    0.7603    4.1454   -0.1243 H   0  0  0  0  0  0  0  0  0  0  0  0
    0.5481   -0.0545    0.9630 H   0  0  0  0  0  0  0  0  0  0  0  0
   -1.5327   -0.8583   -0.0101 H   0  0  0  0  0  0  0  0  0  0  0  0
   -3.8348   -1.5529   -2.8024 H   0  0  0  0  0  0  0  0  0  0  0  0
   -2.7025   -1.9031   -1.5173 H   0  0  0  0  0  0  0  0  0  0  0  0
   -4.8767    0.2764   -1.5504 H   0  0  0  0  0  0  0  0  0  0  0  0
   -3.8337    0.0291   -0.1716 H   0  0  0  0  0  0  0  0  0  0  0  0
   -4.2375   -3.2840   -0.3677 H   0  0  0  0  0  0  0  0  0  0  0  0
   -3.8083   -2.1360    0.9051 H   0  0  0  0  0  0  0  0  0  0  0  0
   -5.0952   -4.0663    1.7925 H   0  0  0  0  0  0  0  0  0  0  0  0
   -6.4310   -3.6873    0.7160 H   0  0  0  0  0  0  0  0  0  0  0  0
   -7.1633   -2.6020    2.6206 H   0  0  0  0  0  0  0  0  0  0  0  0
   -5.5469   -2.2833    3.2255 H   0  0  0  0  0  0  0  0  0  0  0  0
   -5.3099   -0.2990    2.0654 H   0  0  0  0  0  0  0  0  0  0  0  0
   -7.0544   -0.3002    2.2748 H   0  0  0  0  0  0  0  0  0  0  0  0
   -7.3325   -1.3227    0.0175 H   0  0  0  0  0  0  0  0  0  0  0  0
   -6.5371    0.2269   -0.0638 H   0  0  0  0  0  0  0  0  0  0  0  0
   -0.8375    1.5575   -3.5139 H   0  0  0  0  0  0  0  0  0  0  0  0
    1.2748    2.3673   -2.5301 H   0  0  0  0  0  0  0  0  0  0  0  0
    3.3155   -0.3537   -2.3442 H   0  0  0  0  0  0  0  0  0  0  0  0
  1  2  1  0
  2  3  1  0
  3  4  2  0
  4  5  1  0
  5  6  1  0
  6  7  1  0
  5  8  2  0
  8  9  1  0
  9 10  1  0
 10 11  1  0
 11 12  1  0
 12 13  2  0
 13 14  1  0
 14 15  2  0
 15 16  1  0
 16 17  1  0
 15 18  1  0
 18 19  2  0
 19 20  1  0
 20 21  1  0
 21 22  2  0
 22 23  1  0
 23 24  2  0
 24 25  1  0
 25 26  1  0
 26 27  1  0
 27 28  1  0
 28 29  1  0
 29 30  1  0
 30 31  1  0
 31 32  1  0
 32 33  1  0
 24 34  1  0
 34 35  2  0
  9 36  2  0
 36  3  1  0
 20 10  2  0
 35 21  1  0
 19 12  1  0
 33 28  1  0
  1 37  1  0
  1 38  1  0
  1 39  1  0
  4 40  1  0
  7 41  1  0
  7 42  1  0
  7 43  1  0
  8 44  1  0
 13 45  1  0
 14 46  1  0
 17 47  1  0
 17 48  1  0
 17 49  1  0
 18 50  1  0
 22 51  1  0
 23 52  1  0
 26 53  1  0
 26 54  1  0
 27 55  1  0
 27 56  1  0
 29 57  1  0
 29 58  1  0
 30 59  1  0
 30 60  1  0
 31 61  1  0
 31 62  1  0
 32 63  1  0
 32 64  1  0
 33 65  1  0
 33 66  1  0
 34 67  1  0
 35 68  1  0
 36 69  1  0
M  END
$$$$
