
     RDKit          3D

 50 53  0  0  0  0  0  0  0  0999 V2000
   -1.3820    2.3940    3.0487 C   0  0  0  0  0  0  0  0  0  0  0  0
   -0.2240    1.4333    2.8485 C   0  0  0  0  0  0  0  0  0  0  0  0
   -0.7141    0.1012    2.3122 C   0  0  0  0  0  0  0  0  0  0  0  0
   -1.0051   -0.7938    3.1098 O   0  0  0  0  0  0  0  0  0  0  0  0
   -0.8432   -0.0606    0.9403 N   0  0  0  0  0  0  0  0  0  0  0  0
   -1.4030   -1.3168    0.4369 C   0  0  0  0  0  0  0  0  0  0  0  0
   -2.8616   -1.1829    0.0655 C   0  0  0  0  0  0  0  0  0  0  0  0
   -3.2626   -1.1646   -1.2770 C   0  0  0  0  0  0  0  0  0  0  0  0
   -4.6120   -1.0293   -1.6135 C   0  0  0  0  0  0  0  0  0  0  0  0
   -5.5838   -0.8997   -0.6152 C   0  0  0  0  0  0  0  0  0  0  0  0
   -7.0351   -0.7880   -0.9763 C   0  0  0  0  0  0  0  0  0  0  0  0
   -5.1878   -0.9333    0.7260 C   0  0  0  0  0  0  0  0  0  0  0  0
   -3.8392   -1.0680    1.0630 C   0  0  0  0  0  0  0  0  0  0  0  0
   -0.4594    0.9406   -0.0618 C   0  0  0  0  0  0  0  0  0  0  0  0
    0.9745    0.7925   -0.5066 C   0  0  0  0  0  0  0  0  0  0  0  0
    1.8785   -0.0965   -0.0532 C   0  0  0  0  0  0  0  0  0  0  0  0
    3.2453   -0.1280   -0.5756 C   0  0  0  0  0  0  0  0  0  0  0  0
    4.1814   -1.0536   -0.1010 C   0  0  0  0  0  0  0  0  0  0  0  0
    5.4484   -1.0174   -0.6459 C   0  0  0  0  0  0  0  0  0  0  0  0
    5.7975   -0.1111   -1.6212 C   0  0  0  0  0  0  0  0  0  0  0  0
    4.9017    0.8146   -2.1117 C   0  0  0  0  0  0  0  0  0  0  0  0
    3.6127    0.7975   -1.5757 C   0  0  0  0  0  0  0  0  0  0  0  0
    2.6595    1.7131   -2.0325 N   0  0  0  0  0  0  0  0  0  0  0  0
    1.3747    1.7730   -1.5667 C   0  0  0  0  0  0  0  0  0  0  0  0
    0.5807    2.6014   -2.0025 O   0  0  0  0  0  0  0  0  0  0  0  0
    7.0914   -0.2487   -2.0168 O   0  0  0  0  0  0  0  0  0  0  0  0
    7.5188   -1.3440   -1.1795 C   0  0  0  0  0  0  0  0  0  0  0  0
    6.4797   -1.8368   -0.3078 O   0  0  0  0  0  0  0  0  0  0  0  0
   -1.0214    3.3468    3.4481 H   0  0  0  0  0  0  0  0  0  0  0  0
   -2.1099    1.9817    3.7557 H   0  0  0  0  0  0  0  0  0  0  0  0
   -1.9127    2.5929    2.1129 H   0  0  0  0  0  0  0  0  0  0  0  0
    0.5441    1.8656    2.2026 H   0  0  0  0  0  0  0  0  0  0  0  0
    0.2683    1.2447    3.8102 H   0  0  0  0  0  0  0  0  0  0  0  0
   -0.8104   -1.6387   -0.4280 H   0  0  0  0  0  0  0  0  0  0  0  0
   -1.3026   -2.1152    1.1817 H   0  0  0  0  0  0  0  0  0  0  0  0
   -2.5277   -1.2551   -2.0737 H   0  0  0  0  0  0  0  0  0  0  0  0
   -4.8999   -1.0235   -2.6624 H   0  0  0  0  0  0  0  0  0  0  0  0
   -7.4814   -1.7847   -1.0450 H   0  0  0  0  0  0  0  0  0  0  0  0
   -7.1605   -0.2767   -1.9366 H   0  0  0  0  0  0  0  0  0  0  0  0
   -7.5807   -0.2064   -0.2257 H   0  0  0  0  0  0  0  0  0  0  0  0
   -5.9266   -0.8539    1.5203 H   0  0  0  0  0  0  0  0  0  0  0  0
   -3.5522   -1.0873    2.1134 H   0  0  0  0  0  0  0  0  0  0  0  0
   -1.1303    0.8446   -0.9226 H   0  0  0  0  0  0  0  0  0  0  0  0
   -0.6117    1.9438    0.3443 H   0  0  0  0  0  0  0  0  0  0  0  0
    1.6281   -0.8200    0.7159 H   0  0  0  0  0  0  0  0  0  0  0  0
    3.9358   -1.7789    0.6668 H   0  0  0  0  0  0  0  0  0  0  0  0
    5.2008    1.5177   -2.8794 H   0  0  0  0  0  0  0  0  0  0  0  0
    2.9006    2.3871   -2.7471 H   0  0  0  0  0  0  0  0  0  0  0  0
    7.8567   -2.1653   -1.8218 H   0  0  0  0  0  0  0  0  0  0  0  0
    8.3618   -1.0074   -0.5651 H   0  0  0  0  0  0  0  0  0  0  0  0
  1  2  1  0
  2  3  1  0
  3  4  2  0
  3  5  1  0
  5  6  1  0
  6  7  1  0
  7  8  2  0
  8  9  1  0
  9 10  2  0
 10 11  1  0
 10 12  1  0
 12 13  2  0
  5 14  1  0
 14 15  1  0
 15 16  2  0
 16 17  1  0
 17 18  2  0
 18 19  1  0
 19 20  2  0
 20 21  1  0
 21 22  2  0
 22 23  1  0
 23 24  1  0
 24 25  2  0
 20 26  1  0
 26 27  1  0
 27 28  1  0
 13  7  1  0
 24 15  1  0
 22 17  1  0
 28 19  1  0
  1 29  1  0
  1 30  1  0
  1 31  1  0
  2 32  1  0
  2 33  1  0
  6 34  1  0
  6 35  1  0
  8 36  1  0
  9 37  1  0
 11 38  1  0
 11 39  1  0
 11 40  1  0
 12 41  1  0
 13 42  1  0
 14 43  1  0
 14 44  1  0
 16 45  1  0
 18 46  1  0
 21 47  1  0
 23 48  1  0
 27 49  1  0
 27 50  1  0
M  END
$$$$
