
     RDKit          3D

 49 52  0  0  0  0  0  0  0  0999 V2000
    3.9460   -1.1072    4.1867 C   0  0  0  0  0  0  0  0  0  0  0  0
    3.2658   -0.5326    3.0327 N   0  0  0  0  0  0  0  0  0  0  0  0
    3.9670    0.6498    2.5171 C   0  0  0  0  0  0  0  0  0  0  0  0
    3.2628    1.2997    1.2937 C   0  0  0  0  0  0  0  0  0  0  0  0
    2.2364    0.4578    0.6425 N   0  0  0  0  0  0  0  0  0  0  0  0
    1.8568    1.0006   -0.6652 C   0  0  0  0  0  0  0  0  0  0  0  0
    0.5040    0.4752   -1.1579 C   0  0  0  0  0  0  0  0  0  0  0  0
   -0.6515    0.9097   -0.2424 C   0  0  0  0  0  0  0  0  0  0  0  0
   -1.9515    0.3826   -0.7307 N   0  0  0  0  0  0  0  0  0  0  0  0
   -2.3719   -0.8778   -0.2081 C   0  0  0  0  0  0  0  0  0  0  0  0
   -1.5044   -1.7206    0.5257 C   0  0  0  0  0  0  0  0  0  0  0  0
   -1.9046   -2.9620    1.0362 C   0  0  0  0  0  0  0  0  0  0  0  0
   -3.1954   -3.4118    0.8260 C   0  0  0  0  0  0  0  0  0  0  0  0
   -4.0772   -2.6163    0.1051 C   0  0  0  0  0  0  0  0  0  0  0  0
   -3.6782   -1.3660   -0.4109 C   0  0  0  0  0  0  0  0  0  0  0  0
   -4.9396   -0.4719   -1.2842 S   0  0  0  0  0  0  0  0  0  0  0  0
   -4.0354    0.8952   -1.9674 C   0  0  0  0  0  0  0  0  0  0  0  0
   -4.7615    1.6998   -2.8702 C   0  0  0  0  0  0  0  0  0  0  0  0
   -4.1812    2.8130   -3.4660 C   0  0  0  0  0  0  0  0  0  0  0  0
   -2.8689    3.1240   -3.1585 C   0  0  0  0  0  0  0  0  0  0  0  0
   -2.1228    4.4924   -3.8901 Cl  0  0  0  0  0  0  0  0  0  0  0  0
   -2.1411    2.3332   -2.2627 C   0  0  0  0  0  0  0  0  0  0  0  0
   -2.6976    1.1958   -1.6334 C   0  0  0  0  0  0  0  0  0  0  0  0
    2.7206   -0.9315    0.5724 C   0  0  0  0  0  0  0  0  0  0  0  0
    3.0804   -1.5281    1.9622 C   0  0  0  0  0  0  0  0  0  0  0  0
    3.3869   -1.9659    4.5752 H   0  0  0  0  0  0  0  0  0  0  0  0
    4.9630   -1.4377    3.9453 H   0  0  0  0  0  0  0  0  0  0  0  0
    4.0078   -0.3754    5.0001 H   0  0  0  0  0  0  0  0  0  0  0  0
    4.9906    0.3765    2.2250 H   0  0  0  0  0  0  0  0  0  0  0  0
    4.0493    1.4069    3.3067 H   0  0  0  0  0  0  0  0  0  0  0  0
    2.7799    2.2270    1.6241 H   0  0  0  0  0  0  0  0  0  0  0  0
    4.0412    1.5791    0.5721 H   0  0  0  0  0  0  0  0  0  0  0  0
    2.6319    0.7905   -1.4136 H   0  0  0  0  0  0  0  0  0  0  0  0
    1.7766    2.0943   -0.6020 H   0  0  0  0  0  0  0  0  0  0  0  0
    0.5279   -0.6141   -1.2656 H   0  0  0  0  0  0  0  0  0  0  0  0
    0.3402    0.8582   -2.1716 H   0  0  0  0  0  0  0  0  0  0  0  0
   -0.4724    0.6110    0.7972 H   0  0  0  0  0  0  0  0  0  0  0  0
   -0.6771    2.0031   -0.1567 H   0  0  0  0  0  0  0  0  0  0  0  0
   -0.4734   -1.4451    0.7220 H   0  0  0  0  0  0  0  0  0  0  0  0
   -1.1985   -3.5689    1.5973 H   0  0  0  0  0  0  0  0  0  0  0  0
   -3.5173   -4.3711    1.2190 H   0  0  0  0  0  0  0  0  0  0  0  0
   -5.0917   -2.9757   -0.0538 H   0  0  0  0  0  0  0  0  0  0  0  0
   -5.7947    1.4561   -3.1124 H   0  0  0  0  0  0  0  0  0  0  0  0
   -4.7536    3.4215   -4.1594 H   0  0  0  0  0  0  0  0  0  0  0  0
   -1.1143    2.6316   -2.0856 H   0  0  0  0  0  0  0  0  0  0  0  0
    3.6123   -0.9770   -0.0677 H   0  0  0  0  0  0  0  0  0  0  0  0
    1.9684   -1.5838    0.1159 H   0  0  0  0  0  0  0  0  0  0  0  0
    2.2738   -2.2062    2.2694 H   0  0  0  0  0  0  0  0  0  0  0  0
    3.9859   -2.1381    1.8377 H   0  0  0  0  0  0  0  0  0  0  0  0
  1  2  1  0
  2  3  1  0
  3  4  1  0
  4  5  1  0
  5  6  1  0
  6  7  1  0
  7  8  1  0
  8  9  1  0
  9 10  1  0
 10 11  2  0
 11 12  1  0
 12 13  2  0
 13 14  1  0
 14 15  2  0
 15 16  1  0
 16 17  1  0
 17 18  2  0
 18 19  1  0
 19 20  2  0
 20 21  1  0
 20 22  1  0
 22 23  2  0
  5 24  1  0
 24 25  1  0
 25  2  1  0
 23  9  1  0
 15 10  1  0
 23 17  1  0
  1 26  1  0
  1 27  1  0
  1 28  1  0
  3 29  1  0
  3 30  1  0
  4 31  1  0
  4 32  1  0
  6 33  1  0
  6 34  1  0
  7 35  1  0
  7 36  1  0
  8 37  1  0
  8 38  1  0
 11 39  1  0
 12 40  1  0
 13 41  1  0
 14 42  1  0
 18 43  1  0
 19 44  1  0
 22 45  1  0
 24 46  1  0
 24 47  1  0
 25 48  1  0
 25 49  1  0
M  END
$$$$
