
     RDKit          3D

 42 44  0  0  0  0  0  0  0  0999 V2000
   -3.9253   -0.2437    4.0582 C   0  0  0  0  0  0  0  0  0  0  0  0
   -2.6526    0.2289    3.6355 O   0  0  0  0  0  0  0  0  0  0  0  0
   -2.4207    0.2674    2.2887 C   0  0  0  0  0  0  0  0  0  0  0  0
   -1.1512    0.7316    1.9295 C   0  0  0  0  0  0  0  0  0  0  0  0
   -0.7784    0.8250    0.5877 C   0  0  0  0  0  0  0  0  0  0  0  0
   -1.6793    0.4303   -0.4029 C   0  0  0  0  0  0  0  0  0  0  0  0
   -1.2229    0.5615   -2.1181 S   0  0  0  0  0  6  0  0  0  0  0  0
   -0.2998    1.6696   -2.2469 O   0  0  0  0  0  0  0  0  0  0  0  0
   -2.4462    0.5237   -2.8936 O   0  0  0  0  0  0  0  0  0  0  0  0
   -0.4341   -0.9015   -2.4358 N   0  0  0  0  0  0  0  0  0  0  0  0
    0.6884   -1.2827   -1.6433 C   0  0  0  0  0  0  0  0  0  0  0  0
    1.8519   -0.5086   -1.7036 C   0  0  0  0  0  0  0  0  0  0  0  0
    2.9382   -0.7721   -0.8611 C   0  0  0  0  0  0  0  0  0  0  0  0
    4.4077    0.2495   -0.8859 S   0  0  0  0  0  0  0  0  0  0  0  0
    3.7445    1.8601   -1.0107 C   0  0  0  0  0  0  0  0  0  0  0  0
    4.1873    2.7655   -1.9360 N   0  0  0  0  0  0  0  0  0  0  0  0
    3.3664    3.7764   -1.7754 C   0  0  0  0  0  0  0  0  0  0  0  0
    2.4789    3.4880   -0.7878 N   0  0  0  0  0  0  0  0  0  0  0  0
    2.7315    2.2854   -0.2464 N   0  0  0  0  0  0  0  0  0  0  0  0
    2.8555   -1.8690    0.0013 C   0  0  0  0  0  0  0  0  0  0  0  0
    3.8759   -2.2074    0.8487 O   0  0  0  0  0  0  0  0  0  0  0  0
    1.7176   -2.6733    0.0391 C   0  0  0  0  0  0  0  0  0  0  0  0
    0.6146   -2.3870   -0.7792 C   0  0  0  0  0  0  0  0  0  0  0  0
   -0.5982   -3.2699   -0.7053 C   0  0  0  0  0  0  0  0  0  0  0  0
   -2.9580   -0.0167   -0.0580 C   0  0  0  0  0  0  0  0  0  0  0  0
   -3.3245   -0.1018    1.2896 C   0  0  0  0  0  0  0  0  0  0  0  0
   -4.7282    0.4059    3.6945 H   0  0  0  0  0  0  0  0  0  0  0  0
   -4.0842   -1.2815    3.7469 H   0  0  0  0  0  0  0  0  0  0  0  0
   -3.9452   -0.2174    5.1520 H   0  0  0  0  0  0  0  0  0  0  0  0
   -0.4451    1.0241    2.7039 H   0  0  0  0  0  0  0  0  0  0  0  0
    0.2125    1.1928    0.3318 H   0  0  0  0  0  0  0  0  0  0  0  0
   -1.0815   -1.6278   -2.7354 H   0  0  0  0  0  0  0  0  0  0  0  0
    1.8992    0.3205   -2.4069 H   0  0  0  0  0  0  0  0  0  0  0  0
    3.3590    4.7029   -2.3312 H   0  0  0  0  0  0  0  0  0  0  0  0
    1.7012    4.0399   -0.4427 H   0  0  0  0  0  0  0  0  0  0  0  0
    4.5772   -1.5404    0.7290 H   0  0  0  0  0  0  0  0  0  0  0  0
    1.6970   -3.5187    0.7235 H   0  0  0  0  0  0  0  0  0  0  0  0
   -1.4848   -2.6878   -0.4393 H   0  0  0  0  0  0  0  0  0  0  0  0
   -0.4822   -4.0511    0.0532 H   0  0  0  0  0  0  0  0  0  0  0  0
   -0.7634   -3.7651   -1.6673 H   0  0  0  0  0  0  0  0  0  0  0  0
   -3.6757   -0.2976   -0.8255 H   0  0  0  0  0  0  0  0  0  0  0  0
   -4.3234   -0.4548    1.5251 H   0  0  0  0  0  0  0  0  0  0  0  0
  1  2  1  0
  2  3  1  0
  3  4  2  0
  4  5  1  0
  5  6  2  0
  6  7  1  0
  7  8  2  0
  7  9  2  0
  7 10  1  0
 10 11  1  0
 11 12  2  0
 12 13  1  0
 13 14  1  0
 14 15  1  0
 15 16  1  0
 16 17  2  0
 17 18  1  0
 18 19  1  0
 13 20  2  0
 20 21  1  0
 20 22  1  0
 22 23  2  0
 23 24  1  0
  6 25  1  0
 25 26  2  0
 26  3  1  0
 23 11  1  0
 19 15  2  0
  1 27  1  0
  1 28  1  0
  1 29  1  0
  4 30  1  0
  5 31  1  0
 10 32  1  0
 12 33  1  0
 17 34  1  0
 18 35  1  0
 21 36  1  0
 22 37  1  0
 24 38  1  0
 24 39  1  0
 24 40  1  0
 25 41  1  0
 26 42  1  0
M  END
$$$$
