
     RDKit          3D

 60 63  0  0  0  0  0  0  0  0999 V2000
   -5.0817    0.8946   -3.4540 C   0  0  0  0  0  0  0  0  0  0  0  0
   -4.2394   -0.2547   -2.9938 C   0  0  0  0  0  0  0  0  0  0  0  0
   -4.6585   -1.5553   -3.1717 C   0  0  0  0  0  0  0  0  0  0  0  0
   -3.8317   -2.5432   -2.6750 C   0  0  0  0  0  0  0  0  0  0  0  0
   -4.2062   -3.9896   -2.8086 C   0  0  0  0  0  0  0  0  0  0  0  0
   -2.6876   -2.2649   -2.0197 N   0  0  0  0  0  0  0  0  0  0  0  0
   -2.3610   -0.9721   -1.8844 C   0  0  0  0  0  0  0  0  0  0  0  0
   -0.9136   -0.6196   -0.9222 S   0  0  0  0  0  0  0  0  0  0  0  0
   -0.5822    1.0872   -1.4547 C   0  0  0  0  0  0  0  0  0  0  0  0
    0.3366    1.7776   -0.5024 C   0  0  0  0  0  0  0  0  0  0  0  0
    1.6070    2.0654   -0.7298 N   0  0  0  0  0  0  0  0  0  0  0  0
    2.1006    2.7315    0.3596 N   0  0  0  0  0  0  0  0  0  0  0  0
    1.1332    2.8274    1.2418 C   0  0  0  0  0  0  0  0  0  0  0  0
    1.3231    3.4550    2.8418 S   0  0  0  0  0  0  0  0  0  0  0  0
    3.0862    3.0986    3.1208 C   0  0  0  0  0  0  0  0  0  0  0  0
    3.3080    1.5995    3.2825 C   0  0  0  0  0  0  0  0  0  0  0  0
    3.3054    1.0864    4.3975 O   0  0  0  0  0  0  0  0  0  0  0  0
    3.4959    0.9439    2.0747 N   0  0  0  0  0  0  0  0  0  0  0  0
    3.6895   -0.4335    1.8483 C   0  0  0  0  0  0  0  0  0  0  0  0
    3.7944   -1.3837    2.8609 C   0  0  0  0  0  0  0  0  0  0  0  0
    4.0119   -2.7273    2.5446 C   0  0  0  0  0  0  0  0  0  0  0  0
    4.1400   -3.1472    1.2080 C   0  0  0  0  0  0  0  0  0  0  0  0
    4.4384   -4.5923    0.9170 C   0  0  0  0  0  0  0  0  0  0  0  0
    4.0192   -2.1948    0.1787 C   0  0  0  0  0  0  0  0  0  0  0  0
    4.1982   -2.5683   -1.2706 C   0  0  0  0  0  0  0  0  0  0  0  0
    3.7896   -0.8491    0.5128 C   0  0  0  0  0  0  0  0  0  0  0  0
   -0.0127    2.2649    0.7463 N   0  0  0  0  0  0  0  0  0  0  0  0
   -1.2853    2.1074    1.4312 C   0  0  0  0  0  0  0  0  0  0  0  0
   -2.3978    2.8168    0.7435 C   0  0  0  0  0  0  0  0  0  0  0  0
   -3.6761    2.4343    0.3812 C   0  0  0  0  0  0  0  0  0  0  0  0
   -4.2597    3.5520   -0.2633 C   0  0  0  0  0  0  0  0  0  0  0  0
   -3.3090    4.5455   -0.2437 C   0  0  0  0  0  0  0  0  0  0  0  0
   -2.1791    4.1112    0.3725 O   0  0  0  0  0  0  0  0  0  0  0  0
   -3.0990    0.0501   -2.3430 N   0  0  0  0  0  0  0  0  0  0  0  0
   -5.6932    1.2538   -2.6230 H   0  0  0  0  0  0  0  0  0  0  0  0
   -4.4462    1.7166   -3.7996 H   0  0  0  0  0  0  0  0  0  0  0  0
   -5.7387    0.6069   -4.2786 H   0  0  0  0  0  0  0  0  0  0  0  0
   -5.5878   -1.7910   -3.6746 H   0  0  0  0  0  0  0  0  0  0  0  0
   -3.3411   -4.6306   -2.6173 H   0  0  0  0  0  0  0  0  0  0  0  0
   -4.5614   -4.2060   -3.8190 H   0  0  0  0  0  0  0  0  0  0  0  0
   -4.9938   -4.2469   -2.0915 H   0  0  0  0  0  0  0  0  0  0  0  0
   -0.1232    1.0506   -2.4458 H   0  0  0  0  0  0  0  0  0  0  0  0
   -1.4913    1.6786   -1.5508 H   0  0  0  0  0  0  0  0  0  0  0  0
    3.4043    3.5932    4.0411 H   0  0  0  0  0  0  0  0  0  0  0  0
    3.7067    3.4990    2.3148 H   0  0  0  0  0  0  0  0  0  0  0  0
    3.3832    1.5077    1.2339 H   0  0  0  0  0  0  0  0  0  0  0  0
    3.7300   -1.1129    3.9088 H   0  0  0  0  0  0  0  0  0  0  0  0
    4.0982   -3.4457    3.3559 H   0  0  0  0  0  0  0  0  0  0  0  0
    4.4250   -5.1983    1.8302 H   0  0  0  0  0  0  0  0  0  0  0  0
    3.6957   -5.0133    0.2311 H   0  0  0  0  0  0  0  0  0  0  0  0
    5.4381   -4.6870    0.4749 H   0  0  0  0  0  0  0  0  0  0  0  0
    5.2522   -2.8036   -1.4626 H   0  0  0  0  0  0  0  0  0  0  0  0
    3.5790   -3.4329   -1.5356 H   0  0  0  0  0  0  0  0  0  0  0  0
    3.9051   -1.7504   -1.9367 H   0  0  0  0  0  0  0  0  0  0  0  0
    3.7058   -0.1117   -0.2858 H   0  0  0  0  0  0  0  0  0  0  0  0
   -1.2040    2.4841    2.4556 H   0  0  0  0  0  0  0  0  0  0  0  0
   -1.4849    1.0321    1.5034 H   0  0  0  0  0  0  0  0  0  0  0  0
   -4.1239    1.4642    0.5475 H   0  0  0  0  0  0  0  0  0  0  0  0
   -5.2496    3.6278   -0.6912 H   0  0  0  0  0  0  0  0  0  0  0  0
   -3.2808    5.5622   -0.6072 H   0  0  0  0  0  0  0  0  0  0  0  0
  1  2  1  0
  2  3  2  0
  3  4  1  0
  4  5  1  0
  4  6  2  0
  6  7  1  0
  7  8  1  0
  8  9  1  0
  9 10  1  0
 10 11  2  0
 11 12  1  0
 12 13  2  0
 13 14  1  0
 14 15  1  0
 15 16  1  0
 16 17  2  0
 16 18  1  0
 18 19  1  0
 19 20  2  0
 20 21  1  0
 21 22  2  0
 22 23  1  0
 22 24  1  0
 24 25  1  0
 24 26  2  0
 13 27  1  0
 27 28  1  0
 28 29  1  0
 29 30  2  0
 30 31  1  0
 31 32  2  0
 32 33  1  0
  7 34  2  0
 34  2  1  0
 27 10  1  0
 33 29  1  0
 26 19  1  0
  1 35  1  0
  1 36  1  0
  1 37  1  0
  3 38  1  0
  5 39  1  0
  5 40  1  0
  5 41  1  0
  9 42  1  0
  9 43  1  0
 15 44  1  0
 15 45  1  0
 18 46  1  0
 20 47  1  0
 21 48  1  0
 23 49  1  0
 23 50  1  0
 23 51  1  0
 25 52  1  0
 25 53  1  0
 25 54  1  0
 26 55  1  0
 28 56  1  0
 28 57  1  0
 30 58  1  0
 31 59  1  0
 32 60  1  0
M  END
$$$$
