
     RDKit          3D

 35 38  0  0  0  0  0  0  0  0999 V2000
   -3.5041   -3.5931   -0.1342 N   0  0  0  0  0  0  0  0  0  0  0  0
   -2.1390   -3.5602   -0.0486 C   0  0  0  0  0  0  0  0  0  0  0  0
   -1.4646   -4.5809    0.0060 O   0  0  0  0  0  0  0  0  0  0  0  0
   -1.5297   -2.2023   -0.0259 C   0  0  0  0  0  0  0  0  0  0  0  0
   -2.3782   -1.1487   -0.0869 N   0  0  0  0  0  0  0  0  0  0  0  0
   -1.8049    0.0729   -0.0528 C   0  0  0  0  0  0  0  0  0  0  0  0
   -2.6839    1.2316   -0.1054 C   0  0  0  0  0  0  0  0  0  0  0  0
   -2.4685    2.5971   -0.0671 C   0  0  0  0  0  0  0  0  0  0  0  0
   -3.7394    3.2148   -0.1597 C   0  0  0  0  0  0  0  0  0  0  0  0
   -4.6541    2.1929   -0.2489 C   0  0  0  0  0  0  0  0  0  0  0  0
   -4.0277    0.9887   -0.2169 O   0  0  0  0  0  0  0  0  0  0  0  0
   -0.4818    0.3321    0.0284 N   0  0  0  0  0  0  0  0  0  0  0  0
    0.3053   -0.7476    0.0739 C   0  0  0  0  0  0  0  0  0  0  0  0
   -0.1787   -2.0356    0.0588 C   0  0  0  0  0  0  0  0  0  0  0  0
    0.8733   -2.9324    0.1500 N   0  0  0  0  0  0  0  0  0  0  0  0
    2.0712   -2.2119    0.2304 C   0  0  0  0  0  0  0  0  0  0  0  0
    3.1675   -2.7395    0.3130 O   0  0  0  0  0  0  0  0  0  0  0  0
    1.7187   -0.8273    0.1777 N   0  0  0  0  0  0  0  0  0  0  0  0
    2.6049    0.2829    0.2331 C   0  0  0  0  0  0  0  0  0  0  0  0
    2.1987    1.5942   -0.0592 C   0  0  0  0  0  0  0  0  0  0  0  0
    3.0915    2.6739    0.0011 C   0  0  0  0  0  0  0  0  0  0  0  0
    4.4218    2.4692    0.3556 C   0  0  0  0  0  0  0  0  0  0  0  0
    5.4650    3.8429    0.4116 Cl  0  0  0  0  0  0  0  0  0  0  0  0
    4.8558    1.1772    0.6461 C   0  0  0  0  0  0  0  0  0  0  0  0
    6.4895    0.8349    1.0980 Cl  0  0  0  0  0  0  0  0  0  0  0  0
    3.9553    0.1015    0.5814 C   0  0  0  0  0  0  0  0  0  0  0  0
   -3.9835   -4.4823   -0.1518 H   0  0  0  0  0  0  0  0  0  0  0  0
   -4.0373   -2.7303   -0.1752 H   0  0  0  0  0  0  0  0  0  0  0  0
   -1.5056    3.0814    0.0193 H   0  0  0  0  0  0  0  0  0  0  0  0
   -3.9621    4.2727   -0.1607 H   0  0  0  0  0  0  0  0  0  0  0  0
   -5.7315    2.1568   -0.3356 H   0  0  0  0  0  0  0  0  0  0  0  0
    0.7931   -3.9432    0.1618 H   0  0  0  0  0  0  0  0  0  0  0  0
    1.1862    1.8273   -0.3702 H   0  0  0  0  0  0  0  0  0  0  0  0
    2.7344    3.6733   -0.2379 H   0  0  0  0  0  0  0  0  0  0  0  0
    4.3423   -0.8828    0.8312 H   0  0  0  0  0  0  0  0  0  0  0  0
  1  2  1  0
  2  3  2  0
  2  4  1  0
  4  5  2  0
  5  6  1  0
  6  7  1  0
  7  8  2  0
  8  9  1  0
  9 10  2  0
 10 11  1  0
  6 12  2  0
 12 13  1  0
 13 14  2  0
 14 15  1  0
 15 16  1  0
 16 17  2  0
 16 18  1  0
 18 19  1  0
 19 20  2  0
 20 21  1  0
 21 22  2  0
 22 23  1  0
 22 24  1  0
 24 25  1  0
 24 26  2  0
 14  4  1  0
 26 19  1  0
 11  7  1  0
 18 13  1  0
  1 27  1  0
  1 28  1  0
  8 29  1  0
  9 30  1  0
 10 31  1  0
 15 32  1  0
 20 33  1  0
 21 34  1  0
 26 35  1  0
M  END
$$$$
