
     RDKit          3D

 46 47  0  0  0  0  0  0  0  0999 V2000
    8.5690    0.4206   -0.4269 C   0  0  0  0  0  0  0  0  0  0  0  0
    7.6926    0.1649   -1.5172 O   0  0  0  0  0  0  0  0  0  0  0  0
    6.3942   -0.1342   -1.2069 C   0  0  0  0  0  0  0  0  0  0  0  0
    5.8696   -0.2877    0.0770 C   0  0  0  0  0  0  0  0  0  0  0  0
    4.5155   -0.5979    0.2533 C   0  0  0  0  0  0  0  0  0  0  0  0
    3.6707   -0.7609   -0.8507 C   0  0  0  0  0  0  0  0  0  0  0  0
    2.2022   -1.0546   -0.6621 C   0  0  0  0  0  0  0  0  0  0  0  0
    1.4223    0.2213   -0.3534 C   0  0  0  0  0  0  0  0  0  0  0  0
   -0.0686   -0.0301   -0.2988 C   0  0  0  0  0  0  0  0  0  0  0  0
   -0.5982   -1.0905   -0.6153 O   0  0  0  0  0  0  0  0  0  0  0  0
   -0.7774    1.0804    0.1141 N   0  0  0  0  0  0  0  0  0  0  0  0
   -2.1650    0.9963    0.2258 N   0  0  0  0  0  0  0  0  0  0  0  0
   -2.8572    2.0937    0.6944 C   0  0  0  0  0  0  0  0  0  0  0  0
   -2.2734    3.0973    1.1189 O   0  0  0  0  0  0  0  0  0  0  0  0
   -4.3656    2.0437    0.5937 C   0  0  0  0  0  0  0  0  0  0  0  0
   -4.9066    0.6999    0.6796 N   0  0  0  0  0  0  0  0  0  0  0  0
   -4.7173   -0.1280   -0.3704 N   0  0  0  0  0  0  0  0  0  0  0  0
   -5.3284   -1.2636   -0.0171 C   0  0  0  0  0  0  0  0  0  0  0  0
   -5.3448   -2.4220   -0.9443 C   0  0  0  0  0  0  0  0  0  0  0  0
   -5.9041   -1.1571    1.2665 C   0  0  0  0  0  0  0  0  0  0  0  0
   -5.6115    0.1196    1.7032 C   0  0  0  0  0  0  0  0  0  0  0  0
   -5.9448    0.8032    2.9755 C   0  0  0  0  0  0  0  0  0  0  0  0
    4.2006   -0.6034   -2.1376 C   0  0  0  0  0  0  0  0  0  0  0  0
    5.5527   -0.2965   -2.3103 C   0  0  0  0  0  0  0  0  0  0  0  0
    8.6898   -0.4729    0.1954 H   0  0  0  0  0  0  0  0  0  0  0  0
    8.2233    1.2759    0.1625 H   0  0  0  0  0  0  0  0  0  0  0  0
    9.5507    0.6750   -0.8406 H   0  0  0  0  0  0  0  0  0  0  0  0
    6.4852   -0.1746    0.9633 H   0  0  0  0  0  0  0  0  0  0  0  0
    4.1275   -0.7176    1.2642 H   0  0  0  0  0  0  0  0  0  0  0  0
    1.8066   -1.5430   -1.5628 H   0  0  0  0  0  0  0  0  0  0  0  0
    2.0762   -1.7827    0.1504 H   0  0  0  0  0  0  0  0  0  0  0  0
    1.7447    0.6405    0.6088 H   0  0  0  0  0  0  0  0  0  0  0  0
    1.6065    0.9781   -1.1281 H   0  0  0  0  0  0  0  0  0  0  0  0
   -0.3402    1.9315    0.4613 H   0  0  0  0  0  0  0  0  0  0  0  0
   -2.6379    0.2188   -0.2518 H   0  0  0  0  0  0  0  0  0  0  0  0
   -4.6771    2.4686   -0.3667 H   0  0  0  0  0  0  0  0  0  0  0  0
   -4.7974    2.6431    1.4012 H   0  0  0  0  0  0  0  0  0  0  0  0
   -5.9640   -2.1976   -1.8217 H   0  0  0  0  0  0  0  0  0  0  0  0
   -4.3325   -2.6572   -1.2885 H   0  0  0  0  0  0  0  0  0  0  0  0
   -5.7520   -3.3189   -0.4608 H   0  0  0  0  0  0  0  0  0  0  0  0
   -6.4585   -1.9127    1.8076 H   0  0  0  0  0  0  0  0  0  0  0  0
   -6.6110    1.6529    2.7930 H   0  0  0  0  0  0  0  0  0  0  0  0
   -6.4520    0.1157    3.6644 H   0  0  0  0  0  0  0  0  0  0  0  0
   -5.0364    1.1672    3.4705 H   0  0  0  0  0  0  0  0  0  0  0  0
    3.5686   -0.7224   -3.0152 H   0  0  0  0  0  0  0  0  0  0  0  0
    5.9535   -0.1818   -3.3153 H   0  0  0  0  0  0  0  0  0  0  0  0
  1  2  1  0
  2  3  1  0
  3  4  2  0
  4  5  1  0
  5  6  2  0
  6  7  1  0
  7  8  1  0
  8  9  1  0
  9 10  2  0
  9 11  1  0
 11 12  1  0
 12 13  1  0
 13 14  2  0
 13 15  1  0
 15 16  1  0
 16 17  1  0
 17 18  2  0
 18 19  1  0
 18 20  1  0
 20 21  2  0
 21 22  1  0
  6 23  1  0
 23 24  2  0
 24  3  1  0
 21 16  1  0
  1 25  1  0
  1 26  1  0
  1 27  1  0
  4 28  1  0
  5 29  1  0
  7 30  1  0
  7 31  1  0
  8 32  1  0
  8 33  1  0
 11 34  1  0
 12 35  1  0
 15 36  1  0
 15 37  1  0
 19 38  1  0
 19 39  1  0
 19 40  1  0
 20 41  1  0
 22 42  1  0
 22 43  1  0
 22 44  1  0
 23 45  1  0
 24 46  1  0
M  END
$$$$
