
     RDKit          3D

 36 35  0  0  0  0  0  0  0  0999 V2000
    1.7853    1.5780   -1.2828 C   0  0  0  0  0  0  0  0  0  0  0  0
    2.9277    0.7962   -0.6571 C   0  0  0  0  0  0  0  0  0  0  0  0
    2.5460   -0.5863   -0.2976 N   0  0  0  0  0  0  0  0  0  0  0  0
    2.6377   -1.5618   -1.4039 C   0  0  0  0  0  0  0  0  0  0  0  0
    1.3019   -1.8429   -2.0800 C   0  0  0  0  0  0  0  0  0  0  0  0
    2.1207   -0.9701    0.9989 C   0  0  0  0  0  0  0  0  0  0  0  0
    1.8279   -2.5671    1.4758 S   0  0  0  0  0  0  0  0  0  0  0  0
    2.0188    0.3306    2.2123 S   0  0  0  0  0  0  0  0  0  0  0  0
    0.1220    0.1734    3.0104 S   0  0  0  0  0  0  0  0  0  0  0  0
   -0.8777    1.2595    2.0168 C   0  0  0  0  0  0  0  0  0  0  0  0
   -0.4906    2.9068    1.9639 S   0  0  0  0  0  0  0  0  0  0  0  0
   -2.0089    0.6817    1.3907 N   0  0  0  0  0  0  0  0  0  0  0  0
   -2.4280   -0.7226    1.5864 C   0  0  0  0  0  0  0  0  0  0  0  0
   -2.0684   -1.6125    0.4095 C   0  0  0  0  0  0  0  0  0  0  0  0
   -2.8900    1.4704    0.5036 C   0  0  0  0  0  0  0  0  0  0  0  0
   -2.3451    1.6269   -0.9108 C   0  0  0  0  0  0  0  0  0  0  0  0
    1.5570    1.2078   -2.2873 H   0  0  0  0  0  0  0  0  0  0  0  0
    0.8771    1.5026   -0.6816 H   0  0  0  0  0  0  0  0  0  0  0  0
    2.0542    2.6343   -1.3789 H   0  0  0  0  0  0  0  0  0  0  0  0
    3.3064    1.3349    0.2152 H   0  0  0  0  0  0  0  0  0  0  0  0
    3.7759    0.7561   -1.3513 H   0  0  0  0  0  0  0  0  0  0  0  0
    3.0688   -2.4984   -1.0348 H   0  0  0  0  0  0  0  0  0  0  0  0
    3.3411   -1.1845   -2.1550 H   0  0  0  0  0  0  0  0  0  0  0  0
    0.8523   -0.9309   -2.4819 H   0  0  0  0  0  0  0  0  0  0  0  0
    0.5813   -2.2897   -1.3901 H   0  0  0  0  0  0  0  0  0  0  0  0
    1.4445   -2.5406   -2.9115 H   0  0  0  0  0  0  0  0  0  0  0  0
   -3.5132   -0.7357    1.7441 H   0  0  0  0  0  0  0  0  0  0  0  0
   -2.0072   -1.1453    2.5004 H   0  0  0  0  0  0  0  0  0  0  0  0
   -2.2367   -2.6645    0.6644 H   0  0  0  0  0  0  0  0  0  0  0  0
   -2.6894   -1.3821   -0.4624 H   0  0  0  0  0  0  0  0  0  0  0  0
   -1.0219   -1.4847    0.1173 H   0  0  0  0  0  0  0  0  0  0  0  0
   -3.0662    2.4569    0.9445 H   0  0  0  0  0  0  0  0  0  0  0  0
   -3.8725    0.9858    0.4583 H   0  0  0  0  0  0  0  0  0  0  0  0
   -2.1521    0.6590   -1.3811 H   0  0  0  0  0  0  0  0  0  0  0  0
   -3.0684    2.1660   -1.5306 H   0  0  0  0  0  0  0  0  0  0  0  0
   -1.4102    2.1930   -0.9261 H   0  0  0  0  0  0  0  0  0  0  0  0
  1  2  1  0
  2  3  1  0
  3  4  1  0
  4  5  1  0
  3  6  1  0
  6  7  2  0
  6  8  1  0
  8  9  1  0
  9 10  1  0
 10 11  2  0
 10 12  1  0
 12 13  1  0
 13 14  1  0
 12 15  1  0
 15 16  1  0
  1 17  1  0
  1 18  1  0
  1 19  1  0
  2 20  1  0
  2 21  1  0
  4 22  1  0
  4 23  1  0
  5 24  1  0
  5 25  1  0
  5 26  1  0
 13 27  1  0
 13 28  1  0
 14 29  1  0
 14 30  1  0
 14 31  1  0
 15 32  1  0
 15 33  1  0
 16 34  1  0
 16 35  1  0
 16 36  1  0
M  END
$$$$
