
     RDKit          3D

 38 41  0  0  0  0  0  0  0  0999 V2000
   -4.2765    0.5893    1.0804 C   0  0  0  0  0  0  0  0  0  0  0  0
   -3.5369   -0.6985    1.2586 C   0  0  0  0  0  0  0  0  0  0  0  0
   -4.1879   -1.9268    1.6190 C   0  0  0  0  0  0  0  0  0  0  0  0
   -3.3161   -2.9843    1.7132 C   0  0  0  0  0  0  0  0  0  0  0  0
   -1.7149   -2.5183    1.3737 S   0  0  0  0  0  0  0  0  0  0  0  0
   -2.1633   -0.8770    1.0952 C   0  0  0  0  0  0  0  0  0  0  0  0
   -1.1197    0.1003    0.7525 C   0  0  0  0  0  0  0  0  0  0  0  0
   -1.3520    1.3810    1.1128 N   0  0  0  0  0  0  0  0  0  0  0  0
   -0.3846    2.2717    0.7819 C   0  0  0  0  0  0  0  0  0  0  0  0
   -0.6110    3.6911    1.1717 C   0  0  0  0  0  0  0  0  0  0  0  0
   -1.7695    3.9413    1.8560 N   0  0  0  0  0  0  0  0  0  0  0  0
    0.1877    4.5801    0.9049 O   0  0  0  0  0  0  0  0  0  0  0  0
    0.7499    1.8974    0.1234 C   0  0  0  0  0  0  0  0  0  0  0  0
    1.8525    2.6071   -0.3213 N   0  0  0  0  0  0  0  0  0  0  0  0
    2.7344    1.7186   -0.9499 C   0  0  0  0  0  0  0  0  0  0  0  0
    3.7956    2.0707   -1.4374 O   0  0  0  0  0  0  0  0  0  0  0  0
    2.1322    0.4235   -0.8734 N   0  0  0  0  0  0  0  0  0  0  0  0
    2.6595   -0.7973   -1.3802 C   0  0  0  0  0  0  0  0  0  0  0  0
    2.0392   -2.0424   -1.1810 C   0  0  0  0  0  0  0  0  0  0  0  0
    2.5823   -3.2311   -1.6926 C   0  0  0  0  0  0  0  0  0  0  0  0
    3.7648   -3.1994   -2.4175 C   0  0  0  0  0  0  0  0  0  0  0  0
    4.4315   -4.6536   -3.0449 Cl  0  0  0  0  0  0  0  0  0  0  0  0
    4.4065   -1.9887   -2.6323 C   0  0  0  0  0  0  0  0  0  0  0  0
    3.8577   -0.8048   -2.1177 C   0  0  0  0  0  0  0  0  0  0  0  0
    0.8919    0.5684   -0.1974 C   0  0  0  0  0  0  0  0  0  0  0  0
   -0.0284   -0.3521    0.1006 N   0  0  0  0  0  0  0  0  0  0  0  0
   -3.9959    1.0744    0.1400 H   0  0  0  0  0  0  0  0  0  0  0  0
   -5.3584    0.4219    1.0545 H   0  0  0  0  0  0  0  0  0  0  0  0
   -4.0624    1.2699    1.9104 H   0  0  0  0  0  0  0  0  0  0  0  0
   -5.2526   -2.0267    1.7969 H   0  0  0  0  0  0  0  0  0  0  0  0
   -3.5452   -4.0110    1.9645 H   0  0  0  0  0  0  0  0  0  0  0  0
   -1.9550    4.8779    2.1876 H   0  0  0  0  0  0  0  0  0  0  0  0
   -2.3868    3.1816    2.1177 H   0  0  0  0  0  0  0  0  0  0  0  0
    2.0013    3.6042   -0.2154 H   0  0  0  0  0  0  0  0  0  0  0  0
    1.1204   -2.1481   -0.6163 H   0  0  0  0  0  0  0  0  0  0  0  0
    2.0700   -4.1730   -1.5136 H   0  0  0  0  0  0  0  0  0  0  0  0
    5.3337   -1.9467   -3.1980 H   0  0  0  0  0  0  0  0  0  0  0  0
    4.4061    0.1093   -2.3266 H   0  0  0  0  0  0  0  0  0  0  0  0
  1  2  1  0
  2  3  1  0
  3  4  2  0
  4  5  1  0
  5  6  1  0
  6  7  1  0
  7  8  2  0
  8  9  1  0
  9 10  1  0
 10 11  1  0
 10 12  2  0
  9 13  2  0
 13 14  1  0
 14 15  1  0
 15 16  2  0
 15 17  1  0
 17 18  1  0
 18 19  2  0
 19 20  1  0
 20 21  2  0
 21 22  1  0
 21 23  1  0
 23 24  2  0
 17 25  1  0
 25 26  2  0
  6  2  2  0
 26  7  1  0
 25 13  1  0
 24 18  1  0
  1 27  1  0
  1 28  1  0
  1 29  1  0
  3 30  1  0
  4 31  1  0
 11 32  1  0
 11 33  1  0
 14 34  1  0
 19 35  1  0
 20 36  1  0
 23 37  1  0
 24 38  1  0
M  END
$$$$
