
     RDKit          3D

 36 35  0  0  0  0  0  0  0  0999 V2000
    3.0269   -1.7650   -2.5856 C   0  0  0  0  0  0  0  0  0  0  0  0
    2.2794   -2.1842   -1.3262 C   0  0  0  0  0  0  0  0  0  0  0  0
    2.3307   -1.1644   -0.2620 N   0  0  0  0  0  0  0  0  0  0  0  0
    3.2981   -1.4269    0.8190 C   0  0  0  0  0  0  0  0  0  0  0  0
    4.7365   -1.1175    0.4351 C   0  0  0  0  0  0  0  0  0  0  0  0
    1.6104    0.0465   -0.3161 C   0  0  0  0  0  0  0  0  0  0  0  0
    1.9857    1.4443    0.5530 S   0  0  0  0  0  0  0  0  0  0  0  0
    0.2204    0.1265   -1.4164 S   0  0  0  0  0  0  0  0  0  0  0  0
   -1.1611   -1.0935   -0.4744 S   0  0  0  0  0  0  0  0  0  0  0  0
   -1.7598   -0.0483    0.8286 C   0  0  0  0  0  0  0  0  0  0  0  0
   -1.2030   -0.3770    2.3888 S   0  0  0  0  0  0  0  0  0  0  0  0
   -2.6945    0.9515    0.4895 N   0  0  0  0  0  0  0  0  0  0  0  0
   -3.1669    1.9327    1.4832 C   0  0  0  0  0  0  0  0  0  0  0  0
   -2.2836    3.1715    1.5087 C   0  0  0  0  0  0  0  0  0  0  0  0
   -3.3216    1.0823   -0.8380 C   0  0  0  0  0  0  0  0  0  0  0  0
   -4.5799    0.2332   -0.9482 C   0  0  0  0  0  0  0  0  0  0  0  0
    2.6132   -0.8505   -3.0197 H   0  0  0  0  0  0  0  0  0  0  0  0
    4.0849   -1.5805   -2.3817 H   0  0  0  0  0  0  0  0  0  0  0  0
    2.9625   -2.5552   -3.3403 H   0  0  0  0  0  0  0  0  0  0  0  0
    1.2421   -2.4129   -1.5796 H   0  0  0  0  0  0  0  0  0  0  0  0
    2.7067   -3.1185   -0.9443 H   0  0  0  0  0  0  0  0  0  0  0  0
    3.0280   -0.8538    1.7112 H   0  0  0  0  0  0  0  0  0  0  0  0
    3.2068   -2.4804    1.1091 H   0  0  0  0  0  0  0  0  0  0  0  0
    5.0944   -1.8039   -0.3376 H   0  0  0  0  0  0  0  0  0  0  0  0
    4.8445   -0.0970    0.0562 H   0  0  0  0  0  0  0  0  0  0  0  0
    5.3909   -1.2318    1.3052 H   0  0  0  0  0  0  0  0  0  0  0  0
   -3.2077    1.4887    2.4813 H   0  0  0  0  0  0  0  0  0  0  0  0
   -4.1972    2.2162    1.2384 H   0  0  0  0  0  0  0  0  0  0  0  0
   -1.2524    2.9212    1.7757 H   0  0  0  0  0  0  0  0  0  0  0  0
   -2.2632    3.6605    0.5294 H   0  0  0  0  0  0  0  0  0  0  0  0
   -2.6608    3.8912    2.2416 H   0  0  0  0  0  0  0  0  0  0  0  0
   -3.5675    2.1372   -1.0069 H   0  0  0  0  0  0  0  0  0  0  0  0
   -2.6305    0.8070   -1.6352 H   0  0  0  0  0  0  0  0  0  0  0  0
   -5.3207    0.5264   -0.1974 H   0  0  0  0  0  0  0  0  0  0  0  0
   -5.0323    0.3527   -1.9374 H   0  0  0  0  0  0  0  0  0  0  0  0
   -4.3591   -0.8283   -0.7992 H   0  0  0  0  0  0  0  0  0  0  0  0
  1  2  1  0
  2  3  1  0
  3  4  1  0
  4  5  1  0
  3  6  1  0
  6  7  2  0
  6  8  1  0
  8  9  1  0
  9 10  1  0
 10 11  2  0
 10 12  1  0
 12 13  1  0
 13 14  1  0
 12 15  1  0
 15 16  1  0
  1 17  1  0
  1 18  1  0
  1 19  1  0
  2 20  1  0
  2 21  1  0
  4 22  1  0
  4 23  1  0
  5 24  1  0
  5 25  1  0
  5 26  1  0
 13 27  1  0
 13 28  1  0
 14 29  1  0
 14 30  1  0
 14 31  1  0
 15 32  1  0
 15 33  1  0
 16 34  1  0
 16 35  1  0
 16 36  1  0
M  END
$$$$
