
     RDKit          3D

 48 51  0  0  0  0  0  0  0  0999 V2000
    0.1676   -3.2391    1.6010 C   0  0  0  0  0  0  0  0  0  0  0  0
   -0.1340   -2.2657    0.4698 C   0  0  0  0  0  0  0  0  0  0  0  0
   -0.8002   -1.0624    0.9171 N   0  0  0  0  0  0  0  0  0  0  0  0
   -2.0936   -0.9842    1.3701 C   0  0  0  0  0  0  0  0  0  0  0  0
   -3.2880   -2.2080    1.1176 S   0  0  0  0  0  0  0  0  0  0  0  0
   -4.8210   -1.2459    1.2902 C   0  0  0  0  0  0  0  0  0  0  0  0
   -5.1814   -0.5112    0.0207 C   0  0  0  0  0  0  0  0  0  0  0  0
   -5.8809   -1.1654   -1.0080 C   0  0  0  0  0  0  0  0  0  0  0  0
   -6.2057   -0.4885   -2.1844 C   0  0  0  0  0  0  0  0  0  0  0  0
   -5.8264    0.8391   -2.3384 C   0  0  0  0  0  0  0  0  0  0  0  0
   -6.1424    1.4890   -3.4675 F   0  0  0  0  0  0  0  0  0  0  0  0
   -5.1268    1.5033   -1.3386 C   0  0  0  0  0  0  0  0  0  0  0  0
   -4.8035    0.8293   -0.1594 C   0  0  0  0  0  0  0  0  0  0  0  0
   -2.2564    0.1205    2.0558 N   0  0  0  0  0  0  0  0  0  0  0  0
   -1.0796    0.8158    1.9993 N   0  0  0  0  0  0  0  0  0  0  0  0
   -0.2368    0.1573    1.2228 C   0  0  0  0  0  0  0  0  0  0  0  0
    1.1368    0.8000    0.8500 C   0  0  0  0  0  0  0  0  0  0  0  0
    1.6434    1.9302    1.5101 C   0  0  0  0  0  0  0  0  0  0  0  0
    2.8223    2.3111    1.0315 N   0  0  0  0  0  0  0  0  0  0  0  0
    3.1315    1.3898    0.0769 N   0  0  0  0  0  0  0  0  0  0  0  0
    4.4512    1.4176   -0.4801 C   0  0  0  0  0  0  0  0  0  0  0  0
    5.2386    2.5683   -0.2888 C   0  0  0  0  0  0  0  0  0  0  0  0
    6.5342    2.6446   -0.8066 C   0  0  0  0  0  0  0  0  0  0  0  0
    7.0663    1.5692   -1.5093 C   0  0  0  0  0  0  0  0  0  0  0  0
    6.3085    0.4141   -1.6829 C   0  0  0  0  0  0  0  0  0  0  0  0
    5.0101    0.3320   -1.1645 C   0  0  0  0  0  0  0  0  0  0  0  0
    2.0408    0.5652   -0.1730 C   0  0  0  0  0  0  0  0  0  0  0  0
    1.9065   -0.1887   -1.4227 C   0  0  0  0  0  0  0  0  0  0  0  0
    0.6025   -0.4099   -1.7371 F   0  0  0  0  0  0  0  0  0  0  0  0
    2.4827   -1.4142   -1.3433 F   0  0  0  0  0  0  0  0  0  0  0  0
    2.4449    0.4409   -2.4934 F   0  0  0  0  0  0  0  0  0  0  0  0
    0.8043   -2.7708    2.3588 H   0  0  0  0  0  0  0  0  0  0  0  0
   -0.7421   -3.5850    2.0995 H   0  0  0  0  0  0  0  0  0  0  0  0
    0.6927   -4.1170    1.2117 H   0  0  0  0  0  0  0  0  0  0  0  0
    0.8127   -1.9928    0.0177 H   0  0  0  0  0  0  0  0  0  0  0  0
   -0.7461   -2.7321   -0.3094 H   0  0  0  0  0  0  0  0  0  0  0  0
   -4.7651   -0.5565    2.1398 H   0  0  0  0  0  0  0  0  0  0  0  0
   -5.6282   -1.9475    1.5340 H   0  0  0  0  0  0  0  0  0  0  0  0
   -6.1770   -2.2066   -0.8949 H   0  0  0  0  0  0  0  0  0  0  0  0
   -6.7500   -0.9866   -2.9808 H   0  0  0  0  0  0  0  0  0  0  0  0
   -4.8380    2.5403   -1.4807 H   0  0  0  0  0  0  0  0  0  0  0  0
   -4.2520    1.3558    0.6185 H   0  0  0  0  0  0  0  0  0  0  0  0
    1.1984    2.4879    2.3273 H   0  0  0  0  0  0  0  0  0  0  0  0
    4.8503    3.4293    0.2548 H   0  0  0  0  0  0  0  0  0  0  0  0
    7.1239    3.5460   -0.6591 H   0  0  0  0  0  0  0  0  0  0  0  0
    8.0735    1.6275   -1.9148 H   0  0  0  0  0  0  0  0  0  0  0  0
    6.7320   -0.4327   -2.2190 H   0  0  0  0  0  0  0  0  0  0  0  0
    4.4996   -0.6135   -1.2903 H   0  0  0  0  0  0  0  0  0  0  0  0
  1  2  1  0
  2  3  1  0
  3  4  1  0
  4  5  1  0
  5  6  1  0
  6  7  1  0
  7  8  2  0
  8  9  1  0
  9 10  2  0
 10 11  1  0
 10 12  1  0
 12 13  2  0
  4 14  2  0
 14 15  1  0
 15 16  2  0
 16 17  1  0
 17 18  1  0
 18 19  2  0
 19 20  1  0
 20 21  1  0
 21 22  2  0
 22 23  1  0
 23 24  2  0
 24 25  1  0
 25 26  2  0
 20 27  1  0
 27 28  1  0
 28 29  1  0
 28 30  1  0
 28 31  1  0
 16  3  1  0
 27 17  2  0
 13  7  1  0
 26 21  1  0
  1 32  1  0
  1 33  1  0
  1 34  1  0
  2 35  1  0
  2 36  1  0
  6 37  1  0
  6 38  1  0
  8 39  1  0
  9 40  1  0
 12 41  1  0
 13 42  1  0
 18 43  1  0
 22 44  1  0
 23 45  1  0
 24 46  1  0
 25 47  1  0
 26 48  1  0
M  END
$$$$
