
     RDKit          3D

 96101  0  0  0  0  0  0  0  0999 V2000
   -5.0723    3.1944    0.5236 C   0  0  0  0  0  0  0  0  0  0  0  0
   -4.4718    2.3031   -0.5283 C   0  0  0  0  0  0  0  0  0  0  0  0
   -4.2466    0.9858   -0.3336 C   0  0  0  0  0  0  0  0  0  0  0  0
   -4.4016    0.2296    0.9672 C   0  0  0  0  0  0  0  0  0  0  0  0
   -3.2255   -0.7096    1.3331 C   0  0  2  0  0  0  0  0  0  0  0  0
   -1.8531   -0.0976    1.0750 C   0  0  0  0  0  0  0  0  0  0  0  0
   -0.7386   -1.0992    1.3752 C   0  0  1  0  0  0  0  0  0  0  0  0
   -0.9998   -2.4739    0.7566 C   0  0  0  0  0  0  0  0  0  0  0  0
   -2.4318   -2.9514    1.0328 C   0  0  1  0  0  0  0  0  0  0  0  0
   -2.6849   -4.2225    0.2061 C   0  0  0  0  0  0  0  0  0  0  0  0
   -4.0180   -4.8659    0.5604 C   0  0  0  0  0  0  0  0  0  0  0  0
   -4.1135   -5.1011    2.0725 C   0  0  2  0  0  0  0  0  0  0  0  0
   -5.4837   -5.6886    2.4113 C   0  0  0  0  0  0  0  0  0  0  0  0
   -3.8116   -3.7871    2.8186 C   0  0  1  0  0  0  0  0  0  0  0  0
   -3.7478   -3.9661    4.3325 C   0  0  0  0  0  0  0  0  0  0  0  0
   -2.5359   -3.2568    2.4262 O   0  0  0  0  0  0  0  0  0  0  0  0
   -3.3692   -1.9470    0.6260 O   0  0  0  0  0  0  0  0  0  0  0  0
    0.5638   -0.5389    1.0420 O   0  0  0  0  0  0  0  0  0  0  0  0
    0.8673   -0.2953   -0.2651 C   0  0  0  0  0  0  0  0  0  0  0  0
    0.1844   -0.6400   -1.2235 O   0  0  0  0  0  0  0  0  0  0  0  0
    2.1705    0.4730   -0.4288 C   0  0  0  0  0  0  0  0  0  0  0  0
    3.3986   -0.3578   -0.2070 C   0  0  0  0  0  0  0  0  0  0  0  0
    4.5943    0.2230    0.0152 C   0  0  0  0  0  0  0  0  0  0  0  0
    5.8298   -0.6149    0.2500 C   0  0  0  0  0  0  0  0  0  0  0  0
    6.7108   -0.5613   -0.8738 O   0  0  0  0  0  0  0  0  0  0  0  0
    6.5307   -1.5210   -1.8159 C   0  0  0  0  0  0  0  0  0  0  0  0
    5.6791   -2.4016   -1.7882 O   0  0  0  0  0  0  0  0  0  0  0  0
    7.5140   -1.3767   -2.8620 C   0  0  0  0  0  0  0  0  0  0  0  0
    8.5075   -0.4310   -3.0575 C   0  0  0  0  0  0  0  0  0  0  0  0
    9.2060   -0.7633   -4.2430 C   0  0  0  0  0  0  0  0  0  0  0  0
    8.6238   -1.9000   -4.7509 C   0  0  0  0  0  0  0  0  0  0  0  0
    7.6009   -2.2609   -3.9144 N   0  0  0  0  0  0  0  0  0  0  0  0
    4.7553    1.7267    0.1399 C   0  0  1  0  0  0  0  0  0  0  0  0
    5.7083    2.1747   -0.8258 O   0  0  0  0  0  0  0  0  0  0  0  0
    3.4644    2.6037    0.0298 C   0  0  1  0  0  0  0  0  0  0  0  0
    3.6882    3.8803    0.8726 C   0  0  0  0  0  0  0  0  0  0  0  0
    3.2151    3.0420   -1.3425 O   0  0  0  0  0  0  0  0  0  0  0  0
    1.7918    3.3523   -1.4285 C   0  0  0  0  0  0  0  0  0  0  0  0
    1.1622    2.7373   -0.2085 C   0  0  0  0  0  0  0  0  0  0  0  0
   -0.0313    3.0059    0.3400 C   0  0  0  0  0  0  0  0  0  0  0  0
   -1.0958    3.7847   -0.2365 C   0  0  0  0  0  0  0  0  0  0  0  0
   -1.7383    3.3910   -1.3481 C   0  0  0  0  0  0  0  0  0  0  0  0
   -3.0058    3.9808   -1.9320 C   0  0  2  0  0  0  0  0  0  0  0  0
   -3.4027    5.3539   -1.3748 C   0  0  0  0  0  0  0  0  0  0  0  0
   -4.1751    2.9548   -1.8742 C   0  0  0  0  0  0  0  0  0  0  0  0
    2.1925    1.8089    0.3697 C   0  0  1  0  0  0  0  0  0  0  0  0
    2.0577    1.6511    1.7783 O   0  0  0  0  0  0  0  0  0  0  0  0
   -5.6640    3.9932    0.0666 H   0  0  0  0  0  0  0  0  0  0  0  0
   -4.2891    3.6485    1.1370 H   0  0  0  0  0  0  0  0  0  0  0  0
   -5.7598    2.6518    1.1824 H   0  0  0  0  0  0  0  0  0  0  0  0
   -3.8779    0.3846   -1.1659 H   0  0  0  0  0  0  0  0  0  0  0  0
   -4.5195    0.9355    1.7978 H   0  0  0  0  0  0  0  0  0  0  0  0
   -5.3240   -0.3600    0.9053 H   0  0  0  0  0  0  0  0  0  0  0  0
   -3.3307   -0.9178    2.4048 H   0  0  0  0  0  0  0  0  0  0  0  0
   -1.7192    0.8032    1.6857 H   0  0  0  0  0  0  0  0  0  0  0  0
   -1.7704    0.2213    0.0308 H   0  0  0  0  0  0  0  0  0  0  0  0
   -0.7096   -1.2338    2.4641 H   0  0  0  0  0  0  0  0  0  0  0  0
   -0.8482   -2.4457   -0.3264 H   0  0  0  0  0  0  0  0  0  0  0  0
   -0.2647   -3.1859    1.1519 H   0  0  0  0  0  0  0  0  0  0  0  0
   -1.8939   -4.9551    0.4008 H   0  0  0  0  0  0  0  0  0  0  0  0
   -2.6774   -3.9926   -0.8658 H   0  0  0  0  0  0  0  0  0  0  0  0
   -4.8392   -4.2189    0.2275 H   0  0  0  0  0  0  0  0  0  0  0  0
   -4.1218   -5.8182    0.0223 H   0  0  0  0  0  0  0  0  0  0  0  0
   -3.3419   -5.8351    2.3426 H   0  0  0  0  0  0  0  0  0  0  0  0
   -6.2906   -4.9989    2.1311 H   0  0  0  0  0  0  0  0  0  0  0  0
   -5.5761   -5.9015    3.4793 H   0  0  0  0  0  0  0  0  0  0  0  0
   -5.6374   -6.6313    1.8721 H   0  0  0  0  0  0  0  0  0  0  0  0
   -4.5851   -3.0419    2.6001 H   0  0  0  0  0  0  0  0  0  0  0  0
   -3.0185   -4.7382    4.6033 H   0  0  0  0  0  0  0  0  0  0  0  0
   -3.4189   -3.0372    4.8138 H   0  0  0  0  0  0  0  0  0  0  0  0
   -4.7184   -4.2448    4.7539 H   0  0  0  0  0  0  0  0  0  0  0  0
    2.1913    0.6947   -1.5070 H   0  0  0  0  0  0  0  0  0  0  0  0
    3.3238   -1.4411   -0.3090 H   0  0  0  0  0  0  0  0  0  0  0  0
    5.5818   -1.6514    0.5073 H   0  0  0  0  0  0  0  0  0  0  0  0
    6.3794   -0.2239    1.1119 H   0  0  0  0  0  0  0  0  0  0  0  0
    8.7023    0.4119   -2.4058 H   0  0  0  0  0  0  0  0  0  0  0  0
   10.0408   -0.2263   -4.6755 H   0  0  0  0  0  0  0  0  0  0  0  0
    8.8481   -2.4827   -5.6345 H   0  0  0  0  0  0  0  0  0  0  0  0
    6.9954   -3.0643   -4.0322 H   0  0  0  0  0  0  0  0  0  0  0  0
    5.2009    1.8921    1.1324 H   0  0  0  0  0  0  0  0  0  0  0  0
    5.1804    2.5080   -1.5788 H   0  0  0  0  0  0  0  0  0  0  0  0
    4.5718    4.4184    0.5123 H   0  0  0  0  0  0  0  0  0  0  0  0
    2.8558    4.5869    0.8010 H   0  0  0  0  0  0  0  0  0  0  0  0
    3.8395    3.6460    1.9297 H   0  0  0  0  0  0  0  0  0  0  0  0
    1.4134    2.9146   -2.3557 H   0  0  0  0  0  0  0  0  0  0  0  0
    1.6815    4.4399   -1.4580 H   0  0  0  0  0  0  0  0  0  0  0  0
   -0.2774    2.5804    1.3136 H   0  0  0  0  0  0  0  0  0  0  0  0
   -1.4615    4.6118    0.3680 H   0  0  0  0  0  0  0  0  0  0  0  0
   -1.3774    2.5082   -1.8784 H   0  0  0  0  0  0  0  0  0  0  0  0
   -2.7982    4.1513   -2.9995 H   0  0  0  0  0  0  0  0  0  0  0  0
   -2.6079    6.0870   -1.5558 H   0  0  0  0  0  0  0  0  0  0  0  0
   -4.3084    5.7237   -1.8681 H   0  0  0  0  0  0  0  0  0  0  0  0
   -3.5904    5.3360   -0.2979 H   0  0  0  0  0  0  0  0  0  0  0  0
   -3.9541    2.1674   -2.6063 H   0  0  0  0  0  0  0  0  0  0  0  0
   -5.0923    3.4323   -2.2423 H   0  0  0  0  0  0  0  0  0  0  0  0
    1.4953    0.8703    1.9479 H   0  0  0  0  0  0  0  0  0  0  0  0
  1  2  1  0
  2  3  2  0
  3  4  1  0
  4  5  1  0
  5  6  1  0
  6  7  1  0
  7  8  1  0
  8  9  1  0
  9 10  1  0
 10 11  1  0
 11 12  1  0
 12 13  1  0
 12 14  1  0
 14 15  1  0
 14 16  1  0
  9 17  1  6
  7 18  1  0
 18 19  1  0
 19 20  2  0
 19 21  1  0
 21 22  1  0
 22 23  2  0
 23 24  1  0
 24 25  1  0
 25 26  1  0
 26 27  2  0
 26 28  1  0
 28 29  2  0
 29 30  1  0
 30 31  2  0
 31 32  1  0
 23 33  1  0
 33 34  1  0
 33 35  1  0
 35 36  1  1
 35 37  1  0
 37 38  1  0
 38 39  1  0
 39 40  2  0
 40 41  1  0
 41 42  2  0
 42 43  1  0
 43 44  1  0
 43 45  1  0
 39 46  1  0
 46 47  1  1
 45  2  1  0
 17  5  1  0
 46 21  1  0
 16  9  1  0
 32 28  1  0
 46 35  1  0
  1 48  1  0
  1 49  1  0
  1 50  1  0
  3 51  1  0
  4 52  1  0
  4 53  1  0
  5 54  1  1
  6 55  1  0
  6 56  1  0
  7 57  1  1
  8 58  1  0
  8 59  1  0
 10 60  1  0
 10 61  1  0
 11 62  1  0
 11 63  1  0
 12 64  1  1
 13 65  1  0
 13 66  1  0
 13 67  1  0
 14 68  1  1
 15 69  1  0
 15 70  1  0
 15 71  1  0
 21 72  1  0
 22 73  1  0
 24 74  1  0
 24 75  1  0
 29 76  1  0
 30 77  1  0
 31 78  1  0
 32 79  1  0
 33 80  1  1
 34 81  1  0
 36 82  1  0
 36 83  1  0
 36 84  1  0
 38 85  1  0
 38 86  1  0
 40 87  1  0
 41 88  1  0
 42 89  1  0
 43 90  1  6
 44 91  1  0
 44 92  1  0
 44 93  1  0
 45 94  1  0
 45 95  1  0
 47 96  1  0
M  END
$$$$
