
     RDKit          3D

 47 50  0  0  0  0  0  0  0  0999 V2000
   -3.9888    2.6993    1.5476 C   0  0  0  0  0  0  0  0  0  0  0  0
   -3.9442    1.8752    0.2599 C   0  0  0  0  0  0  0  0  0  0  0  0
   -2.5133    1.5933   -0.1735 C   0  0  0  0  0  0  0  0  0  0  0  0
   -1.8373    0.5153    0.6449 C   0  0  0  0  0  0  0  0  0  0  0  0
   -1.0688    0.8244    1.5621 O   0  0  0  0  0  0  0  0  0  0  0  0
   -2.0300   -0.8083    0.2643 N   0  0  0  0  0  0  0  0  0  0  0  0
   -1.2415   -1.8363    0.9542 C   0  0  0  0  0  0  0  0  0  0  0  0
    0.1931   -1.9280    0.4187 C   0  0  0  0  0  0  0  0  0  0  0  0
    0.5373   -2.8675   -0.2944 O   0  0  0  0  0  0  0  0  0  0  0  0
    0.9864   -0.8660    0.8186 N   0  0  0  0  0  0  0  0  0  0  0  0
    2.3422   -0.6328    0.5196 C   0  0  0  0  0  0  0  0  0  0  0  0
    3.1440   -1.5137   -0.2107 C   0  0  0  0  0  0  0  0  0  0  0  0
    4.4880   -1.2112   -0.4584 C   0  0  0  0  0  0  0  0  0  0  0  0
    5.0376   -0.0287    0.0263 C   0  0  0  0  0  0  0  0  0  0  0  0
    4.2367    0.8692    0.7349 C   0  0  0  0  0  0  0  0  0  0  0  0
    2.9006    0.5615    0.9937 C   0  0  0  0  0  0  0  0  0  0  0  0
    4.6972    2.0694    1.2151 O   0  0  0  0  0  0  0  0  0  0  0  0
    5.9462    2.4271    0.6120 C   0  0  0  0  0  0  0  0  0  0  0  0
    6.8915    1.2373    0.5880 C   0  0  0  0  0  0  0  0  0  0  0  0
    6.3652    0.1906   -0.2354 O   0  0  0  0  0  0  0  0  0  0  0  0
   -2.9965   -1.2315   -0.7019 C   0  0  0  0  0  0  0  0  0  0  0  0
   -2.6418   -2.2232   -1.6320 C   0  0  0  0  0  0  0  0  0  0  0  0
   -3.5456   -2.6556   -2.6052 C   0  0  0  0  0  0  0  0  0  0  0  0
   -4.8263   -2.1183   -2.6540 C   0  0  0  0  0  0  0  0  0  0  0  0
   -5.2083   -1.1552   -1.7217 C   0  0  0  0  0  0  0  0  0  0  0  0
   -4.3058   -0.7025   -0.7468 C   0  0  0  0  0  0  0  0  0  0  0  0
   -4.9733    0.3851    0.5089 S   0  0  0  0  0  0  0  0  0  0  0  0
   -3.5537    2.1604    2.3967 H   0  0  0  0  0  0  0  0  0  0  0  0
   -3.4259    3.6315    1.4249 H   0  0  0  0  0  0  0  0  0  0  0  0
   -5.0164    2.9773    1.8085 H   0  0  0  0  0  0  0  0  0  0  0  0
   -4.4251    2.4651   -0.5294 H   0  0  0  0  0  0  0  0  0  0  0  0
   -1.9058    2.5044   -0.0951 H   0  0  0  0  0  0  0  0  0  0  0  0
   -2.4683    1.3270   -1.2368 H   0  0  0  0  0  0  0  0  0  0  0  0
   -1.1995   -1.6035    2.0257 H   0  0  0  0  0  0  0  0  0  0  0  0
   -1.7222   -2.8182    0.8729 H   0  0  0  0  0  0  0  0  0  0  0  0
    0.5121   -0.1347    1.3535 H   0  0  0  0  0  0  0  0  0  0  0  0
    2.7574   -2.4512   -0.5976 H   0  0  0  0  0  0  0  0  0  0  0  0
    5.1042   -1.9079   -1.0200 H   0  0  0  0  0  0  0  0  0  0  0  0
    2.3007    1.2706    1.5585 H   0  0  0  0  0  0  0  0  0  0  0  0
    5.7495    2.8044   -0.3992 H   0  0  0  0  0  0  0  0  0  0  0  0
    6.3778    3.2416    1.2021 H   0  0  0  0  0  0  0  0  0  0  0  0
    7.0599    0.8374    1.5957 H   0  0  0  0  0  0  0  0  0  0  0  0
    7.8599    1.5317    0.1715 H   0  0  0  0  0  0  0  0  0  0  0  0
   -1.6436   -2.6550   -1.6433 H   0  0  0  0  0  0  0  0  0  0  0  0
   -3.2441   -3.4137   -3.3246 H   0  0  0  0  0  0  0  0  0  0  0  0
   -5.5341   -2.4611   -3.4046 H   0  0  0  0  0  0  0  0  0  0  0  0
   -6.2276   -0.7747   -1.7487 H   0  0  0  0  0  0  0  0  0  0  0  0
  1  2  1  0
  2  3  1  0
  3  4  1  0
  4  5  2  0
  4  6  1  0
  6  7  1  0
  7  8  1  0
  8  9  2  0
  8 10  1  0
 10 11  1  0
 11 12  2  0
 12 13  1  0
 13 14  2  0
 14 15  1  0
 15 16  2  0
 15 17  1  0
 17 18  1  0
 18 19  1  0
 19 20  1  0
  6 21  1  0
 21 22  2  0
 22 23  1  0
 23 24  2  0
 24 25  1  0
 25 26  2  0
 26 27  1  0
 27  2  1  0
 16 11  1  0
 26 21  1  0
 20 14  1  0
  1 28  1  0
  1 29  1  0
  1 30  1  0
  2 31  1  0
  3 32  1  0
  3 33  1  0
  7 34  1  0
  7 35  1  0
 10 36  1  0
 12 37  1  0
 13 38  1  0
 16 39  1  0
 18 40  1  0
 18 41  1  0
 19 42  1  0
 19 43  1  0
 22 44  1  0
 23 45  1  0
 24 46  1  0
 25 47  1  0
M  END
$$$$
