
     RDKit          3D

 40 41  0  0  0  0  0  0  0  0999 V2000
    5.3166    2.3698    0.5037 C   0  0  0  0  0  0  0  0  0  0  0  0
    5.3920    1.5807    2.1307 S   0  0  0  0  0  0  0  0  0  0  0  0
    5.4001   -0.1660    1.6177 C   0  0  0  0  0  0  0  0  0  0  0  0
    4.1158   -0.6046    0.9589 C   0  0  0  0  0  0  0  0  0  0  0  0
    2.9312   -0.7128    1.7039 C   0  0  0  0  0  0  0  0  0  0  0  0
    1.7394   -1.1172    1.0955 C   0  0  0  0  0  0  0  0  0  0  0  0
    1.7174   -1.4147   -0.2717 C   0  0  0  0  0  0  0  0  0  0  0  0
    0.4728   -1.8465   -0.9657 C   0  0  0  0  0  0  0  0  0  0  0  0
    0.5336   -2.5345   -1.9786 O   0  0  0  0  0  0  0  0  0  0  0  0
   -0.7157   -1.3928   -0.4300 N   0  0  0  0  0  0  0  0  0  0  0  0
   -1.9742   -1.6181   -1.1194 C   0  0  0  0  0  0  0  0  0  0  0  0
   -2.2027   -0.6563   -2.2899 C   0  0  0  0  0  0  0  0  0  0  0  0
   -2.2455    1.1054   -1.7702 S   0  0  0  0  0  0  0  0  0  0  0  0
   -3.7523    1.1412   -0.8182 C   0  0  0  0  0  0  0  0  0  0  0  0
   -4.9811    0.7671   -1.3722 C   0  0  0  0  0  0  0  0  0  0  0  0
   -6.1464    0.8110   -0.6014 C   0  0  0  0  0  0  0  0  0  0  0  0
   -6.0837    1.2400    0.7227 C   0  0  0  0  0  0  0  0  0  0  0  0
   -7.6585    1.3000    1.7656 Br  0  0  0  0  0  0  0  0  0  0  0  0
   -4.8689    1.6322    1.2804 C   0  0  0  0  0  0  0  0  0  0  0  0
   -3.7056    1.5874    0.5072 C   0  0  0  0  0  0  0  0  0  0  0  0
    2.8991   -1.3290   -1.0162 C   0  0  0  0  0  0  0  0  0  0  0  0
    4.0888   -0.9230   -0.4063 C   0  0  0  0  0  0  0  0  0  0  0  0
    6.1272    2.0107   -0.1357 H   0  0  0  0  0  0  0  0  0  0  0  0
    4.3529    2.1808    0.0245 H   0  0  0  0  0  0  0  0  0  0  0  0
    5.4285    3.4504    0.6277 H   0  0  0  0  0  0  0  0  0  0  0  0
    5.5678   -0.7828    2.5081 H   0  0  0  0  0  0  0  0  0  0  0  0
    6.2602   -0.3374    0.9608 H   0  0  0  0  0  0  0  0  0  0  0  0
    2.9339   -0.4828    2.7684 H   0  0  0  0  0  0  0  0  0  0  0  0
    0.8477   -1.2179    1.7073 H   0  0  0  0  0  0  0  0  0  0  0  0
   -0.6831   -0.6113    0.2115 H   0  0  0  0  0  0  0  0  0  0  0  0
   -1.9806   -2.6472   -1.4969 H   0  0  0  0  0  0  0  0  0  0  0  0
   -2.7723   -1.5403   -0.3741 H   0  0  0  0  0  0  0  0  0  0  0  0
   -3.1292   -0.9109   -2.8133 H   0  0  0  0  0  0  0  0  0  0  0  0
   -1.3886   -0.7506   -3.0164 H   0  0  0  0  0  0  0  0  0  0  0  0
   -5.0500    0.4530   -2.4107 H   0  0  0  0  0  0  0  0  0  0  0  0
   -7.0942    0.5172   -1.0452 H   0  0  0  0  0  0  0  0  0  0  0  0
   -4.8161    1.9784    2.3093 H   0  0  0  0  0  0  0  0  0  0  0  0
   -2.7642    1.9063    0.9492 H   0  0  0  0  0  0  0  0  0  0  0  0
    2.8943   -1.5756   -2.0764 H   0  0  0  0  0  0  0  0  0  0  0  0
    4.9934   -0.8592   -1.0077 H   0  0  0  0  0  0  0  0  0  0  0  0
  1  2  1  0
  2  3  1  0
  3  4  1  0
  4  5  2  0
  5  6  1  0
  6  7  2  0
  7  8  1  0
  8  9  2  0
  8 10  1  0
 10 11  1  0
 11 12  1  0
 12 13  1  0
 13 14  1  0
 14 15  2  0
 15 16  1  0
 16 17  2  0
 17 18  1  0
 17 19  1  0
 19 20  2  0
  7 21  1  0
 21 22  2  0
 22  4  1  0
 20 14  1  0
  1 23  1  0
  1 24  1  0
  1 25  1  0
  3 26  1  0
  3 27  1  0
  5 28  1  0
  6 29  1  0
 10 30  1  0
 11 31  1  0
 11 32  1  0
 12 33  1  0
 12 34  1  0
 15 35  1  0
 16 36  1  0
 19 37  1  0
 20 38  1  0
 21 39  1  0
 22 40  1  0
M  END
$$$$
