
     RDKit          3D

 71 72  0  0  0  0  0  0  0  0999 V2000
   -4.1668   -5.3640   -0.7880 C   0  0  0  0  0  0  0  0  0  0  0  0
   -3.0999   -4.4669   -0.5058 O   0  0  0  0  0  0  0  0  0  0  0  0
   -3.4044   -3.3071    0.1670 C   0  0  0  0  0  0  0  0  0  0  0  0
   -4.7146   -2.8677    0.3843 C   0  0  0  0  0  0  0  0  0  0  0  0
   -4.9531   -1.7173    1.1268 C   0  0  0  0  0  0  0  0  0  0  0  0
   -3.8834   -0.9923    1.6484 C   0  0  0  0  0  0  0  0  0  0  0  0
   -2.5381   -1.3656    1.4129 C   0  0  0  0  0  0  0  0  0  0  0  0
   -1.4368   -0.5374    2.0989 C   0  0  0  0  0  0  0  0  0  0  0  0
   -1.7807    0.9785    2.2867 C   0  0  0  0  0  0  0  0  0  0  0  0
   -1.6511    1.5362    3.3778 O   0  0  0  0  0  0  0  0  0  0  0  0
   -2.1783    1.6430    1.1396 N   0  0  0  0  0  0  0  0  0  0  0  0
   -2.3691    3.0925    1.0195 C   0  0  0  0  0  0  0  0  0  0  0  0
   -3.4427    3.5991    1.9967 C   0  0  0  0  0  0  0  0  0  0  0  0
   -1.0413    3.8316    1.2567 C   0  0  0  0  0  0  0  0  0  0  0  0
   -2.8421    3.3881   -0.4165 C   0  0  0  0  0  0  0  0  0  0  0  0
   -0.0416   -0.6363    1.5918 N   0  0  0  0  0  0  0  0  0  0  0  0
    0.2206   -0.1827    0.2976 C   0  0  0  0  0  0  0  0  0  0  0  0
   -0.6744    0.1797   -0.4701 O   0  0  0  0  0  0  0  0  0  0  0  0
    1.6694   -0.1339   -0.1508 C   0  0  0  0  0  0  0  0  0  0  0  0
    1.8210    0.4761   -1.5417 C   0  0  0  0  0  0  0  0  0  0  0  0
    3.2813    0.5863   -1.9350 C   0  0  0  0  0  0  0  0  0  0  0  0
    4.1842    0.1455   -1.2297 O   0  0  0  0  0  0  0  0  0  0  0  0
    3.4424    1.2177   -3.1476 N   0  0  0  0  0  0  0  0  0  0  0  0
    4.6547    1.4740   -3.7502 C   0  0  0  0  0  0  0  0  0  0  0  0
    5.9622    1.1730   -3.3042 C   0  0  0  0  0  0  0  0  0  0  0  0
    6.7842    1.6544   -4.2931 C   0  0  0  0  0  0  0  0  0  0  0  0
    8.2441    1.6910   -4.4918 C   0  0  0  0  0  0  0  0  0  0  0  0
    6.0224    2.2121   -5.2723 O   0  0  0  0  0  0  0  0  0  0  0  0
    4.6855    2.1000   -4.9332 N   0  0  0  0  0  0  0  0  0  0  0  0
    1.0292   -0.9854    2.5607 C   0  0  0  0  0  0  0  0  0  0  0  0
    0.7797   -2.2938    3.3192 C   0  0  0  0  0  0  0  0  0  0  0  0
    1.3126    0.1659    3.5266 C   0  0  0  0  0  0  0  0  0  0  0  0
   -2.3164   -2.5447    0.6661 C   0  0  0  0  0  0  0  0  0  0  0  0
   -1.0184   -2.9840    0.5289 O   0  0  0  0  0  0  0  0  0  0  0  0
   -0.6396   -3.2357   -0.8268 C   0  0  0  0  0  0  0  0  0  0  0  0
   -4.8601   -4.9343   -1.5203 H   0  0  0  0  0  0  0  0  0  0  0  0
   -3.7360   -6.2674   -1.2314 H   0  0  0  0  0  0  0  0  0  0  0  0
   -4.6892   -5.6621    0.1282 H   0  0  0  0  0  0  0  0  0  0  0  0
   -5.5751   -3.4069    0.0046 H   0  0  0  0  0  0  0  0  0  0  0  0
   -5.9748   -1.3906    1.3164 H   0  0  0  0  0  0  0  0  0  0  0  0
   -4.1224   -0.1207    2.2581 H   0  0  0  0  0  0  0  0  0  0  0  0
   -1.4420   -0.9279    3.1237 H   0  0  0  0  0  0  0  0  0  0  0  0
   -1.9404    1.1420    0.2785 H   0  0  0  0  0  0  0  0  0  0  0  0
   -3.6626    4.6592    1.8283 H   0  0  0  0  0  0  0  0  0  0  0  0
   -4.3781    3.0414    1.8779 H   0  0  0  0  0  0  0  0  0  0  0  0
   -3.1306    3.4972    3.0401 H   0  0  0  0  0  0  0  0  0  0  0  0
   -1.1502    4.9112    1.0945 H   0  0  0  0  0  0  0  0  0  0  0  0
   -0.2619    3.4663    0.5755 H   0  0  0  0  0  0  0  0  0  0  0  0
   -0.6736    3.6866    2.2795 H   0  0  0  0  0  0  0  0  0  0  0  0
   -3.0187    4.4599   -0.5654 H   0  0  0  0  0  0  0  0  0  0  0  0
   -3.7702    2.8538   -0.6516 H   0  0  0  0  0  0  0  0  0  0  0  0
   -2.0929    3.0708   -1.1493 H   0  0  0  0  0  0  0  0  0  0  0  0
    2.2374    0.4724    0.5645 H   0  0  0  0  0  0  0  0  0  0  0  0
    2.0715   -1.1532   -0.1573 H   0  0  0  0  0  0  0  0  0  0  0  0
    1.3050   -0.1430   -2.2868 H   0  0  0  0  0  0  0  0  0  0  0  0
    1.3778    1.4802   -1.5655 H   0  0  0  0  0  0  0  0  0  0  0  0
    2.6432    1.5446   -3.6750 H   0  0  0  0  0  0  0  0  0  0  0  0
    6.2687    0.6779   -2.3935 H   0  0  0  0  0  0  0  0  0  0  0  0
    8.6240    2.7086   -4.3517 H   0  0  0  0  0  0  0  0  0  0  0  0
    8.5081    1.3597   -5.5008 H   0  0  0  0  0  0  0  0  0  0  0  0
    8.7512    1.0357   -3.7767 H   0  0  0  0  0  0  0  0  0  0  0  0
    1.9548   -1.1552    2.0070 H   0  0  0  0  0  0  0  0  0  0  0  0
    0.5935   -3.1191    2.6249 H   0  0  0  0  0  0  0  0  0  0  0  0
    1.6591   -2.5571    3.9192 H   0  0  0  0  0  0  0  0  0  0  0  0
   -0.0692   -2.2320    4.0071 H   0  0  0  0  0  0  0  0  0  0  0  0
    2.2228   -0.0285    4.1014 H   0  0  0  0  0  0  0  0  0  0  0  0
    1.4523    1.1069    2.9873 H   0  0  0  0  0  0  0  0  0  0  0  0
    0.4956    0.3023    4.2398 H   0  0  0  0  0  0  0  0  0  0  0  0
   -0.7162   -4.3050   -1.0468 H   0  0  0  0  0  0  0  0  0  0  0  0
   -1.2163   -2.6434   -1.5496 H   0  0  0  0  0  0  0  0  0  0  0  0
    0.4146   -2.9602   -0.9362 H   0  0  0  0  0  0  0  0  0  0  0  0
  1  2  1  0
  2  3  1  0
  3  4  2  0
  4  5  1  0
  5  6  2  0
  6  7  1  0
  7  8  1  0
  8  9  1  0
  9 10  2  0
  9 11  1  0
 11 12  1  0
 12 13  1  0
 12 14  1  0
 12 15  1  0
  8 16  1  0
 16 17  1  0
 17 18  2  0
 17 19  1  0
 19 20  1  0
 20 21  1  0
 21 22  2  0
 21 23  1  0
 23 24  1  0
 24 25  1  0
 25 26  2  0
 26 27  1  0
 26 28  1  0
 28 29  1  0
 16 30  1  0
 30 31  1  0
 30 32  1  0
  7 33  2  0
 33 34  1  0
 34 35  1  0
 33  3  1  0
 29 24  2  0
  1 36  1  0
  1 37  1  0
  1 38  1  0
  4 39  1  0
  5 40  1  0
  6 41  1  0
  8 42  1  0
 11 43  1  0
 13 44  1  0
 13 45  1  0
 13 46  1  0
 14 47  1  0
 14 48  1  0
 14 49  1  0
 15 50  1  0
 15 51  1  0
 15 52  1  0
 19 53  1  0
 19 54  1  0
 20 55  1  0
 20 56  1  0
 23 57  1  0
 25 58  1  0
 27 59  1  0
 27 60  1  0
 27 61  1  0
 30 62  1  0
 31 63  1  0
 31 64  1  0
 31 65  1  0
 32 66  1  0
 32 67  1  0
 32 68  1  0
 35 69  1  0
 35 70  1  0
 35 71  1  0
M  END
$$$$
