
     RDKit          3D

 67 72  0  0  0  0  0  0  0  0999 V2000
    2.4829   -2.9828   -0.5429 O   0  0  0  0  0  0  0  0  0  0  0  0
    2.2627   -1.8419   -0.1281 C   0  0  0  0  0  0  0  0  0  0  0  0
    3.3965   -0.9499    0.4137 C   0  0  0  0  0  0  0  0  0  0  0  0
    4.5975   -1.8102    0.8469 C   0  0  0  0  0  0  0  0  0  0  0  0
    5.8172   -0.9862    1.2002 C   0  0  0  0  0  0  0  0  0  0  0  0
    6.6320   -0.4549    0.1908 C   0  0  0  0  0  0  0  0  0  0  0  0
    7.7412    0.3263    0.5173 C   0  0  0  0  0  0  0  0  0  0  0  0
    8.0459    0.5836    1.8527 C   0  0  0  0  0  0  0  0  0  0  0  0
    7.2430    0.0586    2.8635 C   0  0  0  0  0  0  0  0  0  0  0  0
    6.1335   -0.7232    2.5400 C   0  0  0  0  0  0  0  0  0  0  0  0
    2.9241   -0.1365    1.5297 N   0  0  0  0  0  0  0  0  0  0  0  0
    1.7804    0.5974    1.2058 C   0  0  0  0  0  0  0  0  0  0  0  0
    1.7356    1.8126    1.7704 N   0  0  0  0  0  0  0  0  0  0  0  0
    0.6166    2.5030    1.5726 C   0  0  0  0  0  0  0  0  0  0  0  0
   -0.4606    2.0696    0.9144 N   0  0  0  0  0  0  0  0  0  0  0  0
   -0.4093    0.8288    0.3744 C   0  0  0  0  0  0  0  0  0  0  0  0
   -1.6340    0.3312   -0.1279 N   0  0  0  0  0  0  0  0  0  0  0  0
   -2.3429   -0.3668    0.9882 C   0  0  0  0  0  0  0  0  0  0  0  0
   -3.8598   -0.5022    0.7217 C   0  0  0  0  0  0  0  0  0  0  0  0
   -4.4924    0.8194    0.5579 N   0  0  0  0  0  0  0  0  0  0  0  0
   -5.8049    1.0438    0.9378 C   0  0  0  0  0  0  0  0  0  0  0  0
   -6.2800    2.3263    1.2583 C   0  0  0  0  0  0  0  0  0  0  0  0
   -7.6085    2.5541    1.6403 C   0  0  0  0  0  0  0  0  0  0  0  0
   -8.5053    1.4956    1.7084 C   0  0  0  0  0  0  0  0  0  0  0  0
   -8.0709    0.2147    1.3925 C   0  0  0  0  0  0  0  0  0  0  0  0
   -6.7401   -0.0021    1.0129 C   0  0  0  0  0  0  0  0  0  0  0  0
   -3.6067    1.9157    0.1200 C   0  0  0  0  0  0  0  0  0  0  0  0
   -2.4703    1.3787   -0.7781 C   0  0  0  0  0  0  0  0  0  0  0  0
    0.7572    0.0448    0.4194 C   0  0  0  0  0  0  0  0  0  0  0  0
    1.0007   -1.2251   -0.2332 N   0  0  0  0  0  0  0  0  0  0  0  0
    0.0738   -1.8530   -1.1659 C   0  0  0  0  0  0  0  0  0  0  0  0
    0.4139   -1.5466   -2.6150 C   0  0  0  0  0  0  0  0  0  0  0  0
    0.1096   -0.3018   -3.1838 C   0  0  0  0  0  0  0  0  0  0  0  0
    0.4394   -0.0246   -4.5132 C   0  0  0  0  0  0  0  0  0  0  0  0
    1.0798   -0.9912   -5.2842 C   0  0  0  0  0  0  0  0  0  0  0  0
    1.4889   -0.6481   -6.9197 Cl  0  0  0  0  0  0  0  0  0  0  0  0
    1.3943   -2.2318   -4.7368 C   0  0  0  0  0  0  0  0  0  0  0  0
    1.0635   -2.5071   -3.4078 C   0  0  0  0  0  0  0  0  0  0  0  0
    3.7029   -0.2947   -0.4145 H   0  0  0  0  0  0  0  0  0  0  0  0
    4.3201   -2.4443    1.6999 H   0  0  0  0  0  0  0  0  0  0  0  0
    4.8830   -2.5049    0.0459 H   0  0  0  0  0  0  0  0  0  0  0  0
    6.4107   -0.6483   -0.8567 H   0  0  0  0  0  0  0  0  0  0  0  0
    8.3696    0.7337   -0.2706 H   0  0  0  0  0  0  0  0  0  0  0  0
    8.9101    1.1917    2.1057 H   0  0  0  0  0  0  0  0  0  0  0  0
    7.4810    0.2580    3.9052 H   0  0  0  0  0  0  0  0  0  0  0  0
    5.5140   -1.1233    3.3405 H   0  0  0  0  0  0  0  0  0  0  0  0
    3.6074    0.5087    1.9214 H   0  0  0  0  0  0  0  0  0  0  0  0
    0.5671    3.4985    1.9996 H   0  0  0  0  0  0  0  0  0  0  0  0
   -2.2130    0.1746    1.9366 H   0  0  0  0  0  0  0  0  0  0  0  0
   -1.9156   -1.3674    1.1231 H   0  0  0  0  0  0  0  0  0  0  0  0
   -4.0283   -1.0950   -0.1848 H   0  0  0  0  0  0  0  0  0  0  0  0
   -4.2920   -1.0437    1.5716 H   0  0  0  0  0  0  0  0  0  0  0  0
   -5.6129    3.1831    1.2404 H   0  0  0  0  0  0  0  0  0  0  0  0
   -7.9342    3.5609    1.8875 H   0  0  0  0  0  0  0  0  0  0  0  0
   -9.5362    1.6683    2.0035 H   0  0  0  0  0  0  0  0  0  0  0  0
   -8.7637   -0.6214    1.4335 H   0  0  0  0  0  0  0  0  0  0  0  0
   -6.4543   -1.0166    0.7492 H   0  0  0  0  0  0  0  0  0  0  0  0
   -3.1960    2.4255    0.9989 H   0  0  0  0  0  0  0  0  0  0  0  0
   -4.1672    2.6493   -0.4714 H   0  0  0  0  0  0  0  0  0  0  0  0
   -1.8657    2.2076   -1.1683 H   0  0  0  0  0  0  0  0  0  0  0  0
   -2.9252    0.9092   -1.6604 H   0  0  0  0  0  0  0  0  0  0  0  0
   -0.9723   -1.6332   -0.9783 H   0  0  0  0  0  0  0  0  0  0  0  0
    0.1293   -2.9402   -1.0165 H   0  0  0  0  0  0  0  0  0  0  0  0
   -0.3858    0.4647   -2.5957 H   0  0  0  0  0  0  0  0  0  0  0  0
    0.1959    0.9456   -4.9378 H   0  0  0  0  0  0  0  0  0  0  0  0
    1.8992   -2.9873   -5.3328 H   0  0  0  0  0  0  0  0  0  0  0  0
    1.3277   -3.4772   -2.9880 H   0  0  0  0  0  0  0  0  0  0  0  0
  1  2  2  0
  2  3  1  0
  3  4  1  0
  4  5  1  0
  5  6  2  0
  6  7  1  0
  7  8  2  0
  8  9  1  0
  9 10  2  0
  3 11  1  0
 11 12  1  0
 12 13  2  0
 13 14  1  0
 14 15  2  0
 15 16  1  0
 16 17  1  0
 17 18  1  0
 18 19  1  0
 19 20  1  0
 20 21  1  0
 21 22  2  0
 22 23  1  0
 23 24  2  0
 24 25  1  0
 25 26  2  0
 20 27  1  0
 27 28  1  0
 16 29  2  0
 29 30  1  0
 30 31  1  0
 31 32  1  0
 32 33  2  0
 33 34  1  0
 34 35  2  0
 35 36  1  0
 35 37  1  0
 37 38  2  0
 30  2  1  0
 38 32  1  0
 10  5  1  0
 29 12  1  0
 28 17  1  0
 26 21  1  0
  3 39  1  0
  4 40  1  0
  4 41  1  0
  6 42  1  0
  7 43  1  0
  8 44  1  0
  9 45  1  0
 10 46  1  0
 11 47  1  0
 14 48  1  0
 18 49  1  0
 18 50  1  0
 19 51  1  0
 19 52  1  0
 22 53  1  0
 23 54  1  0
 24 55  1  0
 25 56  1  0
 26 57  1  0
 27 58  1  0
 27 59  1  0
 28 60  1  0
 28 61  1  0
 31 62  1  0
 31 63  1  0
 33 64  1  0
 34 65  1  0
 37 66  1  0
 38 67  1  0
M  END
$$$$
