
     RDKit          3D

 36 37  0  0  0  0  0  0  0  0999 V2000
   -4.0137    0.9562    1.3220 C   0  0  0  0  0  0  0  0  0  0  0  0
   -3.0494    1.0051    0.1405 C   0  0  0  0  0  0  0  0  0  0  0  0
   -2.3356   -0.2586   -0.0808 N   0  0  0  0  0  0  0  0  0  0  0  0
   -1.6947   -0.2850   -1.4063 C   0  0  0  0  0  0  0  0  0  0  0  0
   -1.5458   -1.7063   -1.9683 C   0  0  0  0  0  0  0  0  0  0  0  0
   -0.9096   -1.6561   -3.2426 O   0  0  0  0  0  0  0  0  0  0  0  0
   -1.4536   -0.6911    1.0202 C   0  0  0  0  0  0  0  0  0  0  0  0
   -0.3054    0.2435    1.3252 C   0  0  0  0  0  0  0  0  0  0  0  0
   -0.4098    1.3426    2.1592 C   0  0  0  0  0  0  0  0  0  0  0  0
    1.0410    2.2113    2.3217 S   0  0  0  0  0  0  0  0  0  0  0  0
    1.8980    1.1014    1.3296 C   0  0  0  0  0  0  0  0  0  0  0  0
    3.2681    1.1612    0.9971 C   0  0  0  0  0  0  0  0  0  0  0  0
    3.8298    0.1621    0.1928 C   0  0  0  0  0  0  0  0  0  0  0  0
    5.2774    0.2333   -0.1962 C   0  0  0  0  0  0  0  0  0  0  0  0
    3.0208   -0.8631   -0.2857 C   0  0  0  0  0  0  0  0  0  0  0  0
    1.6619   -0.9156    0.0464 C   0  0  0  0  0  0  0  0  0  0  0  0
    1.0655    0.0788    0.8639 C   0  0  0  0  0  0  0  0  0  0  0  0
   -3.4966    0.8616    2.2802 H   0  0  0  0  0  0  0  0  0  0  0  0
   -4.6034    1.8784    1.3581 H   0  0  0  0  0  0  0  0  0  0  0  0
   -4.7123    0.1184    1.2234 H   0  0  0  0  0  0  0  0  0  0  0  0
   -2.3626    1.8524    0.2413 H   0  0  0  0  0  0  0  0  0  0  0  0
   -3.6695    1.2222   -0.7392 H   0  0  0  0  0  0  0  0  0  0  0  0
   -2.3116    0.2582   -2.1358 H   0  0  0  0  0  0  0  0  0  0  0  0
   -0.7347    0.2430   -1.4181 H   0  0  0  0  0  0  0  0  0  0  0  0
   -0.9427   -2.3454   -1.3196 H   0  0  0  0  0  0  0  0  0  0  0  0
   -2.5305   -2.1696   -2.0943 H   0  0  0  0  0  0  0  0  0  0  0  0
   -0.9070   -2.5633   -3.5925 H   0  0  0  0  0  0  0  0  0  0  0  0
   -1.0655   -1.6947    0.8123 H   0  0  0  0  0  0  0  0  0  0  0  0
   -2.0483   -0.8303    1.9316 H   0  0  0  0  0  0  0  0  0  0  0  0
   -1.2904    1.6926    2.6786 H   0  0  0  0  0  0  0  0  0  0  0  0
    3.8798    1.9788    1.3703 H   0  0  0  0  0  0  0  0  0  0  0  0
    5.3888    0.8123   -1.1181 H   0  0  0  0  0  0  0  0  0  0  0  0
    5.6894   -0.7688   -0.3554 H   0  0  0  0  0  0  0  0  0  0  0  0
    5.8712    0.7061    0.5932 H   0  0  0  0  0  0  0  0  0  0  0  0
    3.4362   -1.6373   -0.9275 H   0  0  0  0  0  0  0  0  0  0  0  0
    1.0648   -1.7345   -0.3419 H   0  0  0  0  0  0  0  0  0  0  0  0
  1  2  1  0
  2  3  1  0
  3  4  1  0
  4  5  1  0
  5  6  1  0
  3  7  1  0
  7  8  1  0
  8  9  2  0
  9 10  1  0
 10 11  1  0
 11 12  2  0
 12 13  1  0
 13 14  1  0
 13 15  2  0
 15 16  1  0
 16 17  2  0
 17  8  1  0
 17 11  1  0
  1 18  1  0
  1 19  1  0
  1 20  1  0
  2 21  1  0
  2 22  1  0
  4 23  1  0
  4 24  1  0
  5 25  1  0
  5 26  1  0
  6 27  1  0
  7 28  1  0
  7 29  1  0
  9 30  1  0
 12 31  1  0
 14 32  1  0
 14 33  1  0
 14 34  1  0
 15 35  1  0
 16 36  1  0
M  END
$$$$
