
     RDKit          3D

 57 59  0  0  0  0  0  0  0  0999 V2000
   -5.7658   -1.4196   -1.3489 C   0  0  0  0  0  0  0  0  0  0  0  0
   -4.5449   -1.1068   -0.4885 C   0  0  0  0  0  0  0  0  0  0  0  0
   -3.2624   -1.3340   -1.1736 N   0  0  0  0  0  0  0  0  0  0  0  0
   -3.0727   -2.7171   -1.6462 C   0  0  0  0  0  0  0  0  0  0  0  0
   -3.0763   -3.8054   -0.5763 C   0  0  0  0  0  0  0  0  0  0  0  0
   -2.1194   -0.8899   -0.3525 C   0  0  0  0  0  0  0  0  0  0  0  0
   -1.9628    0.6377   -0.2851 C   0  0  0  0  0  0  0  0  0  0  0  0
   -0.7686    0.9269    0.4620 O   0  0  0  0  0  0  0  0  0  0  0  0
   -0.4873    2.2726    0.4621 C   0  0  0  0  0  0  0  0  0  0  0  0
   -0.8322    3.0578    1.5028 C   0  0  0  0  0  0  0  0  0  0  0  0
   -0.4112    4.4978    1.4662 C   0  0  2  0  0  0  0  0  0  0  0  0
   -1.2046    5.3750    2.2500 O   0  0  0  0  0  0  0  0  0  0  0  0
   -0.8888    6.6463    1.8209 C   0  0  0  0  0  0  0  0  0  0  0  0
   -1.2219    7.6584    2.4150 O   0  0  0  0  0  0  0  0  0  0  0  0
    0.0114    6.6988    0.2859 S   0  0  0  0  0  0  0  0  0  0  0  0
   -0.4872    5.0083    0.0223 C   0  0  1  0  0  0  0  0  0  0  0  0
    0.3112    4.1438   -0.8921 C   0  0  0  0  0  0  0  0  0  0  0  0
    0.3029    2.8090   -0.6599 C   0  0  0  0  0  0  0  0  0  0  0  0
    1.0215    1.9505   -1.6504 C   0  0  0  0  0  0  0  0  0  0  0  0
    0.9436    2.1793   -2.8563 O   0  0  0  0  0  0  0  0  0  0  0  0
    1.8457    0.8019   -1.1898 C   0  0  0  0  0  0  0  0  0  0  0  0
    2.3732    0.6670    0.0362 C   0  0  0  0  0  0  0  0  0  0  0  0
    3.1769   -0.4938    0.4397 C   0  0  0  0  0  0  0  0  0  0  0  0
    2.9897   -1.0340    1.7159 C   0  0  0  0  0  0  0  0  0  0  0  0
    3.7504   -2.1274    2.1402 C   0  0  0  0  0  0  0  0  0  0  0  0
    4.7155   -2.6924    1.3045 C   0  0  0  0  0  0  0  0  0  0  0  0
    5.3847   -3.7575    1.8411 O   0  0  0  0  0  0  0  0  0  0  0  0
    6.3757   -4.3708    1.0259 C   0  0  0  0  0  0  0  0  0  0  0  0
    4.9183   -2.1478    0.0372 C   0  0  0  0  0  0  0  0  0  0  0  0
    4.1567   -1.0519   -0.3901 C   0  0  0  0  0  0  0  0  0  0  0  0
   -6.6751   -1.0823   -0.8402 H   0  0  0  0  0  0  0  0  0  0  0  0
   -5.7122   -0.9040   -2.3133 H   0  0  0  0  0  0  0  0  0  0  0  0
   -5.8735   -2.4930   -1.5303 H   0  0  0  0  0  0  0  0  0  0  0  0
   -4.6271   -0.0484   -0.2165 H   0  0  0  0  0  0  0  0  0  0  0  0
   -4.6039   -1.6728    0.4491 H   0  0  0  0  0  0  0  0  0  0  0  0
   -3.8332   -2.9550   -2.3988 H   0  0  0  0  0  0  0  0  0  0  0  0
   -2.1242   -2.7735   -2.1966 H   0  0  0  0  0  0  0  0  0  0  0  0
   -2.8913   -4.7803   -1.0408 H   0  0  0  0  0  0  0  0  0  0  0  0
   -4.0396   -3.8659   -0.0614 H   0  0  0  0  0  0  0  0  0  0  0  0
   -2.2921   -3.6440    0.1694 H   0  0  0  0  0  0  0  0  0  0  0  0
   -1.1823   -1.2794   -0.7743 H   0  0  0  0  0  0  0  0  0  0  0  0
   -2.1732   -1.2993    0.6652 H   0  0  0  0  0  0  0  0  0  0  0  0
   -2.8163    1.0980    0.2240 H   0  0  0  0  0  0  0  0  0  0  0  0
   -1.8866    1.0451   -1.3008 H   0  0  0  0  0  0  0  0  0  0  0  0
   -1.3500    2.6631    2.3692 H   0  0  0  0  0  0  0  0  0  0  0  0
    0.6117    4.5223    1.8794 H   0  0  0  0  0  0  0  0  0  0  0  0
   -1.5248    5.0417   -0.3386 H   0  0  0  0  0  0  0  0  0  0  0  0
    0.8199    4.5733   -1.7506 H   0  0  0  0  0  0  0  0  0  0  0  0
    2.0239    0.0661   -1.9682 H   0  0  0  0  0  0  0  0  0  0  0  0
    2.2084    1.4073    0.8134 H   0  0  0  0  0  0  0  0  0  0  0  0
    2.2430   -0.6194    2.3894 H   0  0  0  0  0  0  0  0  0  0  0  0
    3.5884   -2.5427    3.1320 H   0  0  0  0  0  0  0  0  0  0  0  0
    6.8089   -5.2000    1.5932 H   0  0  0  0  0  0  0  0  0  0  0  0
    5.9350   -4.7858    0.1133 H   0  0  0  0  0  0  0  0  0  0  0  0
    7.1837   -3.6698    0.7920 H   0  0  0  0  0  0  0  0  0  0  0  0
    5.6626   -2.5462   -0.6442 H   0  0  0  0  0  0  0  0  0  0  0  0
    4.3486   -0.6378   -1.3774 H   0  0  0  0  0  0  0  0  0  0  0  0
  1  2  1  0
  2  3  1  0
  3  4  1  0
  4  5  1  0
  3  6  1  0
  6  7  1  0
  7  8  1  0
  8  9  1  0
  9 10  2  0
 10 11  1  0
 11 12  1  0
 12 13  1  0
 13 14  2  0
 13 15  1  0
 15 16  1  0
 16 17  1  0
 17 18  2  0
 18 19  1  0
 19 20  2  0
 19 21  1  0
 21 22  2  0
 22 23  1  0
 23 24  2  0
 24 25  1  0
 25 26  2  0
 26 27  1  0
 27 28  1  0
 26 29  1  0
 29 30  2  0
 18  9  1  0
 30 23  1  0
 16 11  1  0
  1 31  1  0
  1 32  1  0
  1 33  1  0
  2 34  1  0
  2 35  1  0
  4 36  1  0
  4 37  1  0
  5 38  1  0
  5 39  1  0
  5 40  1  0
  6 41  1  0
  6 42  1  0
  7 43  1  0
  7 44  1  0
 10 45  1  0
 11 46  1  1
 16 47  1  6
 17 48  1  0
 21 49  1  0
 22 50  1  0
 24 51  1  0
 25 52  1  0
 28 53  1  0
 28 54  1  0
 28 55  1  0
 29 56  1  0
 30 57  1  0
M  END
$$$$
