
     RDKit          3D

 47 50  0  0  0  0  0  0  0  0999 V2000
   -4.8511    2.2210   -1.8710 C   0  0  0  0  0  0  0  0  0  0  0  0
   -4.1336    1.9124   -0.5580 C   0  0  0  0  0  0  0  0  0  0  0  0
   -2.6729    1.5780   -0.8106 C   0  0  0  0  0  0  0  0  0  0  0  0
   -1.9652    1.1229    0.4450 C   0  0  0  0  0  0  0  0  0  0  0  0
   -1.2881    1.9226    1.1001 O   0  0  0  0  0  0  0  0  0  0  0  0
   -2.0257   -0.2280    0.7689 N   0  0  0  0  0  0  0  0  0  0  0  0
   -1.2032   -0.6982    1.8898 C   0  0  0  0  0  0  0  0  0  0  0  0
    0.2657   -0.8917    1.4926 C   0  0  0  0  0  0  0  0  0  0  0  0
    0.7298   -2.0183    1.3373 O   0  0  0  0  0  0  0  0  0  0  0  0
    0.9418    0.3060    1.3333 N   0  0  0  0  0  0  0  0  0  0  0  0
    2.2904    0.5026    0.9801 C   0  0  0  0  0  0  0  0  0  0  0  0
    2.7136    1.8296    0.8161 C   0  0  0  0  0  0  0  0  0  0  0  0
    4.0367    2.1209    0.4735 C   0  0  0  0  0  0  0  0  0  0  0  0
    4.9479    1.0855    0.2968 C   0  0  0  0  0  0  0  0  0  0  0  0
    4.5289   -0.2408    0.4338 C   0  0  0  0  0  0  0  0  0  0  0  0
    3.2091   -0.5315    0.7894 C   0  0  0  0  0  0  0  0  0  0  0  0
    5.3654   -1.3127    0.2429 O   0  0  0  0  0  0  0  0  0  0  0  0
    6.5614   -0.9263   -0.4422 C   0  0  0  0  0  0  0  0  0  0  0  0
    7.1366    0.3441    0.1611 C   0  0  0  0  0  0  0  0  0  0  0  0
    6.2341    1.4419   -0.0166 O   0  0  0  0  0  0  0  0  0  0  0  0
   -2.8907   -1.1664    0.1229 C   0  0  0  0  0  0  0  0  0  0  0  0
   -2.3973   -2.4443   -0.1901 C   0  0  0  0  0  0  0  0  0  0  0  0
   -3.1977   -3.3875   -0.8388 C   0  0  0  0  0  0  0  0  0  0  0  0
   -4.5111   -3.0767   -1.1691 C   0  0  0  0  0  0  0  0  0  0  0  0
   -5.0295   -1.8253   -0.8405 C   0  0  0  0  0  0  0  0  0  0  0  0
   -4.2324   -0.8635   -0.2000 C   0  0  0  0  0  0  0  0  0  0  0  0
   -5.0702    0.6242    0.3419 S   0  0  0  0  0  0  0  0  0  0  0  0
   -4.3469    3.0387   -2.3981 H   0  0  0  0  0  0  0  0  0  0  0  0
   -5.8859    2.5371   -1.6973 H   0  0  0  0  0  0  0  0  0  0  0  0
   -4.8643    1.3541   -2.5412 H   0  0  0  0  0  0  0  0  0  0  0  0
   -4.1833    2.8065    0.0747 H   0  0  0  0  0  0  0  0  0  0  0  0
   -2.5430    0.8355   -1.6073 H   0  0  0  0  0  0  0  0  0  0  0  0
   -2.1510    2.4728   -1.1756 H   0  0  0  0  0  0  0  0  0  0  0  0
   -1.2505    0.0333    2.7063 H   0  0  0  0  0  0  0  0  0  0  0  0
   -1.5957   -1.6374    2.2967 H   0  0  0  0  0  0  0  0  0  0  0  0
    0.3744    1.1508    1.4306 H   0  0  0  0  0  0  0  0  0  0  0  0
    2.0184    2.6547    0.9556 H   0  0  0  0  0  0  0  0  0  0  0  0
    4.3557    3.1526    0.3568 H   0  0  0  0  0  0  0  0  0  0  0  0
    2.9298   -1.5736    0.9021 H   0  0  0  0  0  0  0  0  0  0  0  0
    7.2779   -1.7482   -0.3484 H   0  0  0  0  0  0  0  0  0  0  0  0
    6.3279   -0.7960   -1.5062 H   0  0  0  0  0  0  0  0  0  0  0  0
    8.0776    0.6054   -0.3332 H   0  0  0  0  0  0  0  0  0  0  0  0
    7.3349    0.2258    1.2336 H   0  0  0  0  0  0  0  0  0  0  0  0
   -1.3689   -2.7217    0.0297 H   0  0  0  0  0  0  0  0  0  0  0  0
   -2.7895   -4.3651   -1.0855 H   0  0  0  0  0  0  0  0  0  0  0  0
   -5.1383   -3.8130   -1.6655 H   0  0  0  0  0  0  0  0  0  0  0  0
   -6.0719   -1.6130   -1.0708 H   0  0  0  0  0  0  0  0  0  0  0  0
  1  2  1  0
  2  3  1  0
  3  4  1  0
  4  5  2  0
  4  6  1  0
  6  7  1  0
  7  8  1  0
  8  9  2  0
  8 10  1  0
 10 11  1  0
 11 12  2  0
 12 13  1  0
 13 14  2  0
 14 15  1  0
 15 16  2  0
 15 17  1  0
 17 18  1  0
 18 19  1  0
 19 20  1  0
  6 21  1  0
 21 22  2  0
 22 23  1  0
 23 24  2  0
 24 25  1  0
 25 26  2  0
 26 27  1  0
 27  2  1  0
 16 11  1  0
 26 21  1  0
 20 14  1  0
  1 28  1  0
  1 29  1  0
  1 30  1  0
  2 31  1  0
  3 32  1  0
  3 33  1  0
  7 34  1  0
  7 35  1  0
 10 36  1  0
 12 37  1  0
 13 38  1  0
 16 39  1  0
 18 40  1  0
 18 41  1  0
 19 42  1  0
 19 43  1  0
 22 44  1  0
 23 45  1  0
 24 46  1  0
 25 47  1  0
M  END
$$$$
