
     RDKit          3D

 48 49  0  0  0  0  0  0  0  0999 V2000
   -6.4315    2.1602    0.6213 C   0  0  0  0  0  0  0  0  0  0  0  0
   -6.4504    0.6572    0.3844 C   0  0  0  0  0  0  0  0  0  0  0  0
   -5.1151    0.1235    0.1121 N   0  0  0  0  0  0  0  0  0  0  0  0
   -4.8215   -0.2947   -1.2636 C   0  0  0  0  0  0  0  0  0  0  0  0
   -4.6838    0.8776   -2.2212 C   0  0  0  0  0  0  0  0  0  0  0  0
   -4.2734   -0.0868    1.2068 C   0  0  0  0  0  0  0  0  0  0  0  0
   -4.6218    0.0726    2.3749 O   0  0  0  0  0  0  0  0  0  0  0  0
   -2.8827   -0.5286    0.9780 C   0  0  0  0  0  0  0  0  0  0  0  0
   -1.9835    0.2770    0.2776 C   0  0  0  0  0  0  0  0  0  0  0  0
   -0.6628   -0.1483    0.0944 C   0  0  0  0  0  0  0  0  0  0  0  0
   -0.2290   -1.3669    0.6247 C   0  0  0  0  0  0  0  0  0  0  0  0
    1.0848   -1.8636    0.4910 N   0  0  0  0  0  0  0  0  0  0  0  0
    2.1372   -1.2908   -0.2135 C   0  0  0  0  0  0  0  0  0  0  0  0
    2.0906   -0.2496   -0.8598 O   0  0  0  0  0  0  0  0  0  0  0  0
    3.4314   -2.1131   -0.0764 C   0  0  0  0  0  0  0  0  0  0  0  0
    4.5072   -1.7445   -0.9210 O   0  0  0  0  0  0  0  0  0  0  0  0
    5.3255   -0.7100   -0.5551 C   0  0  0  0  0  0  0  0  0  0  0  0
    5.0517    0.1965    0.4751 C   0  0  0  0  0  0  0  0  0  0  0  0
    5.9454    1.2342    0.7656 C   0  0  0  0  0  0  0  0  0  0  0  0
    7.1215    1.3697    0.0185 C   0  0  0  0  0  0  0  0  0  0  0  0
    8.0582    2.4572    0.3255 N   0  0  0  0  0  4  0  0  0  0  0  0
    7.7852    3.1995    1.2791 O   0  0  0  0  0  0  0  0  0  0  0  0
    9.0687    2.5640   -0.3830 O   0  0  0  0  0  1  0  0  0  0  0  0
    7.4104    0.4782   -1.0178 C   0  0  0  0  0  0  0  0  0  0  0  0
    6.5103   -0.5529   -1.2993 C   0  0  0  0  0  0  0  0  0  0  0  0
    6.9107   -1.6393   -2.5859 Cl  0  0  0  0  0  0  0  0  0  0  0  0
   -1.1356   -2.1529    1.3520 C   0  0  0  0  0  0  0  0  0  0  0  0
   -2.4568   -1.7348    1.5348 C   0  0  0  0  0  0  0  0  0  0  0  0
   -6.0340    2.6941   -0.2471 H   0  0  0  0  0  0  0  0  0  0  0  0
   -5.8090    2.4205    1.4832 H   0  0  0  0  0  0  0  0  0  0  0  0
   -7.4452    2.5258    0.8123 H   0  0  0  0  0  0  0  0  0  0  0  0
   -7.1156    0.4182   -0.4527 H   0  0  0  0  0  0  0  0  0  0  0  0
   -6.8568    0.1562    1.2706 H   0  0  0  0  0  0  0  0  0  0  0  0
   -5.6365   -0.9510   -1.5911 H   0  0  0  0  0  0  0  0  0  0  0  0
   -3.9138   -0.9021   -1.2997 H   0  0  0  0  0  0  0  0  0  0  0  0
   -4.4050    0.5210   -3.2176 H   0  0  0  0  0  0  0  0  0  0  0  0
   -3.9193    1.5826   -1.8820 H   0  0  0  0  0  0  0  0  0  0  0  0
   -5.6264    1.4257   -2.3152 H   0  0  0  0  0  0  0  0  0  0  0  0
   -2.2975    1.2403   -0.1149 H   0  0  0  0  0  0  0  0  0  0  0  0
    0.0037    0.5066   -0.4583 H   0  0  0  0  0  0  0  0  0  0  0  0
    1.2636   -2.7528    0.9419 H   0  0  0  0  0  0  0  0  0  0  0  0
    3.7416   -2.1399    0.9757 H   0  0  0  0  0  0  0  0  0  0  0  0
    3.1787   -3.1453   -0.3488 H   0  0  0  0  0  0  0  0  0  0  0  0
    4.1379    0.1448    1.0591 H   0  0  0  0  0  0  0  0  0  0  0  0
    5.7022    1.9303    1.5671 H   0  0  0  0  0  0  0  0  0  0  0  0
    8.3197    0.5750   -1.6071 H   0  0  0  0  0  0  0  0  0  0  0  0
   -0.8297   -3.0985    1.7924 H   0  0  0  0  0  0  0  0  0  0  0  0
   -3.1494   -2.3419    2.1131 H   0  0  0  0  0  0  0  0  0  0  0  0
  1  2  1  0
  2  3  1  0
  3  4  1  0
  4  5  1  0
  3  6  1  0
  6  7  2  0
  6  8  1  0
  8  9  2  0
  9 10  1  0
 10 11  2  0
 11 12  1  0
 12 13  1  0
 13 14  2  0
 13 15  1  0
 15 16  1  0
 16 17  1  0
 17 18  2  0
 18 19  1  0
 19 20  2  0
 20 21  1  0
 21 22  2  0
 21 23  1  0
 20 24  1  0
 24 25  2  0
 25 26  1  0
 11 27  1  0
 27 28  2  0
 28  8  1  0
 25 17  1  0
  1 29  1  0
  1 30  1  0
  1 31  1  0
  2 32  1  0
  2 33  1  0
  4 34  1  0
  4 35  1  0
  5 36  1  0
  5 37  1  0
  5 38  1  0
  9 39  1  0
 10 40  1  0
 12 41  1  0
 15 42  1  0
 15 43  1  0
 18 44  1  0
 19 45  1  0
 24 46  1  0
 27 47  1  0
 28 48  1  0
M  CHG  2  21   1  23  -1
M  END
$$$$
