
     RDKit          3D

 54 59  0  0  0  0  0  0  0  0999 V2000
    7.0737   -2.5017    0.6086 C   0  0  0  0  0  0  0  0  0  0  0  0
    5.9912   -1.5542    0.1844 C   0  0  0  0  0  0  0  0  0  0  0  0
    6.1703   -0.1726    0.3039 C   0  0  0  0  0  0  0  0  0  0  0  0
    5.1750    0.7111   -0.1217 C   0  0  0  0  0  0  0  0  0  0  0  0
    3.9786    0.2308   -0.6741 C   0  0  0  0  0  0  0  0  0  0  0  0
    2.9102    1.1956   -1.1447 C   0  0  0  0  0  0  0  0  0  0  0  0
    1.6024    0.9630   -0.5292 N   0  0  0  0  0  0  0  0  0  0  0  0
    1.2828    1.4180    0.7554 C   0  0  0  0  0  0  0  0  0  0  0  0
    2.3286    2.1753    1.5422 C   0  0  0  0  0  0  0  0  0  0  0  0
    0.1317    1.2371    1.3416 N   0  0  0  0  0  0  0  0  0  0  0  0
   -0.7691    0.5540    0.6049 C   0  0  0  0  0  0  0  0  0  0  0  0
   -0.5944    0.0521   -0.6636 C   0  0  0  0  0  0  0  0  0  0  0  0
    0.6704    0.2555   -1.3166 C   0  0  0  0  0  0  0  0  0  0  0  0
    0.9057   -0.1535   -2.4497 O   0  0  0  0  0  0  0  0  0  0  0  0
   -1.7878   -0.5936   -1.0371 C   0  0  0  0  0  0  0  0  0  0  0  0
   -2.1393   -1.2530   -2.1680 N   0  0  0  0  0  0  0  0  0  0  0  0
   -3.3846   -1.7543   -2.1588 C   0  0  0  0  0  0  0  0  0  0  0  0
   -3.8246   -2.4405   -3.2835 C   0  0  0  0  0  0  0  0  0  0  0  0
   -5.1051   -2.9915   -3.3504 C   0  0  0  0  0  0  0  0  0  0  0  0
   -5.9654   -2.8542   -2.2703 C   0  0  0  0  0  0  0  0  0  0  0  0
   -5.5371   -2.1675   -1.1332 C   0  0  0  0  0  0  0  0  0  0  0  0
   -4.2656   -1.6141   -1.0520 C   0  0  0  0  0  0  0  0  0  0  0  0
   -3.9237   -0.9679    0.0757 N   0  0  0  0  0  0  0  0  0  0  0  0
   -2.6729   -0.4676    0.0316 C   0  0  0  0  0  0  0  0  0  0  0  0
   -2.0429    0.2497    1.0190 N   0  0  0  0  0  0  0  0  0  0  0  0
   -2.6239    0.5852    2.3079 C   0  0  0  0  0  0  0  0  0  0  0  0
   -3.2589    1.9273    2.2745 C   0  0  0  0  0  0  0  0  0  0  0  0
   -2.7735    3.2073    2.0918 C   0  0  0  0  0  0  0  0  0  0  0  0
   -3.8875    4.0756    2.1785 C   0  0  0  0  0  0  0  0  0  0  0  0
   -4.9789    3.2748    2.4173 C   0  0  0  0  0  0  0  0  0  0  0  0
   -4.6071    1.9713    2.4850 O   0  0  0  0  0  0  0  0  0  0  0  0
    3.8184   -1.1539   -0.8219 C   0  0  0  0  0  0  0  0  0  0  0  0
    4.8145   -2.0367   -0.3967 C   0  0  0  0  0  0  0  0  0  0  0  0
    7.6342   -2.0981    1.4584 H   0  0  0  0  0  0  0  0  0  0  0  0
    6.6515   -3.4613    0.9249 H   0  0  0  0  0  0  0  0  0  0  0  0
    7.7652   -2.6758   -0.2215 H   0  0  0  0  0  0  0  0  0  0  0  0
    7.0899    0.2253    0.7277 H   0  0  0  0  0  0  0  0  0  0  0  0
    5.3468    1.7802   -0.0163 H   0  0  0  0  0  0  0  0  0  0  0  0
    3.2141    2.2266   -0.9364 H   0  0  0  0  0  0  0  0  0  0  0  0
    2.8477    1.1263   -2.2373 H   0  0  0  0  0  0  0  0  0  0  0  0
    2.6897    3.0388    0.9796 H   0  0  0  0  0  0  0  0  0  0  0  0
    3.1600    1.5133    1.7919 H   0  0  0  0  0  0  0  0  0  0  0  0
    1.8988    2.5432    2.4796 H   0  0  0  0  0  0  0  0  0  0  0  0
   -3.1500   -2.5476   -4.1303 H   0  0  0  0  0  0  0  0  0  0  0  0
   -5.4231   -3.5231   -4.2436 H   0  0  0  0  0  0  0  0  0  0  0  0
   -6.9663   -3.2767   -2.3069 H   0  0  0  0  0  0  0  0  0  0  0  0
   -6.2124   -2.0589   -0.2875 H   0  0  0  0  0  0  0  0  0  0  0  0
   -1.8271    0.5540    3.0590 H   0  0  0  0  0  0  0  0  0  0  0  0
   -3.3465   -0.1951    2.5705 H   0  0  0  0  0  0  0  0  0  0  0  0
   -1.7406    3.4732    1.9121 H   0  0  0  0  0  0  0  0  0  0  0  0
   -3.8957    5.1517    2.0792 H   0  0  0  0  0  0  0  0  0  0  0  0
   -6.0334    3.4668    2.5575 H   0  0  0  0  0  0  0  0  0  0  0  0
    2.9212   -1.5634   -1.2827 H   0  0  0  0  0  0  0  0  0  0  0  0
    4.6649   -3.1064   -0.5286 H   0  0  0  0  0  0  0  0  0  0  0  0
  1  2  1  0
  2  3  2  0
  3  4  1  0
  4  5  2  0
  5  6  1  0
  6  7  1  0
  7  8  1  0
  8  9  1  0
  8 10  2  0
 10 11  1  0
 11 12  2  0
 12 13  1  0
 13 14  2  0
 12 15  1  0
 15 16  2  0
 16 17  1  0
 17 18  2  0
 18 19  1  0
 19 20  2  0
 20 21  1  0
 21 22  2  0
 22 23  1  0
 23 24  2  0
 24 25  1  0
 25 26  1  0
 26 27  1  0
 27 28  2  0
 28 29  1  0
 29 30  2  0
 30 31  1  0
  5 32  1  0
 32 33  2  0
 33  2  1  0
 13  7  1  0
 24 15  1  0
 31 27  1  0
 25 11  1  0
 22 17  1  0
  1 34  1  0
  1 35  1  0
  1 36  1  0
  3 37  1  0
  4 38  1  0
  6 39  1  0
  6 40  1  0
  9 41  1  0
  9 42  1  0
  9 43  1  0
 18 44  1  0
 19 45  1  0
 20 46  1  0
 21 47  1  0
 26 48  1  0
 26 49  1  0
 28 50  1  0
 29 51  1  0
 30 52  1  0
 32 53  1  0
 33 54  1  0
M  END
$$$$
