
     RDKit          3D

 38 39  0  0  0  0  0  0  0  0999 V2000
    1.6817    1.2779   -2.5631 O   0  0  0  0  0  0  0  0  0  0  0  0
    1.3741    1.7632   -1.4793 C   0  0  0  0  0  0  0  0  0  0  0  0
    0.2995    2.8415   -1.3401 C   0  0  0  0  0  0  0  0  0  0  0  0
   -1.0041    2.2899   -1.1376 O   0  0  0  0  0  0  0  0  0  0  0  0
   -1.2480    1.8196    0.1081 C   0  0  0  0  0  0  0  0  0  0  0  0
   -0.4647    1.8496    1.0507 O   0  0  0  0  0  0  0  0  0  0  0  0
   -2.6117    1.2421    0.2208 C   0  0  0  0  0  0  0  0  0  0  0  0
   -3.4415    1.1033   -0.9027 C   0  0  0  0  0  0  0  0  0  0  0  0
   -4.7201    0.5521   -0.7754 C   0  0  0  0  0  0  0  0  0  0  0  0
   -5.1668    0.1380    0.4757 C   0  0  0  0  0  0  0  0  0  0  0  0
   -6.4077   -0.4032    0.6427 O   0  0  0  0  0  0  0  0  0  0  0  0
   -4.3590    0.2663    1.5992 C   0  0  0  0  0  0  0  0  0  0  0  0
   -3.0832    0.8138    1.4720 C   0  0  0  0  0  0  0  0  0  0  0  0
   -2.3497    0.9013    2.6267 O   0  0  0  0  0  0  0  0  0  0  0  0
    1.9397    1.3713   -0.2843 N   0  0  0  0  0  0  0  0  0  0  0  0
    2.8749    0.2617   -0.2155 C   0  0  0  0  0  0  0  0  0  0  0  0
    2.1772   -1.1013   -0.2889 C   0  0  0  0  0  0  0  0  0  0  0  0
    3.0788   -2.2042   -0.0011 N   0  0  0  0  0  0  0  0  0  0  0  0
    3.4453   -2.5672    1.2709 C   0  0  0  0  0  0  0  0  0  0  0  0
    2.9328   -1.8738    2.3263 O   0  0  0  0  0  0  0  0  0  0  0  0
    4.2965   -3.5977    1.3344 C   0  0  0  0  0  0  0  0  0  0  0  0
    4.6995   -4.1771   -0.2530 S   0  0  0  0  0  0  0  0  0  0  0  0
    3.6658   -2.9474   -1.0119 C   0  0  0  0  0  0  0  0  0  0  0  0
    3.5352   -2.8322   -2.2176 O   0  0  0  0  0  0  0  0  0  0  0  0
    0.5571    3.5457   -0.5400 H   0  0  0  0  0  0  0  0  0  0  0  0
    0.2793    3.4203   -2.2706 H   0  0  0  0  0  0  0  0  0  0  0  0
   -3.1065    1.4154   -1.8901 H   0  0  0  0  0  0  0  0  0  0  0  0
   -5.3464    0.4570   -1.6568 H   0  0  0  0  0  0  0  0  0  0  0  0
   -6.8451   -0.4650   -0.2236 H   0  0  0  0  0  0  0  0  0  0  0  0
   -4.7195   -0.0589    2.5712 H   0  0  0  0  0  0  0  0  0  0  0  0
   -1.4628    1.2641    2.4181 H   0  0  0  0  0  0  0  0  0  0  0  0
    1.4178    1.5986    0.5623 H   0  0  0  0  0  0  0  0  0  0  0  0
    3.4191    0.3737    0.7292 H   0  0  0  0  0  0  0  0  0  0  0  0
    3.6017    0.3559   -1.0285 H   0  0  0  0  0  0  0  0  0  0  0  0
    1.7498   -1.2400   -1.2872 H   0  0  0  0  0  0  0  0  0  0  0  0
    1.3353   -1.1444    0.4134 H   0  0  0  0  0  0  0  0  0  0  0  0
    3.2717   -2.2709    3.1465 H   0  0  0  0  0  0  0  0  0  0  0  0
    4.7042   -4.0389    2.2312 H   0  0  0  0  0  0  0  0  0  0  0  0
  1  2  2  0
  2  3  1  0
  3  4  1  0
  4  5  1  0
  5  6  2  0
  5  7  1  0
  7  8  2  0
  8  9  1  0
  9 10  2  0
 10 11  1  0
 10 12  1  0
 12 13  2  0
 13 14  1  0
  2 15  1  0
 15 16  1  0
 16 17  1  0
 17 18  1  0
 18 19  1  0
 19 20  1  0
 19 21  2  0
 21 22  1  0
 22 23  1  0
 23 24  2  0
 13  7  1  0
 23 18  1  0
  3 25  1  0
  3 26  1  0
  8 27  1  0
  9 28  1  0
 11 29  1  0
 12 30  1  0
 14 31  1  0
 15 32  1  0
 16 33  1  0
 16 34  1  0
 17 35  1  0
 17 36  1  0
 20 37  1  0
 21 38  1  0
M  END
$$$$
