
     RDKit          3D

 68 74  0  0  0  0  0  0  0  0999 V2000
   -4.0590   -4.2253   -2.6094 C   0  0  0  0  0  0  0  0  0  0  0  0
   -3.3932   -3.4380   -1.5210 C   0  0  0  0  0  0  0  0  0  0  0  0
   -3.4309   -3.8581   -0.1781 C   0  0  0  0  0  0  0  0  0  0  0  0
   -4.2379   -5.3182    0.2835 Cl  0  0  0  0  0  0  0  0  0  0  0  0
   -2.8232   -3.1083    0.8478 C   0  0  0  0  0  0  0  0  0  0  0  0
   -2.1596   -1.9144    0.5642 C   0  0  0  0  0  0  0  0  0  0  0  0
   -2.1117   -1.4886   -0.7554 C   0  0  0  0  0  0  0  0  0  0  0  0
   -2.7315   -2.2401   -1.7671 C   0  0  0  0  0  0  0  0  0  0  0  0
   -2.5864   -1.5894   -2.9903 N   0  0  0  0  0  0  0  0  0  0  0  0
   -1.8984   -0.3809   -2.8621 C   0  0  0  0  0  0  0  0  0  0  0  0
   -1.6692    0.3821   -3.7897 O   0  0  0  0  0  0  0  0  0  0  0  0
   -1.4942   -0.2544   -1.3694 C   0  0  1  0  0  0  0  0  0  0  0  0
   -2.0725    0.9148   -0.6774 C   0  0  0  0  0  0  0  0  0  0  0  0
   -1.0811    1.7121   -0.1063 C   0  0  0  0  0  0  0  0  0  0  0  0
   -1.6735    2.7939    0.4921 C   0  0  0  0  0  0  0  0  0  0  0  0
   -1.1285    3.8044    1.1639 O   0  0  0  0  0  0  0  0  0  0  0  0
   -3.0670    2.6395    0.3418 N   0  0  0  0  0  0  0  0  0  0  0  0
   -4.0835    3.4619    0.9253 C   0  0  0  0  0  0  0  0  0  0  0  0
   -3.8611    4.8256    1.1519 C   0  0  0  0  0  0  0  0  0  0  0  0
   -4.8638    5.6189    1.7167 C   0  0  0  0  0  0  0  0  0  0  0  0
   -6.0890    5.0568    2.0685 C   0  0  0  0  0  0  0  0  0  0  0  0
   -6.3138    3.6980    1.8622 C   0  0  0  0  0  0  0  0  0  0  0  0
   -5.3161    2.9007    1.2955 C   0  0  0  0  0  0  0  0  0  0  0  0
   -3.2879    1.5093   -0.4716 C   0  0  0  0  0  0  0  0  0  0  0  0
   -4.4685    1.1518   -0.9750 O   0  0  0  0  0  0  0  0  0  0  0  0
    0.2668    1.1650   -0.3683 C   0  0  1  0  0  0  0  0  0  0  0  0
    1.0760    0.8206    0.8936 C   0  0  0  0  0  0  0  0  0  0  0  0
    2.3088    0.1039    0.5618 N   0  0  0  0  0  0  0  0  0  0  0  0
    3.4598    0.3434    1.2803 C   0  0  0  0  0  0  0  0  0  0  0  0
    3.5198    1.1015    2.2408 O   0  0  0  0  0  0  0  0  0  0  0  0
    4.5197   -0.3518    0.7961 O   0  0  0  0  0  0  0  0  0  0  0  0
    5.7358   -0.1289    1.5113 C   0  0  0  0  0  0  0  0  0  0  0  0
    6.8079   -0.9710    0.8690 C   0  0  0  0  0  0  0  0  0  0  0  0
    7.5082   -0.4966   -0.2492 C   0  0  0  0  0  0  0  0  0  0  0  0
    8.4885   -1.2830   -0.8565 C   0  0  0  0  0  0  0  0  0  0  0  0
    8.7723   -2.5530   -0.3577 C   0  0  0  0  0  0  0  0  0  0  0  0
    8.0733   -3.0401    0.7453 C   0  0  0  0  0  0  0  0  0  0  0  0
    7.0924   -2.2552    1.3540 C   0  0  0  0  0  0  0  0  0  0  0  0
    2.2690   -0.7877   -0.6038 C   0  0  0  0  0  0  0  0  0  0  0  0
    0.8297   -1.1889   -0.9832 C   0  0  0  0  0  0  0  0  0  0  0  0
   -0.0208   -0.0277   -1.2331 N   0  0  0  0  0  0  0  0  0  0  0  0
   -3.8353   -3.8336   -3.6055 H   0  0  0  0  0  0  0  0  0  0  0  0
   -3.7131   -5.2642   -2.5991 H   0  0  0  0  0  0  0  0  0  0  0  0
   -5.1460   -4.2024   -2.4809 H   0  0  0  0  0  0  0  0  0  0  0  0
   -2.8758   -3.4549    1.8780 H   0  0  0  0  0  0  0  0  0  0  0  0
   -1.7052   -1.3329    1.3605 H   0  0  0  0  0  0  0  0  0  0  0  0
   -2.9679   -1.8858   -3.8749 H   0  0  0  0  0  0  0  0  0  0  0  0
   -0.1605    3.7163    1.1238 H   0  0  0  0  0  0  0  0  0  0  0  0
   -2.9285    5.3054    0.8679 H   0  0  0  0  0  0  0  0  0  0  0  0
   -4.6852    6.6789    1.8800 H   0  0  0  0  0  0  0  0  0  0  0  0
   -6.8640    5.6765    2.5121 H   0  0  0  0  0  0  0  0  0  0  0  0
   -7.2615    3.2542    2.1571 H   0  0  0  0  0  0  0  0  0  0  0  0
   -5.5062    1.8334    1.2024 H   0  0  0  0  0  0  0  0  0  0  0  0
   -5.0406    1.9407   -1.0082 H   0  0  0  0  0  0  0  0  0  0  0  0
    0.8385    1.8768   -0.9773 H   0  0  0  0  0  0  0  0  0  0  0  0
    0.5004    0.1690    1.5635 H   0  0  0  0  0  0  0  0  0  0  0  0
    1.3055    1.7312    1.4585 H   0  0  0  0  0  0  0  0  0  0  0  0
    5.6155   -0.4122    2.5643 H   0  0  0  0  0  0  0  0  0  0  0  0
    6.0173    0.9304    1.4637 H   0  0  0  0  0  0  0  0  0  0  0  0
    7.2900    0.4890   -0.6548 H   0  0  0  0  0  0  0  0  0  0  0  0
    9.0283   -0.9058   -1.7212 H   0  0  0  0  0  0  0  0  0  0  0  0
    9.5349   -3.1653   -0.8318 H   0  0  0  0  0  0  0  0  0  0  0  0
    8.2899   -4.0332    1.1300 H   0  0  0  0  0  0  0  0  0  0  0  0
    6.5489   -2.6523    2.2085 H   0  0  0  0  0  0  0  0  0  0  0  0
    2.7506   -0.2583   -1.4349 H   0  0  0  0  0  0  0  0  0  0  0  0
    2.8606   -1.6855   -0.3934 H   0  0  0  0  0  0  0  0  0  0  0  0
    0.8559   -1.8256   -1.8744 H   0  0  0  0  0  0  0  0  0  0  0  0
    0.4475   -1.7942   -0.1551 H   0  0  0  0  0  0  0  0  0  0  0  0
  1  2  1  0
  2  3  2  0
  3  4  1  0
  3  5  1  0
  5  6  2  0
  6  7  1  0
  7  8  2  0
  8  9  1  0
  9 10  1  0
 10 11  2  0
 10 12  1  0
 12 13  1  0
 13 14  1  0
 14 15  2  0
 15 16  1  0
 15 17  1  0
 17 18  1  0
 18 19  2  0
 19 20  1  0
 20 21  2  0
 21 22  1  0
 22 23  2  0
 17 24  1  0
 24 25  1  0
 14 26  1  0
 26 27  1  0
 27 28  1  0
 28 29  1  0
 29 30  2  0
 29 31  1  0
 31 32  1  0
 32 33  1  0
 33 34  2  0
 34 35  1  0
 35 36  2  0
 36 37  1  0
 37 38  2  0
 28 39  1  0
 39 40  1  0
 40 41  1  0
  8  2  1  0
 12 41  1  6
 12  7  1  0
 24 13  2  0
 41 26  1  0
 23 18  1  0
 38 33  1  0
  1 42  1  0
  1 43  1  0
  1 44  1  0
  5 45  1  0
  6 46  1  0
  9 47  1  0
 16 48  1  0
 19 49  1  0
 20 50  1  0
 21 51  1  0
 22 52  1  0
 23 53  1  0
 25 54  1  0
 26 55  1  6
 27 56  1  0
 27 57  1  0
 32 58  1  0
 32 59  1  0
 34 60  1  0
 35 61  1  0
 36 62  1  0
 37 63  1  0
 38 64  1  0
 39 65  1  0
 39 66  1  0
 40 67  1  0
 40 68  1  0
M  END
$$$$
