
     RDKit          3D

 44 46  0  0  0  0  0  0  0  0999 V2000
   -3.0806    1.9725    2.5661 C   0  0  0  0  0  0  0  0  0  0  0  0
   -2.6776    0.7268    1.8261 C   0  0  0  0  0  0  0  0  0  0  0  0
   -3.1531    0.5279    0.5157 C   0  0  0  0  0  0  0  0  0  0  0  0
   -2.8097   -0.6112   -0.2318 C   0  0  0  0  0  0  0  0  0  0  0  0
   -3.3763   -0.7457   -1.6183 C   0  0  0  0  0  0  0  0  0  0  0  0
   -1.9675   -1.5669    0.3675 C   0  0  0  0  0  0  0  0  0  0  0  0
   -1.4125   -3.0339   -0.4973 S   0  0  0  0  0  6  0  0  0  0  0  0
   -2.5067   -3.5285   -1.3066 O   0  0  0  0  0  0  0  0  0  0  0  0
   -0.7499   -3.9010    0.4549 O   0  0  0  0  0  0  0  0  0  0  0  0
   -0.2509   -2.4274   -1.5703 N   0  0  0  0  0  0  0  0  0  0  0  0
    0.7937   -1.6085   -1.0578 C   0  0  0  0  0  0  0  0  0  0  0  0
    1.7786   -2.1478   -0.2322 C   0  0  0  0  0  0  0  0  0  0  0  0
    2.7790   -1.3234    0.2829 C   0  0  0  0  0  0  0  0  0  0  0  0
    2.7876    0.0364   -0.0248 C   0  0  0  0  0  0  0  0  0  0  0  0
    3.8104    0.7768    0.4962 O   0  0  0  0  0  0  0  0  0  0  0  0
    1.7881    0.5921   -0.8321 C   0  0  0  0  0  0  0  0  0  0  0  0
    1.7141    2.3383   -1.1916 S   0  0  0  0  0  0  0  0  0  0  0  0
    3.0824    2.4736   -2.2617 C   0  0  0  0  0  0  0  0  0  0  0  0
    3.0424    2.1111   -3.5801 N   0  0  0  0  0  0  0  0  0  0  0  0
    4.2831    2.3061   -3.9747 C   0  0  0  0  0  0  0  0  0  0  0  0
    5.0280    2.7736   -2.9322 N   0  0  0  0  0  0  0  0  0  0  0  0
    4.2821    2.8689   -1.8132 N   0  0  0  0  0  0  0  0  0  0  0  0
    0.7919   -0.2429   -1.3507 C   0  0  0  0  0  0  0  0  0  0  0  0
   -1.5064   -1.3877    1.6849 C   0  0  0  0  0  0  0  0  0  0  0  0
   -1.8622   -0.2534    2.4275 C   0  0  0  0  0  0  0  0  0  0  0  0
   -1.3453   -0.1088    3.8389 C   0  0  0  0  0  0  0  0  0  0  0  0
   -3.4761    2.7262    1.8850 H   0  0  0  0  0  0  0  0  0  0  0  0
   -3.8518    1.7377    3.2993 H   0  0  0  0  0  0  0  0  0  0  0  0
   -2.2224    2.4250    3.0699 H   0  0  0  0  0  0  0  0  0  0  0  0
   -3.8056    1.2847    0.0727 H   0  0  0  0  0  0  0  0  0  0  0  0
   -3.8835    0.1728   -1.9378 H   0  0  0  0  0  0  0  0  0  0  0  0
   -4.1169   -1.5509   -1.6473 H   0  0  0  0  0  0  0  0  0  0  0  0
   -2.5825   -0.9294   -2.3476 H   0  0  0  0  0  0  0  0  0  0  0  0
   -0.6609   -2.1703   -2.4648 H   0  0  0  0  0  0  0  0  0  0  0  0
    1.7777   -3.2090    0.0106 H   0  0  0  0  0  0  0  0  0  0  0  0
    3.5510   -1.7422    0.9221 H   0  0  0  0  0  0  0  0  0  0  0  0
    3.8020    1.6604    0.0741 H   0  0  0  0  0  0  0  0  0  0  0  0
    4.6846    2.1336   -4.9686 H   0  0  0  0  0  0  0  0  0  0  0  0
    6.0134    3.0358   -2.9108 H   0  0  0  0  0  0  0  0  0  0  0  0
    0.0094    0.1785   -1.9764 H   0  0  0  0  0  0  0  0  0  0  0  0
   -0.8538   -2.1378    2.1413 H   0  0  0  0  0  0  0  0  0  0  0  0
   -2.1690    0.1051    4.5269 H   0  0  0  0  0  0  0  0  0  0  0  0
   -0.8806   -1.0350    4.1907 H   0  0  0  0  0  0  0  0  0  0  0  0
   -0.5979    0.6977    3.8960 H   0  0  0  0  0  0  0  0  0  0  0  0
  1  2  1  0
  2  3  2  0
  3  4  1  0
  4  5  1  0
  4  6  2  0
  6  7  1  0
  7  8  2  0
  7  9  2  0
  7 10  1  0
 10 11  1  0
 11 12  2  0
 12 13  1  0
 13 14  2  0
 14 15  1  0
 14 16  1  0
 16 17  1  0
 17 18  1  0
 18 19  1  0
 19 20  2  0
 20 21  1  0
 21 22  1  0
 16 23  2  0
  6 24  1  0
 24 25  2  0
 25 26  1  0
 25  2  1  0
 23 11  1  0
 22 18  2  0
  1 27  1  0
  1 28  1  0
  1 29  1  0
  3 30  1  0
  5 31  1  0
  5 32  1  0
  5 33  1  0
 10 34  1  0
 12 35  1  0
 13 36  1  0
 15 37  1  0
 20 38  1  0
 21 39  1  0
 23 40  1  0
 24 41  1  0
 26 42  1  0
 26 43  1  0
 26 44  1  0
M  END
$$$$
