
     RDKit          3D

 40 42  0  0  0  0  0  0  0  0999 V2000
    2.6857    3.8718   -0.9003 C   0  0  0  0  0  0  0  0  0  0  0  0
    1.8310    4.1297    0.3291 C   0  0  0  0  0  0  0  0  0  0  0  0
    0.0571    3.8714   -0.0117 S   0  0  0  0  0  0  0  0  0  0  0  0
   -0.0524    2.0862   -0.0286 C   0  0  0  0  0  0  0  0  0  0  0  0
   -1.2068    1.5056   -0.5080 C   0  0  0  0  0  0  0  0  0  0  0  0
   -1.2797    0.1274   -0.4990 C   0  0  0  0  0  0  0  0  0  0  0  0
   -2.4021   -0.5350   -0.9853 N   0  0  0  0  0  0  0  0  0  0  0  0
   -2.3123   -2.0029   -1.0680 C   0  0  0  0  0  0  0  0  0  0  0  0
   -3.6007   -2.5563   -1.6961 C   0  0  0  0  0  0  0  0  0  0  0  0
   -4.7911   -2.2491   -0.9524 O   0  0  0  0  0  0  0  0  0  0  0  0
   -4.6480   -1.1067   -0.0979 C   0  0  0  0  0  0  0  0  0  0  0  0
   -3.7446   -0.0063   -0.6813 C   0  0  0  0  0  0  0  0  0  0  0  0
   -0.2394   -0.6013   -0.0621 N   0  0  0  0  0  0  0  0  0  0  0  0
    0.8504    0.0414    0.3979 C   0  0  0  0  0  0  0  0  0  0  0  0
    1.9795   -0.7778    0.8863 C   0  0  0  0  0  0  0  0  0  0  0  0
    1.9254   -2.1856    0.8780 C   0  0  0  0  0  0  0  0  0  0  0  0
    2.9928   -2.9632    1.3392 C   0  0  0  0  0  0  0  0  0  0  0  0
    4.1443   -2.3493    1.8217 C   0  0  0  0  0  0  0  0  0  0  0  0
    4.2288   -0.9607    1.8431 C   0  0  0  0  0  0  0  0  0  0  0  0
    3.1591   -0.1868    1.3810 C   0  0  0  0  0  0  0  0  0  0  0  0
    0.9801    1.3754    0.4409 N   0  0  0  0  0  0  0  0  0  0  0  0
    2.6252    2.8318   -1.2350 H   0  0  0  0  0  0  0  0  0  0  0  0
    3.7359    4.0819   -0.6713 H   0  0  0  0  0  0  0  0  0  0  0  0
    2.3940    4.5209   -1.7329 H   0  0  0  0  0  0  0  0  0  0  0  0
    2.1596    3.5205    1.1767 H   0  0  0  0  0  0  0  0  0  0  0  0
    1.9509    5.1764    0.6284 H   0  0  0  0  0  0  0  0  0  0  0  0
   -2.0115    2.1127   -0.8998 H   0  0  0  0  0  0  0  0  0  0  0  0
   -1.4603   -2.3001   -1.6910 H   0  0  0  0  0  0  0  0  0  0  0  0
   -2.1837   -2.4304   -0.0654 H   0  0  0  0  0  0  0  0  0  0  0  0
   -3.5410   -3.6457   -1.7844 H   0  0  0  0  0  0  0  0  0  0  0  0
   -3.7340   -2.1520   -2.7064 H   0  0  0  0  0  0  0  0  0  0  0  0
   -5.6508   -0.7082    0.0869 H   0  0  0  0  0  0  0  0  0  0  0  0
   -4.2549   -1.4539    0.8651 H   0  0  0  0  0  0  0  0  0  0  0  0
   -4.1786    0.3633   -1.6175 H   0  0  0  0  0  0  0  0  0  0  0  0
   -3.7181    0.8244    0.0330 H   0  0  0  0  0  0  0  0  0  0  0  0
    1.0364   -2.6926    0.5057 H   0  0  0  0  0  0  0  0  0  0  0  0
    2.9206   -4.0476    1.3198 H   0  0  0  0  0  0  0  0  0  0  0  0
    4.9745   -2.9519    2.1804 H   0  0  0  0  0  0  0  0  0  0  0  0
    5.1256   -0.4751    2.2190 H   0  0  0  0  0  0  0  0  0  0  0  0
    3.2530    0.8976    1.4100 H   0  0  0  0  0  0  0  0  0  0  0  0
  1  2  1  0
  2  3  1  0
  3  4  1  0
  4  5  2  0
  5  6  1  0
  6  7  1  0
  7  8  1  0
  8  9  1  0
  9 10  1  0
 10 11  1  0
 11 12  1  0
  6 13  2  0
 13 14  1  0
 14 15  1  0
 15 16  2  0
 16 17  1  0
 17 18  2  0
 18 19  1  0
 19 20  2  0
 14 21  2  0
 21  4  1  0
 12  7  1  0
 20 15  1  0
  1 22  1  0
  1 23  1  0
  1 24  1  0
  2 25  1  0
  2 26  1  0
  5 27  1  0
  8 28  1  0
  8 29  1  0
  9 30  1  0
  9 31  1  0
 11 32  1  0
 11 33  1  0
 12 34  1  0
 12 35  1  0
 16 36  1  0
 17 37  1  0
 18 38  1  0
 19 39  1  0
 20 40  1  0
M  END
$$$$
