
     RDKit          3D

 51 54  0  0  0  0  0  0  0  0999 V2000
   -6.6041    2.6525   -0.7313 C   0  0  0  0  0  0  0  0  0  0  0  0
   -6.6886    1.3180   -0.0028 C   0  0  0  0  0  0  0  0  0  0  0  0
   -5.8419    0.3024   -0.6497 N   0  0  0  0  0  0  0  0  0  0  0  0
   -6.4219   -1.0522   -0.7249 C   0  0  0  0  0  0  0  0  0  0  0  0
   -6.3574   -1.7723    0.6159 C   0  0  0  0  0  0  0  0  0  0  0  0
   -4.4471    0.3833   -0.5709 C   0  0  0  0  0  0  0  0  0  0  0  0
   -3.6432   -0.3012   -1.5037 C   0  0  0  0  0  0  0  0  0  0  0  0
   -2.2416   -0.2478   -1.4693 C   0  0  0  0  0  0  0  0  0  0  0  0
   -1.6011    0.5049   -0.4922 C   0  0  0  0  0  0  0  0  0  0  0  0
   -0.1557    0.6107   -0.4096 C   0  0  0  0  0  0  0  0  0  0  0  0
    0.4272    1.3557    0.5454 C   0  0  0  0  0  0  0  0  0  0  0  0
    1.8555    1.4192    0.5671 C   0  0  0  0  0  0  0  0  0  0  0  0
    2.6702    0.4067    0.3167 N   0  0  0  0  0  0  0  0  0  0  0  0
    4.0028    0.7897    0.3891 C   0  0  0  0  0  0  0  0  0  0  0  0
    5.0752   -0.1813    0.1776 C   0  0  0  0  0  0  0  0  0  0  0  0
    6.4019    0.0690    0.5557 C   0  0  0  0  0  0  0  0  0  0  0  0
    7.4070   -0.8851    0.3375 C   0  0  0  0  0  0  0  0  0  0  0  0
    7.1003   -2.1064   -0.2598 C   0  0  0  0  0  0  0  0  0  0  0  0
    7.9812   -3.1166   -0.5283 O   0  0  0  0  0  0  0  0  0  0  0  0
    9.3363   -2.9056   -0.1533 C   0  0  0  0  0  0  0  0  0  0  0  0
    5.7815   -2.3658   -0.6327 C   0  0  0  0  0  0  0  0  0  0  0  0
    4.7783   -1.4160   -0.4147 C   0  0  0  0  0  0  0  0  0  0  0  0
    4.1924    2.1318    0.6419 C   0  0  0  0  0  0  0  0  0  0  0  0
    2.6849    2.9235    0.8067 S   0  0  0  0  0  0  0  0  0  0  0  0
   -0.3923    2.0494    1.5759 C   0  0  0  0  0  0  0  0  0  0  0  0
    0.0935    2.6660    2.5182 O   0  0  0  0  0  0  0  0  0  0  0  0
   -1.7775    1.9630    1.4361 O   0  0  0  0  0  0  0  0  0  0  0  0
   -2.3792    1.1918    0.4246 C   0  0  0  0  0  0  0  0  0  0  0  0
   -3.7756    1.1452    0.3947 C   0  0  0  0  0  0  0  0  0  0  0  0
   -7.2979    3.3708   -0.2831 H   0  0  0  0  0  0  0  0  0  0  0  0
   -5.6001    3.0840   -0.6843 H   0  0  0  0  0  0  0  0  0  0  0  0
   -6.8690    2.5369   -1.7878 H   0  0  0  0  0  0  0  0  0  0  0  0
   -7.7382    0.9998   -0.0398 H   0  0  0  0  0  0  0  0  0  0  0  0
   -6.4523    1.4276    1.0613 H   0  0  0  0  0  0  0  0  0  0  0  0
   -5.9385   -1.6632   -1.4943 H   0  0  0  0  0  0  0  0  0  0  0  0
   -7.4705   -0.9775   -1.0393 H   0  0  0  0  0  0  0  0  0  0  0  0
   -6.8793   -1.2089    1.3962 H   0  0  0  0  0  0  0  0  0  0  0  0
   -6.8288   -2.7571    0.5373 H   0  0  0  0  0  0  0  0  0  0  0  0
   -5.3228   -1.9192    0.9421 H   0  0  0  0  0  0  0  0  0  0  0  0
   -4.1075   -0.8680   -2.3073 H   0  0  0  0  0  0  0  0  0  0  0  0
   -1.6736   -0.7919   -2.2197 H   0  0  0  0  0  0  0  0  0  0  0  0
    0.4350    0.0780   -1.1505 H   0  0  0  0  0  0  0  0  0  0  0  0
    6.6819    1.0012    1.0387 H   0  0  0  0  0  0  0  0  0  0  0  0
    8.4165   -0.6404    0.6510 H   0  0  0  0  0  0  0  0  0  0  0  0
    9.7679   -2.0569   -0.6942 H   0  0  0  0  0  0  0  0  0  0  0  0
    9.4305   -2.7741    0.9298 H   0  0  0  0  0  0  0  0  0  0  0  0
    9.9031   -3.7997   -0.4304 H   0  0  0  0  0  0  0  0  0  0  0  0
    5.5284   -3.3166   -1.0953 H   0  0  0  0  0  0  0  0  0  0  0  0
    3.7586   -1.6505   -0.7138 H   0  0  0  0  0  0  0  0  0  0  0  0
    5.1110    2.6928    0.7249 H   0  0  0  0  0  0  0  0  0  0  0  0
   -4.3155    1.7005    1.1534 H   0  0  0  0  0  0  0  0  0  0  0  0
  1  2  1  0
  2  3  1  0
  3  4  1  0
  4  5  1  0
  3  6  1  0
  6  7  2  0
  7  8  1  0
  8  9  2  0
  9 10  1  0
 10 11  2  0
 11 12  1  0
 12 13  2  0
 13 14  1  0
 14 15  1  0
 15 16  2  0
 16 17  1  0
 17 18  2  0
 18 19  1  0
 19 20  1  0
 18 21  1  0
 21 22  2  0
 14 23  2  0
 23 24  1  0
 11 25  1  0
 25 26  2  0
 25 27  1  0
 27 28  1  0
 28 29  2  0
 29  6  1  0
 28  9  1  0
 24 12  1  0
 22 15  1  0
  1 30  1  0
  1 31  1  0
  1 32  1  0
  2 33  1  0
  2 34  1  0
  4 35  1  0
  4 36  1  0
  5 37  1  0
  5 38  1  0
  5 39  1  0
  7 40  1  0
  8 41  1  0
 10 42  1  0
 16 43  1  0
 17 44  1  0
 20 45  1  0
 20 46  1  0
 20 47  1  0
 21 48  1  0
 22 49  1  0
 23 50  1  0
 29 51  1  0
M  END
$$$$
