
     RDKit          3D

 46 49  0  0  0  0  0  0  0  0999 V2000
    1.5072    1.1623   -1.7015 O   0  0  0  0  0  0  0  0  0  0  0  0
    1.9282    1.6868   -0.6777 C   0  0  0  0  0  0  0  0  0  0  0  0
    1.0563    2.0442    0.5175 C   0  0  0  0  0  0  0  0  0  0  0  0
   -0.2110    1.2882    0.5126 N   0  0  0  0  0  4  0  0  0  0  0  0
   -1.5016    1.8105    0.5472 C   0  0  0  0  0  0  0  0  0  0  0  0
   -2.4149    0.7628    0.4840 C   0  0  0  0  0  0  0  0  0  0  0  0
   -3.9834    0.8896    0.4661 C   0  0  0  0  0  0  0  0  0  0  0  0
   -4.7909   -0.2397    0.3247 C   0  0  0  0  0  0  0  0  0  0  0  0
   -6.1851   -0.1114    0.3096 C   0  0  0  0  0  0  0  0  0  0  0  0
   -6.7835    1.1446    0.4336 C   0  0  0  0  0  0  0  0  0  0  0  0
   -8.5060    1.2245    0.4074 Cl  0  0  0  0  0  0  0  0  0  0  0  0
   -5.9784    2.2776    0.5706 C   0  0  0  0  0  0  0  0  0  0  0  0
   -6.6335    3.8680    0.7280 Cl  0  0  0  0  0  0  0  0  0  0  0  0
   -4.5822    2.1502    0.5851 C   0  0  0  0  0  0  0  0  0  0  0  0
   -1.6082   -0.3601    0.4396 N   0  0  0  0  0  0  0  0  0  0  0  0
   -0.3178   -0.0347    0.4155 C   0  0  0  0  0  0  0  0  0  0  0  0
    0.5810   -1.2113    0.3298 C   0  0  0  0  0  0  0  0  0  0  0  0
   -0.3795   -2.3693    0.6614 C   0  0  0  0  0  0  0  0  0  0  0  0
   -1.7987   -1.8037    0.3805 C   0  0  0  0  0  0  0  0  0  0  0  0
    3.2277    1.9831   -0.4102 O   0  0  0  0  0  0  0  0  0  0  0  0
    4.1803    1.4426   -1.3405 C   0  0  0  0  0  0  0  0  0  0  0  0
    4.4277   -0.0053   -0.9982 C   0  0  0  0  0  0  0  0  0  0  0  0
    5.0522   -0.3519    0.2088 C   0  0  0  0  0  0  0  0  0  0  0  0
    5.2543   -1.6923    0.5408 C   0  0  0  0  0  0  0  0  0  0  0  0
    4.8340   -2.6976   -0.3280 C   0  0  0  0  0  0  0  0  0  0  0  0
    4.2122   -2.3646   -1.5298 C   0  0  0  0  0  0  0  0  0  0  0  0
    4.0082   -1.0250   -1.8638 C   0  0  0  0  0  0  0  0  0  0  0  0
    1.5761    1.7845    1.4456 H   0  0  0  0  0  0  0  0  0  0  0  0
    0.8441    3.1168    0.4953 H   0  0  0  0  0  0  0  0  0  0  0  0
   -1.6091    2.8809    0.5989 H   0  0  0  0  0  0  0  0  0  0  0  0
   -4.3776   -1.2343    0.2103 H   0  0  0  0  0  0  0  0  0  0  0  0
   -6.8049   -0.9999    0.1967 H   0  0  0  0  0  0  0  0  0  0  0  0
   -3.9882    3.0532    0.6952 H   0  0  0  0  0  0  0  0  0  0  0  0
    0.9427   -1.2610   -0.6985 H   0  0  0  0  0  0  0  0  0  0  0  0
    1.3927   -1.0957    1.0487 H   0  0  0  0  0  0  0  0  0  0  0  0
   -0.1645   -3.2791    0.0947 H   0  0  0  0  0  0  0  0  0  0  0  0
   -0.2972   -2.6082    1.7284 H   0  0  0  0  0  0  0  0  0  0  0  0
   -2.5103   -2.1369    1.1391 H   0  0  0  0  0  0  0  0  0  0  0  0
   -2.1403   -2.0727   -0.6233 H   0  0  0  0  0  0  0  0  0  0  0  0
    5.1120    2.0091   -1.2320 H   0  0  0  0  0  0  0  0  0  0  0  0
    3.8464    1.5806   -2.3760 H   0  0  0  0  0  0  0  0  0  0  0  0
    5.3967    0.4216    0.8927 H   0  0  0  0  0  0  0  0  0  0  0  0
    5.7553   -1.9538    1.4702 H   0  0  0  0  0  0  0  0  0  0  0  0
    5.0085   -3.7413   -0.0765 H   0  0  0  0  0  0  0  0  0  0  0  0
    3.9003   -3.1497   -2.2150 H   0  0  0  0  0  0  0  0  0  0  0  0
    3.5228   -0.7825   -2.8080 H   0  0  0  0  0  0  0  0  0  0  0  0
  1  2  2  0
  2  3  1  0
  3  4  1  0
  4  5  1  0
  5  6  2  0
  6  7  1  0
  7  8  2  0
  8  9  1  0
  9 10  2  0
 10 11  1  0
 10 12  1  0
 12 13  1  0
 12 14  2  0
  6 15  1  0
 15 16  1  0
 16 17  1  0
 17 18  1  0
 18 19  1  0
  2 20  1  0
 20 21  1  0
 21 22  1  0
 22 23  2  0
 23 24  1  0
 24 25  2  0
 25 26  1  0
 26 27  2  0
 16  4  2  0
 27 22  1  0
 14  7  1  0
 19 15  1  0
  3 28  1  0
  3 29  1  0
  5 30  1  0
  8 31  1  0
  9 32  1  0
 14 33  1  0
 17 34  1  0
 17 35  1  0
 18 36  1  0
 18 37  1  0
 19 38  1  0
 19 39  1  0
 21 40  1  0
 21 41  1  0
 23 42  1  0
 24 43  1  0
 25 44  1  0
 26 45  1  0
 27 46  1  0
M  CHG  1   4   1
M  END
$$$$
