
     RDKit          3D

 42 44  0  0  0  0  0  0  0  0999 V2000
    4.0867    1.3246    1.8269 C   0  0  0  0  0  0  0  0  0  0  0  0
    4.6855    0.5237    0.8148 O   0  0  0  0  0  0  0  0  0  0  0  0
    3.8498   -0.2578    0.0627 C   0  0  0  0  0  0  0  0  0  0  0  0
    4.4846   -0.9579   -0.9709 C   0  0  0  0  0  0  0  0  0  0  0  0
    3.7591   -1.8018   -1.8127 C   0  0  0  0  0  0  0  0  0  0  0  0
    4.2680   -2.5357   -2.8484 O   0  0  0  0  0  0  0  0  0  0  0  0
    5.6717   -2.4601   -3.0636 C   0  0  0  0  0  0  0  0  0  0  0  0
    2.3842   -1.9375   -1.6206 C   0  0  0  0  0  0  0  0  0  0  0  0
    1.7357   -1.2323   -0.6001 C   0  0  0  0  0  0  0  0  0  0  0  0
    0.2622   -1.4141   -0.4404 C   0  0  0  0  0  0  0  0  0  0  0  0
   -0.2123   -2.5060   -0.7269 O   0  0  0  0  0  0  0  0  0  0  0  0
   -0.4070   -0.2900    0.0018 N   0  0  0  0  0  0  0  0  0  0  0  0
   -1.7650   -0.1519    0.2554 C   0  0  0  0  0  0  0  0  0  0  0  0
   -2.8488   -1.4603    0.0517 S   0  0  0  0  0  0  0  0  0  0  0  0
   -4.1373   -0.4974    0.4809 C   0  0  0  0  0  0  0  0  0  0  0  0
   -3.7977    0.7895    0.7973 C   0  0  0  0  0  0  0  0  0  0  0  0
   -2.3918    1.0206    0.6980 C   0  0  0  0  0  0  0  0  0  0  0  0
   -1.6308    2.2387    0.9741 C   0  0  0  0  0  0  0  0  0  0  0  0
   -2.3039    3.2748    1.5518 N   0  0  0  0  0  0  0  0  0  0  0  0
   -0.4273    2.3444    0.7425 O   0  0  0  0  0  0  0  0  0  0  0  0
   -5.0159    1.5685    1.1484 C   0  0  0  0  0  0  0  0  0  0  0  0
   -6.1708    0.6439    0.6534 C   0  0  0  0  0  0  0  0  0  0  0  0
   -5.5849   -0.7951    0.5695 C   0  0  0  0  0  0  0  0  0  0  0  0
    2.4757   -0.4022    0.2546 C   0  0  0  0  0  0  0  0  0  0  0  0
    4.8781    1.9179    2.2951 H   0  0  0  0  0  0  0  0  0  0  0  0
    3.6340    0.7007    2.6045 H   0  0  0  0  0  0  0  0  0  0  0  0
    3.3559    2.0204    1.4014 H   0  0  0  0  0  0  0  0  0  0  0  0
    5.5551   -0.8233   -1.0893 H   0  0  0  0  0  0  0  0  0  0  0  0
    6.2255   -2.8233   -2.1916 H   0  0  0  0  0  0  0  0  0  0  0  0
    5.9159   -3.1118   -3.9080 H   0  0  0  0  0  0  0  0  0  0  0  0
    5.9752   -1.4423   -3.3300 H   0  0  0  0  0  0  0  0  0  0  0  0
    1.8141   -2.5968   -2.2730 H   0  0  0  0  0  0  0  0  0  0  0  0
    0.1159    0.5781    0.1033 H   0  0  0  0  0  0  0  0  0  0  0  0
   -1.7485    4.0684    1.8408 H   0  0  0  0  0  0  0  0  0  0  0  0
   -3.2135    3.1591    1.9677 H   0  0  0  0  0  0  0  0  0  0  0  0
   -5.0575    2.5409    0.6499 H   0  0  0  0  0  0  0  0  0  0  0  0
   -5.0807    1.7090    2.2325 H   0  0  0  0  0  0  0  0  0  0  0  0
   -6.4772    0.9641   -0.3513 H   0  0  0  0  0  0  0  0  0  0  0  0
   -7.0531    0.6984    1.2985 H   0  0  0  0  0  0  0  0  0  0  0  0
   -5.8117   -1.3569    1.4813 H   0  0  0  0  0  0  0  0  0  0  0  0
   -5.9733   -1.3318   -0.3003 H   0  0  0  0  0  0  0  0  0  0  0  0
    1.9761    0.1007    1.0749 H   0  0  0  0  0  0  0  0  0  0  0  0
  1  2  1  0
  2  3  1  0
  3  4  2  0
  4  5  1  0
  5  6  1  0
  6  7  1  0
  5  8  2  0
  8  9  1  0
  9 10  1  0
 10 11  2  0
 10 12  1  0
 12 13  1  0
 13 14  1  0
 14 15  1  0
 15 16  2  0
 16 17  1  0
 17 18  1  0
 18 19  1  0
 18 20  2  0
 16 21  1  0
 21 22  1  0
 22 23  1  0
  9 24  2  0
 24  3  1  0
 17 13  2  0
 23 15  1  0
  1 25  1  0
  1 26  1  0
  1 27  1  0
  4 28  1  0
  7 29  1  0
  7 30  1  0
  7 31  1  0
  8 32  1  0
 12 33  1  0
 19 34  1  0
 19 35  1  0
 21 36  1  0
 21 37  1  0
 22 38  1  0
 22 39  1  0
 23 40  1  0
 23 41  1  0
 24 42  1  0
M  END
$$$$
