
     RDKit          3D

 53 55  0  0  0  0  0  0  0  0999 V2000
   -4.9230   -2.4216    2.9515 C   0  0  0  0  0  0  0  0  0  0  0  0
   -4.8996   -1.9411    1.6133 O   0  0  0  0  0  0  0  0  0  0  0  0
   -5.8785   -1.0558    1.2435 C   0  0  0  0  0  0  0  0  0  0  0  0
   -6.9298   -0.6404    2.0674 C   0  0  0  0  0  0  0  0  0  0  0  0
   -7.8719    0.2816    1.6038 C   0  0  0  0  0  0  0  0  0  0  0  0
   -7.7699    0.7987    0.3163 C   0  0  0  0  0  0  0  0  0  0  0  0
   -6.7282    0.3896   -0.5136 C   0  0  0  0  0  0  0  0  0  0  0  0
   -5.7811   -0.5475   -0.0660 C   0  0  0  0  0  0  0  0  0  0  0  0
   -4.6578   -0.9535   -0.9851 C   0  0  0  0  0  0  0  0  0  0  0  0
   -3.4576   -0.2114   -0.6983 N   0  0  0  0  0  0  0  0  0  0  0  0
   -2.3959   -0.2059   -1.5685 C   0  0  0  0  0  0  0  0  0  0  0  0
   -2.3962   -0.6302   -2.7158 O   0  0  0  0  0  0  0  0  0  0  0  0
   -1.1042    0.3923   -0.9657 C   0  0  0  0  0  0  0  0  0  0  0  0
   -1.0462    0.6756    0.2219 O   0  0  0  0  0  0  0  0  0  0  0  0
   -0.0800    0.5264   -1.8742 N   0  0  0  0  0  0  0  0  0  0  0  0
    1.2654    0.8793   -1.4541 C   0  0  0  0  0  0  0  0  0  0  0  0
    1.9824   -0.2448   -0.6748 C   0  0  0  0  0  0  0  0  0  0  0  0
    1.9807   -1.4449   -1.4886 O   0  0  0  0  0  0  0  0  0  0  0  0
    3.3368   -1.7391   -1.8282 C   0  0  0  0  0  0  0  0  0  0  0  0
    4.1503   -1.1390   -0.7074 C   0  0  0  0  0  0  0  0  0  0  0  0
    3.4053    0.0977   -0.4344 N   0  0  0  0  0  0  0  0  0  0  0  0
    3.6837    0.8612    1.0458 S   0  0  0  0  0  6  0  0  0  0  0  0
    3.5492   -0.1311    2.0900 O   0  0  0  0  0  0  0  0  0  0  0  0
    2.9246    2.0910    1.0680 O   0  0  0  0  0  0  0  0  0  0  0  0
    5.3998    1.3065    0.9180 C   0  0  0  0  0  0  0  0  0  0  0  0
    5.7700    2.3334    0.0427 C   0  0  0  0  0  0  0  0  0  0  0  0
    7.1141    2.6939   -0.0640 C   0  0  0  0  0  0  0  0  0  0  0  0
    8.0714    2.0320    0.7067 C   0  0  0  0  0  0  0  0  0  0  0  0
    9.8917    2.5211    0.5594 Br  0  0  0  0  0  0  0  0  0  0  0  0
    7.6992    1.0146    1.5877 C   0  0  0  0  0  0  0  0  0  0  0  0
    6.3560    0.6497    1.6986 C   0  0  0  0  0  0  0  0  0  0  0  0
   -5.8269   -3.0090    3.1431 H   0  0  0  0  0  0  0  0  0  0  0  0
   -4.8230   -1.6004    3.6689 H   0  0  0  0  0  0  0  0  0  0  0  0
   -4.0622   -3.0842    3.0830 H   0  0  0  0  0  0  0  0  0  0  0  0
   -7.0454   -1.0128    3.0798 H   0  0  0  0  0  0  0  0  0  0  0  0
   -8.6837    0.5999    2.2530 H   0  0  0  0  0  0  0  0  0  0  0  0
   -8.4983    1.5221   -0.0406 H   0  0  0  0  0  0  0  0  0  0  0  0
   -6.6527    0.8074   -1.5156 H   0  0  0  0  0  0  0  0  0  0  0  0
   -4.9355   -0.7946   -2.0342 H   0  0  0  0  0  0  0  0  0  0  0  0
   -4.4359   -2.0227   -0.8880 H   0  0  0  0  0  0  0  0  0  0  0  0
   -3.2421    0.0062    0.2712 H   0  0  0  0  0  0  0  0  0  0  0  0
   -0.2189    0.0565   -2.7656 H   0  0  0  0  0  0  0  0  0  0  0  0
    1.8169    1.1152   -2.3712 H   0  0  0  0  0  0  0  0  0  0  0  0
    1.2047    1.7899   -0.8505 H   0  0  0  0  0  0  0  0  0  0  0  0
    1.4538   -0.4954    0.2509 H   0  0  0  0  0  0  0  0  0  0  0  0
    3.4760   -2.8188   -1.9274 H   0  0  0  0  0  0  0  0  0  0  0  0
    3.5591   -1.2612   -2.7888 H   0  0  0  0  0  0  0  0  0  0  0  0
    5.1808   -0.9481   -1.0149 H   0  0  0  0  0  0  0  0  0  0  0  0
    4.1373   -1.8042    0.1624 H   0  0  0  0  0  0  0  0  0  0  0  0
    5.0192    2.8530   -0.5492 H   0  0  0  0  0  0  0  0  0  0  0  0
    7.4039    3.4922   -0.7430 H   0  0  0  0  0  0  0  0  0  0  0  0
    8.4452    0.5067    2.1942 H   0  0  0  0  0  0  0  0  0  0  0  0
    6.0671   -0.1362    2.3933 H   0  0  0  0  0  0  0  0  0  0  0  0
  1  2  1  0
  2  3  1  0
  3  4  2  0
  4  5  1  0
  5  6  2  0
  6  7  1  0
  7  8  2  0
  8  9  1  0
  9 10  1  0
 10 11  1  0
 11 12  2  0
 11 13  1  0
 13 14  2  0
 13 15  1  0
 15 16  1  0
 16 17  1  0
 17 18  1  0
 18 19  1  0
 19 20  1  0
 20 21  1  0
 21 22  1  0
 22 23  2  0
 22 24  2  0
 22 25  1  0
 25 26  2  0
 26 27  1  0
 27 28  2  0
 28 29  1  0
 28 30  1  0
 30 31  2  0
  8  3  1  0
 21 17  1  0
 31 25  1  0
  1 32  1  0
  1 33  1  0
  1 34  1  0
  4 35  1  0
  5 36  1  0
  6 37  1  0
  7 38  1  0
  9 39  1  0
  9 40  1  0
 10 41  1  0
 15 42  1  0
 16 43  1  0
 16 44  1  0
 17 45  1  0
 19 46  1  0
 19 47  1  0
 20 48  1  0
 20 49  1  0
 26 50  1  0
 27 51  1  0
 30 52  1  0
 31 53  1  0
M  END
$$$$
