
     RDKit          3D

 44 46  0  0  0  0  0  0  0  0999 V2000
   -3.1039   -1.1580    3.6145 C   0  0  0  0  0  0  0  0  0  0  0  0
   -2.6396   -1.3376    2.1988 C   0  0  0  0  0  0  0  0  0  0  0  0
   -1.6919   -2.3129    1.8906 C   0  0  0  0  0  0  0  0  0  0  0  0
   -1.2160   -2.4902    0.5773 C   0  0  0  0  0  0  0  0  0  0  0  0
   -0.2247   -3.6054    0.3669 C   0  0  0  0  0  0  0  0  0  0  0  0
   -1.7160   -1.6535   -0.4572 C   0  0  0  0  0  0  0  0  0  0  0  0
   -1.1035   -1.8803   -2.1447 S   0  0  0  0  0  6  0  0  0  0  0  0
   -0.9498   -3.3018   -2.3773 O   0  0  0  0  0  0  0  0  0  0  0  0
   -1.8757   -1.0847   -3.0744 O   0  0  0  0  0  0  0  0  0  0  0  0
    0.4617   -1.2389   -2.0796 N   0  0  0  0  0  0  0  0  0  0  0  0
    0.6469    0.0965   -1.6298 C   0  0  0  0  0  0  0  0  0  0  0  0
    0.2454    1.1669   -2.4264 C   0  0  0  0  0  0  0  0  0  0  0  0
    0.4036    2.4756   -1.9692 C   0  0  0  0  0  0  0  0  0  0  0  0
    0.9592    2.7056   -0.7102 C   0  0  0  0  0  0  0  0  0  0  0  0
    1.1059    3.9918   -0.2642 O   0  0  0  0  0  0  0  0  0  0  0  0
    1.3650    1.6351    0.1000 C   0  0  0  0  0  0  0  0  0  0  0  0
    2.0674    1.8841    1.7223 S   0  0  0  0  0  0  0  0  0  0  0  0
    3.7516    2.1431    1.3405 C   0  0  0  0  0  0  0  0  0  0  0  0
    4.3238    1.8493    0.1277 N   0  0  0  0  0  0  0  0  0  0  0  0
    5.5812    2.1780    0.3020 C   0  0  0  0  0  0  0  0  0  0  0  0
    5.7575    2.6332    1.5685 N   0  0  0  0  0  0  0  0  0  0  0  0
    4.6093    2.6019    2.2606 N   0  0  0  0  0  0  0  0  0  0  0  0
    1.1990    0.3250   -0.3695 C   0  0  0  0  0  0  0  0  0  0  0  0
   -2.6846   -0.6627   -0.1561 C   0  0  0  0  0  0  0  0  0  0  0  0
   -3.3109    0.2596   -1.1678 C   0  0  0  0  0  0  0  0  0  0  0  0
   -3.1204   -0.5193    1.1764 C   0  0  0  0  0  0  0  0  0  0  0  0
   -3.3481   -2.1278    4.0620 H   0  0  0  0  0  0  0  0  0  0  0  0
   -2.3199   -0.6758    4.2067 H   0  0  0  0  0  0  0  0  0  0  0  0
   -4.0057   -0.5386    3.6649 H   0  0  0  0  0  0  0  0  0  0  0  0
   -1.3202   -2.9514    2.6919 H   0  0  0  0  0  0  0  0  0  0  0  0
   -0.7061   -4.4566   -0.1223 H   0  0  0  0  0  0  0  0  0  0  0  0
    0.1773   -3.9665    1.3206 H   0  0  0  0  0  0  0  0  0  0  0  0
    0.6399   -3.2730   -0.2111 H   0  0  0  0  0  0  0  0  0  0  0  0
    1.1603   -1.9306   -1.8180 H   0  0  0  0  0  0  0  0  0  0  0  0
   -0.1888    0.9884   -3.4080 H   0  0  0  0  0  0  0  0  0  0  0  0
    0.0872    3.2970   -2.6052 H   0  0  0  0  0  0  0  0  0  0  0  0
    0.8137    4.6046   -0.9566 H   0  0  0  0  0  0  0  0  0  0  0  0
    6.3771    2.1103   -0.4252 H   0  0  0  0  0  0  0  0  0  0  0  0
    6.6022    2.9641    2.0212 H   0  0  0  0  0  0  0  0  0  0  0  0
    1.5041   -0.5111    0.2528 H   0  0  0  0  0  0  0  0  0  0  0  0
   -3.9030   -0.3101   -1.8904 H   0  0  0  0  0  0  0  0  0  0  0  0
   -3.9997    0.9682   -0.6933 H   0  0  0  0  0  0  0  0  0  0  0  0
   -2.5520    0.8633   -1.6707 H   0  0  0  0  0  0  0  0  0  0  0  0
   -3.8588    0.2449    1.4206 H   0  0  0  0  0  0  0  0  0  0  0  0
  1  2  1  0
  2  3  2  0
  3  4  1  0
  4  5  1  0
  4  6  2  0
  6  7  1  0
  7  8  2  0
  7  9  2  0
  7 10  1  0
 10 11  1  0
 11 12  2  0
 12 13  1  0
 13 14  2  0
 14 15  1  0
 14 16  1  0
 16 17  1  0
 17 18  1  0
 18 19  1  0
 19 20  2  0
 20 21  1  0
 21 22  1  0
 16 23  2  0
  6 24  1  0
 24 25  1  0
 24 26  2  0
 26  2  1  0
 23 11  1  0
 22 18  2  0
  1 27  1  0
  1 28  1  0
  1 29  1  0
  3 30  1  0
  5 31  1  0
  5 32  1  0
  5 33  1  0
 10 34  1  0
 12 35  1  0
 13 36  1  0
 15 37  1  0
 20 38  1  0
 21 39  1  0
 23 40  1  0
 25 41  1  0
 25 42  1  0
 25 43  1  0
 26 44  1  0
M  END
$$$$
