
     RDKit          3D

 51 55  0  0  0  0  0  0  0  0999 V2000
    7.2286    0.8817    1.1501 C   0  0  0  0  0  0  0  0  0  0  0  0
    7.4056   -0.2428    0.3468 C   0  0  0  0  0  0  0  0  0  0  0  0
    6.3940   -0.6442   -0.5279 C   0  0  0  0  0  0  0  0  0  0  0  0
    5.1950    0.0780   -0.6099 C   0  0  0  0  0  0  0  0  0  0  0  0
    4.1005   -0.3601   -1.5556 C   0  0  0  0  0  0  0  0  0  0  0  0
    2.9473   -1.1151   -0.8636 C   0  0  0  0  0  0  0  0  0  0  0  0
    2.0107   -0.2605   -0.1096 N   0  0  0  0  0  0  0  0  0  0  0  0
    1.2655    0.6637   -0.9969 C   0  0  0  0  0  0  0  0  0  0  0  0
   -0.1403    1.0355   -0.4817 C   0  0  0  0  0  0  0  0  0  0  0  0
   -0.9861   -0.1674   -0.3715 N   0  0  0  0  0  0  0  0  0  0  0  0
   -2.3569   -0.0159   -0.1789 C   0  0  0  0  0  0  0  0  0  0  0  0
   -2.8010    1.1684    0.1673 N   0  0  0  0  0  0  0  0  0  0  0  0
   -4.1683    1.3854    0.4184 C   0  0  0  0  0  0  0  0  0  0  0  0
   -4.5772    2.6644    0.8015 C   0  0  0  0  0  0  0  0  0  0  0  0
   -5.9211    2.9325    1.0749 C   0  0  0  0  0  0  0  0  0  0  0  0
   -6.8726    1.9178    0.9675 C   0  0  0  0  0  0  0  0  0  0  0  0
   -6.4863    0.6324    0.5860 C   0  0  0  0  0  0  0  0  0  0  0  0
   -5.1376    0.3798    0.3163 C   0  0  0  0  0  0  0  0  0  0  0  0
   -4.6638   -0.8788   -0.0871 N   0  0  0  0  0  0  0  0  0  0  0  0
   -5.3625   -2.0431   -0.3031 C   0  0  0  0  0  0  0  0  0  0  0  0
   -4.4810   -2.9947   -0.7652 C   0  0  0  0  0  0  0  0  0  0  0  0
   -3.2034   -2.3905   -0.8154 C   0  0  0  0  0  0  0  0  0  0  0  0
   -3.3267   -1.0912   -0.3524 C   0  0  0  0  0  0  0  0  0  0  0  0
   -0.2777   -1.3822    0.0605 C   0  0  0  0  0  0  0  0  0  0  0  0
    1.0822   -1.0597    0.7180 C   0  0  0  0  0  0  0  0  0  0  0  0
    5.0283    1.2051    0.2051 C   0  0  0  0  0  0  0  0  0  0  0  0
    6.0398    1.6048    1.0801 C   0  0  0  0  0  0  0  0  0  0  0  0
    8.0148    1.1930    1.8323 H   0  0  0  0  0  0  0  0  0  0  0  0
    8.3315   -0.8089    0.4021 H   0  0  0  0  0  0  0  0  0  0  0  0
    6.5498   -1.5255   -1.1455 H   0  0  0  0  0  0  0  0  0  0  0  0
    3.7381    0.5062   -2.1216 H   0  0  0  0  0  0  0  0  0  0  0  0
    4.5368   -1.0282   -2.3101 H   0  0  0  0  0  0  0  0  0  0  0  0
    2.3934   -1.6833   -1.6226 H   0  0  0  0  0  0  0  0  0  0  0  0
    3.3923   -1.8552   -0.1855 H   0  0  0  0  0  0  0  0  0  0  0  0
    1.1424    0.2207   -1.9947 H   0  0  0  0  0  0  0  0  0  0  0  0
    1.8499    1.5823   -1.1188 H   0  0  0  0  0  0  0  0  0  0  0  0
   -0.5898    1.7404   -1.1917 H   0  0  0  0  0  0  0  0  0  0  0  0
   -0.0676    1.5380    0.4909 H   0  0  0  0  0  0  0  0  0  0  0  0
   -3.8373    3.4557    0.8884 H   0  0  0  0  0  0  0  0  0  0  0  0
   -6.2224    3.9336    1.3723 H   0  0  0  0  0  0  0  0  0  0  0  0
   -7.9174    2.1307    1.1808 H   0  0  0  0  0  0  0  0  0  0  0  0
   -7.2447   -0.1390    0.5067 H   0  0  0  0  0  0  0  0  0  0  0  0
   -6.4274   -2.1086   -0.1348 H   0  0  0  0  0  0  0  0  0  0  0  0
   -4.7346   -4.0086   -1.0471 H   0  0  0  0  0  0  0  0  0  0  0  0
   -2.2938   -2.8619   -1.1590 H   0  0  0  0  0  0  0  0  0  0  0  0
   -0.8745   -1.9387    0.7921 H   0  0  0  0  0  0  0  0  0  0  0  0
   -0.1170   -2.0284   -0.8097 H   0  0  0  0  0  0  0  0  0  0  0  0
    1.5540   -1.9887    1.0611 H   0  0  0  0  0  0  0  0  0  0  0  0
    0.8898   -0.4820    1.6321 H   0  0  0  0  0  0  0  0  0  0  0  0
    4.1024    1.7743    0.1692 H   0  0  0  0  0  0  0  0  0  0  0  0
    5.8963    2.4788    1.7096 H   0  0  0  0  0  0  0  0  0  0  0  0
  1  2  2  0
  2  3  1  0
  3  4  2  0
  4  5  1  0
  5  6  1  0
  6  7  1  0
  7  8  1  0
  8  9  1  0
  9 10  1  0
 10 11  1  0
 11 12  2  0
 12 13  1  0
 13 14  2  0
 14 15  1  0
 15 16  2  0
 16 17  1  0
 17 18  2  0
 18 19  1  0
 19 20  1  0
 20 21  2  0
 21 22  1  0
 22 23  2  0
 10 24  1  0
 24 25  1  0
  4 26  1  0
 26 27  2  0
 27  1  1  0
 25  7  1  0
 23 11  1  0
 18 13  1  0
 23 19  1  0
  1 28  1  0
  2 29  1  0
  3 30  1  0
  5 31  1  0
  5 32  1  0
  6 33  1  0
  6 34  1  0
  8 35  1  0
  8 36  1  0
  9 37  1  0
  9 38  1  0
 14 39  1  0
 15 40  1  0
 16 41  1  0
 17 42  1  0
 20 43  1  0
 21 44  1  0
 22 45  1  0
 24 46  1  0
 24 47  1  0
 25 48  1  0
 25 49  1  0
 26 50  1  0
 27 51  1  0
M  END
$$$$
