
     RDKit          3D

 44 45  0  0  0  0  0  0  0  0999 V2000
   -5.3424    2.3883   -0.5948 C   0  0  0  0  0  0  0  0  0  0  0  0
   -6.2842    1.3314   -0.0343 C   0  0  0  0  0  0  0  0  0  0  0  0
   -5.7675    0.7463    1.2789 C   0  0  0  0  0  0  0  0  0  0  0  0
   -4.5132    0.0787    1.0728 O   0  0  0  0  0  0  0  0  0  0  0  0
   -4.5808   -1.2386    0.7587 C   0  0  0  0  0  0  0  0  0  0  0  0
   -5.5993   -1.9050    0.6573 O   0  0  0  0  0  0  0  0  0  0  0  0
   -3.2154   -1.7965    0.5633 C   0  0  0  0  0  0  0  0  0  0  0  0
   -3.0741   -3.1889    0.5188 C   0  0  0  0  0  0  0  0  0  0  0  0
   -1.8160   -3.7562    0.3314 C   0  0  0  0  0  0  0  0  0  0  0  0
   -0.6976   -2.9333    0.1819 C   0  0  0  0  0  0  0  0  0  0  0  0
   -0.8230   -1.5377    0.2138 C   0  0  0  0  0  0  0  0  0  0  0  0
    0.3542   -0.7875    0.0316 N   0  0  0  0  0  0  0  0  0  0  0  0
    0.5014    0.5884    0.0388 C   0  0  0  0  0  0  0  0  0  0  0  0
   -0.3819    1.4185    0.2370 O   0  0  0  0  0  0  0  0  0  0  0  0
    1.9310    1.0346   -0.2833 C   0  0  0  0  0  0  0  0  0  0  0  0
    2.8561   -0.0372   -0.0928 O   0  0  0  0  0  0  0  0  0  0  0  0
    4.1806    0.3028   -0.1378 C   0  0  0  0  0  0  0  0  0  0  0  0
    4.7071    1.3981   -0.8281 C   0  0  0  0  0  0  0  0  0  0  0  0
    6.0862    1.6388   -0.8143 C   0  0  0  0  0  0  0  0  0  0  0  0
    6.9357    0.7785   -0.1054 C   0  0  0  0  0  0  0  0  0  0  0  0
    8.3809    1.0377   -0.0792 N   0  0  0  0  0  4  0  0  0  0  0  0
    8.8159    1.9382   -0.8114 O   0  0  0  0  0  0  0  0  0  0  0  0
    9.0787    0.3423    0.6742 O   0  0  0  0  0  1  0  0  0  0  0  0
    6.4164   -0.3270    0.5777 C   0  0  0  0  0  0  0  0  0  0  0  0
    5.0390   -0.5628    0.5498 C   0  0  0  0  0  0  0  0  0  0  0  0
   -2.0866   -0.9745    0.4065 C   0  0  0  0  0  0  0  0  0  0  0  0
   -5.1965    3.2002    0.1242 H   0  0  0  0  0  0  0  0  0  0  0  0
   -5.7547    2.8205   -1.5119 H   0  0  0  0  0  0  0  0  0  0  0  0
   -4.3631    1.9601   -0.8361 H   0  0  0  0  0  0  0  0  0  0  0  0
   -7.2694    1.7806    0.1331 H   0  0  0  0  0  0  0  0  0  0  0  0
   -6.3996    0.5380   -0.7803 H   0  0  0  0  0  0  0  0  0  0  0  0
   -6.5081    0.0721    1.7278 H   0  0  0  0  0  0  0  0  0  0  0  0
   -5.5877    1.5492    2.0041 H   0  0  0  0  0  0  0  0  0  0  0  0
   -3.9437   -3.8332    0.6309 H   0  0  0  0  0  0  0  0  0  0  0  0
   -1.7067   -4.8372    0.3004 H   0  0  0  0  0  0  0  0  0  0  0  0
    0.2739   -3.4000    0.0377 H   0  0  0  0  0  0  0  0  0  0  0  0
    1.2184   -1.3053   -0.1023 H   0  0  0  0  0  0  0  0  0  0  0  0
    2.1731    1.8663    0.3890 H   0  0  0  0  0  0  0  0  0  0  0  0
    1.9332    1.3605   -1.3296 H   0  0  0  0  0  0  0  0  0  0  0  0
    4.0753    2.0767   -1.3952 H   0  0  0  0  0  0  0  0  0  0  0  0
    6.4788    2.4976   -1.3585 H   0  0  0  0  0  0  0  0  0  0  0  0
    7.0612   -1.0071    1.1324 H   0  0  0  0  0  0  0  0  0  0  0  0
    4.6306   -1.4196    1.0834 H   0  0  0  0  0  0  0  0  0  0  0  0
   -2.2164    0.1029    0.4277 H   0  0  0  0  0  0  0  0  0  0  0  0
  1  2  1  0
  2  3  1  0
  3  4  1  0
  4  5  1  0
  5  6  2  0
  5  7  1  0
  7  8  2  0
  8  9  1  0
  9 10  2  0
 10 11  1  0
 11 12  1  0
 12 13  1  0
 13 14  2  0
 13 15  1  0
 15 16  1  0
 16 17  1  0
 17 18  2  0
 18 19  1  0
 19 20  2  0
 20 21  1  0
 21 22  2  0
 21 23  1  0
 20 24  1  0
 24 25  2  0
 11 26  2  0
 26  7  1  0
 25 17  1  0
  1 27  1  0
  1 28  1  0
  1 29  1  0
  2 30  1  0
  2 31  1  0
  3 32  1  0
  3 33  1  0
  8 34  1  0
  9 35  1  0
 10 36  1  0
 12 37  1  0
 15 38  1  0
 15 39  1  0
 18 40  1  0
 19 41  1  0
 24 42  1  0
 25 43  1  0
 26 44  1  0
M  CHG  2  21   1  23  -1
M  END
$$$$
