
     RDKit          3D

 41 43  0  0  0  0  0  0  0  0999 V2000
    5.8480    2.8147    3.4887 C   0  0  0  0  0  0  0  0  0  0  0  0
    5.0119    1.9840    2.8475 C   0  0  0  0  0  0  0  0  0  0  0  0
    5.4558    0.6509    2.4592 C   0  0  0  0  0  0  0  0  0  0  0  0
    4.6206   -0.1841    1.8146 C   0  0  0  0  0  0  0  0  0  0  0  0
    3.2364    0.2203    1.4812 C   0  0  0  0  0  0  0  0  0  0  0  0
    2.3962   -0.6212    0.8280 C   0  0  0  0  0  0  0  0  0  0  0  0
    2.7182   -1.8900    0.4199 N   0  0  0  0  0  0  0  0  0  0  0  0
    1.7619   -2.6238   -0.2300 C   0  0  0  0  0  0  0  0  0  0  0  0
    1.9138   -3.7622   -0.6416 O   0  0  0  0  0  0  0  0  0  0  0  0
    0.5281   -1.8081   -0.3465 C   0  0  0  0  0  0  0  0  0  0  0  0
   -0.5726   -2.2970   -0.9347 C   0  0  0  0  0  0  0  0  0  0  0  0
   -1.8498   -1.5948   -1.1002 C   0  0  0  0  0  0  0  0  0  0  0  0
   -2.9908   -2.0999   -0.4742 C   0  0  0  0  0  0  0  0  0  0  0  0
   -4.2240   -1.4610   -0.6295 C   0  0  0  0  0  0  0  0  0  0  0  0
   -4.3307   -0.3108   -1.4180 C   0  0  0  0  0  0  0  0  0  0  0  0
   -5.4978    0.3821   -1.6255 O   0  0  0  0  0  0  0  0  0  0  0  0
   -6.6733   -0.1023   -0.9933 C   0  0  0  0  0  0  0  0  0  0  0  0
   -3.1838    0.2006   -2.0587 C   0  0  0  0  0  0  0  0  0  0  0  0
   -3.3713    1.3290   -2.8197 O   0  0  0  0  0  0  0  0  0  0  0  0
   -2.2221    1.9332   -3.3953 C   0  0  0  0  0  0  0  0  0  0  0  0
   -1.9537   -0.4504   -1.9011 C   0  0  0  0  0  0  0  0  0  0  0  0
    0.7440   -0.2544    0.3792 S   0  0  0  0  0  0  0  0  0  0  0  0
    2.8131    1.5777    1.8915 C   0  0  0  0  0  0  0  0  0  0  0  0
    3.6527    2.4078    2.5358 C   0  0  0  0  0  0  0  0  0  0  0  0
    5.5436    3.8123    3.7900 H   0  0  0  0  0  0  0  0  0  0  0  0
    6.8653    2.5264    3.7345 H   0  0  0  0  0  0  0  0  0  0  0  0
    6.4683    0.3400    2.6968 H   0  0  0  0  0  0  0  0  0  0  0  0
    4.9887   -1.1655    1.5441 H   0  0  0  0  0  0  0  0  0  0  0  0
    3.6171   -2.3176    0.5735 H   0  0  0  0  0  0  0  0  0  0  0  0
   -0.5633   -3.3151   -1.3219 H   0  0  0  0  0  0  0  0  0  0  0  0
   -2.9312   -2.9928    0.1447 H   0  0  0  0  0  0  0  0  0  0  0  0
   -5.0818   -1.8875   -0.1209 H   0  0  0  0  0  0  0  0  0  0  0  0
   -6.5735   -0.0809    0.0969 H   0  0  0  0  0  0  0  0  0  0  0  0
   -7.4977    0.5645   -1.2638 H   0  0  0  0  0  0  0  0  0  0  0  0
   -6.9283   -1.1061   -1.3487 H   0  0  0  0  0  0  0  0  0  0  0  0
   -2.5459    2.8410   -3.9135 H   0  0  0  0  0  0  0  0  0  0  0  0
   -1.5012    2.2294   -2.6260 H   0  0  0  0  0  0  0  0  0  0  0  0
   -1.7615    1.2739   -4.1382 H   0  0  0  0  0  0  0  0  0  0  0  0
   -1.0613   -0.0854   -2.3986 H   0  0  0  0  0  0  0  0  0  0  0  0
    1.8077    1.9237    1.6764 H   0  0  0  0  0  0  0  0  0  0  0  0
    3.3238    3.3996    2.8295 H   0  0  0  0  0  0  0  0  0  0  0  0
  1  2  2  0
  2  3  1  0
  3  4  2  0
  4  5  1  0
  5  6  2  3
  6  7  1  0
  7  8  1  0
  8  9  2  0
  8 10  1  0
 10 11  2  3
 11 12  1  0
 12 13  2  0
 13 14  1  0
 14 15  2  0
 15 16  1  0
 16 17  1  0
 15 18  1  0
 18 19  1  0
 19 20  1  0
 18 21  2  0
 10 22  1  0
  5 23  1  0
 23 24  2  0
 24  2  1  0
 22  6  1  0
 21 12  1  0
  1 25  1  0
  1 26  1  0
  3 27  1  0
  4 28  1  0
  7 29  1  0
 11 30  1  0
 13 31  1  0
 14 32  1  0
 17 33  1  0
 17 34  1  0
 17 35  1  0
 20 36  1  0
 20 37  1  0
 20 38  1  0
 21 39  1  0
 23 40  1  0
 24 41  1  0
M  END
$$$$
