
     RDKit          3D

 57 59  0  0  0  0  0  0  0  0999 V2000
   11.0830    0.3904   -2.9257 C   0  0  0  0  0  0  0  0  0  0  0  0
   10.6226    0.2634   -1.5872 O   0  0  0  0  0  0  0  0  0  0  0  0
    9.2818    0.0655   -1.4104 C   0  0  0  0  0  0  0  0  0  0  0  0
    8.3266   -0.0426   -2.4209 C   0  0  0  0  0  0  0  0  0  0  0  0
    6.9752   -0.2444   -2.1022 C   0  0  0  0  0  0  0  0  0  0  0  0
    6.5688   -0.3421   -0.7716 C   0  0  0  0  0  0  0  0  0  0  0  0
    5.2940   -0.5329   -0.3206 O   0  0  0  0  0  0  0  0  0  0  0  0
    4.2313   -0.6753   -1.2693 C   0  0  0  0  0  0  0  0  0  0  0  0
    3.6923    0.6802   -1.7351 C   0  0  0  0  0  0  0  0  0  0  0  0
    2.8153    1.5890   -0.4160 S   0  0  0  0  0  0  0  0  0  0  0  0
    1.3081    0.7432   -0.3813 C   0  0  0  0  0  0  0  0  0  0  0  0
    0.9649   -0.2712   -1.1393 N   0  0  0  0  0  0  0  0  0  0  0  0
   -0.3156   -0.6292   -0.8014 N   0  0  0  0  0  0  0  0  0  0  0  0
   -0.7331    0.1776    0.1538 C   0  0  0  0  0  0  0  0  0  0  0  0
   -2.0755    0.1608    0.8044 C   0  0  0  0  0  0  0  0  0  0  0  0
   -3.0905   -0.6498   -0.0049 C   0  0  0  0  0  0  0  0  0  0  0  0
   -4.3882   -0.7519    0.6467 N   0  0  0  0  0  0  0  0  0  0  0  0
   -5.2369    0.3381    0.7055 C   0  0  0  0  0  0  0  0  0  0  0  0
   -4.9174    1.4675    0.3537 O   0  0  0  0  0  0  0  0  0  0  0  0
   -6.6165    0.0639    1.1873 C   0  0  0  0  0  0  0  0  0  0  0  0
   -6.8794   -0.9159    2.1518 C   0  0  0  0  0  0  0  0  0  0  0  0
   -8.1937   -1.1516    2.5742 C   0  0  0  0  0  0  0  0  0  0  0  0
   -9.2491   -0.4113    2.0366 C   0  0  0  0  0  0  0  0  0  0  0  0
  -10.5719   -0.5508    2.3527 O   0  0  0  0  0  0  0  0  0  0  0  0
  -10.9062   -1.5533    3.3044 C   0  0  0  0  0  0  0  0  0  0  0  0
   -8.9785    0.5781    1.0865 C   0  0  0  0  0  0  0  0  0  0  0  0
   -7.6692    0.8232    0.6664 C   0  0  0  0  0  0  0  0  0  0  0  0
    0.2792    1.0587    0.4611 N   0  0  0  0  0  0  0  0  0  0  0  0
    0.2585    2.1053    1.4506 C   0  0  0  0  0  0  0  0  0  0  0  0
    7.5276   -0.2318    0.2373 C   0  0  0  0  0  0  0  0  0  0  0  0
    8.8735   -0.0304   -0.0790 C   0  0  0  0  0  0  0  0  0  0  0  0
   12.1647    0.5544   -2.8952 H   0  0  0  0  0  0  0  0  0  0  0  0
   10.9007   -0.5289   -3.4922 H   0  0  0  0  0  0  0  0  0  0  0  0
   10.6308    1.2562   -3.4192 H   0  0  0  0  0  0  0  0  0  0  0  0
    8.5959    0.0248   -3.4704 H   0  0  0  0  0  0  0  0  0  0  0  0
    6.2730   -0.3155   -2.9243 H   0  0  0  0  0  0  0  0  0  0  0  0
    4.5420   -1.2915   -2.1213 H   0  0  0  0  0  0  0  0  0  0  0  0
    3.4451   -1.2564   -0.7747 H   0  0  0  0  0  0  0  0  0  0  0  0
    4.5134    1.3273   -2.0590 H   0  0  0  0  0  0  0  0  0  0  0  0
    3.0230    0.5508   -2.5926 H   0  0  0  0  0  0  0  0  0  0  0  0
   -1.9822   -0.2660    1.8109 H   0  0  0  0  0  0  0  0  0  0  0  0
   -2.4374    1.1885    0.9241 H   0  0  0  0  0  0  0  0  0  0  0  0
   -2.7369   -1.6750   -0.1536 H   0  0  0  0  0  0  0  0  0  0  0  0
   -3.2392   -0.1993   -0.9932 H   0  0  0  0  0  0  0  0  0  0  0  0
   -4.8038   -1.6726    0.6889 H   0  0  0  0  0  0  0  0  0  0  0  0
   -6.0715   -1.4872    2.6030 H   0  0  0  0  0  0  0  0  0  0  0  0
   -8.3579   -1.9148    3.3282 H   0  0  0  0  0  0  0  0  0  0  0  0
  -11.9941   -1.5516    3.4220 H   0  0  0  0  0  0  0  0  0  0  0  0
  -10.4636   -1.3295    4.2809 H   0  0  0  0  0  0  0  0  0  0  0  0
  -10.6114   -2.5483    2.9546 H   0  0  0  0  0  0  0  0  0  0  0  0
   -9.7953    1.1649    0.6695 H   0  0  0  0  0  0  0  0  0  0  0  0
   -7.4747    1.6003   -0.0722 H   0  0  0  0  0  0  0  0  0  0  0  0
   -0.6145    2.0003    2.0983 H   0  0  0  0  0  0  0  0  0  0  0  0
    0.2215    3.0678    0.9345 H   0  0  0  0  0  0  0  0  0  0  0  0
    1.1589    2.0320    2.0668 H   0  0  0  0  0  0  0  0  0  0  0  0
    7.2263   -0.3038    1.2796 H   0  0  0  0  0  0  0  0  0  0  0  0
    9.6061    0.0530    0.7191 H   0  0  0  0  0  0  0  0  0  0  0  0
  1  2  1  0
  2  3  1  0
  3  4  2  0
  4  5  1  0
  5  6  2  0
  6  7  1  0
  7  8  1  0
  8  9  1  0
  9 10  1  0
 10 11  1  0
 11 12  2  0
 12 13  1  0
 13 14  2  0
 14 15  1  0
 15 16  1  0
 16 17  1  0
 17 18  1  0
 18 19  2  0
 18 20  1  0
 20 21  2  0
 21 22  1  0
 22 23  2  0
 23 24  1  0
 24 25  1  0
 23 26  1  0
 26 27  2  0
 14 28  1  0
 28 29  1  0
  6 30  1  0
 30 31  2  0
 31  3  1  0
 28 11  1  0
 27 20  1  0
  1 32  1  0
  1 33  1  0
  1 34  1  0
  4 35  1  0
  5 36  1  0
  8 37  1  0
  8 38  1  0
  9 39  1  0
  9 40  1  0
 15 41  1  0
 15 42  1  0
 16 43  1  0
 16 44  1  0
 17 45  1  0
 21 46  1  0
 22 47  1  0
 25 48  1  0
 25 49  1  0
 25 50  1  0
 26 51  1  0
 27 52  1  0
 29 53  1  0
 29 54  1  0
 29 55  1  0
 30 56  1  0
 31 57  1  0
M  END
$$$$
