
     RDKit          3D

 43 45  0  0  0  0  0  0  0  0999 V2000
    7.6838   -1.6581    1.8755 O   0  0  0  0  0  0  0  0  0  0  0  0
    8.0626   -1.0430    0.8899 C   0  0  0  0  0  0  0  0  0  0  0  0
    9.2228   -0.3501    0.9281 O   0  0  0  0  0  0  0  0  0  0  0  0
    7.4039   -0.9942   -0.4660 C   0  0  0  0  0  0  0  0  0  0  0  0
    5.9099   -0.7946   -0.4016 C   0  0  0  0  0  0  0  0  0  0  0  0
    5.0603   -1.8469   -0.0414 C   0  0  0  0  0  0  0  0  0  0  0  0
    3.6780   -1.6481    0.0315 C   0  0  0  0  0  0  0  0  0  0  0  0
    3.1165   -0.3978   -0.2555 C   0  0  0  0  0  0  0  0  0  0  0  0
    1.7127   -0.2841   -0.1664 N   0  0  0  0  0  0  0  0  0  0  0  0
    0.9487    0.8529   -0.3581 C   0  0  0  0  0  0  0  0  0  0  0  0
    1.3547    1.9884   -0.5728 O   0  0  0  0  0  0  0  0  0  0  0  0
   -0.5224    0.6402   -0.2561 C   0  0  0  0  0  0  0  0  0  0  0  0
   -1.1357   -0.5129   -0.7549 C   0  0  0  0  0  0  0  0  0  0  0  0
   -2.5239   -0.6631   -0.6553 C   0  0  0  0  0  0  0  0  0  0  0  0
   -3.3161    0.3305   -0.0609 C   0  0  0  0  0  0  0  0  0  0  0  0
   -4.7069    0.0947   -0.0123 N   0  0  0  0  0  0  0  0  0  0  0  0
   -5.6901    0.9003    0.5530 C   0  0  0  0  0  0  0  0  0  0  0  0
   -5.4625    1.9500    1.1469 O   0  0  0  0  0  0  0  0  0  0  0  0
   -7.0438    0.3786    0.3941 C   0  0  0  0  0  0  0  0  0  0  0  0
   -7.5860   -0.6945   -0.2980 C   0  0  0  0  0  0  0  0  0  0  0  0
   -8.9840   -0.6797   -0.0608 C   0  0  0  0  0  0  0  0  0  0  0  0
   -9.2197    0.3998    0.7549 C   0  0  0  0  0  0  0  0  0  0  0  0
   -8.0602    1.0429    1.0350 O   0  0  0  0  0  0  0  0  0  0  0  0
   -2.6959    1.4843    0.4223 C   0  0  0  0  0  0  0  0  0  0  0  0
   -1.3082    1.6427    0.3179 C   0  0  0  0  0  0  0  0  0  0  0  0
    3.9633    0.6510   -0.6141 C   0  0  0  0  0  0  0  0  0  0  0  0
    5.3477    0.4567   -0.6826 C   0  0  0  0  0  0  0  0  0  0  0  0
    9.5389   -0.4782    1.8477 H   0  0  0  0  0  0  0  0  0  0  0  0
    7.8544   -0.1859   -1.0550 H   0  0  0  0  0  0  0  0  0  0  0  0
    7.6369   -1.9266   -0.9924 H   0  0  0  0  0  0  0  0  0  0  0  0
    5.4703   -2.8249    0.2044 H   0  0  0  0  0  0  0  0  0  0  0  0
    3.0518   -2.4854    0.3259 H   0  0  0  0  0  0  0  0  0  0  0  0
    1.2275   -1.1201    0.1292 H   0  0  0  0  0  0  0  0  0  0  0  0
   -0.5565   -1.2844   -1.2545 H   0  0  0  0  0  0  0  0  0  0  0  0
   -2.9769   -1.5641   -1.0636 H   0  0  0  0  0  0  0  0  0  0  0  0
   -5.0169   -0.7726   -0.4238 H   0  0  0  0  0  0  0  0  0  0  0  0
   -7.0558   -1.4023   -0.9180 H   0  0  0  0  0  0  0  0  0  0  0  0
   -9.7269   -1.3594   -0.4516 H   0  0  0  0  0  0  0  0  0  0  0  0
  -10.1100    0.8313    1.1950 H   0  0  0  0  0  0  0  0  0  0  0  0
   -3.2588    2.2946    0.8756 H   0  0  0  0  0  0  0  0  0  0  0  0
   -0.8467    2.5573    0.6848 H   0  0  0  0  0  0  0  0  0  0  0  0
    3.5797    1.6416   -0.8415 H   0  0  0  0  0  0  0  0  0  0  0  0
    5.9792    1.3014   -0.9544 H   0  0  0  0  0  0  0  0  0  0  0  0
  1  2  2  0
  2  3  1  0
  2  4  1  0
  4  5  1  0
  5  6  2  0
  6  7  1  0
  7  8  2  0
  8  9  1  0
  9 10  1  0
 10 11  2  0
 10 12  1  0
 12 13  2  0
 13 14  1  0
 14 15  2  0
 15 16  1  0
 16 17  1  0
 17 18  2  0
 17 19  1  0
 19 20  2  0
 20 21  1  0
 21 22  2  0
 22 23  1  0
 15 24  1  0
 24 25  2  0
  8 26  1  0
 26 27  2  0
 27  5  1  0
 25 12  1  0
 23 19  1  0
  3 28  1  0
  4 29  1  0
  4 30  1  0
  6 31  1  0
  7 32  1  0
  9 33  1  0
 13 34  1  0
 14 35  1  0
 16 36  1  0
 20 37  1  0
 21 38  1  0
 22 39  1  0
 24 40  1  0
 25 41  1  0
 26 42  1  0
 27 43  1  0
M  END
$$$$
