
     RDKit          3D

 35 35  0  0  0  0  0  0  0  0999 V2000
   -3.1685   -1.2999   -0.4700 C   0  0  0  0  0  0  0  0  0  0  0  0
   -3.3310    0.1551   -0.9220 C   0  0  0  0  0  0  0  0  0  0  0  0
   -3.8159    1.0380    0.2339 C   0  0  0  0  0  0  0  0  0  0  0  0
   -2.1610    0.7625   -1.5970 N   0  0  0  0  0  0  0  0  0  0  0  0
   -2.1873    0.4542   -3.0339 C   0  0  0  0  0  0  0  0  0  0  0  0
   -0.8310    0.4142   -1.0575 C   0  0  0  0  0  0  0  0  0  0  0  0
   -0.5238    0.9111    0.3627 C   0  0  0  0  0  0  0  0  0  0  0  0
    0.8861    0.8053    0.6422 O   0  0  0  0  0  0  0  0  0  0  0  0
    1.3108   -0.4223    1.0229 C   0  0  0  0  0  0  0  0  0  0  0  0
    0.6492   -1.4443    1.0845 O   0  0  0  0  0  0  0  0  0  0  0  0
    2.7649   -0.3786    1.2498 C   0  0  0  0  0  0  0  0  0  0  0  0
    3.5511   -1.2443    0.4750 C   0  0  0  0  0  0  0  0  0  0  0  0
    4.9375   -1.2565    0.6282 C   0  0  0  0  0  0  0  0  0  0  0  0
    5.5407   -0.4135    1.5602 C   0  0  0  0  0  0  0  0  0  0  0  0
    4.7589    0.4350    2.3480 C   0  0  0  0  0  0  0  0  0  0  0  0
    3.3673    0.4523    2.2009 C   0  0  0  0  0  0  0  0  0  0  0  0
    2.3805    1.5773    3.3695 Br  0  0  0  0  0  0  0  0  0  0  0  0
   -4.1237   -1.6900   -0.1007 H   0  0  0  0  0  0  0  0  0  0  0  0
   -2.8553   -1.9408   -1.3005 H   0  0  0  0  0  0  0  0  0  0  0  0
   -2.4409   -1.4047    0.3402 H   0  0  0  0  0  0  0  0  0  0  0  0
   -4.1691    0.1644   -1.6335 H   0  0  0  0  0  0  0  0  0  0  0  0
   -3.9288    2.0790   -0.0890 H   0  0  0  0  0  0  0  0  0  0  0  0
   -3.1469    1.0191    1.0963 H   0  0  0  0  0  0  0  0  0  0  0  0
   -4.7984    0.6980    0.5811 H   0  0  0  0  0  0  0  0  0  0  0  0
   -1.3818    0.9805   -3.5589 H   0  0  0  0  0  0  0  0  0  0  0  0
   -3.1213    0.8017   -3.4898 H   0  0  0  0  0  0  0  0  0  0  0  0
   -2.0823   -0.6187   -3.2289 H   0  0  0  0  0  0  0  0  0  0  0  0
   -0.0679    0.8701   -1.7045 H   0  0  0  0  0  0  0  0  0  0  0  0
   -0.6432   -0.6643   -1.1287 H   0  0  0  0  0  0  0  0  0  0  0  0
   -1.0890    0.3711    1.1281 H   0  0  0  0  0  0  0  0  0  0  0  0
   -0.7765    1.9731    0.4523 H   0  0  0  0  0  0  0  0  0  0  0  0
    3.0826   -1.9082   -0.2491 H   0  0  0  0  0  0  0  0  0  0  0  0
    5.5464   -1.9249    0.0236 H   0  0  0  0  0  0  0  0  0  0  0  0
    6.6216   -0.4236    1.6822 H   0  0  0  0  0  0  0  0  0  0  0  0
    5.2460    1.0727    3.0825 H   0  0  0  0  0  0  0  0  0  0  0  0
  1  2  1  0
  2  3  1  0
  2  4  1  0
  4  5  1  0
  4  6  1  0
  6  7  1  0
  7  8  1  0
  8  9  1  0
  9 10  2  0
  9 11  1  0
 11 12  2  0
 12 13  1  0
 13 14  2  0
 14 15  1  0
 15 16  2  0
 16 17  1  0
 16 11  1  0
  1 18  1  0
  1 19  1  0
  1 20  1  0
  2 21  1  0
  3 22  1  0
  3 23  1  0
  3 24  1  0
  5 25  1  0
  5 26  1  0
  5 27  1  0
  6 28  1  0
  6 29  1  0
  7 30  1  0
  7 31  1  0
 12 32  1  0
 13 33  1  0
 14 34  1  0
 15 35  1  0
M  END
$$$$
