
     RDKit          3D

 43 45  0  0  0  0  0  0  0  0999 V2000
    6.1341   -2.5956   -0.6376 C   0  0  0  0  0  0  0  0  0  0  0  0
    4.7406   -2.8050   -0.4479 O   0  0  0  0  0  0  0  0  0  0  0  0
    3.9598   -1.6965   -0.2685 C   0  0  0  0  0  0  0  0  0  0  0  0
    2.6018   -1.9676   -0.1040 C   0  0  0  0  0  0  0  0  0  0  0  0
    1.6832   -0.9332    0.0900 C   0  0  0  0  0  0  0  0  0  0  0  0
    2.1077    0.3991    0.1184 C   0  0  0  0  0  0  0  0  0  0  0  0
    1.2383    1.4923    0.3726 N   0  0  0  0  0  0  0  0  0  0  0  0
   -0.1082    1.4740    0.5910 C   0  0  0  0  0  0  0  0  0  0  0  0
   -0.8760    2.3106   -0.0400 N   0  0  0  0  0  0  0  0  0  0  0  0
   -2.2094    2.2176    0.3015 C   0  0  0  0  0  0  0  0  0  0  0  0
   -3.0570    2.9692   -0.1692 O   0  0  0  0  0  0  0  0  0  0  0  0
   -2.6908    1.1848    1.3228 C   0  0  0  0  0  0  0  0  0  0  0  0
   -4.1694    1.0825    1.5825 C   0  0  0  0  0  0  0  0  0  0  0  0
   -4.8516    0.1589    0.6043 C   0  0  0  0  0  0  0  0  0  0  0  0
   -4.8287   -1.2283    0.8051 C   0  0  0  0  0  0  0  0  0  0  0  0
   -5.4397   -2.0857   -0.1109 C   0  0  0  0  0  0  0  0  0  0  0  0
   -6.0732   -1.5660   -1.2380 C   0  0  0  0  0  0  0  0  0  0  0  0
   -6.0940   -0.1890   -1.4515 C   0  0  0  0  0  0  0  0  0  0  0  0
   -5.4844    0.6704   -0.5364 C   0  0  0  0  0  0  0  0  0  0  0  0
   -1.8414    0.4110    1.9409 N   0  0  0  0  0  0  0  0  0  0  0  0
   -0.5481    0.5974    1.5552 N   0  0  0  0  0  0  0  0  0  0  0  0
    3.4874    0.6713   -0.0490 C   0  0  0  0  0  0  0  0  0  0  0  0
    3.8183    2.0079   -0.0216 O   0  0  0  0  0  0  0  0  0  0  0  0
    5.1967    2.3446   -0.1127 C   0  0  0  0  0  0  0  0  0  0  0  0
    4.4022   -0.3732   -0.2433 C   0  0  0  0  0  0  0  0  0  0  0  0
    6.6047   -3.5748   -0.7689 H   0  0  0  0  0  0  0  0  0  0  0  0
    6.3255   -2.0100   -1.5429 H   0  0  0  0  0  0  0  0  0  0  0  0
    6.5854   -2.1244    0.2418 H   0  0  0  0  0  0  0  0  0  0  0  0
    2.2514   -2.9972   -0.1340 H   0  0  0  0  0  0  0  0  0  0  0  0
    0.6338   -1.1984    0.1815 H   0  0  0  0  0  0  0  0  0  0  0  0
    1.5460    2.2948   -0.1744 H   0  0  0  0  0  0  0  0  0  0  0  0
   -4.6269    2.0779    1.5630 H   0  0  0  0  0  0  0  0  0  0  0  0
   -4.3226    0.7058    2.6018 H   0  0  0  0  0  0  0  0  0  0  0  0
   -4.3303   -1.6495    1.6762 H   0  0  0  0  0  0  0  0  0  0  0  0
   -5.4185   -3.1598    0.0534 H   0  0  0  0  0  0  0  0  0  0  0  0
   -6.5473   -2.2337   -1.9523 H   0  0  0  0  0  0  0  0  0  0  0  0
   -6.5819    0.2176   -2.3336 H   0  0  0  0  0  0  0  0  0  0  0  0
   -5.5020    1.7430   -0.7243 H   0  0  0  0  0  0  0  0  0  0  0  0
    0.1740    0.1246    2.0956 H   0  0  0  0  0  0  0  0  0  0  0  0
    5.2803    3.4329   -0.0343 H   0  0  0  0  0  0  0  0  0  0  0  0
    5.6104    2.0487   -1.0821 H   0  0  0  0  0  0  0  0  0  0  0  0
    5.7668    1.9070    0.7135 H   0  0  0  0  0  0  0  0  0  0  0  0
    5.4530   -0.1555   -0.3773 H   0  0  0  0  0  0  0  0  0  0  0  0
  1  2  1  0
  2  3  1  0
  3  4  2  0
  4  5  1  0
  5  6  2  0
  6  7  1  0
  7  8  1  0
  8  9  2  0
  9 10  1  0
 10 11  2  0
 10 12  1  0
 12 13  1  0
 13 14  1  0
 14 15  2  0
 15 16  1  0
 16 17  2  0
 17 18  1  0
 18 19  2  0
 12 20  2  0
 20 21  1  0
  6 22  1  0
 22 23  1  0
 23 24  1  0
 22 25  2  0
 25  3  1  0
 21  8  1  0
 19 14  1  0
  1 26  1  0
  1 27  1  0
  1 28  1  0
  4 29  1  0
  5 30  1  0
  7 31  1  0
 13 32  1  0
 13 33  1  0
 15 34  1  0
 16 35  1  0
 17 36  1  0
 18 37  1  0
 19 38  1  0
 21 39  1  0
 24 40  1  0
 24 41  1  0
 24 42  1  0
 25 43  1  0
M  END
$$$$
