
     RDKit          3D

 46 48  0  0  0  0  0  0  0  0999 V2000
    2.9199   -0.7370    0.2307 C   0  0  0  0  0  0  0  0  0  0  0  0
    2.6288    0.6834    0.6619 C   0  0  0  0  0  0  0  0  0  0  0  0
    3.7755    1.5891    0.9483 C   0  0  0  0  0  0  0  0  0  0  0  0
    4.8184    1.8143    0.1351 C   0  0  0  0  0  0  0  0  0  0  0  0
    5.0120    1.2664   -1.2101 C   0  0  0  0  0  0  0  0  0  0  0  0
    6.1746    0.5443   -1.5004 C   0  0  0  0  0  0  0  0  0  0  0  0
    6.3811    0.0273   -2.7812 C   0  0  0  0  0  0  0  0  0  0  0  0
    5.4326    0.2384   -3.7810 C   0  0  0  0  0  0  0  0  0  0  0  0
    4.2792    0.9703   -3.5035 C   0  0  0  0  0  0  0  0  0  0  0  0
    4.0710    1.4872   -2.2234 C   0  0  0  0  0  0  0  0  0  0  0  0
    1.4337    1.1685    0.8454 N   0  0  0  0  0  0  0  0  0  0  0  0
    0.3554    0.3796    0.5848 N   0  0  0  0  0  0  0  0  0  0  0  0
   -0.9236    0.8641    0.7824 C   0  0  0  0  0  0  0  0  0  0  0  0
   -1.2350    1.9753    1.1885 O   0  0  0  0  0  0  0  0  0  0  0  0
   -1.9864   -0.1039    0.4010 C   0  0  0  0  0  0  0  0  0  0  0  0
   -1.9709   -1.5416    0.8515 C   0  0  0  0  0  0  0  0  0  0  0  0
   -3.0012   -0.5954    1.4383 C   0  0  0  0  0  0  0  0  0  0  0  0
   -2.8323   -0.2030    2.8893 C   0  0  0  0  0  0  0  0  0  0  0  0
   -4.4520   -0.7144    0.9892 C   0  0  0  0  0  0  0  0  0  0  0  0
   -5.1571    0.4061    0.5160 C   0  0  0  0  0  0  0  0  0  0  0  0
   -6.4901    0.3105    0.1090 C   0  0  0  0  0  0  0  0  0  0  0  0
   -7.1505   -0.9128    0.1730 C   0  0  0  0  0  0  0  0  0  0  0  0
   -6.4796   -2.0363    0.6473 C   0  0  0  0  0  0  0  0  0  0  0  0
   -5.1462   -1.9346    1.0531 C   0  0  0  0  0  0  0  0  0  0  0  0
    2.3933   -1.4347    0.8889 H   0  0  0  0  0  0  0  0  0  0  0  0
    2.5830   -0.8869   -0.7986 H   0  0  0  0  0  0  0  0  0  0  0  0
    3.9858   -0.9684    0.2974 H   0  0  0  0  0  0  0  0  0  0  0  0
    3.6933    2.1284    1.8878 H   0  0  0  0  0  0  0  0  0  0  0  0
    5.5974    2.5003    0.4625 H   0  0  0  0  0  0  0  0  0  0  0  0
    6.9247    0.3737   -0.7317 H   0  0  0  0  0  0  0  0  0  0  0  0
    7.2843   -0.5367   -2.9999 H   0  0  0  0  0  0  0  0  0  0  0  0
    5.5960   -0.1608   -4.7788 H   0  0  0  0  0  0  0  0  0  0  0  0
    3.5442    1.1458   -4.2849 H   0  0  0  0  0  0  0  0  0  0  0  0
    3.1721    2.0685   -2.0252 H   0  0  0  0  0  0  0  0  0  0  0  0
    0.4820   -0.5404    0.1849 H   0  0  0  0  0  0  0  0  0  0  0  0
   -2.3712    0.0883   -0.5970 H   0  0  0  0  0  0  0  0  0  0  0  0
   -2.2968   -2.2909    0.1378 H   0  0  0  0  0  0  0  0  0  0  0  0
   -1.1758   -1.8866    1.5033 H   0  0  0  0  0  0  0  0  0  0  0  0
   -1.7821   -0.2064    3.2006 H   0  0  0  0  0  0  0  0  0  0  0  0
   -3.3667   -0.9044    3.5394 H   0  0  0  0  0  0  0  0  0  0  0  0
   -3.2330    0.8010    3.0649 H   0  0  0  0  0  0  0  0  0  0  0  0
   -4.6566    1.3724    0.4700 H   0  0  0  0  0  0  0  0  0  0  0  0
   -7.0101    1.1937   -0.2525 H   0  0  0  0  0  0  0  0  0  0  0  0
   -8.1881   -0.9887   -0.1407 H   0  0  0  0  0  0  0  0  0  0  0  0
   -6.9932   -2.9922    0.7064 H   0  0  0  0  0  0  0  0  0  0  0  0
   -4.6401   -2.8205    1.4300 H   0  0  0  0  0  0  0  0  0  0  0  0
  1  2  1  0
  2  3  1  0
  3  4  2  3
  4  5  1  0
  5  6  2  0
  6  7  1  0
  7  8  2  0
  8  9  1  0
  9 10  2  0
  2 11  2  3
 11 12  1  0
 12 13  1  0
 13 14  2  0
 13 15  1  0
 15 16  1  0
 16 17  1  0
 17 18  1  0
 17 19  1  0
 19 20  2  0
 20 21  1  0
 21 22  2  0
 22 23  1  0
 23 24  2  0
 10  5  1  0
 17 15  1  0
 24 19  1  0
  1 25  1  0
  1 26  1  0
  1 27  1  0
  3 28  1  0
  4 29  1  0
  6 30  1  0
  7 31  1  0
  8 32  1  0
  9 33  1  0
 10 34  1  0
 12 35  1  0
 15 36  1  0
 16 37  1  0
 16 38  1  0
 18 39  1  0
 18 40  1  0
 18 41  1  0
 20 42  1  0
 21 43  1  0
 22 44  1  0
 23 45  1  0
 24 46  1  0
M  END
$$$$
