
     RDKit          3D

 28 29  0  0  0  0  0  0  0  0999 V2000
    5.9669    0.9362   -1.6001 O   0  0  0  0  0  0  0  0  0  0  0  0
    5.5401    0.2828   -0.6384 N   0  0  0  0  0  4  0  0  0  0  0  0
    6.2494   -0.1957    0.2578 O   0  0  0  0  0  1  0  0  0  0  0  0
    4.1044    0.0647   -0.5504 C   0  0  0  0  0  0  0  0  0  0  0  0
    3.5475   -0.6601    0.5011 C   0  0  0  0  0  0  0  0  0  0  0  0
    2.1636   -0.8373    0.5294 C   0  0  0  0  0  0  0  0  0  0  0  0
    1.3807   -0.2832   -0.4810 C   0  0  0  0  0  0  0  0  0  0  0  0
   -0.0001   -0.4452   -0.5220 N   0  0  0  0  0  0  0  0  0  0  0  0
   -0.7028    0.0638    0.6486 C   0  0  0  0  0  0  0  0  0  0  0  0
   -2.1882    0.0759    0.3736 C   0  0  0  0  0  0  0  0  0  0  0  0
   -2.8776    1.2859    0.2082 C   0  0  0  0  0  0  0  0  0  0  0  0
   -4.2499    1.2889   -0.0489 C   0  0  0  0  0  0  0  0  0  0  0  0
   -4.9452    0.0850   -0.1479 C   0  0  0  0  0  0  0  0  0  0  0  0
   -4.2698   -1.1240    0.0062 C   0  0  0  0  0  0  0  0  0  0  0  0
   -2.8983   -1.1294    0.2638 C   0  0  0  0  0  0  0  0  0  0  0  0
    1.9175    0.4127   -1.5031 N   0  0  0  0  0  0  0  0  0  0  0  0
    3.2649    0.5776   -1.5239 C   0  0  0  0  0  0  0  0  0  0  0  0
    4.1621   -1.0949    1.2852 H   0  0  0  0  0  0  0  0  0  0  0  0
    1.7091   -1.4239    1.3211 H   0  0  0  0  0  0  0  0  0  0  0  0
   -0.2986    0.0487   -1.3634 H   0  0  0  0  0  0  0  0  0  0  0  0
   -0.5179   -0.5665    1.5273 H   0  0  0  0  0  0  0  0  0  0  0  0
   -0.3638    1.0784    0.8961 H   0  0  0  0  0  0  0  0  0  0  0  0
   -2.3509    2.2352    0.2755 H   0  0  0  0  0  0  0  0  0  0  0  0
   -4.7768    2.2312   -0.1757 H   0  0  0  0  0  0  0  0  0  0  0  0
   -6.0129    0.0887   -0.3511 H   0  0  0  0  0  0  0  0  0  0  0  0
   -4.8094   -2.0636   -0.0797 H   0  0  0  0  0  0  0  0  0  0  0  0
   -2.3770   -2.0790    0.3688 H   0  0  0  0  0  0  0  0  0  0  0  0
    3.6330    1.1472   -2.3735 H   0  0  0  0  0  0  0  0  0  0  0  0
  1  2  2  0
  2  3  1  0
  2  4  1  0
  4  5  2  0
  5  6  1  0
  6  7  2  0
  7  8  1  0
  8  9  1  0
  9 10  1  0
 10 11  2  0
 11 12  1  0
 12 13  2  0
 13 14  1  0
 14 15  2  0
  7 16  1  0
 16 17  2  0
 17  4  1  0
 15 10  1  0
  5 18  1  0
  6 19  1  0
  8 20  1  0
  9 21  1  0
  9 22  1  0
 11 23  1  0
 12 24  1  0
 13 25  1  0
 14 26  1  0
 15 27  1  0
 17 28  1  0
M  CHG  2   2   1   3  -1
M  END
$$$$
