
     RDKit          3D

 57 60  0  0  0  0  0  0  0  0999 V2000
   -7.8695    2.5892    2.6332 C   0  0  0  0  0  0  0  0  0  0  0  0
   -7.3818    3.0008    1.2525 C   0  0  0  0  0  0  0  0  0  0  0  0
   -6.2490    2.1293    0.7755 C   0  0  0  0  0  0  0  0  0  0  0  0
   -6.5065    0.9531    0.0671 C   0  0  0  0  0  0  0  0  0  0  0  0
   -5.4527    0.1378   -0.3606 C   0  0  0  0  0  0  0  0  0  0  0  0
   -4.1101    0.4608   -0.0902 C   0  0  0  0  0  0  0  0  0  0  0  0
   -3.0156   -0.4221   -0.5507 C   0  0  0  0  0  0  0  0  0  0  0  0
   -1.7962   -0.5210    0.0958 C   0  0  0  0  0  0  0  0  0  0  0  0
   -0.8278   -1.3766   -0.4321 C   0  0  0  0  0  0  0  0  0  0  0  0
    0.4799   -1.3907    0.2631 C   0  0  0  0  0  0  0  0  0  0  0  0
    0.4967   -1.6652    1.4551 O   0  0  0  0  0  0  0  0  0  0  0  0
    1.5438   -1.0185   -0.5362 N   0  0  0  0  0  0  0  0  0  0  0  0
    2.9043   -0.9562   -0.1742 C   0  0  0  0  0  0  0  0  0  0  0  0
    3.8036   -0.4987   -1.1476 C   0  0  0  0  0  0  0  0  0  0  0  0
    5.1709   -0.4116   -0.8722 C   0  0  0  0  0  0  0  0  0  0  0  0
    5.6434   -0.7745    0.3892 C   0  0  0  0  0  0  0  0  0  0  0  0
    7.3807   -0.6982    0.7372 S   0  0  0  0  0  6  0  0  0  0  0  0
    8.1174   -0.6869   -0.5060 O   0  0  0  0  0  0  0  0  0  0  0  0
    7.6639   -1.6883    1.7565 O   0  0  0  0  0  0  0  0  0  0  0  0
    7.5557    0.7685    1.4958 N   0  0  0  0  0  0  0  0  0  0  0  0
    7.3370    2.0163    0.9031 C   0  0  0  0  0  0  0  0  0  0  0  0
    7.6470    3.1804    1.8013 C   0  0  0  0  0  0  0  0  0  0  0  0
    6.9079    2.1601   -0.2318 O   0  0  0  0  0  0  0  0  0  0  0  0
    4.7627   -1.2507    1.3622 C   0  0  0  0  0  0  0  0  0  0  0  0
    3.3950   -1.3351    1.0785 C   0  0  0  0  0  0  0  0  0  0  0  0
   -1.0900   -2.1704   -1.5687 C   0  0  0  0  0  0  0  0  0  0  0  0
   -0.1962   -3.1204   -2.1290 C   0  0  0  0  0  0  0  0  0  0  0  0
   -0.5431   -3.8518   -3.2630 C   0  0  0  0  0  0  0  0  0  0  0  0
   -1.7852   -3.6542   -3.8476 C   0  0  0  0  0  0  0  0  0  0  0  0
   -2.6750   -2.7355   -3.2866 C   0  0  0  0  0  0  0  0  0  0  0  0
   -2.3553   -1.9969   -2.1550 C   0  0  0  0  0  0  0  0  0  0  0  0
   -3.2757   -1.1479   -1.6679 N   0  0  0  0  0  0  0  0  0  0  0  0
   -3.8708    1.6495    0.6228 C   0  0  0  0  0  0  0  0  0  0  0  0
   -4.9221    2.4691    1.0533 C   0  0  0  0  0  0  0  0  0  0  0  0
   -7.0683    2.6641    3.3762 H   0  0  0  0  0  0  0  0  0  0  0  0
   -8.2332    1.5560    2.6345 H   0  0  0  0  0  0  0  0  0  0  0  0
   -8.6909    3.2380    2.9534 H   0  0  0  0  0  0  0  0  0  0  0  0
   -8.2112    2.9525    0.5363 H   0  0  0  0  0  0  0  0  0  0  0  0
   -7.0586    4.0488    1.2713 H   0  0  0  0  0  0  0  0  0  0  0  0
   -7.5287    0.6585   -0.1600 H   0  0  0  0  0  0  0  0  0  0  0  0
   -5.6892   -0.7710   -0.9128 H   0  0  0  0  0  0  0  0  0  0  0  0
   -1.5847    0.0409    0.9998 H   0  0  0  0  0  0  0  0  0  0  0  0
    1.3243   -0.7347   -1.4845 H   0  0  0  0  0  0  0  0  0  0  0  0
    3.4560   -0.2002   -2.1338 H   0  0  0  0  0  0  0  0  0  0  0  0
    5.8551   -0.0490   -1.6376 H   0  0  0  0  0  0  0  0  0  0  0  0
    7.8643    0.6838    2.4586 H   0  0  0  0  0  0  0  0  0  0  0  0
    6.9787    3.1660    2.6665 H   0  0  0  0  0  0  0  0  0  0  0  0
    7.5032    4.1165    1.2549 H   0  0  0  0  0  0  0  0  0  0  0  0
    8.6864    3.1234    2.1361 H   0  0  0  0  0  0  0  0  0  0  0  0
    5.1243   -1.5653    2.3387 H   0  0  0  0  0  0  0  0  0  0  0  0
    2.7380   -1.7123    1.8569 H   0  0  0  0  0  0  0  0  0  0  0  0
    0.7729   -3.3149   -1.6727 H   0  0  0  0  0  0  0  0  0  0  0  0
    0.1500   -4.5783   -3.6802 H   0  0  0  0  0  0  0  0  0  0  0  0
   -2.0732   -4.2189   -4.7308 H   0  0  0  0  0  0  0  0  0  0  0  0
   -3.6529   -2.5961   -3.7433 H   0  0  0  0  0  0  0  0  0  0  0  0
   -2.8561    1.9704    0.8457 H   0  0  0  0  0  0  0  0  0  0  0  0
   -4.6936    3.3784    1.6051 H   0  0  0  0  0  0  0  0  0  0  0  0
  1  2  1  0
  2  3  1  0
  3  4  2  0
  4  5  1  0
  5  6  2  0
  6  7  1  0
  7  8  2  0
  8  9  1  0
  9 10  1  0
 10 11  2  0
 10 12  1  0
 12 13  1  0
 13 14  2  0
 14 15  1  0
 15 16  2  0
 16 17  1  0
 17 18  2  0
 17 19  2  0
 17 20  1  0
 20 21  1  0
 21 22  1  0
 21 23  2  0
 16 24  1  0
 24 25  2  0
  9 26  2  0
 26 27  1  0
 27 28  2  0
 28 29  1  0
 29 30  2  0
 30 31  1  0
 31 32  2  0
  6 33  1  0
 33 34  2  0
 34  3  1  0
 32  7  1  0
 25 13  1  0
 31 26  1  0
  1 35  1  0
  1 36  1  0
  1 37  1  0
  2 38  1  0
  2 39  1  0
  4 40  1  0
  5 41  1  0
  8 42  1  0
 12 43  1  0
 14 44  1  0
 15 45  1  0
 20 46  1  0
 22 47  1  0
 22 48  1  0
 22 49  1  0
 24 50  1  0
 25 51  1  0
 27 52  1  0
 28 53  1  0
 29 54  1  0
 30 55  1  0
 33 56  1  0
 34 57  1  0
M  END
$$$$
