
     RDKit          3D

 71 77  0  0  0  0  0  0  0  0999 V2000
    5.7023    0.8840   -2.1792 C   0  0  0  0  0  0  0  0  0  0  0  0
    4.5818    0.3639   -1.4762 O   0  0  0  0  0  0  0  0  0  0  0  0
    4.6322    0.6263   -0.0729 C   0  0  0  0  0  0  0  0  0  0  0  0
    3.9993   -0.4721    0.8408 C   0  0  0  0  0  0  0  0  0  0  0  0
    4.5766   -0.7644    1.8985 O   0  0  0  0  0  0  0  0  0  0  0  0
    2.7783   -1.0604    0.5112 N   0  0  0  0  0  0  0  0  0  0  0  0
    2.2990   -2.1321    1.3747 C   0  0  0  0  0  0  0  0  0  0  0  0
    0.7702   -2.1806    1.3862 C   0  0  0  0  0  0  0  0  0  0  0  0
    0.2017   -2.5108    0.0696 N   0  0  0  0  0  0  0  0  0  0  0  0
    0.7698   -1.5769   -0.9961 C   0  0  2  0  0  0  0  0  0  0  0  0
    2.2310   -1.0800   -0.8487 C   0  0  0  0  0  0  0  0  0  0  0  0
   -0.2759   -0.5191   -1.0671 C   0  0  0  0  0  0  0  0  0  0  0  0
   -1.4815   -0.9633   -0.5164 C   0  0  0  0  0  0  0  0  0  0  0  0
   -2.4271    0.0182   -0.6814 C   0  0  0  0  0  0  0  0  0  0  0  0
   -3.6998    0.0615   -0.2950 O   0  0  0  0  0  0  0  0  0  0  0  0
   -1.7896    1.1039   -1.3157 N   0  0  0  0  0  0  0  0  0  0  0  0
   -2.3605    2.3880   -1.5864 C   0  0  0  0  0  0  0  0  0  0  0  0
   -3.7263    2.5233   -1.8653 C   0  0  0  0  0  0  0  0  0  0  0  0
   -4.2677    3.7830   -2.1353 C   0  0  0  0  0  0  0  0  0  0  0  0
   -3.4553    4.9160   -2.1175 C   0  0  0  0  0  0  0  0  0  0  0  0
   -2.0982    4.7920   -1.8292 C   0  0  0  0  0  0  0  0  0  0  0  0
   -1.5506    3.5351   -1.5587 C   0  0  0  0  0  0  0  0  0  0  0  0
   -0.4756    0.7071   -1.6364 C   0  0  0  0  0  0  0  0  0  0  0  0
    0.3525    1.3920   -2.4246 O   0  0  0  0  0  0  0  0  0  0  0  0
   -1.3043   -2.3370    0.0088 C   0  0  1  0  0  0  0  0  0  0  0  0
   -1.8835   -3.4205   -0.9682 C   0  0  0  0  0  0  0  0  0  0  0  0
   -1.5840   -3.6444   -2.1326 O   0  0  0  0  0  0  0  0  0  0  0  0
   -2.8504   -4.1304   -0.2608 N   0  0  0  0  0  0  0  0  0  0  0  0
   -3.0318   -3.6268    1.0224 C   0  0  0  0  0  0  0  0  0  0  0  0
   -2.1648   -2.5416    1.2347 C   0  0  0  0  0  0  0  0  0  0  0  0
   -2.2435   -1.8212    2.4192 C   0  0  0  0  0  0  0  0  0  0  0  0
   -3.1597   -2.2286    3.3902 C   0  0  0  0  0  0  0  0  0  0  0  0
   -3.9991   -3.3352    3.1707 C   0  0  0  0  0  0  0  0  0  0  0  0
   -5.1115   -3.7471    4.4301 Cl  0  0  0  0  0  0  0  0  0  0  0  0
   -3.9533   -4.0644    1.9688 C   0  0  0  0  0  0  0  0  0  0  0  0
   -4.8738   -5.2227    1.7208 C   0  0  0  0  0  0  0  0  0  0  0  0
    4.0713    1.9999    0.2915 C   0  0  0  0  0  0  0  0  0  0  0  0
    4.4956    2.6221    1.4792 C   0  0  0  0  0  0  0  0  0  0  0  0
    3.9936    3.8693    1.8528 C   0  0  0  0  0  0  0  0  0  0  0  0
    3.0550    4.5113    1.0474 C   0  0  0  0  0  0  0  0  0  0  0  0
    2.6192    3.9061   -0.1300 C   0  0  0  0  0  0  0  0  0  0  0  0
    3.1214    2.6578   -0.5052 C   0  0  0  0  0  0  0  0  0  0  0  0
    5.8004    1.9632   -2.0248 H   0  0  0  0  0  0  0  0  0  0  0  0
    6.6197    0.3756   -1.8669 H   0  0  0  0  0  0  0  0  0  0  0  0
    5.5509    0.6974   -3.2465 H   0  0  0  0  0  0  0  0  0  0  0  0
    5.6963    0.6194    0.2119 H   0  0  0  0  0  0  0  0  0  0  0  0
    2.7245   -3.0768    1.0143 H   0  0  0  0  0  0  0  0  0  0  0  0
    2.6522   -1.9853    2.4014 H   0  0  0  0  0  0  0  0  0  0  0  0
    0.4162   -1.2061    1.7423 H   0  0  0  0  0  0  0  0  0  0  0  0
    0.4668   -2.9446    2.1108 H   0  0  0  0  0  0  0  0  0  0  0  0
    0.7218   -2.1202   -1.9517 H   0  0  0  0  0  0  0  0  0  0  0  0
    2.8795   -1.7716   -1.4007 H   0  0  0  0  0  0  0  0  0  0  0  0
    2.3330   -0.0967   -1.3030 H   0  0  0  0  0  0  0  0  0  0  0  0
   -3.9060   -0.7621    0.1808 H   0  0  0  0  0  0  0  0  0  0  0  0
   -4.3862    1.6610   -1.9096 H   0  0  0  0  0  0  0  0  0  0  0  0
   -5.3272    3.8767   -2.3576 H   0  0  0  0  0  0  0  0  0  0  0  0
   -3.8822    5.8943   -2.3237 H   0  0  0  0  0  0  0  0  0  0  0  0
   -1.4683    5.6778   -1.7972 H   0  0  0  0  0  0  0  0  0  0  0  0
   -0.5002    3.4776   -1.2774 H   0  0  0  0  0  0  0  0  0  0  0  0
   -0.1812    1.9835   -2.9872 H   0  0  0  0  0  0  0  0  0  0  0  0
   -3.3599   -4.8894   -0.6869 H   0  0  0  0  0  0  0  0  0  0  0  0
   -1.6246   -0.9464    2.5964 H   0  0  0  0  0  0  0  0  0  0  0  0
   -3.2256   -1.6732    4.3243 H   0  0  0  0  0  0  0  0  0  0  0  0
   -4.7843   -5.9646    2.5222 H   0  0  0  0  0  0  0  0  0  0  0  0
   -5.9108   -4.8750    1.6623 H   0  0  0  0  0  0  0  0  0  0  0  0
   -4.6475   -5.7455    0.7868 H   0  0  0  0  0  0  0  0  0  0  0  0
    5.2185    2.1286    2.1286 H   0  0  0  0  0  0  0  0  0  0  0  0
    4.3313    4.3350    2.7749 H   0  0  0  0  0  0  0  0  0  0  0  0
    2.6618    5.4816    1.3397 H   0  0  0  0  0  0  0  0  0  0  0  0
    1.8851    4.4045   -0.7567 H   0  0  0  0  0  0  0  0  0  0  0  0
    2.7630    2.1998   -1.4256 H   0  0  0  0  0  0  0  0  0  0  0  0
  1  2  1  0
  2  3  1  0
  3  4  1  0
  4  5  2  0
  4  6  1  0
  6  7  1  0
  7  8  1  0
  8  9  1  0
  9 10  1  0
 10 11  1  0
 10 12  1  0
 12 13  1  0
 13 14  2  0
 14 15  1  0
 14 16  1  0
 16 17  1  0
 17 18  2  0
 18 19  1  0
 19 20  2  0
 20 21  1  0
 21 22  2  0
 16 23  1  0
 23 24  1  0
 13 25  1  0
 25 26  1  0
 26 27  2  0
 26 28  1  0
 28 29  1  0
 29 30  2  0
 30 31  1  0
 31 32  2  0
 32 33  1  0
 33 34  1  0
 33 35  2  0
 35 36  1  0
  3 37  1  0
 37 38  2  0
 38 39  1  0
 39 40  2  0
 40 41  1  0
 41 42  2  0
 11  6  1  0
 23 12  2  0
 30 25  1  0
 42 37  1  0
 25  9  1  1
 35 29  1  0
 22 17  1  0
  1 43  1  0
  1 44  1  0
  1 45  1  0
  3 46  1  0
  7 47  1  0
  7 48  1  0
  8 49  1  0
  8 50  1  0
 10 51  1  6
 11 52  1  0
 11 53  1  0
 15 54  1  0
 18 55  1  0
 19 56  1  0
 20 57  1  0
 21 58  1  0
 22 59  1  0
 24 60  1  0
 28 61  1  0
 31 62  1  0
 32 63  1  0
 36 64  1  0
 36 65  1  0
 36 66  1  0
 38 67  1  0
 39 68  1  0
 40 69  1  0
 41 70  1  0
 42 71  1  0
M  END
$$$$
