
     RDKit          3D

 87 91  0  0  0  0  0  0  0  0999 V2000
    0.3746    7.9521   -2.9505 C   0  0  0  0  0  0  0  0  0  0  0  0
    0.8436    7.0083   -1.8538 C   0  0  0  0  0  0  0  0  0  0  0  0
    1.2002    5.6446   -2.3937 C   0  0  0  0  0  0  0  0  0  0  0  0
    1.1473    5.3061   -3.5690 O   0  0  0  0  0  0  0  0  0  0  0  0
    1.5811    4.8344   -1.3669 O   0  0  0  0  0  0  0  0  0  0  0  0
    1.9282    3.4886   -1.7217 C   0  0  0  0  0  0  0  0  0  0  0  0
    0.6846    2.6251   -1.9333 C   0  0  1  0  0  0  0  0  0  0  0  0
    1.0401    1.1542   -2.2587 C   0  0  0  0  0  0  0  0  0  0  0  0
   -0.1017    0.2541   -1.6654 C   0  0  2  0  0  0  0  0  0  0  0  0
    0.3785   -0.4300   -0.4984 O   0  0  0  0  0  0  0  0  0  0  0  0
    1.4432   -1.2588   -0.6368 C   0  0  0  0  0  0  0  0  0  0  0  0
    2.0203   -1.5396   -1.6738 O   0  0  0  0  0  0  0  0  0  0  0  0
    1.8012   -1.7716    0.6995 C   0  0  0  0  0  0  0  0  0  0  0  0
    2.7045   -2.7553    0.8106 C   0  0  0  0  0  0  0  0  0  0  0  0
    3.1491   -3.3312    2.0872 C   0  0  0  0  0  0  0  0  0  0  0  0
    4.4675   -3.7930    2.1874 C   0  0  0  0  0  0  0  0  0  0  0  0
    4.9322   -4.3743    3.3702 C   0  0  0  0  0  0  0  0  0  0  0  0
    4.0793   -4.5088    4.4627 C   0  0  0  0  0  0  0  0  0  0  0  0
    2.7599   -4.0699    4.3693 C   0  0  0  0  0  0  0  0  0  0  0  0
    2.2938   -3.4878    3.1868 C   0  0  0  0  0  0  0  0  0  0  0  0
   -0.7898   -0.5865   -2.7790 C   0  0  0  0  0  0  0  0  0  0  0  0
   -1.3693   -0.0284   -3.7195 O   0  0  0  0  0  0  0  0  0  0  0  0
   -0.7116   -2.0792   -2.8222 C   0  0  0  0  0  0  0  0  0  0  0  0
   -0.1755   -2.5845   -4.1411 C   0  0  0  0  0  0  0  0  0  0  0  0
   -1.1049   -2.9566   -1.8796 C   0  0  0  0  0  0  0  0  0  0  0  0
   -1.6721   -2.8480   -0.5269 C   0  0  0  0  0  0  0  0  0  0  0  0
   -3.0692   -2.4189   -0.1475 C   0  0  2  0  0  0  0  0  0  0  0  0
   -3.4163   -1.8644    1.2164 C   0  0  0  0  0  0  0  0  0  0  0  0
   -3.7733   -0.3799    1.2270 C   0  0  0  0  0  0  0  0  0  0  0  0
   -2.5777    0.4984    0.9515 C   0  0  2  0  0  0  0  0  0  0  0  0
   -1.5592    0.6088    2.0396 C   0  0  0  0  0  0  0  0  0  0  0  0
   -2.9310    1.7806    0.3982 O   0  0  0  0  0  0  0  0  0  0  0  0
   -2.3336    0.8486   -0.5064 C   0  0  1  0  0  0  0  0  0  0  0  0
   -1.1315    1.3416   -1.2317 C   0  0  1  0  0  0  0  0  0  0  0  0
   -0.2981    2.5306   -0.7465 C   0  0  1  0  0  0  0  0  0  0  0  0
    0.4389    2.2399    0.4481 O   0  0  0  0  0  0  0  0  0  0  0  0
    0.5713    3.2641    1.3436 C   0  0  0  0  0  0  0  0  0  0  0  0
    0.0615    4.3697    1.2413 O   0  0  0  0  0  0  0  0  0  0  0  0
    1.4906    2.8262    2.4604 C   0  0  0  0  0  0  0  0  0  0  0  0
    1.3808    3.7292    3.6754 C   0  0  0  0  0  0  0  0  0  0  0  0
   -2.7493   -3.9021   -0.2169 C   0  0  0  0  0  0  0  0  0  0  0  0
   -3.4757   -4.6679   -1.3036 C   0  0  0  0  0  0  0  0  0  0  0  0
   -2.5300   -4.7330    1.0273 C   0  0  0  0  0  0  0  0  0  0  0  0
    1.1505    8.0885   -3.7096 H   0  0  0  0  0  0  0  0  0  0  0  0
   -0.5201    7.5623   -3.4503 H   0  0  0  0  0  0  0  0  0  0  0  0
    0.1302    8.9338   -2.5303 H   0  0  0  0  0  0  0  0  0  0  0  0
    0.0474    6.8898   -1.1111 H   0  0  0  0  0  0  0  0  0  0  0  0
    1.7298    7.4339   -1.3673 H   0  0  0  0  0  0  0  0  0  0  0  0
    2.5705    3.4837   -2.6123 H   0  0  0  0  0  0  0  0  0  0  0  0
    2.5425    3.0935   -0.9045 H   0  0  0  0  0  0  0  0  0  0  0  0
    0.1263    3.0336   -2.7876 H   0  0  0  0  0  0  0  0  0  0  0  0
    2.0161    0.9202   -1.8233 H   0  0  0  0  0  0  0  0  0  0  0  0
    1.1364    1.0382   -3.3449 H   0  0  0  0  0  0  0  0  0  0  0  0
    1.3139   -1.3171    1.5514 H   0  0  0  0  0  0  0  0  0  0  0  0
    3.1763   -3.1660   -0.0809 H   0  0  0  0  0  0  0  0  0  0  0  0
    5.1523   -3.6992    1.3458 H   0  0  0  0  0  0  0  0  0  0  0  0
    5.9598   -4.7228    3.4357 H   0  0  0  0  0  0  0  0  0  0  0  0
    4.4410   -4.9595    5.3837 H   0  0  0  0  0  0  0  0  0  0  0  0
    2.0898   -4.1886    5.2170 H   0  0  0  0  0  0  0  0  0  0  0  0
    1.2542   -3.1747    3.1390 H   0  0  0  0  0  0  0  0  0  0  0  0
   -0.4462   -3.6346   -4.3165 H   0  0  0  0  0  0  0  0  0  0  0  0
    0.9194   -2.5107   -4.1624 H   0  0  0  0  0  0  0  0  0  0  0  0
   -0.5763   -2.0178   -4.9888 H   0  0  0  0  0  0  0  0  0  0  0  0
   -0.9302   -4.0025   -2.1539 H   0  0  0  0  0  0  0  0  0  0  0  0
   -0.9102   -2.7058    0.2349 H   0  0  0  0  0  0  0  0  0  0  0  0
   -3.7091   -2.0108   -0.9228 H   0  0  0  0  0  0  0  0  0  0  0  0
   -2.6016   -2.0454    1.9272 H   0  0  0  0  0  0  0  0  0  0  0  0
   -4.2905   -2.4148    1.5855 H   0  0  0  0  0  0  0  0  0  0  0  0
   -4.1858   -0.1152    2.2088 H   0  0  0  0  0  0  0  0  0  0  0  0
   -4.5724   -0.1891    0.4996 H   0  0  0  0  0  0  0  0  0  0  0  0
   -0.6127    0.1559    1.7432 H   0  0  0  0  0  0  0  0  0  0  0  0
   -1.8888    0.0949    2.9488 H   0  0  0  0  0  0  0  0  0  0  0  0
   -1.3885    1.6506    2.3204 H   0  0  0  0  0  0  0  0  0  0  0  0
   -3.0046    0.3783   -1.2243 H   0  0  0  0  0  0  0  0  0  0  0  0
   -1.6000    1.7347   -2.1506 H   0  0  0  0  0  0  0  0  0  0  0  0
   -0.9150    3.4318   -0.6526 H   0  0  0  0  0  0  0  0  0  0  0  0
    2.5158    2.8365    2.0760 H   0  0  0  0  0  0  0  0  0  0  0  0
    1.2348    1.8017    2.7546 H   0  0  0  0  0  0  0  0  0  0  0  0
    1.6189    4.7673    3.4223 H   0  0  0  0  0  0  0  0  0  0  0  0
    2.0767    3.4017    4.4523 H   0  0  0  0  0  0  0  0  0  0  0  0
    0.3675    3.7081    4.0898 H   0  0  0  0  0  0  0  0  0  0  0  0
   -4.4375   -5.0362   -0.9273 H   0  0  0  0  0  0  0  0  0  0  0  0
   -2.8825   -5.5308   -1.6240 H   0  0  0  0  0  0  0  0  0  0  0  0
   -3.6842   -4.0537   -2.1859 H   0  0  0  0  0  0  0  0  0  0  0  0
   -3.4883   -5.0072    1.4795 H   0  0  0  0  0  0  0  0  0  0  0  0
   -1.9305   -4.2171    1.7834 H   0  0  0  0  0  0  0  0  0  0  0  0
   -1.9979   -5.6549    0.7727 H   0  0  0  0  0  0  0  0  0  0  0  0
  1  2  1  0
  2  3  1  0
  3  4  2  0
  3  5  1  0
  5  6  1  0
  6  7  1  0
  7  8  1  0
  8  9  1  0
  9 10  1  1
 10 11  1  0
 11 12  2  0
 11 13  1  0
 13 14  2  0
 14 15  1  0
 15 16  2  0
 16 17  1  0
 17 18  2  0
 18 19  1  0
 19 20  2  0
  9 21  1  0
 21 22  2  0
 21 23  1  0
 23 24  1  0
 23 25  2  3
 25 26  1  0
 26 27  1  0
 27 28  1  0
 28 29  1  0
 29 30  1  0
 30 31  1  1
 30 32  1  0
 32 33  1  0
 33 34  1  0
 34 35  1  0
 35 36  1  0
 36 37  1  0
 37 38  2  0
 37 39  1  0
 39 40  1  0
 27 41  1  0
 41 42  1  0
 41 43  1  0
 35  7  1  0
 34  9  1  0
 20 15  1  0
 41 26  1  0
 33 30  1  0
  1 44  1  0
  1 45  1  0
  1 46  1  0
  2 47  1  0
  2 48  1  0
  6 49  1  0
  6 50  1  0
  7 51  1  6
  8 52  1  0
  8 53  1  0
 13 54  1  0
 14 55  1  0
 16 56  1  0
 17 57  1  0
 18 58  1  0
 19 59  1  0
 20 60  1  0
 24 61  1  0
 24 62  1  0
 24 63  1  0
 25 64  1  0
 26 65  1  0
 27 66  1  6
 28 67  1  0
 28 68  1  0
 29 69  1  0
 29 70  1  0
 31 71  1  0
 31 72  1  0
 31 73  1  0
 33 74  1  6
 34 75  1  6
 35 76  1  1
 39 77  1  0
 39 78  1  0
 40 79  1  0
 40 80  1  0
 40 81  1  0
 42 82  1  0
 42 83  1  0
 42 84  1  0
 43 85  1  0
 43 86  1  0
 43 87  1  0
M  END
$$$$
