
     RDKit          3D

 44 46  0  0  0  0  0  0  0  0999 V2000
    5.0651    2.0935   -2.4780 C   0  0  0  0  0  0  0  0  0  0  0  0
    4.0719    1.2979   -1.6751 C   0  0  0  0  0  0  0  0  0  0  0  0
    2.8264    1.8646   -1.3654 C   0  0  0  0  0  0  0  0  0  0  0  0
    1.8797    1.1594   -0.6162 C   0  0  0  0  0  0  0  0  0  0  0  0
    2.1656   -0.1304   -0.1610 C   0  0  0  0  0  0  0  0  0  0  0  0
    1.1937   -0.9342    0.6450 C   0  0  0  0  0  0  0  0  0  0  0  0
    1.5166   -2.0632    1.0142 O   0  0  0  0  0  0  0  0  0  0  0  0
   -0.1628   -0.3100    0.9697 C   0  0  0  0  0  0  0  0  0  0  0  0
   -0.9666   -1.1452    1.8033 O   0  0  0  0  0  0  0  0  0  0  0  0
   -1.9499   -1.7779    1.0838 C   0  0  0  0  0  0  0  0  0  0  0  0
   -1.7270   -3.1208    0.7670 C   0  0  0  0  0  0  0  0  0  0  0  0
   -2.6860   -3.8363    0.0555 C   0  0  0  0  0  0  0  0  0  0  0  0
   -3.8719   -3.2135   -0.3251 C   0  0  0  0  0  0  0  0  0  0  0  0
   -4.1005   -1.8749    0.0101 C   0  0  0  0  0  0  0  0  0  0  0  0
   -3.1485   -1.1272    0.7283 C   0  0  0  0  0  0  0  0  0  0  0  0
   -3.4298    0.2779    1.0801 C   0  0  0  0  0  0  0  0  0  0  0  0
   -3.3762    0.7183    2.4125 C   0  0  0  0  0  0  0  0  0  0  0  0
   -3.6380    2.0504    2.7433 C   0  0  0  0  0  0  0  0  0  0  0  0
   -3.9599    2.9662    1.7450 C   0  0  0  0  0  0  0  0  0  0  0  0
   -4.0202    2.5513    0.4171 C   0  0  0  0  0  0  0  0  0  0  0  0
   -3.7580    1.2185    0.0883 C   0  0  0  0  0  0  0  0  0  0  0  0
    3.4103   -0.6996   -0.4661 C   0  0  0  0  0  0  0  0  0  0  0  0
    4.3706    0.0014   -1.2154 C   0  0  0  0  0  0  0  0  0  0  0  0
    5.6912   -0.6551   -1.5148 C   0  0  0  0  0  0  0  0  0  0  0  0
    5.3635    1.5407   -3.3747 H   0  0  0  0  0  0  0  0  0  0  0  0
    5.9503    2.3139   -1.8728 H   0  0  0  0  0  0  0  0  0  0  0  0
    4.6414    3.0479   -2.8085 H   0  0  0  0  0  0  0  0  0  0  0  0
    2.5827    2.8683   -1.7095 H   0  0  0  0  0  0  0  0  0  0  0  0
    0.9330    1.6486   -0.4077 H   0  0  0  0  0  0  0  0  0  0  0  0
   -0.6640   -0.0500    0.0288 H   0  0  0  0  0  0  0  0  0  0  0  0
    0.0147    0.6088    1.5391 H   0  0  0  0  0  0  0  0  0  0  0  0
   -0.7993   -3.6013    1.0715 H   0  0  0  0  0  0  0  0  0  0  0  0
   -2.5083   -4.8787   -0.1965 H   0  0  0  0  0  0  0  0  0  0  0  0
   -4.6262   -3.7715   -0.8744 H   0  0  0  0  0  0  0  0  0  0  0  0
   -5.0450   -1.4181   -0.2800 H   0  0  0  0  0  0  0  0  0  0  0  0
   -3.1289    0.0151    3.2066 H   0  0  0  0  0  0  0  0  0  0  0  0
   -3.5928    2.3684    3.7815 H   0  0  0  0  0  0  0  0  0  0  0  0
   -4.1673    4.0016    2.0032 H   0  0  0  0  0  0  0  0  0  0  0  0
   -4.2734    3.2632   -0.3640 H   0  0  0  0  0  0  0  0  0  0  0  0
   -3.8044    0.9168   -0.9562 H   0  0  0  0  0  0  0  0  0  0  0  0
    3.6366   -1.7054   -0.1124 H   0  0  0  0  0  0  0  0  0  0  0  0
    5.7702   -1.6374   -1.0369 H   0  0  0  0  0  0  0  0  0  0  0  0
    6.5159   -0.0415   -1.1391 H   0  0  0  0  0  0  0  0  0  0  0  0
    5.8057   -0.8009   -2.5934 H   0  0  0  0  0  0  0  0  0  0  0  0
  1  2  1  0
  2  3  2  0
  3  4  1  0
  4  5  2  0
  5  6  1  0
  6  7  2  0
  6  8  1  0
  8  9  1  0
  9 10  1  0
 10 11  2  0
 11 12  1  0
 12 13  2  0
 13 14  1  0
 14 15  2  0
 15 16  1  0
 16 17  2  0
 17 18  1  0
 18 19  2  0
 19 20  1  0
 20 21  2  0
  5 22  1  0
 22 23  2  0
 23 24  1  0
 23  2  1  0
 15 10  1  0
 21 16  1  0
  1 25  1  0
  1 26  1  0
  1 27  1  0
  3 28  1  0
  4 29  1  0
  8 30  1  0
  8 31  1  0
 11 32  1  0
 12 33  1  0
 13 34  1  0
 14 35  1  0
 17 36  1  0
 18 37  1  0
 19 38  1  0
 20 39  1  0
 21 40  1  0
 22 41  1  0
 24 42  1  0
 24 43  1  0
 24 44  1  0
M  END
$$$$
