
     RDKit          3D

 48 50  0  0  0  0  0  0  0  0999 V2000
    8.8734    1.5845   -0.8950 C   0  0  0  0  0  0  0  0  0  0  0  0
    8.3402    0.4867   -0.1633 O   0  0  0  0  0  0  0  0  0  0  0  0
    6.9891    0.2918   -0.2352 C   0  0  0  0  0  0  0  0  0  0  0  0
    6.5193   -0.8057    0.4892 C   0  0  0  0  0  0  0  0  0  0  0  0
    5.1575   -1.1280    0.5102 C   0  0  0  0  0  0  0  0  0  0  0  0
    4.2408   -0.3484   -0.1978 C   0  0  0  0  0  0  0  0  0  0  0  0
    2.8921   -0.5832   -0.2459 O   0  0  0  0  0  0  0  0  0  0  0  0
    2.3611   -1.5768    0.6286 C   0  0  0  0  0  0  0  0  0  0  0  0
    0.8911   -1.5582    0.4539 C   0  0  0  0  0  0  0  0  0  0  0  0
    0.0508   -1.5910   -0.6318 C   0  0  0  0  0  0  0  0  0  0  0  0
   -1.2542   -1.5679   -0.0784 C   0  0  0  0  0  0  0  0  0  0  0  0
   -2.5272   -1.5948   -0.8061 C   0  0  0  0  0  0  0  0  0  0  0  0
   -2.5781   -1.6915   -2.0296 O   0  0  0  0  0  0  0  0  0  0  0  0
   -3.6412   -1.5029    0.0071 N   0  0  0  0  0  0  0  0  0  0  0  0
   -4.9870   -1.2294   -0.4850 C   0  0  0  0  0  0  0  0  0  0  0  0
   -5.5007   -2.3468   -1.3962 C   0  0  0  0  0  0  0  0  0  0  0  0
   -5.1149    0.1474   -1.1681 C   0  0  0  0  0  0  0  0  0  0  0  0
   -4.9323    1.2812   -0.1858 C   0  0  0  0  0  0  0  0  0  0  0  0
   -6.0362    1.9346    0.3561 C   0  0  0  0  0  0  0  0  0  0  0  0
   -5.8251    2.9614    1.2731 C   0  0  0  0  0  0  0  0  0  0  0  0
   -4.5259    3.3040    1.6277 C   0  0  0  0  0  0  0  0  0  0  0  0
   -3.4849    2.6020    1.0472 C   0  0  0  0  0  0  0  0  0  0  0  0
   -3.6603    1.6030    0.1557 N   0  0  0  0  0  0  0  0  0  0  0  0
   -1.1980   -1.5256    1.2671 N   0  0  0  0  0  0  0  0  0  0  0  0
    0.1460   -1.5195    1.5911 O   0  0  0  0  0  0  0  0  0  0  0  0
    4.7197    0.7508   -0.9300 C   0  0  0  0  0  0  0  0  0  0  0  0
    3.6439    1.7591   -1.8388 Cl  0  0  0  0  0  0  0  0  0  0  0  0
    6.0829    1.0721   -0.9478 C   0  0  0  0  0  0  0  0  0  0  0  0
    9.9564    1.5951   -0.7377 H   0  0  0  0  0  0  0  0  0  0  0  0
    8.6928    1.4681   -1.9697 H   0  0  0  0  0  0  0  0  0  0  0  0
    8.4730    2.5355   -0.5269 H   0  0  0  0  0  0  0  0  0  0  0  0
    7.2254   -1.4232    1.0434 H   0  0  0  0  0  0  0  0  0  0  0  0
    4.8572   -1.9985    1.0847 H   0  0  0  0  0  0  0  0  0  0  0  0
    2.7394   -2.5687    0.3531 H   0  0  0  0  0  0  0  0  0  0  0  0
    2.6205   -1.3489    1.6705 H   0  0  0  0  0  0  0  0  0  0  0  0
    0.3245   -1.6218   -1.6767 H   0  0  0  0  0  0  0  0  0  0  0  0
   -3.4249   -1.2035    0.9547 H   0  0  0  0  0  0  0  0  0  0  0  0
   -5.6187   -1.2372    0.4144 H   0  0  0  0  0  0  0  0  0  0  0  0
   -4.9740   -2.3720   -2.3554 H   0  0  0  0  0  0  0  0  0  0  0  0
   -5.3760   -3.3249   -0.9196 H   0  0  0  0  0  0  0  0  0  0  0  0
   -6.5666   -2.2099   -1.6087 H   0  0  0  0  0  0  0  0  0  0  0  0
   -4.3798    0.2603   -1.9744 H   0  0  0  0  0  0  0  0  0  0  0  0
   -6.1010    0.2403   -1.6403 H   0  0  0  0  0  0  0  0  0  0  0  0
   -7.0465    1.6562    0.0725 H   0  0  0  0  0  0  0  0  0  0  0  0
   -6.6691    3.4888    1.7077 H   0  0  0  0  0  0  0  0  0  0  0  0
   -4.3287    4.0964    2.3399 H   0  0  0  0  0  0  0  0  0  0  0  0
   -2.4507    2.8281    1.2909 H   0  0  0  0  0  0  0  0  0  0  0  0
    6.4051    1.9315   -1.5257 H   0  0  0  0  0  0  0  0  0  0  0  0
  1  2  1  0
  2  3  1  0
  3  4  2  0
  4  5  1  0
  5  6  2  0
  6  7  1  0
  7  8  1  0
  8  9  1  0
  9 10  2  0
 10 11  1  0
 11 12  1  0
 12 13  2  0
 12 14  1  0
 14 15  1  0
 15 16  1  0
 15 17  1  0
 17 18  1  0
 18 19  2  0
 19 20  1  0
 20 21  2  0
 21 22  1  0
 22 23  2  0
 11 24  2  0
 24 25  1  0
  6 26  1  0
 26 27  1  0
 26 28  2  0
 28  3  1  0
 25  9  1  0
 23 18  1  0
  1 29  1  0
  1 30  1  0
  1 31  1  0
  4 32  1  0
  5 33  1  0
  8 34  1  0
  8 35  1  0
 10 36  1  0
 14 37  1  0
 15 38  1  0
 16 39  1  0
 16 40  1  0
 16 41  1  0
 17 42  1  0
 17 43  1  0
 19 44  1  0
 20 45  1  0
 21 46  1  0
 22 47  1  0
 28 48  1  0
M  END
$$$$
