
     RDKit          3D

 50 53  0  0  0  0  0  0  0  0999 V2000
    7.0146    0.1329    3.1066 C   0  0  0  0  0  0  0  0  0  0  0  0
    6.6718   -1.1036    2.2937 C   0  0  0  0  0  0  0  0  0  0  0  0
    6.5601   -0.7903    0.9062 O   0  0  0  0  0  0  0  0  0  0  0  0
    5.3982   -0.2764    0.4081 C   0  0  0  0  0  0  0  0  0  0  0  0
    4.2144   -0.1132    1.1330 C   0  0  0  0  0  0  0  0  0  0  0  0
    3.0605    0.3963    0.5159 C   0  0  0  0  0  0  0  0  0  0  0  0
    3.0712    0.7410   -0.8428 C   0  0  0  0  0  0  0  0  0  0  0  0
    1.8683    1.2963   -1.5232 C   0  0  0  0  0  0  0  0  0  0  0  0
    2.0466    2.1489   -2.3832 O   0  0  0  0  0  0  0  0  0  0  0  0
    0.6629    0.7548   -1.1160 N   0  0  0  0  0  0  0  0  0  0  0  0
   -0.6276    1.1038   -1.5722 C   0  0  0  0  0  0  0  0  0  0  0  0
   -0.8807    2.1201   -2.4934 C   0  0  0  0  0  0  0  0  0  0  0  0
   -2.1883    2.3982   -2.9008 C   0  0  0  0  0  0  0  0  0  0  0  0
   -3.2576    1.6683   -2.3842 C   0  0  0  0  0  0  0  0  0  0  0  0
   -3.0280    0.6535   -1.4506 C   0  0  0  0  0  0  0  0  0  0  0  0
   -4.1599   -0.1065   -0.8861 C   0  0  0  0  0  0  0  0  0  0  0  0
   -4.4237    0.0152    0.4256 C   0  0  0  0  0  0  0  0  0  0  0  0
   -5.5331   -0.7054    1.0271 C   0  0  0  0  0  0  0  0  0  0  0  0
   -5.8343   -0.6059    2.3874 C   0  0  0  0  0  0  0  0  0  0  0  0
   -6.9131   -1.3199    2.9193 C   0  0  0  0  0  0  0  0  0  0  0  0
   -7.6935   -2.1344    2.0958 C   0  0  0  0  0  0  0  0  0  0  0  0
   -7.3988   -2.2368    0.7378 C   0  0  0  0  0  0  0  0  0  0  0  0
   -6.3219   -1.5196    0.2224 C   0  0  0  0  0  0  0  0  0  0  0  0
   -6.0575   -1.6461   -1.1523 O   0  0  0  0  0  0  0  0  0  0  0  0
   -5.0055   -0.9692   -1.7624 C   0  0  0  0  0  0  0  0  0  0  0  0
   -4.7924   -1.0896   -2.9643 O   0  0  0  0  0  0  0  0  0  0  0  0
   -1.7088    0.3766   -1.0527 C   0  0  0  0  0  0  0  0  0  0  0  0
    4.2488    0.6056   -1.5790 C   0  0  0  0  0  0  0  0  0  0  0  0
    5.3893    0.1018   -0.9425 C   0  0  0  0  0  0  0  0  0  0  0  0
    6.5978   -0.0191   -1.7320 N   0  0  0  0  0  4  0  0  0  0  0  0
    6.5724   -0.8295   -2.6687 O   0  0  0  0  0  0  0  0  0  0  0  0
    7.5441    0.7251   -1.4427 O   0  0  0  0  0  1  0  0  0  0  0  0
    7.1757   -0.1279    4.1567 H   0  0  0  0  0  0  0  0  0  0  0  0
    7.9221    0.6068    2.7178 H   0  0  0  0  0  0  0  0  0  0  0  0
    6.2185    0.8815    3.0538 H   0  0  0  0  0  0  0  0  0  0  0  0
    7.5010   -1.8144    2.3826 H   0  0  0  0  0  0  0  0  0  0  0  0
    5.7886   -1.6268    2.6749 H   0  0  0  0  0  0  0  0  0  0  0  0
    4.1497   -0.3612    2.1882 H   0  0  0  0  0  0  0  0  0  0  0  0
    2.1699    0.5464    1.1222 H   0  0  0  0  0  0  0  0  0  0  0  0
    0.6998   -0.0289   -0.4781 H   0  0  0  0  0  0  0  0  0  0  0  0
   -0.0810    2.7144   -2.9245 H   0  0  0  0  0  0  0  0  0  0  0  0
   -2.3689    3.1847   -3.6299 H   0  0  0  0  0  0  0  0  0  0  0  0
   -4.2666    1.8956   -2.7222 H   0  0  0  0  0  0  0  0  0  0  0  0
   -3.8295    0.6566    1.0694 H   0  0  0  0  0  0  0  0  0  0  0  0
   -5.2409    0.0247    3.0450 H   0  0  0  0  0  0  0  0  0  0  0  0
   -7.1468   -1.2398    3.9787 H   0  0  0  0  0  0  0  0  0  0  0  0
   -8.5318   -2.6869    2.5133 H   0  0  0  0  0  0  0  0  0  0  0  0
   -8.0011   -2.8660    0.0891 H   0  0  0  0  0  0  0  0  0  0  0  0
   -1.5319   -0.4229   -0.3373 H   0  0  0  0  0  0  0  0  0  0  0  0
    4.2771    0.8915   -2.6294 H   0  0  0  0  0  0  0  0  0  0  0  0
  1  2  1  0
  2  3  1  0
  3  4  1  0
  4  5  2  0
  5  6  1  0
  6  7  2  0
  7  8  1  0
  8  9  2  0
  8 10  1  0
 10 11  1  0
 11 12  2  0
 12 13  1  0
 13 14  2  0
 14 15  1  0
 15 16  1  0
 16 17  2  0
 17 18  1  0
 18 19  2  0
 19 20  1  0
 20 21  2  0
 21 22  1  0
 22 23  2  0
 23 24  1  0
 24 25  1  0
 25 26  2  0
 15 27  2  0
  7 28  1  0
 28 29  2  0
 29 30  1  0
 30 31  2  0
 30 32  1  0
 29  4  1  0
 27 11  1  0
 25 16  1  0
 23 18  1  0
  1 33  1  0
  1 34  1  0
  1 35  1  0
  2 36  1  0
  2 37  1  0
  5 38  1  0
  6 39  1  0
 10 40  1  0
 12 41  1  0
 13 42  1  0
 14 43  1  0
 17 44  1  0
 19 45  1  0
 20 46  1  0
 21 47  1  0
 22 48  1  0
 27 49  1  0
 28 50  1  0
M  CHG  2  30   1  32  -1
M  END
$$$$
