
     RDKit          3D

 50 51  0  0  0  0  0  0  0  0999 V2000
   -6.0722   -3.0330    0.4746 C   0  0  0  0  0  0  0  0  0  0  0  0
   -5.3180   -2.1444   -0.3364 O   0  0  0  0  0  0  0  0  0  0  0  0
   -4.1322   -1.6696    0.1654 C   0  0  0  0  0  0  0  0  0  0  0  0
   -3.6547   -1.9393    1.4524 C   0  0  0  0  0  0  0  0  0  0  0  0
   -2.4348   -1.4082    1.8790 C   0  0  0  0  0  0  0  0  0  0  0  0
   -1.6791   -0.6152    1.0167 C   0  0  0  0  0  0  0  0  0  0  0  0
   -0.4379   -0.0442    1.4422 N   0  0  0  0  0  0  0  0  0  0  0  0
    0.6470   -0.9371    1.9030 C   0  0  0  0  0  0  0  0  0  0  0  0
    1.6434   -1.1884    0.7754 C   0  0  0  0  0  0  0  0  0  0  0  0
    1.8501   -2.3349    0.3842 O   0  0  0  0  0  0  0  0  0  0  0  0
    2.2717   -0.0370    0.3210 N   0  0  0  0  0  0  0  0  0  0  0  0
    3.2049    0.0907   -0.7391 C   0  0  0  0  0  0  0  0  0  0  0  0
    3.5646   -1.0054   -1.5417 C   0  0  0  0  0  0  0  0  0  0  0  0
    4.4557   -0.8737   -2.6108 C   0  0  0  0  0  0  0  0  0  0  0  0
    4.9951    0.3671   -2.9110 C   0  0  0  0  0  0  0  0  0  0  0  0
    4.6412    1.4660   -2.1206 C   0  0  0  0  0  0  0  0  0  0  0  0
    5.2028    2.7485   -2.5134 N   0  0  0  0  0  4  0  0  0  0  0  0
    6.4366    2.8526   -2.4921 O   0  0  0  0  0  0  0  0  0  0  0  0
    4.4083    3.6331   -2.8591 O   0  0  0  0  0  1  0  0  0  0  0  0
    3.7728    1.3598   -1.0097 C   0  0  0  0  0  0  0  0  0  0  0  0
    3.4545    2.5577   -0.1492 C   0  0  0  0  0  0  0  0  0  0  0  0
   -0.4069    1.5715    1.9116 S   0  0  0  0  0  6  0  0  0  0  0  0
   -1.0033    1.4964    3.5894 C   0  0  0  0  0  0  0  0  0  0  0  0
    0.9942    1.9484    1.9517 O   0  0  0  0  0  0  0  0  0  0  0  0
   -1.3497    2.3332    1.1244 O   0  0  0  0  0  0  0  0  0  0  0  0
   -2.1532   -0.3294   -0.2650 C   0  0  0  0  0  0  0  0  0  0  0  0
   -3.3784   -0.8481   -0.6980 C   0  0  0  0  0  0  0  0  0  0  0  0
   -3.9184   -0.6221   -1.9405 O   0  0  0  0  0  0  0  0  0  0  0  0
   -3.2719    0.3322   -2.7720 C   0  0  0  0  0  0  0  0  0  0  0  0
   -5.5007   -3.9369    0.7099 H   0  0  0  0  0  0  0  0  0  0  0  0
   -6.4197   -2.5354    1.3858 H   0  0  0  0  0  0  0  0  0  0  0  0
   -6.9558   -3.3375   -0.0946 H   0  0  0  0  0  0  0  0  0  0  0  0
   -4.2121   -2.5570    2.1487 H   0  0  0  0  0  0  0  0  0  0  0  0
   -2.0905   -1.6261    2.8855 H   0  0  0  0  0  0  0  0  0  0  0  0
    0.2544   -1.9025    2.2407 H   0  0  0  0  0  0  0  0  0  0  0  0
    1.1871   -0.5156    2.7577 H   0  0  0  0  0  0  0  0  0  0  0  0
    2.0027    0.8228    0.7992 H   0  0  0  0  0  0  0  0  0  0  0  0
    3.1549   -1.9965   -1.3704 H   0  0  0  0  0  0  0  0  0  0  0  0
    4.7106   -1.7442   -3.2110 H   0  0  0  0  0  0  0  0  0  0  0  0
    5.6754    0.4742   -3.7529 H   0  0  0  0  0  0  0  0  0  0  0  0
    2.4496    2.9264   -0.3759 H   0  0  0  0  0  0  0  0  0  0  0  0
    3.5241    2.2958    0.9117 H   0  0  0  0  0  0  0  0  0  0  0  0
    4.1621    3.3804   -0.2828 H   0  0  0  0  0  0  0  0  0  0  0  0
   -0.3629    0.8319    4.1712 H   0  0  0  0  0  0  0  0  0  0  0  0
   -2.0369    1.1473    3.5874 H   0  0  0  0  0  0  0  0  0  0  0  0
   -0.9581    2.5061    4.0039 H   0  0  0  0  0  0  0  0  0  0  0  0
   -1.5479    0.3004   -0.9084 H   0  0  0  0  0  0  0  0  0  0  0  0
   -2.2807   -0.0198   -3.0757 H   0  0  0  0  0  0  0  0  0  0  0  0
   -3.8744    0.4482   -3.6781 H   0  0  0  0  0  0  0  0  0  0  0  0
   -3.2135    1.3110   -2.2842 H   0  0  0  0  0  0  0  0  0  0  0  0
  1  2  1  0
  2  3  1  0
  3  4  2  0
  4  5  1  0
  5  6  2  0
  6  7  1  0
  7  8  1  0
  8  9  1  0
  9 10  2  0
  9 11  1  0
 11 12  1  0
 12 13  2  0
 13 14  1  0
 14 15  2  0
 15 16  1  0
 16 17  1  0
 17 18  2  0
 17 19  1  0
 16 20  2  0
 20 21  1  0
  7 22  1  0
 22 23  1  0
 22 24  2  0
 22 25  2  0
  6 26  1  0
 26 27  2  0
 27 28  1  0
 28 29  1  0
 27  3  1  0
 20 12  1  0
  1 30  1  0
  1 31  1  0
  1 32  1  0
  4 33  1  0
  5 34  1  0
  8 35  1  0
  8 36  1  0
 11 37  1  0
 13 38  1  0
 14 39  1  0
 15 40  1  0
 21 41  1  0
 21 42  1  0
 21 43  1  0
 23 44  1  0
 23 45  1  0
 23 46  1  0
 26 47  1  0
 29 48  1  0
 29 49  1  0
 29 50  1  0
M  CHG  2  17   1  19  -1
M  END
$$$$
