
     RDKit          3D

 51 54  0  0  0  0  0  0  0  0999 V2000
   -3.8114   -4.3196    2.0138 C   0  0  0  0  0  0  0  0  0  0  0  0
   -2.3908   -4.2973    2.0102 O   0  0  0  0  0  0  0  0  0  0  0  0
   -1.7806   -3.0935    1.7853 C   0  0  0  0  0  0  0  0  0  0  0  0
   -2.4368   -1.8774    1.6198 C   0  0  0  0  0  0  0  0  0  0  0  0
   -1.7003   -0.6985    1.3939 C   0  0  0  0  0  0  0  0  0  0  0  0
   -2.4266    0.5671    1.2003 C   0  0  0  0  0  0  0  0  0  0  0  0
   -3.6544    0.5778    1.3078 O   0  0  0  0  0  0  0  0  0  0  0  0
   -1.6659    1.6857    0.9010 N   0  0  0  0  0  0  0  0  0  0  0  0
   -2.3812    2.9192    0.6026 C   0  0  0  0  0  0  0  0  0  0  0  0
   -2.7302    2.9506   -0.8465 C   0  0  0  0  0  0  0  0  0  0  0  0
   -3.6998    2.3231   -1.6021 C   0  0  0  0  0  0  0  0  0  0  0  0
   -3.5052    2.7505   -2.9368 C   0  0  0  0  0  0  0  0  0  0  0  0
   -2.4366    3.6146   -2.9104 C   0  0  0  0  0  0  0  0  0  0  0  0
   -1.9630    3.7462   -1.6467 O   0  0  0  0  0  0  0  0  0  0  0  0
   -0.2818    1.7148    0.8587 C   0  0  0  0  0  0  0  0  0  0  0  0
    0.3470    2.7496    0.6238 O   0  0  0  0  0  0  0  0  0  0  0  0
    0.3849    0.5204    1.1225 N   0  0  0  0  0  0  0  0  0  0  0  0
    1.8479    0.5637    1.0477 C   0  0  0  0  0  0  0  0  0  0  0  0
    2.3319    0.2667   -0.3708 C   0  0  0  0  0  0  0  0  0  0  0  0
    1.7739   -0.5521   -1.1020 O   0  0  0  0  0  0  0  0  0  0  0  0
    3.5485    0.9622   -0.8804 C   0  0  0  0  0  0  0  0  0  0  0  0
    4.4909    1.5509   -0.0281 C   0  0  0  0  0  0  0  0  0  0  0  0
    5.6195    2.1826   -0.5607 C   0  0  0  0  0  0  0  0  0  0  0  0
    5.8152    2.2239   -1.9406 C   0  0  0  0  0  0  0  0  0  0  0  0
    4.8831    1.6290   -2.7871 C   0  0  0  0  0  0  0  0  0  0  0  0
    5.1524    1.6794   -4.6569 Br  0  0  0  0  0  0  0  0  0  0  0  0
    3.7552    0.9968   -2.2665 C   0  0  0  0  0  0  0  0  0  0  0  0
   -0.3063   -0.7020    1.3414 C   0  0  0  0  0  0  0  0  0  0  0  0
    0.3493   -1.9279    1.5091 C   0  0  0  0  0  0  0  0  0  0  0  0
   -0.3823   -3.1044    1.7112 C   0  0  0  0  0  0  0  0  0  0  0  0
    0.3196   -4.2708    1.8942 O   0  0  0  0  0  0  0  0  0  0  0  0
    0.4920   -4.9368    0.6435 C   0  0  0  0  0  0  0  0  0  0  0  0
   -4.2139   -3.9998    1.0474 H   0  0  0  0  0  0  0  0  0  0  0  0
   -4.2140   -3.7132    2.8308 H   0  0  0  0  0  0  0  0  0  0  0  0
   -4.1288   -5.3536    2.1794 H   0  0  0  0  0  0  0  0  0  0  0  0
   -3.5215   -1.8114    1.6582 H   0  0  0  0  0  0  0  0  0  0  0  0
   -1.7738    3.7924    0.8671 H   0  0  0  0  0  0  0  0  0  0  0  0
   -3.2974    2.9760    1.2022 H   0  0  0  0  0  0  0  0  0  0  0  0
   -4.4460    1.6337   -1.2295 H   0  0  0  0  0  0  0  0  0  0  0  0
   -4.0699    2.4623   -3.8106 H   0  0  0  0  0  0  0  0  0  0  0  0
   -1.9153    4.1866   -3.6655 H   0  0  0  0  0  0  0  0  0  0  0  0
    2.1769    1.5613    1.3529 H   0  0  0  0  0  0  0  0  0  0  0  0
    2.3049   -0.1366    1.7522 H   0  0  0  0  0  0  0  0  0  0  0  0
    4.3831    1.5249    1.0527 H   0  0  0  0  0  0  0  0  0  0  0  0
    6.3492    2.6425    0.1016 H   0  0  0  0  0  0  0  0  0  0  0  0
    6.6940    2.7192   -2.3449 H   0  0  0  0  0  0  0  0  0  0  0  0
    3.0327    0.5344   -2.9355 H   0  0  0  0  0  0  0  0  0  0  0  0
    1.4284   -2.0214    1.4641 H   0  0  0  0  0  0  0  0  0  0  0  0
   -0.4479   -5.0280    0.0871 H   0  0  0  0  0  0  0  0  0  0  0  0
    1.2413   -4.4182    0.0421 H   0  0  0  0  0  0  0  0  0  0  0  0
    0.8597   -5.9454    0.8501 H   0  0  0  0  0  0  0  0  0  0  0  0
  1  2  1  0
  2  3  1  0
  3  4  2  0
  4  5  1  0
  5  6  1  0
  6  7  2  0
  6  8  1  0
  8  9  1  0
  9 10  1  0
 10 11  2  0
 11 12  1  0
 12 13  2  0
 13 14  1  0
  8 15  1  0
 15 16  2  0
 15 17  1  0
 17 18  1  0
 18 19  1  0
 19 20  2  0
 19 21  1  0
 21 22  2  0
 22 23  1  0
 23 24  2  0
 24 25  1  0
 25 26  1  0
 25 27  2  0
 17 28  1  0
 28 29  1  0
 29 30  2  0
 30 31  1  0
 31 32  1  0
 30  3  1  0
 28  5  2  0
 14 10  1  0
 27 21  1  0
  1 33  1  0
  1 34  1  0
  1 35  1  0
  4 36  1  0
  9 37  1  0
  9 38  1  0
 11 39  1  0
 12 40  1  0
 13 41  1  0
 18 42  1  0
 18 43  1  0
 22 44  1  0
 23 45  1  0
 24 46  1  0
 27 47  1  0
 29 48  1  0
 32 49  1  0
 32 50  1  0
 32 51  1  0
M  END
$$$$
