
     RDKit          3D

 51 54  0  0  0  0  0  0  0  0999 V2000
    7.5686   -1.1271   -0.7330 C   0  0  0  0  0  0  0  0  0  0  0  0
    6.2216   -1.2854   -0.0919 C   0  0  0  0  0  0  0  0  0  0  0  0
    5.1008   -0.6079   -0.5907 C   0  0  0  0  0  0  0  0  0  0  0  0
    3.8273   -0.7383    0.0040 C   0  0  0  0  0  0  0  0  0  0  0  0
    2.7109    0.1006   -0.5612 C   0  0  0  0  0  0  0  0  0  0  0  0
    3.6775   -1.6039    1.1068 C   0  0  0  0  0  0  0  0  0  0  0  0
    2.4421   -1.8324    1.7693 N   0  0  0  0  0  0  0  0  0  0  0  0
    1.2399   -2.1304    1.1320 C   0  0  0  0  0  0  0  0  0  0  0  0
    1.1046   -2.2672   -0.0805 O   0  0  0  0  0  0  0  0  0  0  0  0
    0.1226   -2.3919    2.1372 C   0  0  0  0  0  0  0  0  0  0  0  0
   -1.5295   -2.1305    1.4433 S   0  0  0  0  0  0  0  0  0  0  0  0
   -1.5492   -0.4128    1.2569 C   0  0  0  0  0  0  0  0  0  0  0  0
   -0.5891    0.4142    1.6002 N   0  0  0  0  0  0  0  0  0  0  0  0
   -1.0067    1.6840    1.2848 N   0  0  0  0  0  0  0  0  0  0  0  0
   -2.2142    1.6093    0.7569 C   0  0  0  0  0  0  0  0  0  0  0  0
   -3.0006    2.7371    0.2792 C   0  0  0  0  0  0  0  0  0  0  0  0
   -3.2620    2.8977   -1.0820 C   0  0  0  0  0  0  0  0  0  0  0  0
   -4.0251    3.9843   -1.4820 C   0  0  0  0  0  0  0  0  0  0  0  0
   -4.5330    4.8980   -0.6262 N   0  0  0  0  0  0  0  0  0  0  0  0
   -4.2395    4.7372    0.6828 C   0  0  0  0  0  0  0  0  0  0  0  0
   -3.4831    3.6869    1.1804 C   0  0  0  0  0  0  0  0  0  0  0  0
   -2.6182    0.2912    0.7739 N   0  0  0  0  0  0  0  0  0  0  0  0
   -3.9586   -0.1974    0.5056 C   0  0  0  0  0  0  0  0  0  0  0  0
   -4.2055   -0.4307   -0.9392 C   0  0  0  0  0  0  0  0  0  0  0  0
   -5.2271   -0.0624   -1.7926 C   0  0  0  0  0  0  0  0  0  0  0  0
   -4.9051   -0.6042   -3.0638 C   0  0  0  0  0  0  0  0  0  0  0  0
   -3.7122   -1.2675   -2.9076 C   0  0  0  0  0  0  0  0  0  0  0  0
   -3.2843   -1.1716   -1.6208 O   0  0  0  0  0  0  0  0  0  0  0  0
    4.8214   -2.2350    1.6416 C   0  0  0  0  0  0  0  0  0  0  0  0
    4.7057   -3.2510    3.0431 Cl  0  0  0  0  0  0  0  0  0  0  0  0
    6.0753   -2.0915    1.0432 C   0  0  0  0  0  0  0  0  0  0  0  0
    7.5032   -0.5540   -1.6667 H   0  0  0  0  0  0  0  0  0  0  0  0
    8.2503   -0.6015   -0.0560 H   0  0  0  0  0  0  0  0  0  0  0  0
    7.9900   -2.1091   -0.9750 H   0  0  0  0  0  0  0  0  0  0  0  0
    5.2203    0.0534   -1.4480 H   0  0  0  0  0  0  0  0  0  0  0  0
    2.2062   -0.4261   -1.3769 H   0  0  0  0  0  0  0  0  0  0  0  0
    1.9854    0.3775    0.2090 H   0  0  0  0  0  0  0  0  0  0  0  0
    3.1032    1.0422   -0.9627 H   0  0  0  0  0  0  0  0  0  0  0  0
    2.5409   -2.2317    2.6988 H   0  0  0  0  0  0  0  0  0  0  0  0
    0.2503   -1.7632    3.0321 H   0  0  0  0  0  0  0  0  0  0  0  0
    0.2078   -3.4418    2.4500 H   0  0  0  0  0  0  0  0  0  0  0  0
   -2.8714    2.2037   -1.8225 H   0  0  0  0  0  0  0  0  0  0  0  0
   -4.2481    4.1568   -2.5352 H   0  0  0  0  0  0  0  0  0  0  0  0
   -4.6401    5.5005    1.3449 H   0  0  0  0  0  0  0  0  0  0  0  0
   -3.2753    3.6143    2.2471 H   0  0  0  0  0  0  0  0  0  0  0  0
   -4.6619    0.5445    0.9018 H   0  0  0  0  0  0  0  0  0  0  0  0
   -4.1312   -1.1155    1.0726 H   0  0  0  0  0  0  0  0  0  0  0  0
   -6.0961    0.5243   -1.5301 H   0  0  0  0  0  0  0  0  0  0  0  0
   -5.4720   -0.5262   -3.9825 H   0  0  0  0  0  0  0  0  0  0  0  0
   -3.0737   -1.8349   -3.5739 H   0  0  0  0  0  0  0  0  0  0  0  0
    6.9368   -2.6146    1.4566 H   0  0  0  0  0  0  0  0  0  0  0  0
  1  2  1  0
  2  3  2  0
  3  4  1  0
  4  5  1  0
  4  6  2  0
  6  7  1  0
  7  8  1  0
  8  9  2  0
  8 10  1  0
 10 11  1  0
 11 12  1  0
 12 13  2  0
 13 14  1  0
 14 15  2  0
 15 16  1  0
 16 17  2  0
 17 18  1  0
 18 19  2  0
 19 20  1  0
 20 21  2  0
 15 22  1  0
 22 23  1  0
 23 24  1  0
 24 25  2  0
 25 26  1  0
 26 27  2  0
 27 28  1  0
  6 29  1  0
 29 30  1  0
 29 31  2  0
 31  2  1  0
 22 12  1  0
 28 24  1  0
 21 16  1  0
  1 32  1  0
  1 33  1  0
  1 34  1  0
  3 35  1  0
  5 36  1  0
  5 37  1  0
  5 38  1  0
  7 39  1  0
 10 40  1  0
 10 41  1  0
 17 42  1  0
 18 43  1  0
 20 44  1  0
 21 45  1  0
 23 46  1  0
 23 47  1  0
 25 48  1  0
 26 49  1  0
 27 50  1  0
 31 51  1  0
M  END
$$$$
