
     RDKit          3D

 23 23  0  0  0  0  0  0  0  0999 V2000
    0.1272    2.5517   -0.6025 O   0  0  0  0  0  0  0  0  0  0  0  0
   -0.9249    1.9844   -0.8342 C   0  0  0  0  0  0  0  0  0  0  0  0
   -2.0144    2.6542   -1.2530 O   0  0  0  0  0  0  0  0  0  0  0  0
   -1.2003    0.5422   -0.6720 C   0  0  0  0  0  0  0  0  0  0  0  0
   -2.4237    0.1421   -0.1095 C   0  0  0  0  0  0  0  0  0  0  0  0
   -2.6861   -1.2101    0.1088 C   0  0  0  0  0  0  0  0  0  0  0  0
   -1.7327   -2.1649   -0.2352 C   0  0  0  0  0  0  0  0  0  0  0  0
   -0.5187   -1.7687   -0.8012 C   0  0  0  0  0  0  0  0  0  0  0  0
   -0.2298   -0.4148   -1.0180 C   0  0  0  0  0  0  0  0  0  0  0  0
    0.9812   -0.1009   -1.6574 N   0  0  0  0  0  0  0  0  0  0  0  0
    2.0120    0.2806   -0.9603 C   0  0  0  0  0  0  0  0  0  0  0  0
    2.1090    0.4526    0.5247 C   0  0  0  0  0  0  0  0  0  0  0  0
    3.1227   -0.5392    0.9747 N   0  0  0  0  0  4  0  0  0  0  0  0
    4.3132   -0.2133    0.8775 O   0  0  0  0  0  0  0  0  0  0  0  0
    2.7055   -1.6188    1.4128 O   0  0  0  0  0  1  0  0  0  0  0  0
   -1.7089    3.5798   -1.3542 H   0  0  0  0  0  0  0  0  0  0  0  0
   -3.1723    0.8824    0.1641 H   0  0  0  0  0  0  0  0  0  0  0  0
   -3.6340   -1.5187    0.5434 H   0  0  0  0  0  0  0  0  0  0  0  0
   -1.9353   -3.2213   -0.0746 H   0  0  0  0  0  0  0  0  0  0  0  0
    0.2094   -2.5249   -1.0880 H   0  0  0  0  0  0  0  0  0  0  0  0
    2.9261    0.5169   -1.5347 H   0  0  0  0  0  0  0  0  0  0  0  0
    1.1836    0.2610    1.0678 H   0  0  0  0  0  0  0  0  0  0  0  0
    2.4913    1.4480    0.7650 H   0  0  0  0  0  0  0  0  0  0  0  0
  1  2  2  0
  2  3  1  0
  2  4  1  0
  4  5  2  0
  5  6  1  0
  6  7  2  0
  7  8  1  0
  8  9  2  0
  9 10  1  0
 10 11  2  3
 11 12  1  0
 12 13  1  0
 13 14  2  0
 13 15  1  0
  9  4  1  0
  3 16  1  0
  5 17  1  0
  6 18  1  0
  7 19  1  0
  8 20  1  0
 11 21  1  0
 12 22  1  0
 12 23  1  0
M  CHG  2  13   1  15  -1
M  END
$$$$
