
     RDKit          3D

 47 50  0  0  0  0  0  0  0  0999 V2000
   -4.4770    2.9433   -1.0389 C   0  0  0  0  0  0  0  0  0  0  0  0
   -4.0954    1.5119   -1.4088 C   0  0  0  0  0  0  0  0  0  0  0  0
   -2.5925    1.2953   -1.3515 C   0  0  0  0  0  0  0  0  0  0  0  0
   -2.0386    1.2163    0.0523 C   0  0  0  0  0  0  0  0  0  0  0  0
   -1.4306    2.1932    0.5177 O   0  0  0  0  0  0  0  0  0  0  0  0
   -2.1224    0.0219    0.7497 N   0  0  0  0  0  0  0  0  0  0  0  0
   -1.4204   -0.0707    2.0378 C   0  0  0  0  0  0  0  0  0  0  0  0
    0.0840   -0.3460    1.8855 C   0  0  0  0  0  0  0  0  0  0  0  0
    0.5731   -1.3783    2.3433 O   0  0  0  0  0  0  0  0  0  0  0  0
    0.7637    0.6731    1.2296 N   0  0  0  0  0  0  0  0  0  0  0  0
    2.1053    0.6828    0.8044 C   0  0  0  0  0  0  0  0  0  0  0  0
    2.5134    1.7626    0.0158 C   0  0  0  0  0  0  0  0  0  0  0  0
    3.8116    1.8326   -0.4974 C   0  0  0  0  0  0  0  0  0  0  0  0
    4.7228    0.8213   -0.2080 C   0  0  0  0  0  0  0  0  0  0  0  0
    4.3251   -0.2670    0.5762 C   0  0  0  0  0  0  0  0  0  0  0  0
    3.0236   -0.3333    1.0846 C   0  0  0  0  0  0  0  0  0  0  0  0
    5.1578   -1.3177    0.8784 O   0  0  0  0  0  0  0  0  0  0  0  0
    6.3194   -1.3231    0.0430 C   0  0  0  0  0  0  0  0  0  0  0  0
    6.9043    0.0757   -0.0888 C   0  0  0  0  0  0  0  0  0  0  0  0
    5.9788    0.9481   -0.7400 O   0  0  0  0  0  0  0  0  0  0  0  0
   -2.7933   -1.1423    0.2529 C   0  0  0  0  0  0  0  0  0  0  0  0
   -2.1803   -2.4003    0.3860 C   0  0  0  0  0  0  0  0  0  0  0  0
   -2.7766   -3.5560   -0.1276 C   0  0  0  0  0  0  0  0  0  0  0  0
   -4.0076   -3.4822   -0.7697 C   0  0  0  0  0  0  0  0  0  0  0  0
   -4.6525   -2.2537   -0.8777 C   0  0  0  0  0  0  0  0  0  0  0  0
   -4.0592   -1.0802   -0.3695 C   0  0  0  0  0  0  0  0  0  0  0  0
   -5.0855    0.3830   -0.3749 S   0  0  0  0  0  0  0  0  0  0  0  0
   -4.2405    3.1782    0.0045 H   0  0  0  0  0  0  0  0  0  0  0  0
   -5.5506    3.1147   -1.1915 H   0  0  0  0  0  0  0  0  0  0  0  0
   -3.9466    3.6602   -1.6743 H   0  0  0  0  0  0  0  0  0  0  0  0
   -4.4101    1.3462   -2.4447 H   0  0  0  0  0  0  0  0  0  0  0  0
   -2.0758    2.1230   -1.8554 H   0  0  0  0  0  0  0  0  0  0  0  0
   -2.3003    0.3974   -1.9122 H   0  0  0  0  0  0  0  0  0  0  0  0
   -1.8735   -0.8562    2.6572 H   0  0  0  0  0  0  0  0  0  0  0  0
   -1.5426    0.8766    2.5929 H   0  0  0  0  0  0  0  0  0  0  0  0
    0.2114    1.5042    0.9963 H   0  0  0  0  0  0  0  0  0  0  0  0
    1.8293    2.5681   -0.2158 H   0  0  0  0  0  0  0  0  0  0  0  0
    4.1123    2.6768   -1.1066 H   0  0  0  0  0  0  0  0  0  0  0  0
    2.7599   -1.1819    1.7059 H   0  0  0  0  0  0  0  0  0  0  0  0
    7.0563   -1.9948    0.5016 H   0  0  0  0  0  0  0  0  0  0  0  0
    6.0395   -1.7362   -0.9350 H   0  0  0  0  0  0  0  0  0  0  0  0
    7.1596    0.4960    0.8916 H   0  0  0  0  0  0  0  0  0  0  0  0
    7.8161    0.0509   -0.6936 H   0  0  0  0  0  0  0  0  0  0  0  0
   -1.2079   -2.5093    0.8600 H   0  0  0  0  0  0  0  0  0  0  0  0
   -2.2716   -4.5163   -0.0316 H   0  0  0  0  0  0  0  0  0  0  0  0
   -4.4747   -4.3849   -1.1700 H   0  0  0  0  0  0  0  0  0  0  0  0
   -5.6410   -2.2231   -1.3379 H   0  0  0  0  0  0  0  0  0  0  0  0
  1  2  1  0
  2  3  1  0
  3  4  1  0
  4  5  2  0
  4  6  1  0
  6  7  1  0
  7  8  1  0
  8  9  2  0
  8 10  1  0
 10 11  1  0
 11 12  2  0
 12 13  1  0
 13 14  2  0
 14 15  1  0
 15 16  2  0
 15 17  1  0
 17 18  1  0
 18 19  1  0
 19 20  1  0
  6 21  1  0
 21 22  2  0
 22 23  1  0
 23 24  2  0
 24 25  1  0
 25 26  2  0
 26 27  1  0
 27  2  1  0
 16 11  1  0
 26 21  1  0
 20 14  1  0
  1 28  1  0
  1 29  1  0
  1 30  1  0
  2 31  1  0
  3 32  1  0
  3 33  1  0
  7 34  1  0
  7 35  1  0
 10 36  1  0
 12 37  1  0
 13 38  1  0
 16 39  1  0
 18 40  1  0
 18 41  1  0
 19 42  1  0
 19 43  1  0
 22 44  1  0
 23 45  1  0
 24 46  1  0
 25 47  1  0
M  END
$$$$
