
     RDKit          3D

 67 69  0  0  0  0  0  0  0  0999 V2000
    6.1177    2.6031   -4.0137 C   0  0  0  0  0  0  0  0  0  0  0  0
    6.3018    1.6078   -2.8814 C   0  0  0  0  0  0  0  0  0  0  0  0
    5.5493    0.4258   -3.1690 O   0  0  0  0  0  0  0  0  0  0  0  0
    4.5707    0.1379   -2.2488 C   0  0  0  0  0  0  0  0  0  0  0  0
    3.6061    1.0848   -1.8940 C   0  0  0  0  0  0  0  0  0  0  0  0
    2.5975    0.7497   -0.9922 C   0  0  0  0  0  0  0  0  0  0  0  0
    2.5291   -0.5413   -0.4566 C   0  0  0  0  0  0  0  0  0  0  0  0
    1.4491   -0.8867    0.5375 C   0  0  0  0  0  0  0  0  0  0  0  0
    1.9117   -0.6615    1.9788 C   0  0  0  0  0  0  0  0  0  0  0  0
    0.8465   -0.8969    2.9381 N   0  0  0  0  0  0  0  0  0  0  0  0
   -0.1137    0.0677    3.1785 C   0  0  0  0  0  0  0  0  0  0  0  0
   -0.0899    1.1844    2.6619 O   0  0  0  0  0  0  0  0  0  0  0  0
   -1.2145   -0.3639    4.1534 C   0  0  0  0  0  0  0  0  0  0  0  0
   -2.5109    0.0627    3.7402 O   0  0  0  0  0  0  0  0  0  0  0  0
   -2.9933   -0.6269    2.6745 C   0  0  0  0  0  0  0  0  0  0  0  0
   -2.4550   -1.5787    2.1344 O   0  0  0  0  0  0  0  0  0  0  0  0
   -4.2868   -0.0141    2.2789 C   0  0  0  0  0  0  0  0  0  0  0  0
   -5.2615    0.1190    3.2858 C   0  0  0  0  0  0  0  0  0  0  0  0
   -6.5271    0.6086    2.9607 C   0  0  0  0  0  0  0  0  0  0  0  0
   -7.5473    0.7510    4.0063 N   0  0  0  0  0  4  0  0  0  0  0  0
   -7.2773    0.3156    5.1342 O   0  0  0  0  0  0  0  0  0  0  0  0
   -8.6159    1.2980    3.6997 O   0  0  0  0  0  1  0  0  0  0  0  0
   -6.8292    0.9533    1.6444 C   0  0  0  0  0  0  0  0  0  0  0  0
   -5.8504    0.8142    0.6518 C   0  0  0  0  0  0  0  0  0  0  0  0
   -4.5535    0.3458    0.9345 C   0  0  0  0  0  0  0  0  0  0  0  0
   -3.5951    0.2552   -0.0664 N   0  0  0  0  0  0  0  0  0  0  0  0
   -2.3591    1.0581    0.0841 C   0  0  0  0  0  0  0  0  0  0  0  0
   -2.4006    2.3061   -0.8126 C   0  0  0  0  0  0  0  0  0  0  0  0
   -2.6563    1.9678   -2.1861 O   0  0  0  0  0  0  0  0  0  0  0  0
   -3.9152    1.2860   -2.3077 C   0  0  0  0  0  0  0  0  0  0  0  0
   -3.9406   -0.0051   -1.4752 C   0  0  0  0  0  0  0  0  0  0  0  0
    3.4883   -1.4962   -0.8344 C   0  0  0  0  0  0  0  0  0  0  0  0
    4.5085   -1.1690   -1.7352 C   0  0  0  0  0  0  0  0  0  0  0  0
    5.4902   -2.0233   -2.1613 O   0  0  0  0  0  0  0  0  0  0  0  0
    5.4555   -3.3926   -1.7698 C   0  0  0  0  0  0  0  0  0  0  0  0
    4.5234   -4.1964   -2.6606 C   0  0  0  0  0  0  0  0  0  0  0  0
    5.0658    2.8898   -4.1149 H   0  0  0  0  0  0  0  0  0  0  0  0
    6.4192    2.1587   -4.9680 H   0  0  0  0  0  0  0  0  0  0  0  0
    6.7135    3.5049   -3.8430 H   0  0  0  0  0  0  0  0  0  0  0  0
    7.3570    1.3148   -2.8317 H   0  0  0  0  0  0  0  0  0  0  0  0
    6.0513    2.0621   -1.9151 H   0  0  0  0  0  0  0  0  0  0  0  0
    3.6196    2.0812   -2.3247 H   0  0  0  0  0  0  0  0  0  0  0  0
    1.8587    1.5008   -0.7181 H   0  0  0  0  0  0  0  0  0  0  0  0
    0.5568   -0.2875    0.3261 H   0  0  0  0  0  0  0  0  0  0  0  0
    1.1380   -1.9299    0.3999 H   0  0  0  0  0  0  0  0  0  0  0  0
    2.2803    0.3624    2.1134 H   0  0  0  0  0  0  0  0  0  0  0  0
    2.7300   -1.3451    2.2316 H   0  0  0  0  0  0  0  0  0  0  0  0
    0.6147   -1.8586    3.1525 H   0  0  0  0  0  0  0  0  0  0  0  0
   -1.2031   -1.4453    4.3273 H   0  0  0  0  0  0  0  0  0  0  0  0
   -1.0006    0.1158    5.1145 H   0  0  0  0  0  0  0  0  0  0  0  0
   -5.0248   -0.1748    4.3062 H   0  0  0  0  0  0  0  0  0  0  0  0
   -7.8120    1.3294    1.3659 H   0  0  0  0  0  0  0  0  0  0  0  0
   -6.1205    1.1085   -0.3583 H   0  0  0  0  0  0  0  0  0  0  0  0
   -2.1860    1.3739    1.1156 H   0  0  0  0  0  0  0  0  0  0  0  0
   -1.5215    0.4230   -0.2238 H   0  0  0  0  0  0  0  0  0  0  0  0
   -1.4344    2.8204   -0.7745 H   0  0  0  0  0  0  0  0  0  0  0  0
   -3.1678    3.0133   -0.4714 H   0  0  0  0  0  0  0  0  0  0  0  0
   -4.0569    1.0472   -3.3667 H   0  0  0  0  0  0  0  0  0  0  0  0
   -4.7162    1.9735   -2.0128 H   0  0  0  0  0  0  0  0  0  0  0  0
   -4.9039   -0.5175   -1.5746 H   0  0  0  0  0  0  0  0  0  0  0  0
   -3.1797   -0.6897   -1.8716 H   0  0  0  0  0  0  0  0  0  0  0  0
    3.4107   -2.4920   -0.4118 H   0  0  0  0  0  0  0  0  0  0  0  0
    5.2334   -3.5188   -0.7051 H   0  0  0  0  0  0  0  0  0  0  0  0
    6.4726   -3.7771   -1.9072 H   0  0  0  0  0  0  0  0  0  0  0  0
    4.7997   -4.0720   -3.7135 H   0  0  0  0  0  0  0  0  0  0  0  0
    3.4856   -3.8615   -2.5617 H   0  0  0  0  0  0  0  0  0  0  0  0
    4.5684   -5.2602   -2.4078 H   0  0  0  0  0  0  0  0  0  0  0  0
  1  2  1  0
  2  3  1  0
  3  4  1  0
  4  5  2  0
  5  6  1  0
  6  7  2  0
  7  8  1  0
  8  9  1  0
  9 10  1  0
 10 11  1  0
 11 12  2  0
 11 13  1  0
 13 14  1  0
 14 15  1  0
 15 16  2  0
 15 17  1  0
 17 18  2  0
 18 19  1  0
 19 20  1  0
 20 21  2  0
 20 22  1  0
 19 23  2  0
 23 24  1  0
 24 25  2  0
 25 26  1  0
 26 27  1  0
 27 28  1  0
 28 29  1  0
 29 30  1  0
 30 31  1  0
  7 32  1  0
 32 33  2  0
 33 34  1  0
 34 35  1  0
 35 36  1  0
 33  4  1  0
 25 17  1  0
 31 26  1  0
  1 37  1  0
  1 38  1  0
  1 39  1  0
  2 40  1  0
  2 41  1  0
  5 42  1  0
  6 43  1  0
  8 44  1  0
  8 45  1  0
  9 46  1  0
  9 47  1  0
 10 48  1  0
 13 49  1  0
 13 50  1  0
 18 51  1  0
 23 52  1  0
 24 53  1  0
 27 54  1  0
 27 55  1  0
 28 56  1  0
 28 57  1  0
 30 58  1  0
 30 59  1  0
 31 60  1  0
 31 61  1  0
 32 62  1  0
 35 63  1  0
 35 64  1  0
 36 65  1  0
 36 66  1  0
 36 67  1  0
M  CHG  2  20   1  22  -1
M  END
$$$$
