
     RDKit          3D

 60 62  0  0  0  0  0  0  0  0999 V2000
   -0.4524    3.7512    2.8259 C   0  0  0  0  0  0  0  0  0  0  0  0
   -1.2559    3.0334    1.7824 C   0  0  0  0  0  0  0  0  0  0  0  0
   -2.2363    2.1084    2.1417 C   0  0  0  0  0  0  0  0  0  0  0  0
   -2.9569    1.4348    1.1558 C   0  0  0  0  0  0  0  0  0  0  0  0
   -2.6954    1.6650   -0.2062 C   0  0  0  0  0  0  0  0  0  0  0  0
   -3.7315    0.7874   -1.3697 S   0  0  0  0  0  6  0  0  0  0  0  0
   -3.6915    1.4482   -2.6544 O   0  0  0  0  0  0  0  0  0  0  0  0
   -5.0053    0.5587   -0.7141 O   0  0  0  0  0  0  0  0  0  0  0  0
   -3.0185   -0.7431   -1.4887 N   0  0  0  0  0  0  0  0  0  0  0  0
   -1.6431   -0.8659   -1.8617 C   0  0  0  0  0  0  0  0  0  0  0  0
   -0.7162   -1.0432   -0.8283 C   0  0  0  0  0  0  0  0  0  0  0  0
    0.6534   -1.1251   -1.0979 C   0  0  0  0  0  0  0  0  0  0  0  0
    1.6788   -1.4073   -0.0010 C   0  0  0  0  0  0  0  0  0  0  0  0
    1.3984   -0.7654    1.3415 C   0  0  0  0  0  0  0  0  0  0  0  0
    0.7715    0.2708    1.5091 O   0  0  0  0  0  0  0  0  0  0  0  0
    2.0062   -1.4586    2.3471 O   0  0  0  0  0  0  0  0  0  0  0  0
    1.8163   -0.9513    3.6835 C   0  0  0  0  0  0  0  0  0  0  0  0
    2.8484    0.1339    3.9679 C   0  0  0  0  0  0  0  0  0  0  0  0
    1.9917   -2.1279    4.6352 C   0  0  0  0  0  0  0  0  0  0  0  0
    1.8907   -2.9022    0.1345 C   0  0  0  0  0  0  0  0  0  0  0  0
    0.9437   -3.6783    0.3097 O   0  0  0  0  0  0  0  0  0  0  0  0
    3.3348   -3.3496    0.0629 C   0  0  0  0  0  0  0  0  0  0  0  0
    3.5276   -4.6176    0.5151 F   0  0  0  0  0  0  0  0  0  0  0  0
    3.8238   -3.3178   -1.2063 F   0  0  0  0  0  0  0  0  0  0  0  0
    4.1580   -2.5549    0.8033 F   0  0  0  0  0  0  0  0  0  0  0  0
    1.0674   -1.0388   -2.4369 C   0  0  0  0  0  0  0  0  0  0  0  0
    2.4228   -1.1308   -2.6405 O   0  0  0  0  0  0  0  0  0  0  0  0
    0.1549   -0.8967   -3.5151 C   0  0  0  0  0  0  0  0  0  0  0  0
    0.5481   -0.8685   -4.8776 C   0  0  0  0  0  0  0  0  0  0  0  0
   -0.3822   -0.7501   -5.9115 C   0  0  0  0  0  0  0  0  0  0  0  0
   -1.7315   -0.6718   -5.6149 C   0  0  0  0  0  0  0  0  0  0  0  0
   -2.1470   -0.7112   -4.2853 C   0  0  0  0  0  0  0  0  0  0  0  0
   -1.2289   -0.8106   -3.2149 C   0  0  0  0  0  0  0  0  0  0  0  0
   -1.7123    2.5955   -0.5916 C   0  0  0  0  0  0  0  0  0  0  0  0
   -1.3805    2.9386   -2.0154 C   0  0  0  0  0  0  0  0  0  0  0  0
   -1.0049    3.2696    0.4233 C   0  0  0  0  0  0  0  0  0  0  0  0
   -0.4838    4.8318    2.6518 H   0  0  0  0  0  0  0  0  0  0  0  0
   -0.8437    3.5656    3.8317 H   0  0  0  0  0  0  0  0  0  0  0  0
    0.5882    3.4119    2.7974 H   0  0  0  0  0  0  0  0  0  0  0  0
   -2.4534    1.9110    3.1890 H   0  0  0  0  0  0  0  0  0  0  0  0
   -3.7286    0.7314    1.4631 H   0  0  0  0  0  0  0  0  0  0  0  0
   -3.3606   -1.3712   -0.7632 H   0  0  0  0  0  0  0  0  0  0  0  0
   -1.0741   -1.1220    0.1962 H   0  0  0  0  0  0  0  0  0  0  0  0
    2.6311   -0.9499   -0.2993 H   0  0  0  0  0  0  0  0  0  0  0  0
    0.8002   -0.5536    3.8019 H   0  0  0  0  0  0  0  0  0  0  0  0
    2.7649    0.4995    4.9962 H   0  0  0  0  0  0  0  0  0  0  0  0
    3.8653   -0.2419    3.8098 H   0  0  0  0  0  0  0  0  0  0  0  0
    2.7196    0.9831    3.2888 H   0  0  0  0  0  0  0  0  0  0  0  0
    1.8445   -1.8235    5.6765 H   0  0  0  0  0  0  0  0  0  0  0  0
    2.9899   -2.5679    4.5347 H   0  0  0  0  0  0  0  0  0  0  0  0
    1.2748   -2.9202    4.3981 H   0  0  0  0  0  0  0  0  0  0  0  0
    2.6435   -0.7440   -3.5048 H   0  0  0  0  0  0  0  0  0  0  0  0
    1.5894   -0.9613   -5.1700 H   0  0  0  0  0  0  0  0  0  0  0  0
   -0.0511   -0.7325   -6.9467 H   0  0  0  0  0  0  0  0  0  0  0  0
   -2.4677   -0.5877   -6.4103 H   0  0  0  0  0  0  0  0  0  0  0  0
   -3.2174   -0.6679   -4.0890 H   0  0  0  0  0  0  0  0  0  0  0  0
   -1.2123    2.0407   -2.6114 H   0  0  0  0  0  0  0  0  0  0  0  0
   -2.1728    3.5467   -2.4593 H   0  0  0  0  0  0  0  0  0  0  0  0
   -0.4529    3.5173   -2.0763 H   0  0  0  0  0  0  0  0  0  0  0  0
   -0.2392    3.9959    0.1519 H   0  0  0  0  0  0  0  0  0  0  0  0
  1  2  1  0
  2  3  2  0
  3  4  1  0
  4  5  2  0
  5  6  1  0
  6  7  2  0
  6  8  2  0
  6  9  1  0
  9 10  1  0
 10 11  2  0
 11 12  1  0
 12 13  1  0
 13 14  1  0
 14 15  2  0
 14 16  1  0
 16 17  1  0
 17 18  1  0
 17 19  1  0
 13 20  1  0
 20 21  2  0
 20 22  1  0
 22 23  1  0
 22 24  1  0
 22 25  1  0
 12 26  2  0
 26 27  1  0
 26 28  1  0
 28 29  2  0
 29 30  1  0
 30 31  2  0
 31 32  1  0
 32 33  2  0
  5 34  1  0
 34 35  1  0
 34 36  2  0
 36  2  1  0
 33 10  1  0
 33 28  1  0
  1 37  1  0
  1 38  1  0
  1 39  1  0
  3 40  1  0
  4 41  1  0
  9 42  1  0
 11 43  1  0
 13 44  1  0
 17 45  1  0
 18 46  1  0
 18 47  1  0
 18 48  1  0
 19 49  1  0
 19 50  1  0
 19 51  1  0
 27 52  1  0
 29 53  1  0
 30 54  1  0
 31 55  1  0
 32 56  1  0
 35 57  1  0
 35 58  1  0
 35 59  1  0
 36 60  1  0
M  END
$$$$
