
     RDKit          3D

 57 61  0  0  0  0  0  0  0  0999 V2000
   -5.8610   -2.2853   -1.7206 C   0  0  0  0  0  0  0  0  0  0  0  0
   -4.4083   -2.1522   -1.2530 C   0  0  0  0  0  0  0  0  0  0  0  0
   -4.1206   -3.2026   -0.1819 C   0  0  0  0  0  0  0  0  0  0  0  0
   -4.1409   -0.7421   -0.7146 C   0  0  0  0  0  0  0  0  0  0  0  0
   -5.0777    0.0191   -0.4586 O   0  0  0  0  0  0  0  0  0  0  0  0
   -2.8235   -0.3496   -0.4896 N   0  0  0  0  0  0  0  0  0  0  0  0
   -1.6288   -1.0966   -0.8727 C   0  0  0  0  0  0  0  0  0  0  0  0
   -0.5462   -0.1854   -1.4467 C   0  0  0  0  0  0  0  0  0  0  0  0
   -0.1566    0.9999   -0.5096 C   0  0  0  0  0  0  0  0  0  0  0  0
   -1.1997    1.1562    0.6255 C   0  0  0  0  0  0  0  0  0  0  0  0
   -2.6175    0.9721    0.0961 C   0  0  0  0  0  0  0  0  0  0  0  0
   -0.2664    2.1638   -1.3801 O   0  0  0  0  0  0  0  0  0  0  0  0
    0.3774    3.3071   -1.0087 C   0  0  0  0  0  0  0  0  0  0  0  0
    0.0442    4.4584   -1.7242 C   0  0  0  0  0  0  0  0  0  0  0  0
    0.6340    5.6803   -1.3949 C   0  0  0  0  0  0  0  0  0  0  0  0
    1.5546    5.7415   -0.3532 C   0  0  0  0  0  0  0  0  0  0  0  0
    2.1134    6.9166   -0.0376 F   0  0  0  0  0  0  0  0  0  0  0  0
    1.9042    4.6035    0.3613 C   0  0  0  0  0  0  0  0  0  0  0  0
    1.3166    3.3842    0.0165 C   0  0  0  0  0  0  0  0  0  0  0  0
    1.6729    2.1532    0.7332 C   0  0  0  0  0  0  0  0  0  0  0  0
    2.2271    2.2195    1.8268 O   0  0  0  0  0  0  0  0  0  0  0  0
    1.2921    0.8520    0.0381 C   0  0  0  0  0  0  0  0  0  0  0  0
    1.5250   -0.3506    0.9394 C   0  0  0  0  0  0  0  0  0  0  0  0
    2.8946   -0.7210    0.4796 C   0  0  0  0  0  0  0  0  0  0  0  0
    3.7460   -1.6762    1.2271 C   0  0  0  0  0  0  0  0  0  0  0  0
    3.2830   -2.3293    2.3752 C   0  0  0  0  0  0  0  0  0  0  0  0
    4.1127   -3.2282    3.0513 C   0  0  0  0  0  0  0  0  0  0  0  0
    5.4024   -3.4790    2.5849 C   0  0  0  0  0  0  0  0  0  0  0  0
    5.8677   -2.8326    1.4414 C   0  0  0  0  0  0  0  0  0  0  0  0
    5.0423   -1.9338    0.7632 C   0  0  0  0  0  0  0  0  0  0  0  0
    3.2551   -0.1746   -0.6381 N   0  0  0  0  0  0  0  0  0  0  0  0
    2.2092    0.6764   -1.0560 O   0  0  0  0  0  0  0  0  0  0  0  0
   -6.0954   -1.5318   -2.4805 H   0  0  0  0  0  0  0  0  0  0  0  0
   -6.5650   -2.1520   -0.8915 H   0  0  0  0  0  0  0  0  0  0  0  0
   -6.0388   -3.2725   -2.1602 H   0  0  0  0  0  0  0  0  0  0  0  0
   -3.7813   -2.3242   -2.1330 H   0  0  0  0  0  0  0  0  0  0  0  0
   -4.3410   -4.2087   -0.5543 H   0  0  0  0  0  0  0  0  0  0  0  0
   -4.7309   -3.0295    0.7117 H   0  0  0  0  0  0  0  0  0  0  0  0
   -3.0746   -3.1910    0.1348 H   0  0  0  0  0  0  0  0  0  0  0  0
   -1.2670   -1.6056    0.0268 H   0  0  0  0  0  0  0  0  0  0  0  0
   -1.8613   -1.8701   -1.6061 H   0  0  0  0  0  0  0  0  0  0  0  0
   -0.9101    0.2041   -2.4078 H   0  0  0  0  0  0  0  0  0  0  0  0
    0.3244   -0.8027   -1.6950 H   0  0  0  0  0  0  0  0  0  0  0  0
   -1.0212    0.4209    1.4192 H   0  0  0  0  0  0  0  0  0  0  0  0
   -1.1362    2.1478    1.0875 H   0  0  0  0  0  0  0  0  0  0  0  0
   -3.3348    1.1158    0.9128 H   0  0  0  0  0  0  0  0  0  0  0  0
   -2.8485    1.7172   -0.6747 H   0  0  0  0  0  0  0  0  0  0  0  0
   -0.6800    4.4066   -2.5338 H   0  0  0  0  0  0  0  0  0  0  0  0
    0.3803    6.5835   -1.9416 H   0  0  0  0  0  0  0  0  0  0  0  0
    2.6314    4.6725    1.1648 H   0  0  0  0  0  0  0  0  0  0  0  0
    0.8646   -1.1922    0.7176 H   0  0  0  0  0  0  0  0  0  0  0  0
    1.4793   -0.1251    2.0069 H   0  0  0  0  0  0  0  0  0  0  0  0
    2.2849   -2.1583    2.7656 H   0  0  0  0  0  0  0  0  0  0  0  0
    3.7538   -3.7328    3.9453 H   0  0  0  0  0  0  0  0  0  0  0  0
    6.0467   -4.1771    3.1139 H   0  0  0  0  0  0  0  0  0  0  0  0
    6.8737   -3.0252    1.0770 H   0  0  0  0  0  0  0  0  0  0  0  0
    5.4198   -1.4345   -0.1272 H   0  0  0  0  0  0  0  0  0  0  0  0
  1  2  1  0
  2  3  1  0
  2  4  1  0
  4  5  2  0
  4  6  1  0
  6  7  1  0
  7  8  1  0
  8  9  1  0
  9 10  1  0
 10 11  1  0
  9 12  1  0
 12 13  1  0
 13 14  2  0
 14 15  1  0
 15 16  2  0
 16 17  1  0
 16 18  1  0
 18 19  2  0
 19 20  1  0
 20 21  2  0
 20 22  1  0
 22 23  1  0
 23 24  1  0
 24 25  1  0
 25 26  2  0
 26 27  1  0
 27 28  2  0
 28 29  1  0
 29 30  2  0
 24 31  2  0
 31 32  1  0
 11  6  1  0
 19 13  1  0
 32 22  1  0
 22  9  1  0
 30 25  1  0
  1 33  1  0
  1 34  1  0
  1 35  1  0
  2 36  1  0
  3 37  1  0
  3 38  1  0
  3 39  1  0
  7 40  1  0
  7 41  1  0
  8 42  1  0
  8 43  1  0
 10 44  1  0
 10 45  1  0
 11 46  1  0
 11 47  1  0
 14 48  1  0
 15 49  1  0
 18 50  1  0
 23 51  1  0
 23 52  1  0
 26 53  1  0
 27 54  1  0
 28 55  1  0
 29 56  1  0
 30 57  1  0
M  END
$$$$
