
     RDKit          3D

 35 37  0  0  0  0  0  0  0  0999 V2000
    6.5558   -0.9830    1.1621 C   0  0  0  0  0  0  0  0  0  0  0  0
    5.1807   -0.4140    0.9634 C   0  0  0  0  0  0  0  0  0  0  0  0
    4.9951    0.9749    0.8884 C   0  0  0  0  0  0  0  0  0  0  0  0
    3.7232    1.5426    0.7360 C   0  0  0  0  0  0  0  0  0  0  0  0
    2.6475    0.6569    0.6718 C   0  0  0  0  0  0  0  0  0  0  0  0
    1.2968    0.8496    0.5360 N   0  0  0  0  0  0  0  0  0  0  0  0
    0.6766   -0.3818    0.5260 C   0  0  0  0  0  0  0  0  0  0  0  0
   -0.7397   -0.4521    0.4148 C   0  0  0  0  0  0  0  0  0  0  0  0
   -1.4621   -1.2078    1.3909 C   0  0  0  0  0  0  0  0  0  0  0  0
   -2.0768   -1.8025    2.1770 N   0  0  0  0  0  0  0  0  0  0  0  0
   -1.3479    0.1735   -0.6154 C   0  0  0  0  0  0  0  0  0  0  0  0
   -2.7936    0.2006   -0.8807 C   0  0  0  0  0  0  0  0  0  0  0  0
   -3.5268   -0.9787   -1.0930 C   0  0  0  0  0  0  0  0  0  0  0  0
   -4.9000   -0.9283   -1.3580 C   0  0  0  0  0  0  0  0  0  0  0  0
   -5.5316    0.3064   -1.4234 C   0  0  0  0  0  0  0  0  0  0  0  0
   -6.8696    0.4230   -1.6770 O   0  0  0  0  0  0  0  0  0  0  0  0
   -4.8043    1.4778   -1.2323 C   0  0  0  0  0  0  0  0  0  0  0  0
   -5.4308    2.6892   -1.3062 O   0  0  0  0  0  0  0  0  0  0  0  0
   -3.4424    1.4379   -0.9652 C   0  0  0  0  0  0  0  0  0  0  0  0
    1.5661   -1.3433    0.6759 N   0  0  0  0  0  0  0  0  0  0  0  0
    2.7881   -0.7215    0.7570 C   0  0  0  0  0  0  0  0  0  0  0  0
    4.0683   -1.2728    0.9110 C   0  0  0  0  0  0  0  0  0  0  0  0
    6.6334   -1.9816    0.7194 H   0  0  0  0  0  0  0  0  0  0  0  0
    7.3115   -0.3546    0.6792 H   0  0  0  0  0  0  0  0  0  0  0  0
    6.7812   -1.0510    2.2308 H   0  0  0  0  0  0  0  0  0  0  0  0
    5.8574    1.6376    0.9502 H   0  0  0  0  0  0  0  0  0  0  0  0
    3.5920    2.6175    0.6770 H   0  0  0  0  0  0  0  0  0  0  0  0
    0.8367    1.7458    0.4718 H   0  0  0  0  0  0  0  0  0  0  0  0
   -0.7650    0.7246   -1.3523 H   0  0  0  0  0  0  0  0  0  0  0  0
   -3.0376   -1.9507   -1.0546 H   0  0  0  0  0  0  0  0  0  0  0  0
   -5.4461   -1.8541   -1.5087 H   0  0  0  0  0  0  0  0  0  0  0  0
   -7.2429   -0.4728   -1.7483 H   0  0  0  0  0  0  0  0  0  0  0  0
   -6.3664    2.4695   -1.4908 H   0  0  0  0  0  0  0  0  0  0  0  0
   -2.9056    2.3707   -0.8197 H   0  0  0  0  0  0  0  0  0  0  0  0
    4.1789   -2.3494    0.9872 H   0  0  0  0  0  0  0  0  0  0  0  0
  1  2  1  0
  2  3  2  0
  3  4  1  0
  4  5  2  0
  5  6  1  0
  6  7  1  0
  7  8  1  0
  8  9  1  0
  9 10  3  0
  8 11  2  3
 11 12  1  0
 12 13  2  0
 13 14  1  0
 14 15  2  0
 15 16  1  0
 15 17  1  0
 17 18  1  0
 17 19  2  0
  7 20  2  0
 20 21  1  0
 21 22  2  0
 22  2  1  0
 21  5  1  0
 19 12  1  0
  1 23  1  0
  1 24  1  0
  1 25  1  0
  3 26  1  0
  4 27  1  0
  6 28  1  0
 11 29  1  0
 13 30  1  0
 14 31  1  0
 16 32  1  0
 18 33  1  0
 19 34  1  0
 22 35  1  0
M  END
$$$$
