
     RDKit          3D

 52 55  0  0  0  0  0  0  0  0999 V2000
    6.2817   -0.3011   -2.5974 C   0  0  0  0  0  0  0  0  0  0  0  0
    5.5840   -0.2027   -1.2938 C   0  0  0  0  0  0  0  0  0  0  0  0
    4.2070   -0.3574   -1.0241 C   0  0  0  0  0  0  0  0  0  0  0  0
    4.0618   -0.1798    0.3433 C   0  0  0  0  0  0  0  0  0  0  0  0
    2.8923   -0.2263    1.1924 C   0  0  0  0  0  0  0  0  0  0  0  0
    2.9420   -0.1639    2.4172 O   0  0  0  0  0  0  0  0  0  0  0  0
    1.6930   -0.3308    0.5253 N   0  0  0  0  0  0  0  0  0  0  0  0
    0.4298   -0.2680    1.2309 C   0  0  0  0  0  0  0  0  0  0  0  0
    0.0656    1.1967    1.5736 C   0  0  0  0  0  0  0  0  0  0  0  0
   -1.4422    1.4117    1.8975 C   0  0  0  0  0  0  0  0  0  0  0  0
   -1.8410    0.6292    3.1654 C   0  0  0  0  0  0  0  0  0  0  0  0
   -1.6821    2.9091    2.1689 C   0  0  0  0  0  0  0  0  0  0  0  0
   -2.3266    0.9749    0.6867 C   0  0  0  0  0  0  0  0  0  0  0  0
   -1.8537   -0.3169    0.1045 C   0  0  0  0  0  0  0  0  0  0  0  0
   -0.6165   -0.8807    0.3646 C   0  0  0  0  0  0  0  0  0  0  0  0
   -0.6551   -2.1277   -0.2673 C   0  0  0  0  0  0  0  0  0  0  0  0
   -1.7983   -2.3301   -0.9157 N   0  0  0  0  0  0  0  0  0  0  0  0
   -2.5332   -1.1942   -0.7323 N   0  0  0  0  0  0  0  0  0  0  0  0
   -3.7994   -1.0843   -1.3868 C   0  0  0  0  0  0  0  0  0  0  0  0
   -4.5124    0.1194   -1.4678 C   0  0  0  0  0  0  0  0  0  0  0  0
   -5.7501    0.1717   -2.1235 C   0  0  0  0  0  0  0  0  0  0  0  0
   -6.2821   -0.9730   -2.7099 C   0  0  0  0  0  0  0  0  0  0  0  0
   -5.5706   -2.1625   -2.6449 C   0  0  0  0  0  0  0  0  0  0  0  0
   -6.0781   -3.2638   -3.2139 F   0  0  0  0  0  0  0  0  0  0  0  0
   -4.3410   -2.2291   -1.9981 C   0  0  0  0  0  0  0  0  0  0  0  0
    5.3412    0.0539    0.7951 N   0  0  0  0  0  0  0  0  0  0  0  0
    5.7628    0.2948    2.1573 C   0  0  0  0  0  0  0  0  0  0  0  0
    6.2718    0.0567   -0.1804 N   0  0  0  0  0  0  0  0  0  0  0  0
    6.9221   -1.1888   -2.6213 H   0  0  0  0  0  0  0  0  0  0  0  0
    5.5662   -0.3757   -3.4228 H   0  0  0  0  0  0  0  0  0  0  0  0
    6.9057    0.5816   -2.7707 H   0  0  0  0  0  0  0  0  0  0  0  0
    3.4338   -0.5825   -1.7446 H   0  0  0  0  0  0  0  0  0  0  0  0
    1.6782   -0.1983   -0.4749 H   0  0  0  0  0  0  0  0  0  0  0  0
    0.5139   -0.8486    2.1579 H   0  0  0  0  0  0  0  0  0  0  0  0
    0.3321    1.8415    0.7229 H   0  0  0  0  0  0  0  0  0  0  0  0
    0.6879    1.5385    2.4109 H   0  0  0  0  0  0  0  0  0  0  0  0
   -2.8803    0.8384    3.4441 H   0  0  0  0  0  0  0  0  0  0  0  0
   -1.7540   -0.4534    3.0326 H   0  0  0  0  0  0  0  0  0  0  0  0
   -1.2078    0.9106    4.0142 H   0  0  0  0  0  0  0  0  0  0  0  0
   -2.7379    3.1073    2.3852 H   0  0  0  0  0  0  0  0  0  0  0  0
   -1.0936    3.2550    3.0262 H   0  0  0  0  0  0  0  0  0  0  0  0
   -1.3991    3.5199    1.3042 H   0  0  0  0  0  0  0  0  0  0  0  0
   -2.2657    1.7421   -0.0955 H   0  0  0  0  0  0  0  0  0  0  0  0
   -3.3690    0.8978    1.0155 H   0  0  0  0  0  0  0  0  0  0  0  0
    0.0987   -2.9054   -0.2759 H   0  0  0  0  0  0  0  0  0  0  0  0
   -4.1335    1.0514   -1.0698 H   0  0  0  0  0  0  0  0  0  0  0  0
   -6.2935    1.1121   -2.1838 H   0  0  0  0  0  0  0  0  0  0  0  0
   -7.2387   -0.9454   -3.2217 H   0  0  0  0  0  0  0  0  0  0  0  0
   -3.8272   -3.1873   -1.9736 H   0  0  0  0  0  0  0  0  0  0  0  0
    6.8376    0.4952    2.1750 H   0  0  0  0  0  0  0  0  0  0  0  0
    5.2256    1.1657    2.5406 H   0  0  0  0  0  0  0  0  0  0  0  0
    5.5475   -0.5978    2.7492 H   0  0  0  0  0  0  0  0  0  0  0  0
  1  2  1  0
  2  3  1  0
  3  4  2  0
  4  5  1  0
  5  6  2  0
  5  7  1  0
  7  8  1  0
  8  9  1  0
  9 10  1  0
 10 11  1  0
 10 12  1  0
 10 13  1  0
 13 14  1  0
 14 15  2  0
 15 16  1  0
 16 17  2  0
 17 18  1  0
 18 19  1  0
 19 20  2  0
 20 21  1  0
 21 22  2  0
 22 23  1  0
 23 24  1  0
 23 25  2  0
  4 26  1  0
 26 27  1  0
 26 28  1  0
 28  2  2  0
 15  8  1  0
 25 19  1  0
 18 14  1  0
  1 29  1  0
  1 30  1  0
  1 31  1  0
  3 32  1  0
  7 33  1  0
  8 34  1  0
  9 35  1  0
  9 36  1  0
 11 37  1  0
 11 38  1  0
 11 39  1  0
 12 40  1  0
 12 41  1  0
 12 42  1  0
 13 43  1  0
 13 44  1  0
 16 45  1  0
 20 46  1  0
 21 47  1  0
 22 48  1  0
 25 49  1  0
 27 50  1  0
 27 51  1  0
 27 52  1  0
M  END
$$$$
