
     RDKit          3D

 37 40  0  0  0  0  0  0  0  0999 V2000
   -4.5798    1.8459    1.3801 C   0  0  0  0  0  0  0  0  0  0  0  0
   -3.2440    1.8970    0.6601 C   0  0  0  0  0  0  0  0  0  0  0  0
   -2.8141    0.5821    0.3122 O   0  0  0  0  0  0  0  0  0  0  0  0
   -3.0885    0.1038   -0.9432 C   0  0  0  0  0  0  0  0  0  0  0  0
   -4.0197    0.6604   -1.8247 C   0  0  0  0  0  0  0  0  0  0  0  0
   -4.2407    0.0841   -3.0794 C   0  0  0  0  0  0  0  0  0  0  0  0
   -3.5404   -1.0567   -3.4619 C   0  0  0  0  0  0  0  0  0  0  0  0
   -2.6168   -1.6282   -2.5890 C   0  0  0  0  0  0  0  0  0  0  0  0
   -2.3859   -1.0552   -1.3307 C   0  0  0  0  0  0  0  0  0  0  0  0
   -1.4003   -1.6935   -0.4473 C   0  0  0  0  0  0  0  0  0  0  0  0
   -0.1549   -1.2465   -0.2361 C   0  0  0  0  0  0  0  0  0  0  0  0
    0.6035    0.1572   -0.9679 S   0  0  0  0  0  0  0  0  0  0  0  0
    2.0283   -0.1559   -0.0678 C   0  0  0  0  0  0  0  0  0  0  0  0
    3.1979    0.4051    0.0401 N   0  0  0  0  0  0  0  0  0  0  0  0
    3.8191   -0.4327    0.9575 C   0  0  0  0  0  0  0  0  0  0  0  0
    5.2858   -0.1872    1.4408 C   0  0  0  0  0  0  0  0  0  0  0  0
    6.1001    0.8503    1.0281 C   0  0  0  0  0  0  0  0  0  0  0  0
    7.3333    0.6960    1.7069 C   0  0  0  0  0  0  0  0  0  0  0  0
    7.1974   -0.4243    2.4915 C   0  0  0  0  0  0  0  0  0  0  0  0
    5.9626   -0.9663    2.3381 O   0  0  0  0  0  0  0  0  0  0  0  0
    3.0690   -1.4649    1.3943 N   0  0  0  0  0  0  0  0  0  0  0  0
    1.9306   -1.2484    0.7155 N   0  0  0  0  0  0  0  0  0  0  0  0
    0.7521   -1.9630    0.7110 C   0  0  0  0  0  0  0  0  0  0  0  0
    0.5573   -2.9710    1.3654 O   0  0  0  0  0  0  0  0  0  0  0  0
   -4.5157    1.1961    2.2593 H   0  0  0  0  0  0  0  0  0  0  0  0
   -4.8831    2.8456    1.7040 H   0  0  0  0  0  0  0  0  0  0  0  0
   -5.3645    1.4332    0.7393 H   0  0  0  0  0  0  0  0  0  0  0  0
   -3.2553    2.5817   -0.1952 H   0  0  0  0  0  0  0  0  0  0  0  0
   -2.4930    2.2950    1.3522 H   0  0  0  0  0  0  0  0  0  0  0  0
   -4.6039    1.5360   -1.5638 H   0  0  0  0  0  0  0  0  0  0  0  0
   -4.9677    0.5258   -3.7570 H   0  0  0  0  0  0  0  0  0  0  0  0
   -3.7167   -1.5032   -4.4373 H   0  0  0  0  0  0  0  0  0  0  0  0
   -2.0785   -2.5217   -2.8972 H   0  0  0  0  0  0  0  0  0  0  0  0
   -1.7622   -2.5822    0.0670 H   0  0  0  0  0  0  0  0  0  0  0  0
    5.8269    1.6214    0.3207 H   0  0  0  0  0  0  0  0  0  0  0  0
    8.2112    1.3223    1.6338 H   0  0  0  0  0  0  0  0  0  0  0  0
    7.8506   -0.9418    3.1804 H   0  0  0  0  0  0  0  0  0  0  0  0
  1  2  1  0
  2  3  1  0
  3  4  1  0
  4  5  2  0
  5  6  1  0
  6  7  2  0
  7  8  1  0
  8  9  2  0
  9 10  1  0
 10 11  2  3
 11 12  1  0
 12 13  1  0
 13 14  2  0
 14 15  1  0
 15 16  1  0
 16 17  2  0
 17 18  1  0
 18 19  2  0
 19 20  1  0
 15 21  2  0
 21 22  1  0
 22 23  1  0
 23 24  2  0
  9  4  1  0
 23 11  1  0
 22 13  1  0
 20 16  1  0
  1 25  1  0
  1 26  1  0
  1 27  1  0
  2 28  1  0
  2 29  1  0
  5 30  1  0
  6 31  1  0
  7 32  1  0
  8 33  1  0
 10 34  1  0
 17 35  1  0
 18 36  1  0
 19 37  1  0
M  END
$$$$
