
     RDKit          3D

 46 48  0  0  0  0  0  0  0  0999 V2000
    0.8445    0.4319   -2.3702 C   0  0  0  0  0  0  0  0  0  0  0  0
    1.6305    0.8584   -1.1465 C   0  0  0  0  0  0  0  0  0  0  0  0
    3.1019    0.5917   -1.1059 C   0  0  0  0  0  0  0  0  0  0  0  0
    3.7585   -0.1694   -1.9937 C   0  0  0  0  0  0  0  0  0  0  0  0
    5.2057   -0.4182   -1.9268 C   0  0  0  0  0  0  0  0  0  0  0  0
    5.9427   -0.4559   -3.1178 C   0  0  0  0  0  0  0  0  0  0  0  0
    7.3153   -0.7155   -3.0968 C   0  0  0  0  0  0  0  0  0  0  0  0
    7.9621   -0.9524   -1.8858 C   0  0  0  0  0  0  0  0  0  0  0  0
    7.2368   -0.9344   -0.6963 C   0  0  0  0  0  0  0  0  0  0  0  0
    5.8642   -0.6736   -0.7166 C   0  0  0  0  0  0  0  0  0  0  0  0
    1.1330    1.4842   -0.1118 N   0  0  0  0  0  0  0  0  0  0  0  0
   -0.2227    1.6544   -0.0214 N   0  0  0  0  0  0  0  0  0  0  0  0
   -1.0740    0.5654    0.1273 C   0  0  0  0  0  0  0  0  0  0  0  0
   -0.8139   -0.6050   -0.1198 O   0  0  0  0  0  0  0  0  0  0  0  0
   -2.4353    0.9363    0.5964 C   0  0  0  0  0  0  0  0  0  0  0  0
   -2.6647    1.7636    1.8346 C   0  0  0  0  0  0  0  0  0  0  0  0
   -3.0333    0.2927    1.8525 C   0  0  0  0  0  0  0  0  0  0  0  0
   -2.1800   -0.6202    2.7048 C   0  0  0  0  0  0  0  0  0  0  0  0
   -4.5041   -0.1007    1.7972 C   0  0  0  0  0  0  0  0  0  0  0  0
   -5.4431    0.4264    2.7001 C   0  0  0  0  0  0  0  0  0  0  0  0
   -6.7897    0.0564    2.6499 C   0  0  0  0  0  0  0  0  0  0  0  0
   -7.2251   -0.8578    1.6949 C   0  0  0  0  0  0  0  0  0  0  0  0
   -6.3143   -1.4042    0.7956 C   0  0  0  0  0  0  0  0  0  0  0  0
   -4.9694   -1.0302    0.8506 C   0  0  0  0  0  0  0  0  0  0  0  0
   -0.1071    0.9624   -2.4482 H   0  0  0  0  0  0  0  0  0  0  0  0
    0.6596   -0.6450   -2.3318 H   0  0  0  0  0  0  0  0  0  0  0  0
    1.4068    0.6663   -3.2792 H   0  0  0  0  0  0  0  0  0  0  0  0
    3.6157    1.0641   -0.2735 H   0  0  0  0  0  0  0  0  0  0  0  0
    3.2484   -0.6441   -2.8265 H   0  0  0  0  0  0  0  0  0  0  0  0
    5.4562   -0.2745   -4.0736 H   0  0  0  0  0  0  0  0  0  0  0  0
    7.8782   -0.7345   -4.0265 H   0  0  0  0  0  0  0  0  0  0  0  0
    9.0296   -1.1563   -1.8692 H   0  0  0  0  0  0  0  0  0  0  0  0
    7.7372   -1.1296    0.2488 H   0  0  0  0  0  0  0  0  0  0  0  0
    5.3156   -0.6846    0.2223 H   0  0  0  0  0  0  0  0  0  0  0  0
   -0.4855    2.4806    0.5059 H   0  0  0  0  0  0  0  0  0  0  0  0
   -3.1190    1.1049   -0.2313 H   0  0  0  0  0  0  0  0  0  0  0  0
   -1.8158    2.0764    2.4329 H   0  0  0  0  0  0  0  0  0  0  0  0
   -3.4592    2.5018    1.8000 H   0  0  0  0  0  0  0  0  0  0  0  0
   -2.5862   -0.6846    3.7201 H   0  0  0  0  0  0  0  0  0  0  0  0
   -2.1549   -1.6296    2.2807 H   0  0  0  0  0  0  0  0  0  0  0  0
   -1.1477   -0.2637    2.7893 H   0  0  0  0  0  0  0  0  0  0  0  0
   -5.1187    1.1352    3.4588 H   0  0  0  0  0  0  0  0  0  0  0  0
   -7.4954    0.4798    3.3595 H   0  0  0  0  0  0  0  0  0  0  0  0
   -8.2711   -1.1491    1.6556 H   0  0  0  0  0  0  0  0  0  0  0  0
   -6.6459   -2.1255    0.0534 H   0  0  0  0  0  0  0  0  0  0  0  0
   -4.2666   -1.4745    0.1473 H   0  0  0  0  0  0  0  0  0  0  0  0
  1  2  1  0
  2  3  1  0
  3  4  2  3
  4  5  1  0
  5  6  2  0
  6  7  1  0
  7  8  2  0
  8  9  1  0
  9 10  2  0
  2 11  2  3
 11 12  1  0
 12 13  1  0
 13 14  2  0
 13 15  1  0
 15 16  1  0
 16 17  1  0
 17 18  1  0
 17 19  1  0
 19 20  2  0
 20 21  1  0
 21 22  2  0
 22 23  1  0
 23 24  2  0
 10  5  1  0
 17 15  1  0
 24 19  1  0
  1 25  1  0
  1 26  1  0
  1 27  1  0
  3 28  1  0
  4 29  1  0
  6 30  1  0
  7 31  1  0
  8 32  1  0
  9 33  1  0
 10 34  1  0
 12 35  1  0
 15 36  1  0
 16 37  1  0
 16 38  1  0
 18 39  1  0
 18 40  1  0
 18 41  1  0
 20 42  1  0
 21 43  1  0
 22 44  1  0
 23 45  1  0
 24 46  1  0
M  END
$$$$
