
     RDKit          3D

 55 58  0  0  0  0  0  0  0  0999 V2000
    1.8084   -3.7722    2.4228 C   0  0  0  0  0  0  0  0  0  0  0  0
    2.4225   -2.6320    3.2187 C   0  0  0  0  0  0  0  0  0  0  0  0
    3.3704   -1.9243    2.4031 O   0  0  0  0  0  0  0  0  0  0  0  0
    2.8734   -0.8989    1.6672 C   0  0  0  0  0  0  0  0  0  0  0  0
    1.7032   -0.5407    1.6394 O   0  0  0  0  0  0  0  0  0  0  0  0
    3.9437   -0.2603    0.8392 C   0  0  0  0  0  0  0  0  0  0  0  0
    5.2943   -0.5839    1.0695 C   0  0  0  0  0  0  0  0  0  0  0  0
    6.2988   -0.0227    0.2877 C   0  0  0  0  0  0  0  0  0  0  0  0
    5.9647    0.8605   -0.7336 C   0  0  0  0  0  0  0  0  0  0  0  0
    4.6274    1.1876   -0.9782 C   0  0  0  0  0  0  0  0  0  0  0  0
    3.6010    0.6436   -0.1975 C   0  0  0  0  0  0  0  0  0  0  0  0
    2.2410    0.9901   -0.4044 N   0  0  0  0  0  0  0  0  0  0  0  0
    1.6793    1.6331   -1.4910 C   0  0  0  0  0  0  0  0  0  0  0  0
    2.2749    2.0219   -2.4909 O   0  0  0  0  0  0  0  0  0  0  0  0
    0.1943    1.8282   -1.3759 C   0  0  0  0  0  0  0  0  0  0  0  0
   -0.5562    0.7597   -1.0509 C   0  0  0  0  0  0  0  0  0  0  0  0
   -1.9483    0.7705   -0.9410 N   0  0  0  0  0  0  0  0  0  0  0  0
   -2.6655   -0.4364   -0.5640 C   0  0  0  0  0  0  0  0  0  0  0  0
   -3.9178   -0.3911    0.0685 C   0  0  0  0  0  0  0  0  0  0  0  0
   -4.5992   -1.5602    0.4493 C   0  0  0  0  0  0  0  0  0  0  0  0
   -4.0364   -2.8109    0.2145 C   0  0  0  0  0  0  0  0  0  0  0  0
   -4.5781   -4.0176    0.5546 O   0  0  0  0  0  0  0  0  0  0  0  0
   -5.9360   -4.0133    0.9736 C   0  0  0  0  0  0  0  0  0  0  0  0
   -2.7941   -2.8790   -0.4095 C   0  0  0  0  0  0  0  0  0  0  0  0
   -2.1213   -1.7128   -0.7985 C   0  0  0  0  0  0  0  0  0  0  0  0
   -2.6665    1.9627   -1.2252 C   0  0  0  0  0  0  0  0  0  0  0  0
   -3.8919    2.0851   -1.2330 O   0  0  0  0  0  0  0  0  0  0  0  0
   -1.8708    3.1721   -1.5891 C   0  0  0  0  0  0  0  0  0  0  0  0
   -2.5438    4.3817   -1.8518 C   0  0  0  0  0  0  0  0  0  0  0  0
   -1.8280    5.5283   -2.1936 C   0  0  0  0  0  0  0  0  0  0  0  0
   -0.4401    5.4708   -2.2728 C   0  0  0  0  0  0  0  0  0  0  0  0
    0.2325    4.2650   -2.0153 C   0  0  0  0  0  0  0  0  0  0  0  0
   -0.4735    3.1014   -1.6721 C   0  0  0  0  0  0  0  0  0  0  0  0
    1.1229   -4.3565    3.0454 H   0  0  0  0  0  0  0  0  0  0  0  0
    1.2601   -3.3788    1.5538 H   0  0  0  0  0  0  0  0  0  0  0  0
    2.5976   -4.4272    2.0330 H   0  0  0  0  0  0  0  0  0  0  0  0
    1.6513   -1.9621    3.6188 H   0  0  0  0  0  0  0  0  0  0  0  0
    2.9756   -3.0319    4.0758 H   0  0  0  0  0  0  0  0  0  0  0  0
    5.5788   -1.2756    1.8595 H   0  0  0  0  0  0  0  0  0  0  0  0
    7.3404   -0.2740    0.4755 H   0  0  0  0  0  0  0  0  0  0  0  0
    6.7454    1.3143   -1.3366 H   0  0  0  0  0  0  0  0  0  0  0  0
    4.4230    1.8994   -1.7744 H   0  0  0  0  0  0  0  0  0  0  0  0
    1.6067    0.6626    0.3310 H   0  0  0  0  0  0  0  0  0  0  0  0
   -0.0678   -0.1833   -0.8282 H   0  0  0  0  0  0  0  0  0  0  0  0
   -4.3880    0.5574    0.3235 H   0  0  0  0  0  0  0  0  0  0  0  0
   -5.5599   -1.4449    0.9424 H   0  0  0  0  0  0  0  0  0  0  0  0
   -6.0578   -3.4569    1.9134 H   0  0  0  0  0  0  0  0  0  0  0  0
   -6.2341   -5.0536    1.1608 H   0  0  0  0  0  0  0  0  0  0  0  0
   -6.5874   -3.6116    0.1883 H   0  0  0  0  0  0  0  0  0  0  0  0
   -2.3490   -3.8520   -0.6121 H   0  0  0  0  0  0  0  0  0  0  0  0
   -1.1828   -1.8480   -1.3285 H   0  0  0  0  0  0  0  0  0  0  0  0
   -3.6300    4.4310   -1.7913 H   0  0  0  0  0  0  0  0  0  0  0  0
   -2.3537    6.4632   -2.3947 H   0  0  0  0  0  0  0  0  0  0  0  0
    0.1265    6.3599   -2.5411 H   0  0  0  0  0  0  0  0  0  0  0  0
    1.3198    4.2623   -2.0926 H   0  0  0  0  0  0  0  0  0  0  0  0
  1  2  1  0
  2  3  1  0
  3  4  1  0
  4  5  2  0
  4  6  1  0
  6  7  2  0
  7  8  1  0
  8  9  2  0
  9 10  1  0
 10 11  2  0
 11 12  1  0
 12 13  1  0
 13 14  2  0
 13 15  1  0
 15 16  2  0
 16 17  1  0
 17 18  1  0
 18 19  2  0
 19 20  1  0
 20 21  2  0
 21 22  1  0
 22 23  1  0
 21 24  1  0
 24 25  2  0
 17 26  1  0
 26 27  2  0
 26 28  1  0
 28 29  2  0
 29 30  1  0
 30 31  2  0
 31 32  1  0
 32 33  2  0
 11  6  1  0
 33 15  1  0
 25 18  1  0
 33 28  1  0
  1 34  1  0
  1 35  1  0
  1 36  1  0
  2 37  1  0
  2 38  1  0
  7 39  1  0
  8 40  1  0
  9 41  1  0
 10 42  1  0
 12 43  1  0
 16 44  1  0
 19 45  1  0
 20 46  1  0
 23 47  1  0
 23 48  1  0
 23 49  1  0
 24 50  1  0
 25 51  1  0
 29 52  1  0
 30 53  1  0
 31 54  1  0
 32 55  1  0
M  END
$$$$
