
     RDKit          3D

 50 53  0  0  0  0  0  0  0  0999 V2000
    6.9911   -2.0129   -0.0747 C   0  0  0  0  0  0  0  0  0  0  0  0
    5.7232   -1.2258    0.0831 C   0  0  0  0  0  0  0  0  0  0  0  0
    5.2536   -0.4389   -0.9679 C   0  0  0  0  0  0  0  0  0  0  0  0
    4.0677    0.2906   -0.8366 C   0  0  0  0  0  0  0  0  0  0  0  0
    3.3200    0.2482    0.3463 C   0  0  0  0  0  0  0  0  0  0  0  0
    2.1221    0.9877    0.5167 N   0  0  0  0  0  0  0  0  0  0  0  0
    1.4644    1.7561   -0.4287 C   0  0  0  0  0  0  0  0  0  0  0  0
    1.7556    1.8731   -1.6159 O   0  0  0  0  0  0  0  0  0  0  0  0
    0.2033    2.4408    0.1042 C   0  0  0  0  0  0  0  0  0  0  0  0
   -0.9886    1.6091   -0.1175 N   0  0  0  0  0  4  0  0  0  0  0  0
   -1.9387    1.2366    0.8330 C   0  0  0  0  0  0  0  0  0  0  0  0
   -2.9211    0.4695    0.2174 C   0  0  0  0  0  0  0  0  0  0  0  0
   -4.1699   -0.1803    0.9164 C   0  0  0  0  0  0  0  0  0  0  0  0
   -5.0421   -1.0027    0.1992 C   0  0  0  0  0  0  0  0  0  0  0  0
   -6.1523   -1.5702    0.8321 C   0  0  0  0  0  0  0  0  0  0  0  0
   -6.3944   -1.3206    2.1807 C   0  0  0  0  0  0  0  0  0  0  0  0
   -5.5255   -0.5059    2.9021 C   0  0  0  0  0  0  0  0  0  0  0  0
   -4.4140    0.0628    2.2744 C   0  0  0  0  0  0  0  0  0  0  0  0
   -2.5198    0.4455   -1.1053 N   0  0  0  0  0  0  0  0  0  0  0  0
   -1.3799    1.1088   -1.2895 C   0  0  0  0  0  0  0  0  0  0  0  0
   -0.9354    1.1122   -2.7045 C   0  0  0  0  0  0  0  0  0  0  0  0
   -2.1961    0.6194   -3.4412 C   0  0  0  0  0  0  0  0  0  0  0  0
   -3.0402   -0.0972   -2.3542 C   0  0  0  0  0  0  0  0  0  0  0  0
    3.7849   -0.5500    1.4153 C   0  0  0  0  0  0  0  0  0  0  0  0
    3.0643   -0.6482    2.7340 C   0  0  0  0  0  0  0  0  0  0  0  0
    4.9786   -1.2829    1.2648 C   0  0  0  0  0  0  0  0  0  0  0  0
    6.8411   -2.8270   -0.7908 H   0  0  0  0  0  0  0  0  0  0  0  0
    7.3138   -2.4475    0.8761 H   0  0  0  0  0  0  0  0  0  0  0  0
    7.7980   -1.3656   -0.4319 H   0  0  0  0  0  0  0  0  0  0  0  0
    5.8130   -0.3808   -1.9005 H   0  0  0  0  0  0  0  0  0  0  0  0
    3.7708    0.8939   -1.6882 H   0  0  0  0  0  0  0  0  0  0  0  0
    1.7030    0.9156    1.4333 H   0  0  0  0  0  0  0  0  0  0  0  0
    0.0645    3.3935   -0.4192 H   0  0  0  0  0  0  0  0  0  0  0  0
    0.3087    2.6562    1.1734 H   0  0  0  0  0  0  0  0  0  0  0  0
   -1.7927    1.5640    1.8488 H   0  0  0  0  0  0  0  0  0  0  0  0
   -4.8875   -1.2380   -0.8461 H   0  0  0  0  0  0  0  0  0  0  0  0
   -6.8332   -2.2105    0.2735 H   0  0  0  0  0  0  0  0  0  0  0  0
   -7.2608   -1.7622    2.6697 H   0  0  0  0  0  0  0  0  0  0  0  0
   -5.7178   -0.3137    3.9563 H   0  0  0  0  0  0  0  0  0  0  0  0
   -3.7657    0.6946    2.8750 H   0  0  0  0  0  0  0  0  0  0  0  0
   -0.1134    0.3978   -2.7787 H   0  0  0  0  0  0  0  0  0  0  0  0
   -0.6383    2.1234   -2.9854 H   0  0  0  0  0  0  0  0  0  0  0  0
   -2.7557    1.4858   -3.8133 H   0  0  0  0  0  0  0  0  0  0  0  0
   -1.9680   -0.0248   -4.2945 H   0  0  0  0  0  0  0  0  0  0  0  0
   -2.8688   -1.1778   -2.3669 H   0  0  0  0  0  0  0  0  0  0  0  0
   -4.1023    0.1319   -2.4705 H   0  0  0  0  0  0  0  0  0  0  0  0
    3.5573   -1.3496    3.4169 H   0  0  0  0  0  0  0  0  0  0  0  0
    3.0443    0.3292    3.2255 H   0  0  0  0  0  0  0  0  0  0  0  0
    2.0407   -1.0077    2.5857 H   0  0  0  0  0  0  0  0  0  0  0  0
    5.3379   -1.9053    2.0852 H   0  0  0  0  0  0  0  0  0  0  0  0
  1  2  1  0
  2  3  2  0
  3  4  1  0
  4  5  2  0
  5  6  1  0
  6  7  1  0
  7  8  2  0
  7  9  1  0
  9 10  1  0
 10 11  1  0
 11 12  2  0
 12 13  1  0
 13 14  2  0
 14 15  1  0
 15 16  2  0
 16 17  1  0
 17 18  2  0
 12 19  1  0
 19 20  1  0
 20 21  1  0
 21 22  1  0
 22 23  1  0
  5 24  1  0
 24 25  1  0
 24 26  2  0
 26  2  1  0
 20 10  2  0
 18 13  1  0
 23 19  1  0
  1 27  1  0
  1 28  1  0
  1 29  1  0
  3 30  1  0
  4 31  1  0
  6 32  1  0
  9 33  1  0
  9 34  1  0
 11 35  1  0
 14 36  1  0
 15 37  1  0
 16 38  1  0
 17 39  1  0
 18 40  1  0
 21 41  1  0
 21 42  1  0
 22 43  1  0
 22 44  1  0
 23 45  1  0
 23 46  1  0
 25 47  1  0
 25 48  1  0
 25 49  1  0
 26 50  1  0
M  CHG  1  10   1
M  END
$$$$
