
     RDKit          3D

 23 24  0  0  0  0  0  0  0  0999 V2000
    0.0762    1.7934   -1.4856 O   0  0  0  0  0  0  0  0  0  0  0  0
    1.1526    1.3713   -1.1133 C   0  0  0  0  0  0  0  0  0  0  0  0
    2.3537    1.7198   -1.6620 O   0  0  0  0  0  0  0  0  0  0  0  0
    3.3935    0.9281   -1.0886 C   0  0  0  0  0  0  0  0  0  0  0  0
    2.8938    0.5085    0.2685 C   0  0  0  0  0  0  0  0  0  0  0  0
    1.4312    0.4443    0.0153 C   0  0  0  0  0  0  0  0  0  0  0  0
    0.5786   -0.3592    0.6695 C   0  0  0  0  0  0  0  0  0  0  0  0
   -0.8624   -0.5020    0.4430 C   0  0  0  0  0  0  0  0  0  0  0  0
   -1.3780   -1.7623    0.1163 C   0  0  0  0  0  0  0  0  0  0  0  0
   -2.7519   -1.9407   -0.0623 C   0  0  0  0  0  0  0  0  0  0  0  0
   -3.6209   -0.8626    0.0931 C   0  0  0  0  0  0  0  0  0  0  0  0
   -3.1174    0.3925    0.4296 C   0  0  0  0  0  0  0  0  0  0  0  0
   -1.7438    0.5710    0.6104 C   0  0  0  0  0  0  0  0  0  0  0  0
    3.5863    0.0731   -1.7470 H   0  0  0  0  0  0  0  0  0  0  0  0
    4.3086    1.5236   -1.0160 H   0  0  0  0  0  0  0  0  0  0  0  0
    3.1030    1.2837    1.0143 H   0  0  0  0  0  0  0  0  0  0  0  0
    3.3407   -0.4338    0.5969 H   0  0  0  0  0  0  0  0  0  0  0  0
    0.9638   -1.0123    1.4507 H   0  0  0  0  0  0  0  0  0  0  0  0
   -0.7146   -2.6145   -0.0090 H   0  0  0  0  0  0  0  0  0  0  0  0
   -3.1431   -2.9198   -0.3253 H   0  0  0  0  0  0  0  0  0  0  0  0
   -4.6894   -0.9982   -0.0515 H   0  0  0  0  0  0  0  0  0  0  0  0
   -3.7912    1.2372    0.5455 H   0  0  0  0  0  0  0  0  0  0  0  0
   -1.3694    1.5588    0.8684 H   0  0  0  0  0  0  0  0  0  0  0  0
  1  2  2  0
  2  3  1  0
  3  4  1  0
  4  5  1  0
  5  6  1  0
  6  7  2  3
  7  8  1  0
  8  9  2  0
  9 10  1  0
 10 11  2  0
 11 12  1  0
 12 13  2  0
  6  2  1  0
 13  8  1  0
  4 14  1  0
  4 15  1  0
  5 16  1  0
  5 17  1  0
  7 18  1  0
  9 19  1  0
 10 20  1  0
 11 21  1  0
 12 22  1  0
 13 23  1  0
M  END
$$$$
