
     RDKit          3D

 53 52  0  0  0  0  0  0  0  0999 V2000
   -7.3601    2.0269    0.2155 C   0  0  0  0  0  0  0  0  0  0  0  0
   -5.9179    2.3702    0.5962 C   0  0  0  0  0  0  0  0  0  0  0  0
   -5.5416    3.7345    0.0164 C   0  0  0  0  0  0  0  0  0  0  0  0
   -4.9728    1.2516    0.1229 C   0  0  0  0  0  0  0  0  0  0  0  0
   -3.5277    1.4410    0.5853 C   0  0  0  0  0  0  0  0  0  0  0  0
   -2.7081    0.2937    0.2470 N   0  0  0  0  0  0  0  0  0  0  0  0
   -2.1691    0.1343   -1.0127 C   0  0  0  0  0  0  0  0  0  0  0  0
   -2.2645    0.9727   -1.9015 O   0  0  0  0  0  0  0  0  0  0  0  0
   -1.4068   -1.1638   -1.1683 C   0  0  0  0  0  0  0  0  0  0  0  0
   -1.0266   -1.4032   -2.6235 C   0  0  0  0  0  0  0  0  0  0  0  0
   -0.0230   -2.9219   -2.7601 S   0  0  0  0  0  0  0  0  0  0  0  0
    1.5910   -2.2125   -3.2577 C   0  0  0  0  0  0  0  0  0  0  0  0
    2.2453   -1.3343   -2.1979 C   0  0  0  0  0  0  0  0  0  0  0  0
    2.8319   -2.1215   -1.0429 C   0  0  0  0  0  0  0  0  0  0  0  0
    3.1445   -3.3039   -1.1151 O   0  0  0  0  0  0  0  0  0  0  0  0
    3.0490   -1.3470    0.0808 N   0  0  0  0  0  0  0  0  0  0  0  0
    3.5228   -1.9464    1.3119 C   0  0  0  0  0  0  0  0  0  0  0  0
    4.1161   -0.9114    2.2668 C   0  0  0  0  0  0  0  0  0  0  0  0
    5.3467   -0.1600    1.7213 C   0  0  0  0  0  0  0  0  0  0  0  0
    5.7955    0.8986    2.7322 C   0  0  0  0  0  0  0  0  0  0  0  0
    6.5116   -1.0989    1.4053 C   0  0  0  0  0  0  0  0  0  0  0  0
   -7.6623    1.0711    0.6566 H   0  0  0  0  0  0  0  0  0  0  0  0
   -7.4776    1.9518   -0.8711 H   0  0  0  0  0  0  0  0  0  0  0  0
   -8.0521    2.7940    0.5791 H   0  0  0  0  0  0  0  0  0  0  0  0
   -5.8660    2.4355    1.6904 H   0  0  0  0  0  0  0  0  0  0  0  0
   -5.5105    3.7062   -1.0779 H   0  0  0  0  0  0  0  0  0  0  0  0
   -6.2696    4.4972    0.3138 H   0  0  0  0  0  0  0  0  0  0  0  0
   -4.5630    4.0645    0.3775 H   0  0  0  0  0  0  0  0  0  0  0  0
   -5.0035    1.1752   -0.9716 H   0  0  0  0  0  0  0  0  0  0  0  0
   -5.3394    0.2893    0.5049 H   0  0  0  0  0  0  0  0  0  0  0  0
   -3.0826    2.3303    0.1282 H   0  0  0  0  0  0  0  0  0  0  0  0
   -3.4838    1.5537    1.6736 H   0  0  0  0  0  0  0  0  0  0  0  0
   -2.7077   -0.4948    0.8819 H   0  0  0  0  0  0  0  0  0  0  0  0
   -0.5145   -1.0975   -0.5343 H   0  0  0  0  0  0  0  0  0  0  0  0
   -2.0351   -1.9840   -0.8001 H   0  0  0  0  0  0  0  0  0  0  0  0
   -1.9312   -1.5447   -3.2252 H   0  0  0  0  0  0  0  0  0  0  0  0
   -0.4921   -0.5488   -3.0510 H   0  0  0  0  0  0  0  0  0  0  0  0
    2.2459   -3.0480   -3.5266 H   0  0  0  0  0  0  0  0  0  0  0  0
    1.4293   -1.6315   -4.1722 H   0  0  0  0  0  0  0  0  0  0  0  0
    3.0860   -0.8015   -2.6604 H   0  0  0  0  0  0  0  0  0  0  0  0
    1.5541   -0.5717   -1.8255 H   0  0  0  0  0  0  0  0  0  0  0  0
    2.5789   -0.4533    0.1410 H   0  0  0  0  0  0  0  0  0  0  0  0
    4.2421   -2.7401    1.0857 H   0  0  0  0  0  0  0  0  0  0  0  0
    2.6571   -2.4250    1.7841 H   0  0  0  0  0  0  0  0  0  0  0  0
    3.3373   -0.1790    2.5173 H   0  0  0  0  0  0  0  0  0  0  0  0
    4.3826   -1.4165    3.2040 H   0  0  0  0  0  0  0  0  0  0  0  0
    5.0675    0.3618    0.7978 H   0  0  0  0  0  0  0  0  0  0  0  0
    4.9858    1.6061    2.9401 H   0  0  0  0  0  0  0  0  0  0  0  0
    6.6456    1.4706    2.3453 H   0  0  0  0  0  0  0  0  0  0  0  0
    6.0984    0.4407    3.6800 H   0  0  0  0  0  0  0  0  0  0  0  0
    6.2616   -1.7827    0.5884 H   0  0  0  0  0  0  0  0  0  0  0  0
    7.3941   -0.5307    1.0919 H   0  0  0  0  0  0  0  0  0  0  0  0
    6.7883   -1.6969    2.2801 H   0  0  0  0  0  0  0  0  0  0  0  0
  1  2  1  0
  2  3  1  0
  2  4  1  0
  4  5  1  0
  5  6  1  0
  6  7  1  0
  7  8  2  0
  7  9  1  0
  9 10  1  0
 10 11  1  0
 11 12  1  0
 12 13  1  0
 13 14  1  0
 14 15  2  0
 14 16  1  0
 16 17  1  0
 17 18  1  0
 18 19  1  0
 19 20  1  0
 19 21  1  0
  1 22  1  0
  1 23  1  0
  1 24  1  0
  2 25  1  0
  3 26  1  0
  3 27  1  0
  3 28  1  0
  4 29  1  0
  4 30  1  0
  5 31  1  0
  5 32  1  0
  6 33  1  0
  9 34  1  0
  9 35  1  0
 10 36  1  0
 10 37  1  0
 12 38  1  0
 12 39  1  0
 13 40  1  0
 13 41  1  0
 16 42  1  0
 17 43  1  0
 17 44  1  0
 18 45  1  0
 18 46  1  0
 19 47  1  0
 20 48  1  0
 20 49  1  0
 20 50  1  0
 21 51  1  0
 21 52  1  0
 21 53  1  0
M  END
$$$$
