
     RDKit          3D

 51 54  0  0  0  0  0  0  0  0999 V2000
    2.6888    0.6299    1.6862 O   0  0  0  0  0  0  0  0  0  0  0  0
    3.1366    1.1236    0.6532 C   0  0  0  0  0  0  0  0  0  0  0  0
    2.2360    1.9159   -0.3053 C   0  0  0  0  0  0  0  0  0  0  0  0
    0.8655    1.4784   -0.1590 N   0  0  0  0  0  0  0  0  0  0  0  0
    0.3925    0.4121   -0.8892 C   0  0  0  0  0  0  0  0  0  0  0  0
    0.9535   -0.0866   -1.8512 O   0  0  0  0  0  0  0  0  0  0  0  0
   -0.9251   -0.1500   -0.3654 C   0  0  0  0  0  0  0  0  0  0  0  0
   -1.8641    0.7218   -0.1405 N   0  0  0  0  0  0  0  0  0  0  0  0
   -3.0789    0.2805    0.3377 N   0  0  0  0  0  0  0  0  0  0  0  0
   -4.1200    1.2920    0.4974 C   0  0  0  0  0  0  0  0  0  0  0  0
   -4.9086    1.5048   -0.7739 C   0  0  0  0  0  0  0  0  0  0  0  0
   -4.4391    2.3790   -1.7645 C   0  0  0  0  0  0  0  0  0  0  0  0
   -5.1580    2.5611   -2.9475 C   0  0  0  0  0  0  0  0  0  0  0  0
   -6.3488    1.8668   -3.1545 C   0  0  0  0  0  0  0  0  0  0  0  0
   -6.8195    0.9869   -2.1807 C   0  0  0  0  0  0  0  0  0  0  0  0
   -6.1012    0.8026   -0.9984 C   0  0  0  0  0  0  0  0  0  0  0  0
   -3.3783   -1.0524    0.6047 C   0  0  0  0  0  0  0  0  0  0  0  0
   -4.4613   -1.4469    1.0306 O   0  0  0  0  0  0  0  0  0  0  0  0
   -2.2969   -2.0281    0.3691 C   0  0  0  0  0  0  0  0  0  0  0  0
   -2.5065   -3.3869    0.6438 C   0  0  0  0  0  0  0  0  0  0  0  0
   -1.4765   -4.3058    0.4452 C   0  0  0  0  0  0  0  0  0  0  0  0
   -0.2393   -3.8694   -0.0243 C   0  0  0  0  0  0  0  0  0  0  0  0
   -0.0298   -2.5152   -0.3005 C   0  0  0  0  0  0  0  0  0  0  0  0
   -1.0660   -1.5919   -0.1104 C   0  0  0  0  0  0  0  0  0  0  0  0
    4.4562    1.0828    0.2403 N   0  0  0  0  0  0  0  0  0  0  0  0
    5.5434    0.4570    0.8906 C   0  0  0  0  0  0  0  0  0  0  0  0
    5.4536   -0.2065    2.1183 C   0  0  0  0  0  0  0  0  0  0  0  0
    6.5889   -0.7996    2.6848 C   0  0  0  0  0  0  0  0  0  0  0  0
    7.8119   -0.7291    2.0254 C   0  0  0  0  0  0  0  0  0  0  0  0
    8.8895   -1.3040    2.5765 F   0  0  0  0  0  0  0  0  0  0  0  0
    7.9160   -0.0730    0.8090 C   0  0  0  0  0  0  0  0  0  0  0  0
    9.0962   -0.0064    0.1768 F   0  0  0  0  0  0  0  0  0  0  0  0
    6.7889    0.5150    0.2482 C   0  0  0  0  0  0  0  0  0  0  0  0
    6.8880    1.1489   -0.9319 F   0  0  0  0  0  0  0  0  0  0  0  0
    2.2837    2.9741   -0.0330 H   0  0  0  0  0  0  0  0  0  0  0  0
    2.5647    1.7852   -1.3414 H   0  0  0  0  0  0  0  0  0  0  0  0
    0.3821    1.6856    0.7091 H   0  0  0  0  0  0  0  0  0  0  0  0
   -4.7947    1.0007    1.3113 H   0  0  0  0  0  0  0  0  0  0  0  0
   -3.6498    2.2325    0.8105 H   0  0  0  0  0  0  0  0  0  0  0  0
   -3.5017    2.9123   -1.6210 H   0  0  0  0  0  0  0  0  0  0  0  0
   -4.7840    3.2383   -3.7109 H   0  0  0  0  0  0  0  0  0  0  0  0
   -6.9040    2.0026   -4.0787 H   0  0  0  0  0  0  0  0  0  0  0  0
   -7.7414    0.4358   -2.3450 H   0  0  0  0  0  0  0  0  0  0  0  0
   -6.4710    0.0990   -0.2540 H   0  0  0  0  0  0  0  0  0  0  0  0
   -3.4702   -3.7297    1.0162 H   0  0  0  0  0  0  0  0  0  0  0  0
   -1.6390   -5.3599    0.6589 H   0  0  0  0  0  0  0  0  0  0  0  0
    0.5664   -4.5854   -0.1772 H   0  0  0  0  0  0  0  0  0  0  0  0
    0.9487   -2.2119   -0.6637 H   0  0  0  0  0  0  0  0  0  0  0  0
    4.6834    1.5123   -0.6538 H   0  0  0  0  0  0  0  0  0  0  0  0
    4.5176   -0.2822    2.6635 H   0  0  0  0  0  0  0  0  0  0  0  0
    6.5216   -1.3165    3.6383 H   0  0  0  0  0  0  0  0  0  0  0  0
  1  2  2  0
  2  3  1  0
  3  4  1  0
  4  5  1  0
  5  6  2  0
  5  7  1  0
  7  8  2  0
  8  9  1  0
  9 10  1  0
 10 11  1  0
 11 12  2  0
 12 13  1  0
 13 14  2  0
 14 15  1  0
 15 16  2  0
  9 17  1  0
 17 18  2  0
 17 19  1  0
 19 20  2  0
 20 21  1  0
 21 22  2  0
 22 23  1  0
 23 24  2  0
  2 25  1  0
 25 26  1  0
 26 27  2  0
 27 28  1  0
 28 29  2  0
 29 30  1  0
 29 31  1  0
 31 32  1  0
 31 33  2  0
 33 34  1  0
 24  7  1  0
 33 26  1  0
 16 11  1  0
 24 19  1  0
  3 35  1  0
  3 36  1  0
  4 37  1  0
 10 38  1  0
 10 39  1  0
 12 40  1  0
 13 41  1  0
 14 42  1  0
 15 43  1  0
 16 44  1  0
 20 45  1  0
 21 46  1  0
 22 47  1  0
 23 48  1  0
 25 49  1  0
 27 50  1  0
 28 51  1  0
M  END
$$$$
