
     RDKit          3D

 59 62  0  0  0  0  0  0  0  0999 V2000
   -9.4903    1.6986    2.7294 C   0  0  0  0  0  0  0  0  0  0  0  0
   -8.4729    1.5797    1.6324 C   0  0  0  0  0  0  0  0  0  0  0  0
   -7.8030    0.3701    1.4047 C   0  0  0  0  0  0  0  0  0  0  0  0
   -6.8743    0.2610    0.3674 C   0  0  0  0  0  0  0  0  0  0  0  0
   -6.6069    1.3679   -0.4439 C   0  0  0  0  0  0  0  0  0  0  0  0
   -5.6396    1.2734   -1.5608 C   0  0  0  0  0  0  0  0  0  0  0  0
   -6.0229    1.5928   -2.6838 O   0  0  0  0  0  0  0  0  0  0  0  0
   -4.3493    0.8290   -1.2936 N   0  0  0  0  0  0  0  0  0  0  0  0
   -3.4346    0.6417   -2.4201 C   0  0  0  0  0  0  0  0  0  0  0  0
   -2.2668   -0.3056   -2.0947 C   0  0  0  0  0  0  0  0  0  0  0  0
   -1.5329    0.1134   -0.8834 N   0  0  0  0  0  0  0  0  0  0  0  0
   -0.1870   -0.1858   -0.7411 C   0  0  0  0  0  0  0  0  0  0  0  0
    0.6726    0.5848    0.0537 C   0  0  0  0  0  0  0  0  0  0  0  0
    2.0348    0.2766    0.1908 C   0  0  0  0  0  0  0  0  0  0  0  0
    2.5878   -0.8248   -0.4634 C   0  0  0  0  0  0  0  0  0  0  0  0
    3.9631   -1.0631   -0.2814 N   0  0  0  0  0  0  0  0  0  0  0  0
    4.7460   -2.0404   -0.8658 C   0  0  0  0  0  0  0  0  0  0  0  0
    4.3499   -2.9105   -1.6398 O   0  0  0  0  0  0  0  0  0  0  0  0
    6.2067   -2.0418   -0.4234 C   0  0  0  0  0  0  0  0  0  0  0  0
    6.8028   -0.3969    0.1061 S   0  0  0  0  0  0  0  0  0  0  0  0
    8.4936   -0.8102    0.4863 C   0  0  0  0  0  0  0  0  0  0  0  0
    9.3860   -1.1932   -0.5212 C   0  0  0  0  0  0  0  0  0  0  0  0
   10.7124   -1.5028   -0.2074 C   0  0  0  0  0  0  0  0  0  0  0  0
   11.1483   -1.4221    1.1135 C   0  0  0  0  0  0  0  0  0  0  0  0
   12.7804   -1.8028    1.5007 Cl  0  0  0  0  0  0  0  0  0  0  0  0
   10.2704   -1.0303    2.1222 C   0  0  0  0  0  0  0  0  0  0  0  0
    8.9442   -0.7201    1.8073 C   0  0  0  0  0  0  0  0  0  0  0  0
    1.7532   -1.6119   -1.2474 C   0  0  0  0  0  0  0  0  0  0  0  0
    0.3919   -1.2929   -1.3797 C   0  0  0  0  0  0  0  0  0  0  0  0
   -2.2246    1.0314    0.0344 C   0  0  0  0  0  0  0  0  0  0  0  0
   -3.7448    0.7748    0.0442 C   0  0  0  0  0  0  0  0  0  0  0  0
   -7.2953    2.5676   -0.2477 C   0  0  0  0  0  0  0  0  0  0  0  0
   -8.2215    2.6731    0.7916 C   0  0  0  0  0  0  0  0  0  0  0  0
   -9.4275    0.8551    3.4253 H   0  0  0  0  0  0  0  0  0  0  0  0
  -10.4985    1.7214    2.3040 H   0  0  0  0  0  0  0  0  0  0  0  0
   -9.3213    2.6131    3.3070 H   0  0  0  0  0  0  0  0  0  0  0  0
   -8.0091   -0.4983    2.0269 H   0  0  0  0  0  0  0  0  0  0  0  0
   -6.3794   -0.6883    0.1839 H   0  0  0  0  0  0  0  0  0  0  0  0
   -3.9906    0.2636   -3.2853 H   0  0  0  0  0  0  0  0  0  0  0  0
   -3.0500    1.6344   -2.6857 H   0  0  0  0  0  0  0  0  0  0  0  0
   -1.6062   -0.3256   -2.9698 H   0  0  0  0  0  0  0  0  0  0  0  0
   -2.6546   -1.3188   -1.9346 H   0  0  0  0  0  0  0  0  0  0  0  0
    0.3080    1.4691    0.5677 H   0  0  0  0  0  0  0  0  0  0  0  0
    2.6497    0.9228    0.8116 H   0  0  0  0  0  0  0  0  0  0  0  0
    4.4637   -0.3959    0.2973 H   0  0  0  0  0  0  0  0  0  0  0  0
    6.3104   -2.7520    0.4029 H   0  0  0  0  0  0  0  0  0  0  0  0
    6.8090   -2.3831   -1.2713 H   0  0  0  0  0  0  0  0  0  0  0  0
    9.0640   -1.2453   -1.5589 H   0  0  0  0  0  0  0  0  0  0  0  0
   11.3983   -1.7996   -0.9968 H   0  0  0  0  0  0  0  0  0  0  0  0
   10.6109   -0.9613    3.1522 H   0  0  0  0  0  0  0  0  0  0  0  0
    8.2707   -0.4091    2.6027 H   0  0  0  0  0  0  0  0  0  0  0  0
    2.1184   -2.4881   -1.7729 H   0  0  0  0  0  0  0  0  0  0  0  0
   -0.2151   -1.9578   -1.9895 H   0  0  0  0  0  0  0  0  0  0  0  0
   -1.8647    0.9030    1.0621 H   0  0  0  0  0  0  0  0  0  0  0  0
   -2.0268    2.0656   -0.2729 H   0  0  0  0  0  0  0  0  0  0  0  0
   -3.9383   -0.2304    0.4360 H   0  0  0  0  0  0  0  0  0  0  0  0
   -4.2302    1.4998    0.7047 H   0  0  0  0  0  0  0  0  0  0  0  0
   -7.1139    3.4146   -0.9049 H   0  0  0  0  0  0  0  0  0  0  0  0
   -8.7541    3.6107    0.9369 H   0  0  0  0  0  0  0  0  0  0  0  0
  1  2  1  0
  2  3  2  0
  3  4  1  0
  4  5  2  0
  5  6  1  0
  6  7  2  0
  6  8  1  0
  8  9  1  0
  9 10  1  0
 10 11  1  0
 11 12  1  0
 12 13  2  0
 13 14  1  0
 14 15  2  0
 15 16  1  0
 16 17  1  0
 17 18  2  0
 17 19  1  0
 19 20  1  0
 20 21  1  0
 21 22  2  0
 22 23  1  0
 23 24  2  0
 24 25  1  0
 24 26  1  0
 26 27  2  0
 15 28  1  0
 28 29  2  0
 11 30  1  0
 30 31  1  0
  5 32  1  0
 32 33  2  0
 33  2  1  0
 31  8  1  0
 29 12  1  0
 27 21  1  0
  1 34  1  0
  1 35  1  0
  1 36  1  0
  3 37  1  0
  4 38  1  0
  9 39  1  0
  9 40  1  0
 10 41  1  0
 10 42  1  0
 13 43  1  0
 14 44  1  0
 16 45  1  0
 19 46  1  0
 19 47  1  0
 22 48  1  0
 23 49  1  0
 26 50  1  0
 27 51  1  0
 28 52  1  0
 29 53  1  0
 30 54  1  0
 30 55  1  0
 31 56  1  0
 31 57  1  0
 32 58  1  0
 33 59  1  0
M  END
$$$$
