
     RDKit          3D

 52 57  0  0  0  0  0  0  0  0999 V2000
    4.9012   -2.5888   -0.6708 C   0  0  0  0  0  0  0  0  0  0  0  0
    3.8777   -1.9069    0.1869 C   0  0  0  0  0  0  0  0  0  0  0  0
    3.8132   -2.1308    1.5762 C   0  0  0  0  0  0  0  0  0  0  0  0
    4.9119   -3.2140    2.3604 Cl  0  0  0  0  0  0  0  0  0  0  0  0
    2.8591   -1.4834    2.3865 C   0  0  0  0  0  0  0  0  0  0  0  0
    1.9400   -0.5912    1.8351 C   0  0  0  0  0  0  0  0  0  0  0  0
    1.9917   -0.3671    0.4696 C   0  0  0  0  0  0  0  0  0  0  0  0
    2.9506   -1.0097   -0.3288 C   0  0  0  0  0  0  0  0  0  0  0  0
    2.8080   -0.5960   -1.6529 N   0  0  0  0  0  0  0  0  0  0  0  0
    1.7783    0.3379   -1.8002 C   0  0  0  0  0  0  0  0  0  0  0  0
    1.4795    0.8845   -2.8514 O   0  0  0  0  0  0  0  0  0  0  0  0
    1.1528    0.5258   -0.3957 C   0  0  1  0  0  0  0  0  0  0  0  0
   -0.2692    0.0879   -0.3321 C   0  0  0  0  0  0  0  0  0  0  0  0
   -1.1100    1.2102   -0.2565 C   0  0  0  0  0  0  0  0  0  0  0  0
   -2.4110    0.7890   -0.2157 C   0  0  0  0  0  0  0  0  0  0  0  0
   -3.5328    1.5051   -0.2230 O   0  0  0  0  0  0  0  0  0  0  0  0
   -2.3995   -0.6258   -0.2361 N   0  0  0  0  0  0  0  0  0  0  0  0
   -3.5532   -1.4856   -0.1913 C   0  0  0  0  0  0  0  0  0  0  0  0
   -4.7576   -1.0431    0.3758 C   0  0  0  0  0  0  0  0  0  0  0  0
   -5.8781   -1.8798    0.4209 C   0  0  0  0  0  0  0  0  0  0  0  0
   -5.8119   -3.1679   -0.1009 C   0  0  0  0  0  0  0  0  0  0  0  0
   -4.6247   -3.6208   -0.6676 C   0  0  0  0  0  0  0  0  0  0  0  0
   -3.5021   -2.7869   -0.7124 C   0  0  0  0  0  0  0  0  0  0  0  0
   -1.0481   -1.0412   -0.3097 C   0  0  0  0  0  0  0  0  0  0  0  0
   -0.6848   -2.3221   -0.2917 O   0  0  0  0  0  0  0  0  0  0  0  0
   -0.3077    2.4537   -0.3051 C   0  0  1  0  0  0  0  0  0  0  0  0
   -0.6641    3.5927    0.6705 C   0  0  0  0  0  0  0  0  0  0  0  0
    0.4768    4.4624    1.0498 N   0  0  0  0  0  0  0  0  0  0  0  0
    1.6020    4.3486    0.1047 C   0  0  0  0  0  0  0  0  0  0  0  0
    2.0918    2.8890   -0.1594 C   0  0  0  0  0  0  0  0  0  0  0  0
    1.0307    1.9222    0.0503 N   0  0  0  0  0  0  0  0  0  0  0  0
    4.7796   -2.3564   -1.7323 H   0  0  0  0  0  0  0  0  0  0  0  0
    5.9088   -2.2734   -0.3810 H   0  0  0  0  0  0  0  0  0  0  0  0
    4.8176   -3.6763   -0.5738 H   0  0  0  0  0  0  0  0  0  0  0  0
    2.8357   -1.6734    3.4580 H   0  0  0  0  0  0  0  0  0  0  0  0
    1.2076   -0.0839    2.4575 H   0  0  0  0  0  0  0  0  0  0  0  0
    3.3795   -0.8823   -2.4336 H   0  0  0  0  0  0  0  0  0  0  0  0
   -3.2934    2.4432   -0.3023 H   0  0  0  0  0  0  0  0  0  0  0  0
   -4.8485   -0.0601    0.8272 H   0  0  0  0  0  0  0  0  0  0  0  0
   -6.8003   -1.5220    0.8710 H   0  0  0  0  0  0  0  0  0  0  0  0
   -6.6827   -3.8166   -0.0662 H   0  0  0  0  0  0  0  0  0  0  0  0
   -4.5681   -4.6234   -1.0835 H   0  0  0  0  0  0  0  0  0  0  0  0
   -2.6108   -3.1734   -1.1966 H   0  0  0  0  0  0  0  0  0  0  0  0
    0.2836   -2.3642   -0.2125 H   0  0  0  0  0  0  0  0  0  0  0  0
   -0.2998    2.8305   -1.3377 H   0  0  0  0  0  0  0  0  0  0  0  0
   -1.0898    3.1903    1.5975 H   0  0  0  0  0  0  0  0  0  0  0  0
   -1.4450    4.2119    0.2123 H   0  0  0  0  0  0  0  0  0  0  0  0
    0.1709    5.4298    1.1299 H   0  0  0  0  0  0  0  0  0  0  0  0
    2.4428    4.9433    0.4783 H   0  0  0  0  0  0  0  0  0  0  0  0
    1.2962    4.7974   -0.8493 H   0  0  0  0  0  0  0  0  0  0  0  0
    2.9132    2.6618    0.5295 H   0  0  0  0  0  0  0  0  0  0  0  0
    2.4925    2.8495   -1.1781 H   0  0  0  0  0  0  0  0  0  0  0  0
  1  2  1  0
  2  3  2  0
  3  4  1  0
  3  5  1  0
  5  6  2  0
  6  7  1  0
  7  8  2  0
  8  9  1  0
  9 10  1  0
 10 11  2  0
 10 12  1  0
 12 13  1  0
 13 14  1  0
 14 15  2  0
 15 16  1  0
 15 17  1  0
 17 18  1  0
 18 19  2  0
 19 20  1  0
 20 21  2  0
 21 22  1  0
 22 23  2  0
 17 24  1  0
 24 25  1  0
 14 26  1  0
 26 27  1  0
 27 28  1  0
 28 29  1  0
 29 30  1  0
 30 31  1  0
  8  2  1  0
 12 31  1  1
 12  7  1  0
 24 13  2  0
 31 26  1  0
 23 18  1  0
  1 32  1  0
  1 33  1  0
  1 34  1  0
  5 35  1  0
  6 36  1  0
  9 37  1  0
 16 38  1  0
 19 39  1  0
 20 40  1  0
 21 41  1  0
 22 42  1  0
 23 43  1  0
 25 44  1  0
 26 45  1  6
 27 46  1  0
 27 47  1  0
 28 48  1  0
 29 49  1  0
 29 50  1  0
 30 51  1  0
 30 52  1  0
M  END
$$$$
