
     RDKit          3D

 42 44  0  0  0  0  0  0  0  0999 V2000
   -4.1721   -1.7335    1.4151 C   0  0  0  0  0  0  0  0  0  0  0  0
   -4.1040   -0.9527    0.1018 C   0  0  0  0  0  0  0  0  0  0  0  0
   -4.2020   -1.8828   -1.1082 C   0  0  0  0  0  0  0  0  0  0  0  0
   -2.9087   -0.1082    0.0380 N   0  0  0  0  0  0  0  0  0  0  0  0
   -1.6180   -0.5869    0.0476 C   0  0  0  0  0  0  0  0  0  0  0  0
   -0.7558    0.4842   -0.0237 C   0  0  0  0  0  0  0  0  0  0  0  0
    0.6739    0.4215   -0.0333 C   0  0  0  0  0  0  0  0  0  0  0  0
    1.4159   -0.6987   -0.0730 C   0  0  0  0  0  0  0  0  0  0  0  0
    2.8825   -0.7002   -0.0849 C   0  0  0  0  0  0  0  0  0  0  0  0
    3.5559   -1.5763   -0.9335 C   0  0  0  0  0  0  0  0  0  0  0  0
    4.9460   -1.6019   -0.9364 C   0  0  0  0  0  0  0  0  0  0  0  0
    5.6511   -0.7898   -0.1176 N   0  0  0  0  0  4  0  0  0  0  0  0
    7.1229   -0.8414   -0.1300 C   0  0  0  0  0  0  0  0  0  0  0  0
    5.0194    0.0502    0.7323 C   0  0  0  0  0  0  0  0  0  0  0  0
    3.6309    0.1109    0.7667 C   0  0  0  0  0  0  0  0  0  0  0  0
   -1.5532    1.6695   -0.0781 C   0  0  0  0  0  0  0  0  0  0  0  0
   -1.2587    3.0499   -0.1597 C   0  0  0  0  0  0  0  0  0  0  0  0
   -2.2967    3.9855   -0.1970 C   0  0  0  0  0  0  0  0  0  0  0  0
   -3.6208    3.5683   -0.1546 C   0  0  0  0  0  0  0  0  0  0  0  0
   -3.9435    2.2109   -0.0748 C   0  0  0  0  0  0  0  0  0  0  0  0
   -2.8964    1.2727   -0.0379 C   0  0  0  0  0  0  0  0  0  0  0  0
   -4.1066   -1.0576    2.2749 H   0  0  0  0  0  0  0  0  0  0  0  0
   -5.1171   -2.2820    1.4887 H   0  0  0  0  0  0  0  0  0  0  0  0
   -3.3565   -2.4598    1.4994 H   0  0  0  0  0  0  0  0  0  0  0  0
   -4.9727   -0.2875    0.0725 H   0  0  0  0  0  0  0  0  0  0  0  0
   -4.1573   -1.3131   -2.0430 H   0  0  0  0  0  0  0  0  0  0  0  0
   -3.3879   -2.6154   -1.1254 H   0  0  0  0  0  0  0  0  0  0  0  0
   -5.1480   -2.4345   -1.0945 H   0  0  0  0  0  0  0  0  0  0  0  0
   -1.4333   -1.6506    0.1086 H   0  0  0  0  0  0  0  0  0  0  0  0
    1.1803    1.3840   -0.0210 H   0  0  0  0  0  0  0  0  0  0  0  0
    0.9380   -1.6744   -0.1227 H   0  0  0  0  0  0  0  0  0  0  0  0
    3.0050   -2.2354   -1.6025 H   0  0  0  0  0  0  0  0  0  0  0  0
    5.5023   -2.2702   -1.5878 H   0  0  0  0  0  0  0  0  0  0  0  0
    7.4304   -1.5843    0.6102 H   0  0  0  0  0  0  0  0  0  0  0  0
    7.4637   -1.1228   -1.1299 H   0  0  0  0  0  0  0  0  0  0  0  0
    7.5175    0.1466    0.1215 H   0  0  0  0  0  0  0  0  0  0  0  0
    5.6329    0.6654    1.3847 H   0  0  0  0  0  0  0  0  0  0  0  0
    3.1424    0.7843    1.4689 H   0  0  0  0  0  0  0  0  0  0  0  0
   -0.2303    3.3945   -0.1961 H   0  0  0  0  0  0  0  0  0  0  0  0
   -2.0664    5.0461   -0.2605 H   0  0  0  0  0  0  0  0  0  0  0  0
   -4.4194    4.3065   -0.1846 H   0  0  0  0  0  0  0  0  0  0  0  0
   -4.9854    1.9089   -0.0436 H   0  0  0  0  0  0  0  0  0  0  0  0
  1  2  1  0
  2  3  1  0
  2  4  1  0
  4  5  1  0
  5  6  2  0
  6  7  1  0
  7  8  2  3
  8  9  1  0
  9 10  2  0
 10 11  1  0
 11 12  2  0
 12 13  1  0
 12 14  1  0
 14 15  2  0
  6 16  1  0
 16 17  2  0
 17 18  1  0
 18 19  2  0
 19 20  1  0
 20 21  2  0
 21  4  1  0
 15  9  1  0
 21 16  1  0
  1 22  1  0
  1 23  1  0
  1 24  1  0
  2 25  1  0
  3 26  1  0
  3 27  1  0
  3 28  1  0
  5 29  1  0
  7 30  1  0
  8 31  1  0
 10 32  1  0
 11 33  1  0
 13 34  1  0
 13 35  1  0
 13 36  1  0
 14 37  1  0
 15 38  1  0
 17 39  1  0
 18 40  1  0
 19 41  1  0
 20 42  1  0
M  CHG  1  12   1
M  END
$$$$
