
     RDKit          3D

 26 28  0  0  0  0  0  0  0  0999 V2000
   -4.0374    0.9448   -0.0811 C   0  0  0  0  0  0  0  0  0  0  0  0
   -2.6058    0.5808   -0.0194 C   0  0  0  0  0  0  0  0  0  0  0  0
   -1.7222    1.6021   -0.1915 O   0  0  0  0  0  0  0  0  0  0  0  0
   -0.4731    1.0743   -0.1044 C   0  0  0  0  0  0  0  0  0  0  0  0
    0.7123    1.7916   -0.2286 C   0  0  0  0  0  0  0  0  0  0  0  0
    1.8823    1.0401   -0.1050 C   0  0  0  0  0  0  0  0  0  0  0  0
    3.1002    1.7463   -0.2276 O   0  0  0  0  0  0  0  0  0  0  0  0
    4.3247    1.1020   -0.1224 C   0  0  0  0  0  0  0  0  0  0  0  0
    5.3918    1.6955   -0.2255 O   0  0  0  0  0  0  0  0  0  0  0  0
    4.2930   -0.3501    0.1226 C   0  0  0  0  0  0  0  0  0  0  0  0
    3.1511   -1.0339    0.2411 C   0  0  0  0  0  0  0  0  0  0  0  0
    1.8788   -0.3370    0.1273 C   0  0  0  0  0  0  0  0  0  0  0  0
    0.6595   -1.0214    0.2462 C   0  0  0  0  0  0  0  0  0  0  0  0
   -0.5441   -0.2948    0.1274 C   0  0  0  0  0  0  0  0  0  0  0  0
   -1.9366   -0.6144    0.1863 C   0  0  0  0  0  0  0  0  0  0  0  0
   -2.5344   -1.9530    0.4134 C   0  0  0  0  0  0  0  0  0  0  0  0
   -4.4881    0.8807    0.9139 H   0  0  0  0  0  0  0  0  0  0  0  0
   -4.1737    1.9652   -0.4528 H   0  0  0  0  0  0  0  0  0  0  0  0
   -4.5774    0.2673   -0.7496 H   0  0  0  0  0  0  0  0  0  0  0  0
    0.7184    2.8584   -0.4090 H   0  0  0  0  0  0  0  0  0  0  0  0
    5.2590   -0.8338    0.2014 H   0  0  0  0  0  0  0  0  0  0  0  0
    3.1553   -2.1033    0.4215 H   0  0  0  0  0  0  0  0  0  0  0  0
    0.6314   -2.0916    0.4268 H   0  0  0  0  0  0  0  0  0  0  0  0
   -2.4296   -2.5715   -0.4836 H   0  0  0  0  0  0  0  0  0  0  0  0
   -3.5992   -1.8818    0.6563 H   0  0  0  0  0  0  0  0  0  0  0  0
   -2.0364   -2.4627    1.2445 H   0  0  0  0  0  0  0  0  0  0  0  0
  1  2  1  0
  2  3  1  0
  3  4  1  0
  4  5  2  0
  5  6  1  0
  6  7  1  0
  7  8  1  0
  8  9  2  0
  8 10  1  0
 10 11  2  0
 11 12  1  0
 12 13  1  0
 13 14  2  0
 14 15  1  0
 15 16  1  0
 15  2  2  0
 14  4  1  0
 12  6  2  0
  1 17  1  0
  1 18  1  0
  1 19  1  0
  5 20  1  0
 10 21  1  0
 11 22  1  0
 13 23  1  0
 16 24  1  0
 16 25  1  0
 16 26  1  0
M  END
$$$$
