
     RDKit          3D

 36 37  0  0  0  0  0  0  0  0999 V2000
   -1.1209    2.0641    2.4626 O   0  0  0  0  0  0  0  0  0  0  0  0
   -0.9768    0.8505    2.3491 C   0  0  0  0  0  0  0  0  0  0  0  0
   -0.0324    0.0522    3.2499 C   0  0  0  0  0  0  0  0  0  0  0  0
    1.2166   -0.2545    2.6258 O   0  0  0  0  0  0  0  0  0  0  0  0
    1.1854   -1.2947    1.7591 C   0  0  0  0  0  0  0  0  0  0  0  0
    0.2113   -1.9725    1.4806 O   0  0  0  0  0  0  0  0  0  0  0  0
    2.5318   -1.4704    1.1805 C   0  0  0  0  0  0  0  0  0  0  0  0
    3.6217   -1.5796    2.0612 C   0  0  0  0  0  0  0  0  0  0  0  0
    4.9071   -1.7778    1.5631 C   0  0  0  0  0  0  0  0  0  0  0  0
    5.1073   -1.8698    0.1873 C   0  0  0  0  0  0  0  0  0  0  0  0
    4.0250   -1.7596   -0.6948 C   0  0  0  0  0  0  0  0  0  0  0  0
    4.3756   -1.8791   -2.3857 Cl  0  0  0  0  0  0  0  0  0  0  0  0
    2.7244   -1.5583   -0.2062 C   0  0  0  0  0  0  0  0  0  0  0  0
    1.3946   -1.3738   -1.3053 Cl  0  0  0  0  0  0  0  0  0  0  0  0
   -1.6422    0.0947    1.4100 N   0  0  0  0  0  0  0  0  0  0  0  0
   -2.5174    0.6900    0.4171 C   0  0  0  0  0  0  0  0  0  0  0  0
   -1.7592    1.4685   -0.6645 C   0  0  0  0  0  0  0  0  0  0  0  0
   -2.5983    1.7711   -1.8116 N   0  0  0  0  0  0  0  0  0  0  0  0
   -2.7792    0.9053   -2.8620 C   0  0  0  0  0  0  0  0  0  0  0  0
   -2.1224   -0.2876   -2.8520 O   0  0  0  0  0  0  0  0  0  0  0  0
   -3.6183    1.3431   -3.8070 C   0  0  0  0  0  0  0  0  0  0  0  0
   -4.2558    2.9084   -3.4041 S   0  0  0  0  0  0  0  0  0  0  0  0
   -3.3417    2.9376   -1.8808 C   0  0  0  0  0  0  0  0  0  0  0  0
   -3.4081    3.8486   -1.0741 O   0  0  0  0  0  0  0  0  0  0  0  0
    0.1834    0.6605    4.1350 H   0  0  0  0  0  0  0  0  0  0  0  0
   -0.5307   -0.8562    3.6103 H   0  0  0  0  0  0  0  0  0  0  0  0
    3.4704   -1.5158    3.1375 H   0  0  0  0  0  0  0  0  0  0  0  0
    5.7515   -1.8624    2.2441 H   0  0  0  0  0  0  0  0  0  0  0  0
    6.1141   -2.0245   -0.1963 H   0  0  0  0  0  0  0  0  0  0  0  0
   -1.3177   -0.8606    1.2518 H   0  0  0  0  0  0  0  0  0  0  0  0
   -3.0896   -0.1331   -0.0240 H   0  0  0  0  0  0  0  0  0  0  0  0
   -3.2270    1.3519    0.9268 H   0  0  0  0  0  0  0  0  0  0  0  0
   -1.3868    2.4106   -0.2446 H   0  0  0  0  0  0  0  0  0  0  0  0
   -0.8780    0.9111   -1.0029 H   0  0  0  0  0  0  0  0  0  0  0  0
   -2.3194   -0.7566   -3.6804 H   0  0  0  0  0  0  0  0  0  0  0  0
   -3.8982    0.8186   -4.7085 H   0  0  0  0  0  0  0  0  0  0  0  0
  1  2  2  0
  2  3  1  0
  3  4  1  0
  4  5  1  0
  5  6  2  0
  5  7  1  0
  7  8  2  0
  8  9  1  0
  9 10  2  0
 10 11  1  0
 11 12  1  0
 11 13  2  0
 13 14  1  0
  2 15  1  0
 15 16  1  0
 16 17  1  0
 17 18  1  0
 18 19  1  0
 19 20  1  0
 19 21  2  0
 21 22  1  0
 22 23  1  0
 23 24  2  0
 13  7  1  0
 23 18  1  0
  3 25  1  0
  3 26  1  0
  8 27  1  0
  9 28  1  0
 10 29  1  0
 15 30  1  0
 16 31  1  0
 16 32  1  0
 17 33  1  0
 17 34  1  0
 20 35  1  0
 21 36  1  0
M  END
$$$$
