
     RDKit          3D

 53 55  0  0  0  0  0  0  0  0999 V2000
   -7.4053   -2.7935    3.6710 C   0  0  0  0  0  0  0  0  0  0  0  0
   -6.1214   -3.4054    3.6643 O   0  0  0  0  0  0  0  0  0  0  0  0
   -5.2881   -3.0895    2.6277 C   0  0  0  0  0  0  0  0  0  0  0  0
   -4.0598   -3.7587    2.6444 C   0  0  0  0  0  0  0  0  0  0  0  0
   -3.1093   -3.5333    1.6469 C   0  0  0  0  0  0  0  0  0  0  0  0
   -3.3825   -2.6098    0.6364 C   0  0  0  0  0  0  0  0  0  0  0  0
   -2.1912   -2.3296   -0.6587 S   0  0  0  0  0  6  0  0  0  0  0  0
   -1.3225   -3.4859   -0.7100 O   0  0  0  0  0  0  0  0  0  0  0  0
   -2.9224   -1.8875   -1.8265 O   0  0  0  0  0  0  0  0  0  0  0  0
   -1.2811   -1.0383   -0.1071 N   0  0  0  0  0  0  0  0  0  0  0  0
   -1.8925    0.2795    0.0776 C   0  0  0  0  0  0  0  0  0  0  0  0
   -1.6372    0.5672    1.5398 C   0  0  0  0  0  0  0  0  0  0  0  0
   -0.3812   -0.0614    1.8060 O   0  0  0  0  0  0  0  0  0  0  0  0
   -0.3586   -1.2669    1.0201 C   0  0  0  0  0  0  0  0  0  0  0  0
    1.0717   -1.5461    0.5075 C   0  0  0  0  0  0  0  0  0  0  0  0
    1.5410   -0.5246   -0.4183 N   0  0  0  0  0  0  0  0  0  0  0  0
    2.2702    0.5606    0.0070 C   0  0  0  0  0  0  0  0  0  0  0  0
    2.8332    0.6832    1.0857 O   0  0  0  0  0  0  0  0  0  0  0  0
    2.3432    1.7024   -1.0318 C   0  0  0  0  0  0  0  0  0  0  0  0
    1.6864    1.6407   -2.0617 O   0  0  0  0  0  0  0  0  0  0  0  0
    3.1876    2.7222   -0.6635 N   0  0  0  0  0  0  0  0  0  0  0  0
    3.5280    3.8027   -1.5501 C   0  0  0  0  0  0  0  0  0  0  0  0
    4.8229    3.5207   -2.2683 C   0  0  0  0  0  0  0  0  0  0  0  0
    4.8244    2.7617   -3.4504 C   0  0  0  0  0  0  0  0  0  0  0  0
    6.0228    2.4784   -4.1067 C   0  0  0  0  0  0  0  0  0  0  0  0
    7.2196    2.9470   -3.5792 C   0  0  0  0  0  0  0  0  0  0  0  0
    8.3701    2.6748   -4.2087 F   0  0  0  0  0  0  0  0  0  0  0  0
    7.2417    3.6910   -2.4054 C   0  0  0  0  0  0  0  0  0  0  0  0
    6.0444    3.9755   -1.7464 C   0  0  0  0  0  0  0  0  0  0  0  0
   -4.6188   -1.9581    0.5926 C   0  0  0  0  0  0  0  0  0  0  0  0
   -5.5665   -2.1925    1.5945 C   0  0  0  0  0  0  0  0  0  0  0  0
   -7.9465   -3.1614    4.5481 H   0  0  0  0  0  0  0  0  0  0  0  0
   -7.9810   -3.0735    2.7825 H   0  0  0  0  0  0  0  0  0  0  0  0
   -7.3226   -1.7055    3.7626 H   0  0  0  0  0  0  0  0  0  0  0  0
   -3.8492   -4.4725    3.4384 H   0  0  0  0  0  0  0  0  0  0  0  0
   -2.1733   -4.0866    1.6664 H   0  0  0  0  0  0  0  0  0  0  0  0
   -1.3538    0.9915   -0.5575 H   0  0  0  0  0  0  0  0  0  0  0  0
   -2.9525    0.3347   -0.1754 H   0  0  0  0  0  0  0  0  0  0  0  0
   -2.3971    0.1099    2.1830 H   0  0  0  0  0  0  0  0  0  0  0  0
   -1.5791    1.6363    1.7595 H   0  0  0  0  0  0  0  0  0  0  0  0
   -0.6853   -2.0803    1.6727 H   0  0  0  0  0  0  0  0  0  0  0  0
    1.7633   -1.6002    1.3549 H   0  0  0  0  0  0  0  0  0  0  0  0
    1.1049   -2.4953   -0.0353 H   0  0  0  0  0  0  0  0  0  0  0  0
    1.0331   -0.4071   -1.2922 H   0  0  0  0  0  0  0  0  0  0  0  0
    3.7277    2.5725    0.1841 H   0  0  0  0  0  0  0  0  0  0  0  0
    2.7220    3.9717   -2.2734 H   0  0  0  0  0  0  0  0  0  0  0  0
    3.6171    4.7111   -0.9444 H   0  0  0  0  0  0  0  0  0  0  0  0
    3.8883    2.3842   -3.8600 H   0  0  0  0  0  0  0  0  0  0  0  0
    6.0294    1.8933   -5.0207 H   0  0  0  0  0  0  0  0  0  0  0  0
    8.1900    4.0410   -2.0105 H   0  0  0  0  0  0  0  0  0  0  0  0
    6.0702    4.5524   -0.8245 H   0  0  0  0  0  0  0  0  0  0  0  0
   -4.8597   -1.2765   -0.2209 H   0  0  0  0  0  0  0  0  0  0  0  0
   -6.5148   -1.6679    1.5337 H   0  0  0  0  0  0  0  0  0  0  0  0
  1  2  1  0
  2  3  1  0
  3  4  2  0
  4  5  1  0
  5  6  2  0
  6  7  1  0
  7  8  2  0
  7  9  2  0
  7 10  1  0
 10 11  1  0
 11 12  1  0
 12 13  1  0
 13 14  1  0
 14 15  1  0
 15 16  1  0
 16 17  1  0
 17 18  2  0
 17 19  1  0
 19 20  2  0
 19 21  1  0
 21 22  1  0
 22 23  1  0
 23 24  2  0
 24 25  1  0
 25 26  2  0
 26 27  1  0
 26 28  1  0
 28 29  2  0
  6 30  1  0
 30 31  2  0
 31  3  1  0
 14 10  1  0
 29 23  1  0
  1 32  1  0
  1 33  1  0
  1 34  1  0
  4 35  1  0
  5 36  1  0
 11 37  1  0
 11 38  1  0
 12 39  1  0
 12 40  1  0
 14 41  1  0
 15 42  1  0
 15 43  1  0
 16 44  1  0
 21 45  1  0
 22 46  1  0
 22 47  1  0
 24 48  1  0
 25 49  1  0
 28 50  1  0
 29 51  1  0
 30 52  1  0
 31 53  1  0
M  END
$$$$
