
     RDKit          3D

 65 66  0  0  0  0  0  0  0  0999 V2000
   -3.8847    6.3309   -0.8226 C   0  0  0  0  0  0  0  0  0  0  0  0
   -4.2186    5.2193    0.0002 O   0  0  0  0  0  0  0  0  0  0  0  0
   -3.5157    4.0643   -0.2022 C   0  0  0  0  0  0  0  0  0  0  0  0
   -3.9596    2.9699    0.5446 C   0  0  0  0  0  0  0  0  0  0  0  0
   -3.3333    1.7248    0.4355 C   0  0  0  0  0  0  0  0  0  0  0  0
   -2.2438    1.5529   -0.4304 C   0  0  0  0  0  0  0  0  0  0  0  0
   -1.5096    0.2238   -0.5810 C   0  0  0  0  0  0  0  0  0  0  0  0
   -2.4086   -1.0247   -0.3260 C   0  0  0  0  0  0  0  0  0  0  0  0
   -2.3299   -1.7091    0.6926 O   0  0  0  0  0  0  0  0  0  0  0  0
   -3.3327   -1.2659   -1.3314 N   0  0  0  0  0  0  0  0  0  0  0  0
   -4.3117   -2.3642   -1.3374 C   0  0  0  0  0  0  0  0  0  0  0  0
   -3.6074   -3.7316   -1.2948 C   0  0  0  0  0  0  0  0  0  0  0  0
   -5.1161   -2.2736   -2.6465 C   0  0  0  0  0  0  0  0  0  0  0  0
   -5.2912   -2.2326   -0.1591 C   0  0  0  0  0  0  0  0  0  0  0  0
   -0.2632    0.1580    0.2148 N   0  0  0  0  0  0  0  0  0  0  0  0
   -0.3307    0.4551    1.6538 C   0  0  0  0  0  0  0  0  0  0  0  0
    0.1272    1.8755    2.0048 C   0  0  0  0  0  0  0  0  0  0  0  0
    0.0825    2.0798    3.4129 O   0  0  0  0  0  0  0  0  0  0  0  0
    0.8455   -0.4137   -0.4004 C   0  0  0  0  0  0  0  0  0  0  0  0
    0.8363   -0.7247   -1.5939 O   0  0  0  0  0  0  0  0  0  0  0  0
    2.0835   -0.6520    0.4467 C   0  0  0  0  0  0  0  0  0  0  0  0
    3.2667   -1.0826   -0.4177 C   0  0  0  0  0  0  0  0  0  0  0  0
    4.5308   -1.2593    0.3991 C   0  0  0  0  0  0  0  0  0  0  0  0
    4.5307   -1.2330    1.6274 O   0  0  0  0  0  0  0  0  0  0  0  0
    5.6325   -1.4559   -0.4040 N   0  0  0  0  0  0  0  0  0  0  0  0
    6.9228   -1.6317    0.0441 C   0  0  0  0  0  0  0  0  0  0  0  0
    7.4148   -1.6989    1.3669 C   0  0  0  0  0  0  0  0  0  0  0  0
    8.7667   -1.8803    1.2237 C   0  0  0  0  0  0  0  0  0  0  0  0
    9.8873   -2.0298    2.1686 C   0  0  0  0  0  0  0  0  0  0  0  0
    9.0733   -1.9119   -0.1023 O   0  0  0  0  0  0  0  0  0  0  0  0
    7.9163   -1.7599   -0.8436 N   0  0  0  0  0  0  0  0  0  0  0  0
   -1.7942    2.6630   -1.1673 C   0  0  0  0  0  0  0  0  0  0  0  0
   -2.4259    3.9071   -1.0567 C   0  0  0  0  0  0  0  0  0  0  0  0
   -4.5669    7.1504   -0.5724 H   0  0  0  0  0  0  0  0  0  0  0  0
   -4.0232    6.0929   -1.8847 H   0  0  0  0  0  0  0  0  0  0  0  0
   -2.8649    6.6752   -0.6235 H   0  0  0  0  0  0  0  0  0  0  0  0
   -4.8059    3.0884    1.2186 H   0  0  0  0  0  0  0  0  0  0  0  0
   -3.7093    0.8984    1.0385 H   0  0  0  0  0  0  0  0  0  0  0  0
   -1.2472    0.1509   -1.6464 H   0  0  0  0  0  0  0  0  0  0  0  0
   -3.3624   -0.6124   -2.1047 H   0  0  0  0  0  0  0  0  0  0  0  0
   -2.8807   -3.8269   -2.1119 H   0  0  0  0  0  0  0  0  0  0  0  0
   -3.0635   -3.8841   -0.3573 H   0  0  0  0  0  0  0  0  0  0  0  0
   -4.3293   -4.5524   -1.3880 H   0  0  0  0  0  0  0  0  0  0  0  0
   -5.8643   -3.0726   -2.7081 H   0  0  0  0  0  0  0  0  0  0  0  0
   -4.4588   -2.3558   -3.5209 H   0  0  0  0  0  0  0  0  0  0  0  0
   -5.6399   -1.3124   -2.7233 H   0  0  0  0  0  0  0  0  0  0  0  0
   -4.7892   -2.3419    0.8079 H   0  0  0  0  0  0  0  0  0  0  0  0
   -5.7795   -1.2499   -0.1653 H   0  0  0  0  0  0  0  0  0  0  0  0
   -6.0759   -2.9980   -0.2060 H   0  0  0  0  0  0  0  0  0  0  0  0
   -1.3498    0.2949    2.0212 H   0  0  0  0  0  0  0  0  0  0  0  0
    0.2788   -0.2631    2.2117 H   0  0  0  0  0  0  0  0  0  0  0  0
    1.1540    2.0511    1.6750 H   0  0  0  0  0  0  0  0  0  0  0  0
   -0.4973    2.6373    1.5323 H   0  0  0  0  0  0  0  0  0  0  0  0
   -0.8530    2.0681    3.6789 H   0  0  0  0  0  0  0  0  0  0  0  0
    1.8580   -1.4361    1.1783 H   0  0  0  0  0  0  0  0  0  0  0  0
    2.3449    0.2646    0.9832 H   0  0  0  0  0  0  0  0  0  0  0  0
    3.4558   -0.3291   -1.1933 H   0  0  0  0  0  0  0  0  0  0  0  0
    3.0486   -2.0346   -0.9183 H   0  0  0  0  0  0  0  0  0  0  0  0
    5.5457   -1.4495   -1.4123 H   0  0  0  0  0  0  0  0  0  0  0  0
    6.8653   -1.6322    2.2965 H   0  0  0  0  0  0  0  0  0  0  0  0
   10.6824   -2.6529    1.7433 H   0  0  0  0  0  0  0  0  0  0  0  0
   10.3091   -1.0514    2.4133 H   0  0  0  0  0  0  0  0  0  0  0  0
    9.5518   -2.5016    3.0983 H   0  0  0  0  0  0  0  0  0  0  0  0
   -0.9369    2.5636   -1.8331 H   0  0  0  0  0  0  0  0  0  0  0  0
   -2.0365    4.7320   -1.6459 H   0  0  0  0  0  0  0  0  0  0  0  0
  1  2  1  0
  2  3  1  0
  3  4  2  0
  4  5  1  0
  5  6  2  0
  6  7  1  0
  7  8  1  0
  8  9  2  0
  8 10  1  0
 10 11  1  0
 11 12  1  0
 11 13  1  0
 11 14  1  0
  7 15  1  0
 15 16  1  0
 16 17  1  0
 17 18  1  0
 15 19  1  0
 19 20  2  0
 19 21  1  0
 21 22  1  0
 22 23  1  0
 23 24  2  0
 23 25  1  0
 25 26  1  0
 26 27  1  0
 27 28  2  0
 28 29  1  0
 28 30  1  0
 30 31  1  0
  6 32  1  0
 32 33  2  0
 33  3  1  0
 31 26  2  0
  1 34  1  0
  1 35  1  0
  1 36  1  0
  4 37  1  0
  5 38  1  0
  7 39  1  0
 10 40  1  0
 12 41  1  0
 12 42  1  0
 12 43  1  0
 13 44  1  0
 13 45  1  0
 13 46  1  0
 14 47  1  0
 14 48  1  0
 14 49  1  0
 16 50  1  0
 16 51  1  0
 17 52  1  0
 17 53  1  0
 18 54  1  0
 21 55  1  0
 21 56  1  0
 22 57  1  0
 22 58  1  0
 25 59  1  0
 27 60  1  0
 29 61  1  0
 29 62  1  0
 29 63  1  0
 32 64  1  0
 33 65  1  0
M  END
$$$$
