
     RDKit          3D

 57 60  0  0  0  0  0  0  0  0999 V2000
   -7.0586    1.1146    2.9618 C   0  0  0  0  0  0  0  0  0  0  0  0
   -6.4205    0.0419    2.2793 O   0  0  0  0  0  0  0  0  0  0  0  0
   -5.4068    0.3703    1.4212 C   0  0  0  0  0  0  0  0  0  0  0  0
   -4.9600    1.6602    1.1381 C   0  0  0  0  0  0  0  0  0  0  0  0
   -3.9090    1.8631    0.2356 C   0  0  0  0  0  0  0  0  0  0  0  0
   -3.2987    0.7761   -0.3889 C   0  0  0  0  0  0  0  0  0  0  0  0
   -2.2339    0.8902   -1.3088 N   0  0  0  0  0  0  0  0  0  0  0  0
   -1.5532    2.0237   -1.7040 C   0  0  0  0  0  0  0  0  0  0  0  0
   -1.7800    3.1706   -1.3236 O   0  0  0  0  0  0  0  0  0  0  0  0
   -0.4746    1.7647   -2.7412 C   0  0  0  0  0  0  0  0  0  0  0  0
    0.4835    0.7553   -2.3111 N   0  0  0  0  0  0  0  0  0  0  0  0
    1.4919    0.9935   -1.4085 C   0  0  0  0  0  0  0  0  0  0  0  0
    2.1559   -0.1975   -1.2005 C   0  0  0  0  0  0  0  0  0  0  0  0
    3.4965   -0.4910   -0.1433 S   0  0  0  0  0  6  0  0  0  0  0  0
    4.5959   -0.7242   -1.0596 O   0  0  0  0  0  0  0  0  0  0  0  0
    2.9949   -1.5111    0.7570 O   0  0  0  0  0  0  0  0  0  0  0  0
    3.7412    1.0435    0.7380 C   0  0  0  0  0  0  0  0  0  0  0  0
    4.8739    0.8805    1.7175 C   0  0  0  0  0  0  0  0  0  0  0  0
    6.1968    1.1338    1.3269 C   0  0  0  0  0  0  0  0  0  0  0  0
    7.2446    0.9792    2.2356 C   0  0  0  0  0  0  0  0  0  0  0  0
    6.9824    0.5683    3.5408 C   0  0  0  0  0  0  0  0  0  0  0  0
    5.6729    0.3071    3.9380 C   0  0  0  0  0  0  0  0  0  0  0  0
    4.6230    0.4602    3.0317 C   0  0  0  0  0  0  0  0  0  0  0  0
    1.5470   -1.1898   -2.0225 C   0  0  0  0  0  0  0  0  0  0  0  0
    1.7777   -2.5648   -2.2422 C   0  0  0  0  0  0  0  0  0  0  0  0
    0.9711   -3.2715   -3.1386 C   0  0  0  0  0  0  0  0  0  0  0  0
   -0.0573   -2.6297   -3.8184 C   0  0  0  0  0  0  0  0  0  0  0  0
   -0.3094   -1.2691   -3.6226 C   0  0  0  0  0  0  0  0  0  0  0  0
    0.5043   -0.5648   -2.7180 C   0  0  0  0  0  0  0  0  0  0  0  0
   -3.7474   -0.5299   -0.1046 C   0  0  0  0  0  0  0  0  0  0  0  0
   -3.0896   -1.5344   -0.7770 O   0  0  0  0  0  0  0  0  0  0  0  0
   -3.3442   -2.8677   -0.3500 C   0  0  0  0  0  0  0  0  0  0  0  0
   -4.7985   -0.7225    0.7951 C   0  0  0  0  0  0  0  0  0  0  0  0
   -7.5550    1.7904    2.2578 H   0  0  0  0  0  0  0  0  0  0  0  0
   -6.3496    1.6545    3.5974 H   0  0  0  0  0  0  0  0  0  0  0  0
   -7.8278    0.6861    3.6114 H   0  0  0  0  0  0  0  0  0  0  0  0
   -5.4066    2.5362    1.5983 H   0  0  0  0  0  0  0  0  0  0  0  0
   -3.5937    2.8831    0.0416 H   0  0  0  0  0  0  0  0  0  0  0  0
   -1.9151   -0.0154   -1.6494 H   0  0  0  0  0  0  0  0  0  0  0  0
   -0.9332    1.4604   -3.6857 H   0  0  0  0  0  0  0  0  0  0  0  0
    0.0893    2.6868   -2.9210 H   0  0  0  0  0  0  0  0  0  0  0  0
    1.6309    1.9818   -0.9886 H   0  0  0  0  0  0  0  0  0  0  0  0
    3.9710    1.8302    0.0128 H   0  0  0  0  0  0  0  0  0  0  0  0
    2.8132    1.2974    1.2598 H   0  0  0  0  0  0  0  0  0  0  0  0
    6.4247    1.4427    0.3079 H   0  0  0  0  0  0  0  0  0  0  0  0
    8.2674    1.1724    1.9223 H   0  0  0  0  0  0  0  0  0  0  0  0
    7.7999    0.4432    4.2460 H   0  0  0  0  0  0  0  0  0  0  0  0
    5.4689   -0.0240    4.9530 H   0  0  0  0  0  0  0  0  0  0  0  0
    3.6088    0.2369    3.3586 H   0  0  0  0  0  0  0  0  0  0  0  0
    2.5793   -3.0788   -1.7163 H   0  0  0  0  0  0  0  0  0  0  0  0
    1.1547   -4.3304   -3.3036 H   0  0  0  0  0  0  0  0  0  0  0  0
   -0.6743   -3.1942   -4.5142 H   0  0  0  0  0  0  0  0  0  0  0  0
   -1.1178   -0.7887   -4.1649 H   0  0  0  0  0  0  0  0  0  0  0  0
   -4.3703   -3.1658   -0.5893 H   0  0  0  0  0  0  0  0  0  0  0  0
   -3.1335   -2.9917    0.7175 H   0  0  0  0  0  0  0  0  0  0  0  0
   -2.6687   -3.5284   -0.9020 H   0  0  0  0  0  0  0  0  0  0  0  0
   -5.1740   -1.7133    1.0291 H   0  0  0  0  0  0  0  0  0  0  0  0
  1  2  1  0
  2  3  1  0
  3  4  2  0
  4  5  1  0
  5  6  2  0
  6  7  1  0
  7  8  1  0
  8  9  2  0
  8 10  1  0
 10 11  1  0
 11 12  1  0
 12 13  2  0
 13 14  1  0
 14 15  2  0
 14 16  2  0
 14 17  1  0
 17 18  1  0
 18 19  2  0
 19 20  1  0
 20 21  2  0
 21 22  1  0
 22 23  2  0
 13 24  1  0
 24 25  2  0
 25 26  1  0
 26 27  2  0
 27 28  1  0
 28 29  2  0
  6 30  1  0
 30 31  1  0
 31 32  1  0
 30 33  2  0
 33  3  1  0
 29 11  1  0
 23 18  1  0
 29 24  1  0
  1 34  1  0
  1 35  1  0
  1 36  1  0
  4 37  1  0
  5 38  1  0
  7 39  1  0
 10 40  1  0
 10 41  1  0
 12 42  1  0
 17 43  1  0
 17 44  1  0
 19 45  1  0
 20 46  1  0
 21 47  1  0
 22 48  1  0
 23 49  1  0
 25 50  1  0
 26 51  1  0
 27 52  1  0
 28 53  1  0
 32 54  1  0
 32 55  1  0
 32 56  1  0
 33 57  1  0
M  END
$$$$
