
     RDKit          3D

 74 78  0  0  0  0  0  0  0  0999 V2000
   -3.3208    0.0525   -2.2122 C   0  0  0  0  0  0  0  0  0  0  0  0
   -2.4683    1.0899   -1.4680 C   0  0  0  0  0  0  0  0  0  0  0  0
   -3.3619    2.0822   -0.7175 C   0  0  0  0  0  0  0  0  0  0  0  0
   -2.9473    3.4805   -0.5051 N   0  0  0  0  0  0  0  0  0  0  0  0
   -4.0574    4.3592   -0.0406 C   0  0  0  0  0  0  0  0  0  0  0  0
   -4.2884    5.5419   -0.9921 C   0  0  0  0  0  0  0  0  0  0  0  0
   -3.9347    4.7949    1.4361 C   0  0  0  0  0  0  0  0  0  0  0  0
   -5.1510    5.3827    1.8956 O   0  0  0  0  0  0  0  0  0  0  0  0
   -1.6623    4.0419   -0.4797 C   0  0  0  0  0  0  0  0  0  0  0  0
   -1.4720    5.1874   -0.0621 O   0  0  0  0  0  0  0  0  0  0  0  0
   -0.4448    3.3884   -1.0051 C   0  0  0  0  0  0  0  0  0  0  0  0
    0.3253    4.1548   -1.8936 C   0  0  0  0  0  0  0  0  0  0  0  0
    1.5635    3.6982   -2.3326 C   0  0  0  0  0  0  0  0  0  0  0  0
    2.0632    2.4845   -1.8621 C   0  0  0  0  0  0  0  0  0  0  0  0
    1.3246    1.7016   -0.9678 C   0  0  0  0  0  0  0  0  0  0  0  0
    1.8180    0.4907   -0.4121 N   0  0  0  0  0  0  0  0  0  0  0  0
    2.9755   -0.1895   -0.7746 C   0  0  0  0  0  0  0  0  0  0  0  0
    3.6851    0.1177   -1.7249 O   0  0  0  0  0  0  0  0  0  0  0  0
    3.2275   -1.2495    0.0805 N   0  0  0  0  0  0  0  0  0  0  0  0
    4.3253   -2.1415    0.0472 C   0  0  0  0  0  0  0  0  0  0  0  0
    4.3778   -3.1244    1.0631 C   0  0  0  0  0  0  0  0  0  0  0  0
    5.4206   -4.0560    1.1277 C   0  0  0  0  0  0  0  0  0  0  0  0
    6.3999   -3.9793    0.1643 C   0  0  0  0  0  0  0  0  0  0  0  0
    6.3599   -3.0290   -0.8286 C   0  0  0  0  0  0  0  0  0  0  0  0
    5.3414   -2.0992   -0.9152 C   0  0  0  0  0  0  0  0  0  0  0  0
    7.4148   -3.1307   -1.6839 O   0  0  0  0  0  0  0  0  0  0  0  0
    8.1406   -4.2273   -1.0888 C   0  0  0  0  0  0  0  0  0  0  0  0
    7.4794   -4.7960    0.0588 O   0  0  0  0  0  0  0  0  0  0  0  0
    0.0475    2.1556   -0.5675 C   0  0  0  0  0  0  0  0  0  0  0  0
   -0.7273    1.3828    0.2594 O   0  0  0  0  0  0  0  0  0  0  0  0
   -1.4443    0.4004   -0.5270 C   0  0  0  0  0  0  0  0  0  0  0  0
   -2.0684   -0.5949    0.4846 C   0  0  0  0  0  0  0  0  0  0  0  0
   -0.9983   -1.1883    1.3276 N   0  0  0  0  0  0  0  0  0  0  0  0
   -1.1524   -0.9767    2.7727 C   0  0  0  0  0  0  0  0  0  0  0  0
   -0.2277   -2.5890    0.8060 S   0  0  0  0  0  6  0  0  0  0  0  0
    1.0698   -2.5829    1.4556 O   0  0  0  0  0  0  0  0  0  0  0  0
   -0.3437   -2.6664   -0.6338 O   0  0  0  0  0  0  0  0  0  0  0  0
   -1.0630   -4.0086    1.4679 C   0  0  0  0  0  0  0  0  0  0  0  0
   -0.6784   -4.9493    2.4062 C   0  0  0  0  0  0  0  0  0  0  0  0
   -1.6792   -5.9378    2.6288 C   0  0  0  0  0  0  0  0  0  0  0  0
   -2.7925   -5.7239    1.8466 C   0  0  0  0  0  0  0  0  0  0  0  0
   -2.6338   -4.3265    0.8718 S   0  0  0  0  0  0  0  0  0  0  0  0
   -4.0273   -0.4522   -1.5446 H   0  0  0  0  0  0  0  0  0  0  0  0
   -2.6895   -0.7015   -2.6935 H   0  0  0  0  0  0  0  0  0  0  0  0
   -3.9075    0.5407   -2.9979 H   0  0  0  0  0  0  0  0  0  0  0  0
   -1.9329    1.6358   -2.2520 H   0  0  0  0  0  0  0  0  0  0  0  0
   -4.3129    2.1424   -1.2702 H   0  0  0  0  0  0  0  0  0  0  0  0
   -3.6219    1.6952    0.2769 H   0  0  0  0  0  0  0  0  0  0  0  0
   -4.9838    3.7725   -0.1032 H   0  0  0  0  0  0  0  0  0  0  0  0
   -3.4811    6.2808   -0.9449 H   0  0  0  0  0  0  0  0  0  0  0  0
   -5.2262    6.0580   -0.7544 H   0  0  0  0  0  0  0  0  0  0  0  0
   -4.3534    5.1911   -2.0301 H   0  0  0  0  0  0  0  0  0  0  0  0
   -3.7395    3.9219    2.0662 H   0  0  0  0  0  0  0  0  0  0  0  0
   -3.1270    5.5098    1.6128 H   0  0  0  0  0  0  0  0  0  0  0  0
   -5.1298    6.3132    1.6086 H   0  0  0  0  0  0  0  0  0  0  0  0
   -0.0286    5.1312   -2.2174 H   0  0  0  0  0  0  0  0  0  0  0  0
    2.1666    4.3032   -3.0074 H   0  0  0  0  0  0  0  0  0  0  0  0
    3.0519    2.1900   -2.1977 H   0  0  0  0  0  0  0  0  0  0  0  0
    1.2395    0.0840    0.3085 H   0  0  0  0  0  0  0  0  0  0  0  0
    2.5449   -1.4345    0.8141 H   0  0  0  0  0  0  0  0  0  0  0  0
    3.6007   -3.1685    1.8214 H   0  0  0  0  0  0  0  0  0  0  0  0
    5.4585   -4.8082    1.9088 H   0  0  0  0  0  0  0  0  0  0  0  0
    5.3644   -1.3735   -1.7184 H   0  0  0  0  0  0  0  0  0  0  0  0
    8.2706   -5.0103   -1.8428 H   0  0  0  0  0  0  0  0  0  0  0  0
    9.1278   -3.8668   -0.7830 H   0  0  0  0  0  0  0  0  0  0  0  0
   -0.7358   -0.1618   -1.1480 H   0  0  0  0  0  0  0  0  0  0  0  0
   -2.7776   -0.0756    1.1399 H   0  0  0  0  0  0  0  0  0  0  0  0
   -2.6335   -1.3829   -0.0209 H   0  0  0  0  0  0  0  0  0  0  0  0
   -1.2174    0.0966    2.9900 H   0  0  0  0  0  0  0  0  0  0  0  0
   -0.2936   -1.3625    3.3277 H   0  0  0  0  0  0  0  0  0  0  0  0
   -2.0590   -1.4700    3.1338 H   0  0  0  0  0  0  0  0  0  0  0  0
    0.2859   -4.9246    2.9000 H   0  0  0  0  0  0  0  0  0  0  0  0
   -1.5841   -6.7697    3.3162 H   0  0  0  0  0  0  0  0  0  0  0  0
   -3.6905   -6.3249    1.7959 H   0  0  0  0  0  0  0  0  0  0  0  0
  1  2  1  0
  2  3  1  0
  3  4  1  0
  4  5  1  0
  5  6  1  0
  5  7  1  0
  7  8  1  0
  4  9  1  0
  9 10  2  0
  9 11  1  0
 11 12  2  0
 12 13  1  0
 13 14  2  0
 14 15  1  0
 15 16  1  0
 16 17  1  0
 17 18  2  0
 17 19  1  0
 19 20  1  0
 20 21  2  0
 21 22  1  0
 22 23  2  0
 23 24  1  0
 24 25  2  0
 24 26  1  0
 26 27  1  0
 27 28  1  0
 15 29  2  0
 29 30  1  0
 30 31  1  0
 31 32  1  0
 32 33  1  0
 33 34  1  0
 33 35  1  0
 35 36  2  0
 35 37  2  0
 35 38  1  0
 38 39  2  0
 39 40  1  0
 40 41  2  0
 41 42  1  0
 31  2  1  0
 42 38  1  0
 29 11  1  0
 25 20  1  0
 28 23  1  0
  1 43  1  0
  1 44  1  0
  1 45  1  0
  2 46  1  0
  3 47  1  0
  3 48  1  0
  5 49  1  0
  6 50  1  0
  6 51  1  0
  6 52  1  0
  7 53  1  0
  7 54  1  0
  8 55  1  0
 12 56  1  0
 13 57  1  0
 14 58  1  0
 16 59  1  0
 19 60  1  0
 21 61  1  0
 22 62  1  0
 25 63  1  0
 27 64  1  0
 27 65  1  0
 31 66  1  0
 32 67  1  0
 32 68  1  0
 34 69  1  0
 34 70  1  0
 34 71  1  0
 39 72  1  0
 40 73  1  0
 41 74  1  0
M  END
$$$$
