
     RDKit          3D

 58 61  0  0  0  0  0  0  0  0999 V2000
   -5.3554    5.0303    0.0653 C   0  0  0  0  0  0  0  0  0  0  0  0
   -5.1514    3.6438   -0.1780 O   0  0  0  0  0  0  0  0  0  0  0  0
   -4.1206    3.0431    0.4916 C   0  0  0  0  0  0  0  0  0  0  0  0
   -3.2258    3.6745    1.3558 C   0  0  0  0  0  0  0  0  0  0  0  0
   -2.2126    2.9387    1.9763 C   0  0  0  0  0  0  0  0  0  0  0  0
   -2.0891    1.5701    1.7340 C   0  0  0  0  0  0  0  0  0  0  0  0
   -2.9779    0.9220    0.8683 C   0  0  0  0  0  0  0  0  0  0  0  0
   -2.8363   -0.5150    0.6003 C   0  0  0  0  0  0  0  0  0  0  0  0
   -4.1059   -1.5583    1.0788 S   0  0  0  0  0  0  0  0  0  0  0  0
   -3.2857   -2.9612    0.5276 C   0  0  0  0  0  0  0  0  0  0  0  0
   -3.7481   -4.2898    0.5925 C   0  0  0  0  0  0  0  0  0  0  0  0
   -2.9459   -5.3202    0.0889 C   0  0  0  0  0  0  0  0  0  0  0  0
   -1.7085   -5.0415   -0.4745 C   0  0  0  0  0  0  0  0  0  0  0  0
   -0.8388   -5.9576   -0.9999 O   0  0  0  0  0  0  0  0  0  0  0  0
   -1.2567   -7.3167   -1.0026 C   0  0  0  0  0  0  0  0  0  0  0  0
   -1.2614   -3.7161   -0.5330 C   0  0  0  0  0  0  0  0  0  0  0  0
   -2.0445   -2.6455   -0.0248 C   0  0  0  0  0  0  0  0  0  0  0  0
   -1.7894   -1.2207    0.0246 C   0  0  0  0  0  0  0  0  0  0  0  0
   -0.5826   -0.5548   -0.4587 C   0  0  0  0  0  0  0  0  0  0  0  0
    0.6484   -0.8051    0.1582 C   0  0  0  0  0  0  0  0  0  0  0  0
    1.8125   -0.1755   -0.2981 C   0  0  0  0  0  0  0  0  0  0  0  0
    1.7563    0.7061   -1.3778 C   0  0  0  0  0  0  0  0  0  0  0  0
    2.8081    1.3934   -1.9163 O   0  0  0  0  0  0  0  0  0  0  0  0
    4.1340    1.0311   -1.5150 C   0  0  0  0  0  0  0  0  0  0  0  0
    4.5915    1.8857   -0.3196 C   0  0  0  0  0  0  0  0  0  0  0  0
    5.8919    1.4791    0.2505 N   0  0  0  0  0  0  0  0  0  0  0  0
    6.9939    1.7043   -0.6879 C   0  0  0  0  0  0  0  0  0  0  0  0
    6.1436    2.2178    1.4919 C   0  0  0  0  0  0  0  0  0  0  0  0
    0.5246    0.9579   -1.9888 C   0  0  0  0  0  0  0  0  0  0  0  0
   -0.6395    0.3293   -1.5392 C   0  0  0  0  0  0  0  0  0  0  0  0
   -3.9907    1.6713    0.2519 C   0  0  0  0  0  0  0  0  0  0  0  0
   -6.2329    5.3443   -0.5070 H   0  0  0  0  0  0  0  0  0  0  0  0
   -5.5627    5.2218    1.1232 H   0  0  0  0  0  0  0  0  0  0  0  0
   -4.5015    5.6200   -0.2840 H   0  0  0  0  0  0  0  0  0  0  0  0
   -3.2860    4.7368    1.5673 H   0  0  0  0  0  0  0  0  0  0  0  0
   -1.5157    3.4332    2.6486 H   0  0  0  0  0  0  0  0  0  0  0  0
   -1.2942    1.0126    2.2247 H   0  0  0  0  0  0  0  0  0  0  0  0
   -4.7172   -4.5150    1.0297 H   0  0  0  0  0  0  0  0  0  0  0  0
   -3.3277   -6.3337    0.1556 H   0  0  0  0  0  0  0  0  0  0  0  0
   -2.1642   -7.4488   -1.6003 H   0  0  0  0  0  0  0  0  0  0  0  0
   -0.4629   -7.9096   -1.4674 H   0  0  0  0  0  0  0  0  0  0  0  0
   -1.3956   -7.6884    0.0175 H   0  0  0  0  0  0  0  0  0  0  0  0
   -0.2931   -3.5057   -0.9823 H   0  0  0  0  0  0  0  0  0  0  0  0
    0.7105   -1.4881    1.0027 H   0  0  0  0  0  0  0  0  0  0  0  0
    2.7406   -0.3907    0.2219 H   0  0  0  0  0  0  0  0  0  0  0  0
    4.7731    1.2447   -2.3790 H   0  0  0  0  0  0  0  0  0  0  0  0
    4.2316   -0.0455   -1.3299 H   0  0  0  0  0  0  0  0  0  0  0  0
    3.8240    1.8116    0.4613 H   0  0  0  0  0  0  0  0  0  0  0  0
    4.6018    2.9439   -0.6157 H   0  0  0  0  0  0  0  0  0  0  0  0
    7.0565    2.7501   -1.0093 H   0  0  0  0  0  0  0  0  0  0  0  0
    7.9526    1.4287   -0.2320 H   0  0  0  0  0  0  0  0  0  0  0  0
    6.8911    1.0731   -1.5766 H   0  0  0  0  0  0  0  0  0  0  0  0
    7.0757    1.8806    1.9592 H   0  0  0  0  0  0  0  0  0  0  0  0
    6.2123    3.2984    1.3236 H   0  0  0  0  0  0  0  0  0  0  0  0
    5.3468    2.0324    2.2207 H   0  0  0  0  0  0  0  0  0  0  0  0
    0.4703    1.6473   -2.8279 H   0  0  0  0  0  0  0  0  0  0  0  0
   -1.5840    0.5368   -2.0372 H   0  0  0  0  0  0  0  0  0  0  0  0
   -4.6875    1.1891   -0.4298 H   0  0  0  0  0  0  0  0  0  0  0  0
  1  2  1  0
  2  3  1  0
  3  4  2  0
  4  5  1  0
  5  6  2  0
  6  7  1  0
  7  8  1  0
  8  9  1  0
  9 10  1  0
 10 11  2  0
 11 12  1  0
 12 13  2  0
 13 14  1  0
 14 15  1  0
 13 16  1  0
 16 17  2  0
 17 18  1  0
 18 19  1  0
 19 20  2  0
 20 21  1  0
 21 22  2  0
 22 23  1  0
 23 24  1  0
 24 25  1  0
 25 26  1  0
 26 27  1  0
 26 28  1  0
 22 29  1  0
 29 30  2  0
  7 31  2  0
 31  3  1  0
 18  8  2  0
 30 19  1  0
 17 10  1  0
  1 32  1  0
  1 33  1  0
  1 34  1  0
  4 35  1  0
  5 36  1  0
  6 37  1  0
 11 38  1  0
 12 39  1  0
 15 40  1  0
 15 41  1  0
 15 42  1  0
 16 43  1  0
 20 44  1  0
 21 45  1  0
 24 46  1  0
 24 47  1  0
 25 48  1  0
 25 49  1  0
 27 50  1  0
 27 51  1  0
 27 52  1  0
 28 53  1  0
 28 54  1  0
 28 55  1  0
 29 56  1  0
 30 57  1  0
 31 58  1  0
M  END
$$$$
