
     RDKit          3D

 43 45  0  0  0  0  0  0  0  0999 V2000
   -6.1167   -2.2199    0.4741 C   0  0  0  0  0  0  0  0  0  0  0  0
   -6.1445   -0.8560    0.8796 O   0  0  0  0  0  0  0  0  0  0  0  0
   -5.0389   -0.1028    0.6009 C   0  0  0  0  0  0  0  0  0  0  0  0
   -5.1423    1.2413    0.9593 C   0  0  0  0  0  0  0  0  0  0  0  0
   -4.0876    2.1319    0.7291 C   0  0  0  0  0  0  0  0  0  0  0  0
   -2.9046    1.6905    0.1310 C   0  0  0  0  0  0  0  0  0  0  0  0
   -1.8283    2.4965   -0.1077 O   0  0  0  0  0  0  0  0  0  0  0  0
   -2.0514    3.9011   -0.1192 C   0  0  0  0  0  0  0  0  0  0  0  0
   -2.8002    0.3360   -0.2113 C   0  0  0  0  0  0  0  0  0  0  0  0
   -1.3236   -0.2910   -0.9769 S   0  0  0  0  0  6  0  0  0  0  0  0
   -1.0591    0.5013   -2.1570 O   0  0  0  0  0  0  0  0  0  0  0  0
   -1.4508   -1.7344   -1.0552 O   0  0  0  0  0  0  0  0  0  0  0  0
   -0.1487   -0.0208    0.2344 N   0  0  0  0  0  0  0  0  0  0  0  0
    1.1941    0.0481   -0.2620 C   0  0  0  0  0  0  0  0  0  0  0  0
    1.6865    1.2687   -0.7184 C   0  0  0  0  0  0  0  0  0  0  0  0
    2.9769    1.3428   -1.2388 C   0  0  0  0  0  0  0  0  0  0  0  0
    3.7658    0.1953   -1.3068 C   0  0  0  0  0  0  0  0  0  0  0  0
    5.0230    0.3644   -1.8207 O   0  0  0  0  0  0  0  0  0  0  0  0
    3.2723   -1.0459   -0.8764 C   0  0  0  0  0  0  0  0  0  0  0  0
    4.1804   -2.5776   -1.0271 S   0  0  0  0  0  0  0  0  0  0  0  0
    5.5217   -2.3075    0.0467 C   0  0  0  0  0  0  0  0  0  0  0  0
    5.6643   -2.9290    1.2544 N   0  0  0  0  0  0  0  0  0  0  0  0
    6.8003   -2.4479    1.7013 C   0  0  0  0  0  0  0  0  0  0  0  0
    7.3124   -1.5748    0.7945 N   0  0  0  0  0  0  0  0  0  0  0  0
    6.5120   -1.4671   -0.2809 N   0  0  0  0  0  0  0  0  0  0  0  0
    1.9694   -1.1097   -0.3613 C   0  0  0  0  0  0  0  0  0  0  0  0
   -3.8621   -0.5579    0.0144 C   0  0  0  0  0  0  0  0  0  0  0  0
   -7.0788   -2.6675    0.7413 H   0  0  0  0  0  0  0  0  0  0  0  0
   -5.9982   -2.3072   -0.6111 H   0  0  0  0  0  0  0  0  0  0  0  0
   -5.3335   -2.7718    1.0041 H   0  0  0  0  0  0  0  0  0  0  0  0
   -6.0573    1.6030    1.4244 H   0  0  0  0  0  0  0  0  0  0  0  0
   -4.2221    3.1632    1.0396 H   0  0  0  0  0  0  0  0  0  0  0  0
   -1.1461    4.3788   -0.5060 H   0  0  0  0  0  0  0  0  0  0  0  0
   -2.2176    4.2765    0.8952 H   0  0  0  0  0  0  0  0  0  0  0  0
   -2.8806    4.1714   -0.7820 H   0  0  0  0  0  0  0  0  0  0  0  0
   -0.2490   -0.7796    0.9103 H   0  0  0  0  0  0  0  0  0  0  0  0
    1.0662    2.1598   -0.6772 H   0  0  0  0  0  0  0  0  0  0  0  0
    3.3671    2.2916   -1.5964 H   0  0  0  0  0  0  0  0  0  0  0  0
    5.5681   -0.4061   -1.5526 H   0  0  0  0  0  0  0  0  0  0  0  0
    7.2835   -2.6872    2.6381 H   0  0  0  0  0  0  0  0  0  0  0  0
    8.1718   -1.0373    0.8360 H   0  0  0  0  0  0  0  0  0  0  0  0
    1.5563   -2.0661   -0.0504 H   0  0  0  0  0  0  0  0  0  0  0  0
   -3.7502   -1.5971   -0.2789 H   0  0  0  0  0  0  0  0  0  0  0  0
  1  2  1  0
  2  3  1  0
  3  4  2  0
  4  5  1  0
  5  6  2  0
  6  7  1  0
  7  8  1  0
  6  9  1  0
  9 10  1  0
 10 11  2  0
 10 12  2  0
 10 13  1  0
 13 14  1  0
 14 15  2  0
 15 16  1  0
 16 17  2  0
 17 18  1  0
 17 19  1  0
 19 20  1  0
 20 21  1  0
 21 22  1  0
 22 23  2  0
 23 24  1  0
 24 25  1  0
 19 26  2  0
  9 27  2  0
 27  3  1  0
 26 14  1  0
 25 21  2  0
  1 28  1  0
  1 29  1  0
  1 30  1  0
  4 31  1  0
  5 32  1  0
  8 33  1  0
  8 34  1  0
  8 35  1  0
 13 36  1  0
 15 37  1  0
 16 38  1  0
 18 39  1  0
 23 40  1  0
 24 41  1  0
 26 42  1  0
 27 43  1  0
M  END
$$$$
