
     RDKit          3D

 51 55  0  0  0  0  0  0  0  0999 V2000
   -9.9309    0.0769   -2.7699 C   0  0  0  0  0  0  0  0  0  0  0  0
   -9.4633    0.3302   -1.3663 C   0  0  0  0  0  0  0  0  0  0  0  0
  -10.3924    0.4869   -0.3301 C   0  0  0  0  0  0  0  0  0  0  0  0
   -9.9640    0.7138    0.9785 C   0  0  0  0  0  0  0  0  0  0  0  0
   -8.6010    0.7660    1.2678 C   0  0  0  0  0  0  0  0  0  0  0  0
   -7.6604    0.5757    0.2494 C   0  0  0  0  0  0  0  0  0  0  0  0
   -6.2127    0.6247    0.6035 C   0  0  0  0  0  0  0  0  0  0  0  0
   -5.8610    1.3781    1.5021 O   0  0  0  0  0  0  0  0  0  0  0  0
   -5.4176   -0.2359   -0.1170 N   0  0  0  0  0  0  0  0  0  0  0  0
   -4.0563   -0.3799   -0.0103 C   0  0  0  0  0  0  0  0  0  0  0  0
   -3.3970   -1.2821   -0.7051 N   0  0  0  0  0  0  0  0  0  0  0  0
   -2.0403   -1.2428   -0.4503 N   0  0  0  0  0  0  0  0  0  0  0  0
   -1.7359   -0.3115    0.4275 C   0  0  0  0  0  0  0  0  0  0  0  0
   -0.0964   -0.0085    0.9485 S   0  0  0  0  0  0  0  0  0  0  0  0
    0.7224   -1.4971    0.3053 C   0  0  0  0  0  0  0  0  0  0  0  0
    2.1999   -1.4710    0.6604 C   0  0  0  0  0  0  0  0  0  0  0  0
    2.6735   -2.2977    1.4342 O   0  0  0  0  0  0  0  0  0  0  0  0
    2.8970   -0.4702   -0.0014 N   0  0  0  0  0  0  0  0  0  0  0  0
    4.2797   -0.1947    0.0614 C   0  0  0  0  0  0  0  0  0  0  0  0
    4.7311    0.9221   -0.6610 C   0  0  0  0  0  0  0  0  0  0  0  0
    6.0851    1.2955   -0.6773 C   0  0  0  0  0  0  0  0  0  0  0  0
    7.0050    0.5233    0.0513 C   0  0  0  0  0  0  0  0  0  0  0  0
    6.5283   -0.5769    0.7537 C   0  0  0  0  0  0  0  0  0  0  0  0
    5.1891   -0.9714    0.7875 C   0  0  0  0  0  0  0  0  0  0  0  0
    7.5481   -1.2092    1.3984 O   0  0  0  0  0  0  0  0  0  0  0  0
    8.6867   -0.5187    1.1173 C   0  0  0  0  0  0  0  0  0  0  0  0
    9.9585   -0.8383    1.5880 C   0  0  0  0  0  0  0  0  0  0  0  0
   11.0036   -0.0009    1.1846 C   0  0  0  0  0  0  0  0  0  0  0  0
   10.7693    1.0958    0.3511 C   0  0  0  0  0  0  0  0  0  0  0  0
    9.4773    1.3923   -0.1076 C   0  0  0  0  0  0  0  0  0  0  0  0
    8.4105    0.5627    0.2875 C   0  0  0  0  0  0  0  0  0  0  0  0
   -3.0763    0.5911    0.9889 S   0  0  0  0  0  0  0  0  0  0  0  0
   -8.0934    0.3672   -1.0687 C   0  0  0  0  0  0  0  0  0  0  0  0
   -9.2191    0.4810   -3.4974 H   0  0  0  0  0  0  0  0  0  0  0  0
  -10.8948    0.5630   -2.9546 H   0  0  0  0  0  0  0  0  0  0  0  0
  -10.0384   -0.9990   -2.9393 H   0  0  0  0  0  0  0  0  0  0  0  0
  -11.4600    0.4454   -0.5385 H   0  0  0  0  0  0  0  0  0  0  0  0
  -10.6930    0.8518    1.7735 H   0  0  0  0  0  0  0  0  0  0  0  0
   -8.2738    0.9494    2.2896 H   0  0  0  0  0  0  0  0  0  0  0  0
   -5.8393   -0.9032   -0.7474 H   0  0  0  0  0  0  0  0  0  0  0  0
    0.2715   -2.3923    0.7460 H   0  0  0  0  0  0  0  0  0  0  0  0
    0.6239   -1.5563   -0.7839 H   0  0  0  0  0  0  0  0  0  0  0  0
    2.3380    0.1747   -0.5479 H   0  0  0  0  0  0  0  0  0  0  0  0
    4.0308    1.5310   -1.2293 H   0  0  0  0  0  0  0  0  0  0  0  0
    6.4101    2.1643   -1.2414 H   0  0  0  0  0  0  0  0  0  0  0  0
    4.9081   -1.8447    1.3606 H   0  0  0  0  0  0  0  0  0  0  0  0
   10.1209   -1.6927    2.2339 H   0  0  0  0  0  0  0  0  0  0  0  0
   12.0153   -0.2090    1.5272 H   0  0  0  0  0  0  0  0  0  0  0  0
   11.6015    1.7307    0.0532 H   0  0  0  0  0  0  0  0  0  0  0  0
    9.3074    2.2473   -0.7546 H   0  0  0  0  0  0  0  0  0  0  0  0
   -7.3757    0.2635   -1.8785 H   0  0  0  0  0  0  0  0  0  0  0  0
  1  2  1  0
  2  3  2  0
  3  4  1  0
  4  5  2  0
  5  6  1  0
  6  7  1  0
  7  8  2  0
  7  9  1  0
  9 10  1  0
 10 11  2  0
 11 12  1  0
 12 13  2  0
 13 14  1  0
 14 15  1  0
 15 16  1  0
 16 17  2  0
 16 18  1  0
 18 19  1  0
 19 20  2  0
 20 21  1  0
 21 22  2  0
 22 23  1  0
 23 24  2  0
 23 25  1  0
 25 26  1  0
 26 27  2  0
 27 28  1  0
 28 29  2  0
 29 30  1  0
 30 31  2  0
 13 32  1  0
  6 33  2  0
 33  2  1  0
 32 10  1  0
 24 19  1  0
 31 26  1  0
 31 22  1  0
  1 34  1  0
  1 35  1  0
  1 36  1  0
  3 37  1  0
  4 38  1  0
  5 39  1  0
  9 40  1  0
 15 41  1  0
 15 42  1  0
 18 43  1  0
 20 44  1  0
 21 45  1  0
 24 46  1  0
 27 47  1  0
 28 48  1  0
 29 49  1  0
 30 50  1  0
 33 51  1  0
M  END
$$$$
