
     RDKit          3D

 50 53  0  0  0  0  0  0  0  0999 V2000
   -0.7912    2.0276    4.1550 C   0  0  0  0  0  0  0  0  0  0  0  0
   -1.1145    1.8173    2.6831 C   0  0  0  0  0  0  0  0  0  0  0  0
   -0.6408    0.4644    2.1729 C   0  0  0  0  0  0  0  0  0  0  0  0
   -0.0123   -0.2971    2.9107 O   0  0  0  0  0  0  0  0  0  0  0  0
   -0.9162    0.1418    0.8486 N   0  0  0  0  0  0  0  0  0  0  0  0
   -1.6753    0.9862   -0.0805 C   0  0  0  0  0  0  0  0  0  0  0  0
   -3.0348    0.4163   -0.4191 C   0  0  0  0  0  0  0  0  0  0  0  0
   -3.2773   -0.1382   -1.6840 C   0  0  0  0  0  0  0  0  0  0  0  0
   -4.5318   -0.6627   -2.0075 C   0  0  0  0  0  0  0  0  0  0  0  0
   -5.5670   -0.6547   -1.0675 C   0  0  0  0  0  0  0  0  0  0  0  0
   -6.9232   -1.1920   -1.4161 C   0  0  0  0  0  0  0  0  0  0  0  0
   -5.3329   -0.0950    0.1927 C   0  0  0  0  0  0  0  0  0  0  0  0
   -4.0778    0.4284    0.5161 C   0  0  0  0  0  0  0  0  0  0  0  0
   -0.3711   -1.1135    0.3175 C   0  0  0  0  0  0  0  0  0  0  0  0
    0.9774   -0.8729   -0.3079 C   0  0  0  0  0  0  0  0  0  0  0  0
    2.1143   -0.7935    0.4070 C   0  0  0  0  0  0  0  0  0  0  0  0
    3.4073   -0.5752   -0.2391 C   0  0  0  0  0  0  0  0  0  0  0  0
    4.5829   -0.4568    0.5101 C   0  0  0  0  0  0  0  0  0  0  0  0
    5.7606   -0.2543   -0.1801 C   0  0  0  0  0  0  0  0  0  0  0  0
    5.7974   -0.1651   -1.5530 C   0  0  0  0  0  0  0  0  0  0  0  0
    4.6597   -0.2806   -2.3221 C   0  0  0  0  0  0  0  0  0  0  0  0
    3.4546   -0.4854   -1.6471 C   0  0  0  0  0  0  0  0  0  0  0  0
    2.2642   -0.6014   -2.3724 N   0  0  0  0  0  0  0  0  0  0  0  0
    1.0345   -0.7872   -1.7977 C   0  0  0  0  0  0  0  0  0  0  0  0
    0.0268   -0.8734   -2.4935 O   0  0  0  0  0  0  0  0  0  0  0  0
    7.0570    0.0388   -2.0249 O   0  0  0  0  0  0  0  0  0  0  0  0
    7.8117    0.0450   -0.7958 C   0  0  0  0  0  0  0  0  0  0  0  0
    6.9935   -0.1264    0.3802 O   0  0  0  0  0  0  0  0  0  0  0  0
   -1.1461    3.0082    4.4848 H   0  0  0  0  0  0  0  0  0  0  0  0
    0.2890    1.9770    4.3341 H   0  0  0  0  0  0  0  0  0  0  0  0
   -1.2722    1.2634    4.7749 H   0  0  0  0  0  0  0  0  0  0  0  0
   -0.6206    2.6021    2.0994 H   0  0  0  0  0  0  0  0  0  0  0  0
   -2.1965    1.8972    2.5541 H   0  0  0  0  0  0  0  0  0  0  0  0
   -1.8205    1.9907    0.3235 H   0  0  0  0  0  0  0  0  0  0  0  0
   -1.0744    1.1251   -0.9851 H   0  0  0  0  0  0  0  0  0  0  0  0
   -2.4855   -0.1719   -2.4317 H   0  0  0  0  0  0  0  0  0  0  0  0
   -4.6892   -1.0825   -2.9970 H   0  0  0  0  0  0  0  0  0  0  0  0
   -6.8635   -1.9122   -2.2392 H   0  0  0  0  0  0  0  0  0  0  0  0
   -7.3634   -1.7142   -0.5597 H   0  0  0  0  0  0  0  0  0  0  0  0
   -7.5864   -0.3746   -1.7150 H   0  0  0  0  0  0  0  0  0  0  0  0
   -6.1289   -0.0636    0.9343 H   0  0  0  0  0  0  0  0  0  0  0  0
   -3.9277    0.8487    1.5074 H   0  0  0  0  0  0  0  0  0  0  0  0
   -1.0829   -1.5654   -0.3802 H   0  0  0  0  0  0  0  0  0  0  0  0
   -0.2666   -1.8410    1.1323 H   0  0  0  0  0  0  0  0  0  0  0  0
    2.0947   -0.8828    1.4890 H   0  0  0  0  0  0  0  0  0  0  0  0
    4.5826   -0.5203    1.5937 H   0  0  0  0  0  0  0  0  0  0  0  0
    4.7144   -0.2116   -3.4010 H   0  0  0  0  0  0  0  0  0  0  0  0
    2.2750   -0.5425   -3.3817 H   0  0  0  0  0  0  0  0  0  0  0  0
    8.3447    0.9986   -0.7157 H   0  0  0  0  0  0  0  0  0  0  0  0
    8.5484   -0.7688   -0.8320 H   0  0  0  0  0  0  0  0  0  0  0  0
  1  2  1  0
  2  3  1  0
  3  4  2  0
  3  5  1  0
  5  6  1  0
  6  7  1  0
  7  8  2  0
  8  9  1  0
  9 10  2  0
 10 11  1  0
 10 12  1  0
 12 13  2  0
  5 14  1  0
 14 15  1  0
 15 16  2  0
 16 17  1  0
 17 18  2  0
 18 19  1  0
 19 20  2  0
 20 21  1  0
 21 22  2  0
 22 23  1  0
 23 24  1  0
 24 25  2  0
 20 26  1  0
 26 27  1  0
 27 28  1  0
 13  7  1  0
 24 15  1  0
 22 17  1  0
 28 19  1  0
  1 29  1  0
  1 30  1  0
  1 31  1  0
  2 32  1  0
  2 33  1  0
  6 34  1  0
  6 35  1  0
  8 36  1  0
  9 37  1  0
 11 38  1  0
 11 39  1  0
 11 40  1  0
 12 41  1  0
 13 42  1  0
 14 43  1  0
 14 44  1  0
 16 45  1  0
 18 46  1  0
 21 47  1  0
 23 48  1  0
 27 49  1  0
 27 50  1  0
M  END
$$$$
