
     RDKit          3D

 33 33  0  0  0  0  0  0  0  0999 V2000
   -2.9217    1.7416   -2.1484 C   0  0  0  0  0  0  0  0  0  0  0  0
   -3.2166    1.1424   -0.7957 C   0  0  0  0  0  0  0  0  0  0  0  0
   -4.3641    1.1030   -0.3666 O   0  0  0  0  0  0  0  0  0  0  0  0
   -2.0758    0.7046   -0.1557 N   0  0  0  0  0  0  0  0  0  0  0  0
   -1.9614    0.1188    1.1259 C   0  0  0  0  0  0  0  0  0  0  0  0
   -3.0500   -0.0993    1.9728 C   0  0  0  0  0  0  0  0  0  0  0  0
   -2.8588   -0.6653    3.2348 C   0  0  0  0  0  0  0  0  0  0  0  0
   -1.5803   -1.0175    3.6576 C   0  0  0  0  0  0  0  0  0  0  0  0
   -0.4831   -0.8095    2.8200 C   0  0  0  0  0  0  0  0  0  0  0  0
   -0.6645   -0.2435    1.5538 C   0  0  0  0  0  0  0  0  0  0  0  0
    0.3451   -0.0205    0.6438 O   0  0  0  0  0  0  0  0  0  0  0  0
    1.6814   -0.1387    1.1280 C   0  0  0  0  0  0  0  0  0  0  0  0
    2.6824    0.1935    0.0216 C   0  0  0  0  0  0  0  0  0  0  0  0
    3.8268    0.5681    0.2589 O   0  0  0  0  0  0  0  0  0  0  0  0
    2.2162   -0.0051   -1.2612 N   0  0  0  0  0  0  0  0  0  0  0  0
    3.1202    0.0756   -2.4089 C   0  0  0  0  0  0  0  0  0  0  0  0
    3.9166   -1.2005   -2.6952 C   0  0  0  0  0  0  0  0  0  0  0  0
    3.0739   -2.2356   -2.9320 F   0  0  0  0  0  0  0  0  0  0  0  0
    4.7213   -1.5547   -1.6739 F   0  0  0  0  0  0  0  0  0  0  0  0
    4.6852   -1.0474   -3.7972 F   0  0  0  0  0  0  0  0  0  0  0  0
   -2.7333    2.8123   -2.0347 H   0  0  0  0  0  0  0  0  0  0  0  0
   -2.0537    1.2651   -2.6131 H   0  0  0  0  0  0  0  0  0  0  0  0
   -3.7823    1.5895   -2.8062 H   0  0  0  0  0  0  0  0  0  0  0  0
   -1.1873    0.8295   -0.6269 H   0  0  0  0  0  0  0  0  0  0  0  0
   -4.0620    0.1649    1.6825 H   0  0  0  0  0  0  0  0  0  0  0  0
   -3.7139   -0.8284    3.8867 H   0  0  0  0  0  0  0  0  0  0  0  0
   -1.4385   -1.4585    4.6415 H   0  0  0  0  0  0  0  0  0  0  0  0
    0.4926   -1.1083    3.1878 H   0  0  0  0  0  0  0  0  0  0  0  0
    1.8477    0.5682    1.9489 H   0  0  0  0  0  0  0  0  0  0  0  0
    1.8912   -1.1678    1.4404 H   0  0  0  0  0  0  0  0  0  0  0  0
    1.3358   -0.5009   -1.3599 H   0  0  0  0  0  0  0  0  0  0  0  0
    3.8138    0.9087   -2.2528 H   0  0  0  0  0  0  0  0  0  0  0  0
    2.4974    0.3157   -3.2766 H   0  0  0  0  0  0  0  0  0  0  0  0
  1  2  1  0
  2  3  2  0
  2  4  1  0
  4  5  1  0
  5  6  2  0
  6  7  1  0
  7  8  2  0
  8  9  1  0
  9 10  2  0
 10 11  1  0
 11 12  1  0
 12 13  1  0
 13 14  2  0
 13 15  1  0
 15 16  1  0
 16 17  1  0
 17 18  1  0
 17 19  1  0
 17 20  1  0
 10  5  1  0
  1 21  1  0
  1 22  1  0
  1 23  1  0
  4 24  1  0
  6 25  1  0
  7 26  1  0
  8 27  1  0
  9 28  1  0
 12 29  1  0
 12 30  1  0
 15 31  1  0
 16 32  1  0
 16 33  1  0
M  END
$$$$
