
     RDKit          3D

 33 35  0  0  0  0  0  0  0  0999 V2000
    5.0205   -0.9740   -0.4317 C   0  0  0  0  0  0  0  0  0  0  0  0
    4.1685   -0.4973   -1.5939 C   0  0  0  0  0  0  0  0  0  0  0  0
    2.7634   -0.4800   -1.2524 N   0  0  0  0  0  0  0  0  0  0  0  0
    2.1695    0.5659   -0.5976 C   0  0  0  0  0  0  0  0  0  0  0  0
    2.7789    1.5948   -0.3005 O   0  0  0  0  0  0  0  0  0  0  0  0
    0.7206    0.4053   -0.2487 C   0  0  0  0  0  0  0  0  0  0  0  0
    0.0929    1.4412    0.3687 C   0  0  0  0  0  0  0  0  0  0  0  0
    0.6867    2.6450    0.7079 O   0  0  0  0  0  0  0  0  0  0  0  0
   -1.3268    1.3511    0.7349 C   0  0  0  0  0  0  0  0  0  0  0  0
   -2.0960    2.3278    1.3667 C   0  0  0  0  0  0  0  0  0  0  0  0
   -3.4586    2.0889    1.6538 C   0  0  0  0  0  0  0  0  0  0  0  0
   -4.0742    0.8728    1.3153 C   0  0  0  0  0  0  0  0  0  0  0  0
   -3.3086   -0.0907    0.6904 C   0  0  0  0  0  0  0  0  0  0  0  0
   -1.9759    0.1769    0.4235 C   0  0  0  0  0  0  0  0  0  0  0  0
   -1.3574   -0.8881   -0.2016 N   0  0  0  0  0  0  0  0  0  0  0  0
   -0.0380   -0.8663   -0.5641 C   0  0  0  0  0  0  0  0  0  0  0  0
    0.5094   -1.8221   -1.1137 O   0  0  0  0  0  0  0  0  0  0  0  0
   -2.3241   -1.9719   -0.3779 C   0  0  0  0  0  0  0  0  0  0  0  0
   -3.6650   -1.4644    0.2111 C   0  0  0  0  0  0  0  0  0  0  0  0
    4.7225   -1.9793   -0.1157 H   0  0  0  0  0  0  0  0  0  0  0  0
    4.9184   -0.3097    0.4327 H   0  0  0  0  0  0  0  0  0  0  0  0
    6.0760   -1.0026   -0.7188 H   0  0  0  0  0  0  0  0  0  0  0  0
    4.2871   -1.1687   -2.4500 H   0  0  0  0  0  0  0  0  0  0  0  0
    4.4782    0.5078   -1.8991 H   0  0  0  0  0  0  0  0  0  0  0  0
    2.2133   -1.3237   -1.4219 H   0  0  0  0  0  0  0  0  0  0  0  0
    1.6323    2.6104    0.4352 H   0  0  0  0  0  0  0  0  0  0  0  0
   -1.6500    3.2810    1.6424 H   0  0  0  0  0  0  0  0  0  0  0  0
   -4.0400    2.8656    2.1474 H   0  0  0  0  0  0  0  0  0  0  0  0
   -5.1219    0.7034    1.5420 H   0  0  0  0  0  0  0  0  0  0  0  0
   -1.9593   -2.8639    0.1431 H   0  0  0  0  0  0  0  0  0  0  0  0
   -2.4074   -2.2073   -1.4446 H   0  0  0  0  0  0  0  0  0  0  0  0
   -3.9946   -2.1012    1.0376 H   0  0  0  0  0  0  0  0  0  0  0  0
   -4.4406   -1.4266   -0.5599 H   0  0  0  0  0  0  0  0  0  0  0  0
  1  2  1  0
  2  3  1  0
  3  4  1  0
  4  5  2  0
  4  6  1  0
  6  7  2  0
  7  8  1  0
  7  9  1  0
  9 10  2  0
 10 11  1  0
 11 12  2  0
 12 13  1  0
 13 14  2  0
 14 15  1  0
 15 16  1  0
 16 17  2  0
 15 18  1  0
 18 19  1  0
 16  6  1  0
 14  9  1  0
 19 13  1  0
  1 20  1  0
  1 21  1  0
  1 22  1  0
  2 23  1  0
  2 24  1  0
  3 25  1  0
  8 26  1  0
 10 27  1  0
 11 28  1  0
 12 29  1  0
 18 30  1  0
 18 31  1  0
 19 32  1  0
 19 33  1  0
M  END
$$$$
