
     RDKit          3D

 31 32  0  0  0  0  0  0  0  0999 V2000
   -2.3489    2.4037   -0.9200 C   0  0  0  0  0  0  0  0  0  0  0  0
   -2.3536    0.9540   -0.6413 N   0  0  0  0  0  4  0  0  0  0  0  0
   -2.9975    0.1285   -1.5017 C   0  0  0  0  0  0  0  0  0  0  0  0
   -3.0231   -1.2452   -1.2987 C   0  0  0  0  0  0  0  0  0  0  0  0
   -2.3812   -1.7810   -0.1948 C   0  0  0  0  0  0  0  0  0  0  0  0
   -1.7250   -0.9296    0.6839 C   0  0  0  0  0  0  0  0  0  0  0  0
   -1.7079    0.4517    0.4479 C   0  0  0  0  0  0  0  0  0  0  0  0
   -1.0313    1.3542    1.3894 C   0  0  0  0  0  0  0  0  0  0  0  0
    0.2886    1.3820    1.6409 C   0  0  0  0  0  0  0  0  0  0  0  0
    1.2959    0.5336    0.9979 C   0  0  0  0  0  0  0  0  0  0  0  0
    1.9049   -0.4901    1.7352 C   0  0  0  0  0  0  0  0  0  0  0  0
    2.8585   -1.3207    1.1387 C   0  0  0  0  0  0  0  0  0  0  0  0
    3.2078   -1.1186   -0.2023 C   0  0  0  0  0  0  0  0  0  0  0  0
    4.1993   -1.9953   -0.8395 N   0  0  0  0  0  4  0  0  0  0  0  0
    4.7367   -2.8608   -0.1362 O   0  0  0  0  0  0  0  0  0  0  0  0
    4.4231   -1.8222   -2.0455 O   0  0  0  0  0  1  0  0  0  0  0  0
    2.6142   -0.0877   -0.9435 C   0  0  0  0  0  0  0  0  0  0  0  0
    1.6610    0.7375   -0.3390 C   0  0  0  0  0  0  0  0  0  0  0  0
   -1.3106    2.7356   -1.0020 H   0  0  0  0  0  0  0  0  0  0  0  0
   -2.8650    2.6067   -1.8618 H   0  0  0  0  0  0  0  0  0  0  0  0
   -2.8721    2.9087   -0.1040 H   0  0  0  0  0  0  0  0  0  0  0  0
   -3.4943    0.5754   -2.3589 H   0  0  0  0  0  0  0  0  0  0  0  0
   -3.5437   -1.8953   -1.9992 H   0  0  0  0  0  0  0  0  0  0  0  0
   -2.3924   -2.8554   -0.0159 H   0  0  0  0  0  0  0  0  0  0  0  0
   -1.2268   -1.3472    1.5575 H   0  0  0  0  0  0  0  0  0  0  0  0
   -1.6826    2.0330    1.9368 H   0  0  0  0  0  0  0  0  0  0  0  0
    0.6815    2.0692    2.3906 H   0  0  0  0  0  0  0  0  0  0  0  0
    1.6463   -0.6513    2.7809 H   0  0  0  0  0  0  0  0  0  0  0  0
    3.3196   -2.1111    1.7294 H   0  0  0  0  0  0  0  0  0  0  0  0
    2.8916    0.0890   -1.9816 H   0  0  0  0  0  0  0  0  0  0  0  0
    1.2270    1.5488   -0.9182 H   0  0  0  0  0  0  0  0  0  0  0  0
  1  2  1  0
  2  3  2  0
  3  4  1  0
  4  5  2  0
  5  6  1  0
  6  7  2  0
  7  8  1  0
  8  9  2  3
  9 10  1  0
 10 11  2  0
 11 12  1  0
 12 13  2  0
 13 14  1  0
 14 15  2  0
 14 16  1  0
 13 17  1  0
 17 18  2  0
  7  2  1  0
 18 10  1  0
  1 19  1  0
  1 20  1  0
  1 21  1  0
  3 22  1  0
  4 23  1  0
  5 24  1  0
  6 25  1  0
  8 26  1  0
  9 27  1  0
 11 28  1  0
 12 29  1  0
 17 30  1  0
 18 31  1  0
M  CHG  3   2   1  14   1  16  -1
M  END
$$$$
