
     RDKit          3D

 60 64  0  0  0  0  0  0  0  0999 V2000
   -7.1422   -1.4401   -2.0964 C   0  0  0  0  0  0  0  0  0  0  0  0
   -6.5106   -0.6152   -1.0146 C   0  0  0  0  0  0  0  0  0  0  0  0
   -5.4787   -1.1454   -0.2330 C   0  0  0  0  0  0  0  0  0  0  0  0
   -4.9084   -0.3907    0.7946 C   0  0  0  0  0  0  0  0  0  0  0  0
   -5.3721    0.9031    1.0692 C   0  0  0  0  0  0  0  0  0  0  0  0
   -4.7517    1.7229    2.1720 C   0  0  0  0  0  0  0  0  0  0  0  0
   -3.7499    2.6326    1.6580 N   0  0  0  0  0  0  0  0  0  0  0  0
   -4.0556    3.9272    1.3895 N   0  0  0  0  0  0  0  0  0  0  0  0
   -2.9451    4.5253    0.9575 N   0  0  0  0  0  0  0  0  0  0  0  0
   -1.9517    3.5967    0.9812 C   0  0  0  0  0  0  0  0  0  0  0  0
   -0.5635    3.6911    0.6277 C   0  0  0  0  0  0  0  0  0  0  0  0
    0.0075    4.6919    0.2096 O   0  0  0  0  0  0  0  0  0  0  0  0
    0.1098    2.4871    0.8114 N   0  0  0  0  0  0  0  0  0  0  0  0
   -0.4802    1.3244    1.2860 C   0  0  0  0  0  0  0  0  0  0  0  0
    0.3972    0.0807    1.4278 C   0  0  0  0  0  0  0  0  0  0  0  0
    0.8936   -0.4574    0.0830 C   0  0  0  0  0  0  0  0  0  0  0  0
    2.2171    0.1384   -0.3805 C   0  0  0  0  0  0  0  0  0  0  0  0
    3.2189    0.0280    0.7105 N   0  0  0  0  0  0  0  0  0  0  0  0
    4.8370    0.3639    0.2274 S   0  0  0  0  0  6  0  0  0  0  0  0
    5.6989    0.1690    1.3722 O   0  0  0  0  0  0  0  0  0  0  0  0
    4.7970    1.6248   -0.4832 O   0  0  0  0  0  0  0  0  0  0  0  0
    5.1852   -0.9366   -0.9247 C   0  0  0  0  0  0  0  0  0  0  0  0
    5.5082   -0.6349   -2.2487 C   0  0  0  0  0  0  0  0  0  0  0  0
    5.7642   -1.6739   -3.1449 C   0  0  0  0  0  0  0  0  0  0  0  0
    5.7009   -3.0088   -2.7222 C   0  0  0  0  0  0  0  0  0  0  0  0
    5.9804   -4.1325   -3.6775 C   0  0  0  0  0  0  0  0  0  0  0  0
    5.3856   -3.2942   -1.3859 C   0  0  0  0  0  0  0  0  0  0  0  0
    5.1291   -2.2613   -0.4845 C   0  0  0  0  0  0  0  0  0  0  0  0
    2.8173    0.7952    1.9169 C   0  0  0  0  0  0  0  0  0  0  0  0
    1.5094    0.2401    2.4678 C   0  0  0  0  0  0  0  0  0  0  0  0
   -1.7414    1.2336    1.6136 N   0  0  0  0  0  0  0  0  0  0  0  0
   -2.4242    2.3907    1.4357 C   0  0  0  0  0  0  0  0  0  0  0  0
   -6.4091    1.4302    0.2879 C   0  0  0  0  0  0  0  0  0  0  0  0
   -6.9778    0.6745   -0.7396 C   0  0  0  0  0  0  0  0  0  0  0  0
   -6.3932   -2.0649   -2.5950 H   0  0  0  0  0  0  0  0  0  0  0  0
   -7.5964   -0.8023   -2.8630 H   0  0  0  0  0  0  0  0  0  0  0  0
   -7.9178   -2.0847   -1.6701 H   0  0  0  0  0  0  0  0  0  0  0  0
   -5.1094   -2.1508   -0.4231 H   0  0  0  0  0  0  0  0  0  0  0  0
   -4.0961   -0.8203    1.3776 H   0  0  0  0  0  0  0  0  0  0  0  0
   -5.5153    2.3108    2.6950 H   0  0  0  0  0  0  0  0  0  0  0  0
   -4.2744    1.0822    2.9226 H   0  0  0  0  0  0  0  0  0  0  0  0
    1.0849    2.5394    0.5666 H   0  0  0  0  0  0  0  0  0  0  0  0
   -0.2854   -0.6849    1.8283 H   0  0  0  0  0  0  0  0  0  0  0  0
    1.0310   -1.5426    0.1849 H   0  0  0  0  0  0  0  0  0  0  0  0
    0.1352   -0.3118   -0.6954 H   0  0  0  0  0  0  0  0  0  0  0  0
    2.5455   -0.4223   -1.2609 H   0  0  0  0  0  0  0  0  0  0  0  0
    2.0941    1.1821   -0.6844 H   0  0  0  0  0  0  0  0  0  0  0  0
    5.5663    0.3961   -2.5892 H   0  0  0  0  0  0  0  0  0  0  0  0
    6.0181   -1.4351   -4.1758 H   0  0  0  0  0  0  0  0  0  0  0  0
    6.1677   -3.7618   -4.6906 H   0  0  0  0  0  0  0  0  0  0  0  0
    6.8637   -4.6915   -3.3536 H   0  0  0  0  0  0  0  0  0  0  0  0
    5.1218   -4.8098   -3.7236 H   0  0  0  0  0  0  0  0  0  0  0  0
    5.3436   -4.3258   -1.0418 H   0  0  0  0  0  0  0  0  0  0  0  0
    4.8893   -2.4893    0.5515 H   0  0  0  0  0  0  0  0  0  0  0  0
    2.7289    1.8594    1.6789 H   0  0  0  0  0  0  0  0  0  0  0  0
    3.5780    0.6947    2.6985 H   0  0  0  0  0  0  0  0  0  0  0  0
    1.1712    0.8648    3.3033 H   0  0  0  0  0  0  0  0  0  0  0  0
    1.7190   -0.7534    2.8878 H   0  0  0  0  0  0  0  0  0  0  0  0
   -6.7794    2.4379    0.4706 H   0  0  0  0  0  0  0  0  0  0  0  0
   -7.7859    1.1034   -1.3279 H   0  0  0  0  0  0  0  0  0  0  0  0
  1  2  1  0
  2  3  2  0
  3  4  1  0
  4  5  2  0
  5  6  1  0
  6  7  1  0
  7  8  1  0
  8  9  2  0
  9 10  1  0
 10 11  1  0
 11 12  2  0
 11 13  1  0
 13 14  1  0
 14 15  1  0
 15 16  1  0
 16 17  1  0
 17 18  1  0
 18 19  1  0
 19 20  2  0
 19 21  2  0
 19 22  1  0
 22 23  2  0
 23 24  1  0
 24 25  2  0
 25 26  1  0
 25 27  1  0
 27 28  2  0
 18 29  1  0
 29 30  1  0
 14 31  2  0
 31 32  1  0
  5 33  1  0
 33 34  2  0
 34  2  1  0
 32  7  1  0
 32 10  2  0
 30 15  1  0
 28 22  1  0
  1 35  1  0
  1 36  1  0
  1 37  1  0
  3 38  1  0
  4 39  1  0
  6 40  1  0
  6 41  1  0
 13 42  1  0
 15 43  1  0
 16 44  1  0
 16 45  1  0
 17 46  1  0
 17 47  1  0
 23 48  1  0
 24 49  1  0
 26 50  1  0
 26 51  1  0
 26 52  1  0
 27 53  1  0
 28 54  1  0
 29 55  1  0
 29 56  1  0
 30 57  1  0
 30 58  1  0
 33 59  1  0
 34 60  1  0
M  END
$$$$
