
     RDKit          3D

 33 33  0  0  0  0  0  0  0  0999 V2000
   -3.7613   -1.7397    0.0556 C   0  0  0  0  0  0  0  0  0  0  0  0
   -3.6327   -0.2464    0.3610 C   0  0  0  0  0  0  0  0  0  0  0  0
   -5.0241    0.3467    0.6043 C   0  0  0  0  0  0  0  0  0  0  0  0
   -2.8139    0.0200    1.5507 N   0  0  0  0  0  0  0  0  0  0  0  0
   -1.4127   -0.3911    1.4618 C   0  0  0  0  0  0  0  0  0  0  0  0
   -0.5953    0.4032    0.4448 C   0  0  0  0  0  0  0  0  0  0  0  0
    0.8778    0.0021    0.4901 C   0  0  0  0  0  0  0  0  0  0  0  0
    1.5704    0.7819   -0.4839 O   0  0  0  0  0  0  0  0  0  0  0  0
    2.9180    0.5872   -0.6272 C   0  0  0  0  0  0  0  0  0  0  0  0
    3.6713   -0.3231    0.1220 C   0  0  0  0  0  0  0  0  0  0  0  0
    5.0475   -0.4526   -0.0958 C   0  0  0  0  0  0  0  0  0  0  0  0
    5.6770    0.3269   -1.0630 C   0  0  0  0  0  0  0  0  0  0  0  0
    7.3691    0.1609   -1.3238 Cl  0  0  0  0  0  0  0  0  0  0  0  0
    4.9461    1.2375   -1.8182 C   0  0  0  0  0  0  0  0  0  0  0  0
    3.5716    1.3651   -1.5988 C   0  0  0  0  0  0  0  0  0  0  0  0
    2.6232    2.6261   -2.6609 Br  0  0  0  0  0  0  0  0  0  0  0  0
   -4.4692   -1.9067   -0.7639 H   0  0  0  0  0  0  0  0  0  0  0  0
   -2.8049   -2.1720   -0.2545 H   0  0  0  0  0  0  0  0  0  0  0  0
   -4.1229   -2.2969    0.9271 H   0  0  0  0  0  0  0  0  0  0  0  0
   -3.2114    0.2633   -0.5126 H   0  0  0  0  0  0  0  0  0  0  0  0
   -4.9669    1.4258    0.7868 H   0  0  0  0  0  0  0  0  0  0  0  0
   -5.6674    0.1956   -0.2695 H   0  0  0  0  0  0  0  0  0  0  0  0
   -5.5146   -0.1180    1.4673 H   0  0  0  0  0  0  0  0  0  0  0  0
   -2.8558    1.0163    1.7688 H   0  0  0  0  0  0  0  0  0  0  0  0
   -0.9741   -0.2404    2.4560 H   0  0  0  0  0  0  0  0  0  0  0  0
   -1.3311   -1.4661    1.2688 H   0  0  0  0  0  0  0  0  0  0  0  0
   -0.6832    1.4800    0.6372 H   0  0  0  0  0  0  0  0  0  0  0  0
   -0.9703    0.2449   -0.5732 H   0  0  0  0  0  0  0  0  0  0  0  0
    1.2819    0.2050    1.4890 H   0  0  0  0  0  0  0  0  0  0  0  0
    0.9731   -1.0646    0.2543 H   0  0  0  0  0  0  0  0  0  0  0  0
    3.2211   -0.9495    0.8855 H   0  0  0  0  0  0  0  0  0  0  0  0
    5.6206   -1.1641    0.4939 H   0  0  0  0  0  0  0  0  0  0  0  0
    5.4431    1.8428   -2.5712 H   0  0  0  0  0  0  0  0  0  0  0  0
  1  2  1  0
  2  3  1  0
  2  4  1  0
  4  5  1  0
  5  6  1  0
  6  7  1  0
  7  8  1  0
  8  9  1  0
  9 10  2  0
 10 11  1  0
 11 12  2  0
 12 13  1  0
 12 14  1  0
 14 15  2  0
 15 16  1  0
 15  9  1  0
  1 17  1  0
  1 18  1  0
  1 19  1  0
  2 20  1  0
  3 21  1  0
  3 22  1  0
  3 23  1  0
  4 24  1  0
  5 25  1  0
  5 26  1  0
  6 27  1  0
  6 28  1  0
  7 29  1  0
  7 30  1  0
 10 31  1  0
 11 32  1  0
 14 33  1  0
M  END
$$$$
