
     RDKit          3D

 36 38  0  0  0  0  0  0  0  0999 V2000
    4.1889   -1.5974    1.4753 C   0  0  0  0  0  0  0  0  0  0  0  0
    4.2568   -0.0898    1.3363 C   0  0  0  0  0  0  0  0  0  0  0  0
    3.1545    0.3729    0.4618 N   0  0  0  0  0  4  0  0  0  0  0  0
    3.3513    0.4701   -0.8736 C   0  0  0  0  0  0  0  0  0  0  0  0
    2.3310    0.9019   -1.7129 C   0  0  0  0  0  0  0  0  0  0  0  0
    1.0905    1.2285   -1.1731 C   0  0  0  0  0  0  0  0  0  0  0  0
    0.0137    1.6931   -2.0532 C   0  0  0  0  0  0  0  0  0  0  0  0
   -1.2367    1.2013   -2.0988 C   0  0  0  0  0  0  0  0  0  0  0  0
   -1.7574    0.1050   -1.3522 C   0  0  0  0  0  0  0  0  0  0  0  0
   -1.3377   -1.2014   -1.4704 C   0  0  0  0  0  0  0  0  0  0  0  0
   -2.1060   -1.9617   -0.6268 N   0  0  0  0  0  0  0  0  0  0  0  0
   -2.9945   -1.1635    0.0589 C   0  0  0  0  0  0  0  0  0  0  0  0
   -3.9521   -1.5030    1.0218 C   0  0  0  0  0  0  0  0  0  0  0  0
   -4.7426   -0.4732    1.5404 C   0  0  0  0  0  0  0  0  0  0  0  0
   -4.5832    0.8416    1.1096 C   0  0  0  0  0  0  0  0  0  0  0  0
   -3.6226    1.1646    0.1444 C   0  0  0  0  0  0  0  0  0  0  0  0
   -2.8099    0.1449   -0.3928 C   0  0  0  0  0  0  0  0  0  0  0  0
    0.9152    1.1409    0.2070 C   0  0  0  0  0  0  0  0  0  0  0  0
    1.9609    0.7018    1.0069 C   0  0  0  0  0  0  0  0  0  0  0  0
    4.2825   -2.0876    0.5009 H   0  0  0  0  0  0  0  0  0  0  0  0
    4.9974   -1.9570    2.1189 H   0  0  0  0  0  0  0  0  0  0  0  0
    3.2362   -1.9102    1.9145 H   0  0  0  0  0  0  0  0  0  0  0  0
    5.2041    0.2299    0.8893 H   0  0  0  0  0  0  0  0  0  0  0  0
    4.1551    0.4081    2.3064 H   0  0  0  0  0  0  0  0  0  0  0  0
    4.3284    0.1951   -1.2607 H   0  0  0  0  0  0  0  0  0  0  0  0
    2.5051    0.9680   -2.7852 H   0  0  0  0  0  0  0  0  0  0  0  0
    0.2671    2.5229   -2.7113 H   0  0  0  0  0  0  0  0  0  0  0  0
   -1.9452    1.6878   -2.7691 H   0  0  0  0  0  0  0  0  0  0  0  0
   -0.5903   -1.6634   -2.1011 H   0  0  0  0  0  0  0  0  0  0  0  0
   -2.0518   -2.9668   -0.5301 H   0  0  0  0  0  0  0  0  0  0  0  0
   -4.0913   -2.5276    1.3522 H   0  0  0  0  0  0  0  0  0  0  0  0
   -5.5020   -0.7050    2.2848 H   0  0  0  0  0  0  0  0  0  0  0  0
   -5.2172    1.6242    1.5203 H   0  0  0  0  0  0  0  0  0  0  0  0
   -3.5135    2.1925   -0.1889 H   0  0  0  0  0  0  0  0  0  0  0  0
   -0.0365    1.4042    0.6657 H   0  0  0  0  0  0  0  0  0  0  0  0
    1.8519    0.6084    2.0837 H   0  0  0  0  0  0  0  0  0  0  0  0
  1  2  1  0
  2  3  1  0
  3  4  2  0
  4  5  1  0
  5  6  2  0
  6  7  1  0
  7  8  2  3
  8  9  1  0
  9 10  2  0
 10 11  1  0
 11 12  1  0
 12 13  2  0
 13 14  1  0
 14 15  2  0
 15 16  1  0
 16 17  2  0
  6 18  1  0
 18 19  2  0
 19  3  1  0
 17  9  1  0
 17 12  1  0
  1 20  1  0
  1 21  1  0
  1 22  1  0
  2 23  1  0
  2 24  1  0
  4 25  1  0
  5 26  1  0
  7 27  1  0
  8 28  1  0
 10 29  1  0
 11 30  1  0
 13 31  1  0
 14 32  1  0
 15 33  1  0
 16 34  1  0
 18 35  1  0
 19 36  1  0
M  CHG  1   3   1
M  END
$$$$
