
     RDKit          3D

 52 55  0  0  0  0  0  0  0  0999 V2000
    5.9838    2.0853    2.0794 C   0  0  0  0  0  0  0  0  0  0  0  0
    4.8820    1.7225    2.9031 O   0  0  0  0  0  0  0  0  0  0  0  0
    3.9527    0.8799    2.3576 C   0  0  0  0  0  0  0  0  0  0  0  0
    3.8644    0.5143    1.0150 C   0  0  0  0  0  0  0  0  0  0  0  0
    2.8480   -0.3553    0.5910 C   0  0  0  0  0  0  0  0  0  0  0  0
    1.9073   -0.8642    1.4992 C   0  0  0  0  0  0  0  0  0  0  0  0
    0.8789   -1.6759    0.9757 N   0  0  0  0  0  0  0  0  0  0  0  0
   -0.1840   -2.2388    1.6793 C   0  0  0  0  0  0  0  0  0  0  0  0
   -0.2866   -2.3187    2.9018 O   0  0  0  0  0  0  0  0  0  0  0  0
   -1.2815   -2.7664    0.7624 C   0  0  0  0  0  0  0  0  0  0  0  0
   -2.6677   -1.5927    0.6521 S   0  0  0  0  0  0  0  0  0  0  0  0
   -1.7846   -0.1718    0.0926 C   0  0  0  0  0  0  0  0  0  0  0  0
   -1.4828    0.6892    1.0162 N   0  0  0  0  0  0  0  0  0  0  0  0
   -0.6480    1.7038    0.6542 C   0  0  0  0  0  0  0  0  0  0  0  0
   -0.0859    1.8386   -0.5458 C   0  0  0  0  0  0  0  0  0  0  0  0
   -0.3963    0.8604   -1.6095 C   0  0  0  0  0  0  0  0  0  0  0  0
    0.1669    0.9193   -2.7059 O   0  0  0  0  0  0  0  0  0  0  0  0
   -1.3459   -0.1016   -1.2360 N   0  0  0  0  0  0  0  0  0  0  0  0
   -1.8870   -0.9295   -2.2742 C   0  0  0  0  0  0  0  0  0  0  0  0
   -1.0229   -1.7077   -3.0639 C   0  0  0  0  0  0  0  0  0  0  0  0
   -1.5329   -2.5352   -4.0629 C   0  0  0  0  0  0  0  0  0  0  0  0
   -2.9038   -2.5794   -4.2938 C   0  0  0  0  0  0  0  0  0  0  0  0
   -3.7714   -1.7866   -3.5392 C   0  0  0  0  0  0  0  0  0  0  0  0
   -3.2723   -0.9504   -2.5355 C   0  0  0  0  0  0  0  0  0  0  0  0
   -4.0376   -0.0652   -1.8193 O   0  0  0  0  0  0  0  0  0  0  0  0
   -5.4504   -0.1821   -1.9229 C   0  0  0  0  0  0  0  0  0  0  0  0
    1.0258    3.1357   -0.7047 S   0  0  0  0  0  0  0  0  0  0  0  0
    0.5115    3.8433    0.9052 C   0  0  0  0  0  0  0  0  0  0  0  0
   -0.2033    2.7186    1.6658 C   0  0  0  0  0  0  0  0  0  0  0  0
    2.0032   -0.4936    2.8399 C   0  0  0  0  0  0  0  0  0  0  0  0
    3.0196    0.3677    3.2651 C   0  0  0  0  0  0  0  0  0  0  0  0
    6.6849    2.6646    2.6952 H   0  0  0  0  0  0  0  0  0  0  0  0
    6.5200    1.2041    1.7110 H   0  0  0  0  0  0  0  0  0  0  0  0
    5.6604    2.7263    1.2485 H   0  0  0  0  0  0  0  0  0  0  0  0
    4.5693    0.8876    0.2689 H   0  0  0  0  0  0  0  0  0  0  0  0
    2.8049   -0.6137   -0.4656 H   0  0  0  0  0  0  0  0  0  0  0  0
    0.9057   -1.8192   -0.0259 H   0  0  0  0  0  0  0  0  0  0  0  0
   -1.6434   -3.7187    1.1685 H   0  0  0  0  0  0  0  0  0  0  0  0
   -0.8874   -2.9755   -0.2389 H   0  0  0  0  0  0  0  0  0  0  0  0
    0.0513   -1.6759   -2.9104 H   0  0  0  0  0  0  0  0  0  0  0  0
   -0.8593   -3.1319   -4.6737 H   0  0  0  0  0  0  0  0  0  0  0  0
   -3.3034   -3.2121   -5.0853 H   0  0  0  0  0  0  0  0  0  0  0  0
   -4.8307   -1.8176   -3.7841 H   0  0  0  0  0  0  0  0  0  0  0  0
   -5.7864   -1.1827   -1.6324 H   0  0  0  0  0  0  0  0  0  0  0  0
   -5.7948    0.0745   -2.9294 H   0  0  0  0  0  0  0  0  0  0  0  0
   -5.8943    0.5378   -1.2293 H   0  0  0  0  0  0  0  0  0  0  0  0
   -0.1751    4.6761    0.7095 H   0  0  0  0  0  0  0  0  0  0  0  0
    1.3737    4.2270    1.4581 H   0  0  0  0  0  0  0  0  0  0  0  0
    0.4879    2.2504    2.3802 H   0  0  0  0  0  0  0  0  0  0  0  0
   -1.0482    3.1179    2.2358 H   0  0  0  0  0  0  0  0  0  0  0  0
    1.2895   -0.8331    3.5835 H   0  0  0  0  0  0  0  0  0  0  0  0
    3.0758    0.6506    4.3142 H   0  0  0  0  0  0  0  0  0  0  0  0
  1  2  1  0
  2  3  1  0
  3  4  2  0
  4  5  1  0
  5  6  2  0
  6  7  1  0
  7  8  1  0
  8  9  2  0
  8 10  1  0
 10 11  1  0
 11 12  1  0
 12 13  2  0
 13 14  1  0
 14 15  2  0
 15 16  1  0
 16 17  2  0
 16 18  1  0
 18 19  1  0
 19 20  2  0
 20 21  1  0
 21 22  2  0
 22 23  1  0
 23 24  2  0
 24 25  1  0
 25 26  1  0
 15 27  1  0
 27 28  1  0
 28 29  1  0
  6 30  1  0
 30 31  2  0
 31  3  1  0
 18 12  1  0
 24 19  1  0
 29 14  1  0
  1 32  1  0
  1 33  1  0
  1 34  1  0
  4 35  1  0
  5 36  1  0
  7 37  1  0
 10 38  1  0
 10 39  1  0
 20 40  1  0
 21 41  1  0
 22 42  1  0
 23 43  1  0
 26 44  1  0
 26 45  1  0
 26 46  1  0
 28 47  1  0
 28 48  1  0
 29 49  1  0
 29 50  1  0
 30 51  1  0
 31 52  1  0
M  END
$$$$
