
     RDKit          3D

 64 69  0  0  0  0  0  0  0  0999 V2000
   -8.8698    3.0817    1.4854 C   0  0  0  0  0  0  0  0  0  0  0  0
   -8.5218    2.0212    0.6042 O   0  0  0  0  0  0  0  0  0  0  0  0
   -7.1934    1.7154    0.5007 C   0  0  0  0  0  0  0  0  0  0  0  0
   -6.9023    0.6533   -0.3560 C   0  0  0  0  0  0  0  0  0  0  0  0
   -5.5832    0.2312   -0.5560 C   0  0  0  0  0  0  0  0  0  0  0  0
   -4.5275    0.8799    0.0952 C   0  0  0  0  0  0  0  0  0  0  0  0
   -3.1720    0.4528   -0.1013 N   0  0  0  0  0  0  0  0  0  0  0  0
   -2.0139    1.2420   -0.0152 C   0  0  0  0  0  0  0  0  0  0  0  0
   -2.0349    2.5954    0.1360 N   0  0  0  0  0  0  0  0  0  0  0  0
   -0.8924    0.4331   -0.1600 C   0  0  0  0  0  0  0  0  0  0  0  0
    0.4992    0.8920   -0.1213 C   0  0  0  0  0  0  0  0  0  0  0  0
    0.7621    2.0875   -0.0832 O   0  0  0  0  0  0  0  0  0  0  0  0
    1.4214   -0.1332   -0.1998 N   0  0  0  0  0  0  0  0  0  0  0  0
    2.7854   -0.0581   -0.1061 C   0  0  0  0  0  0  0  0  0  0  0  0
    3.6540   -1.0346   -0.4311 C   0  0  0  0  0  0  0  0  0  0  0  0
    3.3269   -2.3792   -1.0019 C   0  0  0  0  0  0  0  0  0  0  0  0
    4.9943   -0.6867   -0.2068 N   0  0  0  0  0  0  0  0  0  0  0  0
    5.7958   -1.5830    0.6479 C   0  0  0  0  0  0  0  0  0  0  0  0
    4.9641    0.6585    0.2580 N   0  0  0  0  0  0  0  0  0  0  0  0
    6.0958    1.5099    0.1509 C   0  0  0  0  0  0  0  0  0  0  0  0
    7.2369    1.1119   -0.5644 C   0  0  0  0  0  0  0  0  0  0  0  0
    8.3538    1.9473   -0.6720 C   0  0  0  0  0  0  0  0  0  0  0  0
    8.3469    3.2001   -0.0677 C   0  0  0  0  0  0  0  0  0  0  0  0
    7.2220    3.6181    0.6366 C   0  0  0  0  0  0  0  0  0  0  0  0
    6.1055    2.7809    0.7412 C   0  0  0  0  0  0  0  0  0  0  0  0
    3.6296    1.0688    0.4254 C   0  0  0  0  0  0  0  0  0  0  0  0
    3.2142    2.1084    0.9072 O   0  0  0  0  0  0  0  0  0  0  0  0
   -1.3764   -0.8734   -0.3950 C   0  0  0  0  0  0  0  0  0  0  0  0
   -0.6729   -2.0195   -0.6145 N   0  0  0  0  0  0  0  0  0  0  0  0
   -1.4336   -3.1110   -0.8028 C   0  0  0  0  0  0  0  0  0  0  0  0
   -0.8005   -4.3273   -1.0283 C   0  0  0  0  0  0  0  0  0  0  0  0
   -1.5254   -5.5031   -1.2288 C   0  0  0  0  0  0  0  0  0  0  0  0
   -2.9120   -5.4637   -1.2032 C   0  0  0  0  0  0  0  0  0  0  0  0
   -3.5604   -4.2488   -0.9785 C   0  0  0  0  0  0  0  0  0  0  0  0
   -2.8510   -3.0717   -0.7788 C   0  0  0  0  0  0  0  0  0  0  0  0
   -3.5418   -1.9424   -0.5694 N   0  0  0  0  0  0  0  0  0  0  0  0
   -2.7642   -0.8486   -0.3882 C   0  0  0  0  0  0  0  0  0  0  0  0
   -4.8245    1.9396    0.9638 C   0  0  0  0  0  0  0  0  0  0  0  0
   -6.1483    2.3552    1.1632 C   0  0  0  0  0  0  0  0  0  0  0  0
   -8.4269    4.0285    1.1587 H   0  0  0  0  0  0  0  0  0  0  0  0
   -8.5862    2.8469    2.5167 H   0  0  0  0  0  0  0  0  0  0  0  0
   -9.9576    3.1961    1.4574 H   0  0  0  0  0  0  0  0  0  0  0  0
   -7.7109    0.1459   -0.8768 H   0  0  0  0  0  0  0  0  0  0  0  0
   -5.4139   -0.5867   -1.2509 H   0  0  0  0  0  0  0  0  0  0  0  0
   -1.1311    3.0784    0.0405 H   0  0  0  0  0  0  0  0  0  0  0  0
   -2.7832    3.1393   -0.2912 H   0  0  0  0  0  0  0  0  0  0  0  0
    1.0312   -1.0474   -0.4128 H   0  0  0  0  0  0  0  0  0  0  0  0
    3.9998   -2.6112   -1.8346 H   0  0  0  0  0  0  0  0  0  0  0  0
    3.4394   -3.1569   -0.2400 H   0  0  0  0  0  0  0  0  0  0  0  0
    2.3074   -2.4335   -1.3932 H   0  0  0  0  0  0  0  0  0  0  0  0
    6.8076   -1.2020    0.8108 H   0  0  0  0  0  0  0  0  0  0  0  0
    5.3212   -1.7139    1.6276 H   0  0  0  0  0  0  0  0  0  0  0  0
    5.8958   -2.5658    0.1748 H   0  0  0  0  0  0  0  0  0  0  0  0
    7.2608    0.1564   -1.0809 H   0  0  0  0  0  0  0  0  0  0  0  0
    9.2222    1.6210   -1.2381 H   0  0  0  0  0  0  0  0  0  0  0  0
    9.2112    3.8534   -0.1517 H   0  0  0  0  0  0  0  0  0  0  0  0
    7.2053    4.5979    1.1073 H   0  0  0  0  0  0  0  0  0  0  0  0
    5.2529    3.1435    1.3100 H   0  0  0  0  0  0  0  0  0  0  0  0
    0.2859   -4.3647   -1.0476 H   0  0  0  0  0  0  0  0  0  0  0  0
   -1.0064   -6.4427   -1.4023 H   0  0  0  0  0  0  0  0  0  0  0  0
   -3.4919   -6.3707   -1.3561 H   0  0  0  0  0  0  0  0  0  0  0  0
   -4.6478   -4.2188   -0.9569 H   0  0  0  0  0  0  0  0  0  0  0  0
   -4.0467    2.4330    1.5428 H   0  0  0  0  0  0  0  0  0  0  0  0
   -6.3240    3.1740    1.8530 H   0  0  0  0  0  0  0  0  0  0  0  0
  1  2  1  0
  2  3  1  0
  3  4  2  0
  4  5  1  0
  5  6  2  0
  6  7  1  0
  7  8  1  0
  8  9  1  0
  8 10  2  0
 10 11  1  0
 11 12  2  0
 11 13  1  0
 13 14  1  0
 14 15  2  0
 15 16  1  0
 15 17  1  0
 17 18  1  0
 17 19  1  0
 19 20  1  0
 20 21  2  0
 21 22  1  0
 22 23  2  0
 23 24  1  0
 24 25  2  0
 19 26  1  0
 26 27  2  0
 10 28  1  0
 28 29  2  0
 29 30  1  0
 30 31  2  0
 31 32  1  0
 32 33  2  0
 33 34  1  0
 34 35  2  0
 35 36  1  0
 36 37  2  0
  6 38  1  0
 38 39  2  0
 39  3  1  0
 37  7  1  0
 26 14  1  0
 37 28  1  0
 25 20  1  0
 35 30  1  0
  1 40  1  0
  1 41  1  0
  1 42  1  0
  4 43  1  0
  5 44  1  0
  9 45  1  0
  9 46  1  0
 13 47  1  0
 16 48  1  0
 16 49  1  0
 16 50  1  0
 18 51  1  0
 18 52  1  0
 18 53  1  0
 21 54  1  0
 22 55  1  0
 23 56  1  0
 24 57  1  0
 25 58  1  0
 31 59  1  0
 32 60  1  0
 33 61  1  0
 34 62  1  0
 38 63  1  0
 39 64  1  0
M  END
$$$$
