
     RDKit          3D

 45 44  0  0  0  0  0  0  0  0999 V2000
    5.5817   -4.9697    1.1035 C   0  0  0  0  0  0  0  0  0  0  0  0
    5.3368   -3.4932    1.3702 C   0  0  0  0  0  0  0  0  0  0  0  0
    4.4114   -2.8805    0.3204 C   0  0  0  0  0  0  0  0  0  0  0  0
    4.1693   -1.3975    0.5915 C   0  0  0  0  0  0  0  0  0  0  0  0
    3.3177   -0.8064   -0.4138 N   0  0  0  0  0  0  0  0  0  0  0  0
    1.9600   -0.8794   -0.3654 C   0  0  0  0  0  0  0  0  0  0  0  0
    1.3065   -1.3796    0.5353 O   0  0  0  0  0  0  0  0  0  0  0  0
    1.4493   -0.3085   -1.4828 O   0  0  0  0  0  0  0  0  0  0  0  0
    0.0158   -0.3012   -1.5690 C   0  0  0  0  0  0  0  0  0  0  0  0
   -0.6122    0.8712   -0.7883 C   0  0  0  0  0  0  0  0  0  0  0  0
   -0.0496    2.2210   -1.2779 C   0  0  0  0  0  0  0  0  0  0  0  0
   -0.5209    3.4115   -0.4526 C   0  0  0  0  0  0  0  0  0  0  0  0
   -2.0635    0.8319   -0.9258 N   0  0  0  0  0  0  0  0  0  0  0  0
   -2.9221    1.0926    0.0974 C   0  0  0  0  0  0  0  0  0  0  0  0
   -2.6072    1.3095    1.2560 O   0  0  0  0  0  0  0  0  0  0  0  0
   -4.1867    1.0906   -0.3894 O   0  0  0  0  0  0  0  0  0  0  0  0
   -5.2289    1.3658    0.5649 C   0  0  0  0  0  0  0  0  0  0  0  0
   -6.5094    0.7414    0.0236 C   0  0  0  0  0  0  0  0  0  0  0  0
   -5.3902    2.8737    0.7238 C   0  0  0  0  0  0  0  0  0  0  0  0
    6.2461   -5.3876    1.8663 H   0  0  0  0  0  0  0  0  0  0  0  0
    6.0506   -5.1192    0.1257 H   0  0  0  0  0  0  0  0  0  0  0  0
    4.6434   -5.5331    1.1247 H   0  0  0  0  0  0  0  0  0  0  0  0
    4.8973   -3.3761    2.3677 H   0  0  0  0  0  0  0  0  0  0  0  0
    6.2970   -2.9644    1.3744 H   0  0  0  0  0  0  0  0  0  0  0  0
    4.8491   -3.0041   -0.6782 H   0  0  0  0  0  0  0  0  0  0  0  0
    3.4550   -3.4180    0.3114 H   0  0  0  0  0  0  0  0  0  0  0  0
    3.7054   -1.2609    1.5747 H   0  0  0  0  0  0  0  0  0  0  0  0
    5.1142   -0.8442    0.5781 H   0  0  0  0  0  0  0  0  0  0  0  0
    3.7136   -0.4310   -1.2637 H   0  0  0  0  0  0  0  0  0  0  0  0
   -0.3971   -1.2636   -1.2397 H   0  0  0  0  0  0  0  0  0  0  0  0
   -0.2343   -0.2154   -2.6335 H   0  0  0  0  0  0  0  0  0  0  0  0
   -0.3559    0.7653    0.2727 H   0  0  0  0  0  0  0  0  0  0  0  0
    1.0458    2.2008   -1.2388 H   0  0  0  0  0  0  0  0  0  0  0  0
   -0.3292    2.3848   -2.3260 H   0  0  0  0  0  0  0  0  0  0  0  0
   -0.0195    4.3239   -0.7914 H   0  0  0  0  0  0  0  0  0  0  0  0
   -1.5984    3.5704   -0.5553 H   0  0  0  0  0  0  0  0  0  0  0  0
   -0.2882    3.2718    0.6077 H   0  0  0  0  0  0  0  0  0  0  0  0
   -2.4910    0.7823   -1.8399 H   0  0  0  0  0  0  0  0  0  0  0  0
   -4.9990    0.9010    1.5315 H   0  0  0  0  0  0  0  0  0  0  0  0
   -6.7611    1.1500   -0.9615 H   0  0  0  0  0  0  0  0  0  0  0  0
   -6.3797   -0.3383   -0.1081 H   0  0  0  0  0  0  0  0  0  0  0  0
   -7.3522    0.9112    0.7004 H   0  0  0  0  0  0  0  0  0  0  0  0
   -5.5866    3.3502   -0.2430 H   0  0  0  0  0  0  0  0  0  0  0  0
   -4.4729    3.3259    1.1147 H   0  0  0  0  0  0  0  0  0  0  0  0
   -6.2102    3.1143    1.4073 H   0  0  0  0  0  0  0  0  0  0  0  0
  1  2  1  0
  2  3  1  0
  3  4  1  0
  4  5  1  0
  5  6  1  0
  6  7  2  0
  6  8  1  0
  8  9  1  0
  9 10  1  0
 10 11  1  0
 11 12  1  0
 10 13  1  0
 13 14  1  0
 14 15  2  0
 14 16  1  0
 16 17  1  0
 17 18  1  0
 17 19  1  0
  1 20  1  0
  1 21  1  0
  1 22  1  0
  2 23  1  0
  2 24  1  0
  3 25  1  0
  3 26  1  0
  4 27  1  0
  4 28  1  0
  5 29  1  0
  9 30  1  0
  9 31  1  0
 10 32  1  0
 11 33  1  0
 11 34  1  0
 12 35  1  0
 12 36  1  0
 12 37  1  0
 13 38  1  0
 17 39  1  0
 18 40  1  0
 18 41  1  0
 18 42  1  0
 19 43  1  0
 19 44  1  0
 19 45  1  0
M  END
$$$$
