
     RDKit          3D

 56 58  0  0  0  0  0  0  0  0999 V2000
    0.2759   -3.3098   -2.6739 C   0  0  0  0  0  0  0  0  0  0  0  0
    1.2271   -2.8108   -1.7451 O   0  0  0  0  0  0  0  0  0  0  0  0
    0.8314   -1.7961   -0.9074 C   0  0  0  0  0  0  0  0  0  0  0  0
   -0.4792   -1.3068   -0.8241 C   0  0  0  0  0  0  0  0  0  0  0  0
   -0.8017   -0.2626    0.0529 C   0  0  0  0  0  0  0  0  0  0  0  0
   -2.1947    0.2020    0.1230 C   0  0  0  0  0  0  0  0  0  0  0  0
   -2.5314    1.4961    0.2328 C   0  0  0  0  0  0  0  0  0  0  0  0
   -3.9217    2.0191    0.3017 C   0  0  0  0  0  0  0  0  0  0  0  0
   -4.1299    3.2055    0.5358 O   0  0  0  0  0  0  0  0  0  0  0  0
   -5.0615    1.1095    0.1082 C   0  0  0  0  0  0  0  0  0  0  0  0
   -5.4067    0.6625   -1.1826 C   0  0  0  0  0  0  0  0  0  0  0  0
   -4.5965    1.0687   -2.2098 O   0  0  0  0  0  0  0  0  0  0  0  0
   -5.0726    0.8801   -3.5371 C   0  0  0  0  0  0  0  0  0  0  0  0
   -6.5229   -0.1753   -1.3421 C   0  0  0  0  0  0  0  0  0  0  0  0
   -7.2964   -0.5505   -0.2387 C   0  0  0  0  0  0  0  0  0  0  0  0
   -6.9389   -0.0851    1.0178 C   0  0  0  0  0  0  0  0  0  0  0  0
   -7.6885   -0.4432    2.1356 O   0  0  0  0  0  0  0  0  0  0  0  0
   -7.0944    0.1545    3.2434 C   0  0  0  0  0  0  0  0  0  0  0  0
   -7.5332    0.0174    4.3770 O   0  0  0  0  0  0  0  0  0  0  0  0
   -5.6522    1.1161    2.9096 S   0  0  0  0  0  0  0  0  0  0  0  0
   -5.8343    0.7380    1.2034 C   0  0  0  0  0  0  0  0  0  0  0  0
    0.2006    0.2702    0.8680 C   0  0  0  0  0  0  0  0  0  0  0  0
    1.5108   -0.2137    0.7952 C   0  0  0  0  0  0  0  0  0  0  0  0
    1.8366   -1.2473   -0.0858 C   0  0  0  0  0  0  0  0  0  0  0  0
    3.0908   -1.7800   -0.2384 O   0  0  0  0  0  0  0  0  0  0  0  0
    4.1316   -1.4035    0.6607 C   0  0  0  0  0  0  0  0  0  0  0  0
    4.8827   -0.1799    0.1385 C   0  0  0  0  0  0  0  0  0  0  0  0
    6.0647    0.1652    1.0492 C   0  0  0  0  0  0  0  0  0  0  0  0
    6.7220    1.4338    0.6920 N   0  0  0  0  0  0  0  0  0  0  0  0
    7.3799    1.3689   -0.6153 C   0  0  0  0  0  0  0  0  0  0  0  0
    7.7029    1.7969    1.7191 C   0  0  0  0  0  0  0  0  0  0  0  0
    0.7756   -4.0597   -3.2947 H   0  0  0  0  0  0  0  0  0  0  0  0
   -0.0857   -2.5174   -3.3377 H   0  0  0  0  0  0  0  0  0  0  0  0
   -0.5539   -3.8052   -2.1588 H   0  0  0  0  0  0  0  0  0  0  0  0
   -1.2671   -1.7223   -1.4436 H   0  0  0  0  0  0  0  0  0  0  0  0
   -2.9446   -0.5799    0.0550 H   0  0  0  0  0  0  0  0  0  0  0  0
   -1.7795    2.2784    0.2847 H   0  0  0  0  0  0  0  0  0  0  0  0
   -6.0594    1.3342   -3.6755 H   0  0  0  0  0  0  0  0  0  0  0  0
   -5.0853   -0.1827   -3.7989 H   0  0  0  0  0  0  0  0  0  0  0  0
   -4.3759    1.3815   -4.2162 H   0  0  0  0  0  0  0  0  0  0  0  0
   -6.8150   -0.5555   -2.3171 H   0  0  0  0  0  0  0  0  0  0  0  0
   -8.1619   -1.1953   -0.3648 H   0  0  0  0  0  0  0  0  0  0  0  0
   -0.0218    1.0655    1.5760 H   0  0  0  0  0  0  0  0  0  0  0  0
    2.2522    0.2491    1.4372 H   0  0  0  0  0  0  0  0  0  0  0  0
    3.7691   -1.2772    1.6871 H   0  0  0  0  0  0  0  0  0  0  0  0
    4.8247   -2.2526    0.6945 H   0  0  0  0  0  0  0  0  0  0  0  0
    4.2018    0.6755    0.0614 H   0  0  0  0  0  0  0  0  0  0  0  0
    5.2201   -0.3901   -0.8831 H   0  0  0  0  0  0  0  0  0  0  0  0
    6.7881   -0.6609    1.0492 H   0  0  0  0  0  0  0  0  0  0  0  0
    5.6783    0.2498    2.0735 H   0  0  0  0  0  0  0  0  0  0  0  0
    6.6509    1.2331   -1.4203 H   0  0  0  0  0  0  0  0  0  0  0  0
    7.8949    2.3118   -0.8337 H   0  0  0  0  0  0  0  0  0  0  0  0
    8.1152    0.5577   -0.6680 H   0  0  0  0  0  0  0  0  0  0  0  0
    8.5009    1.0507    1.8104 H   0  0  0  0  0  0  0  0  0  0  0  0
    7.2177    1.9052    2.6960 H   0  0  0  0  0  0  0  0  0  0  0  0
    8.1599    2.7664    1.4904 H   0  0  0  0  0  0  0  0  0  0  0  0
  1  2  1  0
  2  3  1  0
  3  4  2  0
  4  5  1  0
  5  6  1  0
  6  7  2  0
  7  8  1  0
  8  9  2  0
  8 10  1  0
 10 11  2  0
 11 12  1  0
 12 13  1  0
 11 14  1  0
 14 15  2  0
 15 16  1  0
 16 17  1  0
 17 18  1  0
 18 19  2  0
 18 20  1  0
 20 21  1  0
  5 22  2  0
 22 23  1  0
 23 24  2  0
 24 25  1  0
 25 26  1  0
 26 27  1  0
 27 28  1  0
 28 29  1  0
 29 30  1  0
 29 31  1  0
 24  3  1  0
 21 10  1  0
 21 16  2  0
  1 32  1  0
  1 33  1  0
  1 34  1  0
  4 35  1  0
  6 36  1  0
  7 37  1  0
 13 38  1  0
 13 39  1  0
 13 40  1  0
 14 41  1  0
 15 42  1  0
 22 43  1  0
 23 44  1  0
 26 45  1  0
 26 46  1  0
 27 47  1  0
 27 48  1  0
 28 49  1  0
 28 50  1  0
 30 51  1  0
 30 52  1  0
 30 53  1  0
 31 54  1  0
 31 55  1  0
 31 56  1  0
M  END
$$$$
