
     RDKit          3D

 87 91  0  0  0  0  0  0  0  0999 V2000
    3.0053    6.8833   -0.1717 C   0  0  0  0  0  0  0  0  0  0  0  0
    2.7750    5.8227    0.8882 C   0  0  0  0  0  0  0  0  0  0  0  0
    2.7427    4.4481    0.2722 C   0  0  0  0  0  0  0  0  0  0  0  0
    3.6414    3.6223    0.3758 O   0  0  0  0  0  0  0  0  0  0  0  0
    1.5793    4.2500   -0.4005 O   0  0  0  0  0  0  0  0  0  0  0  0
    1.5032    3.0041   -1.1089 C   0  0  0  0  0  0  0  0  0  0  0  0
    0.0922    2.8631   -1.6967 C   0  0  1  0  0  0  0  0  0  0  0  0
    0.0193    1.7262   -2.7385 C   0  0  0  0  0  0  0  0  0  0  0  0
   -0.6421    0.5349   -2.0102 C   0  0  2  0  0  0  0  0  0  0  0  0
    0.3055   -0.0281   -1.0902 O   0  0  0  0  0  0  0  0  0  0  0  0
    1.3526   -0.7130   -1.6174 C   0  0  0  0  0  0  0  0  0  0  0  0
    1.6089   -0.8500   -2.8017 O   0  0  0  0  0  0  0  0  0  0  0  0
    2.1157   -1.3122   -0.5061 C   0  0  0  0  0  0  0  0  0  0  0  0
    3.0366   -2.2501   -0.7722 C   0  0  0  0  0  0  0  0  0  0  0  0
    3.8366   -2.9339    0.2525 C   0  0  0  0  0  0  0  0  0  0  0  0
    5.1580   -3.2840   -0.0517 C   0  0  0  0  0  0  0  0  0  0  0  0
    5.9472   -3.9582    0.8824 C   0  0  0  0  0  0  0  0  0  0  0  0
    5.4189   -4.2958    2.1258 C   0  0  0  0  0  0  0  0  0  0  0  0
    4.1007   -3.9694    2.4332 C   0  0  0  0  0  0  0  0  0  0  0  0
    3.3092   -3.2960    1.4998 C   0  0  0  0  0  0  0  0  0  0  0  0
   -1.3591   -0.4309   -3.0017 C   0  0  0  0  0  0  0  0  0  0  0  0
   -1.9854    0.0361   -3.9655 O   0  0  0  0  0  0  0  0  0  0  0  0
   -1.2723   -1.9419   -2.8862 C   0  0  0  0  0  0  0  0  0  0  0  0
   -1.1036   -2.5530   -4.2669 C   0  0  0  0  0  0  0  0  0  0  0  0
   -1.3199   -2.7721   -1.8200 C   0  0  0  0  0  0  0  0  0  0  0  0
   -1.4861   -2.5966   -0.3630 C   0  0  0  0  0  0  0  0  0  0  0  0
   -2.8410   -2.6950    0.3280 C   0  0  2  0  0  0  0  0  0  0  0  0
   -3.2140   -1.8425    1.5243 C   0  0  0  0  0  0  0  0  0  0  0  0
   -4.2644   -0.7474    1.2377 C   0  0  0  0  0  0  0  0  0  0  0  0
   -3.8644    0.3179    0.2325 C   0  0  2  0  0  0  0  0  0  0  0  0
   -4.8227    1.4459    0.0287 C   0  0  0  0  0  0  0  0  0  0  0  0
   -3.4287   -0.2936   -0.9638 O   0  0  0  0  0  0  0  0  0  0  0  0
   -2.4207    0.4472   -0.2449 C   0  0  1  0  0  0  0  0  0  0  0  0
   -1.7461    1.3284   -1.2373 C   0  0  1  0  0  0  0  0  0  0  0  0
   -1.0311    2.5629   -0.6654 C   0  0  1  0  0  0  0  0  0  0  0  0
   -0.5184    2.2830    0.6496 O   0  0  0  0  0  0  0  0  0  0  0  0
   -0.6269    3.2958    1.5581 C   0  0  0  0  0  0  0  0  0  0  0  0
   -1.1089    4.3993    1.3386 O   0  0  0  0  0  0  0  0  0  0  0  0
   -0.0857    2.8431    2.8974 C   0  0  0  0  0  0  0  0  0  0  0  0
   -0.1830    3.9571    3.9375 C   0  0  0  0  0  0  0  0  0  0  0  0
   -1.8390   -3.8272    0.4899 C   0  0  0  0  0  0  0  0  0  0  0  0
   -1.0664   -3.9975    1.7789 C   0  0  0  0  0  0  0  0  0  0  0  0
   -2.2458   -5.1515   -0.1212 C   0  0  0  0  0  0  0  0  0  0  0  0
    2.1996    6.8796   -0.9169 H   0  0  0  0  0  0  0  0  0  0  0  0
    3.0585    7.8763    0.2842 H   0  0  0  0  0  0  0  0  0  0  0  0
    3.9416    6.7002   -0.7063 H   0  0  0  0  0  0  0  0  0  0  0  0
    1.8374    5.9911    1.4329 H   0  0  0  0  0  0  0  0  0  0  0  0
    3.5835    5.8487    1.6275 H   0  0  0  0  0  0  0  0  0  0  0  0
    1.7425    2.1614   -0.4439 H   0  0  0  0  0  0  0  0  0  0  0  0
    2.2477    3.0335   -1.9176 H   0  0  0  0  0  0  0  0  0  0  0  0
   -0.1523    3.8032   -2.2117 H   0  0  0  0  0  0  0  0  0  0  0  0
   -0.6033    2.0664   -3.5750 H   0  0  0  0  0  0  0  0  0  0  0  0
    1.0044    1.5029   -3.1589 H   0  0  0  0  0  0  0  0  0  0  0  0
    1.8806   -0.9805    0.4969 H   0  0  0  0  0  0  0  0  0  0  0  0
    3.2450   -2.5377   -1.8022 H   0  0  0  0  0  0  0  0  0  0  0  0
    5.5904   -3.0244   -1.0170 H   0  0  0  0  0  0  0  0  0  0  0  0
    6.9726   -4.2167    0.6384 H   0  0  0  0  0  0  0  0  0  0  0  0
    6.0312   -4.8214    2.8554 H   0  0  0  0  0  0  0  0  0  0  0  0
    3.6843   -4.2452    3.4007 H   0  0  0  0  0  0  0  0  0  0  0  0
    2.2768   -3.0731    1.7578 H   0  0  0  0  0  0  0  0  0  0  0  0
   -0.3345   -2.0138   -4.8294 H   0  0  0  0  0  0  0  0  0  0  0  0
   -2.0499   -2.5046   -4.8239 H   0  0  0  0  0  0  0  0  0  0  0  0
   -0.7975   -3.6015   -4.2256 H   0  0  0  0  0  0  0  0  0  0  0  0
   -1.1795   -3.8198   -2.0867 H   0  0  0  0  0  0  0  0  0  0  0  0
   -0.7378   -1.9518    0.0745 H   0  0  0  0  0  0  0  0  0  0  0  0
   -3.7091   -2.8920   -0.2941 H   0  0  0  0  0  0  0  0  0  0  0  0
   -2.3260   -1.3889    1.9801 H   0  0  0  0  0  0  0  0  0  0  0  0
   -3.6392   -2.5084    2.2845 H   0  0  0  0  0  0  0  0  0  0  0  0
   -4.5167   -0.2563    2.1852 H   0  0  0  0  0  0  0  0  0  0  0  0
   -5.1844   -1.2282    0.8818 H   0  0  0  0  0  0  0  0  0  0  0  0
   -5.8448    1.0695   -0.1031 H   0  0  0  0  0  0  0  0  0  0  0  0
   -4.8128    2.1074    0.9011 H   0  0  0  0  0  0  0  0  0  0  0  0
   -4.5746    2.0483   -0.8496 H   0  0  0  0  0  0  0  0  0  0  0  0
   -1.6934   -0.0354    0.3900 H   0  0  0  0  0  0  0  0  0  0  0  0
   -2.4854    1.6927   -1.9682 H   0  0  0  0  0  0  0  0  0  0  0  0
   -1.7559    3.3869   -0.6356 H   0  0  0  0  0  0  0  0  0  0  0  0
    0.9653    2.5490    2.7772 H   0  0  0  0  0  0  0  0  0  0  0  0
   -0.6688    1.9822    3.2338 H   0  0  0  0  0  0  0  0  0  0  0  0
   -1.2200    4.2975    4.0411 H   0  0  0  0  0  0  0  0  0  0  0  0
    0.4263    4.8204    3.6440 H   0  0  0  0  0  0  0  0  0  0  0  0
    0.1679    3.6088    4.9162 H   0  0  0  0  0  0  0  0  0  0  0  0
   -1.7005   -4.4510    2.5483 H   0  0  0  0  0  0  0  0  0  0  0  0
   -0.2024   -4.6496    1.6168 H   0  0  0  0  0  0  0  0  0  0  0  0
   -0.6868   -3.0493    2.1706 H   0  0  0  0  0  0  0  0  0  0  0  0
   -2.7831   -5.7577    0.6205 H   0  0  0  0  0  0  0  0  0  0  0  0
   -1.3582   -5.7142   -0.4383 H   0  0  0  0  0  0  0  0  0  0  0  0
   -2.9112   -5.0361   -0.9852 H   0  0  0  0  0  0  0  0  0  0  0  0
  1  2  1  0
  2  3  1  0
  3  4  2  0
  3  5  1  0
  5  6  1  0
  6  7  1  0
  7  8  1  0
  8  9  1  0
  9 10  1  1
 10 11  1  0
 11 12  2  0
 11 13  1  0
 13 14  2  0
 14 15  1  0
 15 16  2  0
 16 17  1  0
 17 18  2  0
 18 19  1  0
 19 20  2  0
  9 21  1  0
 21 22  2  0
 21 23  1  0
 23 24  1  0
 23 25  2  3
 25 26  1  0
 26 27  1  0
 27 28  1  0
 28 29  1  0
 29 30  1  0
 30 31  1  6
 30 32  1  0
 32 33  1  0
 33 34  1  0
 34 35  1  0
 35 36  1  0
 36 37  1  0
 37 38  2  0
 37 39  1  0
 39 40  1  0
 27 41  1  0
 41 42  1  0
 41 43  1  0
 35  7  1  0
 34  9  1  0
 20 15  1  0
 41 26  1  0
 33 30  1  0
  1 44  1  0
  1 45  1  0
  1 46  1  0
  2 47  1  0
  2 48  1  0
  6 49  1  0
  6 50  1  0
  7 51  1  6
  8 52  1  0
  8 53  1  0
 13 54  1  0
 14 55  1  0
 16 56  1  0
 17 57  1  0
 18 58  1  0
 19 59  1  0
 20 60  1  0
 24 61  1  0
 24 62  1  0
 24 63  1  0
 25 64  1  0
 26 65  1  0
 27 66  1  6
 28 67  1  0
 28 68  1  0
 29 69  1  0
 29 70  1  0
 31 71  1  0
 31 72  1  0
 31 73  1  0
 33 74  1  1
 34 75  1  6
 35 76  1  1
 39 77  1  0
 39 78  1  0
 40 79  1  0
 40 80  1  0
 40 81  1  0
 42 82  1  0
 42 83  1  0
 42 84  1  0
 43 85  1  0
 43 86  1  0
 43 87  1  0
M  END
$$$$
