
     RDKit          3D

 61 65  0  0  0  0  0  0  0  0999 V2000
   -7.6098    1.9881   -2.7051 C   0  0  0  0  0  0  0  0  0  0  0  0
   -7.4879    1.6511   -1.3300 O   0  0  0  0  0  0  0  0  0  0  0  0
   -6.2220    1.6460   -0.7922 C   0  0  0  0  0  0  0  0  0  0  0  0
   -5.0852    2.1370   -1.4419 C   0  0  0  0  0  0  0  0  0  0  0  0
   -3.8376    2.0947   -0.8113 C   0  0  0  0  0  0  0  0  0  0  0  0
   -3.7002    1.5593    0.4745 C   0  0  0  0  0  0  0  0  0  0  0  0
   -2.3798    1.5254    1.0962 C   0  0  0  0  0  0  0  0  0  0  0  0
   -1.2641    2.1156    0.7121 N   0  0  0  0  0  0  0  0  0  0  0  0
   -0.3194    1.6974    1.6257 C   0  0  0  0  0  0  0  0  0  0  0  0
    1.0930    2.1419    1.5228 C   0  0  0  0  0  0  0  0  0  0  0  0
    1.6675    1.7512    0.2456 N   0  0  0  0  0  0  0  0  0  0  0  0
    2.2782    0.5613   -0.0663 C   0  0  0  0  0  0  0  0  0  0  0  0
    2.3871   -0.7663    1.0433 S   0  0  0  0  0  0  0  0  0  0  0  0
    2.6308   -2.1640   -0.0971 C   0  0  0  0  0  0  0  0  0  0  0  0
    4.0610   -2.6486   -0.1310 C   0  0  0  0  0  0  0  0  0  0  0  0
    4.4670   -3.7316    0.6600 C   0  0  0  0  0  0  0  0  0  0  0  0
    5.7878   -4.1921    0.6115 C   0  0  0  0  0  0  0  0  0  0  0  0
    6.7282   -3.5729   -0.2191 C   0  0  0  0  0  0  0  0  0  0  0  0
    8.1473   -4.0552   -0.2779 C   0  0  0  0  0  0  0  0  0  0  0  0
    6.3272   -2.4857   -1.0016 C   0  0  0  0  0  0  0  0  0  0  0  0
    5.0079   -2.0267   -0.9575 C   0  0  0  0  0  0  0  0  0  0  0  0
    2.7504    0.5601   -1.2912 N   0  0  0  0  0  0  0  0  0  0  0  0
    2.4087    1.7813   -1.8144 C   0  0  0  0  0  0  0  0  0  0  0  0
    2.6559    2.3010   -3.0846 C   0  0  0  0  0  0  0  0  0  0  0  0
    2.1611    3.5727   -3.3203 C   0  0  0  0  0  0  0  0  0  0  0  0
    1.4708    4.3141   -2.4220 N   0  0  0  0  0  0  0  0  0  0  0  0
    1.2299    3.8073   -1.1892 C   0  0  0  0  0  0  0  0  0  0  0  0
    1.7148    2.5433   -0.8828 C   0  0  0  0  0  0  0  0  0  0  0  0
   -0.9218    0.8788    2.5587 C   0  0  0  0  0  0  0  0  0  0  0  0
   -0.4743    0.1391    3.7511 C   0  0  0  0  0  0  0  0  0  0  0  0
   -2.2423    0.7636    2.2265 O   0  0  0  0  0  0  0  0  0  0  0  0
   -4.8438    1.0731    1.1275 C   0  0  0  0  0  0  0  0  0  0  0  0
   -6.1011    1.1138    0.5062 C   0  0  0  0  0  0  0  0  0  0  0  0
   -7.2640    0.6643    1.0798 O   0  0  0  0  0  0  0  0  0  0  0  0
   -7.1743    0.0191    2.3436 C   0  0  0  0  0  0  0  0  0  0  0  0
   -8.6546    1.8352   -2.9961 H   0  0  0  0  0  0  0  0  0  0  0  0
   -6.9919    1.3353   -3.3334 H   0  0  0  0  0  0  0  0  0  0  0  0
   -7.3693    3.0442   -2.8715 H   0  0  0  0  0  0  0  0  0  0  0  0
   -5.1355    2.5672   -2.4354 H   0  0  0  0  0  0  0  0  0  0  0  0
   -2.9656    2.4836   -1.3348 H   0  0  0  0  0  0  0  0  0  0  0  0
    1.7187    1.7367    2.3236 H   0  0  0  0  0  0  0  0  0  0  0  0
    1.1488    3.2329    1.6026 H   0  0  0  0  0  0  0  0  0  0  0  0
    1.9805   -2.9776    0.2453 H   0  0  0  0  0  0  0  0  0  0  0  0
    2.2848   -1.9347   -1.1130 H   0  0  0  0  0  0  0  0  0  0  0  0
    3.7511   -4.2337    1.3124 H   0  0  0  0  0  0  0  0  0  0  0  0
    6.0731   -5.0407    1.2298 H   0  0  0  0  0  0  0  0  0  0  0  0
    8.4076   -4.3333   -1.3054 H   0  0  0  0  0  0  0  0  0  0  0  0
    8.2978   -4.9355    0.3577 H   0  0  0  0  0  0  0  0  0  0  0  0
    8.8289   -3.2691    0.0641 H   0  0  0  0  0  0  0  0  0  0  0  0
    7.0445   -1.9821   -1.6509 H   0  0  0  0  0  0  0  0  0  0  0  0
    4.7201   -1.1783   -1.5745 H   0  0  0  0  0  0  0  0  0  0  0  0
    3.1965    1.7412   -3.8347 H   0  0  0  0  0  0  0  0  0  0  0  0
    2.3100    4.0507   -4.2852 H   0  0  0  0  0  0  0  0  0  0  0  0
    0.6595    4.4232   -0.5048 H   0  0  0  0  0  0  0  0  0  0  0  0
   -0.4699   -0.9369    3.5510 H   0  0  0  0  0  0  0  0  0  0  0  0
   -1.1433    0.3314    4.5964 H   0  0  0  0  0  0  0  0  0  0  0  0
    0.5366    0.4346    4.0487 H   0  0  0  0  0  0  0  0  0  0  0  0
   -4.7341    0.6708    2.1281 H   0  0  0  0  0  0  0  0  0  0  0  0
   -8.1760   -0.3279    2.6155 H   0  0  0  0  0  0  0  0  0  0  0  0
   -6.5225   -0.8596    2.2950 H   0  0  0  0  0  0  0  0  0  0  0  0
   -6.8428    0.7188    3.1198 H   0  0  0  0  0  0  0  0  0  0  0  0
  1  2  1  0
  2  3  1  0
  3  4  2  0
  4  5  1  0
  5  6  2  0
  6  7  1  0
  7  8  2  0
  8  9  1  0
  9 10  1  0
 10 11  1  0
 11 12  1  0
 12 13  1  0
 13 14  1  0
 14 15  1  0
 15 16  2  0
 16 17  1  0
 17 18  2  0
 18 19  1  0
 18 20  1  0
 20 21  2  0
 12 22  2  0
 22 23  1  0
 23 24  2  0
 24 25  1  0
 25 26  2  0
 26 27  1  0
 27 28  2  0
  9 29  2  0
 29 30  1  0
 29 31  1  0
  6 32  1  0
 32 33  2  0
 33 34  1  0
 34 35  1  0
 33  3  1  0
 31  7  1  0
 28 11  1  0
 21 15  1  0
 28 23  1  0
  1 36  1  0
  1 37  1  0
  1 38  1  0
  4 39  1  0
  5 40  1  0
 10 41  1  0
 10 42  1  0
 14 43  1  0
 14 44  1  0
 16 45  1  0
 17 46  1  0
 19 47  1  0
 19 48  1  0
 19 49  1  0
 20 50  1  0
 21 51  1  0
 24 52  1  0
 25 53  1  0
 27 54  1  0
 30 55  1  0
 30 56  1  0
 30 57  1  0
 32 58  1  0
 35 59  1  0
 35 60  1  0
 35 61  1  0
M  END
$$$$
