
     RDKit          3D

 59 64  0  0  0  0  0  0  0  0999 V2000
    3.3185    2.6179    0.7429 O   0  0  0  0  0  0  0  0  0  0  0  0
    3.2241    1.3945    0.6671 C   0  0  0  0  0  0  0  0  0  0  0  0
    4.4523    0.5507    0.6384 C   0  0  0  0  0  0  0  0  0  0  0  0
    5.6426    1.1159    0.8966 C   0  0  0  0  0  0  0  0  0  0  0  0
    6.8632    0.3792    0.8567 C   0  0  0  0  0  0  0  0  0  0  0  0
    7.1105   -0.9843    0.8056 C   0  0  0  0  0  0  0  0  0  0  0  0
    8.4995   -1.3052    0.7703 C   0  0  0  0  0  0  0  0  0  0  0  0
    9.2852   -0.1787    0.7992 C   0  0  0  0  0  0  0  0  0  0  0  0
    8.3548    1.2498    0.8809 S   0  0  0  0  0  0  0  0  0  0  0  0
    2.0034    0.7392    0.5823 N   0  0  0  0  0  0  0  0  0  0  0  0
    1.8218   -0.7110    0.5830 C   0  0  0  0  0  0  0  0  0  0  0  0
    0.3857   -1.1135    0.9077 C   0  0  0  0  0  0  0  0  0  0  0  0
   -0.6436   -0.5085   -0.0983 C   0  0  0  0  0  0  0  0  0  0  0  0
   -0.1708    0.9146   -0.5242 C   0  0  0  0  0  0  0  0  0  0  0  0
    0.7895    1.5468    0.4758 C   0  0  0  0  0  0  0  0  0  0  0  0
   -0.6143   -1.2801   -1.3309 O   0  0  0  0  0  0  0  0  0  0  0  0
   -1.2190   -2.5054   -1.2985 C   0  0  0  0  0  0  0  0  0  0  0  0
   -0.8958   -3.3773   -2.3395 C   0  0  0  0  0  0  0  0  0  0  0  0
   -1.4451   -4.6603   -2.3683 C   0  0  0  0  0  0  0  0  0  0  0  0
   -2.3168   -5.0596   -1.3593 C   0  0  0  0  0  0  0  0  0  0  0  0
   -2.8372   -6.2928   -1.3914 F   0  0  0  0  0  0  0  0  0  0  0  0
   -2.6604   -4.1977   -0.3256 C   0  0  0  0  0  0  0  0  0  0  0  0
   -2.1133   -2.9123   -0.3073 C   0  0  0  0  0  0  0  0  0  0  0  0
   -2.4866   -1.9548    0.7505 C   0  0  0  0  0  0  0  0  0  0  0  0
   -3.1177   -2.3455    1.7261 O   0  0  0  0  0  0  0  0  0  0  0  0
   -2.0855   -0.5060    0.4914 C   0  0  0  0  0  0  0  0  0  0  0  0
   -3.1705    0.1154   -0.3836 C   0  0  0  0  0  0  0  0  0  0  0  0
   -3.4158    1.3707    0.3804 C   0  0  0  0  0  0  0  0  0  0  0  0
   -4.2784    2.4552   -0.1455 C   0  0  0  0  0  0  0  0  0  0  0  0
   -4.4288    3.6271    0.6089 C   0  0  0  0  0  0  0  0  0  0  0  0
   -5.2306    4.6686    0.1384 C   0  0  0  0  0  0  0  0  0  0  0  0
   -5.8851    4.5454   -1.0863 C   0  0  0  0  0  0  0  0  0  0  0  0
   -5.7420    3.3800   -1.8406 C   0  0  0  0  0  0  0  0  0  0  0  0
   -4.9415    2.3340   -1.3728 C   0  0  0  0  0  0  0  0  0  0  0  0
   -2.8127    1.4388    1.5232 N   0  0  0  0  0  0  0  0  0  0  0  0
   -2.1161    0.2274    1.7188 O   0  0  0  0  0  0  0  0  0  0  0  0
    4.3647   -0.4888    0.3671 H   0  0  0  0  0  0  0  0  0  0  0  0
    5.6928    2.1790    1.1298 H   0  0  0  0  0  0  0  0  0  0  0  0
    6.3321   -1.7359    0.7977 H   0  0  0  0  0  0  0  0  0  0  0  0
    8.8986   -2.3114    0.7264 H   0  0  0  0  0  0  0  0  0  0  0  0
   10.3642   -0.1227    0.7818 H   0  0  0  0  0  0  0  0  0  0  0  0
    2.1136   -1.0844   -0.4059 H   0  0  0  0  0  0  0  0  0  0  0  0
    2.4934   -1.1558    1.3249 H   0  0  0  0  0  0  0  0  0  0  0  0
    0.3405   -2.2082    0.9199 H   0  0  0  0  0  0  0  0  0  0  0  0
    0.1618   -0.7782    1.9284 H   0  0  0  0  0  0  0  0  0  0  0  0
    0.3388    0.8546   -1.4981 H   0  0  0  0  0  0  0  0  0  0  0  0
   -1.0091    1.5974   -0.6899 H   0  0  0  0  0  0  0  0  0  0  0  0
    0.3416    1.6213    1.4735 H   0  0  0  0  0  0  0  0  0  0  0  0
    1.0321    2.5648    0.1522 H   0  0  0  0  0  0  0  0  0  0  0  0
   -0.2076   -3.0649   -3.1218 H   0  0  0  0  0  0  0  0  0  0  0  0
   -1.1965   -5.3528   -3.1677 H   0  0  0  0  0  0  0  0  0  0  0  0
   -3.3510   -4.5288    0.4451 H   0  0  0  0  0  0  0  0  0  0  0  0
   -2.8414    0.3121   -1.4076 H   0  0  0  0  0  0  0  0  0  0  0  0
   -4.0976   -0.4690   -0.4097 H   0  0  0  0  0  0  0  0  0  0  0  0
   -3.9257    3.7369    1.5687 H   0  0  0  0  0  0  0  0  0  0  0  0
   -5.3443    5.5747    0.7302 H   0  0  0  0  0  0  0  0  0  0  0  0
   -6.5099    5.3573   -1.4513 H   0  0  0  0  0  0  0  0  0  0  0  0
   -6.2574    3.2865   -2.7942 H   0  0  0  0  0  0  0  0  0  0  0  0
   -4.8571    1.4383   -1.9819 H   0  0  0  0  0  0  0  0  0  0  0  0
  1  2  2  0
  2  3  1  0
  3  4  2  3
  4  5  1  0
  5  6  2  0
  6  7  1  0
  7  8  2  0
  8  9  1  0
  2 10  1  0
 10 11  1  0
 11 12  1  0
 12 13  1  0
 13 14  1  0
 14 15  1  0
 13 16  1  0
 16 17  1  0
 17 18  2  0
 18 19  1  0
 19 20  2  0
 20 21  1  0
 20 22  1  0
 22 23  2  0
 23 24  1  0
 24 25  2  0
 24 26  1  0
 26 27  1  0
 27 28  1  0
 28 29  1  0
 29 30  2  0
 30 31  1  0
 31 32  2  0
 32 33  1  0
 33 34  2  0
 28 35  2  0
 35 36  1  0
  9  5  1  0
 15 10  1  0
 23 17  1  0
 36 26  1  0
 26 13  1  0
 34 29  1  0
  3 37  1  0
  4 38  1  0
  6 39  1  0
  7 40  1  0
  8 41  1  0
 11 42  1  0
 11 43  1  0
 12 44  1  0
 12 45  1  0
 14 46  1  0
 14 47  1  0
 15 48  1  0
 15 49  1  0
 18 50  1  0
 19 51  1  0
 22 52  1  0
 27 53  1  0
 27 54  1  0
 30 55  1  0
 31 56  1  0
 32 57  1  0
 33 58  1  0
 34 59  1  0
M  END
$$$$
