
     RDKit          3D

 56 60  0  0  0  0  0  0  0  0999 V2000
   -4.7181   -0.7137   -3.5243 C   0  0  0  0  0  0  0  0  0  0  0  0
   -3.5204   -0.4678   -2.6514 C   0  0  0  0  0  0  0  0  0  0  0  0
   -2.8907    0.7862   -2.7375 C   0  0  0  0  0  0  0  0  0  0  0  0
   -1.7661    1.0890   -1.9643 C   0  0  0  0  0  0  0  0  0  0  0  0
   -1.2278    0.1463   -1.0805 C   0  0  0  0  0  0  0  0  0  0  0  0
   -0.0505    0.4626   -0.2644 C   0  0  0  0  0  0  0  0  0  0  0  0
    1.1045   -0.0357   -0.7514 N   0  0  0  0  0  0  0  0  0  0  0  0
    2.2808    0.1897   -0.0922 N   0  0  0  0  0  0  0  0  0  0  0  0
    2.3158    0.9066    1.0508 C   0  0  0  0  0  0  0  0  0  0  0  0
    3.5462    1.0952    1.7398 N   0  0  0  0  0  0  0  0  0  0  0  0
    4.8566    0.8479    1.2657 C   0  0  0  0  0  0  0  0  0  0  0  0
    5.8835    0.6059    2.2117 C   0  0  0  0  0  0  0  0  0  0  0  0
    7.2140    0.4175    1.8188 C   0  0  0  0  0  0  0  0  0  0  0  0
    7.4997    0.5016    0.4760 C   0  0  0  0  0  0  0  0  0  0  0  0
    6.5232    0.7712   -0.4511 C   0  0  0  0  0  0  0  0  0  0  0  0
    5.2041    0.9609   -0.0887 C   0  0  0  0  0  0  0  0  0  0  0  0
    7.0165    0.8356   -1.7177 O   0  0  0  0  0  0  0  0  0  0  0  0
    8.4094    0.5486   -1.4817 C   0  0  0  0  0  0  0  0  0  0  0  0
    8.7278    0.3544   -0.0876 O   0  0  0  0  0  0  0  0  0  0  0  0
    1.1295    1.4577    1.5922 C   0  0  0  0  0  0  0  0  0  0  0  0
    1.1030    2.2462    2.7711 C   0  0  0  0  0  0  0  0  0  0  0  0
   -0.0871    2.7611    3.2871 C   0  0  0  0  0  0  0  0  0  0  0  0
   -1.2851    2.5056    2.6386 C   0  0  0  0  0  0  0  0  0  0  0  0
   -1.2888    1.7469    1.4689 C   0  0  0  0  0  0  0  0  0  0  0  0
   -0.0922    1.2194    0.9203 C   0  0  0  0  0  0  0  0  0  0  0  0
   -1.8377   -1.1129   -1.0016 C   0  0  0  0  0  0  0  0  0  0  0  0
   -2.9802   -1.4189   -1.7664 C   0  0  0  0  0  0  0  0  0  0  0  0
   -3.6540   -3.0612   -1.5379 S   0  0  0  0  0  6  0  0  0  0  0  0
   -4.6592   -3.3318   -2.5397 O   0  0  0  0  0  0  0  0  0  0  0  0
   -2.5429   -3.9629   -1.3261 O   0  0  0  0  0  0  0  0  0  0  0  0
   -4.4362   -2.9226   -0.0615 N   0  0  0  0  0  0  0  0  0  0  0  0
   -5.5462   -1.9708    0.0826 C   0  0  0  0  0  0  0  0  0  0  0  0
   -6.1888   -2.1793    1.4551 C   0  0  0  0  0  0  0  0  0  0  0  0
   -5.2223   -1.9092    2.4734 O   0  0  0  0  0  0  0  0  0  0  0  0
   -4.4979   -1.4841   -4.2694 H   0  0  0  0  0  0  0  0  0  0  0  0
   -5.0038    0.1899   -4.0750 H   0  0  0  0  0  0  0  0  0  0  0  0
   -5.5861   -0.9963   -2.9216 H   0  0  0  0  0  0  0  0  0  0  0  0
   -3.2686    1.5456   -3.4213 H   0  0  0  0  0  0  0  0  0  0  0  0
   -1.3006    2.0685   -2.0665 H   0  0  0  0  0  0  0  0  0  0  0  0
    3.4304    0.7710    2.6946 H   0  0  0  0  0  0  0  0  0  0  0  0
    5.6483    0.5584    3.2726 H   0  0  0  0  0  0  0  0  0  0  0  0
    7.9941    0.2199    2.5449 H   0  0  0  0  0  0  0  0  0  0  0  0
    4.4709    1.1967   -0.8515 H   0  0  0  0  0  0  0  0  0  0  0  0
    8.6794   -0.3594   -2.0332 H   0  0  0  0  0  0  0  0  0  0  0  0
    9.0086    1.3828   -1.8640 H   0  0  0  0  0  0  0  0  0  0  0  0
    2.0260    2.4845    3.2965 H   0  0  0  0  0  0  0  0  0  0  0  0
   -0.0734    3.3631    4.1924 H   0  0  0  0  0  0  0  0  0  0  0  0
   -2.2173    2.9002    3.0354 H   0  0  0  0  0  0  0  0  0  0  0  0
   -2.2469    1.5686    0.9831 H   0  0  0  0  0  0  0  0  0  0  0  0
   -1.4108   -1.8656   -0.3379 H   0  0  0  0  0  0  0  0  0  0  0  0
   -3.8150   -2.9963    0.7469 H   0  0  0  0  0  0  0  0  0  0  0  0
   -5.1545   -0.9505    0.0248 H   0  0  0  0  0  0  0  0  0  0  0  0
   -6.2915   -2.1279   -0.7019 H   0  0  0  0  0  0  0  0  0  0  0  0
   -6.5356   -3.2114    1.5726 H   0  0  0  0  0  0  0  0  0  0  0  0
   -7.0333   -1.4969    1.5898 H   0  0  0  0  0  0  0  0  0  0  0  0
   -5.6425   -2.1303    3.3233 H   0  0  0  0  0  0  0  0  0  0  0  0
  1  2  1  0
  2  3  2  0
  3  4  1  0
  4  5  2  0
  5  6  1  0
  6  7  2  0
  7  8  1  0
  8  9  2  0
  9 10  1  0
 10 11  1  0
 11 12  2  0
 12 13  1  0
 13 14  2  0
 14 15  1  0
 15 16  2  0
 15 17  1  0
 17 18  1  0
 18 19  1  0
  9 20  1  0
 20 21  2  0
 21 22  1  0
 22 23  2  0
 23 24  1  0
 24 25  2  0
  5 26  1  0
 26 27  2  0
 27 28  1  0
 28 29  2  0
 28 30  2  0
 28 31  1  0
 31 32  1  0
 32 33  1  0
 33 34  1  0
 27  2  1  0
 25  6  1  0
 16 11  1  0
 25 20  1  0
 19 14  1  0
  1 35  1  0
  1 36  1  0
  1 37  1  0
  3 38  1  0
  4 39  1  0
 10 40  1  0
 12 41  1  0
 13 42  1  0
 16 43  1  0
 18 44  1  0
 18 45  1  0
 21 46  1  0
 22 47  1  0
 23 48  1  0
 24 49  1  0
 26 50  1  0
 31 51  1  0
 32 52  1  0
 32 53  1  0
 33 54  1  0
 33 55  1  0
 34 56  1  0
M  END
$$$$
