
     RDKit          3D

 60 64  0  0  0  0  0  0  0  0999 V2000
   -0.5165   -1.1584   -3.3794 C   0  0  0  0  0  0  0  0  0  0  0  0
   -1.4881   -0.5742   -2.4591 N   0  0  0  0  0  0  0  0  0  0  0  0
   -2.6703   -1.2886   -2.2571 C   0  0  0  0  0  0  0  0  0  0  0  0
   -2.8895   -2.3620   -2.8277 O   0  0  0  0  0  0  0  0  0  0  0  0
   -3.6793   -0.7712   -1.2756 C   0  0  0  0  0  0  0  0  0  0  0  0
   -4.4781   -1.6827   -0.6872 C   0  0  0  0  0  0  0  0  0  0  0  0
   -5.5509   -1.3973    0.2700 C   0  0  0  0  0  0  0  0  0  0  0  0
   -5.2819   -1.3771    1.6416 C   0  0  0  0  0  0  0  0  0  0  0  0
   -6.3035   -1.0996    2.5537 C   0  0  0  0  0  0  0  0  0  0  0  0
   -7.6096   -0.8447    2.1073 C   0  0  0  0  0  0  0  0  0  0  0  0
   -8.7053   -0.5209    3.0933 C   0  0  0  0  0  0  0  0  0  0  0  0
   -8.7510    0.8048    3.4000 F   0  0  0  0  0  0  0  0  0  0  0  0
   -9.9491   -0.8439    2.6404 F   0  0  0  0  0  0  0  0  0  0  0  0
   -8.5629   -1.1741    4.2809 F   0  0  0  0  0  0  0  0  0  0  0  0
   -7.8689   -0.8591    0.7283 C   0  0  0  0  0  0  0  0  0  0  0  0
   -6.8473   -1.1372   -0.1836 C   0  0  0  0  0  0  0  0  0  0  0  0
   -3.8293    0.9228   -1.0367 S   0  0  0  0  0  0  0  0  0  0  0  0
   -2.1166    1.3743   -1.0705 C   0  0  0  0  0  0  0  0  0  0  0  0
   -1.7670    2.5688   -0.4151 C   0  0  0  0  0  0  0  0  0  0  0  0
   -0.4545    3.0325   -0.4289 C   0  0  0  0  0  0  0  0  0  0  0  0
    0.5168    2.2938   -1.0955 C   0  0  0  0  0  0  0  0  0  0  0  0
    1.9064    2.7991   -1.1216 C   0  0  0  0  0  0  0  0  0  0  0  0
    2.0905    3.9389   -1.5395 O   0  0  0  0  0  0  0  0  0  0  0  0
    2.9289    1.9675   -0.6857 N   0  0  0  0  0  0  0  0  0  0  0  0
    4.3104    2.4360   -0.8384 C   0  0  0  0  0  0  0  0  0  0  0  0
    5.3350    1.2991   -0.7040 C   0  0  0  0  0  0  0  0  0  0  0  0
    5.2006    0.6328    0.6030 N   0  0  0  0  0  0  0  0  0  0  0  0
    6.1161   -0.3844    0.8580 C   0  0  0  0  0  0  0  0  0  0  0  0
    6.2199   -0.9540    2.1290 C   0  0  0  0  0  0  0  0  0  0  0  0
    7.1533   -1.9612    2.3743 C   0  0  0  0  0  0  0  0  0  0  0  0
    7.9796   -2.3813    1.3458 C   0  0  0  0  0  0  0  0  0  0  0  0
    7.8370   -1.7650    0.1185 C   0  0  0  0  0  0  0  0  0  0  0  0
    6.9378   -0.7876   -0.1366 N   0  0  0  0  0  0  0  0  0  0  0  0
    3.8419    0.5154    1.1562 C   0  0  0  0  0  0  0  0  0  0  0  0
    2.7495    0.7302    0.0876 C   0  0  0  0  0  0  0  0  0  0  0  0
    0.1726    1.1206   -1.7805 C   0  0  0  0  0  0  0  0  0  0  0  0
   -1.1479    0.6339   -1.7678 C   0  0  0  0  0  0  0  0  0  0  0  0
   -0.1455   -0.3908   -4.0663 H   0  0  0  0  0  0  0  0  0  0  0  0
    0.3074   -1.5915   -2.8031 H   0  0  0  0  0  0  0  0  0  0  0  0
   -0.9531   -1.9525   -3.9920 H   0  0  0  0  0  0  0  0  0  0  0  0
   -4.3568   -2.7427   -0.9060 H   0  0  0  0  0  0  0  0  0  0  0  0
   -4.2770   -1.5729    2.0090 H   0  0  0  0  0  0  0  0  0  0  0  0
   -6.0764   -1.0833    3.6188 H   0  0  0  0  0  0  0  0  0  0  0  0
   -8.8716   -0.6529    0.3560 H   0  0  0  0  0  0  0  0  0  0  0  0
   -7.0690   -1.1439   -1.2490 H   0  0  0  0  0  0  0  0  0  0  0  0
   -2.5245    3.1560    0.1019 H   0  0  0  0  0  0  0  0  0  0  0  0
   -0.1948    3.9647    0.0675 H   0  0  0  0  0  0  0  0  0  0  0  0
    4.4174    2.9290   -1.8112 H   0  0  0  0  0  0  0  0  0  0  0  0
    4.4796    3.1923   -0.0618 H   0  0  0  0  0  0  0  0  0  0  0  0
    5.1738    0.5778   -1.5161 H   0  0  0  0  0  0  0  0  0  0  0  0
    6.3409    1.7231   -0.8114 H   0  0  0  0  0  0  0  0  0  0  0  0
    5.5988   -0.6011    2.9448 H   0  0  0  0  0  0  0  0  0  0  0  0
    7.2369   -2.4005    3.3637 H   0  0  0  0  0  0  0  0  0  0  0  0
    8.7200   -3.1578    1.4970 H   0  0  0  0  0  0  0  0  0  0  0  0
    8.4624   -2.0449   -0.7240 H   0  0  0  0  0  0  0  0  0  0  0  0
    3.7319    1.2757    1.9388 H   0  0  0  0  0  0  0  0  0  0  0  0
    3.6612   -0.4612    1.6207 H   0  0  0  0  0  0  0  0  0  0  0  0
    2.7771   -0.0958   -0.6330 H   0  0  0  0  0  0  0  0  0  0  0  0
    1.7691    0.7236    0.5729 H   0  0  0  0  0  0  0  0  0  0  0  0
    0.9633    0.6035   -2.3157 H   0  0  0  0  0  0  0  0  0  0  0  0
  1  2  1  0
  2  3  1  0
  3  4  2  0
  3  5  1  0
  5  6  2  3
  6  7  1  0
  7  8  2  0
  8  9  1  0
  9 10  2  0
 10 11  1  0
 11 12  1  0
 11 13  1  0
 11 14  1  0
 10 15  1  0
 15 16  2  0
  5 17  1  0
 17 18  1  0
 18 19  2  0
 19 20  1  0
 20 21  2  0
 21 22  1  0
 22 23  2  0
 22 24  1  0
 24 25  1  0
 25 26  1  0
 26 27  1  0
 27 28  1  0
 28 29  2  0
 29 30  1  0
 30 31  2  0
 31 32  1  0
 32 33  2  0
 27 34  1  0
 34 35  1  0
 21 36  1  0
 36 37  2  0
 37  2  1  0
 16  7  1  0
 37 18  1  0
 35 24  1  0
 33 28  1  0
  1 38  1  0
  1 39  1  0
  1 40  1  0
  6 41  1  0
  8 42  1  0
  9 43  1  0
 15 44  1  0
 16 45  1  0
 19 46  1  0
 20 47  1  0
 25 48  1  0
 25 49  1  0
 26 50  1  0
 26 51  1  0
 29 52  1  0
 30 53  1  0
 31 54  1  0
 32 55  1  0
 34 56  1  0
 34 57  1  0
 35 58  1  0
 35 59  1  0
 36 60  1  0
M  END
$$$$
