
     RDKit          3D

 34 35  0  0  0  0  0  0  0  0999 V2000
   -4.8886    0.8965   -0.3300 O   0  0  0  0  0  0  0  0  0  0  0  0
   -4.0482    0.3174    0.3660 C   0  0  0  0  0  0  0  0  0  0  0  0
   -4.4235   -0.3731    1.6848 C   0  0  0  0  0  0  0  0  0  0  0  0
   -5.6658    0.5654    2.5446 Cl  0  0  0  0  0  0  0  0  0  0  0  0
   -5.0189   -2.0080    1.3201 Cl  0  0  0  0  0  0  0  0  0  0  0  0
   -2.7121    0.2628   -0.0377 N   0  0  0  0  0  0  0  0  0  0  0  0
   -1.6860   -0.5696    0.5987 C   0  0  0  0  0  0  0  0  0  0  0  0
   -0.3796   -0.6599   -0.2135 C   0  0  0  0  0  0  0  0  0  0  0  0
    0.1238    0.6814   -0.5385 N   0  0  0  0  0  0  0  0  0  0  0  0
    1.3938    0.6541   -1.2773 C   0  0  0  0  0  0  0  0  0  0  0  0
    2.5478    0.0999   -0.4692 C   0  0  0  0  0  0  0  0  0  0  0  0
    2.9339    0.7136    0.7323 C   0  0  0  0  0  0  0  0  0  0  0  0
    4.0024    0.2102    1.4754 C   0  0  0  0  0  0  0  0  0  0  0  0
    4.6984   -0.9096    1.0244 C   0  0  0  0  0  0  0  0  0  0  0  0
    4.3272   -1.5264   -0.1691 C   0  0  0  0  0  0  0  0  0  0  0  0
    3.2582   -1.0244   -0.9140 C   0  0  0  0  0  0  0  0  0  0  0  0
   -0.8897    1.4980   -1.2401 C   0  0  0  0  0  0  0  0  0  0  0  0
   -2.3197    0.9163   -1.2853 C   0  0  0  0  0  0  0  0  0  0  0  0
   -3.5725   -0.4548    2.3618 H   0  0  0  0  0  0  0  0  0  0  0  0
   -2.0910   -1.5747    0.7527 H   0  0  0  0  0  0  0  0  0  0  0  0
   -1.4803   -0.1341    1.5836 H   0  0  0  0  0  0  0  0  0  0  0  0
   -0.5525   -1.2385   -1.1304 H   0  0  0  0  0  0  0  0  0  0  0  0
    0.3453   -1.2165    0.3908 H   0  0  0  0  0  0  0  0  0  0  0  0
    1.2779    0.0924   -2.2137 H   0  0  0  0  0  0  0  0  0  0  0  0
    1.6792    1.6759   -1.5628 H   0  0  0  0  0  0  0  0  0  0  0  0
    2.3932    1.5862    1.0932 H   0  0  0  0  0  0  0  0  0  0  0  0
    4.2909    0.6926    2.4055 H   0  0  0  0  0  0  0  0  0  0  0  0
    5.5313   -1.3008    1.6028 H   0  0  0  0  0  0  0  0  0  0  0  0
    4.8723   -2.3984   -0.5210 H   0  0  0  0  0  0  0  0  0  0  0  0
    2.9839   -1.5175   -1.8434 H   0  0  0  0  0  0  0  0  0  0  0  0
   -0.9272    2.4631   -0.7201 H   0  0  0  0  0  0  0  0  0  0  0  0
   -0.5924    1.7153   -2.2743 H   0  0  0  0  0  0  0  0  0  0  0  0
   -3.0256    1.7117   -1.5472 H   0  0  0  0  0  0  0  0  0  0  0  0
   -2.3855    0.1536   -2.0714 H   0  0  0  0  0  0  0  0  0  0  0  0
  1  2  2  0
  2  3  1  0
  3  4  1  0
  3  5  1  0
  2  6  1  0
  6  7  1  0
  7  8  1  0
  8  9  1  0
  9 10  1  0
 10 11  1  0
 11 12  2  0
 12 13  1  0
 13 14  2  0
 14 15  1  0
 15 16  2  0
  9 17  1  0
 17 18  1  0
 18  6  1  0
 16 11  1  0
  3 19  1  0
  7 20  1  0
  7 21  1  0
  8 22  1  0
  8 23  1  0
 10 24  1  0
 10 25  1  0
 12 26  1  0
 13 27  1  0
 14 28  1  0
 15 29  1  0
 16 30  1  0
 17 31  1  0
 17 32  1  0
 18 33  1  0
 18 34  1  0
M  END
$$$$
