
     RDKit          3D

 41 42  0  0  0  0  0  0  0  0999 V2000
    2.3189    4.7056    1.7011 C   0  0  0  0  0  0  0  0  0  0  0  0
    1.6002    4.1902    0.4686 C   0  0  0  0  0  0  0  0  0  0  0  0
    1.5647    2.7549    0.4840 O   0  0  0  0  0  0  0  0  0  0  0  0
    0.4987    2.1947    1.1470 C   0  0  0  0  0  0  0  0  0  0  0  0
   -0.3432    2.8408    1.7615 O   0  0  0  0  0  0  0  0  0  0  0  0
    0.5524    0.6449    1.0533 C   0  0  0  0  0  0  0  0  0  0  0  0
   -0.7768    0.0651    0.8211 N   0  0  0  0  0  0  0  0  0  0  0  0
   -1.5256    0.4694   -0.2632 C   0  0  0  0  0  0  0  0  0  0  0  0
   -1.2583    1.4585   -0.9353 O   0  0  0  0  0  0  0  0  0  0  0  0
   -2.6872   -0.3896   -0.6231 C   0  0  0  0  0  0  0  0  0  0  0  0
   -3.3314   -1.2018    0.3212 C   0  0  0  0  0  0  0  0  0  0  0  0
   -4.4181   -1.9919   -0.0611 C   0  0  0  0  0  0  0  0  0  0  0  0
   -4.8673   -1.9684   -1.3817 C   0  0  0  0  0  0  0  0  0  0  0  0
   -4.2337   -1.1497   -2.3159 C   0  0  0  0  0  0  0  0  0  0  0  0
   -4.7962   -1.1202   -3.9419 Cl  0  0  0  0  0  0  0  0  0  0  0  0
   -3.1500   -0.3575   -1.9441 C   0  0  0  0  0  0  0  0  0  0  0  0
    1.4176    0.2036   -0.0671 N   0  0  0  0  0  0  0  0  0  0  0  0
    1.6664   -1.1018   -0.2943 C   0  0  0  0  0  0  0  0  0  0  0  0
    0.9667   -2.1112    0.1793 N   0  0  0  0  0  0  0  0  0  0  0  0
    1.4430   -3.3356   -0.2354 N   0  0  0  0  0  0  0  0  0  0  0  0
    2.4921   -3.2148   -1.0196 C   0  0  0  0  0  0  0  0  0  0  0  0
    3.2314   -4.3455   -1.6331 C   0  0  0  0  0  0  0  0  0  0  0  0
    2.9731   -1.5913   -1.3010 S   0  0  0  0  0  0  0  0  0  0  0  0
    1.1426    0.3055    2.4624 C   0  0  0  0  0  0  0  0  0  0  0  0
    2.3995    0.7975    2.6114 F   0  0  0  0  0  0  0  0  0  0  0  0
    0.3970    0.7929    3.4821 F   0  0  0  0  0  0  0  0  0  0  0  0
    1.2241   -1.0330    2.6699 F   0  0  0  0  0  0  0  0  0  0  0  0
    2.4041    5.7955    1.6732 H   0  0  0  0  0  0  0  0  0  0  0  0
    3.3230    4.2740    1.7688 H   0  0  0  0  0  0  0  0  0  0  0  0
    1.7880    4.4195    2.6146 H   0  0  0  0  0  0  0  0  0  0  0  0
    0.5934    4.6144    0.3817 H   0  0  0  0  0  0  0  0  0  0  0  0
    2.1519    4.4859   -0.4298 H   0  0  0  0  0  0  0  0  0  0  0  0
   -0.8135   -0.9281    1.0238 H   0  0  0  0  0  0  0  0  0  0  0  0
   -3.0165   -1.2154    1.3614 H   0  0  0  0  0  0  0  0  0  0  0  0
   -4.9187   -2.6210    0.6715 H   0  0  0  0  0  0  0  0  0  0  0  0
   -5.7137   -2.5844   -1.6749 H   0  0  0  0  0  0  0  0  0  0  0  0
   -2.6624    0.2808   -2.6776 H   0  0  0  0  0  0  0  0  0  0  0  0
    2.1002    0.9004   -0.3552 H   0  0  0  0  0  0  0  0  0  0  0  0
    2.7818   -5.3003   -1.3419 H   0  0  0  0  0  0  0  0  0  0  0  0
    3.2059   -4.2810   -2.7255 H   0  0  0  0  0  0  0  0  0  0  0  0
    4.2758   -4.3518   -1.3056 H   0  0  0  0  0  0  0  0  0  0  0  0
  1  2  1  0
  2  3  1  0
  3  4  1  0
  4  5  2  0
  4  6  1  0
  6  7  1  0
  7  8  1  0
  8  9  2  0
  8 10  1  0
 10 11  2  0
 11 12  1  0
 12 13  2  0
 13 14  1  0
 14 15  1  0
 14 16  2  0
  6 17  1  0
 17 18  1  0
 18 19  2  0
 19 20  1  0
 20 21  2  0
 21 22  1  0
 21 23  1  0
  6 24  1  0
 24 25  1  0
 24 26  1  0
 24 27  1  0
 16 10  1  0
 23 18  1  0
  1 28  1  0
  1 29  1  0
  1 30  1  0
  2 31  1  0
  2 32  1  0
  7 33  1  0
 11 34  1  0
 12 35  1  0
 13 36  1  0
 16 37  1  0
 17 38  1  0
 22 39  1  0
 22 40  1  0
 22 41  1  0
M  END
$$$$
