
     RDKit          3D

 40 41  0  0  0  0  0  0  0  0999 V2000
   -0.8946   -3.9227   -3.6110 C   0  0  0  0  0  0  0  0  0  0  0  0
   -0.7451   -3.4885   -2.1625 C   0  0  0  0  0  0  0  0  0  0  0  0
   -0.8164   -2.0677   -2.0434 O   0  0  0  0  0  0  0  0  0  0  0  0
   -2.0845   -1.5326   -1.9744 C   0  0  0  0  0  0  0  0  0  0  0  0
   -3.1450   -2.3765   -1.9007 N   0  0  0  0  0  0  0  0  0  0  0  0
   -4.3724   -1.8235   -1.7875 C   0  0  0  0  0  0  0  0  0  0  0  0
   -4.6009   -0.4589   -1.7381 C   0  0  0  0  0  0  0  0  0  0  0  0
   -3.5036    0.3932   -1.8129 C   0  0  0  0  0  0  0  0  0  0  0  0
   -2.2184   -0.1492   -1.9335 C   0  0  0  0  0  0  0  0  0  0  0  0
   -1.0405    0.7293   -2.0418 C   0  0  0  0  0  0  0  0  0  0  0  0
   -0.1234    0.5758   -2.8290 O   0  0  0  0  0  0  0  0  0  0  0  0
   -1.1625    1.7229   -1.1254 O   0  0  0  0  0  0  0  0  0  0  0  0
   -0.0530    2.6255   -1.0462 C   0  0  0  0  0  0  0  0  0  0  0  0
    0.8419    2.2134    0.0948 C   0  0  0  0  0  0  0  0  0  0  0  0
    0.5835    2.6539    1.3998 C   0  0  0  0  0  0  0  0  0  0  0  0
    1.4007    2.2510    2.4607 C   0  0  0  0  0  0  0  0  0  0  0  0
    2.4840    1.3930    2.2304 C   0  0  0  0  0  0  0  0  0  0  0  0
    3.3850    0.9317    3.3220 C   0  0  0  0  0  0  0  0  0  0  0  0
    4.3383    0.1897    3.1438 O   0  0  0  0  0  0  0  0  0  0  0  0
    2.9967    1.4487    4.5152 O   0  0  0  0  0  0  0  0  0  0  0  0
    3.8165    1.0477    5.6138 C   0  0  0  0  0  0  0  0  0  0  0  0
    2.7362    0.9412    0.9291 C   0  0  0  0  0  0  0  0  0  0  0  0
    1.9188    1.3453   -0.1297 C   0  0  0  0  0  0  0  0  0  0  0  0
   -0.1621   -3.4095   -4.2428 H   0  0  0  0  0  0  0  0  0  0  0  0
   -1.8847   -3.6713   -4.0033 H   0  0  0  0  0  0  0  0  0  0  0  0
   -0.7479   -5.0023   -3.7074 H   0  0  0  0  0  0  0  0  0  0  0  0
   -1.4494   -4.0052   -1.4997 H   0  0  0  0  0  0  0  0  0  0  0  0
    0.2552   -3.7755   -1.8185 H   0  0  0  0  0  0  0  0  0  0  0  0
   -5.1952   -2.5315   -1.7341 H   0  0  0  0  0  0  0  0  0  0  0  0
   -5.6089   -0.0691   -1.6462 H   0  0  0  0  0  0  0  0  0  0  0  0
   -3.6514    1.4694   -1.7845 H   0  0  0  0  0  0  0  0  0  0  0  0
    0.5060    2.6998   -1.9871 H   0  0  0  0  0  0  0  0  0  0  0  0
   -0.4578    3.6267   -0.8581 H   0  0  0  0  0  0  0  0  0  0  0  0
   -0.2606    3.3109    1.5997 H   0  0  0  0  0  0  0  0  0  0  0  0
    1.1765    2.6113    3.4616 H   0  0  0  0  0  0  0  0  0  0  0  0
    3.7829   -0.0389    5.7410 H   0  0  0  0  0  0  0  0  0  0  0  0
    4.8459    1.3906    5.4695 H   0  0  0  0  0  0  0  0  0  0  0  0
    3.4202    1.5144    6.5198 H   0  0  0  0  0  0  0  0  0  0  0  0
    3.5677    0.2665    0.7326 H   0  0  0  0  0  0  0  0  0  0  0  0
    2.1223    0.9706   -1.1325 H   0  0  0  0  0  0  0  0  0  0  0  0
  1  2  1  0
  2  3  1  0
  3  4  1  0
  4  5  2  0
  5  6  1  0
  6  7  2  0
  7  8  1  0
  8  9  2  0
  9 10  1  0
 10 11  2  0
 10 12  1  0
 12 13  1  0
 13 14  1  0
 14 15  2  0
 15 16  1  0
 16 17  2  0
 17 18  1  0
 18 19  2  0
 18 20  1  0
 20 21  1  0
 17 22  1  0
 22 23  2  0
  9  4  1  0
 23 14  1  0
  1 24  1  0
  1 25  1  0
  1 26  1  0
  2 27  1  0
  2 28  1  0
  6 29  1  0
  7 30  1  0
  8 31  1  0
 13 32  1  0
 13 33  1  0
 15 34  1  0
 16 35  1  0
 21 36  1  0
 21 37  1  0
 21 38  1  0
 22 39  1  0
 23 40  1  0
M  END
$$$$
