
     RDKit          3D

 56 61  0  0  0  0  0  0  0  0999 V2000
    6.8453    2.4098   -2.5165 C   0  0  0  0  0  0  0  0  0  0  0  0
    5.6765    1.7077   -1.8888 C   0  0  0  0  0  0  0  0  0  0  0  0
    4.6722    2.4282   -1.2360 C   0  0  0  0  0  0  0  0  0  0  0  0
    3.5994    1.7640   -0.6348 C   0  0  0  0  0  0  0  0  0  0  0  0
    3.5274    0.3670   -0.6673 C   0  0  0  0  0  0  0  0  0  0  0  0
    2.3201   -0.3708    0.0132 C   0  0  0  0  0  0  0  0  0  0  0  0
    1.1966    0.2261    0.5731 C   0  0  0  0  0  0  0  0  0  0  0  0
    0.3438   -0.7702    1.0483 N   0  0  0  0  0  4  0  0  0  0  0  0
   -0.9861   -0.5792    1.6512 C   0  0  0  0  0  0  0  0  0  0  0  0
   -2.0838   -0.9691    0.6465 C   0  0  0  0  0  0  0  0  0  0  0  0
   -2.0064   -2.0356    0.0351 O   0  0  0  0  0  0  0  0  0  0  0  0
   -3.0568    0.0201    0.4641 N   0  0  0  0  0  0  0  0  0  0  0  0
   -3.3688    0.5237   -0.8525 C   0  0  0  0  0  0  0  0  0  0  0  0
   -2.9376   -0.1609   -2.0067 C   0  0  0  0  0  0  0  0  0  0  0  0
   -3.2147    0.3079   -3.2962 C   0  0  0  0  0  0  0  0  0  0  0  0
   -3.9186    1.4892   -3.4690 C   0  0  0  0  0  0  0  0  0  0  0  0
   -4.3307    2.2034   -2.3507 C   0  0  0  0  0  0  0  0  0  0  0  0
   -4.0591    1.7343   -1.0523 C   0  0  0  0  0  0  0  0  0  0  0  0
   -4.5275    2.8101    0.2740 S   0  0  0  0  0  0  0  0  0  0  0  0
   -4.5632    1.6586    1.6106 C   0  0  0  0  0  0  0  0  0  0  0  0
   -5.3262    2.0154    2.7362 C   0  0  0  0  0  0  0  0  0  0  0  0
   -5.3930    1.1826    3.8487 C   0  0  0  0  0  0  0  0  0  0  0  0
   -4.6996   -0.0179    3.8443 C   0  0  0  0  0  0  0  0  0  0  0  0
   -3.9435   -0.3807    2.7262 C   0  0  0  0  0  0  0  0  0  0  0  0
   -3.8422    0.4573    1.5926 C   0  0  0  0  0  0  0  0  0  0  0  0
    0.9154   -1.9428    0.7887 C   0  0  0  0  0  0  0  0  0  0  0  0
    2.0908   -1.7206    0.2061 N   0  0  0  0  0  0  0  0  0  0  0  0
    2.8075   -2.9607   -0.0545 C   0  0  0  0  0  0  0  0  0  0  0  0
    2.0300   -4.0085    0.7877 C   0  0  0  0  0  0  0  0  0  0  0  0
    0.6394   -3.3831    1.0073 C   0  0  0  0  0  0  0  0  0  0  0  0
    4.5322   -0.3559   -1.3119 C   0  0  0  0  0  0  0  0  0  0  0  0
    5.6004    0.3123   -1.9172 C   0  0  0  0  0  0  0  0  0  0  0  0
    6.6429    3.4773   -2.6584 H   0  0  0  0  0  0  0  0  0  0  0  0
    7.7304    2.3049   -1.8824 H   0  0  0  0  0  0  0  0  0  0  0  0
    7.0579    1.9875   -3.5027 H   0  0  0  0  0  0  0  0  0  0  0  0
    4.7211    3.5166   -1.1946 H   0  0  0  0  0  0  0  0  0  0  0  0
    2.8466    2.3712   -0.1405 H   0  0  0  0  0  0  0  0  0  0  0  0
    0.8832    1.2512    0.6768 H   0  0  0  0  0  0  0  0  0  0  0  0
   -1.0745    0.4667    1.9582 H   0  0  0  0  0  0  0  0  0  0  0  0
   -1.0581   -1.2162    2.5372 H   0  0  0  0  0  0  0  0  0  0  0  0
   -2.4034   -1.1036   -1.9546 H   0  0  0  0  0  0  0  0  0  0  0  0
   -2.8884   -0.2609   -4.1629 H   0  0  0  0  0  0  0  0  0  0  0  0
   -4.1400    1.8582   -4.4673 H   0  0  0  0  0  0  0  0  0  0  0  0
   -4.8627    3.1416   -2.4997 H   0  0  0  0  0  0  0  0  0  0  0  0
   -5.8940    2.9473    2.7462 H   0  0  0  0  0  0  0  0  0  0  0  0
   -6.0022    1.4653    4.7050 H   0  0  0  0  0  0  0  0  0  0  0  0
   -4.7800   -0.6901    4.6952 H   0  0  0  0  0  0  0  0  0  0  0  0
   -3.4967   -1.3725    2.7467 H   0  0  0  0  0  0  0  0  0  0  0  0
    3.8489   -2.8886    0.2696 H   0  0  0  0  0  0  0  0  0  0  0  0
    2.7427   -3.1876   -1.1231 H   0  0  0  0  0  0  0  0  0  0  0  0
    2.5278   -4.1200    1.7575 H   0  0  0  0  0  0  0  0  0  0  0  0
    1.9908   -4.9916    0.3132 H   0  0  0  0  0  0  0  0  0  0  0  0
    0.2527   -3.5251    2.0159 H   0  0  0  0  0  0  0  0  0  0  0  0
   -0.0722   -3.6966    0.2427 H   0  0  0  0  0  0  0  0  0  0  0  0
    4.5110   -1.4342   -1.3876 H   0  0  0  0  0  0  0  0  0  0  0  0
    6.3771   -0.2625   -2.4197 H   0  0  0  0  0  0  0  0  0  0  0  0
  1  2  1  0
  2  3  2  0
  3  4  1  0
  4  5  2  0
  5  6  1  0
  6  7  2  0
  7  8  1  0
  8  9  1  0
  9 10  1  0
 10 11  2  0
 10 12  1  0
 12 13  1  0
 13 14  2  0
 14 15  1  0
 15 16  2  0
 16 17  1  0
 17 18  2  0
 18 19  1  0
 19 20  1  0
 20 21  2  0
 21 22  1  0
 22 23  2  0
 23 24  1  0
 24 25  2  0
  8 26  2  0
 26 27  1  0
 27 28  1  0
 28 29  1  0
 29 30  1  0
  5 31  1  0
 31 32  2  0
 32  2  1  0
 27  6  1  0
 25 12  1  0
 30 26  1  0
 18 13  1  0
 25 20  1  0
  1 33  1  0
  1 34  1  0
  1 35  1  0
  3 36  1  0
  4 37  1  0
  7 38  1  0
  9 39  1  0
  9 40  1  0
 14 41  1  0
 15 42  1  0
 16 43  1  0
 17 44  1  0
 21 45  1  0
 22 46  1  0
 23 47  1  0
 24 48  1  0
 28 49  1  0
 28 50  1  0
 29 51  1  0
 29 52  1  0
 30 53  1  0
 30 54  1  0
 31 55  1  0
 32 56  1  0
M  CHG  1   8   1
M  END
$$$$
