
     RDKit          3D

 38 40  0  0  0  0  0  0  0  0999 V2000
   -2.2076   -1.8297   -1.5115 C   0  0  0  0  0  0  0  0  0  0  0  0
   -2.8234   -0.9440   -0.4654 C   0  0  0  0  0  0  0  0  0  0  0  0
   -3.3285   -1.5537    0.6984 C   0  0  0  0  0  0  0  0  0  0  0  0
   -3.9237   -0.7942    1.7018 C   0  0  0  0  0  0  0  0  0  0  0  0
   -4.3937   -1.4031    2.7980 F   0  0  0  0  0  0  0  0  0  0  0  0
   -4.0407    0.5820    1.5818 C   0  0  0  0  0  0  0  0  0  0  0  0
   -3.5517    1.2101    0.4380 C   0  0  0  0  0  0  0  0  0  0  0  0
   -2.9384    0.4569   -0.5824 C   0  0  0  0  0  0  0  0  0  0  0  0
   -2.3579    1.3787   -2.0018 S   0  0  0  0  0  6  0  0  0  0  0  0
   -2.0492    0.4925   -3.1005 O   0  0  0  0  0  0  0  0  0  0  0  0
   -3.2745    2.4847   -2.1944 O   0  0  0  0  0  0  0  0  0  0  0  0
   -0.9249    2.0749   -1.4239 N   0  0  0  0  0  0  0  0  0  0  0  0
    0.2325    1.2533   -1.3509 C   0  0  0  0  0  0  0  0  0  0  0  0
    1.0465    1.0912   -2.4688 C   0  0  0  0  0  0  0  0  0  0  0  0
    2.1522    0.2459   -2.3969 C   0  0  0  0  0  0  0  0  0  0  0  0
    2.4389   -0.4298   -1.2106 C   0  0  0  0  0  0  0  0  0  0  0  0
    3.5463   -1.2319   -1.2372 O   0  0  0  0  0  0  0  0  0  0  0  0
    1.6198   -0.2851   -0.0815 C   0  0  0  0  0  0  0  0  0  0  0  0
    1.8383   -1.1968    1.4389 S   0  0  0  0  0  0  0  0  0  0  0  0
    3.3742   -0.6110    2.0051 C   0  0  0  0  0  0  0  0  0  0  0  0
    4.5273   -0.7585    1.2766 N   0  0  0  0  0  0  0  0  0  0  0  0
    5.4357   -0.2206    2.0576 C   0  0  0  0  0  0  0  0  0  0  0  0
    4.8490    0.2175    3.2032 N   0  0  0  0  0  0  0  0  0  0  0  0
    3.5293   -0.0266    3.1951 N   0  0  0  0  0  0  0  0  0  0  0  0
    0.5085    0.5654   -0.1678 C   0  0  0  0  0  0  0  0  0  0  0  0
   -2.8283   -1.8440   -2.4123 H   0  0  0  0  0  0  0  0  0  0  0  0
   -1.1916   -1.5066   -1.7527 H   0  0  0  0  0  0  0  0  0  0  0  0
   -2.1277   -2.8647   -1.1603 H   0  0  0  0  0  0  0  0  0  0  0  0
   -3.2662   -2.6304    0.8380 H   0  0  0  0  0  0  0  0  0  0  0  0
   -4.5134    1.1544    2.3736 H   0  0  0  0  0  0  0  0  0  0  0  0
   -3.6504    2.2905    0.3449 H   0  0  0  0  0  0  0  0  0  0  0  0
   -0.8096    3.0119   -1.8098 H   0  0  0  0  0  0  0  0  0  0  0  0
    0.8188    1.5965   -3.4034 H   0  0  0  0  0  0  0  0  0  0  0  0
    2.7896    0.1059   -3.2662 H   0  0  0  0  0  0  0  0  0  0  0  0
    3.8801   -1.3202   -0.3194 H   0  0  0  0  0  0  0  0  0  0  0  0
    6.4937   -0.1257    1.8568 H   0  0  0  0  0  0  0  0  0  0  0  0
    5.2679    0.6722    4.0074 H   0  0  0  0  0  0  0  0  0  0  0  0
   -0.1470    0.6921    0.6908 H   0  0  0  0  0  0  0  0  0  0  0  0
  1  2  1  0
  2  3  2  0
  3  4  1  0
  4  5  1  0
  4  6  2  0
  6  7  1  0
  7  8  2  0
  8  9  1  0
  9 10  2  0
  9 11  2  0
  9 12  1  0
 12 13  1  0
 13 14  2  0
 14 15  1  0
 15 16  2  0
 16 17  1  0
 16 18  1  0
 18 19  1  0
 19 20  1  0
 20 21  1  0
 21 22  2  0
 22 23  1  0
 23 24  1  0
 18 25  2  0
  8  2  1  0
 25 13  1  0
 24 20  2  0
  1 26  1  0
  1 27  1  0
  1 28  1  0
  3 29  1  0
  6 30  1  0
  7 31  1  0
 12 32  1  0
 14 33  1  0
 15 34  1  0
 17 35  1  0
 22 36  1  0
 23 37  1  0
 25 38  1  0
M  END
$$$$
