
     RDKit          3D

 60 65  0  0  0  0  0  0  0  0999 V2000
   -4.6793   -3.1025   -2.6043 O   0  0  0  0  0  0  0  0  0  0  0  0
   -4.2684   -2.5559   -1.5872 C   0  0  0  0  0  0  0  0  0  0  0  0
   -2.9550   -2.6932   -1.1546 N   0  0  0  0  0  0  0  0  0  0  0  0
   -2.4366   -2.0861   -0.0106 C   0  0  0  0  0  0  0  0  0  0  0  0
   -0.9651   -2.3816    0.2445 C   0  0  0  0  0  0  0  0  0  0  0  0
   -0.0844   -1.7304   -0.8356 C   0  0  0  0  0  0  0  0  0  0  0  0
    1.0055   -0.8320   -0.2599 C   0  0  0  0  0  0  0  0  0  0  0  0
    1.7792   -1.5116    0.8044 N   0  0  0  0  0  0  0  0  0  0  0  0
    3.2034   -2.3292    0.3405 S   0  0  0  0  0  6  0  0  0  0  0  0
    3.8247   -2.8653    1.5330 O   0  0  0  0  0  0  0  0  0  0  0  0
    2.8589   -3.1855   -0.7757 O   0  0  0  0  0  0  0  0  0  0  0  0
    4.2452   -1.0188   -0.2443 C   0  0  0  0  0  0  0  0  0  0  0  0
    4.6949   -0.0547    0.6658 C   0  0  0  0  0  0  0  0  0  0  0  0
    5.5404    0.9638    0.2251 C   0  0  0  0  0  0  0  0  0  0  0  0
    5.9365    1.0074   -1.1117 C   0  0  0  0  0  0  0  0  0  0  0  0
    5.4649    0.0502   -2.0200 C   0  0  0  0  0  0  0  0  0  0  0  0
    4.6308   -0.9778   -1.5871 C   0  0  0  0  0  0  0  0  0  0  0  0
    5.7933    0.0531   -3.3509 O   0  0  0  0  0  0  0  0  0  0  0  0
    6.3838    1.2971   -3.7467 C   0  0  0  0  0  0  0  0  0  0  0  0
    7.4149    1.7535   -2.7281 C   0  0  0  0  0  0  0  0  0  0  0  0
    6.7913    2.0198   -1.4664 O   0  0  0  0  0  0  0  0  0  0  0  0
    0.9698   -2.2347    1.8213 C   0  0  0  0  0  0  0  0  0  0  0  0
   -0.5213   -1.9809    1.6539 C   0  0  0  0  0  0  0  0  0  0  0  0
   -3.1278   -1.3125    0.7799 N   0  0  0  0  0  0  0  0  0  0  0  0
   -4.4160   -1.1680    0.3841 C   0  0  0  0  0  0  0  0  0  0  0  0
   -5.0392   -1.7162   -0.7112 C   0  0  0  0  0  0  0  0  0  0  0  0
   -6.3477   -1.3452   -0.7552 N   0  0  0  0  0  0  0  0  0  0  0  0
   -6.5741   -0.5670    0.3031 N   0  0  0  0  0  0  0  0  0  0  0  0
   -5.4055   -0.4431    0.9834 N   0  0  0  0  0  0  0  0  0  0  0  0
   -5.3369    0.3330    2.2046 C   0  0  0  0  0  0  0  0  0  0  0  0
   -4.9681    1.7655    1.9286 C   0  0  0  0  0  0  0  0  0  0  0  0
   -5.8852    2.6496    1.3387 C   0  0  0  0  0  0  0  0  0  0  0  0
   -5.5253    3.9749    1.0794 C   0  0  0  0  0  0  0  0  0  0  0  0
   -4.2492    4.4324    1.4074 C   0  0  0  0  0  0  0  0  0  0  0  0
   -3.3310    3.5633    1.9934 C   0  0  0  0  0  0  0  0  0  0  0  0
   -3.6943    2.2427    2.2468 C   0  0  0  0  0  0  0  0  0  0  0  0
   -2.7962    1.4256    2.8159 F   0  0  0  0  0  0  0  0  0  0  0  0
   -2.3778   -3.2844   -1.7356 H   0  0  0  0  0  0  0  0  0  0  0  0
   -0.8535   -3.4713    0.1530 H   0  0  0  0  0  0  0  0  0  0  0  0
   -0.6834   -1.1391   -1.5406 H   0  0  0  0  0  0  0  0  0  0  0  0
    0.3783   -2.5265   -1.4328 H   0  0  0  0  0  0  0  0  0  0  0  0
    1.6611   -0.4876   -1.0648 H   0  0  0  0  0  0  0  0  0  0  0  0
    0.5647    0.0780    0.1652 H   0  0  0  0  0  0  0  0  0  0  0  0
    4.3995   -0.1017    1.7125 H   0  0  0  0  0  0  0  0  0  0  0  0
    5.9067    1.7109    0.9248 H   0  0  0  0  0  0  0  0  0  0  0  0
    4.2892   -1.7301   -2.2943 H   0  0  0  0  0  0  0  0  0  0  0  0
    6.8574    1.1435   -4.7214 H   0  0  0  0  0  0  0  0  0  0  0  0
    5.5840    2.0380   -3.8675 H   0  0  0  0  0  0  0  0  0  0  0  0
    7.8946    2.6786   -3.0629 H   0  0  0  0  0  0  0  0  0  0  0  0
    8.1966    0.9974   -2.5791 H   0  0  0  0  0  0  0  0  0  0  0  0
    1.1507   -3.3144    1.7574 H   0  0  0  0  0  0  0  0  0  0  0  0
    1.2909   -1.9011    2.8141 H   0  0  0  0  0  0  0  0  0  0  0  0
   -0.7460   -0.9251    1.8529 H   0  0  0  0  0  0  0  0  0  0  0  0
   -1.0785   -2.5596    2.4007 H   0  0  0  0  0  0  0  0  0  0  0  0
   -6.3152    0.2794    2.6974 H   0  0  0  0  0  0  0  0  0  0  0  0
   -4.6172   -0.1538    2.8728 H   0  0  0  0  0  0  0  0  0  0  0  0
   -6.8839    2.3086    1.0684 H   0  0  0  0  0  0  0  0  0  0  0  0
   -6.2425    4.6498    0.6163 H   0  0  0  0  0  0  0  0  0  0  0  0
   -3.9718    5.4646    1.2049 H   0  0  0  0  0  0  0  0  0  0  0  0
   -2.3349    3.9057    2.2542 H   0  0  0  0  0  0  0  0  0  0  0  0
  1  2  2  0
  2  3  1  0
  3  4  1  0
  4  5  1  0
  5  6  1  0
  6  7  1  0
  7  8  1  0
  8  9  1  0
  9 10  2  0
  9 11  2  0
  9 12  1  0
 12 13  2  0
 13 14  1  0
 14 15  2  0
 15 16  1  0
 16 17  2  0
 16 18  1  0
 18 19  1  0
 19 20  1  0
 20 21  1  0
  8 22  1  0
 22 23  1  0
  4 24  2  0
 24 25  1  0
 25 26  2  0
 26 27  1  0
 27 28  2  0
 28 29  1  0
 29 30  1  0
 30 31  1  0
 31 32  2  0
 32 33  1  0
 33 34  2  0
 34 35  1  0
 35 36  2  0
 36 37  1  0
 26  2  1  0
 36 31  1  0
 23  5  1  0
 29 25  1  0
 17 12  1  0
 21 15  1  0
  3 38  1  0
  5 39  1  0
  6 40  1  0
  6 41  1  0
  7 42  1  0
  7 43  1  0
 13 44  1  0
 14 45  1  0
 17 46  1  0
 19 47  1  0
 19 48  1  0
 20 49  1  0
 20 50  1  0
 22 51  1  0
 22 52  1  0
 23 53  1  0
 23 54  1  0
 30 55  1  0
 30 56  1  0
 32 57  1  0
 33 58  1  0
 34 59  1  0
 35 60  1  0
M  END
$$$$
