
     RDKit          3D

 47 50  0  0  0  0  0  0  0  0999 V2000
   -5.2921    2.1749    2.7978 C   0  0  0  0  0  0  0  0  0  0  0  0
   -4.6541    1.5765    1.5567 C   0  0  0  0  0  0  0  0  0  0  0  0
   -4.8813    0.0692    1.4761 C   0  0  0  0  0  0  0  0  0  0  0  0
   -4.3118   -0.4619    0.2820 O   0  0  0  0  0  0  0  0  0  0  0  0
   -3.0110   -0.8961    0.2849 C   0  0  0  0  0  0  0  0  0  0  0  0
   -2.1197   -0.7398    1.3497 C   0  0  0  0  0  0  0  0  0  0  0  0
   -0.8080   -1.2137    1.2530 C   0  0  0  0  0  0  0  0  0  0  0  0
   -0.3666   -1.8375    0.0851 C   0  0  0  0  0  0  0  0  0  0  0  0
    0.9930   -2.3747   -0.0266 C   0  0  0  0  0  0  0  0  0  0  0  0
    2.1344   -1.6696   -0.0097 C   0  0  0  0  0  0  0  0  0  0  0  0
    3.7025   -2.4668   -0.1698 S   0  0  0  0  0  0  0  0  0  0  0  0
    4.4818   -0.9448   -0.0763 C   0  0  0  0  0  0  0  0  0  0  0  0
    5.7155   -0.5340   -0.1057 N   0  0  0  0  0  0  0  0  0  0  0  0
    5.5539    0.8368    0.0286 C   0  0  0  0  0  0  0  0  0  0  0  0
    6.7696    1.8205    0.0517 C   0  0  0  0  0  0  0  0  0  0  0  0
    6.6959    3.1946    0.1811 C   0  0  0  0  0  0  0  0  0  0  0  0
    8.0260    3.6794    0.1522 C   0  0  0  0  0  0  0  0  0  0  0  0
    8.8300    2.5742    0.0072 C   0  0  0  0  0  0  0  0  0  0  0  0
    8.0803    1.4444   -0.0546 O   0  0  0  0  0  0  0  0  0  0  0  0
    4.2753    1.2567    0.1382 N   0  0  0  0  0  0  0  0  0  0  0  0
    3.6235    0.0827    0.0642 N   0  0  0  0  0  0  0  0  0  0  0  0
    2.2703   -0.1795    0.1168 C   0  0  0  0  0  0  0  0  0  0  0  0
    1.4284    0.6880    0.2460 O   0  0  0  0  0  0  0  0  0  0  0  0
   -1.2558   -2.0007   -0.9844 C   0  0  0  0  0  0  0  0  0  0  0  0
   -2.5714   -1.5272   -0.8966 C   0  0  0  0  0  0  0  0  0  0  0  0
   -3.5052   -1.6482   -1.8969 O   0  0  0  0  0  0  0  0  0  0  0  0
   -3.0635   -2.1108   -3.1695 C   0  0  0  0  0  0  0  0  0  0  0  0
   -4.2373   -2.0319   -4.1292 C   0  0  0  0  0  0  0  0  0  0  0  0
   -6.3729    2.0017    2.8062 H   0  0  0  0  0  0  0  0  0  0  0  0
   -4.8663    1.7376    3.7065 H   0  0  0  0  0  0  0  0  0  0  0  0
   -5.1213    3.2555    2.8287 H   0  0  0  0  0  0  0  0  0  0  0  0
   -5.0660    2.0549    0.6599 H   0  0  0  0  0  0  0  0  0  0  0  0
   -3.5825    1.8039    1.5499 H   0  0  0  0  0  0  0  0  0  0  0  0
   -4.5435   -0.4629    2.3727 H   0  0  0  0  0  0  0  0  0  0  0  0
   -5.9596   -0.1200    1.4102 H   0  0  0  0  0  0  0  0  0  0  0  0
   -2.4058   -0.2414    2.2692 H   0  0  0  0  0  0  0  0  0  0  0  0
   -0.1388   -1.0777    2.0994 H   0  0  0  0  0  0  0  0  0  0  0  0
    1.0251   -3.4564   -0.1522 H   0  0  0  0  0  0  0  0  0  0  0  0
    5.7852    3.7693    0.2833 H   0  0  0  0  0  0  0  0  0  0  0  0
    8.3572    4.7056    0.2275 H   0  0  0  0  0  0  0  0  0  0  0  0
    9.8990    2.4286   -0.0649 H   0  0  0  0  0  0  0  0  0  0  0  0
   -0.9045   -2.5028   -1.8796 H   0  0  0  0  0  0  0  0  0  0  0  0
   -2.2504   -1.4799   -3.5470 H   0  0  0  0  0  0  0  0  0  0  0  0
   -2.7310   -3.1525   -3.0979 H   0  0  0  0  0  0  0  0  0  0  0  0
   -4.6038   -1.0028   -4.2059 H   0  0  0  0  0  0  0  0  0  0  0  0
   -5.0722   -2.6416   -3.7682 H   0  0  0  0  0  0  0  0  0  0  0  0
   -3.9505   -2.3800   -5.1254 H   0  0  0  0  0  0  0  0  0  0  0  0
  1  2  1  0
  2  3  1  0
  3  4  1  0
  4  5  1  0
  5  6  2  0
  6  7  1  0
  7  8  2  0
  8  9  1  0
  9 10  2  3
 10 11  1  0
 11 12  1  0
 12 13  2  0
 13 14  1  0
 14 15  1  0
 15 16  2  0
 16 17  1  0
 17 18  2  0
 18 19  1  0
 14 20  2  0
 20 21  1  0
 21 22  1  0
 22 23  2  0
  8 24  1  0
 24 25  2  0
 25 26  1  0
 26 27  1  0
 27 28  1  0
 25  5  1  0
 22 10  1  0
 21 12  1  0
 19 15  1  0
  1 29  1  0
  1 30  1  0
  1 31  1  0
  2 32  1  0
  2 33  1  0
  3 34  1  0
  3 35  1  0
  6 36  1  0
  7 37  1  0
  9 38  1  0
 16 39  1  0
 17 40  1  0
 18 41  1  0
 24 42  1  0
 27 43  1  0
 27 44  1  0
 28 45  1  0
 28 46  1  0
 28 47  1  0
M  END
$$$$
