
     RDKit          3D

 28 28  0  0  0  0  0  0  0  0999 V2000
   -3.1319   -1.8897   -0.8934 C   0  0  0  0  0  0  0  0  0  0  0  0
   -1.8129   -1.5954   -0.1530 C   0  0  0  0  0  0  0  0  0  0  0  0
   -1.1799   -2.9235    0.2850 C   0  0  0  0  0  0  0  0  0  0  0  0
   -2.1451   -0.7517    1.0842 C   0  0  0  0  0  0  0  0  0  0  0  0
   -0.8578   -0.8976   -1.1494 C   0  0  0  0  0  0  0  0  0  0  0  0
   -0.7688   -1.3059   -2.3147 O   0  0  0  0  0  0  0  0  0  0  0  0
    0.0061    0.2650   -0.7006 C   0  0  0  0  0  0  0  0  0  0  0  0
    1.4776   -0.3413    0.1632 S   0  0  0  0  0  0  0  0  0  0  0  0
    2.3102    1.1981    0.4501 C   0  0  0  0  0  0  0  0  0  0  0  0
    1.6229    2.3456    0.3116 N   0  0  0  0  0  0  0  0  0  0  0  0
    2.3034    3.4822    0.5536 C   0  0  0  0  0  0  0  0  0  0  0  0
    3.6247    3.5117    0.9287 C   0  0  0  0  0  0  0  0  0  0  0  0
    4.2311    2.2852    1.0482 C   0  0  0  0  0  0  0  0  0  0  0  0
    3.5995    1.1198    0.8189 N   0  0  0  0  0  0  0  0  0  0  0  0
   -2.9743   -2.5539   -1.7510 H   0  0  0  0  0  0  0  0  0  0  0  0
   -3.8610   -2.3733   -0.2334 H   0  0  0  0  0  0  0  0  0  0  0  0
   -3.5821   -0.9658   -1.2748 H   0  0  0  0  0  0  0  0  0  0  0  0
   -1.8705   -3.5063    0.9050 H   0  0  0  0  0  0  0  0  0  0  0  0
   -0.2689   -2.7618    0.8699 H   0  0  0  0  0  0  0  0  0  0  0  0
   -0.9059   -3.5391   -0.5795 H   0  0  0  0  0  0  0  0  0  0  0  0
   -2.5854    0.2114    0.8026 H   0  0  0  0  0  0  0  0  0  0  0  0
   -1.2569   -0.5489    1.6913 H   0  0  0  0  0  0  0  0  0  0  0  0
   -2.8653   -1.2662    1.7311 H   0  0  0  0  0  0  0  0  0  0  0  0
    0.3112    0.8140   -1.5991 H   0  0  0  0  0  0  0  0  0  0  0  0
   -0.5789    0.9540   -0.0873 H   0  0  0  0  0  0  0  0  0  0  0  0
    1.7341    4.3994    0.4328 H   0  0  0  0  0  0  0  0  0  0  0  0
    4.1515    4.4364    1.1176 H   0  0  0  0  0  0  0  0  0  0  0  0
    5.2735    2.1975    1.3407 H   0  0  0  0  0  0  0  0  0  0  0  0
  1  2  1  0
  2  3  1  0
  2  4  1  0
  2  5  1  0
  5  6  2  0
  5  7  1  0
  7  8  1  0
  8  9  1  0
  9 10  2  0
 10 11  1  0
 11 12  2  0
 12 13  1  0
 13 14  2  0
 14  9  1  0
  1 15  1  0
  1 16  1  0
  1 17  1  0
  3 18  1  0
  3 19  1  0
  3 20  1  0
  4 21  1  0
  4 22  1  0
  4 23  1  0
  7 24  1  0
  7 25  1  0
 11 26  1  0
 12 27  1  0
 13 28  1  0
M  END
$$$$
