
     RDKit          3D

 56 59  0  0  0  0  0  0  0  0999 V2000
   -2.5527   -3.8727    0.9873 C   0  0  0  0  0  0  0  0  0  0  0  0
   -2.6498   -2.8688    2.1290 C   0  0  0  0  0  0  0  0  0  0  0  0
   -2.6835   -1.3973    1.6762 C   0  0  0  0  0  0  0  0  0  0  0  0
   -3.9871   -1.0610    0.9072 C   0  0  0  0  0  0  0  0  0  0  0  0
   -5.0762   -1.4992    1.2733 O   0  0  0  0  0  0  0  0  0  0  0  0
   -3.8023   -0.1742   -0.1325 N   0  0  0  0  0  0  0  0  0  0  0  0
   -4.7643    0.3995   -0.9838 C   0  0  0  0  0  0  0  0  0  0  0  0
   -6.1415    0.2898   -0.7978 C   0  0  0  0  0  0  0  0  0  0  0  0
   -7.0076    0.9074   -1.6995 C   0  0  0  0  0  0  0  0  0  0  0  0
   -8.3305    0.8005   -1.5187 F   0  0  0  0  0  0  0  0  0  0  0  0
   -6.5296    1.6357   -2.7860 C   0  0  0  0  0  0  0  0  0  0  0  0
   -5.1562    1.7529   -2.9783 C   0  0  0  0  0  0  0  0  0  0  0  0
   -4.2889    1.1380   -2.0784 C   0  0  0  0  0  0  0  0  0  0  0  0
   -2.9645    1.2560   -2.2725 F   0  0  0  0  0  0  0  0  0  0  0  0
   -1.4162   -0.9840    1.0370 N   0  0  0  0  0  0  0  0  0  0  0  0
   -1.2896   -1.1977   -0.3450 N   0  0  0  0  0  0  0  0  0  0  0  0
   -0.1727   -0.9540   -0.9749 C   0  0  0  0  0  0  0  0  0  0  0  0
   -0.1252   -1.1967   -2.4566 C   0  0  0  0  0  0  0  0  0  0  0  0
    0.9631   -0.4665   -0.2350 C   0  0  0  0  0  0  0  0  0  0  0  0
    2.2750   -0.1681   -0.5649 C   0  0  0  0  0  0  0  0  0  0  0  0
    3.0106   -0.3864   -1.8374 C   0  0  0  0  0  0  0  0  0  0  0  0
    2.8447    0.3486    0.6063 N   0  0  0  0  0  0  0  0  0  0  0  0
    4.0990    0.9991    0.8254 C   0  0  0  0  0  0  0  0  0  0  0  0
    4.5792    1.1178    2.1406 C   0  0  0  0  0  0  0  0  0  0  0  0
    5.7997    1.7474    2.4028 C   0  0  0  0  0  0  0  0  0  0  0  0
    6.5619    2.2762    1.3587 C   0  0  0  0  0  0  0  0  0  0  0  0
    7.8570    2.9806    1.6356 C   0  0  0  0  0  0  0  0  0  0  0  0
    6.0672    2.1949    0.0530 C   0  0  0  0  0  0  0  0  0  0  0  0
    4.8451    1.5645   -0.2138 C   0  0  0  0  0  0  0  0  0  0  0  0
    2.0118    0.1699    1.6680 N   0  0  0  0  0  0  0  0  0  0  0  0
    0.8633   -0.2599    1.1438 C   0  0  0  0  0  0  0  0  0  0  0  0
   -0.3659   -0.5388    1.8746 C   0  0  0  0  0  0  0  0  0  0  0  0
   -0.4787   -0.4063    3.0907 O   0  0  0  0  0  0  0  0  0  0  0  0
   -2.5991   -4.8922    1.3836 H   0  0  0  0  0  0  0  0  0  0  0  0
   -3.3741   -3.7525    0.2747 H   0  0  0  0  0  0  0  0  0  0  0  0
   -1.6066   -3.7747    0.4477 H   0  0  0  0  0  0  0  0  0  0  0  0
   -3.5535   -3.0935    2.7083 H   0  0  0  0  0  0  0  0  0  0  0  0
   -1.7995   -3.0264    2.8035 H   0  0  0  0  0  0  0  0  0  0  0  0
   -2.7773   -0.7950    2.5911 H   0  0  0  0  0  0  0  0  0  0  0  0
   -2.8268   -0.0451   -0.4029 H   0  0  0  0  0  0  0  0  0  0  0  0
   -6.5746   -0.2576    0.0316 H   0  0  0  0  0  0  0  0  0  0  0  0
   -7.2318    2.1039   -3.4686 H   0  0  0  0  0  0  0  0  0  0  0  0
   -4.7574    2.3145   -3.8165 H   0  0  0  0  0  0  0  0  0  0  0  0
    0.3094   -0.3338   -2.9682 H   0  0  0  0  0  0  0  0  0  0  0  0
    0.4730   -2.0888   -2.6603 H   0  0  0  0  0  0  0  0  0  0  0  0
   -1.1346   -1.3599   -2.8471 H   0  0  0  0  0  0  0  0  0  0  0  0
    2.6059   -1.2440   -2.3819 H   0  0  0  0  0  0  0  0  0  0  0  0
    2.9310    0.4901   -2.4870 H   0  0  0  0  0  0  0  0  0  0  0  0
    4.0647   -0.6231   -1.6658 H   0  0  0  0  0  0  0  0  0  0  0  0
    4.0159    0.7138    2.9812 H   0  0  0  0  0  0  0  0  0  0  0  0
    6.1457    1.8204    3.4315 H   0  0  0  0  0  0  0  0  0  0  0  0
    7.6996    4.0637    1.6446 H   0  0  0  0  0  0  0  0  0  0  0  0
    8.2726    2.6796    2.6032 H   0  0  0  0  0  0  0  0  0  0  0  0
    8.6004    2.7330    0.8706 H   0  0  0  0  0  0  0  0  0  0  0  0
    6.6275    2.6365   -0.7690 H   0  0  0  0  0  0  0  0  0  0  0  0
    4.4947    1.5836   -1.2386 H   0  0  0  0  0  0  0  0  0  0  0  0
  1  2  1  0
  2  3  1  0
  3  4  1  0
  4  5  2  0
  4  6  1  0
  6  7  1  0
  7  8  2  0
  8  9  1  0
  9 10  1  0
  9 11  2  0
 11 12  1  0
 12 13  2  0
 13 14  1  0
  3 15  1  0
 15 16  1  0
 16 17  2  0
 17 18  1  0
 17 19  1  0
 19 20  2  0
 20 21  1  0
 20 22  1  0
 22 23  1  0
 23 24  2  0
 24 25  1  0
 25 26  2  0
 26 27  1  0
 26 28  1  0
 28 29  2  0
 22 30  1  0
 30 31  2  0
 31 32  1  0
 32 33  2  0
 13  7  1  0
 32 15  1  0
 31 19  1  0
 29 23  1  0
  1 34  1  0
  1 35  1  0
  1 36  1  0
  2 37  1  0
  2 38  1  0
  3 39  1  0
  6 40  1  0
  8 41  1  0
 11 42  1  0
 12 43  1  0
 18 44  1  0
 18 45  1  0
 18 46  1  0
 21 47  1  0
 21 48  1  0
 21 49  1  0
 24 50  1  0
 25 51  1  0
 27 52  1  0
 27 53  1  0
 27 54  1  0
 28 55  1  0
 29 56  1  0
M  END
$$$$
