
     RDKit          3D

 40 42  0  0  0  0  0  0  0  0999 V2000
   -4.5501   -1.8438   -0.8755 C   0  0  0  0  0  0  0  0  0  0  0  0
   -3.3747   -1.0169   -0.4445 C   0  0  0  0  0  0  0  0  0  0  0  0
   -2.9042   -1.0840    0.8669 C   0  0  0  0  0  0  0  0  0  0  0  0
   -1.8220   -0.2962    1.3004 C   0  0  0  0  0  0  0  0  0  0  0  0
   -1.4087   -0.4377    2.7432 C   0  0  0  0  0  0  0  0  0  0  0  0
   -1.2111    0.6021    0.3851 C   0  0  0  0  0  0  0  0  0  0  0  0
    0.1590    1.6236    0.9590 S   0  0  0  0  0  6  0  0  0  0  0  0
    0.6100    2.5187   -0.0873 O   0  0  0  0  0  0  0  0  0  0  0  0
   -0.2360    2.1880    2.2360 O   0  0  0  0  0  0  0  0  0  0  0  0
    1.4359    0.5048    1.2568 N   0  0  0  0  0  0  0  0  0  0  0  0
    2.6283    1.1767    1.8986 C   0  0  0  0  0  0  0  0  0  0  0  0
    3.6974    1.3104    0.8038 C   0  0  0  0  0  0  0  0  0  0  0  0
    3.2727    0.2557   -0.1634 C   0  0  0  0  0  0  0  0  0  0  0  0
    3.9837   -0.2515   -1.2390 C   0  0  0  0  0  0  0  0  0  0  0  0
    3.3720   -1.2194   -2.0379 C   0  0  0  0  0  0  0  0  0  0  0  0
    2.0711   -1.6624   -1.7530 C   0  0  0  0  0  0  0  0  0  0  0  0
    1.3604   -1.1358   -0.6708 C   0  0  0  0  0  0  0  0  0  0  0  0
    1.9701   -0.1643    0.1017 C   0  0  0  0  0  0  0  0  0  0  0  0
   -1.6968    0.6974   -0.9425 C   0  0  0  0  0  0  0  0  0  0  0  0
   -1.1376    1.6227   -1.9896 C   0  0  0  0  0  0  0  0  0  0  0  0
   -2.7768   -0.1194   -1.3309 C   0  0  0  0  0  0  0  0  0  0  0  0
   -5.4798   -1.2962   -0.6932 H   0  0  0  0  0  0  0  0  0  0  0  0
   -4.4859   -2.0887   -1.9409 H   0  0  0  0  0  0  0  0  0  0  0  0
   -4.5835   -2.7912   -0.3272 H   0  0  0  0  0  0  0  0  0  0  0  0
   -3.3919   -1.7612    1.5676 H   0  0  0  0  0  0  0  0  0  0  0  0
   -1.7413    0.4290    3.3216 H   0  0  0  0  0  0  0  0  0  0  0  0
   -0.3293   -0.5687    2.8442 H   0  0  0  0  0  0  0  0  0  0  0  0
   -1.8628   -1.3248    3.1998 H   0  0  0  0  0  0  0  0  0  0  0  0
    2.9804    0.5152    2.7010 H   0  0  0  0  0  0  0  0  0  0  0  0
    2.3976    2.1425    2.3579 H   0  0  0  0  0  0  0  0  0  0  0  0
    3.6484    2.2950    0.3270 H   0  0  0  0  0  0  0  0  0  0  0  0
    4.7010    1.1404    1.2032 H   0  0  0  0  0  0  0  0  0  0  0  0
    4.9887    0.0934   -1.4609 H   0  0  0  0  0  0  0  0  0  0  0  0
    3.9083   -1.6368   -2.8872 H   0  0  0  0  0  0  0  0  0  0  0  0
    1.6136   -2.4264   -2.3774 H   0  0  0  0  0  0  0  0  0  0  0  0
    0.3698   -1.5106   -0.4438 H   0  0  0  0  0  0  0  0  0  0  0  0
   -0.0844    1.3988   -2.1825 H   0  0  0  0  0  0  0  0  0  0  0  0
   -1.6567    1.5058   -2.9480 H   0  0  0  0  0  0  0  0  0  0  0  0
   -1.2706    2.6666   -1.6910 H   0  0  0  0  0  0  0  0  0  0  0  0
   -3.1645   -0.0509   -2.3472 H   0  0  0  0  0  0  0  0  0  0  0  0
  1  2  1  0
  2  3  2  0
  3  4  1  0
  4  5  1  0
  4  6  2  0
  6  7  1  0
  7  8  2  0
  7  9  2  0
  7 10  1  0
 10 11  1  0
 11 12  1  0
 12 13  1  0
 13 14  2  0
 14 15  1  0
 15 16  2  0
 16 17  1  0
 17 18  2  0
  6 19  1  0
 19 20  1  0
 19 21  2  0
 21  2  1  0
 18 10  1  0
 18 13  1  0
  1 22  1  0
  1 23  1  0
  1 24  1  0
  3 25  1  0
  5 26  1  0
  5 27  1  0
  5 28  1  0
 11 29  1  0
 11 30  1  0
 12 31  1  0
 12 32  1  0
 14 33  1  0
 15 34  1  0
 16 35  1  0
 17 36  1  0
 20 37  1  0
 20 38  1  0
 20 39  1  0
 21 40  1  0
M  END
$$$$
