
     RDKit          3D

 28 30  0  0  0  0  0  0  0  0999 V2000
   -1.5696   -1.2091   -2.7668 N   0  0  0  0  0  0  0  0  0  0  0  0
   -1.0811   -0.6843   -1.8495 C   0  0  0  0  0  0  0  0  0  0  0  0
   -0.5063   -0.0627   -0.6987 C   0  0  0  0  0  0  0  0  0  0  0  0
   -0.8380    1.1799   -0.2838 C   0  0  0  0  0  0  0  0  0  0  0  0
   -1.8104    2.0672   -0.9345 C   0  0  0  0  0  0  0  0  0  0  0  0
   -3.1572    1.7116   -1.0573 C   0  0  0  0  0  0  0  0  0  0  0  0
   -4.0115    2.5912   -1.7019 C   0  0  0  0  0  0  0  0  0  0  0  0
   -3.6254    3.7873   -2.1963 N   0  0  0  0  0  0  0  0  0  0  0  0
   -2.3276    4.1233   -2.0332 C   0  0  0  0  0  0  0  0  0  0  0  0
   -1.3931    3.3109   -1.4115 C   0  0  0  0  0  0  0  0  0  0  0  0
    0.4598   -0.7799    0.0704 C   0  0  0  0  0  0  0  0  0  0  0  0
    0.3584   -1.0729    1.3545 N   0  0  0  0  0  0  0  0  0  0  0  0
    1.4617   -1.7953    1.7780 C   0  0  0  0  0  0  0  0  0  0  0  0
    1.6550   -2.3245    3.0716 C   0  0  0  0  0  0  0  0  0  0  0  0
    2.8339   -3.0210    3.3666 C   0  0  0  0  0  0  0  0  0  0  0  0
    3.8133   -3.2013    2.3919 C   0  0  0  0  0  0  0  0  0  0  0  0
    3.6510   -2.6702    1.1053 C   0  0  0  0  0  0  0  0  0  0  0  0
    2.4599   -1.9807    0.8164 C   0  0  0  0  0  0  0  0  0  0  0  0
    1.9539   -1.2672   -0.6648 S   0  0  0  0  0  0  0  0  0  0  0  0
   -0.3313    1.6223    0.5800 H   0  0  0  0  0  0  0  0  0  0  0  0
   -3.5437    0.7704   -0.6763 H   0  0  0  0  0  0  0  0  0  0  0  0
   -5.0514    2.3361   -1.8662 H   0  0  0  0  0  0  0  0  0  0  0  0
   -2.0439    5.0885   -2.4486 H   0  0  0  0  0  0  0  0  0  0  0  0
   -0.3636    3.6452   -1.3206 H   0  0  0  0  0  0  0  0  0  0  0  0
    0.8846   -2.1913    3.8296 H   0  0  0  0  0  0  0  0  0  0  0  0
    2.9836   -3.4127    4.3685 H   0  0  0  0  0  0  0  0  0  0  0  0
    4.7266   -3.7441    2.6336 H   0  0  0  0  0  0  0  0  0  0  0  0
    4.4121   -2.8168    0.3421 H   0  0  0  0  0  0  0  0  0  0  0  0
  1  2  3  0
  2  3  1  0
  3  4  2  3
  4  5  1  0
  5  6  2  0
  6  7  1  0
  7  8  2  0
  8  9  1  0
  9 10  2  0
  3 11  1  0
 11 12  2  0
 12 13  1  0
 13 14  2  0
 14 15  1  0
 15 16  2  0
 16 17  1  0
 17 18  2  0
 18 19  1  0
 10  5  1  0
 19 11  1  0
 18 13  1  0
  4 20  1  0
  6 21  1  0
  7 22  1  0
  9 23  1  0
 10 24  1  0
 14 25  1  0
 15 26  1  0
 16 27  1  0
 17 28  1  0
M  END
$$$$
