
     RDKit          3D

 24 25  0  0  0  0  0  0  0  0999 V2000
    4.4931   -1.0848    1.0872 C   0  0  0  0  0  0  0  0  0  0  0  0
    2.7050   -0.8192    1.0895 S   0  0  0  0  0  0  0  0  0  0  0  0
    2.4547   -0.2219   -0.5182 C   0  0  0  0  0  0  0  0  0  0  0  0
    3.4288   -0.0428   -1.3848 N   0  0  0  0  0  0  0  0  0  0  0  0
    2.8675    0.5409   -2.4794 N   0  0  0  0  0  0  0  0  0  0  0  0
    1.5711    0.7292   -2.3046 N   0  0  0  0  0  0  0  0  0  0  0  0
    1.2580    0.2176   -1.0791 N   0  0  0  0  0  0  0  0  0  0  0  0
   -0.1017    0.2216   -0.6459 C   0  0  0  0  0  0  0  0  0  0  0  0
   -0.5467   -0.4690    0.4842 C   0  0  0  0  0  0  0  0  0  0  0  0
   -1.8970   -0.4281    0.8587 C   0  0  0  0  0  0  0  0  0  0  0  0
   -2.8360    0.2963    0.1132 C   0  0  0  0  0  0  0  0  0  0  0  0
   -4.2744    0.3153    0.5472 C   0  0  0  0  0  0  0  0  0  0  0  0
   -2.3945    0.9766   -1.0273 C   0  0  0  0  0  0  0  0  0  0  0  0
   -3.4840    1.8881   -2.0111 Cl  0  0  0  0  0  0  0  0  0  0  0  0
   -1.0470    0.9374   -1.4050 C   0  0  0  0  0  0  0  0  0  0  0  0
    5.0233   -0.1451    0.9094 H   0  0  0  0  0  0  0  0  0  0  0  0
    4.7746   -1.8139    0.3223 H   0  0  0  0  0  0  0  0  0  0  0  0
    4.7985   -1.4734    2.0625 H   0  0  0  0  0  0  0  0  0  0  0  0
    0.1009   -1.0823    1.0985 H   0  0  0  0  0  0  0  0  0  0  0  0
   -2.2108   -0.9799    1.7442 H   0  0  0  0  0  0  0  0  0  0  0  0
   -4.4238   -0.2630    1.4654 H   0  0  0  0  0  0  0  0  0  0  0  0
   -4.9121   -0.1256   -0.2257 H   0  0  0  0  0  0  0  0  0  0  0  0
   -4.5988    1.3408    0.7509 H   0  0  0  0  0  0  0  0  0  0  0  0
   -0.7487    1.4851   -2.2985 H   0  0  0  0  0  0  0  0  0  0  0  0
  1  2  1  0
  2  3  1  0
  3  4  2  0
  4  5  1  0
  5  6  2  0
  6  7  1  0
  7  8  1  0
  8  9  2  0
  9 10  1  0
 10 11  2  0
 11 12  1  0
 11 13  1  0
 13 14  1  0
 13 15  2  0
  7  3  1  0
 15  8  1  0
  1 16  1  0
  1 17  1  0
  1 18  1  0
  9 19  1  0
 10 20  1  0
 12 21  1  0
 12 22  1  0
 12 23  1  0
 15 24  1  0
M  END
$$$$
