
     RDKit          3D

 36 37  0  0  0  0  0  0  0  0999 V2000
   -4.6151   -2.1947   -0.0955 C   0  0  0  0  0  0  0  0  0  0  0  0
   -3.5127   -1.8240    0.8781 C   0  0  0  0  0  0  0  0  0  0  0  0
   -2.5387   -0.9928    0.2260 O   0  0  0  0  0  0  0  0  0  0  0  0
   -2.7863    0.3422    0.2590 C   0  0  0  0  0  0  0  0  0  0  0  0
   -3.7845    0.8684    0.7262 O   0  0  0  0  0  0  0  0  0  0  0  0
   -1.7015    1.1067   -0.4166 C   0  0  0  0  0  0  0  0  0  0  0  0
   -2.0065    2.4276   -0.7893 C   0  0  0  0  0  0  0  0  0  0  0  0
   -1.0577    3.2262   -1.4303 C   0  0  0  0  0  0  0  0  0  0  0  0
    0.2082    2.7164   -1.7030 C   0  0  0  0  0  0  0  0  0  0  0  0
    0.5285    1.4104   -1.3310 C   0  0  0  0  0  0  0  0  0  0  0  0
   -0.4189    0.5985   -0.6944 C   0  0  0  0  0  0  0  0  0  0  0  0
    0.0133   -0.7002   -0.2706 N   0  0  0  0  0  0  0  0  0  0  0  0
    0.7601   -0.7975    1.2513 S   0  0  0  0  0  6  0  0  0  0  0  0
    0.6218   -2.1653    1.7023 O   0  0  0  0  0  0  0  0  0  0  0  0
    0.2856    0.3001    2.0689 O   0  0  0  0  0  0  0  0  0  0  0  0
    2.4581   -0.5242    0.8833 C   0  0  0  0  0  0  0  0  0  0  0  0
    3.1319    0.5762    1.4239 C   0  0  0  0  0  0  0  0  0  0  0  0
    4.4807    0.7721    1.1214 C   0  0  0  0  0  0  0  0  0  0  0  0
    5.1490   -0.1270    0.2876 C   0  0  0  0  0  0  0  0  0  0  0  0
    4.4693   -1.2237   -0.2452 C   0  0  0  0  0  0  0  0  0  0  0  0
    3.1240   -1.4192    0.0565 C   0  0  0  0  0  0  0  0  0  0  0  0
    2.4943   -2.4709   -0.4834 F   0  0  0  0  0  0  0  0  0  0  0  0
   -5.1502   -1.3044   -0.4404 H   0  0  0  0  0  0  0  0  0  0  0  0
   -4.1963   -2.6786   -0.9840 H   0  0  0  0  0  0  0  0  0  0  0  0
   -5.3329   -2.8747    0.3718 H   0  0  0  0  0  0  0  0  0  0  0  0
   -2.9904   -2.7286    1.2063 H   0  0  0  0  0  0  0  0  0  0  0  0
   -3.9142   -1.3400    1.7757 H   0  0  0  0  0  0  0  0  0  0  0  0
   -2.9910    2.8430   -0.5771 H   0  0  0  0  0  0  0  0  0  0  0  0
   -1.3083    4.2464   -1.7123 H   0  0  0  0  0  0  0  0  0  0  0  0
    0.9493    3.3371   -2.2011 H   0  0  0  0  0  0  0  0  0  0  0  0
    1.5216    1.0276   -1.5525 H   0  0  0  0  0  0  0  0  0  0  0  0
   -0.7031   -1.4327   -0.3178 H   0  0  0  0  0  0  0  0  0  0  0  0
    2.6188    1.2790    2.0775 H   0  0  0  0  0  0  0  0  0  0  0  0
    5.0129    1.6242    1.5394 H   0  0  0  0  0  0  0  0  0  0  0  0
    6.2007    0.0253    0.0557 H   0  0  0  0  0  0  0  0  0  0  0  0
    4.9805   -1.9290   -0.8939 H   0  0  0  0  0  0  0  0  0  0  0  0
  1  2  1  0
  2  3  1  0
  3  4  1  0
  4  5  2  0
  4  6  1  0
  6  7  2  0
  7  8  1  0
  8  9  2  0
  9 10  1  0
 10 11  2  0
 11 12  1  0
 12 13  1  0
 13 14  2  0
 13 15  2  0
 13 16  1  0
 16 17  2  0
 17 18  1  0
 18 19  2  0
 19 20  1  0
 20 21  2  0
 21 22  1  0
 11  6  1  0
 21 16  1  0
  1 23  1  0
  1 24  1  0
  1 25  1  0
  2 26  1  0
  2 27  1  0
  7 28  1  0
  8 29  1  0
  9 30  1  0
 10 31  1  0
 12 32  1  0
 17 33  1  0
 18 34  1  0
 19 35  1  0
 20 36  1  0
M  END
$$$$
