
     RDKit          3D

 51 55  0  0  0  0  0  0  0  0999 V2000
    1.3491    2.6758    1.0632 O   0  0  0  0  0  0  0  0  0  0  0  0
    0.6513    1.6642    1.1130 C   0  0  0  0  0  0  0  0  0  0  0  0
   -0.8772    1.7857    1.1327 C   0  0  0  0  0  0  0  0  0  0  0  0
   -1.5476    1.0086    0.0745 N   0  0  0  0  0  0  0  0  0  0  0  0
   -1.7974   -0.3415    0.3131 C   0  0  0  0  0  0  0  0  0  0  0  0
   -1.4498   -0.8796    1.3737 O   0  0  0  0  0  0  0  0  0  0  0  0
   -2.3705   -1.1883   -0.8061 C   0  0  0  0  0  0  0  0  0  0  0  0
   -3.8739   -1.0511   -0.9923 C   0  0  0  0  0  0  0  0  0  0  0  0
   -4.6541   -1.8822   -0.0208 C   0  0  0  0  0  0  0  0  0  0  0  0
   -4.6837   -1.9911    1.3586 C   0  0  0  0  0  0  0  0  0  0  0  0
   -5.7092   -2.9179    1.6662 C   0  0  0  0  0  0  0  0  0  0  0  0
   -6.2379   -3.3178    0.4606 C   0  0  0  0  0  0  0  0  0  0  0  0
   -5.5946   -2.7056   -0.5667 O   0  0  0  0  0  0  0  0  0  0  0  0
   -4.5164    0.6648   -0.9373 S   0  0  0  0  0  0  0  0  0  0  0  0
   -3.1757    1.5295   -1.7363 C   0  0  0  0  0  0  0  0  0  0  0  0
   -3.4756    2.2062   -2.9278 C   0  0  0  0  0  0  0  0  0  0  0  0
   -2.5357    3.0464   -3.5230 C   0  0  0  0  0  0  0  0  0  0  0  0
   -1.2969    3.2362   -2.9158 C   0  0  0  0  0  0  0  0  0  0  0  0
   -0.9912    2.5735   -1.7263 C   0  0  0  0  0  0  0  0  0  0  0  0
   -1.9106    1.6920   -1.1306 C   0  0  0  0  0  0  0  0  0  0  0  0
    1.1055    0.3574    1.2268 N   0  0  0  0  0  0  0  0  0  0  0  0
    2.4351   -0.1025    1.1486 C   0  0  0  0  0  0  0  0  0  0  0  0
    2.6317   -1.4835    1.2407 C   0  0  0  0  0  0  0  0  0  0  0  0
    3.9150   -2.0275    1.1433 C   0  0  0  0  0  0  0  0  0  0  0  0
    5.0127   -1.1942    0.9730 C   0  0  0  0  0  0  0  0  0  0  0  0
    4.8249    0.1850    0.8591 C   0  0  0  0  0  0  0  0  0  0  0  0
    3.5418    0.7292    0.9531 C   0  0  0  0  0  0  0  0  0  0  0  0
    5.8587    1.0739    0.6653 O   0  0  0  0  0  0  0  0  0  0  0  0
    7.0531    0.4050    0.2472 C   0  0  0  0  0  0  0  0  0  0  0  0
    7.2999   -0.8397    1.0808 C   0  0  0  0  0  0  0  0  0  0  0  0
    6.2433   -1.7939    0.9072 O   0  0  0  0  0  0  0  0  0  0  0  0
   -1.2275    1.4459    2.1174 H   0  0  0  0  0  0  0  0  0  0  0  0
   -1.1570    2.8449    1.0485 H   0  0  0  0  0  0  0  0  0  0  0  0
   -1.8387   -0.9477   -1.7367 H   0  0  0  0  0  0  0  0  0  0  0  0
   -2.1039   -2.2359   -0.6023 H   0  0  0  0  0  0  0  0  0  0  0  0
   -4.1026   -1.4192   -2.0015 H   0  0  0  0  0  0  0  0  0  0  0  0
   -4.0564   -1.4629    2.0644 H   0  0  0  0  0  0  0  0  0  0  0  0
   -6.0341   -3.2374    2.6481 H   0  0  0  0  0  0  0  0  0  0  0  0
   -7.0355   -3.9889    0.1787 H   0  0  0  0  0  0  0  0  0  0  0  0
   -4.4589    2.1067   -3.3885 H   0  0  0  0  0  0  0  0  0  0  0  0
   -2.7785    3.5686   -4.4449 H   0  0  0  0  0  0  0  0  0  0  0  0
   -0.5639    3.9045   -3.3648 H   0  0  0  0  0  0  0  0  0  0  0  0
   -0.0047    2.7445   -1.2969 H   0  0  0  0  0  0  0  0  0  0  0  0
    0.3946   -0.3439    1.4158 H   0  0  0  0  0  0  0  0  0  0  0  0
    1.7856   -2.1594    1.3782 H   0  0  0  0  0  0  0  0  0  0  0  0
    4.0558   -3.1016    1.2041 H   0  0  0  0  0  0  0  0  0  0  0  0
    3.4428    1.8057    0.8570 H   0  0  0  0  0  0  0  0  0  0  0  0
    6.9670    0.1677   -0.8158 H   0  0  0  0  0  0  0  0  0  0  0  0
    7.8802    1.1037    0.3738 H   0  0  0  0  0  0  0  0  0  0  0  0
    8.2346   -1.3181    0.7739 H   0  0  0  0  0  0  0  0  0  0  0  0
    7.3771   -0.5938    2.1492 H   0  0  0  0  0  0  0  0  0  0  0  0
  1  2  2  0
  2  3  1  0
  3  4  1  0
  4  5  1  0
  5  6  2  0
  5  7  1  0
  7  8  1  0
  8  9  1  0
  9 10  2  0
 10 11  1  0
 11 12  2  0
 12 13  1  0
  8 14  1  0
 14 15  1  0
 15 16  2  0
 16 17  1  0
 17 18  2  0
 18 19  1  0
 19 20  2  0
  2 21  1  0
 21 22  1  0
 22 23  2  0
 23 24  1  0
 24 25  2  0
 25 26  1  0
 26 27  2  0
 26 28  1  0
 28 29  1  0
 29 30  1  0
 30 31  1  0
 20  4  1  0
 27 22  1  0
 13  9  1  0
 20 15  1  0
 31 25  1  0
  3 32  1  0
  3 33  1  0
  7 34  1  0
  7 35  1  0
  8 36  1  0
 10 37  1  0
 11 38  1  0
 12 39  1  0
 16 40  1  0
 17 41  1  0
 18 42  1  0
 19 43  1  0
 21 44  1  0
 23 45  1  0
 24 46  1  0
 27 47  1  0
 29 48  1  0
 29 49  1  0
 30 50  1  0
 30 51  1  0
M  END
$$$$
