
     RDKit          3D

 57 59  0  0  0  0  0  0  0  0999 V2000
   -8.1532   -3.0425   -1.0177 C   0  0  0  0  0  0  0  0  0  0  0  0
   -7.4258   -1.9026   -1.4520 O   0  0  0  0  0  0  0  0  0  0  0  0
   -6.3356   -1.5188   -0.7110 C   0  0  0  0  0  0  0  0  0  0  0  0
   -5.8586   -2.2128    0.4087 C   0  0  0  0  0  0  0  0  0  0  0  0
   -4.7368   -1.7520    1.1000 C   0  0  0  0  0  0  0  0  0  0  0  0
   -4.0894   -0.5974    0.6620 C   0  0  0  0  0  0  0  0  0  0  0  0
   -2.6581    0.0010    1.5207 S   0  0  0  0  0  6  0  0  0  0  0  0
   -2.7945    1.4353    1.6525 O   0  0  0  0  0  0  0  0  0  0  0  0
   -2.4279   -0.8385    2.6759 O   0  0  0  0  0  0  0  0  0  0  0  0
   -1.4256   -0.2936    0.4123 N   0  0  0  0  0  0  0  0  0  0  0  0
   -1.1377   -1.6896    0.0493 C   0  0  0  0  0  0  0  0  0  0  0  0
    0.2818   -1.5921   -0.4588 C   0  0  0  0  0  0  0  0  0  0  0  0
    0.8932   -0.6502    0.4234 O   0  0  0  0  0  0  0  0  0  0  0  0
   -0.1240    0.3051    0.7878 C   0  0  0  0  0  0  0  0  0  0  0  0
    0.0851    1.6372    0.0294 C   0  0  0  0  0  0  0  0  0  0  0  0
    1.3839    2.2394    0.2714 N   0  0  0  0  0  0  0  0  0  0  0  0
    2.4812    1.9271   -0.5001 C   0  0  0  0  0  0  0  0  0  0  0  0
    2.4782    1.2967   -1.5484 O   0  0  0  0  0  0  0  0  0  0  0  0
    3.8120    2.4595    0.0781 C   0  0  0  0  0  0  0  0  0  0  0  0
    3.8222    3.0444    1.1524 O   0  0  0  0  0  0  0  0  0  0  0  0
    4.9001    2.1910   -0.7172 N   0  0  0  0  0  0  0  0  0  0  0  0
    6.2500    2.4399   -0.2857 C   0  0  0  0  0  0  0  0  0  0  0  0
    6.8644    1.1950    0.3018 C   0  0  0  0  0  0  0  0  0  0  0  0
    6.6564    0.8745    1.6535 C   0  0  0  0  0  0  0  0  0  0  0  0
    7.2028   -0.2892    2.1961 C   0  0  0  0  0  0  0  0  0  0  0  0
    7.9512   -1.1355    1.3876 C   0  0  0  0  0  0  0  0  0  0  0  0
    8.4753   -2.2530    1.9079 F   0  0  0  0  0  0  0  0  0  0  0  0
    8.1613   -0.8423    0.0454 C   0  0  0  0  0  0  0  0  0  0  0  0
    7.6152    0.3207   -0.5002 C   0  0  0  0  0  0  0  0  0  0  0  0
   -4.5566    0.1152   -0.4469 C   0  0  0  0  0  0  0  0  0  0  0  0
   -5.6808   -0.3425   -1.1389 C   0  0  0  0  0  0  0  0  0  0  0  0
   -6.2122    0.2752   -2.2439 O   0  0  0  0  0  0  0  0  0  0  0  0
   -5.6716    1.5341   -2.6206 C   0  0  0  0  0  0  0  0  0  0  0  0
   -7.5354   -3.9452   -1.0642 H   0  0  0  0  0  0  0  0  0  0  0  0
   -8.9962   -3.1818   -1.7013 H   0  0  0  0  0  0  0  0  0  0  0  0
   -8.5616   -2.8925   -0.0129 H   0  0  0  0  0  0  0  0  0  0  0  0
   -6.3405   -3.1160    0.7687 H   0  0  0  0  0  0  0  0  0  0  0  0
   -4.3809   -2.2973    1.9716 H   0  0  0  0  0  0  0  0  0  0  0  0
   -1.1745   -2.3373    0.9314 H   0  0  0  0  0  0  0  0  0  0  0  0
   -1.8180   -2.0673   -0.7172 H   0  0  0  0  0  0  0  0  0  0  0  0
    0.3244   -1.1940   -1.4788 H   0  0  0  0  0  0  0  0  0  0  0  0
    0.8149   -2.5457   -0.4234 H   0  0  0  0  0  0  0  0  0  0  0  0
   -0.0287    0.4627    1.8676 H   0  0  0  0  0  0  0  0  0  0  0  0
   -0.0189    1.4708   -1.0494 H   0  0  0  0  0  0  0  0  0  0  0  0
   -0.6680    2.3724    0.3283 H   0  0  0  0  0  0  0  0  0  0  0  0
    1.5780    2.6961    1.1594 H   0  0  0  0  0  0  0  0  0  0  0  0
    4.7296    1.5848   -1.5147 H   0  0  0  0  0  0  0  0  0  0  0  0
    6.8202    2.7705   -1.1608 H   0  0  0  0  0  0  0  0  0  0  0  0
    6.2734    3.2561    0.4455 H   0  0  0  0  0  0  0  0  0  0  0  0
    6.0612    1.5313    2.2865 H   0  0  0  0  0  0  0  0  0  0  0  0
    7.0457   -0.5410    3.2399 H   0  0  0  0  0  0  0  0  0  0  0  0
    8.7454   -1.5219   -0.5666 H   0  0  0  0  0  0  0  0  0  0  0  0
    7.7781    0.5402   -1.5531 H   0  0  0  0  0  0  0  0  0  0  0  0
   -4.0269    1.0129   -0.7496 H   0  0  0  0  0  0  0  0  0  0  0  0
   -4.6330    1.4318   -2.9515 H   0  0  0  0  0  0  0  0  0  0  0  0
   -5.7593    2.2634   -1.8085 H   0  0  0  0  0  0  0  0  0  0  0  0
   -6.2547    1.9082   -3.4677 H   0  0  0  0  0  0  0  0  0  0  0  0
  1  2  1  0
  2  3  1  0
  3  4  2  0
  4  5  1  0
  5  6  2  0
  6  7  1  0
  7  8  2  0
  7  9  2  0
  7 10  1  0
 10 11  1  0
 11 12  1  0
 12 13  1  0
 13 14  1  0
 14 15  1  0
 15 16  1  0
 16 17  1  0
 17 18  2  0
 17 19  1  0
 19 20  2  0
 19 21  1  0
 21 22  1  0
 22 23  1  0
 23 24  2  0
 24 25  1  0
 25 26  2  0
 26 27  1  0
 26 28  1  0
 28 29  2  0
  6 30  1  0
 30 31  2  0
 31 32  1  0
 32 33  1  0
 31  3  1  0
 14 10  1  0
 29 23  1  0
  1 34  1  0
  1 35  1  0
  1 36  1  0
  4 37  1  0
  5 38  1  0
 11 39  1  0
 11 40  1  0
 12 41  1  0
 12 42  1  0
 14 43  1  0
 15 44  1  0
 15 45  1  0
 16 46  1  0
 21 47  1  0
 22 48  1  0
 22 49  1  0
 24 50  1  0
 25 51  1  0
 28 52  1  0
 29 53  1  0
 30 54  1  0
 33 55  1  0
 33 56  1  0
 33 57  1  0
M  END
$$$$
