
     RDKit          3D

 56 58  0  0  0  0  0  0  0  0999 V2000
    6.1529   -0.3684    2.6661 C   0  0  0  0  0  0  0  0  0  0  0  0
    4.8403   -0.8641    2.4406 O   0  0  0  0  0  0  0  0  0  0  0  0
    4.3924   -0.8813    1.1478 C   0  0  0  0  0  0  0  0  0  0  0  0
    5.1192   -0.4798    0.0283 C   0  0  0  0  0  0  0  0  0  0  0  0
    4.5467   -0.5471   -1.2469 C   0  0  0  0  0  0  0  0  0  0  0  0
    3.2409   -1.0149   -1.4087 C   0  0  0  0  0  0  0  0  0  0  0  0
    2.5868   -1.1224   -2.6147 O   0  0  0  0  0  0  0  0  0  0  0  0
    3.2632   -0.6295   -3.7646 C   0  0  0  0  0  0  0  0  0  0  0  0
    2.5011   -1.4222   -0.2793 C   0  0  0  0  0  0  0  0  0  0  0  0
    1.1837   -1.8754   -0.5131 N   0  0  0  0  0  0  0  0  0  0  0  0
    0.2148   -2.2102    0.4097 C   0  0  0  0  0  0  0  0  0  0  0  0
    0.3446   -2.2404    1.6310 O   0  0  0  0  0  0  0  0  0  0  0  0
   -1.1082   -2.6105   -0.2247 C   0  0  0  0  0  0  0  0  0  0  0  0
   -1.8368   -1.2877   -1.2348 S   0  0  0  0  0  0  0  0  0  0  0  0
   -1.7334    0.0191   -0.0751 C   0  0  0  0  0  0  0  0  0  0  0  0
   -0.6559    0.7261   -0.1487 N   0  0  0  0  0  0  0  0  0  0  0  0
   -0.4609    1.7474    0.7812 C   0  0  0  0  0  0  0  0  0  0  0  0
    0.7381    2.4626    0.7585 C   0  0  0  0  0  0  0  0  0  0  0  0
    0.9699    3.4891    1.6775 C   0  0  0  0  0  0  0  0  0  0  0  0
    0.0006    3.8073    2.6285 C   0  0  0  0  0  0  0  0  0  0  0  0
   -1.1982    3.0958    2.6621 C   0  0  0  0  0  0  0  0  0  0  0  0
   -1.4164    2.0671    1.7385 C   0  0  0  0  0  0  0  0  0  0  0  0
   -2.6636    1.2852    1.7417 C   0  0  0  0  0  0  0  0  0  0  0  0
   -3.5630    1.5946    2.5211 O   0  0  0  0  0  0  0  0  0  0  0  0
   -2.7594    0.2367    0.8247 N   0  0  0  0  0  0  0  0  0  0  0  0
   -4.0262   -0.5141    0.8547 C   0  0  0  0  0  0  0  0  0  0  0  0
   -5.1775    0.2454    0.1733 C   0  0  0  0  0  0  0  0  0  0  0  0
   -5.0003    0.3931   -1.2604 N   0  0  0  0  0  0  0  0  0  0  0  0
   -5.2658   -0.6445   -2.1235 C   0  0  0  0  0  0  0  0  0  0  0  0
   -4.9965   -0.3362   -3.5715 C   0  0  0  0  0  0  0  0  0  0  0  0
   -5.6959   -1.7328   -1.7548 O   0  0  0  0  0  0  0  0  0  0  0  0
    3.0851   -1.3531    0.9875 C   0  0  0  0  0  0  0  0  0  0  0  0
    6.3474   -0.4135    3.7421 H   0  0  0  0  0  0  0  0  0  0  0  0
    6.9015   -0.9912    2.1661 H   0  0  0  0  0  0  0  0  0  0  0  0
    6.2381    0.6783    2.3561 H   0  0  0  0  0  0  0  0  0  0  0  0
    6.1366   -0.1119    0.1109 H   0  0  0  0  0  0  0  0  0  0  0  0
    5.1503   -0.2286   -2.0897 H   0  0  0  0  0  0  0  0  0  0  0  0
    3.4885    0.4373   -3.6645 H   0  0  0  0  0  0  0  0  0  0  0  0
    4.1690   -1.2102   -3.9673 H   0  0  0  0  0  0  0  0  0  0  0  0
    2.5936   -0.7486   -4.6219 H   0  0  0  0  0  0  0  0  0  0  0  0
    0.8954   -1.7979   -1.4854 H   0  0  0  0  0  0  0  0  0  0  0  0
   -0.9479   -3.4953   -0.8487 H   0  0  0  0  0  0  0  0  0  0  0  0
   -1.8118   -2.8845    0.5680 H   0  0  0  0  0  0  0  0  0  0  0  0
    1.4988    2.2075    0.0248 H   0  0  0  0  0  0  0  0  0  0  0  0
    1.9102    4.0341    1.6535 H   0  0  0  0  0  0  0  0  0  0  0  0
    0.1816    4.6034    3.3466 H   0  0  0  0  0  0  0  0  0  0  0  0
   -1.9532    3.3363    3.4069 H   0  0  0  0  0  0  0  0  0  0  0  0
   -3.9097   -1.5059    0.4128 H   0  0  0  0  0  0  0  0  0  0  0  0
   -4.2953   -0.6786    1.9058 H   0  0  0  0  0  0  0  0  0  0  0  0
   -6.1149   -0.2944    0.3489 H   0  0  0  0  0  0  0  0  0  0  0  0
   -5.2920    1.2535    0.5830 H   0  0  0  0  0  0  0  0  0  0  0  0
   -4.5586    1.2347   -1.6089 H   0  0  0  0  0  0  0  0  0  0  0  0
   -4.3805   -1.1332   -3.9976 H   0  0  0  0  0  0  0  0  0  0  0  0
   -4.4641    0.6112   -3.6931 H   0  0  0  0  0  0  0  0  0  0  0  0
   -5.9479   -0.2788   -4.1067 H   0  0  0  0  0  0  0  0  0  0  0  0
    2.5425   -1.6585    1.8768 H   0  0  0  0  0  0  0  0  0  0  0  0
  1  2  1  0
  2  3  1  0
  3  4  2  0
  4  5  1  0
  5  6  2  0
  6  7  1  0
  7  8  1  0
  6  9  1  0
  9 10  1  0
 10 11  1  0
 11 12  2  0
 11 13  1  0
 13 14  1  0
 14 15  1  0
 15 16  2  0
 16 17  1  0
 17 18  2  0
 18 19  1  0
 19 20  2  0
 20 21  1  0
 21 22  2  0
 22 23  1  0
 23 24  2  0
 23 25  1  0
 25 26  1  0
 26 27  1  0
 27 28  1  0
 28 29  1  0
 29 30  1  0
 29 31  2  0
  9 32  2  0
 32  3  1  0
 25 15  1  0
 22 17  1  0
  1 33  1  0
  1 34  1  0
  1 35  1  0
  4 36  1  0
  5 37  1  0
  8 38  1  0
  8 39  1  0
  8 40  1  0
 10 41  1  0
 13 42  1  0
 13 43  1  0
 18 44  1  0
 19 45  1  0
 20 46  1  0
 21 47  1  0
 26 48  1  0
 26 49  1  0
 27 50  1  0
 27 51  1  0
 28 52  1  0
 30 53  1  0
 30 54  1  0
 30 55  1  0
 32 56  1  0
M  END
$$$$
