
     RDKit          3D

 63 67  0  0  0  0  0  0  0  0999 V2000
   -4.5768    1.0332    1.6563 C   0  0  0  0  0  0  0  0  0  0  0  0
   -3.8064   -0.1269    1.9830 O   0  0  0  0  0  0  0  0  0  0  0  0
   -4.0686   -0.6401    3.2093 C   0  0  0  0  0  0  0  0  0  0  0  0
   -4.8688   -0.1682    4.0000 O   0  0  0  0  0  0  0  0  0  0  0  0
   -3.2460   -1.8580    3.4987 C   0  0  0  0  0  0  0  0  0  0  0  0
   -3.5727   -2.5239    4.6988 C   0  0  0  0  0  0  0  0  0  0  0  0
   -2.8733   -3.6574    5.1033 C   0  0  0  0  0  0  0  0  0  0  0  0
   -1.8262   -4.1286    4.3254 C   0  0  0  0  0  0  0  0  0  0  0  0
   -1.4858   -3.4783    3.1346 C   0  0  0  0  0  0  0  0  0  0  0  0
   -2.1997   -2.3585    2.6842 C   0  0  0  0  0  0  0  0  0  0  0  0
   -1.8349   -1.6803    1.4938 N   0  0  0  0  0  0  0  0  0  0  0  0
   -1.1916   -2.0832    0.3318 C   0  0  0  0  0  0  0  0  0  0  0  0
   -0.9705   -3.6728   -0.1621 S   0  0  0  0  0  0  0  0  0  0  0  0
   -0.7993   -0.9685   -0.4478 N   0  0  0  0  0  0  0  0  0  0  0  0
   -0.6454   -1.0679   -1.9159 C   0  0  0  0  0  0  0  0  0  0  0  0
   -1.2014    0.1308   -2.6523 C   0  0  0  0  0  0  0  0  0  0  0  0
   -0.3367    1.0211   -3.3304 C   0  0  0  0  0  0  0  0  0  0  0  0
   -0.8399    2.1480   -3.9893 C   0  0  0  0  0  0  0  0  0  0  0  0
   -2.2012    2.3584   -3.9532 C   0  0  0  0  0  0  0  0  0  0  0  0
   -3.0496    1.4986   -3.2982 C   0  0  0  0  0  0  0  0  0  0  0  0
   -2.5856    0.3779   -2.6427 C   0  0  0  0  0  0  0  0  0  0  0  0
   -4.3496    1.8926   -3.3775 O   0  0  0  0  0  0  0  0  0  0  0  0
   -4.2204    3.0998   -4.1571 C   0  0  0  0  0  0  0  0  0  0  0  0
   -2.8602    3.4004   -4.5297 O   0  0  0  0  0  0  0  0  0  0  0  0
   -0.2967    0.2692    0.2012 C   0  0  0  0  0  0  0  0  0  0  0  0
    1.2028    0.4095    0.1314 C   0  0  0  0  0  0  0  0  0  0  0  0
    2.0992   -0.5847   -0.0085 C   0  0  0  0  0  0  0  0  0  0  0  0
    3.5309   -0.3070   -0.1135 C   0  0  0  0  0  0  0  0  0  0  0  0
    4.4627   -1.3315   -0.2768 C   0  0  0  0  0  0  0  0  0  0  0  0
    5.8202   -1.0232   -0.3961 C   0  0  0  0  0  0  0  0  0  0  0  0
    6.2594    0.3042   -0.3595 C   0  0  0  0  0  0  0  0  0  0  0  0
    7.6123    0.4571   -0.4937 O   0  0  0  0  0  0  0  0  0  0  0  0
    8.1028    1.7865   -0.6081 C   0  0  0  0  0  0  0  0  0  0  0  0
    5.3299    1.3309   -0.1877 C   0  0  0  0  0  0  0  0  0  0  0  0
    3.9732    1.0185   -0.0662 C   0  0  0  0  0  0  0  0  0  0  0  0
    3.0334    2.0397    0.1115 N   0  0  0  0  0  0  0  0  0  0  0  0
    1.6883    1.8215    0.2424 C   0  0  0  0  0  0  0  0  0  0  0  0
    0.9136    2.7528    0.4432 O   0  0  0  0  0  0  0  0  0  0  0  0
   -5.6476    0.8102    1.6978 H   0  0  0  0  0  0  0  0  0  0  0  0
   -4.3253    1.8564    2.3274 H   0  0  0  0  0  0  0  0  0  0  0  0
   -4.3189    1.3249    0.6361 H   0  0  0  0  0  0  0  0  0  0  0  0
   -4.3857   -2.1604    5.3247 H   0  0  0  0  0  0  0  0  0  0  0  0
   -3.1453   -4.1671    6.0230 H   0  0  0  0  0  0  0  0  0  0  0  0
   -1.2615   -5.0020    4.6443 H   0  0  0  0  0  0  0  0  0  0  0  0
   -0.6254   -3.8574    2.5934 H   0  0  0  0  0  0  0  0  0  0  0  0
   -2.3593   -0.8203    1.3455 H   0  0  0  0  0  0  0  0  0  0  0  0
   -1.1683   -1.9478   -2.3068 H   0  0  0  0  0  0  0  0  0  0  0  0
    0.4163   -1.2104   -2.1448 H   0  0  0  0  0  0  0  0  0  0  0  0
    0.7377    0.8440   -3.3368 H   0  0  0  0  0  0  0  0  0  0  0  0
   -0.1824    2.8388   -4.5049 H   0  0  0  0  0  0  0  0  0  0  0  0
   -3.2744   -0.2860   -2.1300 H   0  0  0  0  0  0  0  0  0  0  0  0
   -4.6158    3.9375   -3.5717 H   0  0  0  0  0  0  0  0  0  0  0  0
   -4.8202    2.9958   -5.0656 H   0  0  0  0  0  0  0  0  0  0  0  0
   -0.7994    1.1118   -0.2807 H   0  0  0  0  0  0  0  0  0  0  0  0
   -0.5733    0.3065    1.2581 H   0  0  0  0  0  0  0  0  0  0  0  0
    1.7877   -1.6216   -0.0659 H   0  0  0  0  0  0  0  0  0  0  0  0
    4.1494   -2.3714   -0.3174 H   0  0  0  0  0  0  0  0  0  0  0  0
    6.5434   -1.8258   -0.5221 H   0  0  0  0  0  0  0  0  0  0  0  0
    7.9167    2.3547    0.3078 H   0  0  0  0  0  0  0  0  0  0  0  0
    7.6748    2.2909   -1.4806 H   0  0  0  0  0  0  0  0  0  0  0  0
    9.1867    1.7341   -0.7522 H   0  0  0  0  0  0  0  0  0  0  0  0
    5.6395    2.3681   -0.1428 H   0  0  0  0  0  0  0  0  0  0  0  0
    3.3293    3.0043    0.1813 H   0  0  0  0  0  0  0  0  0  0  0  0
  1  2  1  0
  2  3  1  0
  3  4  2  0
  3  5  1  0
  5  6  2  0
  6  7  1  0
  7  8  2  0
  8  9  1  0
  9 10  2  0
 10 11  1  0
 11 12  1  0
 12 13  2  0
 12 14  1  0
 14 15  1  0
 15 16  1  0
 16 17  2  0
 17 18  1  0
 18 19  2  0
 19 20  1  0
 20 21  2  0
 20 22  1  0
 22 23  1  0
 23 24  1  0
 14 25  1  0
 25 26  1  0
 26 27  2  0
 27 28  1  0
 28 29  2  0
 29 30  1  0
 30 31  2  0
 31 32  1  0
 32 33  1  0
 31 34  1  0
 34 35  2  0
 35 36  1  0
 36 37  1  0
 37 38  2  0
 10  5  1  0
 21 16  1  0
 37 26  1  0
 24 19  1  0
 35 28  1  0
  1 39  1  0
  1 40  1  0
  1 41  1  0
  6 42  1  0
  7 43  1  0
  8 44  1  0
  9 45  1  0
 11 46  1  0
 15 47  1  0
 15 48  1  0
 17 49  1  0
 18 50  1  0
 21 51  1  0
 23 52  1  0
 23 53  1  0
 25 54  1  0
 25 55  1  0
 27 56  1  0
 29 57  1  0
 30 58  1  0
 33 59  1  0
 33 60  1  0
 33 61  1  0
 34 62  1  0
 36 63  1  0
M  END
$$$$
