
     RDKit          3D

 35 37  0  0  0  0  0  0  0  0999 V2000
    6.4191   -0.8948    1.8162 C   0  0  0  0  0  0  0  0  0  0  0  0
    5.1095   -0.3687    1.3040 C   0  0  0  0  0  0  0  0  0  0  0  0
    4.9854    0.9797    0.9360 C   0  0  0  0  0  0  0  0  0  0  0  0
    3.7888    1.4982    0.4237 C   0  0  0  0  0  0  0  0  0  0  0  0
    2.7275    0.6030    0.2887 C   0  0  0  0  0  0  0  0  0  0  0  0
    1.4446    0.7513   -0.1716 N   0  0  0  0  0  0  0  0  0  0  0  0
    0.8040   -0.4666   -0.0859 C   0  0  0  0  0  0  0  0  0  0  0  0
   -0.5439   -0.5818   -0.5252 C   0  0  0  0  0  0  0  0  0  0  0  0
   -0.8656   -1.6033   -1.4734 C   0  0  0  0  0  0  0  0  0  0  0  0
   -1.1541   -2.4143   -2.2534 N   0  0  0  0  0  0  0  0  0  0  0  0
   -1.4724    0.2566   -0.0177 C   0  0  0  0  0  0  0  0  0  0  0  0
   -2.9025    0.2739   -0.3580 C   0  0  0  0  0  0  0  0  0  0  0  0
   -3.7234   -0.8473   -0.1516 C   0  0  0  0  0  0  0  0  0  0  0  0
   -5.0854   -0.8038   -0.4698 C   0  0  0  0  0  0  0  0  0  0  0  0
   -5.6237    0.3695   -0.9811 C   0  0  0  0  0  0  0  0  0  0  0  0
   -6.9454    0.4758   -1.3127 O   0  0  0  0  0  0  0  0  0  0  0  0
   -4.8170    1.4882   -1.1690 C   0  0  0  0  0  0  0  0  0  0  0  0
   -5.3552    2.6415   -1.6647 O   0  0  0  0  0  0  0  0  0  0  0  0
   -3.4638    1.4537   -0.8599 C   0  0  0  0  0  0  0  0  0  0  0  0
    1.6271   -1.3846    0.3810 N   0  0  0  0  0  0  0  0  0  0  0  0
    2.8148   -0.7404    0.6272 C   0  0  0  0  0  0  0  0  0  0  0  0
    4.0208   -1.2430    1.1370 C   0  0  0  0  0  0  0  0  0  0  0  0
    7.0416   -1.2264    0.9796 H   0  0  0  0  0  0  0  0  0  0  0  0
    6.2622   -1.7381    2.4970 H   0  0  0  0  0  0  0  0  0  0  0  0
    6.9578   -0.1226    2.3754 H   0  0  0  0  0  0  0  0  0  0  0  0
    5.8376    1.6490    1.0475 H   0  0  0  0  0  0  0  0  0  0  0  0
    3.7038    2.5427    0.1448 H   0  0  0  0  0  0  0  0  0  0  0  0
    1.0458    1.6072   -0.5287 H   0  0  0  0  0  0  0  0  0  0  0  0
   -1.1962    1.0110    0.7178 H   0  0  0  0  0  0  0  0  0  0  0  0
   -3.3122   -1.7680    0.2592 H   0  0  0  0  0  0  0  0  0  0  0  0
   -5.6965   -1.6865   -0.3103 H   0  0  0  0  0  0  0  0  0  0  0  0
   -7.3650   -0.3894   -1.1633 H   0  0  0  0  0  0  0  0  0  0  0  0
   -6.2986    2.4273   -1.8119 H   0  0  0  0  0  0  0  0  0  0  0  0
   -2.8630    2.3440   -1.0202 H   0  0  0  0  0  0  0  0  0  0  0  0
    4.0934   -2.2947    1.3933 H   0  0  0  0  0  0  0  0  0  0  0  0
  1  2  1  0
  2  3  2  0
  3  4  1  0
  4  5  2  0
  5  6  1  0
  6  7  1  0
  7  8  1  0
  8  9  1  0
  9 10  3  0
  8 11  2  3
 11 12  1  0
 12 13  2  0
 13 14  1  0
 14 15  2  0
 15 16  1  0
 15 17  1  0
 17 18  1  0
 17 19  2  0
  7 20  2  0
 20 21  1  0
 21 22  2  0
 22  2  1  0
 21  5  1  0
 19 12  1  0
  1 23  1  0
  1 24  1  0
  1 25  1  0
  3 26  1  0
  4 27  1  0
  6 28  1  0
 11 29  1  0
 13 30  1  0
 14 31  1  0
 16 32  1  0
 18 33  1  0
 19 34  1  0
 22 35  1  0
M  END
$$$$
