
     RDKit          3D

 53 58  0  0  0  0  0  0  0  0999 V2000
   -2.5062    2.2624    2.4858 O   0  0  0  0  0  0  0  0  0  0  0  0
   -2.0187    1.8718    1.4230 C   0  0  0  0  0  0  0  0  0  0  0  0
   -0.8424    2.6792    0.8343 C   0  0  0  0  0  0  0  0  0  0  0  0
    0.3289    1.8303    0.5497 N   0  0  0  0  0  4  0  0  0  0  0  0
    0.9765    1.6829   -0.6769 C   0  0  0  0  0  0  0  0  0  0  0  0
    1.9524    0.7012   -0.5575 C   0  0  0  0  0  0  0  0  0  0  0  0
    2.8941    0.1813   -1.7031 C   0  0  0  0  0  0  0  0  0  0  0  0
    2.7344    0.6644   -3.0094 C   0  0  0  0  0  0  0  0  0  0  0  0
    3.5635    0.2026   -4.0372 C   0  0  0  0  0  0  0  0  0  0  0  0
    4.5519   -0.7381   -3.7627 C   0  0  0  0  0  0  0  0  0  0  0  0
    5.5689   -1.3056   -5.0255 Cl  0  0  0  0  0  0  0  0  0  0  0  0
    4.7198   -1.2187   -2.4666 C   0  0  0  0  0  0  0  0  0  0  0  0
    3.8917   -0.7594   -1.4362 C   0  0  0  0  0  0  0  0  0  0  0  0
    1.8633    0.3253    0.7708 N   0  0  0  0  0  0  0  0  0  0  0  0
    0.9287    1.0173    1.4163 C   0  0  0  0  0  0  0  0  0  0  0  0
    0.8216    0.6563    2.8496 C   0  0  0  0  0  0  0  0  0  0  0  0
    1.6185   -0.6612    2.9085 C   0  0  0  0  0  0  0  0  0  0  0  0
    2.5099   -0.6514    1.6370 C   0  0  0  0  0  0  0  0  0  0  0  0
   -2.3193    0.6553    0.7793 N   0  0  0  0  0  0  0  0  0  0  0  0
   -2.1759    0.4868   -0.6397 C   0  0  0  0  0  0  0  0  0  0  0  0
   -2.5575    1.5353   -1.4987 C   0  0  0  0  0  0  0  0  0  0  0  0
   -2.4123    1.4245   -2.8838 C   0  0  0  0  0  0  0  0  0  0  0  0
   -1.8952    0.2587   -3.4356 C   0  0  0  0  0  0  0  0  0  0  0  0
   -1.5475   -0.8042   -2.6042 C   0  0  0  0  0  0  0  0  0  0  0  0
   -1.7035   -0.7033   -1.2143 C   0  0  0  0  0  0  0  0  0  0  0  0
   -1.2282   -2.0878   -0.2160 S   0  0  0  0  0  0  0  0  0  0  0  0
   -2.3182   -1.8023    1.1625 C   0  0  0  0  0  0  0  0  0  0  0  0
   -2.6935   -2.9191    1.9252 C   0  0  0  0  0  0  0  0  0  0  0  0
   -3.4776   -2.7652    3.0643 C   0  0  0  0  0  0  0  0  0  0  0  0
   -3.8857   -1.4950    3.4479 C   0  0  0  0  0  0  0  0  0  0  0  0
   -3.5105   -0.3784    2.6935 C   0  0  0  0  0  0  0  0  0  0  0  0
   -2.7229   -0.5047    1.5363 C   0  0  0  0  0  0  0  0  0  0  0  0
   -0.5196    3.4119    1.5837 H   0  0  0  0  0  0  0  0  0  0  0  0
   -1.1449    3.2377   -0.0530 H   0  0  0  0  0  0  0  0  0  0  0  0
    0.6380    2.2878   -1.5010 H   0  0  0  0  0  0  0  0  0  0  0  0
    1.9724    1.3943   -3.2667 H   0  0  0  0  0  0  0  0  0  0  0  0
    3.4334    0.5780   -5.0503 H   0  0  0  0  0  0  0  0  0  0  0  0
    5.4960   -1.9506   -2.2527 H   0  0  0  0  0  0  0  0  0  0  0  0
    4.0650   -1.1503   -0.4419 H   0  0  0  0  0  0  0  0  0  0  0  0
   -0.2241    0.5357    3.1279 H   0  0  0  0  0  0  0  0  0  0  0  0
    1.3020    1.4621    3.4085 H   0  0  0  0  0  0  0  0  0  0  0  0
    2.1963   -0.7692    3.8304 H   0  0  0  0  0  0  0  0  0  0  0  0
    0.9214   -1.5056    2.8474 H   0  0  0  0  0  0  0  0  0  0  0  0
    2.5312   -1.6372    1.1670 H   0  0  0  0  0  0  0  0  0  0  0  0
    3.5213   -0.3040    1.8658 H   0  0  0  0  0  0  0  0  0  0  0  0
   -3.0338    2.4342   -1.1106 H   0  0  0  0  0  0  0  0  0  0  0  0
   -2.7335    2.2363   -3.5349 H   0  0  0  0  0  0  0  0  0  0  0  0
   -1.7958    0.1602   -4.5152 H   0  0  0  0  0  0  0  0  0  0  0  0
   -1.1720   -1.7230   -3.0532 H   0  0  0  0  0  0  0  0  0  0  0  0
   -2.3773   -3.9204    1.6374 H   0  0  0  0  0  0  0  0  0  0  0  0
   -3.7741   -3.6343    3.6474 H   0  0  0  0  0  0  0  0  0  0  0  0
   -4.5112   -1.3677    4.3297 H   0  0  0  0  0  0  0  0  0  0  0  0
   -3.8997    0.5831    3.0178 H   0  0  0  0  0  0  0  0  0  0  0  0
  1  2  2  0
  2  3  1  0
  3  4  1  0
  4  5  1  0
  5  6  2  0
  6  7  1  0
  7  8  2  0
  8  9  1  0
  9 10  2  0
 10 11  1  0
 10 12  1  0
 12 13  2  0
  6 14  1  0
 14 15  1  0
 15 16  1  0
 16 17  1  0
 17 18  1  0
  2 19  1  0
 19 20  1  0
 20 21  2  0
 21 22  1  0
 22 23  2  0
 23 24  1  0
 24 25  2  0
 25 26  1  0
 26 27  1  0
 27 28  2  0
 28 29  1  0
 29 30  2  0
 30 31  1  0
 31 32  2  0
 15  4  2  0
 32 19  1  0
 13  7  1  0
 18 14  1  0
 25 20  1  0
 32 27  1  0
  3 33  1  0
  3 34  1  0
  5 35  1  0
  8 36  1  0
  9 37  1  0
 12 38  1  0
 13 39  1  0
 16 40  1  0
 16 41  1  0
 17 42  1  0
 17 43  1  0
 18 44  1  0
 18 45  1  0
 21 46  1  0
 22 47  1  0
 23 48  1  0
 24 49  1  0
 28 50  1  0
 29 51  1  0
 30 52  1  0
 31 53  1  0
M  CHG  1   4   1
M  END
$$$$
