
     RDKit          3D

 68 71  0  0  0  0  0  0  0  0999 V2000
   -5.4335   -5.7798   -1.1418 C   0  0  0  0  0  0  0  0  0  0  0  0
   -4.4018   -4.6970   -1.0300 C   0  0  0  0  0  0  0  0  0  0  0  0
   -3.2363   -4.7451   -1.7994 C   0  0  0  0  0  0  0  0  0  0  0  0
   -2.2959   -3.7148   -1.7240 C   0  0  0  0  0  0  0  0  0  0  0  0
   -2.5024   -2.6027   -0.8868 C   0  0  0  0  0  0  0  0  0  0  0  0
   -1.4125   -1.5308   -0.8136 C   0  0  0  0  0  0  0  0  0  0  0  0
   -1.8871   -0.0806   -0.4522 C   0  0  0  0  0  0  0  0  0  0  0  0
   -3.0521    0.3047   -0.5590 O   0  0  0  0  0  0  0  0  0  0  0  0
   -0.8654    0.8046   -0.1536 N   0  0  0  0  0  0  0  0  0  0  0  0
   -1.0924    2.2231   -0.0144 C   0  0  0  0  0  0  0  0  0  0  0  0
    0.0669    2.9288    0.6761 C   0  0  0  0  0  0  0  0  0  0  0  0
   -0.1607    4.3895    0.3228 C   0  0  0  0  0  0  0  0  0  0  0  0
   -0.7217    4.3726   -1.0962 C   0  0  0  0  0  0  0  0  0  0  0  0
   -1.1800    2.9386   -1.3627 C   0  0  0  0  0  0  0  0  0  0  0  0
   -0.2239   -2.0029   -0.0442 N   0  0  0  0  0  0  0  0  0  0  0  0
   -0.4406   -2.6174    1.2728 C   0  0  0  0  0  0  0  0  0  0  0  0
   -0.7751   -1.5932    2.2939 C   0  0  0  0  0  0  0  0  0  0  0  0
   -1.9073   -1.3275    3.0362 C   0  0  0  0  0  0  0  0  0  0  0  0
   -1.6040   -0.2028    3.8401 C   0  0  0  0  0  0  0  0  0  0  0  0
   -0.3054    0.1373    3.5469 C   0  0  0  0  0  0  0  0  0  0  0  0
    0.2098   -0.7082    2.6198 O   0  0  0  0  0  0  0  0  0  0  0  0
    1.0298   -1.6426   -0.5146 C   0  0  0  0  0  0  0  0  0  0  0  0
    1.1537   -0.9631   -1.5370 O   0  0  0  0  0  0  0  0  0  0  0  0
    2.2604   -2.1011    0.2518 C   0  0  0  0  0  0  0  0  0  0  0  0
    3.5319   -1.5123   -0.3574 C   0  0  0  0  0  0  0  0  0  0  0  0
    3.6095   -0.0082   -0.1418 C   0  0  0  0  0  0  0  0  0  0  0  0
    3.0561    0.5403    0.8065 O   0  0  0  0  0  0  0  0  0  0  0  0
    4.3908    0.6177   -1.0839 N   0  0  0  0  0  0  0  0  0  0  0  0
    4.6652    1.9669   -1.1211 C   0  0  0  0  0  0  0  0  0  0  0  0
    4.2941    2.9860   -0.2170 C   0  0  0  0  0  0  0  0  0  0  0  0
    4.8517    4.1288   -0.7343 C   0  0  0  0  0  0  0  0  0  0  0  0
    4.8798    5.5385   -0.3076 C   0  0  0  0  0  0  0  0  0  0  0  0
    5.5120    3.8195   -1.8801 O   0  0  0  0  0  0  0  0  0  0  0  0
    5.3970    2.4634   -2.1251 N   0  0  0  0  0  0  0  0  0  0  0  0
   -3.6760   -2.5640   -0.1210 C   0  0  0  0  0  0  0  0  0  0  0  0
   -4.6194   -3.5929   -0.2005 C   0  0  0  0  0  0  0  0  0  0  0  0
   -6.1701   -5.5183   -1.9083 H   0  0  0  0  0  0  0  0  0  0  0  0
   -5.9508   -5.9247   -0.1870 H   0  0  0  0  0  0  0  0  0  0  0  0
   -4.9708   -6.7363   -1.4096 H   0  0  0  0  0  0  0  0  0  0  0  0
   -3.0531   -5.5849   -2.4662 H   0  0  0  0  0  0  0  0  0  0  0  0
   -1.3919   -3.7826   -2.3280 H   0  0  0  0  0  0  0  0  0  0  0  0
   -1.0915   -1.4014   -1.8582 H   0  0  0  0  0  0  0  0  0  0  0  0
    0.0747    0.5095   -0.3946 H   0  0  0  0  0  0  0  0  0  0  0  0
   -2.0202    2.3841    0.5489 H   0  0  0  0  0  0  0  0  0  0  0  0
    1.0311    2.5900    0.2775 H   0  0  0  0  0  0  0  0  0  0  0  0
    0.0756    2.7600    1.7567 H   0  0  0  0  0  0  0  0  0  0  0  0
   -0.8995    4.8278    1.0056 H   0  0  0  0  0  0  0  0  0  0  0  0
    0.7560    4.9822    0.3998 H   0  0  0  0  0  0  0  0  0  0  0  0
   -1.5498    5.0826   -1.1936 H   0  0  0  0  0  0  0  0  0  0  0  0
    0.0449    4.6635   -1.8215 H   0  0  0  0  0  0  0  0  0  0  0  0
   -0.5131    2.4721   -2.0986 H   0  0  0  0  0  0  0  0  0  0  0  0
   -2.1924    2.9035   -1.7779 H   0  0  0  0  0  0  0  0  0  0  0  0
    0.4520   -3.1609    1.5924 H   0  0  0  0  0  0  0  0  0  0  0  0
   -1.2258   -3.3746    1.2048 H   0  0  0  0  0  0  0  0  0  0  0  0
   -2.8379   -1.8738    2.9969 H   0  0  0  0  0  0  0  0  0  0  0  0
   -2.2520    0.3015    4.5435 H   0  0  0  0  0  0  0  0  0  0  0  0
    0.3638    0.9133    3.8900 H   0  0  0  0  0  0  0  0  0  0  0  0
    2.1850   -1.8101    1.3018 H   0  0  0  0  0  0  0  0  0  0  0  0
    2.3103   -3.1925    0.1864 H   0  0  0  0  0  0  0  0  0  0  0  0
    4.4084   -1.9560    0.1282 H   0  0  0  0  0  0  0  0  0  0  0  0
    3.5886   -1.7439   -1.4272 H   0  0  0  0  0  0  0  0  0  0  0  0
    4.7557    0.1051   -1.8747 H   0  0  0  0  0  0  0  0  0  0  0  0
    3.7162    2.9056    0.6923 H   0  0  0  0  0  0  0  0  0  0  0  0
    3.8871    5.9925   -0.4064 H   0  0  0  0  0  0  0  0  0  0  0  0
    5.1883    5.6157    0.7401 H   0  0  0  0  0  0  0  0  0  0  0  0
    5.5833    6.1235   -0.9070 H   0  0  0  0  0  0  0  0  0  0  0  0
   -3.8854   -1.7264    0.5403 H   0  0  0  0  0  0  0  0  0  0  0  0
   -5.5317   -3.5197    0.3885 H   0  0  0  0  0  0  0  0  0  0  0  0
  1  2  1  0
  2  3  2  0
  3  4  1  0
  4  5  2  0
  5  6  1  0
  6  7  1  0
  7  8  2  0
  7  9  1  0
  9 10  1  0
 10 11  1  0
 11 12  1  0
 12 13  1  0
 13 14  1  0
  6 15  1  0
 15 16  1  0
 16 17  1  0
 17 18  2  0
 18 19  1  0
 19 20  2  0
 20 21  1  0
 15 22  1  0
 22 23  2  0
 22 24  1  0
 24 25  1  0
 25 26  1  0
 26 27  2  0
 26 28  1  0
 28 29  1  0
 29 30  1  0
 30 31  2  0
 31 32  1  0
 31 33  1  0
 33 34  1  0
  5 35  1  0
 35 36  2  0
 36  2  1  0
 14 10  1  0
 21 17  1  0
 34 29  2  0
  1 37  1  0
  1 38  1  0
  1 39  1  0
  3 40  1  0
  4 41  1  0
  6 42  1  0
  9 43  1  0
 10 44  1  0
 11 45  1  0
 11 46  1  0
 12 47  1  0
 12 48  1  0
 13 49  1  0
 13 50  1  0
 14 51  1  0
 14 52  1  0
 16 53  1  0
 16 54  1  0
 18 55  1  0
 19 56  1  0
 20 57  1  0
 24 58  1  0
 24 59  1  0
 25 60  1  0
 25 61  1  0
 28 62  1  0
 30 63  1  0
 32 64  1  0
 32 65  1  0
 32 66  1  0
 35 67  1  0
 36 68  1  0
M  END
$$$$
