
     RDKit          3D

 34 35  0  0  0  0  0  0  0  0999 V2000
    2.3540    1.4107    3.5701 C   0  0  0  0  0  0  0  0  0  0  0  0
    2.0580    1.0249    2.1372 C   0  0  0  0  0  0  0  0  0  0  0  0
    0.8188    0.7592    1.8398 N   0  0  0  0  0  0  0  0  0  0  0  0
    0.5086    0.2964    0.5935 N   0  0  0  0  0  0  0  0  0  0  0  0
   -0.8237    0.0616    0.2534 C   0  0  0  0  0  0  0  0  0  0  0  0
   -1.7772    0.3424    0.9707 O   0  0  0  0  0  0  0  0  0  0  0  0
   -0.9284   -0.5462   -1.1339 C   0  0  0  0  0  0  0  0  0  0  0  0
   -2.3316   -0.9800   -1.5556 C   0  0  0  0  0  0  0  0  0  0  0  0
   -2.2741   -1.5169   -2.9917 C   0  0  0  0  0  0  0  0  0  0  0  0
   -3.2458    0.1213   -1.5496 O   0  0  0  0  0  0  0  0  0  0  0  0
   -4.4484   -0.4122   -0.9957 C   0  0  0  0  0  0  0  0  0  0  0  0
   -3.9894   -1.5351   -0.1016 C   0  0  0  0  0  0  0  0  0  0  0  0
   -2.8211   -2.0539   -0.7407 O   0  0  0  0  0  0  0  0  0  0  0  0
    3.1712    0.9874    1.2036 C   0  0  0  0  0  0  0  0  0  0  0  0
    3.2786    1.6062   -0.0281 C   0  0  0  0  0  0  0  0  0  0  0  0
    4.5235    1.3332   -0.6654 C   0  0  0  0  0  0  0  0  0  0  0  0
    5.3266    0.5204    0.1028 C   0  0  0  0  0  0  0  0  0  0  0  0
    4.5825    0.0971    1.5832 S   0  0  0  0  0  0  0  0  0  0  0  0
    1.4473    1.7841    4.0555 H   0  0  0  0  0  0  0  0  0  0  0  0
    2.7060    0.5322    4.1186 H   0  0  0  0  0  0  0  0  0  0  0  0
    3.1180    2.1926    3.6076 H   0  0  0  0  0  0  0  0  0  0  0  0
    1.2542   -0.0405   -0.0054 H   0  0  0  0  0  0  0  0  0  0  0  0
   -0.5519    0.2121   -1.8325 H   0  0  0  0  0  0  0  0  0  0  0  0
   -0.2568   -1.4140   -1.1603 H   0  0  0  0  0  0  0  0  0  0  0  0
   -1.9486   -0.7418   -3.6938 H   0  0  0  0  0  0  0  0  0  0  0  0
   -3.2641   -1.8541   -3.3205 H   0  0  0  0  0  0  0  0  0  0  0  0
   -1.6015   -2.3780   -3.0683 H   0  0  0  0  0  0  0  0  0  0  0  0
   -5.0634   -0.7884   -1.8204 H   0  0  0  0  0  0  0  0  0  0  0  0
   -5.0069    0.3621   -0.4637 H   0  0  0  0  0  0  0  0  0  0  0  0
   -3.7138   -1.1782    0.8943 H   0  0  0  0  0  0  0  0  0  0  0  0
   -4.7414   -2.3207    0.0121 H   0  0  0  0  0  0  0  0  0  0  0  0
    2.5021    2.2376   -0.4463 H   0  0  0  0  0  0  0  0  0  0  0  0
    4.8189    1.7197   -1.6338 H   0  0  0  0  0  0  0  0  0  0  0  0
    6.3194    0.1588   -0.1295 H   0  0  0  0  0  0  0  0  0  0  0  0
  1  2  1  0
  2  3  2  3
  3  4  1  0
  4  5  1  0
  5  6  2  0
  5  7  1  0
  7  8  1  0
  8  9  1  0
  8 10  1  0
 10 11  1  0
 11 12  1  0
 12 13  1  0
  2 14  1  0
 14 15  2  0
 15 16  1  0
 16 17  2  0
 17 18  1  0
 13  8  1  0
 18 14  1  0
  1 19  1  0
  1 20  1  0
  1 21  1  0
  4 22  1  0
  7 23  1  0
  7 24  1  0
  9 25  1  0
  9 26  1  0
  9 27  1  0
 11 28  1  0
 11 29  1  0
 12 30  1  0
 12 31  1  0
 15 32  1  0
 16 33  1  0
 17 34  1  0
M  END
$$$$
