
     RDKit          3D

 46 48  0  0  0  0  0  0  0  0999 V2000
   -1.4126    3.0653   -1.7503 C   0  0  0  0  0  0  0  0  0  0  0  0
   -2.3527    2.3490   -1.1166 C   0  0  0  0  0  0  0  0  0  0  0  0
   -2.5696    0.8746   -1.3063 C   0  0  0  0  0  0  0  0  0  0  0  0
   -2.3941    0.1278   -0.0743 N   0  0  0  0  0  0  0  0  0  0  0  0
   -1.2149   -0.3421    0.4458 C   0  0  0  0  0  0  0  0  0  0  0  0
    0.3460   -0.0204   -0.2254 S   0  0  0  0  0  0  0  0  0  0  0  0
    1.4042   -0.7838    1.0405 C   0  0  0  0  0  0  0  0  0  0  0  0
    2.8666   -0.6685    0.6819 C   0  0  0  0  0  0  0  0  0  0  0  0
    3.6003    0.4740    1.0355 C   0  0  0  0  0  0  0  0  0  0  0  0
    4.9557    0.5805    0.7069 C   0  0  0  0  0  0  0  0  0  0  0  0
    5.5961   -0.4559    0.0143 C   0  0  0  0  0  0  0  0  0  0  0  0
    7.0354   -0.3988   -0.3615 C   0  0  0  0  0  0  0  0  0  0  0  0
    7.6008   -1.2718   -1.0023 O   0  0  0  0  0  0  0  0  0  0  0  0
    7.6091    0.7385    0.1053 O   0  0  0  0  0  0  0  0  0  0  0  0
    8.9919    0.8649   -0.2284 C   0  0  0  0  0  0  0  0  0  0  0  0
    4.8626   -1.5915   -0.3527 C   0  0  0  0  0  0  0  0  0  0  0  0
    3.5084   -1.6951   -0.0238 C   0  0  0  0  0  0  0  0  0  0  0  0
   -1.4547   -1.0813    1.5024 N   0  0  0  0  0  0  0  0  0  0  0  0
   -2.8123   -1.1222    1.6816 N   0  0  0  0  0  0  0  0  0  0  0  0
   -3.3775   -0.3817    0.7462 C   0  0  0  0  0  0  0  0  0  0  0  0
   -4.7947   -0.2338    0.6248 C   0  0  0  0  0  0  0  0  0  0  0  0
   -5.5745    1.2877    0.5123 S   0  0  0  0  0  0  0  0  0  0  0  0
   -7.0982    0.5071    0.4677 C   0  0  0  0  0  0  0  0  0  0  0  0
   -8.2395    1.2044    0.3643 N   0  0  0  0  0  0  0  0  0  0  0  0
   -7.0620   -0.7989    0.5193 N   0  0  0  0  0  0  0  0  0  0  0  0
   -5.7515   -1.2385    0.6513 C   0  0  0  0  0  0  0  0  0  0  0  0
   -5.5099   -2.7002    0.7914 C   0  0  0  0  0  0  0  0  0  0  0  0
   -0.7210    2.6115   -2.4546 H   0  0  0  0  0  0  0  0  0  0  0  0
   -1.3058    4.1306   -1.5645 H   0  0  0  0  0  0  0  0  0  0  0  0
   -3.0102    2.8650   -0.4203 H   0  0  0  0  0  0  0  0  0  0  0  0
   -3.5794    0.6910   -1.6857 H   0  0  0  0  0  0  0  0  0  0  0  0
   -1.8891    0.4530   -2.0556 H   0  0  0  0  0  0  0  0  0  0  0  0
    1.2265   -0.3011    2.0087 H   0  0  0  0  0  0  0  0  0  0  0  0
    1.1390   -1.8413    1.1553 H   0  0  0  0  0  0  0  0  0  0  0  0
    3.1183    1.2927    1.5701 H   0  0  0  0  0  0  0  0  0  0  0  0
    5.4973    1.4804    0.9941 H   0  0  0  0  0  0  0  0  0  0  0  0
    9.5751    0.0728    0.2530 H   0  0  0  0  0  0  0  0  0  0  0  0
    9.1303    0.8426   -1.3128 H   0  0  0  0  0  0  0  0  0  0  0  0
    9.3438    1.8319    0.1428 H   0  0  0  0  0  0  0  0  0  0  0  0
    5.3435   -2.4018   -0.8986 H   0  0  0  0  0  0  0  0  0  0  0  0
    2.9570   -2.5855   -0.3224 H   0  0  0  0  0  0  0  0  0  0  0  0
   -9.0473    0.6703    0.0591 H   0  0  0  0  0  0  0  0  0  0  0  0
   -8.1916    2.1405   -0.0196 H   0  0  0  0  0  0  0  0  0  0  0  0
   -6.4349   -3.2657    0.6476 H   0  0  0  0  0  0  0  0  0  0  0  0
   -5.1251   -2.9300    1.7893 H   0  0  0  0  0  0  0  0  0  0  0  0
   -4.7850   -3.0462    0.0477 H   0  0  0  0  0  0  0  0  0  0  0  0
  1  2  2  0
  2  3  1  0
  3  4  1  0
  4  5  1  0
  5  6  1  0
  6  7  1  0
  7  8  1  0
  8  9  2  0
  9 10  1  0
 10 11  2  0
 11 12  1  0
 12 13  2  0
 12 14  1  0
 14 15  1  0
 11 16  1  0
 16 17  2  0
  5 18  2  0
 18 19  1  0
 19 20  2  0
 20 21  1  0
 21 22  1  0
 22 23  1  0
 23 24  1  0
 23 25  2  0
 25 26  1  0
 26 27  1  0
 20  4  1  0
 26 21  2  0
 17  8  1  0
  1 28  1  0
  1 29  1  0
  2 30  1  0
  3 31  1  0
  3 32  1  0
  7 33  1  0
  7 34  1  0
  9 35  1  0
 10 36  1  0
 15 37  1  0
 15 38  1  0
 15 39  1  0
 16 40  1  0
 17 41  1  0
 24 42  1  0
 24 43  1  0
 27 44  1  0
 27 45  1  0
 27 46  1  0
M  END
$$$$
