
     RDKit          3D

 39 40  0  0  0  0  0  0  0  0999 V2000
   -1.8570   -0.8782   -2.4799 C   0  0  0  0  0  0  0  0  0  0  0  0
   -2.5542   -0.3482   -1.2429 C   0  0  0  0  0  0  0  0  0  0  0  0
   -1.9099   -0.1466   -0.0749 C   0  0  0  0  0  0  0  0  0  0  0  0
   -0.4366   -0.3238    0.0999 C   0  0  0  0  0  0  0  0  0  0  0  0
    0.4308   -0.0593   -0.8273 N   0  0  0  0  0  0  0  0  0  0  0  0
    1.7621   -0.2008   -0.5296 N   0  0  0  0  0  0  0  0  0  0  0  0
    2.3611    0.1469    0.6741 C   0  0  0  0  0  0  0  0  0  0  0  0
    1.7568    0.4835    1.6890 O   0  0  0  0  0  0  0  0  0  0  0  0
    3.8604    0.1059    0.7051 C   0  0  0  0  0  0  0  0  0  0  0  0
    4.4774    0.2851    1.9556 C   0  0  0  0  0  0  0  0  0  0  0  0
    5.8667    0.2587    2.0675 C   0  0  0  0  0  0  0  0  0  0  0  0
    6.6785    0.4979    3.7578 Br  0  0  0  0  0  0  0  0  0  0  0  0
    6.6636    0.0567    0.9437 C   0  0  0  0  0  0  0  0  0  0  0  0
    6.0672   -0.1185   -0.3053 C   0  0  0  0  0  0  0  0  0  0  0  0
    4.6737   -0.0925   -0.4237 C   0  0  0  0  0  0  0  0  0  0  0  0
    4.1195   -0.2559   -1.6668 O   0  0  0  0  0  0  0  0  0  0  0  0
   -2.7015    0.2184    1.1253 C   0  0  0  0  0  0  0  0  0  0  0  0
   -2.1810    0.1826    2.2396 O   0  0  0  0  0  0  0  0  0  0  0  0
   -4.0188    0.5689    0.9215 N   0  0  0  0  0  0  0  0  0  0  0  0
   -4.7933    0.9922    2.0729 C   0  0  0  0  0  0  0  0  0  0  0  0
   -4.6992    0.3542   -0.2648 C   0  0  0  0  0  0  0  0  0  0  0  0
   -5.9163    0.5293   -0.3529 O   0  0  0  0  0  0  0  0  0  0  0  0
   -3.9287   -0.0919   -1.3413 N   0  0  0  0  0  0  0  0  0  0  0  0
   -4.6308   -0.2832   -2.6103 C   0  0  0  0  0  0  0  0  0  0  0  0
   -1.6168   -0.0578   -3.1635 H   0  0  0  0  0  0  0  0  0  0  0  0
   -2.4779   -1.6063   -3.0118 H   0  0  0  0  0  0  0  0  0  0  0  0
   -0.9410   -1.4301   -2.2557 H   0  0  0  0  0  0  0  0  0  0  0  0
   -0.1427   -0.6978    1.0959 H   0  0  0  0  0  0  0  0  0  0  0  0
    2.3729   -0.2249   -1.3467 H   0  0  0  0  0  0  0  0  0  0  0  0
    3.8671    0.4446    2.8434 H   0  0  0  0  0  0  0  0  0  0  0  0
    7.7474    0.0363    1.0307 H   0  0  0  0  0  0  0  0  0  0  0  0
    6.7055   -0.2718   -1.1713 H   0  0  0  0  0  0  0  0  0  0  0  0
    4.8330   -0.3481   -2.3244 H   0  0  0  0  0  0  0  0  0  0  0  0
   -5.5783    1.6937    1.7744 H   0  0  0  0  0  0  0  0  0  0  0  0
   -5.2599    0.1080    2.5189 H   0  0  0  0  0  0  0  0  0  0  0  0
   -4.1585    1.4757    2.8213 H   0  0  0  0  0  0  0  0  0  0  0  0
   -5.6352    0.1494   -2.5987 H   0  0  0  0  0  0  0  0  0  0  0  0
   -4.0788    0.2036   -3.4203 H   0  0  0  0  0  0  0  0  0  0  0  0
   -4.7274   -1.3560   -2.8039 H   0  0  0  0  0  0  0  0  0  0  0  0
  1  2  1  0
  2  3  2  0
  3  4  1  0
  4  5  2  3
  5  6  1  0
  6  7  1  0
  7  8  2  0
  7  9  1  0
  9 10  2  0
 10 11  1  0
 11 12  1  0
 11 13  2  0
 13 14  1  0
 14 15  2  0
 15 16  1  0
  3 17  1  0
 17 18  2  0
 17 19  1  0
 19 20  1  0
 19 21  1  0
 21 22  2  0
 21 23  1  0
 23 24  1  0
 23  2  1  0
 15  9  1  0
  1 25  1  0
  1 26  1  0
  1 27  1  0
  4 28  1  0
  6 29  1  0
 10 30  1  0
 13 31  1  0
 14 32  1  0
 16 33  1  0
 20 34  1  0
 20 35  1  0
 20 36  1  0
 24 37  1  0
 24 38  1  0
 24 39  1  0
M  END
$$$$
