
     RDKit          3D

 54 57  0  0  0  0  0  0  0  0999 V2000
   -1.1603   -3.9721   -2.0859 O   0  0  0  0  0  0  0  0  0  0  0  0
   -1.2495   -3.2690   -1.0829 C   0  0  0  0  0  0  0  0  0  0  0  0
   -2.4181   -3.4479   -0.1041 C   0  0  0  0  0  0  0  0  0  0  0  0
   -3.3890   -2.4005   -0.1464 O   0  0  0  0  0  0  0  0  0  0  0  0
   -3.0620   -1.2759    0.5333 C   0  0  0  0  0  0  0  0  0  0  0  0
   -2.0051   -1.0974    1.1213 O   0  0  0  0  0  0  0  0  0  0  0  0
   -4.1533   -0.2691    0.4599 C   0  0  0  0  0  0  0  0  0  0  0  0
   -5.3311   -0.4909   -0.2697 C   0  0  0  0  0  0  0  0  0  0  0  0
   -6.3299    0.4864   -0.3051 C   0  0  0  0  0  0  0  0  0  0  0  0
   -6.1571    1.6827    0.3874 C   0  0  0  0  0  0  0  0  0  0  0  0
   -4.9731    1.9187    1.0928 C   0  0  0  0  0  0  0  0  0  0  0  0
   -3.9795    0.9422    1.1426 C   0  0  0  0  0  0  0  0  0  0  0  0
   -4.7225    3.0857    1.7679 O   0  0  0  0  0  0  0  0  0  0  0  0
   -5.6238    4.1247    1.3674 C   0  0  0  0  0  0  0  0  0  0  0  0
   -7.0515    3.6058    1.3203 C   0  0  0  0  0  0  0  0  0  0  0  0
   -7.1871    2.5849    0.3242 O   0  0  0  0  0  0  0  0  0  0  0  0
   -0.3602   -2.2840   -0.6889 N   0  0  0  0  0  0  0  0  0  0  0  0
    0.8129   -1.8618   -1.3431 C   0  0  0  0  0  0  0  0  0  0  0  0
    1.3047   -2.4389   -2.5175 C   0  0  0  0  0  0  0  0  0  0  0  0
    2.4776   -1.9605   -3.1137 C   0  0  0  0  0  0  0  0  0  0  0  0
    3.1741   -0.9022   -2.5381 C   0  0  0  0  0  0  0  0  0  0  0  0
    2.6893   -0.3309   -1.3607 C   0  0  0  0  0  0  0  0  0  0  0  0
    3.5857    1.0104   -0.6263 S   0  0  0  0  0  6  0  0  0  0  0  0
    2.9738    1.3379    0.6445 O   0  0  0  0  0  0  0  0  0  0  0  0
    3.7796    2.0121   -1.6518 O   0  0  0  0  0  0  0  0  0  0  0  0
    5.0989    0.3034   -0.2821 N   0  0  0  0  0  0  0  0  0  0  0  0
    5.0937   -0.7773    0.7590 C   0  0  0  0  0  0  0  0  0  0  0  0
    5.6977   -0.2779    2.0747 C   0  0  0  0  0  0  0  0  0  0  0  0
    7.0676    0.1282    1.9427 O   0  0  0  0  0  0  0  0  0  0  0  0
    7.3782    0.6647    0.6486 C   0  0  0  0  0  0  0  0  0  0  0  0
    6.1755    1.3187   -0.0370 C   0  0  0  0  0  0  0  0  0  0  0  0
    1.5140   -0.7986   -0.7637 C   0  0  0  0  0  0  0  0  0  0  0  0
   -2.9361   -4.3764   -0.3695 H   0  0  0  0  0  0  0  0  0  0  0  0
   -2.0333   -3.5924    0.9134 H   0  0  0  0  0  0  0  0  0  0  0  0
   -5.4884   -1.4184   -0.8154 H   0  0  0  0  0  0  0  0  0  0  0  0
   -7.2451    0.3111   -0.8649 H   0  0  0  0  0  0  0  0  0  0  0  0
   -3.0689    1.1364    1.7053 H   0  0  0  0  0  0  0  0  0  0  0  0
   -5.5396    4.9363    2.0969 H   0  0  0  0  0  0  0  0  0  0  0  0
   -5.3028    4.5077    0.3907 H   0  0  0  0  0  0  0  0  0  0  0  0
   -7.3598    3.1909    2.2879 H   0  0  0  0  0  0  0  0  0  0  0  0
   -7.7404    4.4157    1.0609 H   0  0  0  0  0  0  0  0  0  0  0  0
   -0.6193   -1.7625    0.1514 H   0  0  0  0  0  0  0  0  0  0  0  0
    0.7943   -3.2659   -3.0024 H   0  0  0  0  0  0  0  0  0  0  0  0
    2.8396   -2.4177   -4.0318 H   0  0  0  0  0  0  0  0  0  0  0  0
    4.0823   -0.5268   -3.0042 H   0  0  0  0  0  0  0  0  0  0  0  0
    4.0848   -1.1607    0.9360 H   0  0  0  0  0  0  0  0  0  0  0  0
    5.6884   -1.6082    0.3609 H   0  0  0  0  0  0  0  0  0  0  0  0
    5.6649   -1.0705    2.8288 H   0  0  0  0  0  0  0  0  0  0  0  0
    5.1294    0.5723    2.4685 H   0  0  0  0  0  0  0  0  0  0  0  0
    8.1820    1.3956    0.7816 H   0  0  0  0  0  0  0  0  0  0  0  0
    7.7757   -0.1519    0.0345 H   0  0  0  0  0  0  0  0  0  0  0  0
    5.7881    2.1231    0.5992 H   0  0  0  0  0  0  0  0  0  0  0  0
    6.4866    1.7400   -0.9984 H   0  0  0  0  0  0  0  0  0  0  0  0
    1.1475   -0.3296    0.1473 H   0  0  0  0  0  0  0  0  0  0  0  0
  1  2  2  0
  2  3  1  0
  3  4  1  0
  4  5  1  0
  5  6  2  0
  5  7  1  0
  7  8  2  0
  8  9  1  0
  9 10  2  0
 10 11  1  0
 11 12  2  0
 11 13  1  0
 13 14  1  0
 14 15  1  0
 15 16  1  0
  2 17  1  0
 17 18  1  0
 18 19  2  0
 19 20  1  0
 20 21  2  0
 21 22  1  0
 22 23  1  0
 23 24  2  0
 23 25  2  0
 23 26  1  0
 26 27  1  0
 27 28  1  0
 28 29  1  0
 29 30  1  0
 30 31  1  0
 22 32  2  0
 12  7  1  0
 32 18  1  0
 16 10  1  0
 31 26  1  0
  3 33  1  0
  3 34  1  0
  8 35  1  0
  9 36  1  0
 12 37  1  0
 14 38  1  0
 14 39  1  0
 15 40  1  0
 15 41  1  0
 17 42  1  0
 19 43  1  0
 20 44  1  0
 21 45  1  0
 27 46  1  0
 27 47  1  0
 28 48  1  0
 28 49  1  0
 30 50  1  0
 30 51  1  0
 31 52  1  0
 31 53  1  0
 32 54  1  0
M  END
$$$$
