
     RDKit          3D

 31 33  0  0  0  0  0  0  0  0999 V2000
   -1.0840   -2.7722   -4.6052 C   0  0  0  0  0  0  0  0  0  0  0  0
   -1.6229   -2.7361   -3.2661 N   0  0  0  0  0  0  0  0  0  0  0  0
   -2.6611   -3.4716   -2.7843 C   0  0  0  0  0  0  0  0  0  0  0  0
   -2.8010   -3.0928   -1.4741 C   0  0  0  0  0  0  0  0  0  0  0  0
   -4.0712   -3.7576   -0.2723 Br  0  0  0  0  0  0  0  0  0  0  0  0
   -1.8060   -2.1176   -1.2314 C   0  0  0  0  0  0  0  0  0  0  0  0
   -1.4962   -1.3687    0.0044 C   0  0  0  0  0  0  0  0  0  0  0  0
   -2.1264   -1.5294    1.0410 O   0  0  0  0  0  0  0  0  0  0  0  0
   -0.4326   -0.5060   -0.2044 N   0  0  0  0  0  0  0  0  0  0  0  0
    0.1577    0.3628    0.6958 C   0  0  0  0  0  0  0  0  0  0  0  0
   -0.4058    0.4840    2.3167 S   0  0  0  0  0  0  0  0  0  0  0  0
    0.7437    1.6401    2.6691 C   0  0  0  0  0  0  0  0  0  0  0  0
    1.5552    1.9561    1.6168 C   0  0  0  0  0  0  0  0  0  0  0  0
    1.2279    1.2194    0.4559 C   0  0  0  0  0  0  0  0  0  0  0  0
    1.9015    1.3320   -0.8010 C   0  0  0  0  0  0  0  0  0  0  0  0
    2.4412    1.4158   -1.8250 N   0  0  0  0  0  0  0  0  0  0  0  0
    2.5534    2.9851    2.0028 C   0  0  0  0  0  0  0  0  0  0  0  0
    1.9904    3.4975    3.3666 C   0  0  0  0  0  0  0  0  0  0  0  0
    1.0454    2.3831    3.9140 C   0  0  0  0  0  0  0  0  0  0  0  0
   -1.0783   -1.9042   -2.3563 N   0  0  0  0  0  0  0  0  0  0  0  0
   -0.0335   -3.0676   -4.5451 H   0  0  0  0  0  0  0  0  0  0  0  0
   -1.1797   -1.7747   -5.0413 H   0  0  0  0  0  0  0  0  0  0  0  0
   -1.6425   -3.4968   -5.2028 H   0  0  0  0  0  0  0  0  0  0  0  0
   -3.2000   -4.1832   -3.3939 H   0  0  0  0  0  0  0  0  0  0  0  0
   -0.0659   -0.5457   -1.1552 H   0  0  0  0  0  0  0  0  0  0  0  0
    3.5389    2.5289    2.1430 H   0  0  0  0  0  0  0  0  0  0  0  0
    2.6286    3.7986    1.2760 H   0  0  0  0  0  0  0  0  0  0  0  0
    1.4021    4.4076    3.1888 H   0  0  0  0  0  0  0  0  0  0  0  0
    2.7850    3.7538    4.0742 H   0  0  0  0  0  0  0  0  0  0  0  0
    0.1596    2.8129    4.3894 H   0  0  0  0  0  0  0  0  0  0  0  0
    1.5764    1.7465    4.6290 H   0  0  0  0  0  0  0  0  0  0  0  0
  1  2  1  0
  2  3  1  0
  3  4  2  0
  4  5  1  0
  4  6  1  0
  6  7  1  0
  7  8  2  0
  7  9  1  0
  9 10  1  0
 10 11  1  0
 11 12  1  0
 12 13  2  0
 13 14  1  0
 14 15  1  0
 15 16  3  0
 13 17  1  0
 17 18  1  0
 18 19  1  0
  6 20  2  0
 20  2  1  0
 14 10  2  0
 19 12  1  0
  1 21  1  0
  1 22  1  0
  1 23  1  0
  3 24  1  0
  9 25  1  0
 17 26  1  0
 17 27  1  0
 18 28  1  0
 18 29  1  0
 19 30  1  0
 19 31  1  0
M  END
$$$$
