
     RDKit          3D

 63 65  0  0  0  0  0  0  0  0999 V2000
    3.1334    7.0954    0.1636 C   0  0  0  0  0  0  0  0  0  0  0  0
    2.9911    5.6997    0.3937 O   0  0  0  0  0  0  0  0  0  0  0  0
    2.1018    5.3190    1.3600 C   0  0  0  0  0  0  0  0  0  0  0  0
    1.3023    6.1707    2.1214 C   0  0  0  0  0  0  0  0  0  0  0  0
    0.4284    5.6444    3.0763 C   0  0  0  0  0  0  0  0  0  0  0  0
    0.3460    4.2658    3.2732 C   0  0  0  0  0  0  0  0  0  0  0  0
    1.1380    3.3957    2.5138 C   0  0  0  0  0  0  0  0  0  0  0  0
    1.0424    1.8996    2.6987 C   0  0  0  0  0  0  0  0  0  0  0  0
    0.4287    1.2401    1.5424 N   0  0  0  0  0  0  0  0  0  0  0  0
   -1.0334    1.3628    1.4075 C   0  0  0  0  0  0  0  0  0  0  0  0
   -1.8244    0.2410    2.0948 C   0  0  0  0  0  0  0  0  0  0  0  0
   -3.0525    0.2483    2.1241 O   0  0  0  0  0  0  0  0  0  0  0  0
   -1.0661   -0.7776    2.6259 N   0  0  0  0  0  0  0  0  0  0  0  0
   -1.6518   -1.9683    3.2111 C   0  0  0  0  0  0  0  0  0  0  0  0
   -1.6359   -3.1769    2.2591 C   0  0  0  0  0  0  0  0  0  0  0  0
   -2.5719   -3.0579    1.0640 C   0  0  0  0  0  0  0  0  0  0  0  0
   -3.8555   -3.6438    1.5932 C   0  0  0  0  0  0  0  0  0  0  0  0
   -3.3441   -4.7614    2.4737 C   0  0  0  0  0  0  0  0  0  0  0  0
   -2.0745   -4.3387    2.9941 O   0  0  0  0  0  0  0  0  0  0  0  0
    1.2468    0.5900    0.6271 C   0  0  0  0  0  0  0  0  0  0  0  0
    2.4621    0.4895    0.7964 O   0  0  0  0  0  0  0  0  0  0  0  0
    0.5798   -0.0271   -0.5885 C   0  0  0  0  0  0  0  0  0  0  0  0
    1.5915   -0.7407   -1.4818 C   0  0  0  0  0  0  0  0  0  0  0  0
    0.9165   -1.4209   -2.6554 C   0  0  0  0  0  0  0  0  0  0  0  0
   -0.3035   -1.5130   -2.7446 O   0  0  0  0  0  0  0  0  0  0  0  0
    1.8309   -1.9147   -3.5565 N   0  0  0  0  0  0  0  0  0  0  0  0
    1.5205   -2.5787   -4.7217 C   0  0  0  0  0  0  0  0  0  0  0  0
    0.2580   -2.9178   -5.2549 C   0  0  0  0  0  0  0  0  0  0  0  0
    0.5408   -3.5654   -6.4312 C   0  0  0  0  0  0  0  0  0  0  0  0
   -0.2781   -4.1758   -7.4917 C   0  0  0  0  0  0  0  0  0  0  0  0
    1.8877   -3.6107   -6.5987 O   0  0  0  0  0  0  0  0  0  0  0  0
    2.5057   -2.9913   -5.5274 N   0  0  0  0  0  0  0  0  0  0  0  0
    2.0167    3.9385    1.5629 C   0  0  0  0  0  0  0  0  0  0  0  0
    3.8784    7.2289   -0.6265 H   0  0  0  0  0  0  0  0  0  0  0  0
    2.1941    7.5358   -0.1871 H   0  0  0  0  0  0  0  0  0  0  0  0
    3.5013    7.6079    1.0581 H   0  0  0  0  0  0  0  0  0  0  0  0
    1.3337    7.2476    1.9973 H   0  0  0  0  0  0  0  0  0  0  0  0
   -0.1928    6.3140    3.6667 H   0  0  0  0  0  0  0  0  0  0  0  0
   -0.3447    3.8791    4.0197 H   0  0  0  0  0  0  0  0  0  0  0  0
    2.0474    1.5044    2.8873 H   0  0  0  0  0  0  0  0  0  0  0  0
    0.4461    1.6527    3.5856 H   0  0  0  0  0  0  0  0  0  0  0  0
   -1.3170    1.3607    0.3522 H   0  0  0  0  0  0  0  0  0  0  0  0
   -1.3580    2.3158    1.8368 H   0  0  0  0  0  0  0  0  0  0  0  0
   -0.0569   -0.7086    2.5680 H   0  0  0  0  0  0  0  0  0  0  0  0
   -2.6695   -1.7586    3.5592 H   0  0  0  0  0  0  0  0  0  0  0  0
   -1.0628   -2.2039    4.1052 H   0  0  0  0  0  0  0  0  0  0  0  0
   -0.6079   -3.3540    1.9212 H   0  0  0  0  0  0  0  0  0  0  0  0
   -2.1998   -3.6909    0.2487 H   0  0  0  0  0  0  0  0  0  0  0  0
   -2.6838   -2.0470    0.6680 H   0  0  0  0  0  0  0  0  0  0  0  0
   -4.5327   -3.9956    0.8102 H   0  0  0  0  0  0  0  0  0  0  0  0
   -4.3877   -2.8995    2.1966 H   0  0  0  0  0  0  0  0  0  0  0  0
   -3.1777   -5.6759    1.8948 H   0  0  0  0  0  0  0  0  0  0  0  0
   -4.0233   -4.9903    3.2993 H   0  0  0  0  0  0  0  0  0  0  0  0
   -0.1818   -0.7376   -0.2496 H   0  0  0  0  0  0  0  0  0  0  0  0
    0.0938    0.7657   -1.1673 H   0  0  0  0  0  0  0  0  0  0  0  0
    2.3263   -0.0201   -1.8627 H   0  0  0  0  0  0  0  0  0  0  0  0
    2.1313   -1.5072   -0.9116 H   0  0  0  0  0  0  0  0  0  0  0  0
    2.8230   -1.7986   -3.4033 H   0  0  0  0  0  0  0  0  0  0  0  0
   -0.7210   -2.7199   -4.8472 H   0  0  0  0  0  0  0  0  0  0  0  0
    0.1905   -5.0879   -7.8726 H   0  0  0  0  0  0  0  0  0  0  0  0
   -0.4016   -3.4778   -8.3251 H   0  0  0  0  0  0  0  0  0  0  0  0
   -1.2716   -4.4377   -7.1147 H   0  0  0  0  0  0  0  0  0  0  0  0
    2.6472    3.2790    0.9682 H   0  0  0  0  0  0  0  0  0  0  0  0
  1  2  1  0
  2  3  1  0
  3  4  2  0
  4  5  1  0
  5  6  2  0
  6  7  1  0
  7  8  1  0
  8  9  1  0
  9 10  1  0
 10 11  1  0
 11 12  2  0
 11 13  1  0
 13 14  1  0
 14 15  1  0
 15 16  1  0
 16 17  1  0
 17 18  1  0
 18 19  1  0
  9 20  1  0
 20 21  2  0
 20 22  1  0
 22 23  1  0
 23 24  1  0
 24 25  2  0
 24 26  1  0
 26 27  1  0
 27 28  1  0
 28 29  2  0
 29 30  1  0
 29 31  1  0
 31 32  1  0
  7 33  2  0
 33  3  1  0
 19 15  1  0
 32 27  2  0
  1 34  1  0
  1 35  1  0
  1 36  1  0
  4 37  1  0
  5 38  1  0
  6 39  1  0
  8 40  1  0
  8 41  1  0
 10 42  1  0
 10 43  1  0
 13 44  1  0
 14 45  1  0
 14 46  1  0
 15 47  1  0
 16 48  1  0
 16 49  1  0
 17 50  1  0
 17 51  1  0
 18 52  1  0
 18 53  1  0
 22 54  1  0
 22 55  1  0
 23 56  1  0
 23 57  1  0
 26 58  1  0
 28 59  1  0
 30 60  1  0
 30 61  1  0
 30 62  1  0
 33 63  1  0
M  END
$$$$
