
     RDKit          3D

 42 44  0  0  0  0  0  0  0  0999 V2000
   -5.8383   -0.6596    2.0489 C   0  0  0  0  0  0  0  0  0  0  0  0
   -4.5362   -0.2250    2.4199 O   0  0  0  0  0  0  0  0  0  0  0  0
   -3.7844    0.3808    1.4516 C   0  0  0  0  0  0  0  0  0  0  0  0
   -4.1701    0.5922    0.1257 C   0  0  0  0  0  0  0  0  0  0  0  0
   -3.2995    1.2251   -0.7679 C   0  0  0  0  0  0  0  0  0  0  0  0
   -2.0362    1.6356   -0.3327 C   0  0  0  0  0  0  0  0  0  0  0  0
   -0.9392    2.4580   -1.4658 S   0  0  0  0  0  6  0  0  0  0  0  0
   -0.0615    3.3145   -0.6987 O   0  0  0  0  0  0  0  0  0  0  0  0
   -1.7478    2.9907   -2.5434 O   0  0  0  0  0  0  0  0  0  0  0  0
   -0.0522    1.1913   -2.1425 N   0  0  0  0  0  0  0  0  0  0  0  0
    0.6532    0.2770   -1.3065 C   0  0  0  0  0  0  0  0  0  0  0  0
    1.6903    0.7458   -0.4904 C   0  0  0  0  0  0  0  0  0  0  0  0
    2.3884   -0.1210    0.3606 C   0  0  0  0  0  0  0  0  0  0  0  0
    3.6320    0.5842    1.4311 S   0  0  0  0  0  0  0  0  0  0  0  0
    5.0820   -0.2010    0.8773 C   0  0  0  0  0  0  0  0  0  0  0  0
    6.0948    0.4467    0.2297 N   0  0  0  0  0  0  0  0  0  0  0  0
    6.9730   -0.5061    0.0253 C   0  0  0  0  0  0  0  0  0  0  0  0
    6.5038   -1.6736    0.5380 N   0  0  0  0  0  0  0  0  0  0  0  0
    5.2912   -1.5065    1.0964 N   0  0  0  0  0  0  0  0  0  0  0  0
    2.0256   -1.4719    0.3759 C   0  0  0  0  0  0  0  0  0  0  0  0
    2.6382   -2.4042    1.1681 O   0  0  0  0  0  0  0  0  0  0  0  0
    0.9955   -1.9471   -0.4354 C   0  0  0  0  0  0  0  0  0  0  0  0
    0.2994   -1.0817   -1.2912 C   0  0  0  0  0  0  0  0  0  0  0  0
   -0.7944   -1.6379   -2.1581 C   0  0  0  0  0  0  0  0  0  0  0  0
   -1.6511    1.4509    0.9962 C   0  0  0  0  0  0  0  0  0  0  0  0
   -2.5250    0.8146    1.8792 C   0  0  0  0  0  0  0  0  0  0  0  0
   -6.3046   -1.1092    2.9308 H   0  0  0  0  0  0  0  0  0  0  0  0
   -6.4621    0.1841    1.7359 H   0  0  0  0  0  0  0  0  0  0  0  0
   -5.7905   -1.4274    1.2696 H   0  0  0  0  0  0  0  0  0  0  0  0
   -5.1427    0.2821   -0.2424 H   0  0  0  0  0  0  0  0  0  0  0  0
   -3.6166    1.3951   -1.7945 H   0  0  0  0  0  0  0  0  0  0  0  0
   -0.4741    0.8419   -3.0000 H   0  0  0  0  0  0  0  0  0  0  0  0
    1.9631    1.7994   -0.5211 H   0  0  0  0  0  0  0  0  0  0  0  0
    7.9302   -0.4118   -0.4677 H   0  0  0  0  0  0  0  0  0  0  0  0
    6.9385   -2.5901    0.5468 H   0  0  0  0  0  0  0  0  0  0  0  0
    3.5188   -2.0526    1.4233 H   0  0  0  0  0  0  0  0  0  0  0  0
    0.7435   -3.0048   -0.3922 H   0  0  0  0  0  0  0  0  0  0  0  0
   -0.5391   -1.5135   -3.2153 H   0  0  0  0  0  0  0  0  0  0  0  0
   -0.9462   -2.7078   -1.9791 H   0  0  0  0  0  0  0  0  0  0  0  0
   -1.7432   -1.1351   -1.9508 H   0  0  0  0  0  0  0  0  0  0  0  0
   -0.6814    1.7920    1.3518 H   0  0  0  0  0  0  0  0  0  0  0  0
   -2.2251    0.6591    2.9135 H   0  0  0  0  0  0  0  0  0  0  0  0
  1  2  1  0
  2  3  1  0
  3  4  2  0
  4  5  1  0
  5  6  2  0
  6  7  1  0
  7  8  2  0
  7  9  2  0
  7 10  1  0
 10 11  1  0
 11 12  2  0
 12 13  1  0
 13 14  1  0
 14 15  1  0
 15 16  1  0
 16 17  2  0
 17 18  1  0
 18 19  1  0
 13 20  2  0
 20 21  1  0
 20 22  1  0
 22 23  2  0
 23 24  1  0
  6 25  1  0
 25 26  2  0
 26  3  1  0
 23 11  1  0
 19 15  2  0
  1 27  1  0
  1 28  1  0
  1 29  1  0
  4 30  1  0
  5 31  1  0
 10 32  1  0
 12 33  1  0
 17 34  1  0
 18 35  1  0
 21 36  1  0
 22 37  1  0
 24 38  1  0
 24 39  1  0
 24 40  1  0
 25 41  1  0
 26 42  1  0
M  END
$$$$
