
     RDKit          3D

 39 40  0  0  0  0  0  0  0  0999 V2000
   -3.0274   -1.5677    1.9236 C   0  0  0  0  0  0  0  0  0  0  0  0
   -1.7971   -0.7138    1.6630 C   0  0  0  0  0  0  0  0  0  0  0  0
   -1.5628   -0.5276    0.2646 O   0  0  0  0  0  0  0  0  0  0  0  0
   -2.4054    0.3068   -0.4281 C   0  0  0  0  0  0  0  0  0  0  0  0
   -3.1434    1.3481    0.1385 C   0  0  0  0  0  0  0  0  0  0  0  0
   -3.9676    2.1441   -0.6624 C   0  0  0  0  0  0  0  0  0  0  0  0
   -4.0713    1.8966   -2.0289 C   0  0  0  0  0  0  0  0  0  0  0  0
   -3.3284    0.8692   -2.6076 C   0  0  0  0  0  0  0  0  0  0  0  0
   -2.4709    0.1011   -1.8166 C   0  0  0  0  0  0  0  0  0  0  0  0
   -1.7456   -0.9375   -2.3491 O   0  0  0  0  0  0  0  0  0  0  0  0
   -0.8452   -0.5432   -3.3826 C   0  0  0  0  0  0  0  0  0  0  0  0
    0.5226   -0.0355   -2.9096 C   0  0  0  0  0  0  0  0  0  0  0  0
    1.2742    0.5327   -3.6982 O   0  0  0  0  0  0  0  0  0  0  0  0
    0.7855   -0.3297   -1.5931 N   0  0  0  0  0  0  0  0  0  0  0  0
    1.9537    0.0235   -0.9819 C   0  0  0  0  0  0  0  0  0  0  0  0
    3.0129    0.6288   -1.4586 N   0  0  0  0  0  0  0  0  0  0  0  0
    3.9896    0.7941   -0.4931 N   0  0  0  0  0  0  0  0  0  0  0  0
    3.6238    0.2976    0.6719 C   0  0  0  0  0  0  0  0  0  0  0  0
    4.4482    0.3438    1.9141 C   0  0  0  0  0  0  0  0  0  0  0  0
    4.7801   -0.9978    2.2784 O   0  0  0  0  0  0  0  0  0  0  0  0
    5.6178   -1.0326    3.4260 C   0  0  0  0  0  0  0  0  0  0  0  0
    2.0430   -0.3858    0.6723 S   0  0  0  0  0  0  0  0  0  0  0  0
   -2.9645   -2.5103    1.3702 H   0  0  0  0  0  0  0  0  0  0  0  0
   -3.1202   -1.7902    2.9909 H   0  0  0  0  0  0  0  0  0  0  0  0
   -3.9432   -1.0663    1.5988 H   0  0  0  0  0  0  0  0  0  0  0  0
   -0.9245   -1.2543    2.0478 H   0  0  0  0  0  0  0  0  0  0  0  0
   -1.8201    0.2357    2.2080 H   0  0  0  0  0  0  0  0  0  0  0  0
   -3.0954    1.5768    1.1973 H   0  0  0  0  0  0  0  0  0  0  0  0
   -4.5402    2.9539   -0.2148 H   0  0  0  0  0  0  0  0  0  0  0  0
   -4.7312    2.5044   -2.6437 H   0  0  0  0  0  0  0  0  0  0  0  0
   -3.4399    0.6678   -3.6685 H   0  0  0  0  0  0  0  0  0  0  0  0
   -0.6503   -1.4395   -3.9834 H   0  0  0  0  0  0  0  0  0  0  0  0
   -1.2757    0.2050   -4.0588 H   0  0  0  0  0  0  0  0  0  0  0  0
    0.0592   -0.7468   -1.0193 H   0  0  0  0  0  0  0  0  0  0  0  0
    3.8908    0.8234    2.7271 H   0  0  0  0  0  0  0  0  0  0  0  0
    5.3665    0.9126    1.7294 H   0  0  0  0  0  0  0  0  0  0  0  0
    6.5517   -0.4918    3.2416 H   0  0  0  0  0  0  0  0  0  0  0  0
    5.8541   -2.0767    3.6464 H   0  0  0  0  0  0  0  0  0  0  0  0
    5.0966   -0.6056    4.2885 H   0  0  0  0  0  0  0  0  0  0  0  0
  1  2  1  0
  2  3  1  0
  3  4  1  0
  4  5  2  0
  5  6  1  0
  6  7  2  0
  7  8  1  0
  8  9  2  0
  9 10  1  0
 10 11  1  0
 11 12  1  0
 12 13  2  0
 12 14  1  0
 14 15  1  0
 15 16  2  0
 16 17  1  0
 17 18  2  0
 18 19  1  0
 19 20  1  0
 20 21  1  0
 18 22  1  0
  9  4  1  0
 22 15  1  0
  1 23  1  0
  1 24  1  0
  1 25  1  0
  2 26  1  0
  2 27  1  0
  5 28  1  0
  6 29  1  0
  7 30  1  0
  8 31  1  0
 11 32  1  0
 11 33  1  0
 14 34  1  0
 19 35  1  0
 19 36  1  0
 21 37  1  0
 21 38  1  0
 21 39  1  0
M  END
$$$$
