
     RDKit          3D

 37 37  0  0  0  0  0  0  0  0999 V2000
   -0.9078   -4.1451    1.2594 C   0  0  0  0  0  0  0  0  0  0  0  0
   -0.8481   -2.8890    0.5857 O   0  0  0  0  0  0  0  0  0  0  0  0
   -1.9704   -2.1261    0.7247 C   0  0  0  0  0  0  0  0  0  0  0  0
   -2.9931   -2.5029    1.2896 O   0  0  0  0  0  0  0  0  0  0  0  0
   -1.8520   -0.7751   -0.0125 C   0  0  0  0  0  0  0  0  0  0  0  0
   -2.5887    0.3257    0.7731 C   0  0  0  0  0  0  0  0  0  0  0  0
   -2.5425    1.7218    0.1525 C   0  0  0  0  0  0  0  0  0  0  0  0
   -3.1686    1.8155   -1.5597 S   0  0  0  0  0  0  0  0  0  0  0  0
   -4.9301    1.5315   -1.2494 C   0  0  0  0  0  0  0  0  0  0  0  0
   -0.4862   -0.4144   -0.4026 N   0  0  0  0  0  0  0  0  0  0  0  0
    0.4610   -0.1072    0.5379 C   0  0  0  0  0  0  0  0  0  0  0  0
    0.2873   -0.1842    1.7451 O   0  0  0  0  0  0  0  0  0  0  0  0
    1.6255    0.3014   -0.0507 N   0  0  0  0  0  0  0  0  0  0  0  0
    2.7713    0.5825    0.7825 C   0  0  0  0  0  0  0  0  0  0  0  0
    3.8876    1.0591   -0.0887 C   0  0  0  0  0  0  0  0  0  0  0  0
    4.8961    0.3142   -0.6703 C   0  0  0  0  0  0  0  0  0  0  0  0
    5.7866    1.1154   -1.4418 C   0  0  0  0  0  0  0  0  0  0  0  0
    5.4302    2.4449   -1.4234 C   0  0  0  0  0  0  0  0  0  0  0  0
    4.0313    2.7220   -0.4806 S   0  0  0  0  0  0  0  0  0  0  0  0
   -1.0797   -4.0010    2.3308 H   0  0  0  0  0  0  0  0  0  0  0  0
   -1.6879   -4.7759    0.8221 H   0  0  0  0  0  0  0  0  0  0  0  0
    0.0556   -4.6457    1.1290 H   0  0  0  0  0  0  0  0  0  0  0  0
   -2.3701   -0.9483   -0.9642 H   0  0  0  0  0  0  0  0  0  0  0  0
   -2.1771    0.3941    1.7880 H   0  0  0  0  0  0  0  0  0  0  0  0
   -3.6352    0.0279    0.9166 H   0  0  0  0  0  0  0  0  0  0  0  0
   -3.1140    2.4227    0.7707 H   0  0  0  0  0  0  0  0  0  0  0  0
   -1.5121    2.0919    0.1412 H   0  0  0  0  0  0  0  0  0  0  0  0
   -5.0995    0.5127   -0.8931 H   0  0  0  0  0  0  0  0  0  0  0  0
   -5.3116    2.2493   -0.5188 H   0  0  0  0  0  0  0  0  0  0  0  0
   -5.4817    1.6630   -2.1842 H   0  0  0  0  0  0  0  0  0  0  0  0
   -0.3999    0.1110   -1.2619 H   0  0  0  0  0  0  0  0  0  0  0  0
    1.8142   -0.1226   -0.9469 H   0  0  0  0  0  0  0  0  0  0  0  0
    2.4937    1.3219    1.5423 H   0  0  0  0  0  0  0  0  0  0  0  0
    3.0531   -0.3402    1.3031 H   0  0  0  0  0  0  0  0  0  0  0  0
    4.9928   -0.7582   -0.5467 H   0  0  0  0  0  0  0  0  0  0  0  0
    6.6461    0.7367   -1.9814 H   0  0  0  0  0  0  0  0  0  0  0  0
    5.9241    3.2706   -1.9171 H   0  0  0  0  0  0  0  0  0  0  0  0
  1  2  1  0
  2  3  1  0
  3  4  2  0
  3  5  1  0
  5  6  1  0
  6  7  1  0
  7  8  1  0
  8  9  1  0
  5 10  1  0
 10 11  1  0
 11 12  2  0
 11 13  1  0
 13 14  1  0
 14 15  1  0
 15 16  2  0
 16 17  1  0
 17 18  2  0
 18 19  1  0
 19 15  1  0
  1 20  1  0
  1 21  1  0
  1 22  1  0
  5 23  1  0
  6 24  1  0
  6 25  1  0
  7 26  1  0
  7 27  1  0
  9 28  1  0
  9 29  1  0
  9 30  1  0
 10 31  1  0
 13 32  1  0
 14 33  1  0
 14 34  1  0
 16 35  1  0
 17 36  1  0
 18 37  1  0
M  END
$$$$
