
     RDKit          3D

 33 35  0  0  0  0  0  0  0  0999 V2000
    5.0633    1.9855   -0.5625 C   0  0  0  0  0  0  0  0  0  0  0  0
    4.3421    0.8270   -0.0889 N   0  0  0  0  0  0  0  0  0  0  0  0
    4.8770   -0.3110    0.4321 C   0  0  0  0  0  0  0  0  0  0  0  0
    3.8000   -1.1121    0.7511 C   0  0  0  0  0  0  0  0  0  0  0  0
    3.8721   -2.3890    1.3764 N   0  0  0  0  0  4  0  0  0  0  0  0
    4.6230   -3.2189    0.8491 O   0  0  0  0  0  0  0  0  0  0  0  0
    3.2456   -2.5245    2.4322 O   0  0  0  0  0  1  0  0  0  0  0  0
    2.6511   -0.3959    0.3521 C   0  0  0  0  0  0  0  0  0  0  0  0
    1.2474   -0.8329    0.3945 C   0  0  0  0  0  0  0  0  0  0  0  0
    0.9400   -1.9856    0.6535 O   0  0  0  0  0  0  0  0  0  0  0  0
    0.3868    0.1925    0.0834 N   0  0  0  0  0  0  0  0  0  0  0  0
   -0.9850    0.1336    0.0214 C   0  0  0  0  0  0  0  0  0  0  0  0
   -1.6271    1.6855   -0.4039 S   0  0  0  0  0  0  0  0  0  0  0  0
   -3.1820    1.0920   -0.3336 C   0  0  0  0  0  0  0  0  0  0  0  0
   -3.2539   -0.2314   -0.0051 C   0  0  0  0  0  0  0  0  0  0  0  0
   -1.9771   -0.8203    0.2044 C   0  0  0  0  0  0  0  0  0  0  0  0
   -1.8303   -2.2044    0.5454 C   0  0  0  0  0  0  0  0  0  0  0  0
   -1.8440   -3.3350    0.8107 N   0  0  0  0  0  0  0  0  0  0  0  0
   -4.6665   -0.6940    0.0339 C   0  0  0  0  0  0  0  0  0  0  0  0
   -5.4575    0.6521    0.0178 C   0  0  0  0  0  0  0  0  0  0  0  0
   -4.4967    1.7340   -0.5638 C   0  0  0  0  0  0  0  0  0  0  0  0
    2.9939    0.8201   -0.1376 N   0  0  0  0  0  0  0  0  0  0  0  0
    4.8298    2.1260   -1.6210 H   0  0  0  0  0  0  0  0  0  0  0  0
    6.1363    1.8233   -0.4339 H   0  0  0  0  0  0  0  0  0  0  0  0
    4.7418    2.8525    0.0206 H   0  0  0  0  0  0  0  0  0  0  0  0
    5.9428   -0.4558    0.5481 H   0  0  0  0  0  0  0  0  0  0  0  0
    0.8259    1.0841   -0.1355 H   0  0  0  0  0  0  0  0  0  0  0  0
   -4.8985   -1.2768    0.9295 H   0  0  0  0  0  0  0  0  0  0  0  0
   -4.8997   -1.2859   -0.8575 H   0  0  0  0  0  0  0  0  0  0  0  0
   -6.3920    0.5783   -0.5472 H   0  0  0  0  0  0  0  0  0  0  0  0
   -5.7175    0.9239    1.0496 H   0  0  0  0  0  0  0  0  0  0  0  0
   -4.6114    2.6877   -0.0412 H   0  0  0  0  0  0  0  0  0  0  0  0
   -4.6798    1.8754   -1.6340 H   0  0  0  0  0  0  0  0  0  0  0  0
  1  2  1  0
  2  3  1  0
  3  4  2  0
  4  5  1  0
  5  6  2  0
  5  7  1  0
  4  8  1  0
  8  9  1  0
  9 10  2  0
  9 11  1  0
 11 12  1  0
 12 13  1  0
 13 14  1  0
 14 15  2  0
 15 16  1  0
 16 17  1  0
 17 18  3  0
 15 19  1  0
 19 20  1  0
 20 21  1  0
  8 22  2  0
 22  2  1  0
 16 12  2  0
 21 14  1  0
  1 23  1  0
  1 24  1  0
  1 25  1  0
  3 26  1  0
 11 27  1  0
 19 28  1  0
 19 29  1  0
 20 30  1  0
 20 31  1  0
 21 32  1  0
 21 33  1  0
M  CHG  2   5   1   7  -1
M  END
$$$$
