
     RDKit          3D

 70 75  0  0  0  0  0  0  0  0999 V2000
   -5.1499   -3.6637    2.2489 C   0  0  0  0  0  0  0  0  0  0  0  0
   -4.0719   -3.0199    1.4159 C   0  0  0  0  0  0  0  0  0  0  0  0
   -3.1888   -2.1093    2.0462 C   0  0  0  0  0  0  0  0  0  0  0  0
   -2.1714   -1.4685    1.3380 C   0  0  0  0  0  0  0  0  0  0  0  0
   -2.0493   -1.7394   -0.0124 C   0  0  0  0  0  0  0  0  0  0  0  0
   -2.9072   -2.6551   -0.6357 C   0  0  0  0  0  0  0  0  0  0  0  0
   -3.9166   -3.3273    0.0445 C   0  0  0  0  0  0  0  0  0  0  0  0
   -4.8330   -4.2804   -0.6660 C   0  0  0  0  0  0  0  0  0  0  0  0
   -2.5810   -2.7608   -1.9869 N   0  0  0  0  0  0  0  0  0  0  0  0
   -1.4958   -1.9480   -2.3239 C   0  0  0  0  0  0  0  0  0  0  0  0
   -0.9901   -1.8865   -3.4346 O   0  0  0  0  0  0  0  0  0  0  0  0
   -1.0930   -1.1962   -1.0295 C   0  0  1  0  0  0  0  0  0  0  0  0
   -1.2776    0.2770   -1.1405 C   0  0  0  0  0  0  0  0  0  0  0  0
   -0.0253    0.9011   -1.2474 C   0  0  0  0  0  0  0  0  0  0  0  0
   -0.2062    2.2443   -1.4063 C   0  0  0  0  0  0  0  0  0  0  0  0
    0.7140    3.1642   -1.6911 O   0  0  0  0  0  0  0  0  0  0  0  0
   -1.5907    2.4908   -1.2864 N   0  0  0  0  0  0  0  0  0  0  0  0
   -2.2098    3.7810   -1.2489 C   0  0  0  0  0  0  0  0  0  0  0  0
   -3.4979    3.9709   -1.7645 C   0  0  0  0  0  0  0  0  0  0  0  0
   -4.0900    5.2364   -1.7312 C   0  0  0  0  0  0  0  0  0  0  0  0
   -3.4076    6.3160   -1.1744 C   0  0  0  0  0  0  0  0  0  0  0  0
   -2.1328    6.1328   -0.6441 C   0  0  0  0  0  0  0  0  0  0  0  0
   -1.5343    4.8709   -0.6777 C   0  0  0  0  0  0  0  0  0  0  0  0
   -2.2484    1.2465   -1.1794 C   0  0  0  0  0  0  0  0  0  0  0  0
   -3.5698    1.1404   -1.0597 O   0  0  0  0  0  0  0  0  0  0  0  0
    1.0602   -0.0989   -1.2580 C   0  0  1  0  0  0  0  0  0  0  0  0
    2.2906    0.1750   -0.3918 C   0  0  0  0  0  0  0  0  0  0  0  0
    3.0444   -1.0608   -0.0920 N   0  0  0  0  0  0  0  0  0  0  0  0
    4.2166   -1.0403    0.6343 C   0  0  0  0  0  0  0  0  0  0  0  0
    4.9215   -2.0250    0.8143 O   0  0  0  0  0  0  0  0  0  0  0  0
    4.4884    0.2001    1.1157 O   0  0  0  0  0  0  0  0  0  0  0  0
    5.6770    0.4553    1.9055 C   0  0  0  0  0  0  0  0  0  0  0  0
    5.6006    1.9513    2.2477 C   0  0  0  0  0  0  0  0  0  0  0  0
    6.9508    0.2049    1.0911 C   0  0  0  0  0  0  0  0  0  0  0  0
    5.6631   -0.3456    3.2123 C   0  0  0  0  0  0  0  0  0  0  0  0
    2.6207   -2.2956   -0.7634 C   0  0  0  0  0  0  0  0  0  0  0  0
    1.0807   -2.5127   -0.7786 C   0  0  0  0  0  0  0  0  0  0  0  0
    0.3392   -1.2690   -0.6861 N   0  0  0  0  0  0  0  0  0  0  0  0
   -4.9294   -4.7256    2.3950 H   0  0  0  0  0  0  0  0  0  0  0  0
   -5.2267   -3.1971    3.2367 H   0  0  0  0  0  0  0  0  0  0  0  0
   -6.1255   -3.5540    1.7646 H   0  0  0  0  0  0  0  0  0  0  0  0
   -3.2977   -1.8929    3.1084 H   0  0  0  0  0  0  0  0  0  0  0  0
   -1.5007   -0.7704    1.8311 H   0  0  0  0  0  0  0  0  0  0  0  0
   -5.7066   -3.7430   -1.0469 H   0  0  0  0  0  0  0  0  0  0  0  0
   -4.3289   -4.7718   -1.5040 H   0  0  0  0  0  0  0  0  0  0  0  0
   -5.1705   -5.0836   -0.0046 H   0  0  0  0  0  0  0  0  0  0  0  0
   -3.0300   -3.3620   -2.6607 H   0  0  0  0  0  0  0  0  0  0  0  0
    0.2713    3.9196   -2.1199 H   0  0  0  0  0  0  0  0  0  0  0  0
   -4.0499    3.1572   -2.2275 H   0  0  0  0  0  0  0  0  0  0  0  0
   -5.0865    5.3766   -2.1426 H   0  0  0  0  0  0  0  0  0  0  0  0
   -3.8740    7.2974   -1.1452 H   0  0  0  0  0  0  0  0  0  0  0  0
   -1.6095    6.9700   -0.1885 H   0  0  0  0  0  0  0  0  0  0  0  0
   -0.5625    4.7518   -0.2031 H   0  0  0  0  0  0  0  0  0  0  0  0
   -3.7780    0.2192   -0.8197 H   0  0  0  0  0  0  0  0  0  0  0  0
    1.3537   -0.3071   -2.2961 H   0  0  0  0  0  0  0  0  0  0  0  0
    2.0116    0.6290    0.5678 H   0  0  0  0  0  0  0  0  0  0  0  0
    2.9641    0.8764   -0.8986 H   0  0  0  0  0  0  0  0  0  0  0  0
    5.5724    2.5587    1.3352 H   0  0  0  0  0  0  0  0  0  0  0  0
    4.6799    2.1783    2.7978 H   0  0  0  0  0  0  0  0  0  0  0  0
    6.4540    2.2751    2.8526 H   0  0  0  0  0  0  0  0  0  0  0  0
    7.8409    0.5541    1.6255 H   0  0  0  0  0  0  0  0  0  0  0  0
    7.0959   -0.8577    0.8743 H   0  0  0  0  0  0  0  0  0  0  0  0
    6.9008    0.7183    0.1243 H   0  0  0  0  0  0  0  0  0  0  0  0
    6.4679   -0.0267    3.8834 H   0  0  0  0  0  0  0  0  0  0  0  0
    5.7906   -1.4180    3.0371 H   0  0  0  0  0  0  0  0  0  0  0  0
    4.7065   -0.2239    3.7327 H   0  0  0  0  0  0  0  0  0  0  0  0
    3.1108   -3.1675   -0.3171 H   0  0  0  0  0  0  0  0  0  0  0  0
    2.9838   -2.2152   -1.7959 H   0  0  0  0  0  0  0  0  0  0  0  0
    0.8334   -3.0836   -1.6801 H   0  0  0  0  0  0  0  0  0  0  0  0
    0.8093   -3.1376    0.0799 H   0  0  0  0  0  0  0  0  0  0  0  0
  1  2  1  0
  2  3  2  0
  3  4  1  0
  4  5  2  0
  5  6  1  0
  6  7  2  0
  7  8  1  0
  6  9  1  0
  9 10  1  0
 10 11  2  0
 10 12  1  0
 12 13  1  0
 13 14  1  0
 14 15  2  0
 15 16  1  0
 15 17  1  0
 17 18  1  0
 18 19  2  0
 19 20  1  0
 20 21  2  0
 21 22  1  0
 22 23  2  0
 17 24  1  0
 24 25  1  0
 14 26  1  0
 26 27  1  0
 27 28  1  0
 28 29  1  0
 29 30  2  0
 29 31  1  0
 31 32  1  0
 32 33  1  0
 32 34  1  0
 32 35  1  0
 28 36  1  0
 36 37  1  0
 37 38  1  0
  7  2  1  0
 12 38  1  1
 12  5  1  0
 24 13  2  0
 38 26  1  0
 23 18  1  0
  1 39  1  0
  1 40  1  0
  1 41  1  0
  3 42  1  0
  4 43  1  0
  8 44  1  0
  8 45  1  0
  8 46  1  0
  9 47  1  0
 16 48  1  0
 19 49  1  0
 20 50  1  0
 21 51  1  0
 22 52  1  0
 23 53  1  0
 25 54  1  0
 26 55  1  6
 27 56  1  0
 27 57  1  0
 33 58  1  0
 33 59  1  0
 33 60  1  0
 34 61  1  0
 34 62  1  0
 34 63  1  0
 35 64  1  0
 35 65  1  0
 35 66  1  0
 36 67  1  0
 36 68  1  0
 37 69  1  0
 37 70  1  0
M  END
$$$$
