
     RDKit          3D

 57 62  0  0  0  0  0  0  0  0999 V2000
    7.8423   -2.3929    0.1280 C   0  0  0  0  0  0  0  0  0  0  0  0
    6.6798   -1.4606    0.1449 C   0  0  0  0  0  0  0  0  0  0  0  0
    6.3571   -0.4727   -0.7611 C   0  0  0  0  0  0  0  0  0  0  0  0
    5.1651    0.2204   -0.3995 C   0  0  0  0  0  0  0  0  0  0  0  0
    4.5998   -0.2722    0.7621 C   0  0  0  0  0  0  0  0  0  0  0  0
    3.4004    0.1565    1.4675 C   0  0  0  0  0  0  0  0  0  0  0  0
    3.3723    0.2988    2.6914 O   0  0  0  0  0  0  0  0  0  0  0  0
    2.2518    0.4315    0.7053 N   0  0  0  0  0  0  0  0  0  0  0  0
    2.0246   -0.0969   -0.6409 C   0  0  0  0  0  0  0  0  0  0  0  0
    0.5634   -0.4889   -0.8445 C   0  0  0  0  0  0  0  0  0  0  0  0
   -0.3788    0.7335   -0.6771 C   0  0  0  0  0  0  0  0  0  0  0  0
    0.1409    1.6880    0.4333 C   0  0  0  0  0  0  0  0  0  0  0  0
    1.1111    1.0161    1.3968 C   0  0  0  0  0  0  0  0  0  0  0  0
   -0.2288    1.4297   -1.9490 O   0  0  0  0  0  0  0  0  0  0  0  0
   -1.2056    2.3045   -2.3184 C   0  0  0  0  0  0  0  0  0  0  0  0
   -0.9018    3.1438   -3.3907 C   0  0  0  0  0  0  0  0  0  0  0  0
   -1.8329    4.0892   -3.8281 C   0  0  0  0  0  0  0  0  0  0  0  0
   -3.0698    4.1905   -3.1920 C   0  0  0  0  0  0  0  0  0  0  0  0
   -4.2109    5.3599   -3.7282 Cl  0  0  0  0  0  0  0  0  0  0  0  0
   -3.3867    3.3494   -2.1291 C   0  0  0  0  0  0  0  0  0  0  0  0
   -2.4498    2.4004   -1.7065 C   0  0  0  0  0  0  0  0  0  0  0  0
   -2.7642    1.4845   -0.6035 C   0  0  0  0  0  0  0  0  0  0  0  0
   -3.7135    1.7273    0.1375 O   0  0  0  0  0  0  0  0  0  0  0  0
   -1.8476    0.2746   -0.4522 C   0  0  0  0  0  0  0  0  0  0  0  0
   -2.1151   -0.4447    0.8634 C   0  0  0  0  0  0  0  0  0  0  0  0
   -3.0779   -1.4710    0.3689 C   0  0  0  0  0  0  0  0  0  0  0  0
   -3.8949   -2.2867    1.2873 C   0  0  0  0  0  0  0  0  0  0  0  0
   -3.7858   -2.1951    2.6756 C   0  0  0  0  0  0  0  0  0  0  0  0
   -4.5892   -3.0037    3.4792 C   0  0  0  0  0  0  0  0  0  0  0  0
   -5.4722   -3.8780    2.8657 C   0  0  0  0  0  0  0  0  0  0  0  0
   -5.6000   -3.9939    1.5273 N   0  0  0  0  0  0  0  0  0  0  0  0
   -4.8101   -3.1949    0.7667 C   0  0  0  0  0  0  0  0  0  0  0  0
   -3.1081   -1.6114   -0.9177 N   0  0  0  0  0  0  0  0  0  0  0  0
   -2.2157   -0.6691   -1.4722 O   0  0  0  0  0  0  0  0  0  0  0  0
    5.5476   -1.5355    1.4251 S   0  0  0  0  0  0  0  0  0  0  0  0
    7.5050   -3.4344    0.1069 H   0  0  0  0  0  0  0  0  0  0  0  0
    8.4707   -2.2460    1.0126 H   0  0  0  0  0  0  0  0  0  0  0  0
    8.4651   -2.2250   -0.7569 H   0  0  0  0  0  0  0  0  0  0  0  0
    6.9534   -0.2474   -1.6376 H   0  0  0  0  0  0  0  0  0  0  0  0
    4.7510    1.0486   -0.9612 H   0  0  0  0  0  0  0  0  0  0  0  0
    2.3188    0.6803   -1.3548 H   0  0  0  0  0  0  0  0  0  0  0  0
    2.6530   -0.9760   -0.8133 H   0  0  0  0  0  0  0  0  0  0  0  0
    0.3224   -1.2846   -0.1321 H   0  0  0  0  0  0  0  0  0  0  0  0
    0.4556   -0.9165   -1.8494 H   0  0  0  0  0  0  0  0  0  0  0  0
   -0.6885    2.1144    1.0091 H   0  0  0  0  0  0  0  0  0  0  0  0
    0.6551    2.5440   -0.0248 H   0  0  0  0  0  0  0  0  0  0  0  0
    1.4686    1.7514    2.1272 H   0  0  0  0  0  0  0  0  0  0  0  0
    0.6181    0.2175    1.9619 H   0  0  0  0  0  0  0  0  0  0  0  0
    0.0638    3.0679   -3.8854 H   0  0  0  0  0  0  0  0  0  0  0  0
   -1.5874    4.7421   -4.6622 H   0  0  0  0  0  0  0  0  0  0  0  0
   -4.3555    3.4213   -1.6399 H   0  0  0  0  0  0  0  0  0  0  0  0
   -1.2476   -0.9729    1.2643 H   0  0  0  0  0  0  0  0  0  0  0  0
   -2.5356    0.1921    1.6449 H   0  0  0  0  0  0  0  0  0  0  0  0
   -3.0915   -1.5114    3.1526 H   0  0  0  0  0  0  0  0  0  0  0  0
   -4.5288   -2.9533    4.5612 H   0  0  0  0  0  0  0  0  0  0  0  0
   -6.1181   -4.5268    3.4510 H   0  0  0  0  0  0  0  0  0  0  0  0
   -4.9444   -3.3156   -0.3057 H   0  0  0  0  0  0  0  0  0  0  0  0
  1  2  1  0
  2  3  2  0
  3  4  1  0
  4  5  2  0
  5  6  1  0
  6  7  2  0
  6  8  1  0
  8  9  1  0
  9 10  1  0
 10 11  1  0
 11 12  1  0
 12 13  1  0
 11 14  1  0
 14 15  1  0
 15 16  2  0
 16 17  1  0
 17 18  2  0
 18 19  1  0
 18 20  1  0
 20 21  2  0
 21 22  1  0
 22 23  2  0
 22 24  1  0
 24 25  1  0
 25 26  1  0
 26 27  1  0
 27 28  2  0
 28 29  1  0
 29 30  2  0
 30 31  1  0
 31 32  2  0
 26 33  2  0
 33 34  1  0
  5 35  1  0
 35  2  1  0
 13  8  1  0
 21 15  1  0
 34 24  1  0
 24 11  1  0
 32 27  1  0
  1 36  1  0
  1 37  1  0
  1 38  1  0
  3 39  1  0
  4 40  1  0
  9 41  1  0
  9 42  1  0
 10 43  1  0
 10 44  1  0
 12 45  1  0
 12 46  1  0
 13 47  1  0
 13 48  1  0
 16 49  1  0
 17 50  1  0
 20 51  1  0
 25 52  1  0
 25 53  1  0
 28 54  1  0
 29 55  1  0
 30 56  1  0
 32 57  1  0
M  END
$$$$
