
     RDKit          3D

 41 43  0  0  0  0  0  0  0  0999 V2000
   -2.7205    1.7499   -1.4058 C   0  0  0  0  0  0  0  0  0  0  0  0
   -1.3926    1.7259   -0.8455 N   0  0  0  0  0  0  0  0  0  0  0  0
   -0.2732    2.3093   -1.3682 C   0  0  0  0  0  0  0  0  0  0  0  0
   -0.1681    2.9712   -2.9622 S   0  0  0  0  0  0  0  0  0  0  0  0
    1.2526    2.0022   -3.5717 C   0  0  0  0  0  0  0  0  0  0  0  0
    0.9018    0.5221   -3.5969 C   0  0  0  0  0  0  0  0  0  0  0  0
    0.3086    0.0140   -4.5472 O   0  0  0  0  0  0  0  0  0  0  0  0
    1.2866   -0.1550   -2.4402 N   0  0  0  0  0  0  0  0  0  0  0  0
    0.8538   -1.4386   -2.2457 N   0  0  0  0  0  0  0  0  0  0  0  0
    1.1295   -2.0376   -1.1226 C   0  0  0  0  0  0  0  0  0  0  0  0
    1.9811   -1.5724   -0.0496 C   0  0  0  0  0  0  0  0  0  0  0  0
    3.1447   -0.8270   -0.0965 C   0  0  0  0  0  0  0  0  0  0  0  0
    3.6526   -0.5358    1.2066 C   0  0  0  0  0  0  0  0  0  0  0  0
    2.8728   -1.1054    2.1911 C   0  0  0  0  0  0  0  0  0  0  0  0
    3.0842   -1.0166    3.6129 N   0  0  0  0  0  4  0  0  0  0  0  0
    2.2721   -1.5726    4.3651 O   0  0  0  0  0  0  0  0  0  0  0  0
    4.0873   -0.3875    3.9813 O   0  0  0  0  0  1  0  0  0  0  0  0
    1.5703   -1.9985    1.5598 S   0  0  0  0  0  0  0  0  0  0  0  0
    0.7530    2.1052   -0.5769 N   0  0  0  0  0  0  0  0  0  0  0  0
    0.3101    1.3549    0.4818 N   0  0  0  0  0  0  0  0  0  0  0  0
   -0.9663    1.0722    0.2920 C   0  0  0  0  0  0  0  0  0  0  0  0
   -1.7571    0.1776    1.1243 C   0  0  0  0  0  0  0  0  0  0  0  0
   -2.4044   -0.9366    0.5689 C   0  0  0  0  0  0  0  0  0  0  0  0
   -3.1208   -1.8154    1.3818 C   0  0  0  0  0  0  0  0  0  0  0  0
   -3.1899   -1.5903    2.7534 C   0  0  0  0  0  0  0  0  0  0  0  0
   -4.0687   -2.6777    3.7514 Cl  0  0  0  0  0  0  0  0  0  0  0  0
   -2.5398   -0.5000    3.3228 C   0  0  0  0  0  0  0  0  0  0  0  0
   -1.8204    0.3784    2.5098 C   0  0  0  0  0  0  0  0  0  0  0  0
   -2.7871    0.9537   -2.1490 H   0  0  0  0  0  0  0  0  0  0  0  0
   -3.4615    1.6047   -0.6159 H   0  0  0  0  0  0  0  0  0  0  0  0
   -2.9023    2.7217   -1.8695 H   0  0  0  0  0  0  0  0  0  0  0  0
    2.1382    2.1840   -2.9541 H   0  0  0  0  0  0  0  0  0  0  0  0
    1.4974    2.3194   -4.5907 H   0  0  0  0  0  0  0  0  0  0  0  0
    1.4931    0.4030   -1.6081 H   0  0  0  0  0  0  0  0  0  0  0  0
    0.6537   -3.0249   -0.9795 H   0  0  0  0  0  0  0  0  0  0  0  0
    3.6172   -0.4970   -1.0139 H   0  0  0  0  0  0  0  0  0  0  0  0
    4.5419    0.0553    1.4013 H   0  0  0  0  0  0  0  0  0  0  0  0
   -2.3334   -1.1450   -0.4994 H   0  0  0  0  0  0  0  0  0  0  0  0
   -3.6114   -2.6798    0.9402 H   0  0  0  0  0  0  0  0  0  0  0  0
   -2.5818   -0.3311    4.3956 H   0  0  0  0  0  0  0  0  0  0  0  0
   -1.3031    1.2201    2.9674 H   0  0  0  0  0  0  0  0  0  0  0  0
  1  2  1  0
  2  3  1  0
  3  4  1  0
  4  5  1  0
  5  6  1  0
  6  7  2  0
  6  8  1  0
  8  9  1  0
  9 10  2  3
 10 11  1  0
 11 12  2  0
 12 13  1  0
 13 14  2  0
 14 15  1  0
 15 16  2  0
 15 17  1  0
 14 18  1  0
  3 19  2  0
 19 20  1  0
 20 21  2  0
 21 22  1  0
 22 23  2  0
 23 24  1  0
 24 25  2  0
 25 26  1  0
 25 27  1  0
 27 28  2  0
 21  2  1  0
 28 22  1  0
 18 11  1  0
  1 29  1  0
  1 30  1  0
  1 31  1  0
  5 32  1  0
  5 33  1  0
  8 34  1  0
 10 35  1  0
 12 36  1  0
 13 37  1  0
 23 38  1  0
 24 39  1  0
 27 40  1  0
 28 41  1  0
M  CHG  2  15   1  17  -1
M  END
$$$$
