
     RDKit          3D

 51 54  0  0  0  0  0  0  0  0999 V2000
    2.7270    0.4083    1.6414 O   0  0  0  0  0  0  0  0  0  0  0  0
    3.1570    1.0169    0.6641 C   0  0  0  0  0  0  0  0  0  0  0  0
    2.2301    1.8465   -0.2367 C   0  0  0  0  0  0  0  0  0  0  0  0
    0.8594    1.4159   -0.0755 N   0  0  0  0  0  0  0  0  0  0  0  0
    0.3616    0.3771   -0.8277 C   0  0  0  0  0  0  0  0  0  0  0  0
    0.9060   -0.1114   -1.8045 O   0  0  0  0  0  0  0  0  0  0  0  0
   -0.9664   -0.1667   -0.3149 C   0  0  0  0  0  0  0  0  0  0  0  0
   -1.9002    0.7152   -0.1102 N   0  0  0  0  0  0  0  0  0  0  0  0
   -3.1273    0.2879    0.3497 N   0  0  0  0  0  0  0  0  0  0  0  0
   -4.1641    1.3087    0.4753 C   0  0  0  0  0  0  0  0  0  0  0  0
   -4.9184    1.5192   -0.8172 C   0  0  0  0  0  0  0  0  0  0  0  0
   -6.1104    0.8242   -1.0680 C   0  0  0  0  0  0  0  0  0  0  0  0
   -6.7994    1.0096   -2.2675 C   0  0  0  0  0  0  0  0  0  0  0  0
   -6.3005    1.8842   -3.2310 C   0  0  0  0  0  0  0  0  0  0  0  0
   -5.1093    2.5697   -2.9992 C   0  0  0  0  0  0  0  0  0  0  0  0
   -4.4192    2.3859   -1.8000 C   0  0  0  0  0  0  0  0  0  0  0  0
   -3.4428   -1.0409    0.6199 C   0  0  0  0  0  0  0  0  0  0  0  0
   -4.5377   -1.4233    1.0267 O   0  0  0  0  0  0  0  0  0  0  0  0
   -2.3655   -2.0272    0.4112 C   0  0  0  0  0  0  0  0  0  0  0  0
   -2.5906   -3.3820    0.6918 C   0  0  0  0  0  0  0  0  0  0  0  0
   -1.5658   -4.3106    0.5137 C   0  0  0  0  0  0  0  0  0  0  0  0
   -0.3180   -3.8876    0.0594 C   0  0  0  0  0  0  0  0  0  0  0  0
   -0.0927   -2.5372   -0.2217 C   0  0  0  0  0  0  0  0  0  0  0  0
   -1.1239   -1.6049   -0.0522 C   0  0  0  0  0  0  0  0  0  0  0  0
    4.4818    1.0871    0.2702 N   0  0  0  0  0  0  0  0  0  0  0  0
    5.5968    0.4680    0.8785 C   0  0  0  0  0  0  0  0  0  0  0  0
    5.5320   -0.3197    2.0318 C   0  0  0  0  0  0  0  0  0  0  0  0
    6.6956   -0.8929    2.5605 C   0  0  0  0  0  0  0  0  0  0  0  0
    7.9215   -0.6776    1.9380 C   0  0  0  0  0  0  0  0  0  0  0  0
    9.0263   -1.2305    2.4557 F   0  0  0  0  0  0  0  0  0  0  0  0
    8.0002    0.1025    0.7950 C   0  0  0  0  0  0  0  0  0  0  0  0
    9.1825    0.3113    0.1988 F   0  0  0  0  0  0  0  0  0  0  0  0
    6.8453    0.6695    0.2717 C   0  0  0  0  0  0  0  0  0  0  0  0
    6.9196    1.4273   -0.8354 F   0  0  0  0  0  0  0  0  0  0  0  0
    2.2919    2.8944    0.0699 H   0  0  0  0  0  0  0  0  0  0  0  0
    2.5325    1.7482   -1.2839 H   0  0  0  0  0  0  0  0  0  0  0  0
    0.3864    1.6155    0.7997 H   0  0  0  0  0  0  0  0  0  0  0  0
   -3.6943    2.2472    0.7947 H   0  0  0  0  0  0  0  0  0  0  0  0
   -4.8624    1.0287    1.2734 H   0  0  0  0  0  0  0  0  0  0  0  0
   -6.5027    0.1263   -0.3300 H   0  0  0  0  0  0  0  0  0  0  0  0
   -7.7223    0.4658   -2.4512 H   0  0  0  0  0  0  0  0  0  0  0  0
   -6.8359    2.0249   -4.1660 H   0  0  0  0  0  0  0  0  0  0  0  0
   -4.7134    3.2427   -3.7548 H   0  0  0  0  0  0  0  0  0  0  0  0
   -3.4819    2.9134   -1.6363 H   0  0  0  0  0  0  0  0  0  0  0  0
   -3.5628   -3.7145    1.0515 H   0  0  0  0  0  0  0  0  0  0  0  0
   -1.7405   -5.3618    0.7314 H   0  0  0  0  0  0  0  0  0  0  0  0
    0.4832   -4.6108   -0.0780 H   0  0  0  0  0  0  0  0  0  0  0  0
    0.8935   -2.2426   -0.5722 H   0  0  0  0  0  0  0  0  0  0  0  0
    4.6948    1.6146   -0.5730 H   0  0  0  0  0  0  0  0  0  0  0  0
    4.5944   -0.5089    2.5465 H   0  0  0  0  0  0  0  0  0  0  0  0
    6.6486   -1.5059    3.4566 H   0  0  0  0  0  0  0  0  0  0  0  0
  1  2  2  0
  2  3  1  0
  3  4  1  0
  4  5  1  0
  5  6  2  0
  5  7  1  0
  7  8  2  0
  8  9  1  0
  9 10  1  0
 10 11  1  0
 11 12  2  0
 12 13  1  0
 13 14  2  0
 14 15  1  0
 15 16  2  0
  9 17  1  0
 17 18  2  0
 17 19  1  0
 19 20  2  0
 20 21  1  0
 21 22  2  0
 22 23  1  0
 23 24  2  0
  2 25  1  0
 25 26  1  0
 26 27  2  0
 27 28  1  0
 28 29  2  0
 29 30  1  0
 29 31  1  0
 31 32  1  0
 31 33  2  0
 33 34  1  0
 24  7  1  0
 33 26  1  0
 16 11  1  0
 24 19  1  0
  3 35  1  0
  3 36  1  0
  4 37  1  0
 10 38  1  0
 10 39  1  0
 12 40  1  0
 13 41  1  0
 14 42  1  0
 15 43  1  0
 16 44  1  0
 20 45  1  0
 21 46  1  0
 22 47  1  0
 23 48  1  0
 25 49  1  0
 27 50  1  0
 28 51  1  0
M  END
$$$$
