
     RDKit          3D

 35 36  0  0  0  0  0  0  0  0999 V2000
    2.9688    0.9645    0.1954 C   0  0  0  0  0  0  0  0  0  0  0  0
    2.1025    0.0818   -0.5887 N   0  0  0  0  0  0  0  0  0  0  0  0
    1.1410   -0.6498    0.2433 C   0  0  0  0  0  0  0  0  0  0  0  0
    0.0641    0.2350    0.8806 C   0  0  0  0  0  0  0  0  0  0  0  0
   -0.7213    1.0507   -0.1443 C   0  0  0  0  0  0  0  0  0  0  0  0
   -1.7728    1.7715    0.5029 O   0  0  0  0  0  0  0  0  0  0  0  0
   -3.0278    1.2280    0.5588 C   0  0  0  0  0  0  0  0  0  0  0  0
   -3.3320   -0.1051    0.2648 C   0  0  0  0  0  0  0  0  0  0  0  0
   -4.6481   -0.5701    0.3642 C   0  0  0  0  0  0  0  0  0  0  0  0
   -5.6652    0.2933    0.7637 C   0  0  0  0  0  0  0  0  0  0  0  0
   -7.2795   -0.2881    0.8837 Cl  0  0  0  0  0  0  0  0  0  0  0  0
   -5.3823    1.6194    1.0698 C   0  0  0  0  0  0  0  0  0  0  0  0
   -4.0675    2.0818    0.9701 C   0  0  0  0  0  0  0  0  0  0  0  0
   -3.7668    3.7400    1.3645 Cl  0  0  0  0  0  0  0  0  0  0  0  0
    2.8874   -0.8014   -1.4663 C   0  0  0  0  0  0  0  0  0  0  0  0
    3.7938   -1.7725   -0.7738 C   0  0  0  0  0  0  0  0  0  0  0  0
    5.0338   -2.2836   -1.4630 C   0  0  0  0  0  0  0  0  0  0  0  0
    5.0976   -1.2781   -0.4419 O   0  0  0  0  0  0  0  0  0  0  0  0
    3.5120    0.4286    0.9811 H   0  0  0  0  0  0  0  0  0  0  0  0
    2.3872    1.7622    0.6684 H   0  0  0  0  0  0  0  0  0  0  0  0
    3.6983    1.4675   -0.4497 H   0  0  0  0  0  0  0  0  0  0  0  0
    1.6526   -1.2068    1.0380 H   0  0  0  0  0  0  0  0  0  0  0  0
    0.6207   -1.3932   -0.3749 H   0  0  0  0  0  0  0  0  0  0  0  0
   -0.6213   -0.4055    1.4489 H   0  0  0  0  0  0  0  0  0  0  0  0
    0.4999    0.9100    1.6272 H   0  0  0  0  0  0  0  0  0  0  0  0
   -0.0641    1.8092   -0.5847 H   0  0  0  0  0  0  0  0  0  0  0  0
   -1.0845    0.4467   -0.9836 H   0  0  0  0  0  0  0  0  0  0  0  0
   -2.5683   -0.8155   -0.0336 H   0  0  0  0  0  0  0  0  0  0  0  0
   -4.8701   -1.6090    0.1318 H   0  0  0  0  0  0  0  0  0  0  0  0
   -6.1762    2.2906    1.3848 H   0  0  0  0  0  0  0  0  0  0  0  0
    2.1980   -1.3689   -2.1043 H   0  0  0  0  0  0  0  0  0  0  0  0
    3.4633   -0.1771   -2.1625 H   0  0  0  0  0  0  0  0  0  0  0  0
    3.2959   -2.4354   -0.0809 H   0  0  0  0  0  0  0  0  0  0  0  0
    5.3928   -3.2731   -1.2091 H   0  0  0  0  0  0  0  0  0  0  0  0
    5.2381   -1.9751   -2.4805 H   0  0  0  0  0  0  0  0  0  0  0  0
  1  2  1  0
  2  3  1  0
  3  4  1  0
  4  5  1  0
  5  6  1  0
  6  7  1  0
  7  8  2  0
  8  9  1  0
  9 10  2  0
 10 11  1  0
 10 12  1  0
 12 13  2  0
 13 14  1  0
  2 15  1  0
 15 16  1  0
 16 17  1  0
 17 18  1  0
 13  7  1  0
 18 16  1  0
  1 19  1  0
  1 20  1  0
  1 21  1  0
  3 22  1  0
  3 23  1  0
  4 24  1  0
  4 25  1  0
  5 26  1  0
  5 27  1  0
  8 28  1  0
  9 29  1  0
 12 30  1  0
 15 31  1  0
 15 32  1  0
 16 33  1  0
 17 34  1  0
 17 35  1  0
M  END
$$$$
