
     RDKit          3D

 40 42  0  0  0  0  0  0  0  0999 V2000
   -2.3469    0.6328   -1.6254 C   0  0  0  0  0  0  0  0  0  0  0  0
   -2.9051    0.3924   -0.2923 N   0  0  0  0  0  0  0  0  0  0  0  0
   -2.1336    0.6742    0.8514 C   0  0  0  0  0  0  0  0  0  0  0  0
   -2.5643    1.0362    1.9447 O   0  0  0  0  0  0  0  0  0  0  0  0
   -0.6577    0.5257    0.7565 C   0  0  0  0  0  0  0  0  0  0  0  0
   -0.0860   -0.6273    0.2096 C   0  0  0  0  0  0  0  0  0  0  0  0
    1.3064   -0.7582    0.1498 C   0  0  0  0  0  0  0  0  0  0  0  0
    2.1356    0.2489    0.6509 C   0  0  0  0  0  0  0  0  0  0  0  0
    3.5407    0.1937    0.6296 N   0  0  0  0  0  0  0  0  0  0  0  0
    4.3569   -0.7947    0.1080 C   0  0  0  0  0  0  0  0  0  0  0  0
    3.9708   -1.8143   -0.4536 O   0  0  0  0  0  0  0  0  0  0  0  0
    5.7685   -0.5010    0.2866 C   0  0  0  0  0  0  0  0  0  0  0  0
    6.8989   -1.2103   -0.0735 C   0  0  0  0  0  0  0  0  0  0  0  0
    8.0128   -0.4474    0.3509 C   0  0  0  0  0  0  0  0  0  0  0  0
    7.4998    0.6817    0.9438 C   0  0  0  0  0  0  0  0  0  0  0  0
    6.1421    0.6631    0.9120 O   0  0  0  0  0  0  0  0  0  0  0  0
    1.5524    1.3877    1.2241 C   0  0  0  0  0  0  0  0  0  0  0  0
    0.1626    1.5252    1.2839 C   0  0  0  0  0  0  0  0  0  0  0  0
   -4.2996    0.0167   -0.2030 C   0  0  0  0  0  0  0  0  0  0  0  0
   -5.1067   -0.0787   -1.3521 C   0  0  0  0  0  0  0  0  0  0  0  0
   -6.4518   -0.4648   -1.2776 C   0  0  0  0  0  0  0  0  0  0  0  0
   -7.0220   -0.7779   -0.0506 C   0  0  0  0  0  0  0  0  0  0  0  0
   -6.2439   -0.7117    1.0978 C   0  0  0  0  0  0  0  0  0  0  0  0
   -4.8992   -0.3255    1.0192 C   0  0  0  0  0  0  0  0  0  0  0  0
   -2.3411   -0.3038   -2.1913 H   0  0  0  0  0  0  0  0  0  0  0  0
   -2.9445    1.3922   -2.1403 H   0  0  0  0  0  0  0  0  0  0  0  0
   -1.3303    1.0309   -1.5906 H   0  0  0  0  0  0  0  0  0  0  0  0
   -0.7142   -1.4343   -0.1600 H   0  0  0  0  0  0  0  0  0  0  0  0
    1.7099   -1.6682   -0.2837 H   0  0  0  0  0  0  0  0  0  0  0  0
    4.0409    0.9728    1.0452 H   0  0  0  0  0  0  0  0  0  0  0  0
    6.9031   -2.1655   -0.5816 H   0  0  0  0  0  0  0  0  0  0  0  0
    9.0604   -0.6905    0.2389 H   0  0  0  0  0  0  0  0  0  0  0  0
    7.9460    1.5481    1.4127 H   0  0  0  0  0  0  0  0  0  0  0  0
    2.1696    2.1818    1.6376 H   0  0  0  0  0  0  0  0  0  0  0  0
   -0.2789    2.4066    1.7442 H   0  0  0  0  0  0  0  0  0  0  0  0
   -4.7227    0.1438   -2.3422 H   0  0  0  0  0  0  0  0  0  0  0  0
   -7.0499   -0.5208   -2.1835 H   0  0  0  0  0  0  0  0  0  0  0  0
   -8.0645   -1.0770    0.0109 H   0  0  0  0  0  0  0  0  0  0  0  0
   -6.6739   -0.9632    2.0641 H   0  0  0  0  0  0  0  0  0  0  0  0
   -4.3407   -0.3194    1.9502 H   0  0  0  0  0  0  0  0  0  0  0  0
  1  2  1  0
  2  3  1  0
  3  4  2  0
  3  5  1  0
  5  6  2  0
  6  7  1  0
  7  8  2  0
  8  9  1  0
  9 10  1  0
 10 11  2  0
 10 12  1  0
 12 13  2  0
 13 14  1  0
 14 15  2  0
 15 16  1  0
  8 17  1  0
 17 18  2  0
  2 19  1  0
 19 20  2  0
 20 21  1  0
 21 22  2  0
 22 23  1  0
 23 24  2  0
 18  5  1  0
 24 19  1  0
 16 12  1  0
  1 25  1  0
  1 26  1  0
  1 27  1  0
  6 28  1  0
  7 29  1  0
  9 30  1  0
 13 31  1  0
 14 32  1  0
 15 33  1  0
 17 34  1  0
 18 35  1  0
 20 36  1  0
 21 37  1  0
 22 38  1  0
 23 39  1  0
 24 40  1  0
M  END
$$$$
