
     RDKit          3D

 59 62  0  0  0  0  0  0  0  0999 V2000
    6.2812   -0.5857    0.8314 C   0  0  0  0  0  0  0  0  0  0  0  0
    5.3180   -1.7305    1.0919 C   0  0  0  0  0  0  0  0  0  0  0  0
    4.1312   -1.2560    1.7232 O   0  0  0  0  0  0  0  0  0  0  0  0
    3.1412   -0.7624    0.8183 C   0  0  0  0  0  0  0  0  0  0  0  0
    2.2177   -1.8982    0.3860 C   0  0  0  0  0  0  0  0  0  0  0  0
    1.1856   -1.4718   -0.6576 C   0  0  0  0  0  0  0  0  0  0  0  0
    0.1654   -0.5619   -0.1017 N   0  0  0  0  0  0  0  0  0  0  0  0
   -0.9307   -1.0668    0.6260 C   0  0  0  0  0  0  0  0  0  0  0  0
   -1.1014   -2.3230    0.9009 N   0  0  0  0  0  0  0  0  0  0  0  0
   -1.9785   -0.1257    1.1226 C   0  0  0  0  0  0  0  0  0  0  0  0
   -3.3671   -0.6312    2.0210 S   0  0  0  0  0  6  0  0  0  0  0  0
   -2.9599   -1.2560    3.2684 O   0  0  0  0  0  0  0  0  0  0  0  0
   -4.3342    0.4575    2.0754 O   0  0  0  0  0  0  0  0  0  0  0  0
   -4.1409   -1.8732    1.0014 C   0  0  0  0  0  0  0  0  0  0  0  0
   -4.8187   -1.4776   -0.1562 C   0  0  0  0  0  0  0  0  0  0  0  0
   -5.4562   -2.4389   -0.9425 C   0  0  0  0  0  0  0  0  0  0  0  0
   -5.4385   -3.7892   -0.5670 C   0  0  0  0  0  0  0  0  0  0  0  0
   -6.0977   -4.8250   -1.4299 C   0  0  0  0  0  0  0  0  0  0  0  0
   -4.7573   -4.1699    0.5976 C   0  0  0  0  0  0  0  0  0  0  0  0
   -4.1190   -3.2141    1.3897 C   0  0  0  0  0  0  0  0  0  0  0  0
   -1.7912    1.1810    0.8770 C   0  0  0  0  0  0  0  0  0  0  0  0
   -0.6383    1.6765    0.1444 C   0  0  0  0  0  0  0  0  0  0  0  0
   -0.4944    3.1425   -0.0888 C   0  0  0  0  0  0  0  0  0  0  0  0
   -1.3640    3.9158    0.3175 O   0  0  0  0  0  0  0  0  0  0  0  0
    0.6405    3.5408   -0.7718 N   0  0  0  0  0  0  0  0  0  0  0  0
    0.8542    4.8942   -1.0149 C   0  0  0  0  0  0  0  0  0  0  0  0
    1.9332    5.3393   -1.6781 C   0  0  0  0  0  0  0  0  0  0  0  0
    2.1884    6.7899   -1.9516 C   0  0  0  0  0  0  0  0  0  0  0  0
    2.9047    4.3824   -2.1575 C   0  0  0  0  0  0  0  0  0  0  0  0
    2.7355    3.0719   -1.9461 C   0  0  0  0  0  0  0  0  0  0  0  0
    1.5367    2.5867   -1.2088 C   0  0  0  0  0  0  0  0  0  0  0  0
    1.4015    1.3132   -1.0205 N   0  0  0  0  0  0  0  0  0  0  0  0
    0.3085    0.8361   -0.3318 C   0  0  0  0  0  0  0  0  0  0  0  0
    5.8581    0.1404    0.1308 H   0  0  0  0  0  0  0  0  0  0  0  0
    7.2218   -0.9592    0.4166 H   0  0  0  0  0  0  0  0  0  0  0  0
    6.4946   -0.0455    1.7596 H   0  0  0  0  0  0  0  0  0  0  0  0
    5.0887   -2.2732    0.1686 H   0  0  0  0  0  0  0  0  0  0  0  0
    5.7876   -2.4388    1.7823 H   0  0  0  0  0  0  0  0  0  0  0  0
    3.6063   -0.2697   -0.0419 H   0  0  0  0  0  0  0  0  0  0  0  0
    2.5695   -0.0080    1.3675 H   0  0  0  0  0  0  0  0  0  0  0  0
    1.7333   -2.3212    1.2740 H   0  0  0  0  0  0  0  0  0  0  0  0
    2.8187   -2.7135   -0.0339 H   0  0  0  0  0  0  0  0  0  0  0  0
    1.6966   -1.0323   -1.5232 H   0  0  0  0  0  0  0  0  0  0  0  0
    0.6948   -2.3619   -1.0705 H   0  0  0  0  0  0  0  0  0  0  0  0
   -0.3443   -2.9086    0.5552 H   0  0  0  0  0  0  0  0  0  0  0  0
   -4.8652   -0.4304   -0.4447 H   0  0  0  0  0  0  0  0  0  0  0  0
   -5.9771   -2.1279   -1.8456 H   0  0  0  0  0  0  0  0  0  0  0  0
   -6.4635   -5.6615   -0.8253 H   0  0  0  0  0  0  0  0  0  0  0  0
   -6.9605   -4.4037   -1.9563 H   0  0  0  0  0  0  0  0  0  0  0  0
   -5.3845   -5.2058   -2.1673 H   0  0  0  0  0  0  0  0  0  0  0  0
   -4.7214   -5.2150    0.8976 H   0  0  0  0  0  0  0  0  0  0  0  0
   -3.5953   -3.5218    2.2922 H   0  0  0  0  0  0  0  0  0  0  0  0
   -2.5049    1.9241    1.2302 H   0  0  0  0  0  0  0  0  0  0  0  0
    0.0990    5.5804   -0.6373 H   0  0  0  0  0  0  0  0  0  0  0  0
    3.1325    7.1071   -1.4958 H   0  0  0  0  0  0  0  0  0  0  0  0
    2.2437    6.9743   -3.0298 H   0  0  0  0  0  0  0  0  0  0  0  0
    1.3943    7.4264   -1.5466 H   0  0  0  0  0  0  0  0  0  0  0  0
    3.7774    4.7441   -2.6933 H   0  0  0  0  0  0  0  0  0  0  0  0
    3.4444    2.3303   -2.2917 H   0  0  0  0  0  0  0  0  0  0  0  0
  1  2  1  0
  2  3  1  0
  3  4  1  0
  4  5  1  0
  5  6  1  0
  6  7  1  0
  7  8  1  0
  8  9  2  3
  8 10  1  0
 10 11  1  0
 11 12  2  0
 11 13  2  0
 11 14  1  0
 14 15  2  0
 15 16  1  0
 16 17  2  0
 17 18  1  0
 17 19  1  0
 19 20  2  0
 10 21  2  0
 21 22  1  0
 22 23  1  0
 23 24  2  0
 23 25  1  0
 25 26  1  0
 26 27  2  0
 27 28  1  0
 27 29  1  0
 29 30  2  0
 30 31  1  0
 31 32  2  0
 32 33  1  0
 33  7  1  0
 20 14  1  0
 33 22  2  0
 31 25  1  0
  1 34  1  0
  1 35  1  0
  1 36  1  0
  2 37  1  0
  2 38  1  0
  4 39  1  0
  4 40  1  0
  5 41  1  0
  5 42  1  0
  6 43  1  0
  6 44  1  0
  9 45  1  0
 15 46  1  0
 16 47  1  0
 18 48  1  0
 18 49  1  0
 18 50  1  0
 19 51  1  0
 20 52  1  0
 21 53  1  0
 26 54  1  0
 28 55  1  0
 28 56  1  0
 28 57  1  0
 29 58  1  0
 30 59  1  0
M  END
$$$$
