
     RDKit          3D

 57 59  0  0  0  0  0  0  0  0999 V2000
    0.5802   -4.4013   -3.7135 C   0  0  0  0  0  0  0  0  0  0  0  0
   -0.5415   -4.8335   -2.8986 N   0  0  0  0  0  0  0  0  0  0  0  0
   -1.4129   -3.9550   -2.3128 C   0  0  0  0  0  0  0  0  0  0  0  0
   -3.0385   -4.3421   -2.4564 S   0  0  0  0  0  0  0  0  0  0  0  0
   -0.8736   -2.8434   -1.6669 N   0  0  0  0  0  0  0  0  0  0  0  0
   -1.7211   -1.6594   -1.3921 C   0  0  0  0  0  0  0  0  0  0  0  0
   -2.4611   -1.6920   -0.0470 C   0  0  0  0  0  0  0  0  0  0  0  0
   -3.1515   -0.3795    0.2371 C   0  0  0  0  0  0  0  0  0  0  0  0
   -4.5116   -0.2163   -0.0445 C   0  0  0  0  0  0  0  0  0  0  0  0
   -5.1376    1.0062    0.1977 C   0  0  0  0  0  0  0  0  0  0  0  0
   -4.4116    2.0770    0.7206 C   0  0  0  0  0  0  0  0  0  0  0  0
   -3.0528    1.9325    1.0141 C   0  0  0  0  0  0  0  0  0  0  0  0
   -2.2520    3.0866    1.5406 C   0  0  0  0  0  0  0  0  0  0  0  0
   -2.4296    0.7046    0.7588 C   0  0  0  0  0  0  0  0  0  0  0  0
    0.3205   -3.0393   -0.8126 C   0  0  0  0  0  0  0  0  0  0  0  0
    1.1125   -1.7847   -0.5739 C   0  0  0  0  0  0  0  0  0  0  0  0
    1.0814   -1.1087    0.5902 C   0  0  0  0  0  0  0  0  0  0  0  0
    1.8134    0.1457    0.7613 C   0  0  0  0  0  0  0  0  0  0  0  0
    1.7301    0.8843    1.9448 C   0  0  0  0  0  0  0  0  0  0  0  0
    2.4123    2.1015    2.0643 C   0  0  0  0  0  0  0  0  0  0  0  0
    2.3779    2.9004    3.1803 O   0  0  0  0  0  0  0  0  0  0  0  0
    1.7041    2.4051    4.3302 C   0  0  0  0  0  0  0  0  0  0  0  0
    3.1852    2.5823    0.9839 C   0  0  0  0  0  0  0  0  0  0  0  0
    3.8139    3.7869    1.1845 O   0  0  0  0  0  0  0  0  0  0  0  0
    4.5048    4.3642    0.0860 C   0  0  0  0  0  0  0  0  0  0  0  0
    3.2740    1.8333   -0.1933 C   0  0  0  0  0  0  0  0  0  0  0  0
    2.5852    0.6253   -0.2977 C   0  0  0  0  0  0  0  0  0  0  0  0
    2.6646   -0.1262   -1.4744 N   0  0  0  0  0  0  0  0  0  0  0  0
    2.0137   -1.3164   -1.6684 C   0  0  0  0  0  0  0  0  0  0  0  0
    2.1861   -1.9590   -2.6984 O   0  0  0  0  0  0  0  0  0  0  0  0
    0.4691   -3.3544   -4.0054 H   0  0  0  0  0  0  0  0  0  0  0  0
    1.5086   -4.5665   -3.1641 H   0  0  0  0  0  0  0  0  0  0  0  0
    0.6000   -5.0196   -4.6149 H   0  0  0  0  0  0  0  0  0  0  0  0
   -1.0405   -5.6202   -3.2961 H   0  0  0  0  0  0  0  0  0  0  0  0
   -1.0853   -0.7705   -1.4680 H   0  0  0  0  0  0  0  0  0  0  0  0
   -2.4465   -1.5468   -2.2071 H   0  0  0  0  0  0  0  0  0  0  0  0
   -1.7758   -1.9097    0.7785 H   0  0  0  0  0  0  0  0  0  0  0  0
   -3.1949   -2.5047   -0.0254 H   0  0  0  0  0  0  0  0  0  0  0  0
   -5.0912   -1.0384   -0.4594 H   0  0  0  0  0  0  0  0  0  0  0  0
   -6.1938    1.1262   -0.0265 H   0  0  0  0  0  0  0  0  0  0  0  0
   -4.9143    3.0252    0.8945 H   0  0  0  0  0  0  0  0  0  0  0  0
   -2.8991    3.8396    2.0024 H   0  0  0  0  0  0  0  0  0  0  0  0
   -1.6941    3.5579    0.7258 H   0  0  0  0  0  0  0  0  0  0  0  0
   -1.5466    2.7480    2.3067 H   0  0  0  0  0  0  0  0  0  0  0  0
   -1.3683    0.5976    0.9650 H   0  0  0  0  0  0  0  0  0  0  0  0
   -0.0568   -3.4354    0.1400 H   0  0  0  0  0  0  0  0  0  0  0  0
    0.9724   -3.8284   -1.1939 H   0  0  0  0  0  0  0  0  0  0  0  0
    0.4723   -1.4521    1.4194 H   0  0  0  0  0  0  0  0  0  0  0  0
    1.1212    0.5021    2.7565 H   0  0  0  0  0  0  0  0  0  0  0  0
    2.1420    1.4603    4.6706 H   0  0  0  0  0  0  0  0  0  0  0  0
    1.8303    3.1375    5.1325 H   0  0  0  0  0  0  0  0  0  0  0  0
    0.6293    2.2997    4.1424 H   0  0  0  0  0  0  0  0  0  0  0  0
    5.3654    3.7522   -0.2011 H   0  0  0  0  0  0  0  0  0  0  0  0
    4.8831    5.3399    0.4039 H   0  0  0  0  0  0  0  0  0  0  0  0
    3.8328    4.5289   -0.7622 H   0  0  0  0  0  0  0  0  0  0  0  0
    3.8656    2.1744   -1.0337 H   0  0  0  0  0  0  0  0  0  0  0  0
    3.2507    0.1780   -2.2387 H   0  0  0  0  0  0  0  0  0  0  0  0
  1  2  1  0
  2  3  1  0
  3  4  2  0
  3  5  1  0
  5  6  1  0
  6  7  1  0
  7  8  1  0
  8  9  2  0
  9 10  1  0
 10 11  2  0
 11 12  1  0
 12 13  1  0
 12 14  2  0
  5 15  1  0
 15 16  1  0
 16 17  2  0
 17 18  1  0
 18 19  2  0
 19 20  1  0
 20 21  1  0
 21 22  1  0
 20 23  2  0
 23 24  1  0
 24 25  1  0
 23 26  1  0
 26 27  2  0
 27 28  1  0
 28 29  1  0
 29 30  2  0
 14  8  1  0
 29 16  1  0
 27 18  1  0
  1 31  1  0
  1 32  1  0
  1 33  1  0
  2 34  1  0
  6 35  1  0
  6 36  1  0
  7 37  1  0
  7 38  1  0
  9 39  1  0
 10 40  1  0
 11 41  1  0
 13 42  1  0
 13 43  1  0
 13 44  1  0
 14 45  1  0
 15 46  1  0
 15 47  1  0
 17 48  1  0
 19 49  1  0
 22 50  1  0
 22 51  1  0
 22 52  1  0
 25 53  1  0
 25 54  1  0
 25 55  1  0
 26 56  1  0
 28 57  1  0
M  END
$$$$
