
     RDKit          3D

 43 45  0  0  0  0  0  0  0  0999 V2000
    8.0836   -0.8327    0.3831 C   0  0  0  0  0  0  0  0  0  0  0  0
    6.7231   -0.4760    0.1334 O   0  0  0  0  0  0  0  0  0  0  0  0
    5.9295   -0.5326    1.2322 C   0  0  0  0  0  0  0  0  0  0  0  0
    6.2855   -0.8555    2.3545 O   0  0  0  0  0  0  0  0  0  0  0  0
    4.5333   -0.1439    0.8925 C   0  0  0  0  0  0  0  0  0  0  0  0
    4.1417    0.2050   -0.4067 C   0  0  0  0  0  0  0  0  0  0  0  0
    2.8140    0.5627   -0.6769 C   0  0  0  0  0  0  0  0  0  0  0  0
    1.8674    0.5735    0.3481 C   0  0  0  0  0  0  0  0  0  0  0  0
    0.5463    0.8989    0.2213 O   0  0  0  0  0  0  0  0  0  0  0  0
    0.0662    1.1697   -1.0889 C   0  0  0  0  0  0  0  0  0  0  0  0
   -1.4363    1.4848   -1.0554 C   0  0  0  0  0  0  0  0  0  0  0  0
   -1.7843    2.6217   -1.3883 O   0  0  0  0  0  0  0  0  0  0  0  0
   -2.3134    0.4358   -0.6961 N   0  0  0  0  0  0  0  0  0  0  0  0
   -1.8211   -0.9496   -0.6818 C   0  0  0  0  0  0  0  0  0  0  0  0
   -2.7392   -1.9508   -0.0063 C   0  0  0  0  0  0  0  0  0  0  0  0
   -4.1041   -1.8828   -0.6524 C   0  0  0  0  0  0  0  0  0  0  0  0
   -4.6207   -0.4742   -0.5666 C   0  0  0  0  0  0  0  0  0  0  0  0
   -6.0144   -0.2864   -0.4995 C   0  0  0  0  0  0  0  0  0  0  0  0
   -6.5544    0.9903   -0.4026 C   0  0  0  0  0  0  0  0  0  0  0  0
   -5.7054    2.0866   -0.3683 C   0  0  0  0  0  0  0  0  0  0  0  0
   -4.3193    1.9077   -0.4527 C   0  0  0  0  0  0  0  0  0  0  0  0
   -3.7441    0.6339   -0.5830 C   0  0  0  0  0  0  0  0  0  0  0  0
    2.2591    0.2300    1.6443 C   0  0  0  0  0  0  0  0  0  0  0  0
    3.5817   -0.1284    1.9183 C   0  0  0  0  0  0  0  0  0  0  0  0
    8.1503   -1.8669    0.7354 H   0  0  0  0  0  0  0  0  0  0  0  0
    8.6330   -0.7519   -0.5589 H   0  0  0  0  0  0  0  0  0  0  0  0
    8.5337   -0.1457    1.1066 H   0  0  0  0  0  0  0  0  0  0  0  0
    4.8604    0.2069   -1.2231 H   0  0  0  0  0  0  0  0  0  0  0  0
    2.5604    0.8335   -1.6969 H   0  0  0  0  0  0  0  0  0  0  0  0
    0.5729    2.0569   -1.4898 H   0  0  0  0  0  0  0  0  0  0  0  0
    0.2390    0.3294   -1.7713 H   0  0  0  0  0  0  0  0  0  0  0  0
   -1.6433   -1.2378   -1.7258 H   0  0  0  0  0  0  0  0  0  0  0  0
   -0.8583   -0.9984   -0.1690 H   0  0  0  0  0  0  0  0  0  0  0  0
   -2.3269   -2.9617   -0.0980 H   0  0  0  0  0  0  0  0  0  0  0  0
   -2.8127   -1.7242    1.0653 H   0  0  0  0  0  0  0  0  0  0  0  0
   -4.0565   -2.1858   -1.7051 H   0  0  0  0  0  0  0  0  0  0  0  0
   -4.7777   -2.5747   -0.1334 H   0  0  0  0  0  0  0  0  0  0  0  0
   -6.6849   -1.1431   -0.5135 H   0  0  0  0  0  0  0  0  0  0  0  0
   -7.6302    1.1287   -0.3432 H   0  0  0  0  0  0  0  0  0  0  0  0
   -6.1123    3.0903   -0.2745 H   0  0  0  0  0  0  0  0  0  0  0  0
   -3.7142    2.8062   -0.3896 H   0  0  0  0  0  0  0  0  0  0  0  0
    1.5288    0.2427    2.4507 H   0  0  0  0  0  0  0  0  0  0  0  0
    3.8640   -0.3920    2.9360 H   0  0  0  0  0  0  0  0  0  0  0  0
  1  2  1  0
  2  3  1  0
  3  4  2  0
  3  5  1  0
  5  6  2  0
  6  7  1  0
  7  8  2  0
  8  9  1  0
  9 10  1  0
 10 11  1  0
 11 12  2  0
 11 13  1  0
 13 14  1  0
 14 15  1  0
 15 16  1  0
 16 17  1  0
 17 18  2  0
 18 19  1  0
 19 20  2  0
 20 21  1  0
 21 22  2  0
  8 23  1  0
 23 24  2  0
 24  5  1  0
 22 13  1  0
 22 17  1  0
  1 25  1  0
  1 26  1  0
  1 27  1  0
  6 28  1  0
  7 29  1  0
 10 30  1  0
 10 31  1  0
 14 32  1  0
 14 33  1  0
 15 34  1  0
 15 35  1  0
 16 36  1  0
 16 37  1  0
 18 38  1  0
 19 39  1  0
 20 40  1  0
 21 41  1  0
 23 42  1  0
 24 43  1  0
M  END
$$$$
