
     RDKit          3D

 70 76  0  0  0  0  0  0  0  0999 V2000
   -6.3037   -3.9575    0.1252 C   0  0  0  0  0  0  0  0  0  0  0  0
   -5.1215   -3.3477    0.8175 C   0  0  0  0  0  0  0  0  0  0  0  0
   -4.8937   -3.5381    2.1943 C   0  0  0  0  0  0  0  0  0  0  0  0
   -5.9788   -4.4779    3.1606 Cl  0  0  0  0  0  0  0  0  0  0  0  0
   -3.7748   -2.9786    2.8432 C   0  0  0  0  0  0  0  0  0  0  0  0
   -2.8453   -2.2153    2.1370 C   0  0  0  0  0  0  0  0  0  0  0  0
   -3.0588   -2.0224    0.7825 C   0  0  0  0  0  0  0  0  0  0  0  0
   -4.1732   -2.5886    0.1432 C   0  0  0  0  0  0  0  0  0  0  0  0
   -4.1455   -2.2681   -1.2136 N   0  0  0  0  0  0  0  0  0  0  0  0
   -3.0294   -1.4963   -1.5454 C   0  0  0  0  0  0  0  0  0  0  0  0
   -2.7557   -1.1139   -2.6727 O   0  0  0  0  0  0  0  0  0  0  0  0
   -2.2474   -1.2667   -0.2280 C   0  0  1  0  0  0  0  0  0  0  0  0
   -2.1683    0.1675    0.1663 C   0  0  0  0  0  0  0  0  0  0  0  0
   -0.8795    0.6599   -0.0994 C   0  0  0  0  0  0  0  0  0  0  0  0
   -0.8251    1.9791    0.2576 C   0  0  0  0  0  0  0  0  0  0  0  0
    0.1572    2.8629    0.0986 O   0  0  0  0  0  0  0  0  0  0  0  0
   -2.0861    2.3229    0.8004 N   0  0  0  0  0  0  0  0  0  0  0  0
   -2.4596    3.6079    1.3294 C   0  0  0  0  0  0  0  0  0  0  0  0
   -1.4886    4.4861    1.8333 C   0  0  0  0  0  0  0  0  0  0  0  0
   -1.8519    5.7339    2.3511 C   0  0  0  0  0  0  0  0  0  0  0  0
   -3.1879    6.1222    2.3708 C   0  0  0  0  0  0  0  0  0  0  0  0
   -4.1623    5.2624    1.8731 C   0  0  0  0  0  0  0  0  0  0  0  0
   -3.8022    4.0130    1.3570 C   0  0  0  0  0  0  0  0  0  0  0  0
   -2.9128    1.1764    0.7227 C   0  0  0  0  0  0  0  0  0  0  0  0
   -4.1579    1.1533    1.1935 O   0  0  0  0  0  0  0  0  0  0  0  0
   -0.0571   -0.3983   -0.7249 C   0  0  1  0  0  0  0  0  0  0  0  0
    1.4032   -0.5496   -0.3057 C   0  0  0  0  0  0  0  0  0  0  0  0
    1.9831   -1.7931   -0.8647 N   0  0  0  0  0  0  0  0  0  0  0  0
    3.3518   -1.9855   -1.0410 C   0  0  0  0  0  0  0  0  0  0  0  0
    3.8331   -3.1029   -1.2307 O   0  0  0  0  0  0  0  0  0  0  0  0
    4.2240   -0.7425   -1.0122 C   0  0  0  0  0  0  0  0  0  0  0  0
    5.6922   -1.0714   -1.2779 C   0  0  0  0  0  0  0  0  0  0  0  0
    6.5424    0.1757   -1.2693 C   0  0  0  0  0  0  0  0  0  0  0  0
    6.6899    0.9418   -2.4338 C   0  0  0  0  0  0  0  0  0  0  0  0
    7.4589    2.1065   -2.4210 C   0  0  0  0  0  0  0  0  0  0  0  0
    8.0839    2.5174   -1.2450 C   0  0  0  0  0  0  0  0  0  0  0  0
    7.9399    1.7648   -0.0806 C   0  0  0  0  0  0  0  0  0  0  0  0
    7.1708    0.6000   -0.0909 C   0  0  0  0  0  0  0  0  0  0  0  0
    1.1479   -3.0065   -0.7398 C   0  0  0  0  0  0  0  0  0  0  0  0
   -0.3596   -2.7797   -1.0200 C   0  0  0  0  0  0  0  0  0  0  0  0
   -0.8102   -1.6112   -0.2812 N   0  0  0  0  0  0  0  0  0  0  0  0
   -6.2081   -5.0476    0.1077 H   0  0  0  0  0  0  0  0  0  0  0  0
   -7.2326   -3.6814    0.6340 H   0  0  0  0  0  0  0  0  0  0  0  0
   -6.4019   -3.6184   -0.9099 H   0  0  0  0  0  0  0  0  0  0  0  0
   -3.6259   -3.1435    3.9089 H   0  0  0  0  0  0  0  0  0  0  0  0
   -1.9804   -1.7859    2.6352 H   0  0  0  0  0  0  0  0  0  0  0  0
   -4.8143   -2.5608   -1.9106 H   0  0  0  0  0  0  0  0  0  0  0  0
    0.8424    2.4674   -0.4642 H   0  0  0  0  0  0  0  0  0  0  0  0
   -0.4383    4.2139    1.8715 H   0  0  0  0  0  0  0  0  0  0  0  0
   -1.0868    6.3985    2.7438 H   0  0  0  0  0  0  0  0  0  0  0  0
   -3.4688    7.0919    2.7722 H   0  0  0  0  0  0  0  0  0  0  0  0
   -5.2066    5.5625    1.8798 H   0  0  0  0  0  0  0  0  0  0  0  0
   -4.5939    3.3930    0.9483 H   0  0  0  0  0  0  0  0  0  0  0  0
   -4.4935    0.2421    1.1372 H   0  0  0  0  0  0  0  0  0  0  0  0
   -0.1196   -0.2908   -1.8174 H   0  0  0  0  0  0  0  0  0  0  0  0
    1.5086   -0.6045    0.7855 H   0  0  0  0  0  0  0  0  0  0  0  0
    1.9710    0.3224   -0.6404 H   0  0  0  0  0  0  0  0  0  0  0  0
    4.1273   -0.2687   -0.0284 H   0  0  0  0  0  0  0  0  0  0  0  0
    3.8597   -0.0465   -1.7768 H   0  0  0  0  0  0  0  0  0  0  0  0
    6.0672   -1.7782   -0.5263 H   0  0  0  0  0  0  0  0  0  0  0  0
    5.8040   -1.5796   -2.2443 H   0  0  0  0  0  0  0  0  0  0  0  0
    6.2098    0.6322   -3.3597 H   0  0  0  0  0  0  0  0  0  0  0  0
    7.5728    2.6916   -3.3299 H   0  0  0  0  0  0  0  0  0  0  0  0
    8.6852    3.4226   -1.2368 H   0  0  0  0  0  0  0  0  0  0  0  0
    8.4294    2.0843    0.8358 H   0  0  0  0  0  0  0  0  0  0  0  0
    7.0687    0.0226    0.8254 H   0  0  0  0  0  0  0  0  0  0  0  0
    1.5244   -3.7853   -1.4123 H   0  0  0  0  0  0  0  0  0  0  0  0
    1.2804   -3.3695    0.2877 H   0  0  0  0  0  0  0  0  0  0  0  0
   -0.9106   -3.6746   -0.7105 H   0  0  0  0  0  0  0  0  0  0  0  0
   -0.5110   -2.6517   -2.0984 H   0  0  0  0  0  0  0  0  0  0  0  0
  1  2  1  0
  2  3  2  0
  3  4  1  0
  3  5  1  0
  5  6  2  0
  6  7  1  0
  7  8  2  0
  8  9  1  0
  9 10  1  0
 10 11  2  0
 10 12  1  0
 12 13  1  0
 13 14  1  0
 14 15  2  0
 15 16  1  0
 15 17  1  0
 17 18  1  0
 18 19  2  0
 19 20  1  0
 20 21  2  0
 21 22  1  0
 22 23  2  0
 17 24  1  0
 24 25  1  0
 14 26  1  0
 26 27  1  0
 27 28  1  0
 28 29  1  0
 29 30  2  0
 29 31  1  0
 31 32  1  0
 32 33  1  0
 33 34  2  0
 34 35  1  0
 35 36  2  0
 36 37  1  0
 37 38  2  0
 28 39  1  0
 39 40  1  0
 40 41  1  0
  8  2  1  0
 12 41  1  6
 12  7  1  0
 24 13  2  0
 41 26  1  0
 23 18  1  0
 38 33  1  0
  1 42  1  0
  1 43  1  0
  1 44  1  0
  5 45  1  0
  6 46  1  0
  9 47  1  0
 16 48  1  0
 19 49  1  0
 20 50  1  0
 21 51  1  0
 22 52  1  0
 23 53  1  0
 25 54  1  0
 26 55  1  6
 27 56  1  0
 27 57  1  0
 31 58  1  0
 31 59  1  0
 32 60  1  0
 32 61  1  0
 34 62  1  0
 35 63  1  0
 36 64  1  0
 37 65  1  0
 38 66  1  0
 39 67  1  0
 39 68  1  0
 40 69  1  0
 40 70  1  0
M  END
$$$$
