
     RDKit          3D

 36 38  0  0  0  0  0  0  0  0999 V2000
   -5.7488    0.4293    0.0090 C   0  0  0  0  0  0  0  0  0  0  0  0
   -4.2706    0.6933   -0.0478 C   0  0  0  0  0  0  0  0  0  0  0  0
   -3.7986    2.0019   -0.2541 C   0  0  0  0  0  0  0  0  0  0  0  0
   -2.4311    2.2607   -0.3429 C   0  0  0  0  0  0  0  0  0  0  0  0
   -1.5500    1.1960   -0.2311 C   0  0  0  0  0  0  0  0  0  0  0  0
   -1.9914   -0.1300   -0.0368 C   0  0  0  0  0  0  0  0  0  0  0  0
   -3.3593   -0.3742    0.0474 C   0  0  0  0  0  0  0  0  0  0  0  0
   -0.9441   -1.0748    0.0522 N   0  0  0  0  0  0  0  0  0  0  0  0
   -1.2772   -2.4893    0.0544 C   0  0  0  0  0  0  0  0  0  0  0  0
    0.3053   -0.4808   -0.1377 C   0  0  0  0  0  0  0  0  0  0  0  0
    1.4962   -1.1088   -0.1607 C   0  0  0  0  0  0  0  0  0  0  0  0
    2.7952   -0.4596   -0.3611 C   0  0  0  0  0  0  0  0  0  0  0  0
    3.3235   -0.3671   -1.6543 C   0  0  0  0  0  0  0  0  0  0  0  0
    4.5442    0.2605   -1.8632 C   0  0  0  0  0  0  0  0  0  0  0  0
    5.2230    0.7929   -0.7790 C   0  0  0  0  0  0  0  0  0  0  0  0
    4.6724    0.6835    0.4918 C   0  0  0  0  0  0  0  0  0  0  0  0
    3.4870    0.0587    0.6913 N   0  0  0  0  0  4  0  0  0  0  0  0
    2.9530   -0.0214    2.0665 C   0  0  0  0  0  0  0  0  0  0  0  0
    0.2306    1.2969   -0.3387 S   0  0  0  0  0  0  0  0  0  0  0  0
   -6.2843    1.2919    0.4194 H   0  0  0  0  0  0  0  0  0  0  0  0
   -5.9675   -0.4262    0.6567 H   0  0  0  0  0  0  0  0  0  0  0  0
   -6.1296    0.2207   -0.9954 H   0  0  0  0  0  0  0  0  0  0  0  0
   -4.5026    2.8272   -0.3491 H   0  0  0  0  0  0  0  0  0  0  0  0
   -2.0739    3.2727   -0.5039 H   0  0  0  0  0  0  0  0  0  0  0  0
   -3.7424   -1.3800    0.1880 H   0  0  0  0  0  0  0  0  0  0  0  0
   -1.9854   -2.7274    0.8558 H   0  0  0  0  0  0  0  0  0  0  0  0
   -0.3997   -3.1189    0.2287 H   0  0  0  0  0  0  0  0  0  0  0  0
   -1.7120   -2.7859   -0.9064 H   0  0  0  0  0  0  0  0  0  0  0  0
    1.5549   -2.1857   -0.0436 H   0  0  0  0  0  0  0  0  0  0  0  0
    2.7771   -0.7725   -2.5048 H   0  0  0  0  0  0  0  0  0  0  0  0
    4.9567    0.3418   -2.8679 H   0  0  0  0  0  0  0  0  0  0  0  0
    6.1765    1.2972   -0.9232 H   0  0  0  0  0  0  0  0  0  0  0  0
    5.1785    1.0989    1.3591 H   0  0  0  0  0  0  0  0  0  0  0  0
    2.6362   -1.0486    2.2639 H   0  0  0  0  0  0  0  0  0  0  0  0
    3.7355    0.2447    2.7822 H   0  0  0  0  0  0  0  0  0  0  0  0
    2.1226    0.6825    2.1520 H   0  0  0  0  0  0  0  0  0  0  0  0
  1  2  1  0
  2  3  2  0
  3  4  1  0
  4  5  2  0
  5  6  1  0
  6  7  2  0
  6  8  1  0
  8  9  1  0
  8 10  1  0
 10 11  2  3
 11 12  1  0
 12 13  2  0
 13 14  1  0
 14 15  2  0
 15 16  1  0
 16 17  2  0
 17 18  1  0
 10 19  1  0
  7  2  1  0
 17 12  1  0
 19  5  1  0
  1 20  1  0
  1 21  1  0
  1 22  1  0
  3 23  1  0
  4 24  1  0
  7 25  1  0
  9 26  1  0
  9 27  1  0
  9 28  1  0
 11 29  1  0
 13 30  1  0
 14 31  1  0
 15 32  1  0
 16 33  1  0
 18 34  1  0
 18 35  1  0
 18 36  1  0
M  CHG  1  17   1
M  END
$$$$
