
     RDKit          3D

 61 64  0  0  0  0  0  0  0  0999 V2000
    7.5309    3.2058    1.3331 C   0  0  0  0  0  0  0  0  0  0  0  0
    6.7864    2.2456    2.0844 O   0  0  0  0  0  0  0  0  0  0  0  0
    5.8045    1.6946    1.2966 C   0  0  0  0  0  0  0  0  0  0  0  0
    4.5074    2.1787    1.4567 C   0  0  0  0  0  0  0  0  0  0  0  0
    3.4704    1.6472    0.6877 C   0  0  0  0  0  0  0  0  0  0  0  0
    3.7245    0.6226   -0.2328 C   0  0  0  0  0  0  0  0  0  0  0  0
    2.6317    0.1685   -0.9986 N   0  0  0  0  0  0  0  0  0  0  0  0
    2.5926   -0.9070   -1.8690 C   0  0  0  0  0  0  0  0  0  0  0  0
    3.4993   -1.7136   -2.0648 O   0  0  0  0  0  0  0  0  0  0  0  0
    1.2792   -1.0232   -2.6254 C   0  0  0  0  0  0  0  0  0  0  0  0
    0.0195   -1.8614   -1.6243 S   0  0  0  0  0  0  0  0  0  0  0  0
   -0.6889   -0.5229   -0.7768 C   0  0  0  0  0  0  0  0  0  0  0  0
   -0.1193    0.6576   -0.6758 N   0  0  0  0  0  0  0  0  0  0  0  0
   -0.8863    1.4260    0.1479 N   0  0  0  0  0  0  0  0  0  0  0  0
   -1.9365    0.7143    0.5211 C   0  0  0  0  0  0  0  0  0  0  0  0
   -3.1211    1.2827    1.2369 C   0  0  0  0  0  0  0  0  0  0  0  0
   -4.3152    1.4352    0.3392 C   0  0  0  0  0  0  0  0  0  0  0  0
   -5.4847    0.6940    0.3097 C   0  0  0  0  0  0  0  0  0  0  0  0
   -6.3014    1.2086   -0.7217 C   0  0  0  0  0  0  0  0  0  0  0  0
   -5.6203    2.2564   -1.2957 C   0  0  0  0  0  0  0  0  0  0  0  0
   -4.4213    2.3965   -0.6458 N   0  0  0  0  0  0  0  0  0  0  0  0
   -3.4364    3.4078   -0.9713 C   0  0  0  0  0  0  0  0  0  0  0  0
   -1.8354   -0.5734    0.0002 N   0  0  0  0  0  0  0  0  0  0  0  0
   -2.7141   -1.6657    0.2174 C   0  0  0  0  0  0  0  0  0  0  0  0
   -3.1518   -2.4464   -0.8579 C   0  0  0  0  0  0  0  0  0  0  0  0
   -4.0128   -3.5238   -0.6338 C   0  0  0  0  0  0  0  0  0  0  0  0
   -4.4483   -3.8304    0.6593 C   0  0  0  0  0  0  0  0  0  0  0  0
   -5.3393   -5.0121    0.9033 C   0  0  0  0  0  0  0  0  0  0  0  0
   -3.9947   -3.0546    1.7326 C   0  0  0  0  0  0  0  0  0  0  0  0
   -3.1359   -1.9735    1.5157 C   0  0  0  0  0  0  0  0  0  0  0  0
    5.0282    0.1265   -0.3653 C   0  0  0  0  0  0  0  0  0  0  0  0
    6.0772    0.6459    0.4059 C   0  0  0  0  0  0  0  0  0  0  0  0
    7.3782    0.2129    0.3567 O   0  0  0  0  0  0  0  0  0  0  0  0
    7.6666   -0.8846   -0.4992 C   0  0  0  0  0  0  0  0  0  0  0  0
    8.0115    2.7615    0.4540 H   0  0  0  0  0  0  0  0  0  0  0  0
    6.8895    4.0414    1.0286 H   0  0  0  0  0  0  0  0  0  0  0  0
    8.3184    3.6027    1.9821 H   0  0  0  0  0  0  0  0  0  0  0  0
    4.3081    2.9702    2.1736 H   0  0  0  0  0  0  0  0  0  0  0  0
    2.4645    2.0412    0.8188 H   0  0  0  0  0  0  0  0  0  0  0  0
    1.7424    0.6394   -0.8246 H   0  0  0  0  0  0  0  0  0  0  0  0
    1.4610   -1.6192   -3.5250 H   0  0  0  0  0  0  0  0  0  0  0  0
    0.9428   -0.0394   -2.9691 H   0  0  0  0  0  0  0  0  0  0  0  0
   -3.3790    0.6835    2.1142 H   0  0  0  0  0  0  0  0  0  0  0  0
   -2.8508    2.2668    1.6405 H   0  0  0  0  0  0  0  0  0  0  0  0
   -5.7207   -0.1403    0.9589 H   0  0  0  0  0  0  0  0  0  0  0  0
   -7.2806    0.8543   -1.0148 H   0  0  0  0  0  0  0  0  0  0  0  0
   -5.8956    2.9107   -2.1129 H   0  0  0  0  0  0  0  0  0  0  0  0
   -3.1267    3.9090   -0.0505 H   0  0  0  0  0  0  0  0  0  0  0  0
   -3.8805    4.1409   -1.6511 H   0  0  0  0  0  0  0  0  0  0  0  0
   -2.5891    2.9203   -1.4608 H   0  0  0  0  0  0  0  0  0  0  0  0
   -2.8691   -2.2188   -1.8830 H   0  0  0  0  0  0  0  0  0  0  0  0
   -4.3438   -4.1217   -1.4811 H   0  0  0  0  0  0  0  0  0  0  0  0
   -6.0776   -4.7863    1.6809 H   0  0  0  0  0  0  0  0  0  0  0  0
   -5.8920   -5.2852   -0.0011 H   0  0  0  0  0  0  0  0  0  0  0  0
   -4.7406   -5.8724    1.2189 H   0  0  0  0  0  0  0  0  0  0  0  0
   -4.3000   -3.2978    2.7486 H   0  0  0  0  0  0  0  0  0  0  0  0
   -2.7722   -1.4237    2.3802 H   0  0  0  0  0  0  0  0  0  0  0  0
    5.2289   -0.6557   -1.0848 H   0  0  0  0  0  0  0  0  0  0  0  0
    7.0536   -1.7588   -0.2586 H   0  0  0  0  0  0  0  0  0  0  0  0
    8.7129   -1.1626   -0.3437 H   0  0  0  0  0  0  0  0  0  0  0  0
    7.5515   -0.5950   -1.5483 H   0  0  0  0  0  0  0  0  0  0  0  0
  1  2  1  0
  2  3  1  0
  3  4  2  0
  4  5  1  0
  5  6  2  0
  6  7  1  0
  7  8  1  0
  8  9  2  0
  8 10  1  0
 10 11  1  0
 11 12  1  0
 12 13  2  0
 13 14  1  0
 14 15  2  0
 15 16  1  0
 16 17  1  0
 17 18  2  0
 18 19  1  0
 19 20  2  0
 20 21  1  0
 21 22  1  0
 15 23  1  0
 23 24  1  0
 24 25  2  0
 25 26  1  0
 26 27  2  0
 27 28  1  0
 27 29  1  0
 29 30  2  0
  6 31  1  0
 31 32  2  0
 32 33  1  0
 33 34  1  0
 32  3  1  0
 23 12  1  0
 30 24  1  0
 21 17  1  0
  1 35  1  0
  1 36  1  0
  1 37  1  0
  4 38  1  0
  5 39  1  0
  7 40  1  0
 10 41  1  0
 10 42  1  0
 16 43  1  0
 16 44  1  0
 18 45  1  0
 19 46  1  0
 20 47  1  0
 22 48  1  0
 22 49  1  0
 22 50  1  0
 25 51  1  0
 26 52  1  0
 28 53  1  0
 28 54  1  0
 28 55  1  0
 29 56  1  0
 30 57  1  0
 31 58  1  0
 34 59  1  0
 34 60  1  0
 34 61  1  0
M  END
$$$$
