
     RDKit          3D

 35 36  0  0  0  0  0  0  0  0999 V2000
   -5.5042   -2.0607   -1.5578 C   0  0  0  0  0  0  0  0  0  0  0  0
   -4.3574   -1.2069   -1.1053 C   0  0  0  0  0  0  0  0  0  0  0  0
   -3.9391   -0.1155   -1.8699 C   0  0  0  0  0  0  0  0  0  0  0  0
   -2.8487    0.6667   -1.4676 C   0  0  0  0  0  0  0  0  0  0  0  0
   -2.1428    0.3698   -0.2984 C   0  0  0  0  0  0  0  0  0  0  0  0
   -1.0344    1.1318    0.1463 N   0  0  0  0  0  0  0  0  0  0  0  0
   -0.4600    2.2360   -0.4602 C   0  0  0  0  0  0  0  0  0  0  0  0
   -0.8142    2.7526   -1.5168 O   0  0  0  0  0  0  0  0  0  0  0  0
    0.7207    2.8148    0.3263 C   0  0  0  0  0  0  0  0  0  0  0  0
    1.9224    2.0603    0.1654 O   0  0  0  0  0  0  0  0  0  0  0  0
    2.0357    0.9924    0.9844 C   0  0  0  0  0  0  0  0  0  0  0  0
    1.1963    0.6019    1.7785 O   0  0  0  0  0  0  0  0  0  0  0  0
    3.2796    0.2663    0.6890 C   0  0  0  0  0  0  0  0  0  0  0  0
    3.1576   -1.0937    0.3692 C   0  0  0  0  0  0  0  0  0  0  0  0
    4.2988   -1.8358    0.0764 C   0  0  0  0  0  0  0  0  0  0  0  0
    4.1546   -3.5006   -0.3276 Cl  0  0  0  0  0  0  0  0  0  0  0  0
    5.5579   -1.2384    0.1088 C   0  0  0  0  0  0  0  0  0  0  0  0
    5.6795    0.1125    0.4471 C   0  0  0  0  0  0  0  0  0  0  0  0
    4.5413    0.8695    0.7442 C   0  0  0  0  0  0  0  0  0  0  0  0
    4.7747    2.5119    1.2220 Cl  0  0  0  0  0  0  0  0  0  0  0  0
   -2.5616   -0.7385    0.4605 C   0  0  0  0  0  0  0  0  0  0  0  0
   -1.6816   -1.2411    2.0706 Br  0  0  0  0  0  0  0  0  0  0  0  0
   -3.6519   -1.5212    0.0592 C   0  0  0  0  0  0  0  0  0  0  0  0
   -5.1380   -2.8731   -2.1929 H   0  0  0  0  0  0  0  0  0  0  0  0
   -6.0321   -2.4915   -0.7005 H   0  0  0  0  0  0  0  0  0  0  0  0
   -6.2322   -1.4697   -2.1234 H   0  0  0  0  0  0  0  0  0  0  0  0
   -4.4588    0.1426   -2.7910 H   0  0  0  0  0  0  0  0  0  0  0  0
   -2.5787    1.5046   -2.1025 H   0  0  0  0  0  0  0  0  0  0  0  0
   -0.5898    0.7950    1.0038 H   0  0  0  0  0  0  0  0  0  0  0  0
    0.4515    2.9310    1.3836 H   0  0  0  0  0  0  0  0  0  0  0  0
    0.9163    3.8240   -0.0530 H   0  0  0  0  0  0  0  0  0  0  0  0
    2.1770   -1.5652    0.3462 H   0  0  0  0  0  0  0  0  0  0  0  0
    6.4490   -1.8192   -0.1191 H   0  0  0  0  0  0  0  0  0  0  0  0
    6.6680    0.5657    0.4858 H   0  0  0  0  0  0  0  0  0  0  0  0
   -3.9552   -2.3783    0.6566 H   0  0  0  0  0  0  0  0  0  0  0  0
  1  2  1  0
  2  3  2  0
  3  4  1  0
  4  5  2  0
  5  6  1  0
  6  7  1  0
  7  8  2  0
  7  9  1  0
  9 10  1  0
 10 11  1  0
 11 12  2  0
 11 13  1  0
 13 14  2  0
 14 15  1  0
 15 16  1  0
 15 17  2  0
 17 18  1  0
 18 19  2  0
 19 20  1  0
  5 21  1  0
 21 22  1  0
 21 23  2  0
 23  2  1  0
 19 13  1  0
  1 24  1  0
  1 25  1  0
  1 26  1  0
  3 27  1  0
  4 28  1  0
  6 29  1  0
  9 30  1  0
  9 31  1  0
 14 32  1  0
 17 33  1  0
 18 34  1  0
 23 35  1  0
M  END
$$$$
