
     RDKit          3D

 40 42  0  0  0  0  0  0  0  0999 V2000
    3.2166    0.3908   -1.6018 O   0  0  0  0  0  0  0  0  0  0  0  0
    3.2135    0.2724   -0.3830 C   0  0  0  0  0  0  0  0  0  0  0  0
    2.1835   -0.2068    0.4057 N   0  0  0  0  0  0  0  0  0  0  0  0
    0.9520   -0.7411   -0.0283 C   0  0  0  0  0  0  0  0  0  0  0  0
    0.6296   -0.9671   -1.3693 C   0  0  0  0  0  0  0  0  0  0  0  0
   -0.6120   -1.5085   -1.7206 C   0  0  0  0  0  0  0  0  0  0  0  0
   -1.5397   -1.8182   -0.7242 C   0  0  0  0  0  0  0  0  0  0  0  0
   -3.0951   -2.5429   -1.1765 S   0  0  0  0  0  6  0  0  0  0  0  0
   -3.7957   -2.9746    0.0148 O   0  0  0  0  0  0  0  0  0  0  0  0
   -2.8149   -3.4954   -2.2345 O   0  0  0  0  0  0  0  0  0  0  0  0
   -3.9327   -1.3033   -1.9137 N   0  0  0  0  0  0  0  0  0  0  0  0
   -4.5420   -0.3026   -1.1386 C   0  0  0  0  0  0  0  0  0  0  0  0
   -5.7049    0.2979   -1.5990 C   0  0  0  0  0  0  0  0  0  0  0  0
   -6.2421    1.3531   -0.8663 C   0  0  0  0  0  0  0  0  0  0  0  0
   -5.5880    1.7838    0.2811 C   0  0  0  0  0  0  0  0  0  0  0  0
   -4.4150    1.1423    0.6414 C   0  0  0  0  0  0  0  0  0  0  0  0
   -3.8728    0.1194   -0.0545 N   0  0  0  0  0  0  0  0  0  0  0  0
   -1.2262   -1.6148    0.6196 C   0  0  0  0  0  0  0  0  0  0  0  0
    0.0164   -1.0743    0.9624 C   0  0  0  0  0  0  0  0  0  0  0  0
    4.4172    0.7246    0.3689 C   0  0  0  0  0  0  0  0  0  0  0  0
    4.8707    0.0437    1.5078 C   0  0  0  0  0  0  0  0  0  0  0  0
    6.0062    0.4954    2.1839 C   0  0  0  0  0  0  0  0  0  0  0  0
    6.6934    1.6186    1.7216 C   0  0  0  0  0  0  0  0  0  0  0  0
    6.2494    2.2821    0.5778 C   0  0  0  0  0  0  0  0  0  0  0  0
    7.1921    3.7955   -0.0504 Br  0  0  0  0  0  0  0  0  0  0  0  0
    5.1188    1.8394   -0.1053 C   0  0  0  0  0  0  0  0  0  0  0  0
    2.2850   -0.1040    1.4067 H   0  0  0  0  0  0  0  0  0  0  0  0
    1.3280   -0.7407   -2.1693 H   0  0  0  0  0  0  0  0  0  0  0  0
   -0.8420   -1.6870   -2.7682 H   0  0  0  0  0  0  0  0  0  0  0  0
   -4.3399   -1.5687   -2.8031 H   0  0  0  0  0  0  0  0  0  0  0  0
   -6.1960   -0.0429   -2.5028 H   0  0  0  0  0  0  0  0  0  0  0  0
   -7.1593    1.8367   -1.1906 H   0  0  0  0  0  0  0  0  0  0  0  0
   -5.9776    2.6023    0.8762 H   0  0  0  0  0  0  0  0  0  0  0  0
   -3.8596    1.4461    1.5242 H   0  0  0  0  0  0  0  0  0  0  0  0
   -1.9452   -1.8608    1.3978 H   0  0  0  0  0  0  0  0  0  0  0  0
    0.2367   -0.9154    2.0147 H   0  0  0  0  0  0  0  0  0  0  0  0
    4.3715   -0.8554    1.8600 H   0  0  0  0  0  0  0  0  0  0  0  0
    6.3640   -0.0343    3.0640 H   0  0  0  0  0  0  0  0  0  0  0  0
    7.5786    1.9620    2.2517 H   0  0  0  0  0  0  0  0  0  0  0  0
    4.7774    2.3527   -1.0019 H   0  0  0  0  0  0  0  0  0  0  0  0
  1  2  2  0
  2  3  1  0
  3  4  1  0
  4  5  2  0
  5  6  1  0
  6  7  2  0
  7  8  1  0
  8  9  2  0
  8 10  2  0
  8 11  1  0
 11 12  1  0
 12 13  2  0
 13 14  1  0
 14 15  2  0
 15 16  1  0
 16 17  2  0
  7 18  1  0
 18 19  2  0
  2 20  1  0
 20 21  2  0
 21 22  1  0
 22 23  2  0
 23 24  1  0
 24 25  1  0
 24 26  2  0
 19  4  1  0
 26 20  1  0
 17 12  1  0
  3 27  1  0
  5 28  1  0
  6 29  1  0
 11 30  1  0
 13 31  1  0
 14 32  1  0
 15 33  1  0
 16 34  1  0
 18 35  1  0
 19 36  1  0
 21 37  1  0
 22 38  1  0
 23 39  1  0
 26 40  1  0
M  END
$$$$
