
     RDKit          3D

 24 25  0  0  0  0  0  0  0  0999 V2000
    4.4923   -1.0857    1.0892 C   0  0  0  0  0  0  0  0  0  0  0  0
    2.7043   -0.8195    1.0908 S   0  0  0  0  0  0  0  0  0  0  0  0
    2.4548   -0.2227   -0.5172 C   0  0  0  0  0  0  0  0  0  0  0  0
    3.4292   -0.0441   -1.3834 N   0  0  0  0  0  0  0  0  0  0  0  0
    2.8686    0.5393   -2.4785 N   0  0  0  0  0  0  0  0  0  0  0  0
    1.5721    0.7281   -2.3042 N   0  0  0  0  0  0  0  0  0  0  0  0
    1.2584    0.2170   -1.0787 N   0  0  0  0  0  0  0  0  0  0  0  0
   -0.1014    0.2215   -0.6460 C   0  0  0  0  0  0  0  0  0  0  0  0
   -0.5470   -0.4686    0.4842 C   0  0  0  0  0  0  0  0  0  0  0  0
   -1.8975   -0.4272    0.8581 C   0  0  0  0  0  0  0  0  0  0  0  0
   -2.8360    0.2971    0.1121 C   0  0  0  0  0  0  0  0  0  0  0  0
   -4.2746    0.3166    0.5455 C   0  0  0  0  0  0  0  0  0  0  0  0
   -2.3939    0.9769   -1.0285 C   0  0  0  0  0  0  0  0  0  0  0  0
   -3.4828    1.8883   -2.0131 Cl  0  0  0  0  0  0  0  0  0  0  0  0
   -1.0463    0.9372   -1.4057 C   0  0  0  0  0  0  0  0  0  0  0  0
    4.7739   -1.8151    0.3246 H   0  0  0  0  0  0  0  0  0  0  0  0
    4.7973   -1.4740    2.0648 H   0  0  0  0  0  0  0  0  0  0  0  0
    5.0229   -0.1461    0.9113 H   0  0  0  0  0  0  0  0  0  0  0  0
    0.1002   -1.0819    1.0990 H   0  0  0  0  0  0  0  0  0  0  0  0
   -2.2117   -0.9786    1.7437 H   0  0  0  0  0  0  0  0  0  0  0  0
   -4.9121   -0.1244   -0.2275 H   0  0  0  0  0  0  0  0  0  0  0  0
   -4.5988    1.3423    0.7487 H   0  0  0  0  0  0  0  0  0  0  0  0
   -4.4245   -0.2613    1.4638 H   0  0  0  0  0  0  0  0  0  0  0  0
   -0.7475    1.4846   -2.2993 H   0  0  0  0  0  0  0  0  0  0  0  0
  1  2  1  0
  2  3  1  0
  3  4  2  0
  4  5  1  0
  5  6  2  0
  6  7  1  0
  7  8  1  0
  8  9  2  0
  9 10  1  0
 10 11  2  0
 11 12  1  0
 11 13  1  0
 13 14  1  0
 13 15  2  0
  7  3  1  0
 15  8  1  0
  1 16  1  0
  1 17  1  0
  1 18  1  0
  9 19  1  0
 10 20  1  0
 12 21  1  0
 12 22  1  0
 12 23  1  0
 15 24  1  0
M  END
$$$$
