
     RDKit          3D

 59 61  0  0  0  0  0  0  0  0999 V2000
   -5.4547   -2.5036   -1.7094 C   0  0  0  0  0  0  0  0  0  0  0  0
   -5.8009   -2.2715   -0.4339 C   0  0  0  0  0  0  0  0  0  0  0  0
   -5.0584   -1.3821    0.5687 C   0  0  0  0  0  0  0  0  0  0  0  0
   -6.0435   -0.8984    1.6637 C   0  0  0  0  0  0  0  0  0  0  0  0
   -4.0592   -2.3236    1.2895 C   0  0  0  0  0  0  0  0  0  0  0  0
   -4.3946   -0.1475   -0.0904 C   0  0  0  0  0  0  0  0  0  0  0  0
   -2.9986    0.0553   -0.0353 C   0  0  0  0  0  0  0  0  0  0  0  0
   -2.3712    1.1738   -0.6209 C   0  0  0  0  0  0  0  0  0  0  0  0
   -0.8630    1.3537   -0.5627 C   0  0  2  0  0  0  0  0  0  0  0  0
   -0.2079    0.7269   -1.7855 C   0  0  0  0  0  0  0  0  0  0  0  0
    1.2729    0.9539   -1.6925 C   0  0  0  0  0  0  0  0  0  0  0  0
    1.9952    1.0568   -2.6819 O   0  0  0  0  0  0  0  0  0  0  0  0
    1.8654    0.9786   -0.3401 C   0  0  0  0  0  0  0  0  0  0  0  0
    1.0094    0.8538    0.7541 C   0  0  0  0  0  0  0  0  0  0  0  0
    1.5299    0.7948    2.0441 C   0  0  0  0  0  0  0  0  0  0  0  0
    2.9085    0.8947    2.2356 C   0  0  0  0  0  0  0  0  0  0  0  0
    3.4181    0.8429    3.5043 O   0  0  0  0  0  0  0  0  0  0  0  0
    3.7920    1.0485    1.1540 C   0  0  0  0  0  0  0  0  0  0  0  0
    5.2873    1.1281    1.3797 C   0  0  0  0  0  0  0  0  0  0  0  0
    5.9224   -0.2332    1.5094 C   0  0  0  0  0  0  0  0  0  0  0  0
    6.7805   -0.8427    0.6673 C   0  0  0  0  0  0  0  0  0  0  0  0
    7.3171   -2.2145    0.9819 C   0  0  0  0  0  0  0  0  0  0  0  0
    7.2756   -0.2704   -0.6319 C   0  0  0  0  0  0  0  0  0  0  0  0
    3.2508    1.0825   -0.1423 C   0  0  0  0  0  0  0  0  0  0  0  0
    4.1152    1.2180   -1.1999 O   0  0  0  0  0  0  0  0  0  0  0  0
   -0.3529    0.7543    0.6441 O   0  0  0  0  0  0  0  0  0  0  0  0
   -3.1677    2.0985   -1.2986 C   0  0  0  0  0  0  0  0  0  0  0  0
   -2.5647    3.1701   -1.8955 O   0  0  0  0  0  0  0  0  0  0  0  0
   -4.5465    1.9355   -1.3799 C   0  0  0  0  0  0  0  0  0  0  0  0
   -5.1462    0.8242   -0.7802 C   0  0  0  0  0  0  0  0  0  0  0  0
   -6.5036    0.6819   -0.8834 O   0  0  0  0  0  0  0  0  0  0  0  0
   -6.0531   -3.1583   -2.3348 H   0  0  0  0  0  0  0  0  0  0  0  0
   -4.5765   -2.0503   -2.1574 H   0  0  0  0  0  0  0  0  0  0  0  0
   -6.6904   -2.7741   -0.0564 H   0  0  0  0  0  0  0  0  0  0  0  0
   -6.4469   -1.7421    2.2377 H   0  0  0  0  0  0  0  0  0  0  0  0
   -6.9068   -0.3627    1.2573 H   0  0  0  0  0  0  0  0  0  0  0  0
   -5.5443   -0.2280    2.3739 H   0  0  0  0  0  0  0  0  0  0  0  0
   -4.5736   -3.1781    1.7480 H   0  0  0  0  0  0  0  0  0  0  0  0
   -3.3135   -2.7358    0.5985 H   0  0  0  0  0  0  0  0  0  0  0  0
   -3.5253   -1.8045    2.0947 H   0  0  0  0  0  0  0  0  0  0  0  0
   -2.3626   -0.6661    0.4720 H   0  0  0  0  0  0  0  0  0  0  0  0
   -0.6398    2.4286   -0.4997 H   0  0  0  0  0  0  0  0  0  0  0  0
   -0.5778    1.1876   -2.7079 H   0  0  0  0  0  0  0  0  0  0  0  0
   -0.3793   -0.3547   -1.8349 H   0  0  0  0  0  0  0  0  0  0  0  0
    0.8521    0.6802    2.8845 H   0  0  0  0  0  0  0  0  0  0  0  0
    2.6920    0.7235    4.1384 H   0  0  0  0  0  0  0  0  0  0  0  0
    5.4869    1.6906    2.3012 H   0  0  0  0  0  0  0  0  0  0  0  0
    5.7548    1.7353    0.5990 H   0  0  0  0  0  0  0  0  0  0  0  0
    5.6358   -0.7560    2.4221 H   0  0  0  0  0  0  0  0  0  0  0  0
    7.0383   -2.9207    0.1930 H   0  0  0  0  0  0  0  0  0  0  0  0
    6.9311   -2.6057    1.9291 H   0  0  0  0  0  0  0  0  0  0  0  0
    8.4092   -2.1865    1.0546 H   0  0  0  0  0  0  0  0  0  0  0  0
    6.8803    0.7221   -0.8540 H   0  0  0  0  0  0  0  0  0  0  0  0
    6.9932   -0.9264   -1.4622 H   0  0  0  0  0  0  0  0  0  0  0  0
    8.3676   -0.1895   -0.6137 H   0  0  0  0  0  0  0  0  0  0  0  0
    3.5975    1.1824   -2.0355 H   0  0  0  0  0  0  0  0  0  0  0  0
   -3.2435    3.7300   -2.3086 H   0  0  0  0  0  0  0  0  0  0  0  0
   -5.1527    2.6642   -1.9064 H   0  0  0  0  0  0  0  0  0  0  0  0
   -6.8597    1.3554   -1.4832 H   0  0  0  0  0  0  0  0  0  0  0  0
  1  2  2  0
  2  3  1  0
  3  4  1  0
  3  5  1  0
  3  6  1  0
  6  7  2  0
  7  8  1  0
  8  9  1  0
  9 10  1  0
 10 11  1  0
 11 12  2  0
 11 13  1  0
 13 14  2  0
 14 15  1  0
 15 16  2  0
 16 17  1  0
 16 18  1  0
 18 19  1  0
 19 20  1  0
 20 21  2  3
 21 22  1  0
 21 23  1  0
 18 24  2  0
 24 25  1  0
 14 26  1  0
  8 27  2  0
 27 28  1  0
 27 29  1  0
 29 30  2  0
 30 31  1  0
 30  6  1  0
 26  9  1  0
 24 13  1  0
  1 32  1  0
  1 33  1  0
  2 34  1  0
  4 35  1  0
  4 36  1  0
  4 37  1  0
  5 38  1  0
  5 39  1  0
  5 40  1  0
  7 41  1  0
  9 42  1  1
 10 43  1  0
 10 44  1  0
 15 45  1  0
 17 46  1  0
 19 47  1  0
 19 48  1  0
 20 49  1  0
 22 50  1  0
 22 51  1  0
 22 52  1  0
 23 53  1  0
 23 54  1  0
 23 55  1  0
 25 56  1  0
 28 57  1  0
 29 58  1  0
 31 59  1  0
M  END
$$$$
