
     RDKit          3D

 52 54  0  0  0  0  0  0  0  0999 V2000
   -3.8882   -2.7113   -1.8227 C   0  0  0  0  0  0  0  0  0  0  0  0
   -3.9708   -2.1484   -0.4826 N   0  0  0  0  0  0  0  0  0  0  0  0
   -5.2774   -1.6455   -0.0577 C   0  0  0  0  0  0  0  0  0  0  0  0
   -5.7145   -0.4319   -0.8457 C   0  0  0  0  0  0  0  0  0  0  0  0
   -6.7814   -0.5133   -1.7527 C   0  0  0  0  0  0  0  0  0  0  0  0
   -7.1737    0.6077   -2.4865 C   0  0  0  0  0  0  0  0  0  0  0  0
   -6.5045    1.8192   -2.3228 C   0  0  0  0  0  0  0  0  0  0  0  0
   -5.4433    1.9123   -1.4247 C   0  0  0  0  0  0  0  0  0  0  0  0
   -5.0503    0.7936   -0.6891 C   0  0  0  0  0  0  0  0  0  0  0  0
   -2.8569   -1.8102    0.2810 C   0  0  0  0  0  0  0  0  0  0  0  0
   -2.9535   -1.2624    1.3827 O   0  0  0  0  0  0  0  0  0  0  0  0
   -1.4759   -2.1615   -0.2933 C   0  0  0  0  0  0  0  0  0  0  0  0
   -0.4080   -1.6202    0.4892 O   0  0  0  0  0  0  0  0  0  0  0  0
   -0.2555   -0.2715    0.3577 C   0  0  0  0  0  0  0  0  0  0  0  0
   -0.8620    0.4305   -0.4444 O   0  0  0  0  0  0  0  0  0  0  0  0
    0.7575    0.2415    1.3620 C   0  0  0  0  0  0  0  0  0  0  0  0
    1.1410    1.6180    1.0221 N   0  0  0  0  0  0  0  0  0  0  0  0
    2.3312    2.3634    1.9186 S   0  0  0  0  0  6  0  0  0  0  0  0
    2.2783    1.8310    3.2617 O   0  0  0  0  0  0  0  0  0  0  0  0
    2.2295    3.7800    1.6508 O   0  0  0  0  0  0  0  0  0  0  0  0
    3.8037    1.7738    1.1258 C   0  0  0  0  0  0  0  0  0  0  0  0
    4.1356    2.2597   -0.1395 C   0  0  0  0  0  0  0  0  0  0  0  0
    5.2941    1.8014   -0.7677 C   0  0  0  0  0  0  0  0  0  0  0  0
    6.1290    0.8634   -0.1373 C   0  0  0  0  0  0  0  0  0  0  0  0
    7.2970    0.3938   -0.7584 C   0  0  0  0  0  0  0  0  0  0  0  0
    8.1206   -0.5350   -0.1202 C   0  0  0  0  0  0  0  0  0  0  0  0
    7.7885   -1.0055    1.1469 C   0  0  0  0  0  0  0  0  0  0  0  0
    6.6312   -0.5493    1.7797 C   0  0  0  0  0  0  0  0  0  0  0  0
    5.7908    0.3834    1.1515 C   0  0  0  0  0  0  0  0  0  0  0  0
    4.6247    0.8491    1.7772 C   0  0  0  0  0  0  0  0  0  0  0  0
   -4.7937   -3.2861   -2.0375 H   0  0  0  0  0  0  0  0  0  0  0  0
   -3.0299   -3.3804   -1.9154 H   0  0  0  0  0  0  0  0  0  0  0  0
   -3.7836   -1.8966   -2.5448 H   0  0  0  0  0  0  0  0  0  0  0  0
   -5.9990   -2.4635   -0.1729 H   0  0  0  0  0  0  0  0  0  0  0  0
   -5.2750   -1.3917    1.0086 H   0  0  0  0  0  0  0  0  0  0  0  0
   -7.3151   -1.4502   -1.8939 H   0  0  0  0  0  0  0  0  0  0  0  0
   -8.0026    0.5369   -3.1861 H   0  0  0  0  0  0  0  0  0  0  0  0
   -6.8099    2.6918   -2.8939 H   0  0  0  0  0  0  0  0  0  0  0  0
   -4.9190    2.8557   -1.2952 H   0  0  0  0  0  0  0  0  0  0  0  0
   -4.2185    0.8809    0.0086 H   0  0  0  0  0  0  0  0  0  0  0  0
   -1.3841   -1.8282   -1.3327 H   0  0  0  0  0  0  0  0  0  0  0  0
   -1.3671   -3.2506   -0.2677 H   0  0  0  0  0  0  0  0  0  0  0  0
    0.2849    0.2180    2.3482 H   0  0  0  0  0  0  0  0  0  0  0  0
    1.6390   -0.4057    1.3367 H   0  0  0  0  0  0  0  0  0  0  0  0
    0.4080    2.2376    0.6703 H   0  0  0  0  0  0  0  0  0  0  0  0
    3.5013    2.9904   -0.6366 H   0  0  0  0  0  0  0  0  0  0  0  0
    5.5446    2.1851   -1.7547 H   0  0  0  0  0  0  0  0  0  0  0  0
    7.5767    0.7511   -1.7471 H   0  0  0  0  0  0  0  0  0  0  0  0
    9.0231   -0.8885   -0.6123 H   0  0  0  0  0  0  0  0  0  0  0  0
    8.4313   -1.7265    1.6453 H   0  0  0  0  0  0  0  0  0  0  0  0
    6.3917   -0.9275    2.7714 H   0  0  0  0  0  0  0  0  0  0  0  0
    4.3599    0.4924    2.7707 H   0  0  0  0  0  0  0  0  0  0  0  0
  1  2  1  0
  2  3  1  0
  3  4  1  0
  4  5  2  0
  5  6  1  0
  6  7  2  0
  7  8  1  0
  8  9  2  0
  2 10  1  0
 10 11  2  0
 10 12  1  0
 12 13  1  0
 13 14  1  0
 14 15  2  0
 14 16  1  0
 16 17  1  0
 17 18  1  0
 18 19  2  0
 18 20  2  0
 18 21  1  0
 21 22  2  0
 22 23  1  0
 23 24  2  0
 24 25  1  0
 25 26  2  0
 26 27  1  0
 27 28  2  0
 28 29  1  0
 29 30  2  0
  9  4  1  0
 30 21  1  0
 29 24  1  0
  1 31  1  0
  1 32  1  0
  1 33  1  0
  3 34  1  0
  3 35  1  0
  5 36  1  0
  6 37  1  0
  7 38  1  0
  8 39  1  0
  9 40  1  0
 12 41  1  0
 12 42  1  0
 16 43  1  0
 16 44  1  0
 17 45  1  0
 22 46  1  0
 23 47  1  0
 25 48  1  0
 26 49  1  0
 27 50  1  0
 28 51  1  0
 30 52  1  0
M  END
$$$$
