
     RDKit          3D

 97 99  0  0  0  0  0  0  0  0999 V2000
   -2.5869    4.6956    0.4813 C   0  0  0  0  0  0  0  0  0  0  0  0
   -2.4157    3.4091   -0.2691 C   0  0  0  0  0  0  0  0  0  0  0  0
   -2.2228    3.3373   -1.4739 O   0  0  0  0  0  0  0  0  0  0  0  0
   -2.5131    2.3602    0.5853 O   0  0  0  0  0  0  0  0  0  0  0  0
   -2.1760    1.0522    0.0606 C   0  0  1  0  0  0  0  0  0  0  0  0
   -1.5607    0.2387    1.2426 C   0  0  2  0  0  0  0  0  0  0  0  0
   -2.4814    0.3383    2.3562 O   0  0  0  0  0  0  0  0  0  0  0  0
   -2.6753   -0.7620    3.1229 C   0  0  0  0  0  0  0  0  0  0  0  0
   -3.7358   -0.4985    4.1520 C   0  0  0  0  0  0  0  0  0  0  0  0
   -2.0814   -1.8277    3.0079 O   0  0  0  0  0  0  0  0  0  0  0  0
   -0.1696    0.6910    1.6760 C   0  0  0  0  0  0  0  0  0  0  0  0
   -0.0682    1.4590    2.9699 C   0  0  0  0  0  0  0  0  0  0  0  0
    0.9562    0.4206    0.9810 C   0  0  0  0  0  0  0  0  0  0  0  0
    1.0654   -0.1795   -0.4035 C   0  0  1  0  0  0  0  0  0  0  0  0
    1.7050    0.8101   -1.4132 C   0  0  1  0  0  0  0  0  0  0  0  0
    2.9915    1.2678   -0.9585 O   0  0  0  0  0  0  0  0  0  0  0  0
    3.0479    2.4998   -0.3970 C   0  0  0  0  0  0  0  0  0  0  0  0
    2.1166    3.2764   -0.2669 O   0  0  0  0  0  0  0  0  0  0  0  0
    4.4225    2.7713    0.0963 C   0  0  0  0  0  0  0  0  0  0  0  0
    5.5181    1.9687   -0.2606 C   0  0  0  0  0  0  0  0  0  0  0  0
    6.7908    2.2616    0.2308 C   0  0  0  0  0  0  0  0  0  0  0  0
    6.9754    3.3507    1.0854 C   0  0  0  0  0  0  0  0  0  0  0  0
    5.8888    4.1543    1.4443 C   0  0  0  0  0  0  0  0  0  0  0  0
    4.6172    3.8696    0.9476 C   0  0  0  0  0  0  0  0  0  0  0  0
    1.9034   -0.0989   -2.6287 C   0  0  1  0  0  0  0  0  0  0  0  0
    2.7638    0.4964   -3.7302 C   0  0  0  0  0  0  0  0  0  0  0  0
    2.5121   -1.3595   -2.0130 C   0  0  0  0  0  0  0  0  0  0  0  0
    1.8533   -1.5199   -0.6069 C   0  0  1  0  0  0  0  0  0  0  0  0
    2.8899   -1.5557    0.4346 O   0  0  0  0  0  0  0  0  0  0  0  0
    3.8815   -2.4841    0.3922 C   0  0  0  0  0  0  0  0  0  0  0  0
    4.7153   -2.4016    1.6367 C   0  0  0  0  0  0  0  0  0  0  0  0
    4.0983   -3.2560   -0.5304 O   0  0  0  0  0  0  0  0  0  0  0  0
    0.9828   -2.8262   -0.4915 C   0  0  1  0  0  0  0  0  0  0  0  0
    0.4701   -2.9377    0.8619 O   0  0  0  0  0  0  0  0  0  0  0  0
    0.7524   -4.0969    1.5310 C   0  0  0  0  0  0  0  0  0  0  0  0
    0.0950   -4.1085    2.8713 C   0  0  0  0  0  0  0  0  0  0  0  0
    1.4273   -5.0257    1.1073 O   0  0  0  0  0  0  0  0  0  0  0  0
   -0.1998   -3.0205   -1.5047 C   0  0  1  0  0  0  0  0  0  0  0  0
   -0.6220   -4.5004   -1.5521 C   0  0  0  0  0  0  0  0  0  0  0  0
   -1.4577   -2.2067   -1.2260 C   0  0  0  0  0  0  0  0  0  0  0  0
   -1.9337   -1.2813   -2.0795 C   0  0  0  0  0  0  0  0  0  0  0  0
   -3.1627   -0.3845   -1.9384 C   0  0  0  0  0  0  0  0  0  0  0  0
   -4.3984   -1.2487   -2.2851 C   0  0  0  0  0  0  0  0  0  0  0  0
   -3.0495    0.6995   -3.0416 C   0  0  0  0  0  0  0  0  0  0  0  0
   -3.4141    0.2956   -0.5229 C   0  0  2  0  0  0  0  0  0  0  0  0
   -4.5574    1.1807   -0.6878 O   0  0  0  0  0  0  0  0  0  0  0  0
   -5.3901    1.3675    0.3682 C   0  0  0  0  0  0  0  0  0  0  0  0
   -6.5440    2.2207   -0.0553 C   0  0  0  0  0  0  0  0  0  0  0  0
   -5.2502    0.9286    1.4979 O   0  0  0  0  0  0  0  0  0  0  0  0
   -3.5871    4.7319    0.9261 H   0  0  0  0  0  0  0  0  0  0  0  0
   -1.8168    4.7704    1.2557 H   0  0  0  0  0  0  0  0  0  0  0  0
   -2.4770    5.5384   -0.2070 H   0  0  0  0  0  0  0  0  0  0  0  0
   -1.4186    1.1838   -0.7153 H   0  0  0  0  0  0  0  0  0  0  0  0
   -1.4787   -0.8093    0.9540 H   0  0  0  0  0  0  0  0  0  0  0  0
   -3.6141   -1.2025    4.9805 H   0  0  0  0  0  0  0  0  0  0  0  0
   -4.7219   -0.6356    3.6986 H   0  0  0  0  0  0  0  0  0  0  0  0
   -3.6395    0.5132    4.5570 H   0  0  0  0  0  0  0  0  0  0  0  0
   -0.6943    2.3575    2.9174 H   0  0  0  0  0  0  0  0  0  0  0  0
    0.9546    1.7872    3.1755 H   0  0  0  0  0  0  0  0  0  0  0  0
   -0.3895    0.8493    3.8172 H   0  0  0  0  0  0  0  0  0  0  0  0
    1.9050    0.7235    1.4199 H   0  0  0  0  0  0  0  0  0  0  0  0
    0.0627   -0.3325   -0.7808 H   0  0  0  0  0  0  0  0  0  0  0  0
    1.0461    1.6456   -1.6599 H   0  0  0  0  0  0  0  0  0  0  0  0
    5.3925    1.1219   -0.9325 H   0  0  0  0  0  0  0  0  0  0  0  0
    7.6412    1.6448   -0.0579 H   0  0  0  0  0  0  0  0  0  0  0  0
    7.9662    3.5767    1.4690 H   0  0  0  0  0  0  0  0  0  0  0  0
    6.0352    5.0081    2.1035 H   0  0  0  0  0  0  0  0  0  0  0  0
    3.7735    4.4998    1.2311 H   0  0  0  0  0  0  0  0  0  0  0  0
    0.9252   -0.3491   -3.0542 H   0  0  0  0  0  0  0  0  0  0  0  0
    3.7473    0.8026   -3.3639 H   0  0  0  0  0  0  0  0  0  0  0  0
    2.9251   -0.2345   -4.5310 H   0  0  0  0  0  0  0  0  0  0  0  0
    2.2844    1.3777   -4.1695 H   0  0  0  0  0  0  0  0  0  0  0  0
    3.5973   -1.2254   -1.9269 H   0  0  0  0  0  0  0  0  0  0  0  0
    2.3555   -2.2286   -2.6638 H   0  0  0  0  0  0  0  0  0  0  0  0
    5.4443   -1.5906    1.5276 H   0  0  0  0  0  0  0  0  0  0  0  0
    5.2319   -3.3542    1.7785 H   0  0  0  0  0  0  0  0  0  0  0  0
    4.0771   -2.2314    2.5078 H   0  0  0  0  0  0  0  0  0  0  0  0
    1.6725   -3.6563   -0.6899 H   0  0  0  0  0  0  0  0  0  0  0  0
    0.4205   -3.2471    3.4619 H   0  0  0  0  0  0  0  0  0  0  0  0
   -0.9884   -4.1160    2.7468 H   0  0  0  0  0  0  0  0  0  0  0  0
    0.3839   -5.0183    3.4055 H   0  0  0  0  0  0  0  0  0  0  0  0
    0.1743   -2.7829   -2.5075 H   0  0  0  0  0  0  0  0  0  0  0  0
   -1.0655   -4.8361   -0.6080 H   0  0  0  0  0  0  0  0  0  0  0  0
   -1.3644   -4.6673   -2.3416 H   0  0  0  0  0  0  0  0  0  0  0  0
    0.2353   -5.1450   -1.7815 H   0  0  0  0  0  0  0  0  0  0  0  0
   -1.9826   -2.4352   -0.3007 H   0  0  0  0  0  0  0  0  0  0  0  0
   -1.3861   -1.1537   -3.0183 H   0  0  0  0  0  0  0  0  0  0  0  0
   -5.3131   -0.6422   -2.3386 H   0  0  0  0  0  0  0  0  0  0  0  0
   -4.5515   -2.0357   -1.5368 H   0  0  0  0  0  0  0  0  0  0  0  0
   -4.2816   -1.7438   -3.2559 H   0  0  0  0  0  0  0  0  0  0  0  0
   -3.0721    0.2471   -4.0418 H   0  0  0  0  0  0  0  0  0  0  0  0
   -2.1041    1.2466   -2.9643 H   0  0  0  0  0  0  0  0  0  0  0  0
   -3.8772    1.4175   -3.0056 H   0  0  0  0  0  0  0  0  0  0  0  0
   -3.7098   -0.5093    0.1665 H   0  0  0  0  0  0  0  0  0  0  0  0
   -6.1752    3.1759   -0.4378 H   0  0  0  0  0  0  0  0  0  0  0  0
   -7.1287    1.7014   -0.8187 H   0  0  0  0  0  0  0  0  0  0  0  0
   -7.1888    2.4213    0.8055 H   0  0  0  0  0  0  0  0  0  0  0  0
  1  2  1  0
  2  3  2  0
  2  4  1  0
  4  5  1  0
  5  6  1  0
  6  7  1  0
  7  8  1  0
  8  9  1  0
  8 10  2  0
  6 11  1  0
 11 12  1  0
 11 13  2  0
 13 14  1  0
 14 15  1  0
 15 16  1  0
 16 17  1  0
 17 18  2  0
 17 19  1  0
 19 20  2  0
 20 21  1  0
 21 22  2  0
 22 23  1  0
 23 24  2  0
 15 25  1  0
 25 26  1  0
 25 27  1  0
 27 28  1  0
 28 29  1  1
 29 30  1  0
 30 31  1  0
 30 32  2  0
 28 33  1  0
 33 34  1  0
 34 35  1  0
 35 36  1  0
 35 37  2  0
 33 38  1  0
 38 39  1  0
 38 40  1  0
 40 41  2  0
 41 42  1  0
 42 43  1  0
 42 44  1  0
 42 45  1  0
 45 46  1  0
 46 47  1  0
 47 48  1  0
 47 49  2  0
 45  5  1  0
 28 14  1  0
 24 19  1  0
  1 50  1  0
  1 51  1  0
  1 52  1  0
  5 53  1  6
  6 54  1  6
  9 55  1  0
  9 56  1  0
  9 57  1  0
 12 58  1  0
 12 59  1  0
 12 60  1  0
 13 61  1  0
 14 62  1  6
 15 63  1  6
 20 64  1  0
 21 65  1  0
 22 66  1  0
 23 67  1  0
 24 68  1  0
 25 69  1  6
 26 70  1  0
 26 71  1  0
 26 72  1  0
 27 73  1  0
 27 74  1  0
 31 75  1  0
 31 76  1  0
 31 77  1  0
 33 78  1  6
 36 79  1  0
 36 80  1  0
 36 81  1  0
 38 82  1  6
 39 83  1  0
 39 84  1  0
 39 85  1  0
 40 86  1  0
 41 87  1  0
 43 88  1  0
 43 89  1  0
 43 90  1  0
 44 91  1  0
 44 92  1  0
 44 93  1  0
 45 94  1  1
 48 95  1  0
 48 96  1  0
 48 97  1  0
M  END
$$$$
