
     RDKit          3D

 51 53  0  0  0  0  0  0  0  0999 V2000
   -9.5361    1.2110    1.0673 C   0  0  0  0  0  0  0  0  0  0  0  0
   -8.1015    1.0042    0.6835 C   0  0  0  0  0  0  0  0  0  0  0  0
   -7.6286    1.4073   -0.5678 C   0  0  0  0  0  0  0  0  0  0  0  0
   -6.2942    1.1864   -0.9243 C   0  0  0  0  0  0  0  0  0  0  0  0
   -5.4112    0.5504   -0.0423 C   0  0  0  0  0  0  0  0  0  0  0  0
   -4.0812    0.3732   -0.4798 N   0  0  0  0  0  0  0  0  0  0  0  0
   -3.0339   -0.2288    0.2120 C   0  0  0  0  0  0  0  0  0  0  0  0
   -3.0992   -0.7249    1.3317 O   0  0  0  0  0  0  0  0  0  0  0  0
   -1.7332   -0.2055   -0.6043 C   0  0  0  0  0  0  0  0  0  0  0  0
   -0.6697   -0.8388    0.0909 O   0  0  0  0  0  0  0  0  0  0  0  0
    0.5502   -0.8720   -0.5217 C   0  0  0  0  0  0  0  0  0  0  0  0
    0.8585   -0.3419   -1.7735 C   0  0  0  0  0  0  0  0  0  0  0  0
    2.1606   -0.4448   -2.2762 C   0  0  0  0  0  0  0  0  0  0  0  0
    3.1595   -1.0863   -1.5414 C   0  0  0  0  0  0  0  0  0  0  0  0
    4.4974   -1.1117   -2.0695 N   0  0  0  0  0  0  0  0  0  0  0  0
    5.2627   -2.3639   -1.9139 C   0  0  0  0  0  0  0  0  0  0  0  0
    5.3980    0.3407   -1.9272 S   0  0  0  0  0  6  0  0  0  0  0  0
    4.5749    1.4639   -2.3288 O   0  0  0  0  0  0  0  0  0  0  0  0
    6.6949    0.1275   -2.5397 O   0  0  0  0  0  0  0  0  0  0  0  0
    5.6710    0.4898   -0.1689 C   0  0  0  0  0  0  0  0  0  0  0  0
    6.8388   -0.0359    0.3983 C   0  0  0  0  0  0  0  0  0  0  0  0
    7.0592    0.1062    1.7689 C   0  0  0  0  0  0  0  0  0  0  0  0
    6.1242    0.7803    2.5499 C   0  0  0  0  0  0  0  0  0  0  0  0
    6.3392    0.9121    3.8651 F   0  0  0  0  0  0  0  0  0  0  0  0
    4.9734    1.3249    1.9870 C   0  0  0  0  0  0  0  0  0  0  0  0
    4.7463    1.1897    0.6171 C   0  0  0  0  0  0  0  0  0  0  0  0
    2.8540   -1.6059   -0.2822 C   0  0  0  0  0  0  0  0  0  0  0  0
    1.5536   -1.5020    0.2187 C   0  0  0  0  0  0  0  0  0  0  0  0
   -5.8893    0.1348    1.2001 C   0  0  0  0  0  0  0  0  0  0  0  0
   -7.2245    0.3561    1.5583 C   0  0  0  0  0  0  0  0  0  0  0  0
   -9.6166    1.4831    2.1251 H   0  0  0  0  0  0  0  0  0  0  0  0
   -9.9875    2.0227    0.4870 H   0  0  0  0  0  0  0  0  0  0  0  0
  -10.1073    0.2937    0.8912 H   0  0  0  0  0  0  0  0  0  0  0  0
   -8.2939    1.8986   -1.2744 H   0  0  0  0  0  0  0  0  0  0  0  0
   -5.9619    1.5198   -1.9038 H   0  0  0  0  0  0  0  0  0  0  0  0
   -3.8761    0.7310   -1.4034 H   0  0  0  0  0  0  0  0  0  0  0  0
   -1.9281   -0.7304   -1.5475 H   0  0  0  0  0  0  0  0  0  0  0  0
   -1.4865    0.8470   -0.7911 H   0  0  0  0  0  0  0  0  0  0  0  0
    0.1196    0.1630   -2.3862 H   0  0  0  0  0  0  0  0  0  0  0  0
    2.3932   -0.0159   -3.2490 H   0  0  0  0  0  0  0  0  0  0  0  0
    6.0956   -2.3926   -2.6223 H   0  0  0  0  0  0  0  0  0  0  0  0
    4.6276   -3.2266   -2.1441 H   0  0  0  0  0  0  0  0  0  0  0  0
    5.6501   -2.4793   -0.8982 H   0  0  0  0  0  0  0  0  0  0  0  0
    7.5775   -0.5462   -0.2165 H   0  0  0  0  0  0  0  0  0  0  0  0
    7.9552   -0.2951    2.2329 H   0  0  0  0  0  0  0  0  0  0  0  0
    4.2653    1.8546    2.6171 H   0  0  0  0  0  0  0  0  0  0  0  0
    3.8526    1.6237    0.1726 H   0  0  0  0  0  0  0  0  0  0  0  0
    3.6111   -2.0847    0.3306 H   0  0  0  0  0  0  0  0  0  0  0  0
    1.3193   -1.9107    1.1995 H   0  0  0  0  0  0  0  0  0  0  0  0
   -5.2520   -0.3679    1.9207 H   0  0  0  0  0  0  0  0  0  0  0  0
   -7.5707    0.0162    2.5324 H   0  0  0  0  0  0  0  0  0  0  0  0
  1  2  1  0
  2  3  2  0
  3  4  1  0
  4  5  2  0
  5  6  1  0
  6  7  1  0
  7  8  2  0
  7  9  1  0
  9 10  1  0
 10 11  1  0
 11 12  2  0
 12 13  1  0
 13 14  2  0
 14 15  1  0
 15 16  1  0
 15 17  1  0
 17 18  2  0
 17 19  2  0
 17 20  1  0
 20 21  2  0
 21 22  1  0
 22 23  2  0
 23 24  1  0
 23 25  1  0
 25 26  2  0
 14 27  1  0
 27 28  2  0
  5 29  1  0
 29 30  2  0
 30  2  1  0
 28 11  1  0
 26 20  1  0
  1 31  1  0
  1 32  1  0
  1 33  1  0
  3 34  1  0
  4 35  1  0
  6 36  1  0
  9 37  1  0
  9 38  1  0
 12 39  1  0
 13 40  1  0
 16 41  1  0
 16 42  1  0
 16 43  1  0
 21 44  1  0
 22 45  1  0
 25 46  1  0
 26 47  1  0
 27 48  1  0
 28 49  1  0
 29 50  1  0
 30 51  1  0
M  END
$$$$
