
     RDKit          3D

 37 39  0  0  0  0  0  0  0  0999 V2000
   -0.2233   -0.1375    4.8698 C   0  0  0  0  0  0  0  0  0  0  0  0
    1.3041   -0.4962    3.9621 S   0  0  0  0  0  0  0  0  0  0  0  0
    0.7202   -0.3643    2.2774 C   0  0  0  0  0  0  0  0  0  0  0  0
    1.5581   -0.7615    1.2569 C   0  0  0  0  0  0  0  0  0  0  0  0
    1.0953   -0.6330   -0.0374 C   0  0  0  0  0  0  0  0  0  0  0  0
    1.8721   -1.0226   -1.1217 N   0  0  0  0  0  0  0  0  0  0  0  0
    3.3215   -0.7568   -1.1206 C   0  0  0  0  0  0  0  0  0  0  0  0
    3.7503   -0.0622   -2.4249 C   0  0  0  0  0  0  0  0  0  0  0  0
    3.4239   -0.8019   -3.6090 O   0  0  0  0  0  0  0  0  0  0  0  0
    2.1953   -1.5388   -3.5000 C   0  0  0  0  0  0  0  0  0  0  0  0
    1.2266   -0.9832   -2.4447 C   0  0  0  0  0  0  0  0  0  0  0  0
   -0.1427   -0.1653   -0.2685 N   0  0  0  0  0  0  0  0  0  0  0  0
   -0.9017    0.1847    0.7868 C   0  0  0  0  0  0  0  0  0  0  0  0
   -2.2263    0.7456    0.4967 C   0  0  0  0  0  0  0  0  0  0  0  0
   -2.3482    1.7327   -0.5067 C   0  0  0  0  0  0  0  0  0  0  0  0
   -3.5786    2.3178   -0.8175 C   0  0  0  0  0  0  0  0  0  0  0  0
   -4.7232    1.9254   -0.1343 C   0  0  0  0  0  0  0  0  0  0  0  0
   -4.6362    0.9441    0.8513 C   0  0  0  0  0  0  0  0  0  0  0  0
   -3.4018    0.3550    1.1641 C   0  0  0  0  0  0  0  0  0  0  0  0
   -3.4294   -0.8995    2.3594 Cl  0  0  0  0  0  0  0  0  0  0  0  0
   -0.5051    0.1306    2.0635 N   0  0  0  0  0  0  0  0  0  0  0  0
   -0.5797    0.8729    4.6508 H   0  0  0  0  0  0  0  0  0  0  0  0
   -0.0207   -0.2029    5.9423 H   0  0  0  0  0  0  0  0  0  0  0  0
   -0.9997   -0.8666    4.6233 H   0  0  0  0  0  0  0  0  0  0  0  0
    2.5321   -1.1798    1.4720 H   0  0  0  0  0  0  0  0  0  0  0  0
    3.6320   -0.1233   -0.2821 H   0  0  0  0  0  0  0  0  0  0  0  0
    3.8394   -1.7187   -1.0316 H   0  0  0  0  0  0  0  0  0  0  0  0
    4.8335    0.0963   -2.4257 H   0  0  0  0  0  0  0  0  0  0  0  0
    3.2784    0.9244   -2.5050 H   0  0  0  0  0  0  0  0  0  0  0  0
    1.7221   -1.5354   -4.4871 H   0  0  0  0  0  0  0  0  0  0  0  0
    2.4571   -2.5772   -3.2652 H   0  0  0  0  0  0  0  0  0  0  0  0
    0.3161   -1.5942   -2.4461 H   0  0  0  0  0  0  0  0  0  0  0  0
    0.9604    0.0498   -2.7027 H   0  0  0  0  0  0  0  0  0  0  0  0
   -1.4619    2.0555   -1.0529 H   0  0  0  0  0  0  0  0  0  0  0  0
   -3.6379    3.0783   -1.5924 H   0  0  0  0  0  0  0  0  0  0  0  0
   -5.6836    2.3759   -0.3720 H   0  0  0  0  0  0  0  0  0  0  0  0
   -5.5387    0.6320    1.3719 H   0  0  0  0  0  0  0  0  0  0  0  0
  1  2  1  0
  2  3  1  0
  3  4  2  0
  4  5  1  0
  5  6  1  0
  6  7  1  0
  7  8  1  0
  8  9  1  0
  9 10  1  0
 10 11  1  0
  5 12  2  0
 12 13  1  0
 13 14  1  0
 14 15  2  0
 15 16  1  0
 16 17  2  0
 17 18  1  0
 18 19  2  0
 19 20  1  0
 13 21  2  0
 21  3  1  0
 11  6  1  0
 19 14  1  0
  1 22  1  0
  1 23  1  0
  1 24  1  0
  4 25  1  0
  7 26  1  0
  7 27  1  0
  8 28  1  0
  8 29  1  0
 10 30  1  0
 10 31  1  0
 11 32  1  0
 11 33  1  0
 15 34  1  0
 16 35  1  0
 17 36  1  0
 18 37  1  0
M  END
$$$$
