
     RDKit          3D

 64 67  0  0  0  0  0  0  0  0999 V2000
    6.2986   -1.2635   -7.7831 C   0  0  0  0  0  0  0  0  0  0  0  0
    5.2261   -1.6056   -6.8337 C   0  0  0  0  0  0  0  0  0  0  0  0
    4.5917   -0.9328   -5.8192 C   0  0  0  0  0  0  0  0  0  0  0  0
    3.6530   -1.8585   -5.3136 C   0  0  0  0  0  0  0  0  0  0  0  0
    2.7525   -1.7228   -4.2821 N   0  0  0  0  0  0  0  0  0  0  0  0
    2.5928   -0.5997   -3.5008 C   0  0  0  0  0  0  0  0  0  0  0  0
    3.1944    0.4618   -3.6330 O   0  0  0  0  0  0  0  0  0  0  0  0
    1.5506   -0.8224   -2.4249 C   0  0  0  0  0  0  0  0  0  0  0  0
    1.4237    0.3635   -1.4723 C   0  0  0  0  0  0  0  0  0  0  0  0
    0.3927    0.0619   -0.3906 C   0  0  0  0  0  0  0  0  0  0  0  0
    0.0752   -1.1069   -0.1589 O   0  0  0  0  0  0  0  0  0  0  0  0
   -0.1951    1.1486    0.2611 N   0  0  0  0  0  0  0  0  0  0  0  0
    0.4261    2.4295    0.3522 C   0  0  0  0  0  0  0  0  0  0  0  0
   -0.3090    3.5907    0.0985 C   0  0  0  0  0  0  0  0  0  0  0  0
    0.3037    4.8379    0.2142 C   0  0  0  0  0  0  0  0  0  0  0  0
    1.6375    4.8851    0.5928 C   0  0  0  0  0  0  0  0  0  0  0  0
    2.3772    3.7895    0.8601 N   0  0  0  0  0  0  0  0  0  0  0  0
    1.7567    2.5890    0.7415 C   0  0  0  0  0  0  0  0  0  0  0  0
   -1.3093    0.8964    1.2103 C   0  0  0  0  0  0  0  0  0  0  0  0
   -0.8455    0.0337    2.4201 C   0  0  0  0  0  0  0  0  0  0  0  0
    0.3358   -0.0342    2.7669 O   0  0  0  0  0  0  0  0  0  0  0  0
   -1.8556   -0.5515    3.1653 N   0  0  0  0  0  0  0  0  0  0  0  0
   -1.5727   -1.3039    4.3686 C   0  0  0  0  0  0  0  0  0  0  0  0
   -2.7311   -2.2215    4.7617 C   0  0  0  0  0  0  0  0  0  0  0  0
   -2.5657   -2.3716    6.2636 C   0  0  0  0  0  0  0  0  0  0  0  0
   -2.2082   -0.9638    6.7108 C   0  0  0  0  0  0  0  0  0  0  0  0
   -1.3364   -0.4008    5.5896 C   0  0  0  0  0  0  0  0  0  0  0  0
   -2.6134    0.4833    0.5223 C   0  0  0  0  0  0  0  0  0  0  0  0
   -2.8836   -0.8429    0.1514 C   0  0  0  0  0  0  0  0  0  0  0  0
   -4.0831   -1.1830   -0.4784 C   0  0  0  0  0  0  0  0  0  0  0  0
   -5.0370   -0.2045   -0.7432 C   0  0  0  0  0  0  0  0  0  0  0  0
   -4.7904    1.1177   -0.3856 C   0  0  0  0  0  0  0  0  0  0  0  0
   -3.5885    1.4585    0.2410 C   0  0  0  0  0  0  0  0  0  0  0  0
    3.7129   -3.0160   -5.9823 N   0  0  0  0  0  0  0  0  0  0  0  0
    4.7075   -2.8547   -6.9287 O   0  0  0  0  0  0  0  0  0  0  0  0
    6.8367   -0.3688   -7.4579 H   0  0  0  0  0  0  0  0  0  0  0  0
    5.8797   -1.0697   -8.7752 H   0  0  0  0  0  0  0  0  0  0  0  0
    7.0198   -2.0814   -7.8666 H   0  0  0  0  0  0  0  0  0  0  0  0
    4.7838    0.0792   -5.4922 H   0  0  0  0  0  0  0  0  0  0  0  0
    2.1993   -2.5550   -4.1091 H   0  0  0  0  0  0  0  0  0  0  0  0
    0.5881   -1.0099   -2.9146 H   0  0  0  0  0  0  0  0  0  0  0  0
    1.8273   -1.7259   -1.8685 H   0  0  0  0  0  0  0  0  0  0  0  0
    1.1270    1.2553   -2.0320 H   0  0  0  0  0  0  0  0  0  0  0  0
    2.3918    0.5468   -1.0016 H   0  0  0  0  0  0  0  0  0  0  0  0
   -1.3449    3.5363   -0.2254 H   0  0  0  0  0  0  0  0  0  0  0  0
   -0.2427    5.7515    0.0059 H   0  0  0  0  0  0  0  0  0  0  0  0
    2.1604    5.8322    0.6951 H   0  0  0  0  0  0  0  0  0  0  0  0
    2.3755    1.7379    1.0182 H   0  0  0  0  0  0  0  0  0  0  0  0
   -1.5381    1.8502    1.7108 H   0  0  0  0  0  0  0  0  0  0  0  0
   -2.8211   -0.3685    2.9196 H   0  0  0  0  0  0  0  0  0  0  0  0
   -0.6717   -1.9080    4.1933 H   0  0  0  0  0  0  0  0  0  0  0  0
   -3.7017   -1.7599    4.5361 H   0  0  0  0  0  0  0  0  0  0  0  0
   -2.6895   -3.1834    4.2386 H   0  0  0  0  0  0  0  0  0  0  0  0
   -3.4741   -2.7423    6.7470 H   0  0  0  0  0  0  0  0  0  0  0  0
   -1.7452   -3.0628    6.4882 H   0  0  0  0  0  0  0  0  0  0  0  0
   -1.6968   -0.9521    7.6779 H   0  0  0  0  0  0  0  0  0  0  0  0
   -3.1195   -0.3616    6.8062 H   0  0  0  0  0  0  0  0  0  0  0  0
   -1.5860    0.6490    5.4004 H   0  0  0  0  0  0  0  0  0  0  0  0
   -0.2780   -0.4367    5.8758 H   0  0  0  0  0  0  0  0  0  0  0  0
   -2.1653   -1.6351    0.3530 H   0  0  0  0  0  0  0  0  0  0  0  0
   -4.2690   -2.2159   -0.7639 H   0  0  0  0  0  0  0  0  0  0  0  0
   -5.9682   -0.4730   -1.2359 H   0  0  0  0  0  0  0  0  0  0  0  0
   -5.5334    1.8855   -0.5969 H   0  0  0  0  0  0  0  0  0  0  0  0
   -3.4286    2.4992    0.5121 H   0  0  0  0  0  0  0  0  0  0  0  0
  1  2  1  0
  2  3  2  0
  3  4  1  0
  4  5  1  0
  5  6  1  0
  6  7  2  0
  6  8  1  0
  8  9  1  0
  9 10  1  0
 10 11  2  0
 10 12  1  0
 12 13  1  0
 13 14  2  0
 14 15  1  0
 15 16  2  0
 16 17  1  0
 17 18  2  0
 12 19  1  0
 19 20  1  0
 20 21  2  0
 20 22  1  0
 22 23  1  0
 23 24  1  0
 24 25  1  0
 25 26  1  0
 26 27  1  0
 19 28  1  0
 28 29  2  0
 29 30  1  0
 30 31  2  0
 31 32  1  0
 32 33  2  0
  4 34  2  0
 34 35  1  0
 35  2  1  0
 18 13  1  0
 27 23  1  0
 33 28  1  0
  1 36  1  0
  1 37  1  0
  1 38  1  0
  3 39  1  0
  5 40  1  0
  8 41  1  0
  8 42  1  0
  9 43  1  0
  9 44  1  0
 14 45  1  0
 15 46  1  0
 16 47  1  0
 18 48  1  0
 19 49  1  0
 22 50  1  0
 23 51  1  0
 24 52  1  0
 24 53  1  0
 25 54  1  0
 25 55  1  0
 26 56  1  0
 26 57  1  0
 27 58  1  0
 27 59  1  0
 29 60  1  0
 30 61  1  0
 31 62  1  0
 32 63  1  0
 33 64  1  0
M  END
$$$$
