
     RDKit          3D

 48 51  0  0  0  0  0  0  0  0999 V2000
    0.5155   -0.1419    2.8911 C   0  0  0  0  0  0  0  0  0  0  0  0
    1.4391   -0.2107    1.7176 C   0  0  0  0  0  0  0  0  0  0  0  0
    1.2342   -0.7954    0.5248 C   0  0  0  0  0  0  0  0  0  0  0  0
    0.2443   -1.5688   -0.0182 N   0  0  0  0  0  0  0  0  0  0  0  0
   -0.7897   -2.2267    0.6080 C   0  0  0  0  0  0  0  0  0  0  0  0
   -0.9286   -2.3264    1.8263 O   0  0  0  0  0  0  0  0  0  0  0  0
   -1.7204   -2.9873   -0.3255 C   0  0  0  0  0  0  0  0  0  0  0  0
   -2.1339   -2.0899   -1.8527 S   0  0  0  0  0  0  0  0  0  0  0  0
   -3.1695   -0.8168   -1.1370 C   0  0  0  0  0  0  0  0  0  0  0  0
   -2.4895    0.0920   -0.4126 N   0  0  0  0  0  0  0  0  0  0  0  0
   -3.2214    1.0525    0.1534 C   0  0  0  0  0  0  0  0  0  0  0  0
   -4.5503    1.1834    0.0645 N   0  0  0  0  0  0  0  0  0  0  0  0
   -5.2051    0.2763   -0.6704 C   0  0  0  0  0  0  0  0  0  0  0  0
   -6.5863    0.3894   -0.7839 C   0  0  0  0  0  0  0  0  0  0  0  0
   -7.3474   -0.5140   -1.5313 C   0  0  0  0  0  0  0  0  0  0  0  0
   -6.7181   -1.5620   -2.1874 C   0  0  0  0  0  0  0  0  0  0  0  0
   -5.3348   -1.6994   -2.0883 C   0  0  0  0  0  0  0  0  0  0  0  0
   -4.5615   -0.7817   -1.3254 C   0  0  0  0  0  0  0  0  0  0  0  0
    2.4088   -0.4080   -0.3213 C   0  0  0  0  0  0  0  0  0  0  0  0
    2.4987   -0.7360   -1.4962 O   0  0  0  0  0  0  0  0  0  0  0  0
    3.2365    0.3811    0.4802 N   0  0  0  0  0  0  0  0  0  0  0  0
    4.1950    1.3198    0.0195 C   0  0  0  0  0  0  0  0  0  0  0  0
    4.5345    2.4470    0.7839 C   0  0  0  0  0  0  0  0  0  0  0  0
    5.4883    3.3668    0.3345 C   0  0  0  0  0  0  0  0  0  0  0  0
    6.1154    3.1764   -0.8931 C   0  0  0  0  0  0  0  0  0  0  0  0
    5.7833    2.0721   -1.6714 C   0  0  0  0  0  0  0  0  0  0  0  0
    4.8298    1.1519   -1.2188 C   0  0  0  0  0  0  0  0  0  0  0  0
    2.6733    0.4678    1.7874 N   0  0  0  0  0  0  0  0  0  0  0  0
    3.6064    0.0417    2.8482 C   0  0  0  0  0  0  0  0  0  0  0  0
    0.6478   -1.0089    3.5457 H   0  0  0  0  0  0  0  0  0  0  0  0
   -0.5297   -0.0653    2.5773 H   0  0  0  0  0  0  0  0  0  0  0  0
    0.7120    0.7620    3.4788 H   0  0  0  0  0  0  0  0  0  0  0  0
    0.3211   -1.6911   -1.0265 H   0  0  0  0  0  0  0  0  0  0  0  0
   -2.6458   -3.2233    0.2088 H   0  0  0  0  0  0  0  0  0  0  0  0
   -1.2312   -3.9279   -0.5942 H   0  0  0  0  0  0  0  0  0  0  0  0
   -2.6922    1.7948    0.7429 H   0  0  0  0  0  0  0  0  0  0  0  0
   -7.0897    1.2066   -0.2702 H   0  0  0  0  0  0  0  0  0  0  0  0
   -8.4266   -0.3932   -1.5959 H   0  0  0  0  0  0  0  0  0  0  0  0
   -7.3000   -2.2692   -2.7741 H   0  0  0  0  0  0  0  0  0  0  0  0
   -4.8578   -2.5237   -2.6149 H   0  0  0  0  0  0  0  0  0  0  0  0
    4.0367    2.6449    1.7297 H   0  0  0  0  0  0  0  0  0  0  0  0
    5.7300    4.2359    0.9403 H   0  0  0  0  0  0  0  0  0  0  0  0
    6.8539    3.8914   -1.2470 H   0  0  0  0  0  0  0  0  0  0  0  0
    6.2627    1.9208   -2.6348 H   0  0  0  0  0  0  0  0  0  0  0  0
    4.6093    0.2958   -1.8506 H   0  0  0  0  0  0  0  0  0  0  0  0
    3.1626    0.2161    3.8347 H   0  0  0  0  0  0  0  0  0  0  0  0
    3.8465   -1.0238    2.7523 H   0  0  0  0  0  0  0  0  0  0  0  0
    4.5435    0.6050    2.8160 H   0  0  0  0  0  0  0  0  0  0  0  0
  1  2  1  0
  2  3  2  0
  3  4  1  0
  4  5  1  0
  5  6  2  0
  5  7  1  0
  7  8  1  0
  8  9  1  0
  9 10  2  0
 10 11  1  0
 11 12  2  0
 12 13  1  0
 13 14  2  0
 14 15  1  0
 15 16  2  0
 16 17  1  0
 17 18  2  0
  3 19  1  0
 19 20  2  0
 19 21  1  0
 21 22  1  0
 22 23  2  0
 23 24  1  0
 24 25  2  0
 25 26  1  0
 26 27  2  0
 21 28  1  0
 28 29  1  0
 28  2  1  0
 18  9  1  0
 27 22  1  0
 18 13  1  0
  1 30  1  0
  1 31  1  0
  1 32  1  0
  4 33  1  0
  7 34  1  0
  7 35  1  0
 11 36  1  0
 14 37  1  0
 15 38  1  0
 16 39  1  0
 17 40  1  0
 23 41  1  0
 24 42  1  0
 25 43  1  0
 26 44  1  0
 27 45  1  0
 29 46  1  0
 29 47  1  0
 29 48  1  0
M  END
$$$$
