
     RDKit          3D

 37 39  0  0  0  0  0  0  0  0999 V2000
   -5.3595    2.6459    0.6993 C   0  0  0  0  0  0  0  0  0  0  0  0
   -4.9198    1.2498    1.0379 C   0  0  0  0  0  0  0  0  0  0  0  0
   -5.8203    0.3570    1.6396 C   0  0  0  0  0  0  0  0  0  0  0  0
   -5.4185   -0.9352    1.9774 C   0  0  0  0  0  0  0  0  0  0  0  0
   -4.1090   -1.3454    1.7286 C   0  0  0  0  0  0  0  0  0  0  0  0
   -3.2022   -0.4685    1.1300 C   0  0  0  0  0  0  0  0  0  0  0  0
   -3.6101    0.8201    0.7643 C   0  0  0  0  0  0  0  0  0  0  0  0
   -2.7590    1.7321    0.1949 O   0  0  0  0  0  0  0  0  0  0  0  0
   -1.9645    1.2229   -0.8670 C   0  0  0  0  0  0  0  0  0  0  0  0
   -0.5179    0.8647   -0.4890 C   0  0  0  0  0  0  0  0  0  0  0  0
   -0.0775    1.0238    0.6443 O   0  0  0  0  0  0  0  0  0  0  0  0
    0.1752    0.3518   -1.5694 N   0  0  0  0  0  0  0  0  0  0  0  0
    1.4824   -0.0675   -1.5851 C   0  0  0  0  0  0  0  0  0  0  0  0
    2.0380   -0.5593   -2.6689 N   0  0  0  0  0  0  0  0  0  0  0  0
    3.3542   -0.9157   -2.4585 N   0  0  0  0  0  0  0  0  0  0  0  0
    3.7551   -0.6833   -1.2198 C   0  0  0  0  0  0  0  0  0  0  0  0
    5.1083   -0.9750   -0.7147 C   0  0  0  0  0  0  0  0  0  0  0  0
    5.5187   -0.7079    0.5967 C   0  0  0  0  0  0  0  0  0  0  0  0
    6.8165   -1.0258    0.9711 C   0  0  0  0  0  0  0  0  0  0  0  0
    7.7241   -1.5844    0.1430 N   0  0  0  0  0  0  0  0  0  0  0  0
    7.3194   -1.8347   -1.1179 C   0  0  0  0  0  0  0  0  0  0  0  0
    6.0448   -1.5545   -1.5838 C   0  0  0  0  0  0  0  0  0  0  0  0
    2.5148   -0.0019   -0.2366 S   0  0  0  0  0  0  0  0  0  0  0  0
   -6.4183    2.8028    0.9397 H   0  0  0  0  0  0  0  0  0  0  0  0
   -4.7755    3.3763    1.2721 H   0  0  0  0  0  0  0  0  0  0  0  0
   -5.2303    2.8343   -0.3726 H   0  0  0  0  0  0  0  0  0  0  0  0
   -6.8405    0.6682    1.8588 H   0  0  0  0  0  0  0  0  0  0  0  0
   -6.1224   -1.6164    2.4499 H   0  0  0  0  0  0  0  0  0  0  0  0
   -3.7882   -2.3428    2.0167 H   0  0  0  0  0  0  0  0  0  0  0  0
   -2.1765   -0.7975    0.9916 H   0  0  0  0  0  0  0  0  0  0  0  0
   -2.4389    0.3653   -1.3645 H   0  0  0  0  0  0  0  0  0  0  0  0
   -1.9035    2.0235   -1.6144 H   0  0  0  0  0  0  0  0  0  0  0  0
   -0.2858    0.2474   -2.4639 H   0  0  0  0  0  0  0  0  0  0  0  0
    4.8603   -0.2660    1.3375 H   0  0  0  0  0  0  0  0  0  0  0  0
    7.1678   -0.8360    1.9819 H   0  0  0  0  0  0  0  0  0  0  0  0
    8.0681   -2.2789   -1.7671 H   0  0  0  0  0  0  0  0  0  0  0  0
    5.7902   -1.7892   -2.6148 H   0  0  0  0  0  0  0  0  0  0  0  0
  1  2  1  0
  2  3  2  0
  3  4  1  0
  4  5  2  0
  5  6  1  0
  6  7  2  0
  7  8  1  0
  8  9  1  0
  9 10  1  0
 10 11  2  0
 10 12  1  0
 12 13  1  0
 13 14  2  0
 14 15  1  0
 15 16  2  0
 16 17  1  0
 17 18  2  0
 18 19  1  0
 19 20  2  0
 20 21  1  0
 21 22  2  0
 16 23  1  0
  7  2  1  0
 23 13  1  0
 22 17  1  0
  1 24  1  0
  1 25  1  0
  1 26  1  0
  3 27  1  0
  4 28  1  0
  5 29  1  0
  6 30  1  0
  9 31  1  0
  9 32  1  0
 12 33  1  0
 18 34  1  0
 19 35  1  0
 21 36  1  0
 22 37  1  0
M  END
$$$$
