
     RDKit          3D

 80 86  0  0  0  0  0  0  0  0999 V2000
    6.1477   -3.3846    2.2117 C   0  0  0  0  0  0  0  0  0  0  0  0
    5.9763   -1.8621    2.0919 C   0  0  0  0  0  0  0  0  0  0  0  0
    7.0516   -1.3221    1.1418 C   0  0  0  0  0  0  0  0  0  0  0  0
    6.0824   -1.2466    3.4921 C   0  0  0  0  0  0  0  0  0  0  0  0
    4.6460   -1.6866    1.5411 O   0  0  0  0  0  0  0  0  0  0  0  0
    4.1528   -0.4479    1.2845 C   0  0  0  0  0  0  0  0  0  0  0  0
    4.7645    0.5945    1.4763 O   0  0  0  0  0  0  0  0  0  0  0  0
    2.8703   -0.4986    0.7795 N   0  0  0  0  0  0  0  0  0  0  0  0
    2.1161   -1.7452    0.6138 C   0  0  0  0  0  0  0  0  0  0  0  0
    0.5971   -1.5111    0.7066 C   0  0  0  0  0  0  0  0  0  0  0  0
    0.1239   -0.5638   -0.2968 N   0  0  0  0  0  0  0  0  0  0  0  0
    1.0913    0.5313   -0.6472 C   0  0  2  0  0  0  0  0  0  0  0  0
    2.1929    0.7478    0.4066 C   0  0  0  0  0  0  0  0  0  0  0  0
    0.1975    1.6908   -0.8363 C   0  0  0  0  0  0  0  0  0  0  0  0
   -1.1417    1.3738   -0.5790 C   0  0  0  0  0  0  0  0  0  0  0  0
   -1.8950    2.5032   -0.7741 C   0  0  0  0  0  0  0  0  0  0  0  0
   -3.1924    2.7431   -0.6352 O   0  0  0  0  0  0  0  0  0  0  0  0
   -1.0143    3.5037   -1.1647 N   0  0  0  0  0  0  0  0  0  0  0  0
   -1.3844    4.9075   -1.3191 C   0  0  0  0  0  0  0  0  0  0  0  0
   -1.4191    5.3443   -2.7634 C   0  0  0  0  0  0  0  0  0  0  0  0
   -0.6231    6.4153   -3.2000 C   0  0  0  0  0  0  0  0  0  0  0  0
   -0.6752    6.8405   -4.5290 C   0  0  0  0  0  0  0  0  0  0  0  0
   -1.5272    6.2066   -5.4320 C   0  0  0  0  0  0  0  0  0  0  0  0
   -2.3266    5.1460   -5.0095 C   0  0  0  0  0  0  0  0  0  0  0  0
   -2.2763    4.7192   -3.6820 C   0  0  0  0  0  0  0  0  0  0  0  0
    0.2768    2.9941   -1.2397 C   0  0  0  0  0  0  0  0  0  0  0  0
    1.3338    3.6981   -1.6236 O   0  0  0  0  0  0  0  0  0  0  0  0
   -1.2703   -0.0410   -0.1701 C   0  0  1  0  0  0  0  0  0  0  0  0
   -2.2398   -0.8730   -1.0523 C   0  0  0  0  0  0  0  0  0  0  0  0
   -2.1451   -1.1223   -2.2469 O   0  0  0  0  0  0  0  0  0  0  0  0
   -3.2719   -1.3151   -0.2048 N   0  0  0  0  0  0  0  0  0  0  0  0
   -4.2879   -2.2520   -0.6275 C   0  0  0  0  0  0  0  0  0  0  0  0
   -3.9071   -3.6849   -0.3258 C   0  0  0  0  0  0  0  0  0  0  0  0
   -2.8606   -4.3043   -1.0267 C   0  0  0  0  0  0  0  0  0  0  0  0
   -2.4855   -5.6161   -0.7348 C   0  0  0  0  0  0  0  0  0  0  0  0
   -3.1555   -6.3279    0.2567 C   0  0  0  0  0  0  0  0  0  0  0  0
   -4.2034   -5.7295    0.9534 C   0  0  0  0  0  0  0  0  0  0  0  0
   -4.5776   -4.4147    0.6660 C   0  0  0  0  0  0  0  0  0  0  0  0
   -3.1014   -0.8355    1.1016 C   0  0  0  0  0  0  0  0  0  0  0  0
   -3.9147   -1.0309    2.2037 C   0  0  0  0  0  0  0  0  0  0  0  0
   -3.5572   -0.4129    3.4048 C   0  0  0  0  0  0  0  0  0  0  0  0
   -2.4072    0.3866    3.4858 C   0  0  0  0  0  0  0  0  0  0  0  0
   -1.5919    0.5735    2.3688 C   0  0  0  0  0  0  0  0  0  0  0  0
   -1.9441   -0.0509    1.1773 C   0  0  0  0  0  0  0  0  0  0  0  0
    5.3683   -3.8156    2.8510 H   0  0  0  0  0  0  0  0  0  0  0  0
    7.1238   -3.6542    2.6283 H   0  0  0  0  0  0  0  0  0  0  0  0
    6.0443   -3.8657    1.2322 H   0  0  0  0  0  0  0  0  0  0  0  0
    8.0509   -1.6489    1.4457 H   0  0  0  0  0  0  0  0  0  0  0  0
    6.8709   -1.6623    0.1169 H   0  0  0  0  0  0  0  0  0  0  0  0
    7.0615   -0.2288    1.1154 H   0  0  0  0  0  0  0  0  0  0  0  0
    5.2738   -1.6055    4.1375 H   0  0  0  0  0  0  0  0  0  0  0  0
    6.0016   -0.1563    3.4680 H   0  0  0  0  0  0  0  0  0  0  0  0
    7.0385   -1.4922    3.9641 H   0  0  0  0  0  0  0  0  0  0  0  0
    2.4188   -2.4714    1.3752 H   0  0  0  0  0  0  0  0  0  0  0  0
    2.3827   -2.1581   -0.3658 H   0  0  0  0  0  0  0  0  0  0  0  0
    0.3984   -1.1523    1.7210 H   0  0  0  0  0  0  0  0  0  0  0  0
    0.0764   -2.4673    0.5833 H   0  0  0  0  0  0  0  0  0  0  0  0
    1.5569    0.2595   -1.6033 H   0  0  0  0  0  0  0  0  0  0  0  0
    1.7723    1.1613    1.3329 H   0  0  0  0  0  0  0  0  0  0  0  0
    2.9295    1.4740    0.0427 H   0  0  0  0  0  0  0  0  0  0  0  0
   -3.6094    1.9299   -0.2966 H   0  0  0  0  0  0  0  0  0  0  0  0
   -2.3614    5.0778   -0.8524 H   0  0  0  0  0  0  0  0  0  0  0  0
   -0.6503    5.4876   -0.7445 H   0  0  0  0  0  0  0  0  0  0  0  0
    0.0418    6.9319   -2.5089 H   0  0  0  0  0  0  0  0  0  0  0  0
   -0.0573    7.6732   -4.8577 H   0  0  0  0  0  0  0  0  0  0  0  0
   -1.5712    6.5397   -6.4655 H   0  0  0  0  0  0  0  0  0  0  0  0
   -2.9961    4.6536   -5.7112 H   0  0  0  0  0  0  0  0  0  0  0  0
   -2.9140    3.8938   -3.3674 H   0  0  0  0  0  0  0  0  0  0  0  0
    1.0395    4.3695   -2.2630 H   0  0  0  0  0  0  0  0  0  0  0  0
   -4.4398   -2.1538   -1.7098 H   0  0  0  0  0  0  0  0  0  0  0  0
   -5.2432   -1.9862   -0.1596 H   0  0  0  0  0  0  0  0  0  0  0  0
   -2.3275   -3.7642   -1.8086 H   0  0  0  0  0  0  0  0  0  0  0  0
   -1.6691   -6.0799   -1.2812 H   0  0  0  0  0  0  0  0  0  0  0  0
   -2.8627   -7.3499    0.4835 H   0  0  0  0  0  0  0  0  0  0  0  0
   -4.7299   -6.2883    1.7233 H   0  0  0  0  0  0  0  0  0  0  0  0
   -5.3974   -3.9683    1.2244 H   0  0  0  0  0  0  0  0  0  0  0  0
   -4.8123   -1.6353    2.1576 H   0  0  0  0  0  0  0  0  0  0  0  0
   -4.1798   -0.5470    4.2872 H   0  0  0  0  0  0  0  0  0  0  0  0
   -2.1502    0.8645    4.4287 H   0  0  0  0  0  0  0  0  0  0  0  0
   -0.7031    1.1946    2.4332 H   0  0  0  0  0  0  0  0  0  0  0  0
  1  2  1  0
  2  3  1  0
  2  4  1  0
  2  5  1  0
  5  6  1  0
  6  7  2  0
  6  8  1  0
  8  9  1  0
  9 10  1  0
 10 11  1  0
 11 12  1  0
 12 13  1  0
 12 14  1  0
 14 15  1  0
 15 16  2  0
 16 17  1  0
 16 18  1  0
 18 19  1  0
 19 20  1  0
 20 21  2  0
 21 22  1  0
 22 23  2  0
 23 24  1  0
 24 25  2  0
 18 26  1  0
 26 27  1  0
 15 28  1  0
 28 29  1  0
 29 30  2  0
 29 31  1  0
 31 32  1  0
 32 33  1  0
 33 34  2  0
 34 35  1  0
 35 36  2  0
 36 37  1  0
 37 38  2  0
 31 39  1  0
 39 40  2  0
 40 41  1  0
 41 42  2  0
 42 43  1  0
 43 44  2  0
 13  8  1  0
 26 14  2  0
 44 28  1  0
 28 11  1  1
 38 33  1  0
 44 39  1  0
 25 20  1  0
  1 45  1  0
  1 46  1  0
  1 47  1  0
  3 48  1  0
  3 49  1  0
  3 50  1  0
  4 51  1  0
  4 52  1  0
  4 53  1  0
  9 54  1  0
  9 55  1  0
 10 56  1  0
 10 57  1  0
 12 58  1  6
 13 59  1  0
 13 60  1  0
 17 61  1  0
 19 62  1  0
 19 63  1  0
 21 64  1  0
 22 65  1  0
 23 66  1  0
 24 67  1  0
 25 68  1  0
 27 69  1  0
 32 70  1  0
 32 71  1  0
 34 72  1  0
 35 73  1  0
 36 74  1  0
 37 75  1  0
 38 76  1  0
 40 77  1  0
 41 78  1  0
 42 79  1  0
 43 80  1  0
M  END
$$$$
