
     RDKit          3D

 46 49  0  0  0  0  0  0  0  0999 V2000
    1.2632    0.1478   -0.8693 O   0  0  0  0  0  0  0  0  0  0  0  0
    1.6329    0.9846   -1.6898 C   0  0  0  0  0  0  0  0  0  0  0  0
    0.7314    1.5074   -2.8095 C   0  0  0  0  0  0  0  0  0  0  0  0
   -0.7105    0.4401   -3.0846 S   0  0  0  0  0  0  0  0  0  0  0  0
   -1.6632    0.9312   -1.7314 C   0  0  0  0  0  0  0  0  0  0  0  0
   -2.1541    2.1324   -1.5636 N   0  0  0  0  0  0  0  0  0  0  0  0
   -2.8368    2.1359   -0.3729 N   0  0  0  0  0  0  0  0  0  0  0  0
   -2.7454    0.9307    0.1663 C   0  0  0  0  0  0  0  0  0  0  0  0
   -3.3839    0.5104    1.4532 C   0  0  0  0  0  0  0  0  0  0  0  0
   -2.4141    0.2710    2.5775 C   0  0  0  0  0  0  0  0  0  0  0  0
   -2.1577   -0.9152    3.2399 C   0  0  0  0  0  0  0  0  0  0  0  0
   -1.1817   -0.7663    4.2666 C   0  0  0  0  0  0  0  0  0  0  0  0
   -0.7364    0.5303    4.3702 C   0  0  0  0  0  0  0  0  0  0  0  0
   -1.4957    1.5596    3.2352 S   0  0  0  0  0  0  0  0  0  0  0  0
   -2.0011    0.1263   -0.6756 N   0  0  0  0  0  0  0  0  0  0  0  0
   -1.6105   -1.2493   -0.4518 C   0  0  0  0  0  0  0  0  0  0  0  0
   -2.7634   -2.1674   -0.6578 C   0  0  0  0  0  0  0  0  0  0  0  0
   -3.5929   -2.4353   -1.7328 C   0  0  0  0  0  0  0  0  0  0  0  0
   -4.5161   -3.4179   -1.2890 C   0  0  0  0  0  0  0  0  0  0  0  0
   -4.1830   -3.6972    0.0167 C   0  0  0  0  0  0  0  0  0  0  0  0
   -3.1280   -2.9386    0.4127 O   0  0  0  0  0  0  0  0  0  0  0  0
    2.8950    1.5750   -1.7352 N   0  0  0  0  0  0  0  0  0  0  0  0
    3.9854    1.3309   -0.8730 C   0  0  0  0  0  0  0  0  0  0  0  0
    5.1770    2.0126   -1.1472 C   0  0  0  0  0  0  0  0  0  0  0  0
    6.3046    1.8261   -0.3451 C   0  0  0  0  0  0  0  0  0  0  0  0
    6.2430    0.9580    0.7415 C   0  0  0  0  0  0  0  0  0  0  0  0
    7.7598    0.7179    1.8394 Br  0  0  0  0  0  0  0  0  0  0  0  0
    5.0727    0.2706    1.0178 C   0  0  0  0  0  0  0  0  0  0  0  0
    3.9444    0.4566    0.2144 C   0  0  0  0  0  0  0  0  0  0  0  0
    0.4204    2.5263   -2.5729 H   0  0  0  0  0  0  0  0  0  0  0  0
    1.3010    1.5281   -3.7389 H   0  0  0  0  0  0  0  0  0  0  0  0
   -4.0968    1.2857    1.7647 H   0  0  0  0  0  0  0  0  0  0  0  0
   -3.9888   -0.3886    1.2837 H   0  0  0  0  0  0  0  0  0  0  0  0
   -2.6460   -1.8508    2.9958 H   0  0  0  0  0  0  0  0  0  0  0  0
   -0.8302   -1.5704    4.9020 H   0  0  0  0  0  0  0  0  0  0  0  0
   -0.0067    0.9253    5.0623 H   0  0  0  0  0  0  0  0  0  0  0  0
   -0.8020   -1.5251   -1.1393 H   0  0  0  0  0  0  0  0  0  0  0  0
   -1.1968   -1.3180    0.5602 H   0  0  0  0  0  0  0  0  0  0  0  0
   -3.5568   -1.9691   -2.7076 H   0  0  0  0  0  0  0  0  0  0  0  0
   -5.3228   -3.8649   -1.8512 H   0  0  0  0  0  0  0  0  0  0  0  0
   -4.6057   -4.3598    0.7646 H   0  0  0  0  0  0  0  0  0  0  0  0
    3.0661    2.2421   -2.4807 H   0  0  0  0  0  0  0  0  0  0  0  0
    5.2481    2.7004   -1.9853 H   0  0  0  0  0  0  0  0  0  0  0  0
    7.2192    2.3679   -0.5700 H   0  0  0  0  0  0  0  0  0  0  0  0
    5.0171   -0.4097    1.8637 H   0  0  0  0  0  0  0  0  0  0  0  0
    3.0456   -0.0877    0.4778 H   0  0  0  0  0  0  0  0  0  0  0  0
  1  2  2  0
  2  3  1  0
  3  4  1  0
  4  5  1  0
  5  6  2  0
  6  7  1  0
  7  8  2  0
  8  9  1  0
  9 10  1  0
 10 11  2  0
 11 12  1  0
 12 13  2  0
 13 14  1  0
  8 15  1  0
 15 16  1  0
 16 17  1  0
 17 18  2  0
 18 19  1  0
 19 20  2  0
 20 21  1  0
  2 22  1  0
 22 23  1  0
 23 24  2  0
 24 25  1  0
 25 26  2  0
 26 27  1  0
 26 28  1  0
 28 29  2  0
 15  5  1  0
 21 17  1  0
 29 23  1  0
 14 10  1  0
  3 30  1  0
  3 31  1  0
  9 32  1  0
  9 33  1  0
 11 34  1  0
 12 35  1  0
 13 36  1  0
 16 37  1  0
 16 38  1  0
 18 39  1  0
 19 40  1  0
 20 41  1  0
 22 42  1  0
 24 43  1  0
 25 44  1  0
 28 45  1  0
 29 46  1  0
M  END
$$$$
