
     RDKit          3D

 40 41  0  0  0  0  0  0  0  0999 V2000
   -6.9152   -0.5593    0.0047 C   0  0  0  0  0  0  0  0  0  0  0  0
   -5.4149   -0.5214   -0.0092 C   0  0  0  0  0  0  0  0  0  0  0  0
   -4.6830   -1.0616    1.0424 C   0  0  0  0  0  0  0  0  0  0  0  0
   -3.2950   -1.0441    0.9899 C   0  0  0  0  0  0  0  0  0  0  0  0
   -2.6405   -0.4918   -0.1172 C   0  0  0  0  0  0  0  0  0  0  0  0
   -1.1766   -0.5011   -0.1889 C   0  0  0  0  0  0  0  0  0  0  0  0
   -0.4083    0.1283    0.7145 C   0  0  0  0  0  0  0  0  0  0  0  0
    1.0584    0.1482    0.6465 C   0  0  0  0  0  0  0  0  0  0  0  0
    1.8099   -0.9731    0.2978 C   0  0  0  0  0  0  0  0  0  0  0  0
    3.2128   -0.9145    0.2722 C   0  0  0  0  0  0  0  0  0  0  0  0
    3.9254    0.2535    0.5923 C   0  0  0  0  0  0  0  0  0  0  0  0
    5.3206    0.2982    0.5844 N   0  0  0  0  0  0  0  0  0  0  0  0
    6.0755   -0.7699   -0.0692 C   0  0  0  0  0  0  0  0  0  0  0  0
    6.0056    1.5857    0.6914 C   0  0  0  0  0  0  0  0  0  0  0  0
    3.1428    1.3580    0.9685 C   0  0  0  0  0  0  0  0  0  0  0  0
    1.7399    1.3118    0.9988 C   0  0  0  0  0  0  0  0  0  0  0  0
   -3.3729    0.0204   -1.1439 N   0  0  0  0  0  4  0  0  0  0  0  0
   -2.7074    0.6297   -2.3140 C   0  0  0  0  0  0  0  0  0  0  0  0
   -4.7273    0.0041   -1.1019 C   0  0  0  0  0  0  0  0  0  0  0  0
   -7.3320    0.2805   -0.5611 H   0  0  0  0  0  0  0  0  0  0  0  0
   -7.2698   -1.4951   -0.4381 H   0  0  0  0  0  0  0  0  0  0  0  0
   -7.2978   -0.4835    1.0280 H   0  0  0  0  0  0  0  0  0  0  0  0
   -5.1848   -1.5006    1.9048 H   0  0  0  0  0  0  0  0  0  0  0  0
   -2.7245   -1.4737    1.8124 H   0  0  0  0  0  0  0  0  0  0  0  0
   -0.7376   -1.0353   -1.0274 H   0  0  0  0  0  0  0  0  0  0  0  0
   -0.8414    0.6887    1.5421 H   0  0  0  0  0  0  0  0  0  0  0  0
    1.3331   -1.9206    0.0612 H   0  0  0  0  0  0  0  0  0  0  0  0
    3.7366   -1.8280    0.0054 H   0  0  0  0  0  0  0  0  0  0  0  0
    7.1555   -0.5970   -0.0022 H   0  0  0  0  0  0  0  0  0  0  0  0
    5.8949   -1.7353    0.4155 H   0  0  0  0  0  0  0  0  0  0  0  0
    5.8182   -0.8380   -1.1320 H   0  0  0  0  0  0  0  0  0  0  0  0
    7.0943    1.4621    0.6828 H   0  0  0  0  0  0  0  0  0  0  0  0
    5.7411    2.2409   -0.1459 H   0  0  0  0  0  0  0  0  0  0  0  0
    5.7672    2.0830    1.6377 H   0  0  0  0  0  0  0  0  0  0  0  0
    3.6079    2.2951    1.2609 H   0  0  0  0  0  0  0  0  0  0  0  0
    1.2009    2.2056    1.3048 H   0  0  0  0  0  0  0  0  0  0  0  0
   -2.1646   -0.1576   -2.8433 H   0  0  0  0  0  0  0  0  0  0  0  0
   -2.0371    1.4174   -1.9601 H   0  0  0  0  0  0  0  0  0  0  0  0
   -3.4522    1.0698   -2.9821 H   0  0  0  0  0  0  0  0  0  0  0  0
   -5.2581    0.4206   -1.9544 H   0  0  0  0  0  0  0  0  0  0  0  0
  1  2  1  0
  2  3  2  0
  3  4  1  0
  4  5  2  0
  5  6  1  0
  6  7  2  3
  7  8  1  0
  8  9  2  0
  9 10  1  0
 10 11  2  0
 11 12  1  0
 12 13  1  0
 12 14  1  0
 11 15  1  0
 15 16  2  0
  5 17  1  0
 17 18  1  0
 17 19  2  0
 19  2  1  0
 16  8  1  0
  1 20  1  0
  1 21  1  0
  1 22  1  0
  3 23  1  0
  4 24  1  0
  6 25  1  0
  7 26  1  0
  9 27  1  0
 10 28  1  0
 13 29  1  0
 13 30  1  0
 13 31  1  0
 14 32  1  0
 14 33  1  0
 14 34  1  0
 15 35  1  0
 16 36  1  0
 18 37  1  0
 18 38  1  0
 18 39  1  0
 19 40  1  0
M  CHG  1  17   1
M  END
$$$$
