
     RDKit          3D

 46 48  0  0  0  0  0  0  0  0999 V2000
   -2.9790    1.4043    1.5647 C   0  0  0  0  0  0  0  0  0  0  0  0
   -2.8317    0.7096    0.2238 C   0  0  0  0  0  0  0  0  0  0  0  0
   -2.7509   -0.7696    0.4210 N   0  0  0  0  0  4  0  0  0  0  0  0
   -1.5219   -1.3638    0.5017 C   0  0  0  0  0  0  0  0  0  0  0  0
   -0.2909   -0.5637    0.5027 C   0  0  0  0  0  0  0  0  0  0  0  0
    0.5898   -0.6066   -0.5101 C   0  0  0  0  0  0  0  0  0  0  0  0
    1.8445    0.1583   -0.5324 C   0  0  0  0  0  0  0  0  0  0  0  0
    1.9610    1.4425   -0.0018 C   0  0  0  0  0  0  0  0  0  0  0  0
    3.1794    2.1383   -0.0699 C   0  0  0  0  0  0  0  0  0  0  0  0
    4.3241    1.5991   -0.6806 C   0  0  0  0  0  0  0  0  0  0  0  0
    5.5386    2.2875   -0.7206 N   0  0  0  0  0  0  0  0  0  0  0  0
    5.5596    3.7260   -0.4570 C   0  0  0  0  0  0  0  0  0  0  0  0
    6.6268    1.7844   -1.5588 C   0  0  0  0  0  0  0  0  0  0  0  0
    4.1764    0.3069   -1.2107 C   0  0  0  0  0  0  0  0  0  0  0  0
    2.9635   -0.3980   -1.1505 C   0  0  0  0  0  0  0  0  0  0  0  0
   -1.4048   -2.7492    0.6190 C   0  0  0  0  0  0  0  0  0  0  0  0
   -2.5365   -3.5411    0.6557 C   0  0  0  0  0  0  0  0  0  0  0  0
   -3.7887   -2.9438    0.5897 C   0  0  0  0  0  0  0  0  0  0  0  0
   -4.9391   -3.7449    0.6400 C   0  0  0  0  0  0  0  0  0  0  0  0
   -6.2063   -3.1721    0.5864 C   0  0  0  0  0  0  0  0  0  0  0  0
   -6.3362   -1.7940    0.4859 C   0  0  0  0  0  0  0  0  0  0  0  0
   -5.1976   -0.9824    0.4331 C   0  0  0  0  0  0  0  0  0  0  0  0
   -3.8989   -1.5294    0.4762 C   0  0  0  0  0  0  0  0  0  0  0  0
   -2.1292    1.1905    2.2198 H   0  0  0  0  0  0  0  0  0  0  0  0
   -3.8842    1.0835    2.0885 H   0  0  0  0  0  0  0  0  0  0  0  0
   -3.0349    2.4880    1.4239 H   0  0  0  0  0  0  0  0  0  0  0  0
   -1.9405    1.0604   -0.3038 H   0  0  0  0  0  0  0  0  0  0  0  0
   -3.6616    0.9337   -0.4519 H   0  0  0  0  0  0  0  0  0  0  0  0
   -0.1168    0.0469    1.3847 H   0  0  0  0  0  0  0  0  0  0  0  0
    0.4252   -1.2474   -1.3758 H   0  0  0  0  0  0  0  0  0  0  0  0
    1.1193    1.9387    0.4716 H   0  0  0  0  0  0  0  0  0  0  0  0
    3.2057    3.1270    0.3793 H   0  0  0  0  0  0  0  0  0  0  0  0
    6.5730    4.1342   -0.5421 H   0  0  0  0  0  0  0  0  0  0  0  0
    5.2321    3.9454    0.5648 H   0  0  0  0  0  0  0  0  0  0  0  0
    4.9263    4.2649   -1.1704 H   0  0  0  0  0  0  0  0  0  0  0  0
    6.3350    1.7723   -2.6147 H   0  0  0  0  0  0  0  0  0  0  0  0
    7.5215    2.4109   -1.4696 H   0  0  0  0  0  0  0  0  0  0  0  0
    6.9329    0.7793   -1.2493 H   0  0  0  0  0  0  0  0  0  0  0  0
    5.0106   -0.1969   -1.6908 H   0  0  0  0  0  0  0  0  0  0  0  0
    2.9255   -1.3941   -1.5861 H   0  0  0  0  0  0  0  0  0  0  0  0
   -0.4241   -3.2188    0.6904 H   0  0  0  0  0  0  0  0  0  0  0  0
   -2.4294   -4.6218    0.7470 H   0  0  0  0  0  0  0  0  0  0  0  0
   -4.8638   -4.8293    0.7245 H   0  0  0  0  0  0  0  0  0  0  0  0
   -7.0928   -3.8036    0.6278 H   0  0  0  0  0  0  0  0  0  0  0  0
   -7.3297   -1.3480    0.4512 H   0  0  0  0  0  0  0  0  0  0  0  0
   -5.3815    0.0854    0.3686 H   0  0  0  0  0  0  0  0  0  0  0  0
  1  2  1  0
  2  3  1  0
  3  4  2  0
  4  5  1  0
  5  6  2  3
  6  7  1  0
  7  8  2  0
  8  9  1  0
  9 10  2  0
 10 11  1  0
 11 12  1  0
 11 13  1  0
 10 14  1  0
 14 15  2  0
  4 16  1  0
 16 17  2  0
 17 18  1  0
 18 19  2  0
 19 20  1  0
 20 21  2  0
 21 22  1  0
 22 23  2  0
 23  3  1  0
 15  7  1  0
 23 18  1  0
  1 24  1  0
  1 25  1  0
  1 26  1  0
  2 27  1  0
  2 28  1  0
  5 29  1  0
  6 30  1  0
  8 31  1  0
  9 32  1  0
 12 33  1  0
 12 34  1  0
 12 35  1  0
 13 36  1  0
 13 37  1  0
 13 38  1  0
 14 39  1  0
 15 40  1  0
 16 41  1  0
 17 42  1  0
 19 43  1  0
 20 44  1  0
 21 45  1  0
 22 46  1  0
M  CHG  1   3   1
M  END
$$$$
