
     RDKit          3D

 46 48  0  0  0  0  0  0  0  0999 V2000
   -7.9841   -1.0529   -0.8682 C   0  0  0  0  0  0  0  0  0  0  0  0
   -7.5967    0.2276   -0.3885 O   0  0  0  0  0  0  0  0  0  0  0  0
   -6.3210    0.3416    0.0945 C   0  0  0  0  0  0  0  0  0  0  0  0
   -5.8807    1.6540    0.2758 C   0  0  0  0  0  0  0  0  0  0  0  0
   -4.6042    1.9121    0.7781 C   0  0  0  0  0  0  0  0  0  0  0  0
   -3.7498    0.8535    1.1060 C   0  0  0  0  0  0  0  0  0  0  0  0
   -2.4256    1.1734    1.6527 C   0  0  0  0  0  0  0  0  0  0  0  0
   -1.2523    0.9872    1.0302 C   0  0  0  0  0  0  0  0  0  0  0  0
    0.2642    1.3784    1.8026 S   0  0  0  0  0  0  0  0  0  0  0  0
    1.1575    0.8175    0.4283 C   0  0  0  0  0  0  0  0  0  0  0  0
    2.4941    0.8217    0.3790 C   0  0  0  0  0  0  0  0  0  0  0  0
    3.2443    0.3276   -0.8061 C   0  0  0  0  0  0  0  0  0  0  0  0
    2.6769    0.0295   -1.8529 O   0  0  0  0  0  0  0  0  0  0  0  0
    4.7247    0.2316   -0.7053 C   0  0  0  0  0  0  0  0  0  0  0  0
    5.4763    0.4122   -1.8718 C   0  0  0  0  0  0  0  0  0  0  0  0
    6.8707    0.3341   -1.8313 C   0  0  0  0  0  0  0  0  0  0  0  0
    7.5299    0.0558   -0.6291 C   0  0  0  0  0  0  0  0  0  0  0  0
    9.0280   -0.0053   -0.5714 C   0  0  0  0  0  0  0  0  0  0  0  0
    6.7749   -0.1342    0.5345 C   0  0  0  0  0  0  0  0  0  0  0  0
    5.3793   -0.0560    0.4980 C   0  0  0  0  0  0  0  0  0  0  0  0
    0.3332    0.3866   -0.5629 N   0  0  0  0  0  0  0  0  0  0  0  0
   -1.0209    0.4499   -0.3477 C   0  0  0  0  0  0  0  0  0  0  0  0
   -1.8641    0.1253   -1.1670 O   0  0  0  0  0  0  0  0  0  0  0  0
   -4.1894   -0.4698    0.9251 C   0  0  0  0  0  0  0  0  0  0  0  0
   -3.3345   -1.4739    1.3139 O   0  0  0  0  0  0  0  0  0  0  0  0
   -3.3503   -2.6242    0.4673 C   0  0  0  0  0  0  0  0  0  0  0  0
   -5.4780   -0.7204    0.4315 C   0  0  0  0  0  0  0  0  0  0  0  0
   -7.2938   -1.4110   -1.6366 H   0  0  0  0  0  0  0  0  0  0  0  0
   -8.9731   -0.9543   -1.3262 H   0  0  0  0  0  0  0  0  0  0  0  0
   -8.0701   -1.7701   -0.0493 H   0  0  0  0  0  0  0  0  0  0  0  0
   -6.5368    2.4822    0.0212 H   0  0  0  0  0  0  0  0  0  0  0  0
   -4.2828    2.9433    0.9055 H   0  0  0  0  0  0  0  0  0  0  0  0
   -2.4524    1.5846    2.6602 H   0  0  0  0  0  0  0  0  0  0  0  0
    3.0665    1.2088    1.2136 H   0  0  0  0  0  0  0  0  0  0  0  0
    4.9790    0.6183   -2.8180 H   0  0  0  0  0  0  0  0  0  0  0  0
    7.4363    0.4875   -2.7476 H   0  0  0  0  0  0  0  0  0  0  0  0
    9.4617   -0.1123   -1.5707 H   0  0  0  0  0  0  0  0  0  0  0  0
    9.3534   -0.8664    0.0201 H   0  0  0  0  0  0  0  0  0  0  0  0
    9.4220    0.9094   -0.1192 H   0  0  0  0  0  0  0  0  0  0  0  0
    7.2728   -0.3534    1.4773 H   0  0  0  0  0  0  0  0  0  0  0  0
    4.8280   -0.2454    1.4139 H   0  0  0  0  0  0  0  0  0  0  0  0
    0.7039    0.0515   -1.4508 H   0  0  0  0  0  0  0  0  0  0  0  0
   -2.4162   -3.1712    0.6285 H   0  0  0  0  0  0  0  0  0  0  0  0
   -3.3992   -2.3557   -0.5956 H   0  0  0  0  0  0  0  0  0  0  0  0
   -4.1790   -3.2852    0.7420 H   0  0  0  0  0  0  0  0  0  0  0  0
   -5.8228   -1.7438    0.3427 H   0  0  0  0  0  0  0  0  0  0  0  0
  1  2  1  0
  2  3  1  0
  3  4  2  0
  4  5  1  0
  5  6  2  0
  6  7  1  0
  7  8  2  3
  8  9  1  0
  9 10  1  0
 10 11  2  3
 11 12  1  0
 12 13  2  0
 12 14  1  0
 14 15  2  0
 15 16  1  0
 16 17  2  0
 17 18  1  0
 17 19  1  0
 19 20  2  0
 10 21  1  0
 21 22  1  0
 22 23  2  0
  6 24  1  0
 24 25  1  0
 25 26  1  0
 24 27  2  0
 27  3  1  0
 22  8  1  0
 20 14  1  0
  1 28  1  0
  1 29  1  0
  1 30  1  0
  4 31  1  0
  5 32  1  0
  7 33  1  0
 11 34  1  0
 15 35  1  0
 16 36  1  0
 18 37  1  0
 18 38  1  0
 18 39  1  0
 19 40  1  0
 20 41  1  0
 21 42  1  0
 26 43  1  0
 26 44  1  0
 26 45  1  0
 27 46  1  0
M  END
$$$$
