
     RDKit          3D

 55 60  0  0  0  0  0  0  0  0999 V2000
    3.1070    1.6830    1.9355 O   0  0  0  0  0  0  0  0  0  0  0  0
    3.4849    0.6441    1.3968 C   0  0  0  0  0  0  0  0  0  0  0  0
    4.2854   -0.3232    2.1314 C   0  0  0  0  0  0  0  0  0  0  0  0
    5.2811   -1.2435    1.6868 C   0  0  0  0  0  0  0  0  0  0  0  0
    5.7423   -1.8966    2.8053 C   0  0  0  0  0  0  0  0  0  0  0  0
    5.1198   -1.4274    3.9155 O   0  0  0  0  0  0  0  0  0  0  0  0
    4.2572   -0.4636    3.5050 C   0  0  0  0  0  0  0  0  0  0  0  0
    3.1828    0.3590    0.0575 N   0  0  0  0  0  0  0  0  0  0  0  0
    2.6005    1.4309   -0.7385 C   0  0  0  0  0  0  0  0  0  0  0  0
    1.0753    1.4135   -0.6373 C   0  0  0  0  0  0  0  0  0  0  0  0
    0.4897    0.0295   -1.0268 C   0  0  0  0  0  0  0  0  0  0  0  0
    1.2309   -1.0913   -0.2399 C   0  0  0  0  0  0  0  0  0  0  0  0
    2.7541   -0.9734   -0.3618 C   0  0  0  0  0  0  0  0  0  0  0  0
    0.8357   -0.2456   -2.4111 O   0  0  0  0  0  0  0  0  0  0  0  0
    0.0375    0.2732   -3.3854 C   0  0  0  0  0  0  0  0  0  0  0  0
    0.5422    0.2108   -4.6859 C   0  0  0  0  0  0  0  0  0  0  0  0
   -0.1947    0.7380   -5.7478 C   0  0  0  0  0  0  0  0  0  0  0  0
   -1.4332    1.3217   -5.5018 C   0  0  0  0  0  0  0  0  0  0  0  0
   -2.1344    1.8308   -6.5224 F   0  0  0  0  0  0  0  0  0  0  0  0
   -1.9533    1.3813   -4.2158 C   0  0  0  0  0  0  0  0  0  0  0  0
   -1.2126    0.8418   -3.1607 C   0  0  0  0  0  0  0  0  0  0  0  0
   -1.7398    0.8686   -1.7903 C   0  0  0  0  0  0  0  0  0  0  0  0
   -2.6837    1.6057   -1.5176 O   0  0  0  0  0  0  0  0  0  0  0  0
   -1.0453   -0.0459   -0.7879 C   0  0  0  0  0  0  0  0  0  0  0  0
   -1.4998    0.2569    0.6337 C   0  0  0  0  0  0  0  0  0  0  0  0
   -2.5542   -0.7873    0.7690 C   0  0  0  0  0  0  0  0  0  0  0  0
   -3.5214   -0.7894    1.8921 C   0  0  0  0  0  0  0  0  0  0  0  0
   -4.5276   -1.7653    1.9167 C   0  0  0  0  0  0  0  0  0  0  0  0
   -5.4556   -1.7969    2.9610 C   0  0  0  0  0  0  0  0  0  0  0  0
   -5.3786   -0.8532    3.9824 C   0  0  0  0  0  0  0  0  0  0  0  0
   -6.5226   -0.8872    5.2668 Cl  0  0  0  0  0  0  0  0  0  0  0  0
   -4.3800    0.1199    3.9693 C   0  0  0  0  0  0  0  0  0  0  0  0
   -3.4497    0.1533    2.9249 C   0  0  0  0  0  0  0  0  0  0  0  0
   -2.5343   -1.7028   -0.1464 N   0  0  0  0  0  0  0  0  0  0  0  0
   -1.5035   -1.3826   -1.0542 O   0  0  0  0  0  0  0  0  0  0  0  0
    5.6247   -1.4025    0.6742 H   0  0  0  0  0  0  0  0  0  0  0  0
    6.4807   -2.6687    2.9737 H   0  0  0  0  0  0  0  0  0  0  0  0
    3.6961    0.0278    4.2887 H   0  0  0  0  0  0  0  0  0  0  0  0
    2.9880    2.4006   -0.4056 H   0  0  0  0  0  0  0  0  0  0  0  0
    2.9261    1.2948   -1.7764 H   0  0  0  0  0  0  0  0  0  0  0  0
    0.7851    1.6692    0.3882 H   0  0  0  0  0  0  0  0  0  0  0  0
    0.6846    2.2026   -1.2895 H   0  0  0  0  0  0  0  0  0  0  0  0
    0.9684   -1.0600    0.8226 H   0  0  0  0  0  0  0  0  0  0  0  0
    0.9410   -2.0783   -0.6207 H   0  0  0  0  0  0  0  0  0  0  0  0
    3.0836   -1.1256   -1.3957 H   0  0  0  0  0  0  0  0  0  0  0  0
    3.2072   -1.7590    0.2444 H   0  0  0  0  0  0  0  0  0  0  0  0
    1.5123   -0.2434   -4.8736 H   0  0  0  0  0  0  0  0  0  0  0  0
    0.1885    0.6984   -6.7631 H   0  0  0  0  0  0  0  0  0  0  0  0
   -2.9266    1.8338   -4.0486 H   0  0  0  0  0  0  0  0  0  0  0  0
   -0.7369    0.0651    1.3921 H   0  0  0  0  0  0  0  0  0  0  0  0
   -1.8883    1.2684    0.7723 H   0  0  0  0  0  0  0  0  0  0  0  0
   -4.5985   -2.5059    1.1216 H   0  0  0  0  0  0  0  0  0  0  0  0
   -6.2332   -2.5565    2.9670 H   0  0  0  0  0  0  0  0  0  0  0  0
   -4.3219    0.8560    4.7676 H   0  0  0  0  0  0  0  0  0  0  0  0
   -2.6832    0.9225    2.9431 H   0  0  0  0  0  0  0  0  0  0  0  0
  1  2  2  0
  2  3  1  0
  3  4  1  0
  4  5  2  0
  5  6  1  0
  6  7  1  0
  2  8  1  0
  8  9  1  0
  9 10  1  0
 10 11  1  0
 11 12  1  0
 12 13  1  0
 11 14  1  0
 14 15  1  0
 15 16  2  0
 16 17  1  0
 17 18  2  0
 18 19  1  0
 18 20  1  0
 20 21  2  0
 21 22  1  0
 22 23  2  0
 22 24  1  0
 24 25  1  0
 25 26  1  0
 26 27  1  0
 27 28  2  0
 28 29  1  0
 29 30  2  0
 30 31  1  0
 30 32  1  0
 32 33  2  0
 26 34  2  0
 34 35  1  0
  7  3  2  0
 13  8  1  0
 21 15  1  0
 35 24  1  0
 24 11  1  0
 33 27  1  0
  4 36  1  0
  5 37  1  0
  7 38  1  0
  9 39  1  0
  9 40  1  0
 10 41  1  0
 10 42  1  0
 12 43  1  0
 12 44  1  0
 13 45  1  0
 13 46  1  0
 16 47  1  0
 17 48  1  0
 20 49  1  0
 25 50  1  0
 25 51  1  0
 28 52  1  0
 29 53  1  0
 32 54  1  0
 33 55  1  0
M  END
$$$$
