
     RDKit          3D

 57 61  0  0  0  0  0  0  0  0999 V2000
   -3.7210    4.2153    3.7065 C   0  0  0  0  0  0  0  0  0  0  0  0
   -3.9608    3.1623    2.6656 C   0  0  0  0  0  0  0  0  0  0  0  0
   -5.1380    2.4065    2.6810 C   0  0  0  0  0  0  0  0  0  0  0  0
   -5.3770    1.4459    1.6957 C   0  0  0  0  0  0  0  0  0  0  0  0
   -4.4480    1.2345    0.6678 C   0  0  0  0  0  0  0  0  0  0  0  0
   -4.6994    0.1881   -0.3885 C   0  0  0  0  0  0  0  0  0  0  0  0
   -4.3646   -1.1378    0.0866 N   0  0  0  0  0  0  0  0  0  0  0  0
   -5.3293   -1.9875    0.5199 N   0  0  0  0  0  0  0  0  0  0  0  0
   -4.7362   -3.1272    0.8764 N   0  0  0  0  0  0  0  0  0  0  0  0
   -3.4038   -2.9797    0.6428 C   0  0  0  0  0  0  0  0  0  0  0  0
   -2.3057   -3.8848    0.8470 C   0  0  0  0  0  0  0  0  0  0  0  0
   -2.3867   -5.0253    1.2885 O   0  0  0  0  0  0  0  0  0  0  0  0
   -1.0908   -3.3205    0.4770 N   0  0  0  0  0  0  0  0  0  0  0  0
   -0.9499   -2.0397   -0.0551 C   0  0  0  0  0  0  0  0  0  0  0  0
    0.4849   -1.6429   -0.3624 C   0  0  0  0  0  0  0  0  0  0  0  0
    0.5714   -0.4265   -1.2885 C   0  0  0  0  0  0  0  0  0  0  0  0
    2.0260   -0.0841   -1.5957 C   0  0  0  0  0  0  0  0  0  0  0  0
    2.8833   -0.0882   -0.3769 N   0  0  0  0  0  0  0  0  0  0  0  0
    4.2830   -1.0685   -0.4415 S   0  0  0  0  0  6  0  0  0  0  0  0
    3.8508   -2.3951   -0.8333 O   0  0  0  0  0  0  0  0  0  0  0  0
    5.0464   -0.8568    0.7689 O   0  0  0  0  0  0  0  0  0  0  0  0
    5.1977   -0.3464   -1.7793 C   0  0  0  0  0  0  0  0  0  0  0  0
    5.4498   -1.0846   -2.9385 C   0  0  0  0  0  0  0  0  0  0  0  0
    6.1684   -0.4971   -3.9796 C   0  0  0  0  0  0  0  0  0  0  0  0
    6.6325    0.8143   -3.8566 C   0  0  0  0  0  0  0  0  0  0  0  0
    6.3839    1.5438   -2.6923 C   0  0  0  0  0  0  0  0  0  0  0  0
    5.6663    0.9644   -1.6469 C   0  0  0  0  0  0  0  0  0  0  0  0
    2.1305   -0.1554    0.8976 C   0  0  0  0  0  0  0  0  0  0  0  0
    1.2503   -1.3993    0.9510 C   0  0  0  0  0  0  0  0  0  0  0  0
   -1.9417   -1.2143   -0.2472 N   0  0  0  0  0  0  0  0  0  0  0  0
   -3.1373   -1.7355    0.1238 C   0  0  0  0  0  0  0  0  0  0  0  0
   -3.2721    1.9970    0.6510 C   0  0  0  0  0  0  0  0  0  0  0  0
   -3.0351    2.9577    1.6367 C   0  0  0  0  0  0  0  0  0  0  0  0
   -4.1881    3.9383    4.6575 H   0  0  0  0  0  0  0  0  0  0  0  0
   -2.6496    4.3407    3.8958 H   0  0  0  0  0  0  0  0  0  0  0  0
   -4.1361    5.1715    3.3734 H   0  0  0  0  0  0  0  0  0  0  0  0
   -5.8767    2.5561    3.4657 H   0  0  0  0  0  0  0  0  0  0  0  0
   -6.2929    0.8586    1.7401 H   0  0  0  0  0  0  0  0  0  0  0  0
   -5.7529    0.1915   -0.6927 H   0  0  0  0  0  0  0  0  0  0  0  0
   -4.1063    0.3812   -1.2900 H   0  0  0  0  0  0  0  0  0  0  0  0
   -0.2887   -3.9226    0.5990 H   0  0  0  0  0  0  0  0  0  0  0  0
    0.9468   -2.4975   -0.8765 H   0  0  0  0  0  0  0  0  0  0  0  0
    0.0770    0.4405   -0.8307 H   0  0  0  0  0  0  0  0  0  0  0  0
    0.0361   -0.6189   -2.2263 H   0  0  0  0  0  0  0  0  0  0  0  0
    2.0850    0.9102   -2.0522 H   0  0  0  0  0  0  0  0  0  0  0  0
    2.3997   -0.7947   -2.3406 H   0  0  0  0  0  0  0  0  0  0  0  0
    5.0977   -2.1088   -3.0370 H   0  0  0  0  0  0  0  0  0  0  0  0
    6.3732   -1.0620   -4.8860 H   0  0  0  0  0  0  0  0  0  0  0  0
    7.1966    1.2672   -4.6689 H   0  0  0  0  0  0  0  0  0  0  0  0
    6.7552    2.5616   -2.5992 H   0  0  0  0  0  0  0  0  0  0  0  0
    5.4774    1.5287   -0.7364 H   0  0  0  0  0  0  0  0  0  0  0  0
    1.5197    0.7516    0.9873 H   0  0  0  0  0  0  0  0  0  0  0  0
    2.8097   -0.1297    1.7561 H   0  0  0  0  0  0  0  0  0  0  0  0
    0.5669   -1.3050    1.8043 H   0  0  0  0  0  0  0  0  0  0  0  0
    1.8701   -2.2798    1.1632 H   0  0  0  0  0  0  0  0  0  0  0  0
   -2.5281    1.8446   -0.1284 H   0  0  0  0  0  0  0  0  0  0  0  0
   -2.1194    3.5435    1.5993 H   0  0  0  0  0  0  0  0  0  0  0  0
  1  2  1  0
  2  3  2  0
  3  4  1  0
  4  5  2  0
  5  6  1  0
  6  7  1  0
  7  8  1  0
  8  9  2  0
  9 10  1  0
 10 11  1  0
 11 12  2  0
 11 13  1  0
 13 14  1  0
 14 15  1  0
 15 16  1  0
 16 17  1  0
 17 18  1  0
 18 19  1  0
 19 20  2  0
 19 21  2  0
 19 22  1  0
 22 23  2  0
 23 24  1  0
 24 25  2  0
 25 26  1  0
 26 27  2  0
 18 28  1  0
 28 29  1  0
 14 30  2  0
 30 31  1  0
  5 32  1  0
 32 33  2  0
 33  2  1  0
 31  7  1  0
 31 10  2  0
 29 15  1  0
 27 22  1  0
  1 34  1  0
  1 35  1  0
  1 36  1  0
  3 37  1  0
  4 38  1  0
  6 39  1  0
  6 40  1  0
 13 41  1  0
 15 42  1  0
 16 43  1  0
 16 44  1  0
 17 45  1  0
 17 46  1  0
 23 47  1  0
 24 48  1  0
 25 49  1  0
 26 50  1  0
 27 51  1  0
 28 52  1  0
 28 53  1  0
 29 54  1  0
 29 55  1  0
 32 56  1  0
 33 57  1  0
M  END
$$$$
