
     RDKit          3D

 32 34  0  0  0  0  0  0  0  0999 V2000
    6.5106    0.0808   -0.0375 O   0  0  0  0  0  0  0  0  0  0  0  0
    5.6916   -0.6277    0.5647 N   0  0  0  0  0  4  0  0  0  0  0  0
    5.9917   -1.5292    1.3595 O   0  0  0  0  0  1  0  0  0  0  0  0
    4.2790   -0.3796    0.3230 C   0  0  0  0  0  0  0  0  0  0  0  0
    3.8606    0.6063   -0.5642 C   0  0  0  0  0  0  0  0  0  0  0  0
    2.4896    0.7938   -0.7526 C   0  0  0  0  0  0  0  0  0  0  0  0
    1.5645    0.0104   -0.0531 C   0  0  0  0  0  0  0  0  0  0  0  0
    0.1905    0.1970   -0.2744 N   0  0  0  0  0  0  0  0  0  0  0  0
   -0.2970    1.5413    0.0663 C   0  0  0  0  0  0  0  0  0  0  0  0
   -1.6684    1.7583   -0.5813 C   0  0  0  0  0  0  0  0  0  0  0  0
   -2.6168    0.6176   -0.3123 C   0  0  0  0  0  0  0  0  0  0  0  0
   -3.9947    0.7944   -0.5010 C   0  0  0  0  0  0  0  0  0  0  0  0
   -4.8771   -0.2642   -0.2895 C   0  0  0  0  0  0  0  0  0  0  0  0
   -4.3911   -1.5082    0.1045 C   0  0  0  0  0  0  0  0  0  0  0  0
   -3.0204   -1.6969    0.2834 C   0  0  0  0  0  0  0  0  0  0  0  0
   -2.1184   -0.6431    0.0661 C   0  0  0  0  0  0  0  0  0  0  0  0
   -0.6364   -0.8754    0.3073 C   0  0  0  0  0  0  0  0  0  0  0  0
    1.9874   -0.9567    0.7946 N   0  0  0  0  0  0  0  0  0  0  0  0
    3.3216   -1.1343    0.9741 C   0  0  0  0  0  0  0  0  0  0  0  0
    4.5683    1.2190   -1.1163 H   0  0  0  0  0  0  0  0  0  0  0  0
    2.1469    1.5332   -1.4703 H   0  0  0  0  0  0  0  0  0  0  0  0
   -0.3705    1.6469    1.1575 H   0  0  0  0  0  0  0  0  0  0  0  0
    0.3699    2.3348   -0.2897 H   0  0  0  0  0  0  0  0  0  0  0  0
   -1.5487    1.8498   -1.6682 H   0  0  0  0  0  0  0  0  0  0  0  0
   -2.0929    2.6977   -0.2082 H   0  0  0  0  0  0  0  0  0  0  0  0
   -4.3864    1.7585   -0.8167 H   0  0  0  0  0  0  0  0  0  0  0  0
   -5.9443   -0.1192   -0.4351 H   0  0  0  0  0  0  0  0  0  0  0  0
   -5.0791   -2.3329    0.2706 H   0  0  0  0  0  0  0  0  0  0  0  0
   -2.6552   -2.6739    0.5929 H   0  0  0  0  0  0  0  0  0  0  0  0
   -0.4902   -0.9383    1.3944 H   0  0  0  0  0  0  0  0  0  0  0  0
   -0.3613   -1.8350   -0.1496 H   0  0  0  0  0  0  0  0  0  0  0  0
    3.5767   -1.9252    1.6749 H   0  0  0  0  0  0  0  0  0  0  0  0
  1  2  2  0
  2  3  1  0
  2  4  1  0
  4  5  2  0
  5  6  1  0
  6  7  2  0
  7  8  1  0
  8  9  1  0
  9 10  1  0
 10 11  1  0
 11 12  2  0
 12 13  1  0
 13 14  2  0
 14 15  1  0
 15 16  2  0
 16 17  1  0
  7 18  1  0
 18 19  2  0
 19  4  1  0
 17  8  1  0
 16 11  1  0
  5 20  1  0
  6 21  1  0
  9 22  1  0
  9 23  1  0
 10 24  1  0
 10 25  1  0
 12 26  1  0
 13 27  1  0
 14 28  1  0
 15 29  1  0
 17 30  1  0
 17 31  1  0
 19 32  1  0
M  CHG  2   2   1   3  -1
M  END
$$$$
