
     RDKit          3D

 68 70  0  0  0  0  0  0  0  0999 V2000
   -5.9440    4.8512    2.4677 C   0  0  0  0  0  0  0  0  0  0  0  0
   -5.9981    3.6624    1.6899 O   0  0  0  0  0  0  0  0  0  0  0  0
   -4.8314    2.9629    1.5495 C   0  0  0  0  0  0  0  0  0  0  0  0
   -3.6013    3.2971    2.1105 C   0  0  0  0  0  0  0  0  0  0  0  0
   -2.4838    2.4846    1.8859 C   0  0  0  0  0  0  0  0  0  0  0  0
   -2.5722    1.3199    1.1010 C   0  0  0  0  0  0  0  0  0  0  0  0
   -1.2989    0.5054    0.8535 C   0  0  0  0  0  0  0  0  0  0  0  0
   -1.4665   -1.0228    0.6182 C   0  0  0  0  0  0  0  0  0  0  0  0
   -2.4650   -1.6531    0.9574 O   0  0  0  0  0  0  0  0  0  0  0  0
   -0.3459   -1.6564    0.0967 N   0  0  0  0  0  0  0  0  0  0  0  0
   -0.2330   -3.1061   -0.1359 C   0  0  0  0  0  0  0  0  0  0  0  0
   -0.3522   -3.8856    1.1838 C   0  0  0  0  0  0  0  0  0  0  0  0
    1.1530   -3.3926   -0.7369 C   0  0  0  0  0  0  0  0  0  0  0  0
   -1.2957   -3.5898   -1.1373 C   0  0  0  0  0  0  0  0  0  0  0  0
   -0.3971    1.1780   -0.1288 N   0  0  0  0  0  0  0  0  0  0  0  0
    0.8494    1.6028    0.3354 C   0  0  0  0  0  0  0  0  0  0  0  0
    1.1565    1.5646    1.5296 O   0  0  0  0  0  0  0  0  0  0  0  0
    1.8802    2.0642   -0.6905 C   0  0  0  0  0  0  0  0  0  0  0  0
    3.2974    1.8034   -0.1827 C   0  0  0  0  0  0  0  0  0  0  0  0
    3.5900    0.3148   -0.0920 C   0  0  0  0  0  0  0  0  0  0  0  0
    2.8457   -0.5276   -0.5890 O   0  0  0  0  0  0  0  0  0  0  0  0
    4.7695    0.0638    0.5703 N   0  0  0  0  0  0  0  0  0  0  0  0
    5.3503   -1.1747    0.7201 C   0  0  0  0  0  0  0  0  0  0  0  0
    5.0038   -2.4059    0.1245 C   0  0  0  0  0  0  0  0  0  0  0  0
    5.9163   -3.3015    0.6243 C   0  0  0  0  0  0  0  0  0  0  0  0
    6.1478   -4.7437    0.4369 C   0  0  0  0  0  0  0  0  0  0  0  0
    6.7674   -2.6482    1.4582 O   0  0  0  0  0  0  0  0  0  0  0  0
    6.4178   -1.3117    1.5156 N   0  0  0  0  0  0  0  0  0  0  0  0
   -0.9439    1.5462   -1.4023 C   0  0  0  0  0  0  0  0  0  0  0  0
   -1.6717    0.6302   -2.1763 C   0  0  0  0  0  0  0  0  0  0  0  0
   -2.2309    1.0054   -3.4042 C   0  0  0  0  0  0  0  0  0  0  0  0
   -2.0798    2.3073   -3.8694 C   0  0  0  0  0  0  0  0  0  0  0  0
   -1.3804    3.2226   -3.0972 C   0  0  0  0  0  0  0  0  0  0  0  0
   -1.2504    4.4847   -3.5265 F   0  0  0  0  0  0  0  0  0  0  0  0
   -0.8209    2.8587   -1.8750 C   0  0  0  0  0  0  0  0  0  0  0  0
   -3.8128    1.0017    0.5350 C   0  0  0  0  0  0  0  0  0  0  0  0
   -4.9287    1.8138    0.7635 C   0  0  0  0  0  0  0  0  0  0  0  0
   -5.6425    4.6408    3.4986 H   0  0  0  0  0  0  0  0  0  0  0  0
   -5.2849    5.5925    2.0054 H   0  0  0  0  0  0  0  0  0  0  0  0
   -6.9519    5.2760    2.4988 H   0  0  0  0  0  0  0  0  0  0  0  0
   -3.4735    4.1799    2.7278 H   0  0  0  0  0  0  0  0  0  0  0  0
   -1.5308    2.7687    2.3307 H   0  0  0  0  0  0  0  0  0  0  0  0
   -0.7939    0.4984    1.8306 H   0  0  0  0  0  0  0  0  0  0  0  0
    0.4872   -1.0932   -0.0585 H   0  0  0  0  0  0  0  0  0  0  0  0
    0.3672   -3.5169    1.9239 H   0  0  0  0  0  0  0  0  0  0  0  0
   -0.1604   -4.9535    1.0316 H   0  0  0  0  0  0  0  0  0  0  0  0
   -1.3493   -3.7959    1.6258 H   0  0  0  0  0  0  0  0  0  0  0  0
    1.2875   -4.4586   -0.9529 H   0  0  0  0  0  0  0  0  0  0  0  0
    1.9449   -3.0916   -0.0428 H   0  0  0  0  0  0  0  0  0  0  0  0
    1.3021   -2.8371   -1.6700 H   0  0  0  0  0  0  0  0  0  0  0  0
   -1.1516   -4.6467   -1.3863 H   0  0  0  0  0  0  0  0  0  0  0  0
   -2.3101   -3.4866   -0.7412 H   0  0  0  0  0  0  0  0  0  0  0  0
   -1.2489   -3.0172   -2.0713 H   0  0  0  0  0  0  0  0  0  0  0  0
    1.7315    1.5538   -1.6483 H   0  0  0  0  0  0  0  0  0  0  0  0
    1.7638    3.1422   -0.8358 H   0  0  0  0  0  0  0  0  0  0  0  0
    4.0177    2.2397   -0.8846 H   0  0  0  0  0  0  0  0  0  0  0  0
    3.4561    2.2693    0.7971 H   0  0  0  0  0  0  0  0  0  0  0  0
    5.2368    0.7987    1.0852 H   0  0  0  0  0  0  0  0  0  0  0  0
    4.2105   -2.6150   -0.5760 H   0  0  0  0  0  0  0  0  0  0  0  0
    6.6269   -5.1856    1.3167 H   0  0  0  0  0  0  0  0  0  0  0  0
    6.7956   -4.9124   -0.4296 H   0  0  0  0  0  0  0  0  0  0  0  0
    5.2024   -5.2694    0.2672 H   0  0  0  0  0  0  0  0  0  0  0  0
   -1.8043   -0.4010   -1.8655 H   0  0  0  0  0  0  0  0  0  0  0  0
   -2.7864    0.2784   -3.9913 H   0  0  0  0  0  0  0  0  0  0  0  0
   -2.5114    2.6162   -4.8161 H   0  0  0  0  0  0  0  0  0  0  0  0
   -0.3466    3.6374   -1.2878 H   0  0  0  0  0  0  0  0  0  0  0  0
   -3.9391    0.1184   -0.0861 H   0  0  0  0  0  0  0  0  0  0  0  0
   -5.8853    1.5445    0.3211 H   0  0  0  0  0  0  0  0  0  0  0  0
  1  2  1  0
  2  3  1  0
  3  4  2  0
  4  5  1  0
  5  6  2  0
  6  7  1  0
  7  8  1  0
  8  9  2  0
  8 10  1  0
 10 11  1  0
 11 12  1  0
 11 13  1  0
 11 14  1  0
  7 15  1  0
 15 16  1  0
 16 17  2  0
 16 18  1  0
 18 19  1  0
 19 20  1  0
 20 21  2  0
 20 22  1  0
 22 23  1  0
 23 24  1  0
 24 25  2  0
 25 26  1  0
 25 27  1  0
 27 28  1  0
 15 29  1  0
 29 30  2  0
 30 31  1  0
 31 32  2  0
 32 33  1  0
 33 34  1  0
 33 35  2  0
  6 36  1  0
 36 37  2  0
 37  3  1  0
 28 23  2  0
 35 29  1  0
  1 38  1  0
  1 39  1  0
  1 40  1  0
  4 41  1  0
  5 42  1  0
  7 43  1  0
 10 44  1  0
 12 45  1  0
 12 46  1  0
 12 47  1  0
 13 48  1  0
 13 49  1  0
 13 50  1  0
 14 51  1  0
 14 52  1  0
 14 53  1  0
 18 54  1  0
 18 55  1  0
 19 56  1  0
 19 57  1  0
 22 58  1  0
 24 59  1  0
 26 60  1  0
 26 61  1  0
 26 62  1  0
 30 63  1  0
 31 64  1  0
 32 65  1  0
 35 66  1  0
 36 67  1  0
 37 68  1  0
M  END
$$$$
