
     RDKit          3D

 47 51  0  0  0  0  0  0  0  0999 V2000
   -0.5786   -0.4427   -3.4186 C   0  0  0  0  0  0  0  0  0  0  0  0
   -1.4563    0.2168   -2.4008 C   0  0  0  0  0  0  0  0  0  0  0  0
   -2.4626    0.9496   -2.8083 N   0  0  0  0  0  0  0  0  0  0  0  0
   -3.2443    1.5339   -1.8510 C   0  0  0  0  0  0  0  0  0  0  0  0
   -4.5944    2.5081   -2.2412 S   0  0  0  0  0  0  0  0  0  0  0  0
   -4.9510    2.7840   -0.5928 C   0  0  0  0  0  0  0  0  0  0  0  0
   -4.0614    2.1621    0.2658 C   0  0  0  0  0  0  0  0  0  0  0  0
   -3.1009    1.4491   -0.4822 C   0  0  0  0  0  0  0  0  0  0  0  0
   -1.9131    0.5835   -0.0557 C   0  0  0  0  0  0  0  0  0  0  0  0
   -1.4799    0.2806    1.1402 N   0  0  0  0  0  0  0  0  0  0  0  0
   -0.3812   -0.5234    0.9661 N   0  0  0  0  0  0  0  0  0  0  0  0
   -0.1840   -0.6846   -0.3277 C   0  0  0  0  0  0  0  0  0  0  0  0
    1.1134   -1.6203   -0.9839 S   0  0  0  0  0  0  0  0  0  0  0  0
    1.7086   -2.4609    0.5138 C   0  0  0  0  0  0  0  0  0  0  0  0
    2.8605   -3.3725    0.1387 C   0  0  0  0  0  0  0  0  0  0  0  0
    2.6982   -4.5444   -0.1909 O   0  0  0  0  0  0  0  0  0  0  0  0
    4.0993   -2.7725    0.1906 N   0  0  0  0  0  0  0  0  0  0  0  0
    5.2666   -3.4725   -0.2923 C   0  0  0  0  0  0  0  0  0  0  0  0
    6.4701   -2.6832    0.0605 C   0  0  0  0  0  0  0  0  0  0  0  0
    7.5893   -2.9485    0.8218 C   0  0  0  0  0  0  0  0  0  0  0  0
    8.3877   -1.7801    0.7801 C   0  0  0  0  0  0  0  0  0  0  0  0
    7.7066   -0.8772   -0.0017 C   0  0  0  0  0  0  0  0  0  0  0  0
    6.5398   -1.4139   -0.4422 O   0  0  0  0  0  0  0  0  0  0  0  0
   -1.1412    0.0054   -1.0415 N   0  0  0  0  0  0  0  0  0  0  0  0
   -4.1847    2.2537    1.7547 C   0  0  0  0  0  0  0  0  0  0  0  0
   -5.1244    3.3956    2.1759 C   0  0  0  0  0  0  0  0  0  0  0  0
   -6.4047    3.4248    1.3272 C   0  0  0  0  0  0  0  0  0  0  0  0
   -6.0985    3.6450   -0.1632 C   0  0  0  0  0  0  0  0  0  0  0  0
    0.4458   -0.0712   -3.3392 H   0  0  0  0  0  0  0  0  0  0  0  0
   -0.6150   -1.5292   -3.3098 H   0  0  0  0  0  0  0  0  0  0  0  0
   -0.9374   -0.2020   -4.4251 H   0  0  0  0  0  0  0  0  0  0  0  0
    2.0438   -1.7309    1.2581 H   0  0  0  0  0  0  0  0  0  0  0  0
    0.9146   -3.0690    0.9594 H   0  0  0  0  0  0  0  0  0  0  0  0
    4.1466   -1.7603    0.1793 H   0  0  0  0  0  0  0  0  0  0  0  0
    5.2984   -4.4725    0.1528 H   0  0  0  0  0  0  0  0  0  0  0  0
    5.1789   -3.5808   -1.3786 H   0  0  0  0  0  0  0  0  0  0  0  0
    7.8007   -3.8720    1.3432 H   0  0  0  0  0  0  0  0  0  0  0  0
    9.3423   -1.6152    1.2596 H   0  0  0  0  0  0  0  0  0  0  0  0
    7.9070    0.1354   -0.3237 H   0  0  0  0  0  0  0  0  0  0  0  0
   -4.5783    1.3019    2.1319 H   0  0  0  0  0  0  0  0  0  0  0  0
   -3.2016    2.4076    2.2131 H   0  0  0  0  0  0  0  0  0  0  0  0
   -5.3797    3.2856    3.2359 H   0  0  0  0  0  0  0  0  0  0  0  0
   -4.6037    4.3561    2.0699 H   0  0  0  0  0  0  0  0  0  0  0  0
   -7.0718    4.2179    1.6832 H   0  0  0  0  0  0  0  0  0  0  0  0
   -6.9400    2.4750    1.4556 H   0  0  0  0  0  0  0  0  0  0  0  0
   -6.9957    3.4315   -0.7549 H   0  0  0  0  0  0  0  0  0  0  0  0
   -5.8339    4.6968   -0.3277 H   0  0  0  0  0  0  0  0  0  0  0  0
  1  2  1  0
  2  3  2  0
  3  4  1  0
  4  5  1  0
  5  6  1  0
  6  7  2  0
  7  8  1  0
  8  9  1  0
  9 10  2  0
 10 11  1  0
 11 12  2  0
 12 13  1  0
 13 14  1  0
 14 15  1  0
 15 16  2  0
 15 17  1  0
 17 18  1  0
 18 19  1  0
 19 20  2  0
 20 21  1  0
 21 22  2  0
 22 23  1  0
 12 24  1  0
  7 25  1  0
 25 26  1  0
 26 27  1  0
 27 28  1  0
 24  2  1  0
  8  4  2  0
 24  9  1  0
 28  6  1  0
 23 19  1  0
  1 29  1  0
  1 30  1  0
  1 31  1  0
 14 32  1  0
 14 33  1  0
 17 34  1  0
 18 35  1  0
 18 36  1  0
 20 37  1  0
 21 38  1  0
 22 39  1  0
 25 40  1  0
 25 41  1  0
 26 42  1  0
 26 43  1  0
 27 44  1  0
 27 45  1  0
 28 46  1  0
 28 47  1  0
M  END
$$$$
