
     RDKit          3D

 69 71  0  0  0  0  0  0  0  0999 V2000
   -6.3623   -1.1781   -3.2395 C   0  0  0  0  0  0  0  0  0  0  0  0
   -5.4145   -0.5607   -2.3763 O   0  0  0  0  0  0  0  0  0  0  0  0
   -4.1761   -1.1406   -2.2674 C   0  0  0  0  0  0  0  0  0  0  0  0
   -3.7419   -2.2006   -3.0718 C   0  0  0  0  0  0  0  0  0  0  0  0
   -2.4901   -2.7780   -2.8673 C   0  0  0  0  0  0  0  0  0  0  0  0
   -1.6702   -2.3135   -1.8442 C   0  0  0  0  0  0  0  0  0  0  0  0
   -2.0727   -1.2505   -1.0096 C   0  0  0  0  0  0  0  0  0  0  0  0
   -1.1059   -0.8486    0.1056 C   0  0  0  0  0  0  0  0  0  0  0  0
   -1.6921   -0.1570    1.3739 C   0  0  0  0  0  0  0  0  0  0  0  0
   -1.2516    0.9018    1.8267 O   0  0  0  0  0  0  0  0  0  0  0  0
   -2.6974   -0.8831    2.0060 N   0  0  0  0  0  0  0  0  0  0  0  0
   -3.4333   -0.4201    3.1944 C   0  0  0  0  0  0  0  0  0  0  0  0
   -4.2205    0.8655    2.8924 C   0  0  0  0  0  0  0  0  0  0  0  0
   -4.4336   -1.5254    3.5844 C   0  0  0  0  0  0  0  0  0  0  0  0
   -2.4875   -0.1943    4.3865 C   0  0  0  0  0  0  0  0  0  0  0  0
    0.1171   -0.1630   -0.3904 N   0  0  0  0  0  0  0  0  0  0  0  0
    1.3313   -0.6347    0.1280 C   0  0  0  0  0  0  0  0  0  0  0  0
    1.4326   -1.7287    0.6892 O   0  0  0  0  0  0  0  0  0  0  0  0
    2.5487    0.2583   -0.0357 C   0  0  0  0  0  0  0  0  0  0  0  0
    3.7904   -0.3731    0.5902 C   0  0  0  0  0  0  0  0  0  0  0  0
    5.0355    0.4490    0.3218 C   0  0  0  0  0  0  0  0  0  0  0  0
    4.9850    1.6056   -0.0854 O   0  0  0  0  0  0  0  0  0  0  0  0
    6.1843   -0.2563    0.6026 N   0  0  0  0  0  0  0  0  0  0  0  0
    7.4682    0.2077    0.4302 C   0  0  0  0  0  0  0  0  0  0  0  0
    7.9162    1.4719   -0.0138 C   0  0  0  0  0  0  0  0  0  0  0  0
    9.2854    1.3764   -0.0050 C   0  0  0  0  0  0  0  0  0  0  0  0
   10.3795    2.3004   -0.3550 C   0  0  0  0  0  0  0  0  0  0  0  0
    9.6414    0.1318    0.4121 O   0  0  0  0  0  0  0  0  0  0  0  0
    8.5018   -0.6003    0.6952 N   0  0  0  0  0  0  0  0  0  0  0  0
   -0.0226    1.1723   -0.9406 C   0  0  0  0  0  0  0  0  0  0  0  0
   -0.7813    1.4782   -2.2095 C   0  0  0  0  0  0  0  0  0  0  0  0
    0.7043    1.5850   -2.2010 C   0  0  0  0  0  0  0  0  0  0  0  0
   -3.3162   -0.6363   -1.2645 C   0  0  0  0  0  0  0  0  0  0  0  0
   -3.6607    0.4087   -0.4477 O   0  0  0  0  0  0  0  0  0  0  0  0
   -4.1620    1.5637   -1.1186 C   0  0  0  0  0  0  0  0  0  0  0  0
   -6.0509   -1.0948   -4.2856 H   0  0  0  0  0  0  0  0  0  0  0  0
   -6.5345   -2.2228   -2.9601 H   0  0  0  0  0  0  0  0  0  0  0  0
   -7.3121   -0.6432   -3.1335 H   0  0  0  0  0  0  0  0  0  0  0  0
   -4.3576   -2.6032   -3.8696 H   0  0  0  0  0  0  0  0  0  0  0  0
   -2.1566   -3.6008   -3.4964 H   0  0  0  0  0  0  0  0  0  0  0  0
   -0.6984   -2.7852   -1.6927 H   0  0  0  0  0  0  0  0  0  0  0  0
   -0.7906   -1.8172    0.5235 H   0  0  0  0  0  0  0  0  0  0  0  0
   -3.1889   -1.5384    1.4078 H   0  0  0  0  0  0  0  0  0  0  0  0
   -3.5595    1.6974    2.6267 H   0  0  0  0  0  0  0  0  0  0  0  0
   -4.9126    0.7144    2.0553 H   0  0  0  0  0  0  0  0  0  0  0  0
   -4.8101    1.1838    3.7597 H   0  0  0  0  0  0  0  0  0  0  0  0
   -3.9188   -2.4681    3.8059 H   0  0  0  0  0  0  0  0  0  0  0  0
   -5.1378   -1.7229    2.7683 H   0  0  0  0  0  0  0  0  0  0  0  0
   -5.0159   -1.2419    4.4685 H   0  0  0  0  0  0  0  0  0  0  0  0
   -1.7964    0.6362    4.2164 H   0  0  0  0  0  0  0  0  0  0  0  0
   -1.8898   -1.0911    4.5859 H   0  0  0  0  0  0  0  0  0  0  0  0
   -3.0478    0.0408    5.2995 H   0  0  0  0  0  0  0  0  0  0  0  0
    2.3494    1.2284    0.4339 H   0  0  0  0  0  0  0  0  0  0  0  0
    2.7388    0.4071   -1.1028 H   0  0  0  0  0  0  0  0  0  0  0  0
    3.6682   -0.4685    1.6757 H   0  0  0  0  0  0  0  0  0  0  0  0
    3.9421   -1.3779    0.1750 H   0  0  0  0  0  0  0  0  0  0  0  0
    6.1368   -1.2160    0.9243 H   0  0  0  0  0  0  0  0  0  0  0  0
    7.3303    2.3307   -0.3060 H   0  0  0  0  0  0  0  0  0  0  0  0
   11.3501    1.9085   -0.0323 H   0  0  0  0  0  0  0  0  0  0  0  0
   10.4157    2.4536   -1.4390 H   0  0  0  0  0  0  0  0  0  0  0  0
   10.2336    3.2735    0.1257 H   0  0  0  0  0  0  0  0  0  0  0  0
   -0.0865    1.9298   -0.1580 H   0  0  0  0  0  0  0  0  0  0  0  0
   -1.1984    0.6782   -2.8071 H   0  0  0  0  0  0  0  0  0  0  0  0
   -1.3521    2.3985   -2.2436 H   0  0  0  0  0  0  0  0  0  0  0  0
    1.1463    2.5743   -2.2334 H   0  0  0  0  0  0  0  0  0  0  0  0
    1.2436    0.8411   -2.7768 H   0  0  0  0  0  0  0  0  0  0  0  0
   -3.7901    2.4441   -0.5839 H   0  0  0  0  0  0  0  0  0  0  0  0
   -3.8250    1.6388   -2.1589 H   0  0  0  0  0  0  0  0  0  0  0  0
   -5.2535    1.5793   -1.0682 H   0  0  0  0  0  0  0  0  0  0  0  0
  1  2  1  0
  2  3  1  0
  3  4  2  0
  4  5  1  0
  5  6  2  0
  6  7  1  0
  7  8  1  0
  8  9  1  0
  9 10  2  0
  9 11  1  0
 11 12  1  0
 12 13  1  0
 12 14  1  0
 12 15  1  0
  8 16  1  0
 16 17  1  0
 17 18  2  0
 17 19  1  0
 19 20  1  0
 20 21  1  0
 21 22  2  0
 21 23  1  0
 23 24  1  0
 24 25  1  0
 25 26  2  0
 26 27  1  0
 26 28  1  0
 28 29  1  0
 16 30  1  0
 30 31  1  0
 31 32  1  0
  7 33  2  0
 33 34  1  0
 34 35  1  0
 33  3  1  0
 29 24  2  0
 32 30  1  0
  1 36  1  0
  1 37  1  0
  1 38  1  0
  4 39  1  0
  5 40  1  0
  6 41  1  0
  8 42  1  0
 11 43  1  0
 13 44  1  0
 13 45  1  0
 13 46  1  0
 14 47  1  0
 14 48  1  0
 14 49  1  0
 15 50  1  0
 15 51  1  0
 15 52  1  0
 19 53  1  0
 19 54  1  0
 20 55  1  0
 20 56  1  0
 23 57  1  0
 25 58  1  0
 27 59  1  0
 27 60  1  0
 27 61  1  0
 30 62  1  0
 31 63  1  0
 31 64  1  0
 32 65  1  0
 32 66  1  0
 35 67  1  0
 35 68  1  0
 35 69  1  0
M  END
$$$$
