
     RDKit          3D

 57 60  0  0  0  0  0  0  0  0999 V2000
    5.3756    2.9091   -1.2213 C   0  0  0  0  0  0  0  0  0  0  0  0
    4.3221    2.0106   -0.6616 C   0  0  0  0  0  0  0  0  0  0  0  0
    2.9562    2.2060   -0.7037 C   0  0  0  0  0  0  0  0  0  0  0  0
    2.3483    1.1625    0.0183 C   0  0  0  0  0  0  0  0  0  0  0  0
    0.9426    1.0177    0.2007 C   0  0  0  0  0  0  0  0  0  0  0  0
    0.2431   -0.0597   -0.1904 C   0  0  0  0  0  0  0  0  0  0  0  0
   -1.2093   -0.1590   -0.0339 C   0  0  0  0  0  0  0  0  0  0  0  0
   -1.7329   -0.2472    1.2570 C   0  0  0  0  0  0  0  0  0  0  0  0
   -3.0967   -0.3824    1.4433 C   0  0  0  0  0  0  0  0  0  0  0  0
   -3.9391   -0.4411    0.3371 C   0  0  0  0  0  0  0  0  0  0  0  0
   -5.3305   -0.5874    0.5139 C   0  0  0  0  0  0  0  0  0  0  0  0
   -6.2352   -0.6635   -0.5584 C   0  0  0  0  0  0  0  0  0  0  0  0
   -7.6079   -0.7844   -0.3622 N   0  0  0  0  0  0  0  0  0  0  0  0
   -8.1307   -1.1770    0.9485 C   0  0  0  0  0  0  0  0  0  0  0  0
   -8.5010   -1.0351   -1.4958 C   0  0  0  0  0  0  0  0  0  0  0  0
   -5.6685   -0.5692   -1.8358 C   0  0  0  0  0  0  0  0  0  0  0  0
   -4.2863   -0.4213   -2.0400 C   0  0  0  0  0  0  0  0  0  0  0  0
   -3.3915   -0.3520   -0.9630 C   0  0  0  0  0  0  0  0  0  0  0  0
   -2.0341   -0.2026   -1.1197 N   0  0  0  0  0  4  0  0  0  0  0  0
   -1.4788   -0.0534   -2.4875 C   0  0  0  0  0  0  0  0  0  0  0  0
    3.3474    0.3410    0.5154 C   0  0  0  0  0  0  0  0  0  0  0  0
    3.2339   -0.9152    1.3197 C   0  0  0  0  0  0  0  0  0  0  0  0
    4.5763    0.8680    0.0949 N   0  0  0  0  0  0  0  0  0  0  0  0
    5.8661    0.3405    0.3942 C   0  0  0  0  0  0  0  0  0  0  0  0
    6.8159    0.1913   -0.6242 C   0  0  0  0  0  0  0  0  0  0  0  0
    8.0818   -0.3188   -0.3278 C   0  0  0  0  0  0  0  0  0  0  0  0
    8.4042   -0.6755    0.9808 C   0  0  0  0  0  0  0  0  0  0  0  0
    7.4616   -0.5253    1.9968 C   0  0  0  0  0  0  0  0  0  0  0  0
    6.1926   -0.0187    1.7074 C   0  0  0  0  0  0  0  0  0  0  0  0
    6.2186    3.0266   -0.5334 H   0  0  0  0  0  0  0  0  0  0  0  0
    5.7389    2.5281   -2.1805 H   0  0  0  0  0  0  0  0  0  0  0  0
    4.9671    3.9103   -1.3996 H   0  0  0  0  0  0  0  0  0  0  0  0
    2.4658    3.0342   -1.2018 H   0  0  0  0  0  0  0  0  0  0  0  0
    0.4324    1.8785    0.6316 H   0  0  0  0  0  0  0  0  0  0  0  0
    0.7404   -0.9032   -0.6628 H   0  0  0  0  0  0  0  0  0  0  0  0
   -1.0765   -0.2211    2.1264 H   0  0  0  0  0  0  0  0  0  0  0  0
   -3.4922   -0.4506    2.4568 H   0  0  0  0  0  0  0  0  0  0  0  0
   -5.7086   -0.6353    1.5337 H   0  0  0  0  0  0  0  0  0  0  0  0
   -7.7163   -2.1418    1.2624 H   0  0  0  0  0  0  0  0  0  0  0  0
   -7.9038   -0.4158    1.7033 H   0  0  0  0  0  0  0  0  0  0  0  0
   -9.2223   -1.2777    0.9364 H   0  0  0  0  0  0  0  0  0  0  0  0
   -8.2839   -2.0059   -1.9548 H   0  0  0  0  0  0  0  0  0  0  0  0
   -9.5518   -1.0422   -1.1855 H   0  0  0  0  0  0  0  0  0  0  0  0
   -8.4167   -0.2445   -2.2486 H   0  0  0  0  0  0  0  0  0  0  0  0
   -6.2962   -0.6085   -2.7234 H   0  0  0  0  0  0  0  0  0  0  0  0
   -3.9589   -0.3653   -3.0734 H   0  0  0  0  0  0  0  0  0  0  0  0
   -1.6787   -0.9804   -3.0339 H   0  0  0  0  0  0  0  0  0  0  0  0
   -1.9678    0.8054   -2.9569 H   0  0  0  0  0  0  0  0  0  0  0  0
   -0.4055    0.1337   -2.4886 H   0  0  0  0  0  0  0  0  0  0  0  0
    3.3688   -0.7032    2.3845 H   0  0  0  0  0  0  0  0  0  0  0  0
    2.2500   -1.3790    1.2081 H   0  0  0  0  0  0  0  0  0  0  0  0
    3.9637   -1.6663    1.0018 H   0  0  0  0  0  0  0  0  0  0  0  0
    6.5804    0.4300   -1.6577 H   0  0  0  0  0  0  0  0  0  0  0  0
    8.8182   -0.4400   -1.1185 H   0  0  0  0  0  0  0  0  0  0  0  0
    9.3931   -1.0668    1.2098 H   0  0  0  0  0  0  0  0  0  0  0  0
    7.7217   -0.7905    3.0191 H   0  0  0  0  0  0  0  0  0  0  0  0
    5.4950    0.1333    2.5259 H   0  0  0  0  0  0  0  0  0  0  0  0
  1  2  1  0
  2  3  2  0
  3  4  1  0
  4  5  1  0
  5  6  2  3
  6  7  1  0
  7  8  2  0
  8  9  1  0
  9 10  2  0
 10 11  1  0
 11 12  2  0
 12 13  1  0
 13 14  1  0
 13 15  1  0
 12 16  1  0
 16 17  2  0
 17 18  1  0
 18 19  2  0
 19 20  1  0
  4 21  2  0
 21 22  1  0
 21 23  1  0
 23 24  1  0
 24 25  2  0
 25 26  1  0
 26 27  2  0
 27 28  1  0
 28 29  2  0
 23  2  1  0
 29 24  1  0
 19  7  1  0
 18 10  1  0
  1 30  1  0
  1 31  1  0
  1 32  1  0
  3 33  1  0
  5 34  1  0
  6 35  1  0
  8 36  1  0
  9 37  1  0
 11 38  1  0
 14 39  1  0
 14 40  1  0
 14 41  1  0
 15 42  1  0
 15 43  1  0
 15 44  1  0
 16 45  1  0
 17 46  1  0
 20 47  1  0
 20 48  1  0
 20 49  1  0
 22 50  1  0
 22 51  1  0
 22 52  1  0
 25 53  1  0
 26 54  1  0
 27 55  1  0
 28 56  1  0
 29 57  1  0
M  CHG  1  19   1
M  END
$$$$
