
     RDKit          3D

 36 37  0  0  0  0  0  0  0  0999 V2000
    0.1647   -0.6195    0.9960 O   0  0  0  0  0  0  0  0  0  0  0  0
    0.2552    0.1646    0.0560 C   0  0  0  0  0  0  0  0  0  0  0  0
   -0.9256    0.9610   -0.4986 C   0  0  0  0  0  0  0  0  0  0  0  0
   -2.1183    0.6684    0.2246 O   0  0  0  0  0  0  0  0  0  0  0  0
   -3.2056    1.3433   -0.2114 C   0  0  0  0  0  0  0  0  0  0  0  0
   -3.2224    2.1428   -1.1338 O   0  0  0  0  0  0  0  0  0  0  0  0
   -4.4039    0.9801    0.5933 C   0  0  0  0  0  0  0  0  0  0  0  0
   -4.3491    0.0571    1.6482 C   0  0  0  0  0  0  0  0  0  0  0  0
   -5.5041   -0.2503    2.3741 C   0  0  0  0  0  0  0  0  0  0  0  0
   -6.7125    0.3634    2.0469 C   0  0  0  0  0  0  0  0  0  0  0  0
   -8.2723   -0.0539    3.0295 Br  0  0  0  0  0  0  0  0  0  0  0  0
   -6.7795    1.2822    1.0009 C   0  0  0  0  0  0  0  0  0  0  0  0
   -5.6258    1.5903    0.2746 C   0  0  0  0  0  0  0  0  0  0  0  0
    1.4423    0.4054   -0.6164 N   0  0  0  0  0  0  0  0  0  0  0  0
    2.6940   -0.1549   -0.1314 C   0  0  0  0  0  0  0  0  0  0  0  0
    3.7312   -0.3081   -1.2466 C   0  0  0  0  0  0  0  0  0  0  0  0
    5.0210   -0.7366   -0.7411 N   0  0  0  0  0  0  0  0  0  0  0  0
    5.3633   -2.0511   -0.5460 C   0  0  0  0  0  0  0  0  0  0  0  0
    4.4735   -3.0207   -0.8947 O   0  0  0  0  0  0  0  0  0  0  0  0
    6.5742   -2.2363   -0.0080 C   0  0  0  0  0  0  0  0  0  0  0  0
    7.3633   -0.7183    0.3019 S   0  0  0  0  0  0  0  0  0  0  0  0
    5.9639    0.1827   -0.3110 C   0  0  0  0  0  0  0  0  0  0  0  0
    5.8862    1.4000   -0.3194 O   0  0  0  0  0  0  0  0  0  0  0  0
   -0.6889    2.0274   -0.4056 H   0  0  0  0  0  0  0  0  0  0  0  0
   -1.0541    0.6874   -1.5524 H   0  0  0  0  0  0  0  0  0  0  0  0
   -3.4144   -0.4314    1.9175 H   0  0  0  0  0  0  0  0  0  0  0  0
   -5.4482   -0.9673    3.1895 H   0  0  0  0  0  0  0  0  0  0  0  0
   -7.7198    1.7630    0.7427 H   0  0  0  0  0  0  0  0  0  0  0  0
   -5.6842    2.3088   -0.5414 H   0  0  0  0  0  0  0  0  0  0  0  0
    1.4961    1.2485   -1.1761 H   0  0  0  0  0  0  0  0  0  0  0  0
    2.5034   -1.1239    0.3435 H   0  0  0  0  0  0  0  0  0  0  0  0
    3.0628    0.5202    0.6496 H   0  0  0  0  0  0  0  0  0  0  0  0
    3.8630    0.6577   -1.7507 H   0  0  0  0  0  0  0  0  0  0  0  0
    3.3798   -1.0105   -2.0118 H   0  0  0  0  0  0  0  0  0  0  0  0
    4.8578   -3.8864   -0.6739 H   0  0  0  0  0  0  0  0  0  0  0  0
    7.0327   -3.1853    0.2274 H   0  0  0  0  0  0  0  0  0  0  0  0
  1  2  2  0
  2  3  1  0
  3  4  1  0
  4  5  1  0
  5  6  2  0
  5  7  1  0
  7  8  2  0
  8  9  1  0
  9 10  2  0
 10 11  1  0
 10 12  1  0
 12 13  2  0
  2 14  1  0
 14 15  1  0
 15 16  1  0
 16 17  1  0
 17 18  1  0
 18 19  1  0
 18 20  2  0
 20 21  1  0
 21 22  1  0
 22 23  2  0
 13  7  1  0
 22 17  1  0
  3 24  1  0
  3 25  1  0
  8 26  1  0
  9 27  1  0
 12 28  1  0
 13 29  1  0
 14 30  1  0
 15 31  1  0
 15 32  1  0
 16 33  1  0
 16 34  1  0
 19 35  1  0
 20 36  1  0
M  END
$$$$
