
     RDKit          3D

 38 41  0  0  0  0  0  0  0  0999 V2000
    5.4246   -2.6385    0.7966 C   0  0  0  0  0  0  0  0  0  0  0  0
    4.4988   -1.6785    0.1114 C   0  0  0  0  0  0  0  0  0  0  0  0
    3.5056   -1.0109    0.8362 C   0  0  0  0  0  0  0  0  0  0  0  0
    2.6189   -0.1430    0.1917 C   0  0  0  0  0  0  0  0  0  0  0  0
    2.6957    0.0548   -1.1910 C   0  0  0  0  0  0  0  0  0  0  0  0
    1.8134    0.9983   -1.8905 C   0  0  0  0  0  0  0  0  0  0  0  0
    0.4714    1.0661   -1.8443 C   0  0  0  0  0  0  0  0  0  0  0  0
   -0.4469    0.1699   -1.1465 C   0  0  0  0  0  0  0  0  0  0  0  0
   -0.2218   -1.1633   -1.1444 N   0  0  0  0  0  0  0  0  0  0  0  0
   -1.0951   -1.9799   -0.5208 C   0  0  0  0  0  0  0  0  0  0  0  0
   -2.2463   -1.5586    0.1249 C   0  0  0  0  0  0  0  0  0  0  0  0
   -2.5018   -0.1790    0.1207 C   0  0  0  0  0  0  0  0  0  0  0  0
   -1.5925    0.6633   -0.5210 C   0  0  0  0  0  0  0  0  0  0  0  0
   -2.0639    1.9473   -0.3670 N   0  0  0  0  0  0  0  0  0  0  0  0
   -3.2458    1.9623    0.3348 C   0  0  0  0  0  0  0  0  0  0  0  0
   -4.0599    3.0380    0.7087 C   0  0  0  0  0  0  0  0  0  0  0  0
   -5.2203    2.7495    1.4330 C   0  0  0  0  0  0  0  0  0  0  0  0
   -5.5496    1.4386    1.7690 C   0  0  0  0  0  0  0  0  0  0  0  0
   -4.7228    0.3756    1.3877 C   0  0  0  0  0  0  0  0  0  0  0  0
   -3.5467    0.6399    0.6555 C   0  0  0  0  0  0  0  0  0  0  0  0
    3.6881   -0.6146   -1.9152 C   0  0  0  0  0  0  0  0  0  0  0  0
    4.5758   -1.4823   -1.2717 C   0  0  0  0  0  0  0  0  0  0  0  0
    6.3941   -2.6762    0.2886 H   0  0  0  0  0  0  0  0  0  0  0  0
    4.9877   -3.6418    0.8003 H   0  0  0  0  0  0  0  0  0  0  0  0
    5.6121   -2.3299    1.8304 H   0  0  0  0  0  0  0  0  0  0  0  0
    3.4116   -1.1614    1.9089 H   0  0  0  0  0  0  0  0  0  0  0  0
    1.8614    0.3689    0.7793 H   0  0  0  0  0  0  0  0  0  0  0  0
    2.3432    1.7216   -2.5076 H   0  0  0  0  0  0  0  0  0  0  0  0
   -0.0123    1.8566   -2.4108 H   0  0  0  0  0  0  0  0  0  0  0  0
   -0.8354   -3.0345   -0.5560 H   0  0  0  0  0  0  0  0  0  0  0  0
   -2.9108   -2.2649    0.6065 H   0  0  0  0  0  0  0  0  0  0  0  0
   -1.5978    2.7726   -0.7134 H   0  0  0  0  0  0  0  0  0  0  0  0
   -3.8069    4.0611    0.4502 H   0  0  0  0  0  0  0  0  0  0  0  0
   -5.8754    3.5623    1.7389 H   0  0  0  0  0  0  0  0  0  0  0  0
   -6.4569    1.2369    2.3332 H   0  0  0  0  0  0  0  0  0  0  0  0
   -4.9877   -0.6429    1.6552 H   0  0  0  0  0  0  0  0  0  0  0  0
    3.7682   -0.4780   -2.9908 H   0  0  0  0  0  0  0  0  0  0  0  0
    5.3257   -2.0053   -1.8602 H   0  0  0  0  0  0  0  0  0  0  0  0
  1  2  1  0
  2  3  2  0
  3  4  1  0
  4  5  2  0
  5  6  1  0
  6  7  2  3
  7  8  1  0
  8  9  2  0
  9 10  1  0
 10 11  2  0
 11 12  1  0
 12 13  2  0
 13 14  1  0
 14 15  1  0
 15 16  2  0
 16 17  1  0
 17 18  2  0
 18 19  1  0
 19 20  2  0
  5 21  1  0
 21 22  2  0
 22  2  1  0
 13  8  1  0
 20 15  1  0
 20 12  1  0
  1 23  1  0
  1 24  1  0
  1 25  1  0
  3 26  1  0
  4 27  1  0
  6 28  1  0
  7 29  1  0
 10 30  1  0
 11 31  1  0
 14 32  1  0
 16 33  1  0
 17 34  1  0
 18 35  1  0
 19 36  1  0
 21 37  1  0
 22 38  1  0
M  END
$$$$
