
     RDKit          3D

 57 61  0  0  0  0  0  0  0  0999 V2000
   -5.4971    3.9697    2.2335 C   0  0  0  0  0  0  0  0  0  0  0  0
   -5.3159    2.6143    1.6172 C   0  0  0  0  0  0  0  0  0  0  0  0
   -5.7422    1.4667    2.2946 C   0  0  0  0  0  0  0  0  0  0  0  0
   -5.5458    0.2008    1.7384 C   0  0  0  0  0  0  0  0  0  0  0  0
   -4.9134    0.0599    0.4956 C   0  0  0  0  0  0  0  0  0  0  0  0
   -4.6905   -1.3075   -0.0996 C   0  0  0  0  0  0  0  0  0  0  0  0
   -3.5099   -1.9398    0.4493 N   0  0  0  0  0  0  0  0  0  0  0  0
   -3.6055   -2.8236    1.4743 N   0  0  0  0  0  0  0  0  0  0  0  0
   -2.3748   -3.2519    1.7562 N   0  0  0  0  0  0  0  0  0  0  0  0
   -1.5251   -2.6409    0.8862 C   0  0  0  0  0  0  0  0  0  0  0  0
   -0.0981   -2.7328    0.7418 C   0  0  0  0  0  0  0  0  0  0  0  0
    0.6410   -3.4222    1.4347 O   0  0  0  0  0  0  0  0  0  0  0  0
    0.3746   -1.9255   -0.2887 N   0  0  0  0  0  0  0  0  0  0  0  0
   -0.4301   -1.1271   -1.0925 C   0  0  0  0  0  0  0  0  0  0  0  0
    0.2499   -0.2489   -2.1435 C   0  0  0  0  0  0  0  0  0  0  0  0
    0.8919    0.9831   -1.4907 C   0  0  0  0  0  0  0  0  0  0  0  0
    2.2925    0.7228   -0.9505 C   0  0  0  0  0  0  0  0  0  0  0  0
    3.1625    0.0010   -1.9201 N   0  0  0  0  0  0  0  0  0  0  0  0
    4.0795   -1.2935   -1.2820 S   0  0  0  0  0  6  0  0  0  0  0  0
    3.1082   -2.1767   -0.6647 O   0  0  0  0  0  0  0  0  0  0  0  0
    4.9844   -1.7657   -2.3052 O   0  0  0  0  0  0  0  0  0  0  0  0
    5.0420   -0.5170   -0.0151 C   0  0  0  0  0  0  0  0  0  0  0  0
    5.9809    0.4537   -0.3779 C   0  0  0  0  0  0  0  0  0  0  0  0
    6.7367    1.0782    0.6132 C   0  0  0  0  0  0  0  0  0  0  0  0
    6.5549    0.7294    1.9532 C   0  0  0  0  0  0  0  0  0  0  0  0
    5.6210   -0.2468    2.3079 C   0  0  0  0  0  0  0  0  0  0  0  0
    4.8610   -0.8771    1.3232 C   0  0  0  0  0  0  0  0  0  0  0  0
    2.5355   -0.2779   -3.2359 C   0  0  0  0  0  0  0  0  0  0  0  0
    1.2110   -1.0103   -3.0628 C   0  0  0  0  0  0  0  0  0  0  0  0
   -1.7278   -1.0413   -0.9660 N   0  0  0  0  0  0  0  0  0  0  0  0
   -2.2152   -1.8147    0.0341 C   0  0  0  0  0  0  0  0  0  0  0  0
   -4.4651    1.2093   -0.1696 C   0  0  0  0  0  0  0  0  0  0  0  0
   -4.6629    2.4746    0.3879 C   0  0  0  0  0  0  0  0  0  0  0  0
   -5.5849    4.7418    1.4619 H   0  0  0  0  0  0  0  0  0  0  0  0
   -4.6426    4.2064    2.8750 H   0  0  0  0  0  0  0  0  0  0  0  0
   -6.4123    4.0058    2.8339 H   0  0  0  0  0  0  0  0  0  0  0  0
   -6.2272    1.5497    3.2649 H   0  0  0  0  0  0  0  0  0  0  0  0
   -5.8805   -0.6773    2.2888 H   0  0  0  0  0  0  0  0  0  0  0  0
   -4.5701   -1.2520   -1.1877 H   0  0  0  0  0  0  0  0  0  0  0  0
   -5.5514   -1.9587    0.0925 H   0  0  0  0  0  0  0  0  0  0  0  0
    1.3770   -2.0198   -0.4458 H   0  0  0  0  0  0  0  0  0  0  0  0
   -0.5654    0.1299   -2.7780 H   0  0  0  0  0  0  0  0  0  0  0  0
    0.2582    1.3701   -0.6832 H   0  0  0  0  0  0  0  0  0  0  0  0
    0.9487    1.7846   -2.2396 H   0  0  0  0  0  0  0  0  0  0  0  0
    2.2102    0.1750   -0.0066 H   0  0  0  0  0  0  0  0  0  0  0  0
    2.7738    1.6786   -0.7138 H   0  0  0  0  0  0  0  0  0  0  0  0
    6.1255    0.7201   -1.4229 H   0  0  0  0  0  0  0  0  0  0  0  0
    7.4719    1.8328    0.3432 H   0  0  0  0  0  0  0  0  0  0  0  0
    7.1484    1.2150    2.7244 H   0  0  0  0  0  0  0  0  0  0  0  0
    5.4911   -0.5203    3.3529 H   0  0  0  0  0  0  0  0  0  0  0  0
    4.1417   -1.6427    1.6080 H   0  0  0  0  0  0  0  0  0  0  0  0
    3.2088   -0.8584   -3.8751 H   0  0  0  0  0  0  0  0  0  0  0  0
    2.3882    0.6740   -3.7611 H   0  0  0  0  0  0  0  0  0  0  0  0
    1.3876   -2.0326   -2.7126 H   0  0  0  0  0  0  0  0  0  0  0  0
    0.7448   -1.1229   -4.0500 H   0  0  0  0  0  0  0  0  0  0  0  0
   -3.9487    1.1266   -1.1240 H   0  0  0  0  0  0  0  0  0  0  0  0
   -4.3009    3.3520   -0.1434 H   0  0  0  0  0  0  0  0  0  0  0  0
  1  2  1  0
  2  3  2  0
  3  4  1  0
  4  5  2  0
  5  6  1  0
  6  7  1  0
  7  8  1  0
  8  9  2  0
  9 10  1  0
 10 11  1  0
 11 12  2  0
 11 13  1  0
 13 14  1  0
 14 15  1  0
 15 16  1  0
 16 17  1  0
 17 18  1  0
 18 19  1  0
 19 20  2  0
 19 21  2  0
 19 22  1  0
 22 23  2  0
 23 24  1  0
 24 25  2  0
 25 26  1  0
 26 27  2  0
 18 28  1  0
 28 29  1  0
 14 30  2  0
 30 31  1  0
  5 32  1  0
 32 33  2  0
 33  2  1  0
 31  7  1  0
 31 10  2  0
 29 15  1  0
 27 22  1  0
  1 34  1  0
  1 35  1  0
  1 36  1  0
  3 37  1  0
  4 38  1  0
  6 39  1  0
  6 40  1  0
 13 41  1  0
 15 42  1  0
 16 43  1  0
 16 44  1  0
 17 45  1  0
 17 46  1  0
 23 47  1  0
 24 48  1  0
 25 49  1  0
 26 50  1  0
 27 51  1  0
 28 52  1  0
 28 53  1  0
 29 54  1  0
 29 55  1  0
 32 56  1  0
 33 57  1  0
M  END
$$$$
