
     RDKit          3D

 30 31  0  0  0  0  0  0  0  0999 V2000
   -3.5854   -0.2711   -2.0250 C   0  0  0  0  0  0  0  0  0  0  0  0
   -3.8612   -0.2131   -0.5718 C   0  0  0  0  0  0  0  0  0  0  0  0
   -5.1125   -0.6218   -0.2113 O   0  0  0  0  0  0  0  0  0  0  0  0
   -5.2212   -0.4643    1.1291 C   0  0  0  0  0  0  0  0  0  0  0  0
   -4.0530    0.0381    1.6432 C   0  0  0  0  0  0  0  0  0  0  0  0
   -3.1452    0.1879    0.5484 C   0  0  0  0  0  0  0  0  0  0  0  0
   -1.7831    0.6938    0.6433 C   0  0  0  0  0  0  0  0  0  0  0  0
   -1.3793    1.2951    1.6382 O   0  0  0  0  0  0  0  0  0  0  0  0
   -0.9575    0.4250   -0.4321 N   0  0  0  0  0  0  0  0  0  0  0  0
    0.4188    0.6719   -0.2776 N   0  0  0  0  0  0  0  0  0  0  0  0
    1.2920   -0.2291   -0.8536 C   0  0  0  0  0  0  0  0  0  0  0  0
    0.8982   -1.1121   -1.6152 O   0  0  0  0  0  0  0  0  0  0  0  0
    2.7352   -0.1050   -0.5179 C   0  0  0  0  0  0  0  0  0  0  0  0
    3.6399   -0.9909   -1.1230 C   0  0  0  0  0  0  0  0  0  0  0  0
    5.0064   -0.9124   -0.8387 C   0  0  0  0  0  0  0  0  0  0  0  0
    5.4809    0.0499    0.0518 C   0  0  0  0  0  0  0  0  0  0  0  0
    4.5893    0.9333    0.6583 C   0  0  0  0  0  0  0  0  0  0  0  0
    3.2272    0.8518    0.3718 C   0  0  0  0  0  0  0  0  0  0  0  0
    2.4042    1.7184    0.9814 F   0  0  0  0  0  0  0  0  0  0  0  0
   -2.9689   -1.1433   -2.2623 H   0  0  0  0  0  0  0  0  0  0  0  0
   -3.0643    0.6308   -2.3598 H   0  0  0  0  0  0  0  0  0  0  0  0
   -4.5139   -0.3483   -2.6001 H   0  0  0  0  0  0  0  0  0  0  0  0
   -6.1730   -0.7430    1.5596 H   0  0  0  0  0  0  0  0  0  0  0  0
   -3.8571    0.2693    2.6818 H   0  0  0  0  0  0  0  0  0  0  0  0
   -1.1766   -0.3387   -1.0681 H   0  0  0  0  0  0  0  0  0  0  0  0
    0.6868    1.2831    0.4970 H   0  0  0  0  0  0  0  0  0  0  0  0
    3.2838   -1.7476   -1.8204 H   0  0  0  0  0  0  0  0  0  0  0  0
    5.6991   -1.6041   -1.3136 H   0  0  0  0  0  0  0  0  0  0  0  0
    6.5440    0.1104    0.2732 H   0  0  0  0  0  0  0  0  0  0  0  0
    4.9464    1.6862    1.3551 H   0  0  0  0  0  0  0  0  0  0  0  0
  1  2  1  0
  2  3  1  0
  3  4  1  0
  4  5  2  0
  5  6  1  0
  6  7  1  0
  7  8  2  0
  7  9  1  0
  9 10  1  0
 10 11  1  0
 11 12  2  0
 11 13  1  0
 13 14  2  0
 14 15  1  0
 15 16  2  0
 16 17  1  0
 17 18  2  0
 18 19  1  0
  6  2  2  0
 18 13  1  0
  1 20  1  0
  1 21  1  0
  1 22  1  0
  4 23  1  0
  5 24  1  0
  9 25  1  0
 10 26  1  0
 14 27  1  0
 15 28  1  0
 16 29  1  0
 17 30  1  0
M  END
$$$$
