
     RDKit          3D

 43 45  0  0  0  0  0  0  0  0999 V2000
    1.5778    1.9987   -1.4404 O   0  0  0  0  0  0  0  0  0  0  0  0
    1.9420    1.0198   -0.7929 C   0  0  0  0  0  0  0  0  0  0  0  0
    3.4272    0.7125   -0.6379 C   0  0  0  0  0  0  0  0  0  0  0  0
    3.8338    0.2250    1.0775 S   0  0  0  0  0  0  0  0  0  0  0  0
    5.6184    0.2638    1.0088 C   0  0  0  0  0  0  0  0  0  0  0  0
    6.3047    0.9647    2.0079 C   0  0  0  0  0  0  0  0  0  0  0  0
    7.7023    1.0168    2.0072 C   0  0  0  0  0  0  0  0  0  0  0  0
    8.4282    0.3614    1.0133 C   0  0  0  0  0  0  0  0  0  0  0  0
    7.7565   -0.3515    0.0224 C   0  0  0  0  0  0  0  0  0  0  0  0
    6.3637   -0.3997    0.0279 C   0  0  0  0  0  0  0  0  0  0  0  0
    5.7525   -1.1135   -0.9296 F   0  0  0  0  0  0  0  0  0  0  0  0
    1.1163    0.0681   -0.2185 N   0  0  0  0  0  0  0  0  0  0  0  0
   -0.2898    0.0137   -0.2385 C   0  0  0  0  0  0  0  0  0  0  0  0
   -0.9028   -1.0105    0.4831 C   0  0  0  0  0  0  0  0  0  0  0  0
   -2.3003   -1.1338    0.5078 C   0  0  0  0  0  0  0  0  0  0  0  0
   -3.1384   -0.2464   -0.1816 C   0  0  0  0  0  0  0  0  0  0  0  0
   -4.5148   -0.3684   -0.1527 N   0  0  0  0  0  0  0  0  0  0  0  0
   -5.1827   -1.6286    0.2091 C   0  0  0  0  0  0  0  0  0  0  0  0
   -6.5579   -1.7138   -0.4749 C   0  0  0  0  0  0  0  0  0  0  0  0
   -7.4480   -0.6417   -0.1352 O   0  0  0  0  0  0  0  0  0  0  0  0
   -6.7670    0.5810    0.1801 C   0  0  0  0  0  0  0  0  0  0  0  0
   -5.4067    0.7434   -0.5198 C   0  0  0  0  0  0  0  0  0  0  0  0
   -2.4966    0.7735   -0.8993 C   0  0  0  0  0  0  0  0  0  0  0  0
   -1.0984    0.9050   -0.9328 C   0  0  0  0  0  0  0  0  0  0  0  0
    3.9937    1.6127   -0.8972 H   0  0  0  0  0  0  0  0  0  0  0  0
    3.6778   -0.0874   -1.3398 H   0  0  0  0  0  0  0  0  0  0  0  0
    5.7580    1.4811    2.7947 H   0  0  0  0  0  0  0  0  0  0  0  0
    8.2235    1.5693    2.7860 H   0  0  0  0  0  0  0  0  0  0  0  0
    9.5148    0.4016    1.0150 H   0  0  0  0  0  0  0  0  0  0  0  0
    8.3076   -0.8757   -0.7525 H   0  0  0  0  0  0  0  0  0  0  0  0
    1.5867   -0.6321    0.3455 H   0  0  0  0  0  0  0  0  0  0  0  0
   -0.3116   -1.7283    1.0452 H   0  0  0  0  0  0  0  0  0  0  0  0
   -2.7209   -1.9361    1.1074 H   0  0  0  0  0  0  0  0  0  0  0  0
   -5.3044   -1.6656    1.2979 H   0  0  0  0  0  0  0  0  0  0  0  0
   -4.5957   -2.4971   -0.1109 H   0  0  0  0  0  0  0  0  0  0  0  0
   -6.4393   -1.7115   -1.5651 H   0  0  0  0  0  0  0  0  0  0  0  0
   -7.0548   -2.6509   -0.2040 H   0  0  0  0  0  0  0  0  0  0  0  0
   -7.4316    1.4066   -0.0938 H   0  0  0  0  0  0  0  0  0  0  0  0
   -6.6382    0.6140    1.2685 H   0  0  0  0  0  0  0  0  0  0  0  0
   -5.5442    0.7459   -1.6075 H   0  0  0  0  0  0  0  0  0  0  0  0
   -4.9858    1.7079   -0.2137 H   0  0  0  0  0  0  0  0  0  0  0  0
   -3.0730    1.4892   -1.4791 H   0  0  0  0  0  0  0  0  0  0  0  0
   -0.6824    1.7170   -1.5204 H   0  0  0  0  0  0  0  0  0  0  0  0
  1  2  2  0
  2  3  1  0
  3  4  1  0
  4  5  1  0
  5  6  2  0
  6  7  1  0
  7  8  2  0
  8  9  1  0
  9 10  2  0
 10 11  1  0
  2 12  1  0
 12 13  1  0
 13 14  2  0
 14 15  1  0
 15 16  2  0
 16 17  1  0
 17 18  1  0
 18 19  1  0
 19 20  1  0
 20 21  1  0
 21 22  1  0
 16 23  1  0
 23 24  2  0
 10  5  1  0
 24 13  1  0
 22 17  1  0
  3 25  1  0
  3 26  1  0
  6 27  1  0
  7 28  1  0
  8 29  1  0
  9 30  1  0
 12 31  1  0
 14 32  1  0
 15 33  1  0
 18 34  1  0
 18 35  1  0
 19 36  1  0
 19 37  1  0
 21 38  1  0
 21 39  1  0
 22 40  1  0
 22 41  1  0
 23 42  1  0
 24 43  1  0
M  END
$$$$
