
     RDKit          3D

 35 37  0  0  0  0  0  0  0  0999 V2000
    5.6379   -2.0077   -0.3599 C   0  0  0  0  0  0  0  0  0  0  0  0
    4.5477   -1.1782   -0.7646 O   0  0  0  0  0  0  0  0  0  0  0  0
    3.8233   -0.6795    0.2683 C   0  0  0  0  0  0  0  0  0  0  0  0
    4.0345   -0.8848    1.4531 O   0  0  0  0  0  0  0  0  0  0  0  0
    2.7094    0.1713   -0.2334 C   0  0  0  0  0  0  0  0  0  0  0  0
    2.4941    0.4032   -1.5982 C   0  0  0  0  0  0  0  0  0  0  0  0
    1.4303    1.2101   -2.0168 C   0  0  0  0  0  0  0  0  0  0  0  0
    0.5667    1.7877   -1.0793 C   0  0  0  0  0  0  0  0  0  0  0  0
   -0.5377    2.6349   -1.5495 C   0  0  0  0  0  0  0  0  0  0  0  0
   -1.8557    2.4143   -1.3634 C   0  0  0  0  0  0  0  0  0  0  0  0
   -2.8083    3.3356   -1.8892 C   0  0  0  0  0  0  0  0  0  0  0  0
   -3.5628    4.0912   -2.3447 N   0  0  0  0  0  0  0  0  0  0  0  0
   -2.3309    1.2771   -0.6486 C   0  0  0  0  0  0  0  0  0  0  0  0
   -2.5708    1.2212    0.6467 N   0  0  0  0  0  0  0  0  0  0  0  0
   -3.0054   -0.0429    1.0083 C   0  0  0  0  0  0  0  0  0  0  0  0
   -3.3416   -0.4582    2.3126 C   0  0  0  0  0  0  0  0  0  0  0  0
   -3.7667   -1.7718    2.5364 C   0  0  0  0  0  0  0  0  0  0  0  0
   -3.8606   -2.6713    1.4792 C   0  0  0  0  0  0  0  0  0  0  0  0
   -3.5337   -2.2828    0.1763 C   0  0  0  0  0  0  0  0  0  0  0  0
   -3.1073   -0.9612   -0.0361 C   0  0  0  0  0  0  0  0  0  0  0  0
   -2.6424   -0.1945   -1.5033 S   0  0  0  0  0  0  0  0  0  0  0  0
    0.7903    1.5669    0.2842 C   0  0  0  0  0  0  0  0  0  0  0  0
    1.8517    0.7598    0.7045 C   0  0  0  0  0  0  0  0  0  0  0  0
    5.2719   -2.8815    0.1884 H   0  0  0  0  0  0  0  0  0  0  0  0
    6.3488   -1.4378    0.2467 H   0  0  0  0  0  0  0  0  0  0  0  0
    6.1518   -2.3546   -1.2606 H   0  0  0  0  0  0  0  0  0  0  0  0
    3.1455   -0.0374   -2.3492 H   0  0  0  0  0  0  0  0  0  0  0  0
    1.2814    1.3747   -3.0823 H   0  0  0  0  0  0  0  0  0  0  0  0
   -0.2130    3.5075   -2.1165 H   0  0  0  0  0  0  0  0  0  0  0  0
   -3.2678    0.2465    3.1350 H   0  0  0  0  0  0  0  0  0  0  0  0
   -4.0249   -2.0888    3.5442 H   0  0  0  0  0  0  0  0  0  0  0  0
   -4.1929   -3.6904    1.6670 H   0  0  0  0  0  0  0  0  0  0  0  0
   -3.6082   -2.9862   -0.6476 H   0  0  0  0  0  0  0  0  0  0  0  0
    0.1409    2.0144    1.0353 H   0  0  0  0  0  0  0  0  0  0  0  0
    2.0046    0.5931    1.7697 H   0  0  0  0  0  0  0  0  0  0  0  0
  1  2  1  0
  2  3  1  0
  3  4  2  0
  3  5  1  0
  5  6  2  0
  6  7  1  0
  7  8  2  0
  8  9  1  0
  9 10  2  3
 10 11  1  0
 11 12  3  0
 10 13  1  0
 13 14  2  0
 14 15  1  0
 15 16  2  0
 16 17  1  0
 17 18  2  0
 18 19  1  0
 19 20  2  0
 20 21  1  0
  8 22  1  0
 22 23  2  0
 23  5  1  0
 21 13  1  0
 20 15  1  0
  1 24  1  0
  1 25  1  0
  1 26  1  0
  6 27  1  0
  7 28  1  0
  9 29  1  0
 16 30  1  0
 17 31  1  0
 18 32  1  0
 19 33  1  0
 22 34  1  0
 23 35  1  0
M  END
$$$$
