
     RDKit          3D

 51 55  0  0  0  0  0  0  0  0999 V2000
  -10.7543   -0.4150   -2.6390 C   0  0  0  0  0  0  0  0  0  0  0  0
   -9.8512   -0.0967   -1.4834 C   0  0  0  0  0  0  0  0  0  0  0  0
  -10.3196    0.6447   -0.3922 C   0  0  0  0  0  0  0  0  0  0  0  0
   -9.4736    0.9447    0.6771 C   0  0  0  0  0  0  0  0  0  0  0  0
   -8.1428    0.5239    0.6588 C   0  0  0  0  0  0  0  0  0  0  0  0
   -7.6511   -0.1885   -0.4427 C   0  0  0  0  0  0  0  0  0  0  0  0
   -6.2342   -0.6491   -0.5168 C   0  0  0  0  0  0  0  0  0  0  0  0
   -5.9867   -1.6869   -1.1175 O   0  0  0  0  0  0  0  0  0  0  0  0
   -5.3216    0.1885    0.0830 N   0  0  0  0  0  0  0  0  0  0  0  0
   -3.9876   -0.1116    0.1304 C   0  0  0  0  0  0  0  0  0  0  0  0
   -3.3336   -1.1695   -0.2813 N   0  0  0  0  0  0  0  0  0  0  0  0
   -1.9781   -1.0660   -0.0218 N   0  0  0  0  0  0  0  0  0  0  0  0
   -1.6793    0.0636    0.5801 C   0  0  0  0  0  0  0  0  0  0  0  0
   -0.0471    0.4849    1.0363 S   0  0  0  0  0  0  0  0  0  0  0  0
    0.7586   -1.1344    0.8502 C   0  0  0  0  0  0  0  0  0  0  0  0
    2.2330   -1.0204    1.2004 C   0  0  0  0  0  0  0  0  0  0  0  0
    2.6839   -1.5597    2.2068 O   0  0  0  0  0  0  0  0  0  0  0  0
    2.9545   -0.2922    0.2648 N   0  0  0  0  0  0  0  0  0  0  0  0
    4.3447   -0.0494    0.2460 C   0  0  0  0  0  0  0  0  0  0  0  0
    4.8229    0.7864   -0.7769 C   0  0  0  0  0  0  0  0  0  0  0  0
    6.1873    1.0946   -0.9039 C   0  0  0  0  0  0  0  0  0  0  0  0
    7.0908    0.5429    0.0194 C   0  0  0  0  0  0  0  0  0  0  0  0
    6.5875   -0.2816    1.0185 C   0  0  0  0  0  0  0  0  0  0  0  0
    5.2368   -0.6024    1.1708 C   0  0  0  0  0  0  0  0  0  0  0  0
    7.5944   -0.7295    1.8189 O   0  0  0  0  0  0  0  0  0  0  0  0
    8.7515   -0.1956    1.3412 C   0  0  0  0  0  0  0  0  0  0  0  0
   10.0187   -0.4081    1.8798 C   0  0  0  0  0  0  0  0  0  0  0  0
   11.0856    0.2327    1.2414 C   0  0  0  0  0  0  0  0  0  0  0  0
   10.8764    1.0414    0.1211 C   0  0  0  0  0  0  0  0  0  0  0  0
    9.5881    1.2365   -0.3988 C   0  0  0  0  0  0  0  0  0  0  0  0
    8.4999    0.6006    0.2288 C   0  0  0  0  0  0  0  0  0  0  0  0
   -3.0217    1.0929    0.8618 S   0  0  0  0  0  0  0  0  0  0  0  0
   -8.5103   -0.5039   -1.5048 C   0  0  0  0  0  0  0  0  0  0  0  0
  -11.8066   -0.3951   -2.3349 H   0  0  0  0  0  0  0  0  0  0  0  0
  -10.6071    0.3144   -3.4417 H   0  0  0  0  0  0  0  0  0  0  0  0
  -10.5466   -1.4180   -3.0251 H   0  0  0  0  0  0  0  0  0  0  0  0
  -11.3543    0.9806   -0.3617 H   0  0  0  0  0  0  0  0  0  0  0  0
   -9.8588    1.4978    1.5311 H   0  0  0  0  0  0  0  0  0  0  0  0
   -7.5195    0.7350    1.5228 H   0  0  0  0  0  0  0  0  0  0  0  0
   -5.5981    1.0839    0.4540 H   0  0  0  0  0  0  0  0  0  0  0  0
    0.2938   -1.8643    1.5209 H   0  0  0  0  0  0  0  0  0  0  0  0
    0.6690   -1.5001   -0.1785 H   0  0  0  0  0  0  0  0  0  0  0  0
    2.4116    0.1624   -0.4606 H   0  0  0  0  0  0  0  0  0  0  0  0
    4.1362    1.2195   -1.5013 H   0  0  0  0  0  0  0  0  0  0  0  0
    6.5333    1.7439   -1.7021 H   0  0  0  0  0  0  0  0  0  0  0  0
    4.9350   -1.2583    1.9762 H   0  0  0  0  0  0  0  0  0  0  0  0
   10.1619   -1.0389    2.7489 H   0  0  0  0  0  0  0  0  0  0  0  0
   12.0946    0.0980    1.6255 H   0  0  0  0  0  0  0  0  0  0  0  0
   11.7251    1.5279   -0.3557 H   0  0  0  0  0  0  0  0  0  0  0  0
    9.4381    1.8674   -1.2694 H   0  0  0  0  0  0  0  0  0  0  0  0
   -8.1294   -1.0740   -2.3519 H   0  0  0  0  0  0  0  0  0  0  0  0
  1  2  1  0
  2  3  2  0
  3  4  1  0
  4  5  2  0
  5  6  1  0
  6  7  1  0
  7  8  2  0
  7  9  1  0
  9 10  1  0
 10 11  2  0
 11 12  1  0
 12 13  2  0
 13 14  1  0
 14 15  1  0
 15 16  1  0
 16 17  2  0
 16 18  1  0
 18 19  1  0
 19 20  2  0
 20 21  1  0
 21 22  2  0
 22 23  1  0
 23 24  2  0
 23 25  1  0
 25 26  1  0
 26 27  2  0
 27 28  1  0
 28 29  2  0
 29 30  1  0
 30 31  2  0
 13 32  1  0
  6 33  2  0
 33  2  1  0
 32 10  1  0
 24 19  1  0
 31 26  1  0
 31 22  1  0
  1 34  1  0
  1 35  1  0
  1 36  1  0
  3 37  1  0
  4 38  1  0
  5 39  1  0
  9 40  1  0
 15 41  1  0
 15 42  1  0
 18 43  1  0
 20 44  1  0
 21 45  1  0
 24 46  1  0
 27 47  1  0
 28 48  1  0
 29 49  1  0
 30 50  1  0
 33 51  1  0
M  END
$$$$
