
     RDKit          3D

 39 40  0  0  0  0  0  0  0  0999 V2000
    6.2370   -2.2641    0.9853 C   0  0  0  0  0  0  0  0  0  0  0  0
    4.9322   -1.5270    1.0680 C   0  0  0  0  0  0  0  0  0  0  0  0
    4.5518   -0.6450    0.0499 C   0  0  0  0  0  0  0  0  0  0  0  0
    3.3517    0.0649    0.1407 C   0  0  0  0  0  0  0  0  0  0  0  0
    2.5215   -0.0906    1.2579 C   0  0  0  0  0  0  0  0  0  0  0  0
    1.2567    0.6905    1.3074 C   0  0  0  0  0  0  0  0  0  0  0  0
    0.8674    1.4142    0.4018 O   0  0  0  0  0  0  0  0  0  0  0  0
    0.6110    0.4894    2.4804 O   0  0  0  0  0  0  0  0  0  0  0  0
   -0.6009    1.2254    2.6477 C   0  0  0  0  0  0  0  0  0  0  0  0
   -1.7819    0.6565    1.8571 C   0  0  0  0  0  0  0  0  0  0  0  0
   -2.5868   -0.1269    2.3519 O   0  0  0  0  0  0  0  0  0  0  0  0
   -1.8580    1.1090    0.5548 N   0  0  0  0  0  0  0  0  0  0  0  0
   -2.8354    0.5561   -0.3651 C   0  0  0  0  0  0  0  0  0  0  0  0
   -3.0414    1.4461   -1.5923 C   0  0  0  0  0  0  0  0  0  0  0  0
   -4.0053    0.8875   -2.5222 N   0  0  0  0  0  0  0  0  0  0  0  0
   -3.6756    0.0032   -3.5195 C   0  0  0  0  0  0  0  0  0  0  0  0
   -2.3698   -0.3455   -3.6869 O   0  0  0  0  0  0  0  0  0  0  0  0
   -4.7143   -0.4368   -4.2390 C   0  0  0  0  0  0  0  0  0  0  0  0
   -6.2068    0.2484   -3.6717 S   0  0  0  0  0  0  0  0  0  0  0  0
   -5.3603    1.1505   -2.3979 C   0  0  0  0  0  0  0  0  0  0  0  0
   -5.9238    1.8583   -1.5793 O   0  0  0  0  0  0  0  0  0  0  0  0
    2.9061   -0.9627    2.2842 C   0  0  0  0  0  0  0  0  0  0  0  0
    4.1072   -1.6718    2.1898 C   0  0  0  0  0  0  0  0  0  0  0  0
    6.1826   -3.2168    1.5237 H   0  0  0  0  0  0  0  0  0  0  0  0
    6.4897   -2.4930   -0.0557 H   0  0  0  0  0  0  0  0  0  0  0  0
    7.0382   -1.6571    1.4196 H   0  0  0  0  0  0  0  0  0  0  0  0
    5.1872   -0.5092   -0.8227 H   0  0  0  0  0  0  0  0  0  0  0  0
    3.0712    0.7405   -0.6658 H   0  0  0  0  0  0  0  0  0  0  0  0
   -0.8636    1.1895    3.7104 H   0  0  0  0  0  0  0  0  0  0  0  0
   -0.4524    2.2842    2.4025 H   0  0  0  0  0  0  0  0  0  0  0  0
   -0.9757    1.4432    0.1615 H   0  0  0  0  0  0  0  0  0  0  0  0
   -3.7834    0.4100    0.1654 H   0  0  0  0  0  0  0  0  0  0  0  0
   -2.4759   -0.4355   -0.6625 H   0  0  0  0  0  0  0  0  0  0  0  0
   -3.4005    2.4295   -1.2664 H   0  0  0  0  0  0  0  0  0  0  0  0
   -2.0908    1.6202   -2.1103 H   0  0  0  0  0  0  0  0  0  0  0  0
   -2.3121   -0.9611   -4.4376 H   0  0  0  0  0  0  0  0  0  0  0  0
   -4.6745   -1.1316   -5.0649 H   0  0  0  0  0  0  0  0  0  0  0  0
    2.2840   -1.1009    3.1647 H   0  0  0  0  0  0  0  0  0  0  0  0
    4.3940   -2.3414    2.9987 H   0  0  0  0  0  0  0  0  0  0  0  0
  1  2  1  0
  2  3  2  0
  3  4  1  0
  4  5  2  0
  5  6  1  0
  6  7  2  0
  6  8  1  0
  8  9  1  0
  9 10  1  0
 10 11  2  0
 10 12  1  0
 12 13  1  0
 13 14  1  0
 14 15  1  0
 15 16  1  0
 16 17  1  0
 16 18  2  0
 18 19  1  0
 19 20  1  0
 20 21  2  0
  5 22  1  0
 22 23  2  0
 23  2  1  0
 20 15  1  0
  1 24  1  0
  1 25  1  0
  1 26  1  0
  3 27  1  0
  4 28  1  0
  9 29  1  0
  9 30  1  0
 12 31  1  0
 13 32  1  0
 13 33  1  0
 14 34  1  0
 14 35  1  0
 17 36  1  0
 18 37  1  0
 22 38  1  0
 23 39  1  0
M  END
$$$$
