
     RDKit          3D

 53 54  0  0  0  0  0  0  0  0999 V2000
   -5.8711   -3.6344    0.1398 C   0  0  0  0  0  0  0  0  0  0  0  0
   -4.7015   -2.6752    0.2758 C   0  0  0  0  0  0  0  0  0  0  0  0
   -5.0904   -1.3469   -0.2257 N   0  0  0  0  0  0  0  0  0  0  0  0
   -5.5808   -0.3673    0.7575 C   0  0  0  0  0  0  0  0  0  0  0  0
   -4.4831    0.1657    1.6583 C   0  0  0  0  0  0  0  0  0  0  0  0
   -4.6465   -0.8735   -1.7814 S   0  0  0  0  0  6  0  0  0  0  0  0
   -5.4698    0.2506   -2.1780 O   0  0  0  0  0  0  0  0  0  0  0  0
   -4.5497   -2.0553   -2.6122 O   0  0  0  0  0  0  0  0  0  0  0  0
   -2.9855   -0.2573   -1.5753 C   0  0  0  0  0  0  0  0  0  0  0  0
   -2.7665    1.1181   -1.4683 C   0  0  0  0  0  0  0  0  0  0  0  0
   -1.4626    1.6082   -1.3498 C   0  0  0  0  0  0  0  0  0  0  0  0
   -0.3747    0.7268   -1.3604 C   0  0  0  0  0  0  0  0  0  0  0  0
    1.0311    1.1953   -1.2296 C   0  0  0  0  0  0  0  0  0  0  0  0
    1.9988    0.4483   -1.2262 O   0  0  0  0  0  0  0  0  0  0  0  0
    1.0846    2.5411   -1.0852 O   0  0  0  0  0  0  0  0  0  0  0  0
    2.3953    3.0840   -0.9110 C   0  0  0  0  0  0  0  0  0  0  0  0
    2.9513    2.8483    0.4973 C   0  0  0  0  0  0  0  0  0  0  0  0
    2.8469    3.6782    1.3968 O   0  0  0  0  0  0  0  0  0  0  0  0
    3.5672    1.6215    0.6658 N   0  0  0  0  0  0  0  0  0  0  0  0
    3.9205    1.1192    1.9892 C   0  0  0  0  0  0  0  0  0  0  0  0
    5.4211    0.8671    2.1368 C   0  0  0  0  0  0  0  0  0  0  0  0
    5.9161   -0.1335    1.2082 N   0  0  0  0  0  0  0  0  0  0  0  0
    6.3894    0.1192   -0.0562 C   0  0  0  0  0  0  0  0  0  0  0  0
    6.3557    1.3749   -0.5825 O   0  0  0  0  0  0  0  0  0  0  0  0
    6.8371   -0.9547   -0.7123 C   0  0  0  0  0  0  0  0  0  0  0  0
    6.6588   -2.3958    0.2374 S   0  0  0  0  0  0  0  0  0  0  0  0
    5.9378   -1.4747    1.5693 C   0  0  0  0  0  0  0  0  0  0  0  0
    5.5336   -1.9747    2.6051 O   0  0  0  0  0  0  0  0  0  0  0  0
   -0.6042   -0.6490   -1.4976 C   0  0  0  0  0  0  0  0  0  0  0  0
   -1.9068   -1.1421   -1.6128 C   0  0  0  0  0  0  0  0  0  0  0  0
   -6.1917   -3.7235   -0.9033 H   0  0  0  0  0  0  0  0  0  0  0  0
   -5.5910   -4.6293    0.4952 H   0  0  0  0  0  0  0  0  0  0  0  0
   -6.7303   -3.2936    0.7256 H   0  0  0  0  0  0  0  0  0  0  0  0
   -3.8397   -3.0657   -0.2733 H   0  0  0  0  0  0  0  0  0  0  0  0
   -4.3937   -2.6223    1.3241 H   0  0  0  0  0  0  0  0  0  0  0  0
   -6.3523   -0.8460    1.3705 H   0  0  0  0  0  0  0  0  0  0  0  0
   -6.0797    0.4654    0.2525 H   0  0  0  0  0  0  0  0  0  0  0  0
   -3.9879   -0.6314    2.2181 H   0  0  0  0  0  0  0  0  0  0  0  0
   -4.9019    0.8712    2.3825 H   0  0  0  0  0  0  0  0  0  0  0  0
   -3.7193    0.6966    1.0909 H   0  0  0  0  0  0  0  0  0  0  0  0
   -3.6026    1.8128   -1.4725 H   0  0  0  0  0  0  0  0  0  0  0  0
   -1.3140    2.6806   -1.2542 H   0  0  0  0  0  0  0  0  0  0  0  0
    2.3328    4.1663   -1.0732 H   0  0  0  0  0  0  0  0  0  0  0  0
    3.0883    2.6935   -1.6675 H   0  0  0  0  0  0  0  0  0  0  0  0
    3.3126    0.9075   -0.0254 H   0  0  0  0  0  0  0  0  0  0  0  0
    3.3573    0.1906    2.1319 H   0  0  0  0  0  0  0  0  0  0  0  0
    3.5962    1.8241    2.7595 H   0  0  0  0  0  0  0  0  0  0  0  0
    5.6176    0.5193    3.1581 H   0  0  0  0  0  0  0  0  0  0  0  0
    5.9889    1.7947    2.0041 H   0  0  0  0  0  0  0  0  0  0  0  0
    5.6584    1.8589   -0.1071 H   0  0  0  0  0  0  0  0  0  0  0  0
    7.2381   -0.9508   -1.7151 H   0  0  0  0  0  0  0  0  0  0  0  0
    0.2313   -1.3434   -1.5230 H   0  0  0  0  0  0  0  0  0  0  0  0
   -2.0694   -2.2077   -1.7422 H   0  0  0  0  0  0  0  0  0  0  0  0
  1  2  1  0
  2  3  1  0
  3  4  1  0
  4  5  1  0
  3  6  1  0
  6  7  2  0
  6  8  2  0
  6  9  1  0
  9 10  2  0
 10 11  1  0
 11 12  2  0
 12 13  1  0
 13 14  2  0
 13 15  1  0
 15 16  1  0
 16 17  1  0
 17 18  2  0
 17 19  1  0
 19 20  1  0
 20 21  1  0
 21 22  1  0
 22 23  1  0
 23 24  1  0
 23 25  2  0
 25 26  1  0
 26 27  1  0
 27 28  2  0
 12 29  1  0
 29 30  2  0
 30  9  1  0
 27 22  1  0
  1 31  1  0
  1 32  1  0
  1 33  1  0
  2 34  1  0
  2 35  1  0
  4 36  1  0
  4 37  1  0
  5 38  1  0
  5 39  1  0
  5 40  1  0
 10 41  1  0
 11 42  1  0
 16 43  1  0
 16 44  1  0
 19 45  1  0
 20 46  1  0
 20 47  1  0
 21 48  1  0
 21 49  1  0
 24 50  1  0
 25 51  1  0
 29 52  1  0
 30 53  1  0
M  END
$$$$
