
     RDKit          3D

 53 52  0  0  0  0  0  0  0  0999 V2000
   -6.7541    1.8789    2.6878 C   0  0  0  0  0  0  0  0  0  0  0  0
   -6.0244    2.3782    1.4388 C   0  0  0  0  0  0  0  0  0  0  0  0
   -7.0183    3.0589    0.4969 C   0  0  0  0  0  0  0  0  0  0  0  0
   -5.2839    1.2096    0.7648 C   0  0  0  0  0  0  0  0  0  0  0  0
   -4.4172    1.6395   -0.4162 C   0  0  0  0  0  0  0  0  0  0  0  0
   -3.6511    0.5233   -0.9354 N   0  0  0  0  0  0  0  0  0  0  0  0
   -2.5726    0.7368   -1.7707 C   0  0  0  0  0  0  0  0  0  0  0  0
   -2.1274    1.8484   -2.0322 O   0  0  0  0  0  0  0  0  0  0  0  0
   -1.9843   -0.5496   -2.3122 C   0  0  0  0  0  0  0  0  0  0  0  0
   -0.8235   -0.2605   -3.2546 C   0  0  0  0  0  0  0  0  0  0  0  0
   -0.1098   -1.8009   -3.9323 S   0  0  0  0  0  0  0  0  0  0  0  0
    0.9206   -2.3358   -2.5198 C   0  0  0  0  0  0  0  0  0  0  0  0
    2.2306   -1.5616   -2.4583 C   0  0  0  0  0  0  0  0  0  0  0  0
    3.0783   -2.0262   -1.2926 C   0  0  0  0  0  0  0  0  0  0  0  0
    2.7102   -2.8658   -0.4790 O   0  0  0  0  0  0  0  0  0  0  0  0
    4.3039   -1.3968   -1.2372 N   0  0  0  0  0  0  0  0  0  0  0  0
    5.2455   -1.6459   -0.1636 C   0  0  0  0  0  0  0  0  0  0  0  0
    4.9397   -0.7783    1.0578 C   0  0  0  0  0  0  0  0  0  0  0  0
    5.8491   -1.0752    2.2633 C   0  0  0  0  0  0  0  0  0  0  0  0
    5.3878   -0.2610    3.4742 C   0  0  0  0  0  0  0  0  0  0  0  0
    7.3204   -0.7775    1.9712 C   0  0  0  0  0  0  0  0  0  0  0  0
   -7.5123    1.1304    2.4332 H   0  0  0  0  0  0  0  0  0  0  0  0
   -7.2535    2.7060    3.2033 H   0  0  0  0  0  0  0  0  0  0  0  0
   -6.0514    1.4233    3.3935 H   0  0  0  0  0  0  0  0  0  0  0  0
   -5.2865    3.1255    1.7571 H   0  0  0  0  0  0  0  0  0  0  0  0
   -7.7402    2.3401    0.0950 H   0  0  0  0  0  0  0  0  0  0  0  0
   -6.5068    3.5362   -0.3441 H   0  0  0  0  0  0  0  0  0  0  0  0
   -7.5770    3.8414    1.0215 H   0  0  0  0  0  0  0  0  0  0  0  0
   -4.6437    0.7165    1.5085 H   0  0  0  0  0  0  0  0  0  0  0  0
   -6.0044    0.4506    0.4324 H   0  0  0  0  0  0  0  0  0  0  0  0
   -5.0293    2.0152   -1.2422 H   0  0  0  0  0  0  0  0  0  0  0  0
   -3.7257    2.4354   -0.1184 H   0  0  0  0  0  0  0  0  0  0  0  0
   -4.1010   -0.3832   -0.9728 H   0  0  0  0  0  0  0  0  0  0  0  0
   -2.7776   -1.0933   -2.8392 H   0  0  0  0  0  0  0  0  0  0  0  0
   -1.6584   -1.1508   -1.4564 H   0  0  0  0  0  0  0  0  0  0  0  0
   -1.1778    0.3321   -4.1055 H   0  0  0  0  0  0  0  0  0  0  0  0
   -0.0441    0.3294   -2.7636 H   0  0  0  0  0  0  0  0  0  0  0  0
    0.3546   -2.2446   -1.5880 H   0  0  0  0  0  0  0  0  0  0  0  0
    1.1290   -3.4026   -2.6586 H   0  0  0  0  0  0  0  0  0  0  0  0
    2.8061   -1.7103   -3.3798 H   0  0  0  0  0  0  0  0  0  0  0  0
    2.0500   -0.4890   -2.3290 H   0  0  0  0  0  0  0  0  0  0  0  0
    4.4995   -0.6413   -1.8816 H   0  0  0  0  0  0  0  0  0  0  0  0
    5.2092   -2.7081    0.1023 H   0  0  0  0  0  0  0  0  0  0  0  0
    6.2388   -1.4241   -0.5651 H   0  0  0  0  0  0  0  0  0  0  0  0
    5.0192    0.2809    0.7796 H   0  0  0  0  0  0  0  0  0  0  0  0
    3.8945   -0.9361    1.3548 H   0  0  0  0  0  0  0  0  0  0  0  0
    5.7583   -2.1386    2.5189 H   0  0  0  0  0  0  0  0  0  0  0  0
    4.3470   -0.4915    3.7250 H   0  0  0  0  0  0  0  0  0  0  0  0
    5.4600    0.8148    3.2811 H   0  0  0  0  0  0  0  0  0  0  0  0
    5.9996   -0.4894    4.3532 H   0  0  0  0  0  0  0  0  0  0  0  0
    7.7138   -1.4411    1.1957 H   0  0  0  0  0  0  0  0  0  0  0  0
    7.9325   -0.9293    2.8667 H   0  0  0  0  0  0  0  0  0  0  0  0
    7.4581    0.2571    1.6395 H   0  0  0  0  0  0  0  0  0  0  0  0
  1  2  1  0
  2  3  1  0
  2  4  1  0
  4  5  1  0
  5  6  1  0
  6  7  1  0
  7  8  2  0
  7  9  1  0
  9 10  1  0
 10 11  1  0
 11 12  1  0
 12 13  1  0
 13 14  1  0
 14 15  2  0
 14 16  1  0
 16 17  1  0
 17 18  1  0
 18 19  1  0
 19 20  1  0
 19 21  1  0
  1 22  1  0
  1 23  1  0
  1 24  1  0
  2 25  1  0
  3 26  1  0
  3 27  1  0
  3 28  1  0
  4 29  1  0
  4 30  1  0
  5 31  1  0
  5 32  1  0
  6 33  1  0
  9 34  1  0
  9 35  1  0
 10 36  1  0
 10 37  1  0
 12 38  1  0
 12 39  1  0
 13 40  1  0
 13 41  1  0
 16 42  1  0
 17 43  1  0
 17 44  1  0
 18 45  1  0
 18 46  1  0
 19 47  1  0
 20 48  1  0
 20 49  1  0
 20 50  1  0
 21 51  1  0
 21 52  1  0
 21 53  1  0
M  END
$$$$
