
     RDKit          3D

 59 61  0  0  0  0  0  0  0  0999 V2000
   -3.3125    3.5710   -3.4077 C   0  0  0  0  0  0  0  0  0  0  0  0
   -2.1131    3.6075   -2.4775 C   0  0  0  0  0  0  0  0  0  0  0  0
   -2.4129    2.9376   -1.2552 O   0  0  0  0  0  0  0  0  0  0  0  0
   -2.0685    1.6190   -1.1033 C   0  0  0  0  0  0  0  0  0  0  0  0
   -1.6753    0.7745   -2.1469 C   0  0  0  0  0  0  0  0  0  0  0  0
   -1.3251   -0.5493   -1.8752 C   0  0  0  0  0  0  0  0  0  0  0  0
   -0.9299   -1.3892   -2.9107 N   0  0  0  0  0  0  0  0  0  0  0  0
   -0.5190   -2.6850   -2.7404 C   0  0  0  0  0  0  0  0  0  0  0  0
   -0.1518   -3.5152   -4.1522 S   0  0  0  0  0  0  0  0  0  0  0  0
   -0.4676   -3.1623   -1.4291 N   0  0  0  0  0  0  0  0  0  0  0  0
    0.0663   -4.5019   -1.1113 C   0  0  0  0  0  0  0  0  0  0  0  0
    1.2440   -4.5029   -0.1284 C   0  0  0  0  0  0  0  0  0  0  0  0
    2.3573   -3.5711   -0.5524 C   0  0  0  0  0  0  0  0  0  0  0  0
    2.5909   -3.2915   -1.7229 O   0  0  0  0  0  0  0  0  0  0  0  0
    3.1023   -3.0934    0.5024 N   0  0  0  0  0  0  0  0  0  0  0  0
    4.0836   -2.0451    0.3191 C   0  0  0  0  0  0  0  0  0  0  0  0
    3.5215   -0.7144    0.7554 C   0  0  0  0  0  0  0  0  0  0  0  0
    2.5684   -0.0514   -0.0321 C   0  0  0  0  0  0  0  0  0  0  0  0
    2.0235    1.1702    0.3796 C   0  0  0  0  0  0  0  0  0  0  0  0
    2.4271    1.7469    1.5834 C   0  0  0  0  0  0  0  0  0  0  0  0
    1.9816    2.9357    2.0956 O   0  0  0  0  0  0  0  0  0  0  0  0
    0.8468    3.5160    1.4631 C   0  0  0  0  0  0  0  0  0  0  0  0
    3.3824    1.0948    2.3652 C   0  0  0  0  0  0  0  0  0  0  0  0
    3.9227   -0.1292    1.9618 C   0  0  0  0  0  0  0  0  0  0  0  0
   -0.9644   -2.4329   -0.3383 C   0  0  0  0  0  0  0  0  0  0  0  0
   -1.0777   -2.8883    0.7985 O   0  0  0  0  0  0  0  0  0  0  0  0
   -1.3726   -1.0384   -0.5816 C   0  0  0  0  0  0  0  0  0  0  0  0
   -1.7901   -0.2147    0.4683 C   0  0  0  0  0  0  0  0  0  0  0  0
   -2.1537    1.1097    0.2103 C   0  0  0  0  0  0  0  0  0  0  0  0
   -2.5376    1.9975    1.1835 O   0  0  0  0  0  0  0  0  0  0  0  0
   -3.1690    1.4789    2.3546 C   0  0  0  0  0  0  0  0  0  0  0  0
   -2.1855    1.4421    3.5108 C   0  0  0  0  0  0  0  0  0  0  0  0
   -4.1862    4.0151   -2.9200 H   0  0  0  0  0  0  0  0  0  0  0  0
   -3.1051    4.1232   -4.3284 H   0  0  0  0  0  0  0  0  0  0  0  0
   -3.5860    2.5445   -3.6687 H   0  0  0  0  0  0  0  0  0  0  0  0
   -1.9051    4.6513   -2.2183 H   0  0  0  0  0  0  0  0  0  0  0  0
   -1.2023    3.2316   -2.9549 H   0  0  0  0  0  0  0  0  0  0  0  0
   -1.6391    1.1249   -3.1720 H   0  0  0  0  0  0  0  0  0  0  0  0
   -0.9258   -1.0473   -3.8653 H   0  0  0  0  0  0  0  0  0  0  0  0
    0.3729   -5.0387   -2.0113 H   0  0  0  0  0  0  0  0  0  0  0  0
   -0.7558   -5.0811   -0.6718 H   0  0  0  0  0  0  0  0  0  0  0  0
    1.6614   -5.5146   -0.0651 H   0  0  0  0  0  0  0  0  0  0  0  0
    0.9076   -4.2379    0.8785 H   0  0  0  0  0  0  0  0  0  0  0  0
    2.7523   -3.2279    1.4426 H   0  0  0  0  0  0  0  0  0  0  0  0
    4.4153   -1.9895   -0.7235 H   0  0  0  0  0  0  0  0  0  0  0  0
    4.9559   -2.3134    0.9258 H   0  0  0  0  0  0  0  0  0  0  0  0
    2.2463   -0.4883   -0.9768 H   0  0  0  0  0  0  0  0  0  0  0  0
    1.2935    1.6499   -0.2649 H   0  0  0  0  0  0  0  0  0  0  0  0
    1.0892    3.8494    0.4495 H   0  0  0  0  0  0  0  0  0  0  0  0
    0.5542    4.3960    2.0437 H   0  0  0  0  0  0  0  0  0  0  0  0
    0.0029    2.8221    1.4629 H   0  0  0  0  0  0  0  0  0  0  0  0
    3.7050    1.5435    3.3020 H   0  0  0  0  0  0  0  0  0  0  0  0
    4.6611   -0.6154    2.5961 H   0  0  0  0  0  0  0  0  0  0  0  0
   -1.7983   -0.6184    1.4756 H   0  0  0  0  0  0  0  0  0  0  0  0
   -3.6490    0.5092    2.1883 H   0  0  0  0  0  0  0  0  0  0  0  0
   -3.9748    2.1755    2.6088 H   0  0  0  0  0  0  0  0  0  0  0  0
   -1.7509    2.4322    3.6794 H   0  0  0  0  0  0  0  0  0  0  0  0
   -1.3503    0.7663    3.3036 H   0  0  0  0  0  0  0  0  0  0  0  0
   -2.6813    1.1129    4.4304 H   0  0  0  0  0  0  0  0  0  0  0  0
  1  2  1  0
  2  3  1  0
  3  4  1  0
  4  5  2  0
  5  6  1  0
  6  7  1  0
  7  8  1  0
  8  9  2  0
  8 10  1  0
 10 11  1  0
 11 12  1  0
 12 13  1  0
 13 14  2  0
 13 15  1  0
 15 16  1  0
 16 17  1  0
 17 18  2  0
 18 19  1  0
 19 20  2  0
 20 21  1  0
 21 22  1  0
 20 23  1  0
 23 24  2  0
 10 25  1  0
 25 26  2  0
 25 27  1  0
 27 28  1  0
 28 29  2  0
 29 30  1  0
 30 31  1  0
 31 32  1  0
 29  4  1  0
 27  6  2  0
 24 17  1  0
  1 33  1  0
  1 34  1  0
  1 35  1  0
  2 36  1  0
  2 37  1  0
  5 38  1  0
  7 39  1  0
 11 40  1  0
 11 41  1  0
 12 42  1  0
 12 43  1  0
 15 44  1  0
 16 45  1  0
 16 46  1  0
 18 47  1  0
 19 48  1  0
 22 49  1  0
 22 50  1  0
 22 51  1  0
 23 52  1  0
 24 53  1  0
 28 54  1  0
 31 55  1  0
 31 56  1  0
 32 57  1  0
 32 58  1  0
 32 59  1  0
M  END
$$$$
