
     RDKit          3D

 36 37  0  0  0  0  0  0  0  0999 V2000
   -0.5060    1.2897    1.2828 O   0  0  0  0  0  0  0  0  0  0  0  0
   -0.4430    0.1396    0.8572 C   0  0  0  0  0  0  0  0  0  0  0  0
    0.8445   -0.5226    0.3682 C   0  0  0  0  0  0  0  0  0  0  0  0
    1.9182    0.4143    0.3346 O   0  0  0  0  0  0  0  0  0  0  0  0
    3.0969   -0.1215   -0.0496 C   0  0  0  0  0  0  0  0  0  0  0  0
    3.3230   -1.2926   -0.3022 O   0  0  0  0  0  0  0  0  0  0  0  0
    4.1324    0.9242   -0.0217 C   0  0  0  0  0  0  0  0  0  0  0  0
    5.2282    0.7079    0.8266 C   0  0  0  0  0  0  0  0  0  0  0  0
    6.2463    1.6578    0.9100 C   0  0  0  0  0  0  0  0  0  0  0  0
    6.1779    2.8187    0.1413 C   0  0  0  0  0  0  0  0  0  0  0  0
    5.0978    3.0274   -0.7200 C   0  0  0  0  0  0  0  0  0  0  0  0
    4.0732    2.0786   -0.8101 C   0  0  0  0  0  0  0  0  0  0  0  0
    2.6875    2.4053   -2.0666 Br  0  0  0  0  0  0  0  0  0  0  0  0
   -1.5466   -0.6870    0.7882 N   0  0  0  0  0  0  0  0  0  0  0  0
   -2.8712   -0.1998    1.1349 C   0  0  0  0  0  0  0  0  0  0  0  0
   -3.9554   -1.2766    1.0210 C   0  0  0  0  0  0  0  0  0  0  0  0
   -4.2407   -1.6415   -0.3596 N   0  0  0  0  0  0  0  0  0  0  0  0
   -5.2983   -1.1402   -1.0780 C   0  0  0  0  0  0  0  0  0  0  0  0
   -6.1580   -0.2745   -0.4729 O   0  0  0  0  0  0  0  0  0  0  0  0
   -5.3632   -1.5687   -2.3441 C   0  0  0  0  0  0  0  0  0  0  0  0
   -4.0516   -2.6484   -2.7118 S   0  0  0  0  0  0  0  0  0  0  0  0
   -3.3917   -2.4661   -1.0789 C   0  0  0  0  0  0  0  0  0  0  0  0
   -2.3418   -2.9653   -0.7022 O   0  0  0  0  0  0  0  0  0  0  0  0
    0.6690   -0.9138   -0.6408 H   0  0  0  0  0  0  0  0  0  0  0  0
    1.0826   -1.3403    1.0587 H   0  0  0  0  0  0  0  0  0  0  0  0
    5.2860   -0.1994    1.4249 H   0  0  0  0  0  0  0  0  0  0  0  0
    7.0924    1.4921    1.5730 H   0  0  0  0  0  0  0  0  0  0  0  0
    6.9713    3.5600    0.2052 H   0  0  0  0  0  0  0  0  0  0  0  0
    5.0693    3.9316   -1.3240 H   0  0  0  0  0  0  0  0  0  0  0  0
   -1.4624   -1.5849    0.3100 H   0  0  0  0  0  0  0  0  0  0  0  0
   -2.8223    0.1667    2.1665 H   0  0  0  0  0  0  0  0  0  0  0  0
   -3.0979    0.6550    0.4873 H   0  0  0  0  0  0  0  0  0  0  0  0
   -3.6270   -2.1827    1.5454 H   0  0  0  0  0  0  0  0  0  0  0  0
   -4.8746   -0.9358    1.5096 H   0  0  0  0  0  0  0  0  0  0  0  0
   -6.8349   -0.0107   -1.1196 H   0  0  0  0  0  0  0  0  0  0  0  0
   -6.1100   -1.2963   -3.0753 H   0  0  0  0  0  0  0  0  0  0  0  0
  1  2  2  0
  2  3  1  0
  3  4  1  0
  4  5  1  0
  5  6  2  0
  5  7  1  0
  7  8  2  0
  8  9  1  0
  9 10  2  0
 10 11  1  0
 11 12  2  0
 12 13  1  0
  2 14  1  0
 14 15  1  0
 15 16  1  0
 16 17  1  0
 17 18  1  0
 18 19  1  0
 18 20  2  0
 20 21  1  0
 21 22  1  0
 22 23  2  0
 12  7  1  0
 22 17  1  0
  3 24  1  0
  3 25  1  0
  8 26  1  0
  9 27  1  0
 10 28  1  0
 11 29  1  0
 14 30  1  0
 15 31  1  0
 15 32  1  0
 16 33  1  0
 16 34  1  0
 19 35  1  0
 20 36  1  0
M  END
$$$$
