
     RDKit          3D

 42 45  0  0  0  0  0  0  0  0999 V2000
    3.1095    2.6559    0.1922 O   0  0  0  0  0  0  0  0  0  0  0  0
    3.0114    1.4346    0.1029 C   0  0  0  0  0  0  0  0  0  0  0  0
    4.2473    0.6624   -0.1531 C   0  0  0  0  0  0  0  0  0  0  0  0
    5.3601    0.8808    0.6693 C   0  0  0  0  0  0  0  0  0  0  0  0
    6.5465    0.1822    0.4367 C   0  0  0  0  0  0  0  0  0  0  0  0
    6.6215   -0.7198   -0.6247 C   0  0  0  0  0  0  0  0  0  0  0  0
    5.5160   -0.9078   -1.4499 C   0  0  0  0  0  0  0  0  0  0  0  0
    5.5998   -1.7646   -2.4759 F   0  0  0  0  0  0  0  0  0  0  0  0
    4.3286   -0.2207   -1.2318 C   0  0  0  0  0  0  0  0  0  0  0  0
    1.8043    0.7548    0.2324 N   0  0  0  0  0  0  0  0  0  0  0  0
    0.5868    1.5487    0.4056 C   0  0  0  0  0  0  0  0  0  0  0  0
   -0.6858    0.7818    0.0196 C   0  0  0  0  0  0  0  0  0  0  0  0
   -0.7928   -0.5299    0.6726 N   0  0  0  0  0  0  0  0  0  0  0  0
   -1.9847   -1.2408    0.8545 C   0  0  0  0  0  0  0  0  0  0  0  0
   -2.0175   -2.2185    1.6057 O   0  0  0  0  0  0  0  0  0  0  0  0
   -3.2166   -0.8305    0.1402 C   0  0  0  0  0  0  0  0  0  0  0  0
   -4.5186   -1.3115    0.4415 C   0  0  0  0  0  0  0  0  0  0  0  0
   -5.3648   -0.7197   -0.4623 C   0  0  0  0  0  0  0  0  0  0  0  0
   -6.7179   -0.8077   -0.6399 N   0  0  0  0  0  0  0  0  0  0  0  0
   -7.2033   -0.1034   -1.6211 C   0  0  0  0  0  0  0  0  0  0  0  0
   -6.4223    0.7734   -2.5469 C   0  0  0  0  0  0  0  0  0  0  0  0
   -7.2956    1.6990   -3.8865 Br  0  0  0  0  0  0  0  0  0  0  0  0
   -5.1041    0.8134   -2.3151 C   0  0  0  0  0  0  0  0  0  0  0  0
   -4.5554    0.0727   -1.2756 N   0  0  0  0  0  0  0  0  0  0  0  0
   -3.2531    0.0056   -0.9145 N   0  0  0  0  0  0  0  0  0  0  0  0
    0.4294   -1.0565    1.2815 C   0  0  0  0  0  0  0  0  0  0  0  0
    1.6851   -0.6896    0.4786 C   0  0  0  0  0  0  0  0  0  0  0  0
    5.3014    1.5982    1.4857 H   0  0  0  0  0  0  0  0  0  0  0  0
    7.4107    0.3476    1.0754 H   0  0  0  0  0  0  0  0  0  0  0  0
    7.5376   -1.2682   -0.8222 H   0  0  0  0  0  0  0  0  0  0  0  0
    3.4933   -0.3662   -1.9081 H   0  0  0  0  0  0  0  0  0  0  0  0
    0.5443    1.8348    1.4640 H   0  0  0  0  0  0  0  0  0  0  0  0
    0.6585    2.4716   -0.1807 H   0  0  0  0  0  0  0  0  0  0  0  0
   -1.5550    1.3937    0.2788 H   0  0  0  0  0  0  0  0  0  0  0  0
   -0.6820    0.5996   -1.0612 H   0  0  0  0  0  0  0  0  0  0  0  0
   -4.7949   -2.0060    1.2226 H   0  0  0  0  0  0  0  0  0  0  0  0
   -8.2907   -0.1435   -1.8029 H   0  0  0  0  0  0  0  0  0  0  0  0
   -4.4068    1.3995   -2.8976 H   0  0  0  0  0  0  0  0  0  0  0  0
    0.4894   -0.6326    2.2913 H   0  0  0  0  0  0  0  0  0  0  0  0
    0.3666   -2.1453    1.3831 H   0  0  0  0  0  0  0  0  0  0  0  0
    2.5750   -1.0544    1.0012 H   0  0  0  0  0  0  0  0  0  0  0  0
    1.6386   -1.1728   -0.5040 H   0  0  0  0  0  0  0  0  0  0  0  0
  1  2  2  0
  2  3  1  0
  3  4  2  0
  4  5  1  0
  5  6  2  0
  6  7  1  0
  7  8  1  0
  7  9  2  0
  2 10  1  0
 10 11  1  0
 11 12  1  0
 12 13  1  0
 13 14  1  0
 14 15  2  0
 14 16  1  0
 16 17  1  0
 17 18  2  0
 18 19  1  0
 19 20  2  0
 20 21  1  0
 21 22  1  0
 21 23  2  0
 23 24  1  0
 24 25  1  0
 13 26  1  0
 26 27  1  0
  9  3  1  0
 27 10  1  0
 25 16  2  0
 24 18  1  0
  4 28  1  0
  5 29  1  0
  6 30  1  0
  9 31  1  0
 11 32  1  0
 11 33  1  0
 12 34  1  0
 12 35  1  0
 17 36  1  0
 20 37  1  0
 23 38  1  0
 26 39  1  0
 26 40  1  0
 27 41  1  0
 27 42  1  0
M  END
$$$$
