
     RDKit          3D

 50 51  0  0  0  0  0  0  0  0999 V2000
   -5.1855   -3.3009   -1.6418 C   0  0  0  0  0  0  0  0  0  0  0  0
   -4.9625   -2.8186   -0.3243 O   0  0  0  0  0  0  0  0  0  0  0  0
   -3.8820   -1.9971   -0.1216 C   0  0  0  0  0  0  0  0  0  0  0  0
   -2.9796   -1.6168   -1.1196 C   0  0  0  0  0  0  0  0  0  0  0  0
   -1.9078   -0.7748   -0.8164 C   0  0  0  0  0  0  0  0  0  0  0  0
   -1.7278   -0.3098    0.4840 C   0  0  0  0  0  0  0  0  0  0  0  0
   -0.6437    0.5839    0.7548 N   0  0  0  0  0  0  0  0  0  0  0  0
    0.3553    0.2146    1.7803 C   0  0  0  0  0  0  0  0  0  0  0  0
    1.5945   -0.3860    1.1235 C   0  0  0  0  0  0  0  0  0  0  0  0
    1.9407   -1.5318    1.4017 O   0  0  0  0  0  0  0  0  0  0  0  0
    2.2526    0.4900    0.2711 N   0  0  0  0  0  0  0  0  0  0  0  0
    3.4017    0.2421   -0.5222 C   0  0  0  0  0  0  0  0  0  0  0  0
    4.0030   -1.0271   -0.5746 C   0  0  0  0  0  0  0  0  0  0  0  0
    5.1143   -1.2823   -1.3834 C   0  0  0  0  0  0  0  0  0  0  0  0
    5.6397   -0.2721   -2.1733 C   0  0  0  0  0  0  0  0  0  0  0  0
    5.0473    0.9947   -2.1314 C   0  0  0  0  0  0  0  0  0  0  0  0
    5.6153    1.9999   -3.0155 N   0  0  0  0  0  4  0  0  0  0  0  0
    6.8005    2.3072   -2.8296 O   0  0  0  0  0  0  0  0  0  0  0  0
    4.8797    2.4577   -3.9001 O   0  0  0  0  0  1  0  0  0  0  0  0
    3.9463    1.2957   -1.2968 C   0  0  0  0  0  0  0  0  0  0  0  0
    3.3658    2.6874   -1.2399 C   0  0  0  0  0  0  0  0  0  0  0  0
   -0.8079    2.2059    0.3359 S   0  0  0  0  0  6  0  0  0  0  0  0
   -1.7626    2.8598    1.6917 C   0  0  0  0  0  0  0  0  0  0  0  0
    0.5253    2.7746    0.4139 O   0  0  0  0  0  0  0  0  0  0  0  0
   -1.5892    2.3281   -0.8737 O   0  0  0  0  0  0  0  0  0  0  0  0
   -2.6284   -0.6747    1.4882 C   0  0  0  0  0  0  0  0  0  0  0  0
   -3.7011   -1.5255    1.1954 C   0  0  0  0  0  0  0  0  0  0  0  0
   -4.6349   -1.9353    2.1155 O   0  0  0  0  0  0  0  0  0  0  0  0
   -4.3799   -1.6614    3.4853 C   0  0  0  0  0  0  0  0  0  0  0  0
   -6.0824   -3.9274   -1.6211 H   0  0  0  0  0  0  0  0  0  0  0  0
   -5.3722   -2.4767   -2.3381 H   0  0  0  0  0  0  0  0  0  0  0  0
   -4.3521   -3.9253   -1.9801 H   0  0  0  0  0  0  0  0  0  0  0  0
   -3.0827   -1.9530   -2.1459 H   0  0  0  0  0  0  0  0  0  0  0  0
   -1.2203   -0.4787   -1.6056 H   0  0  0  0  0  0  0  0  0  0  0  0
   -0.0504   -0.5162    2.4885 H   0  0  0  0  0  0  0  0  0  0  0  0
    0.6624    1.0779    2.3805 H   0  0  0  0  0  0  0  0  0  0  0  0
    1.8326    1.4160    0.1903 H   0  0  0  0  0  0  0  0  0  0  0  0
    3.6211   -1.8634    0.0035 H   0  0  0  0  0  0  0  0  0  0  0  0
    5.5531   -2.2774   -1.3990 H   0  0  0  0  0  0  0  0  0  0  0  0
    6.4942   -0.4736   -2.8155 H   0  0  0  0  0  0  0  0  0  0  0  0
    4.0340    3.4475   -1.6533 H   0  0  0  0  0  0  0  0  0  0  0  0
    2.4210    2.7227   -1.7908 H   0  0  0  0  0  0  0  0  0  0  0  0
    3.2022    2.9908   -0.2006 H   0  0  0  0  0  0  0  0  0  0  0  0
   -2.7501    2.3963    1.6918 H   0  0  0  0  0  0  0  0  0  0  0  0
   -1.2367    2.6702    2.6285 H   0  0  0  0  0  0  0  0  0  0  0  0
   -1.8631    3.9367    1.5383 H   0  0  0  0  0  0  0  0  0  0  0  0
   -2.4876   -0.2835    2.4880 H   0  0  0  0  0  0  0  0  0  0  0  0
   -3.4167   -2.0752    3.8022 H   0  0  0  0  0  0  0  0  0  0  0  0
   -4.4336   -0.5865    3.6856 H   0  0  0  0  0  0  0  0  0  0  0  0
   -5.1618   -2.1487    4.0757 H   0  0  0  0  0  0  0  0  0  0  0  0
  1  2  1  0
  2  3  1  0
  3  4  2  0
  4  5  1  0
  5  6  2  0
  6  7  1  0
  7  8  1  0
  8  9  1  0
  9 10  2  0
  9 11  1  0
 11 12  1  0
 12 13  2  0
 13 14  1  0
 14 15  2  0
 15 16  1  0
 16 17  1  0
 17 18  2  0
 17 19  1  0
 16 20  2  0
 20 21  1  0
  7 22  1  0
 22 23  1  0
 22 24  2  0
 22 25  2  0
  6 26  1  0
 26 27  2  0
 27 28  1  0
 28 29  1  0
 27  3  1  0
 20 12  1  0
  1 30  1  0
  1 31  1  0
  1 32  1  0
  4 33  1  0
  5 34  1  0
  8 35  1  0
  8 36  1  0
 11 37  1  0
 13 38  1  0
 14 39  1  0
 15 40  1  0
 21 41  1  0
 21 42  1  0
 21 43  1  0
 23 44  1  0
 23 45  1  0
 23 46  1  0
 26 47  1  0
 29 48  1  0
 29 49  1  0
 29 50  1  0
M  CHG  2  17   1  19  -1
M  END
$$$$
