
     RDKit          3D

 36 37  0  0  0  0  0  0  0  0999 V2000
    4.7539    1.0808    0.9130 C   0  0  0  0  0  0  0  0  0  0  0  0
    4.6436   -0.2866    0.3771 N   0  0  0  0  0  0  0  0  0  0  0  0
    4.2335   -1.2754    1.3884 C   0  0  0  0  0  0  0  0  0  0  0  0
    3.9855   -0.4562   -1.1816 S   0  0  0  0  0  6  0  0  0  0  0  0
    4.0355   -1.8560   -1.5482 O   0  0  0  0  0  0  0  0  0  0  0  0
    4.5621    0.5602   -2.0359 O   0  0  0  0  0  0  0  0  0  0  0  0
    2.2682   -0.0351   -0.9444 C   0  0  0  0  0  0  0  0  0  0  0  0
    1.3398   -1.0444   -0.6698 C   0  0  0  0  0  0  0  0  0  0  0  0
   -0.0098   -0.7179   -0.5083 C   0  0  0  0  0  0  0  0  0  0  0  0
   -0.4343    0.6135   -0.6357 C   0  0  0  0  0  0  0  0  0  0  0  0
   -1.8563    1.0176   -0.4635 C   0  0  0  0  0  0  0  0  0  0  0  0
   -2.2352    2.1771   -0.4903 O   0  0  0  0  0  0  0  0  0  0  0  0
   -2.6490   -0.0708   -0.2969 O   0  0  0  0  0  0  0  0  0  0  0  0
   -3.9983    0.2377    0.0190 C   0  0  0  0  0  0  0  0  0  0  0  0
   -4.8828   -0.9578   -0.2473 C   0  0  0  0  0  0  0  0  0  0  0  0
   -6.0612   -0.6702    0.6466 C   0  0  0  0  0  0  0  0  0  0  0  0
   -5.5107   -0.0417    1.8058 O   0  0  0  0  0  0  0  0  0  0  0  0
   -4.2675    0.4497    1.4994 C   0  0  0  0  0  0  0  0  0  0  0  0
   -3.5139    0.9523    2.3169 O   0  0  0  0  0  0  0  0  0  0  0  0
    0.5045    1.6136   -0.9326 C   0  0  0  0  0  0  0  0  0  0  0  0
    1.8538    1.2911   -1.0971 C   0  0  0  0  0  0  0  0  0  0  0  0
    3.7861    1.4424    1.2713 H   0  0  0  0  0  0  0  0  0  0  0  0
    5.4588    1.0907    1.7509 H   0  0  0  0  0  0  0  0  0  0  0  0
    5.1465    1.7714    0.1618 H   0  0  0  0  0  0  0  0  0  0  0  0
    4.2585   -2.2907    0.9836 H   0  0  0  0  0  0  0  0  0  0  0  0
    4.9342   -1.2528    2.2296 H   0  0  0  0  0  0  0  0  0  0  0  0
    3.2311   -1.0579    1.7675 H   0  0  0  0  0  0  0  0  0  0  0  0
    1.6569   -2.0821   -0.5836 H   0  0  0  0  0  0  0  0  0  0  0  0
   -0.7179   -1.5125   -0.2849 H   0  0  0  0  0  0  0  0  0  0  0  0
   -4.3705    1.1061   -0.5397 H   0  0  0  0  0  0  0  0  0  0  0  0
   -5.1577   -1.0672   -1.3002 H   0  0  0  0  0  0  0  0  0  0  0  0
   -4.3791   -1.8835    0.0590 H   0  0  0  0  0  0  0  0  0  0  0  0
   -6.5847   -1.5852    0.9380 H   0  0  0  0  0  0  0  0  0  0  0  0
   -6.7774    0.0170    0.1838 H   0  0  0  0  0  0  0  0  0  0  0  0
    0.1854    2.6494   -1.0422 H   0  0  0  0  0  0  0  0  0  0  0  0
    2.5684    2.0736   -1.3450 H   0  0  0  0  0  0  0  0  0  0  0  0
  1  2  1  0
  2  3  1  0
  2  4  1  0
  4  5  2  0
  4  6  2  0
  4  7  1  0
  7  8  2  0
  8  9  1  0
  9 10  2  0
 10 11  1  0
 11 12  2  0
 11 13  1  0
 13 14  1  0
 14 15  1  0
 15 16  1  0
 16 17  1  0
 17 18  1  0
 18 19  2  0
 10 20  1  0
 20 21  2  0
 21  7  1  0
 18 14  1  0
  1 22  1  0
  1 23  1  0
  1 24  1  0
  3 25  1  0
  3 26  1  0
  3 27  1  0
  8 28  1  0
  9 29  1  0
 14 30  1  0
 15 31  1  0
 15 32  1  0
 16 33  1  0
 16 34  1  0
 20 35  1  0
 21 36  1  0
M  END
$$$$
