
     RDKit          3D

 37 38  0  0  0  0  0  0  0  0999 V2000
    1.5645    1.5030    1.6408 O   0  0  0  0  0  0  0  0  0  0  0  0
    0.8959    1.9062    0.6890 C   0  0  0  0  0  0  0  0  0  0  0  0
   -0.4206    2.6650    0.8518 C   0  0  0  0  0  0  0  0  0  0  0  0
   -1.5503    1.7946    0.7914 O   0  0  0  0  0  0  0  0  0  0  0  0
   -1.8788    1.3647   -0.4492 C   0  0  0  0  0  0  0  0  0  0  0  0
   -1.3618    1.7155   -1.4988 O   0  0  0  0  0  0  0  0  0  0  0  0
   -3.0158    0.4317   -0.3683 C   0  0  0  0  0  0  0  0  0  0  0  0
   -4.1353    0.6886   -1.1694 C   0  0  0  0  0  0  0  0  0  0  0  0
   -5.2327   -0.1735   -1.1237 C   0  0  0  0  0  0  0  0  0  0  0  0
   -5.2008   -1.2912   -0.2885 C   0  0  0  0  0  0  0  0  0  0  0  0
   -6.5553   -2.3513   -0.2351 Cl  0  0  0  0  0  0  0  0  0  0  0  0
   -4.0791   -1.5655    0.4967 C   0  0  0  0  0  0  0  0  0  0  0  0
   -2.9823   -0.7049    0.4487 C   0  0  0  0  0  0  0  0  0  0  0  0
   -1.8592   -0.9931    1.1724 O   0  0  0  0  0  0  0  0  0  0  0  0
    1.2687    1.6701   -0.6182 N   0  0  0  0  0  0  0  0  0  0  0  0
    2.4278    0.8513   -0.9128 C   0  0  0  0  0  0  0  0  0  0  0  0
    2.2237   -0.6215   -0.5258 C   0  0  0  0  0  0  0  0  0  0  0  0
    3.4314   -1.2101    0.0149 N   0  0  0  0  0  0  0  0  0  0  0  0
    3.7630   -1.2483    1.3487 C   0  0  0  0  0  0  0  0  0  0  0  0
    2.9617   -0.7089    2.3104 O   0  0  0  0  0  0  0  0  0  0  0  0
    4.9223   -1.8577    1.6132 C   0  0  0  0  0  0  0  0  0  0  0  0
    5.7018   -2.4036    0.1616 S   0  0  0  0  0  0  0  0  0  0  0  0
    4.3806   -1.7660   -0.8317 C   0  0  0  0  0  0  0  0  0  0  0  0
    4.3556   -1.8204   -2.0506 O   0  0  0  0  0  0  0  0  0  0  0  0
   -0.4168    3.1434    1.8370 H   0  0  0  0  0  0  0  0  0  0  0  0
   -0.4973    3.4686    0.1095 H   0  0  0  0  0  0  0  0  0  0  0  0
   -4.1555    1.5574   -1.8241 H   0  0  0  0  0  0  0  0  0  0  0  0
   -6.1050    0.0288   -1.7408 H   0  0  0  0  0  0  0  0  0  0  0  0
   -4.0686   -2.4509    1.1254 H   0  0  0  0  0  0  0  0  0  0  0  0
   -2.0163   -1.7705    1.7358 H   0  0  0  0  0  0  0  0  0  0  0  0
    0.5507    1.7819   -1.3374 H   0  0  0  0  0  0  0  0  0  0  0  0
    2.6359    0.9422   -1.9840 H   0  0  0  0  0  0  0  0  0  0  0  0
    3.2768    1.2856   -0.3714 H   0  0  0  0  0  0  0  0  0  0  0  0
    1.4084   -0.7637    0.1928 H   0  0  0  0  0  0  0  0  0  0  0  0
    1.9300   -1.1806   -1.4232 H   0  0  0  0  0  0  0  0  0  0  0  0
    2.4887    0.0719    1.9482 H   0  0  0  0  0  0  0  0  0  0  0  0
    5.3440   -1.9885    2.5994 H   0  0  0  0  0  0  0  0  0  0  0  0
  1  2  2  0
  2  3  1  0
  3  4  1  0
  4  5  1  0
  5  6  2  0
  5  7  1  0
  7  8  2  0
  8  9  1  0
  9 10  2  0
 10 11  1  0
 10 12  1  0
 12 13  2  0
 13 14  1  0
  2 15  1  0
 15 16  1  0
 16 17  1  0
 17 18  1  0
 18 19  1  0
 19 20  1  0
 19 21  2  0
 21 22  1  0
 22 23  1  0
 23 24  2  0
 13  7  1  0
 23 18  1  0
  3 25  1  0
  3 26  1  0
  8 27  1  0
  9 28  1  0
 12 29  1  0
 14 30  1  0
 15 31  1  0
 16 32  1  0
 16 33  1  0
 17 34  1  0
 17 35  1  0
 20 36  1  0
 21 37  1  0
M  END
$$$$
