
     RDKit          3D

 53 52  0  0  0  0  0  0  0  0999 V2000
   -5.0683    3.4018   -0.6685 C   0  0  0  0  0  0  0  0  0  0  0  0
   -5.9695    2.6177   -1.6235 C   0  0  0  0  0  0  0  0  0  0  0  0
   -7.4362    2.9754   -1.3560 C   0  0  0  0  0  0  0  0  0  0  0  0
   -5.7834    1.0886   -1.5276 C   0  0  0  0  0  0  0  0  0  0  0  0
   -4.3930    0.5931   -1.9257 C   0  0  0  0  0  0  0  0  0  0  0  0
   -3.4469    0.6046   -0.8278 N   0  0  0  0  0  0  0  0  0  0  0  0
   -2.1891    0.0605   -0.9891 C   0  0  0  0  0  0  0  0  0  0  0  0
   -1.8419   -0.5522   -1.9938 O   0  0  0  0  0  0  0  0  0  0  0  0
   -1.2881    0.2751    0.2101 C   0  0  0  0  0  0  0  0  0  0  0  0
    0.1205   -0.2206   -0.0929 C   0  0  0  0  0  0  0  0  0  0  0  0
    1.2951    0.1563    1.2535 S   0  0  0  0  0  0  0  0  0  0  0  0
    0.8085   -1.0800    2.5113 C   0  0  0  0  0  0  0  0  0  0  0  0
    1.1762   -2.5149    2.1610 C   0  0  0  0  0  0  0  0  0  0  0  0
    2.6627   -2.7630    2.2964 C   0  0  0  0  0  0  0  0  0  0  0  0
    3.1791   -3.0044    3.3846 O   0  0  0  0  0  0  0  0  0  0  0  0
    3.3594   -2.6943    1.1085 N   0  0  0  0  0  0  0  0  0  0  0  0
    4.7966   -2.8650    1.0545 C   0  0  0  0  0  0  0  0  0  0  0  0
    5.5560   -1.5475    1.2314 C   0  0  0  0  0  0  0  0  0  0  0  0
    5.3123   -0.5039    0.1225 C   0  0  0  0  0  0  0  0  0  0  0  0
    5.7174   -1.0111   -1.2639 C   0  0  0  0  0  0  0  0  0  0  0  0
    6.0769    0.7842    0.4421 C   0  0  0  0  0  0  0  0  0  0  0  0
   -4.0155    3.3127   -0.9536 H   0  0  0  0  0  0  0  0  0  0  0  0
   -5.1825    3.0494    0.3647 H   0  0  0  0  0  0  0  0  0  0  0  0
   -5.3134    4.4707   -0.6881 H   0  0  0  0  0  0  0  0  0  0  0  0
   -5.7328    2.9317   -2.6493 H   0  0  0  0  0  0  0  0  0  0  0  0
   -8.0970    2.4599   -2.0615 H   0  0  0  0  0  0  0  0  0  0  0  0
   -7.6003    4.0529   -1.4751 H   0  0  0  0  0  0  0  0  0  0  0  0
   -7.7369    2.6946   -0.3407 H   0  0  0  0  0  0  0  0  0  0  0  0
   -6.0418    0.7350   -0.5202 H   0  0  0  0  0  0  0  0  0  0  0  0
   -6.5025    0.6255   -2.2179 H   0  0  0  0  0  0  0  0  0  0  0  0
   -4.4654   -0.4446   -2.2756 H   0  0  0  0  0  0  0  0  0  0  0  0
   -3.9759    1.1849   -2.7494 H   0  0  0  0  0  0  0  0  0  0  0  0
   -3.6003    1.2397   -0.0534 H   0  0  0  0  0  0  0  0  0  0  0  0
   -1.7256   -0.2686    1.0569 H   0  0  0  0  0  0  0  0  0  0  0  0
   -1.2772    1.3480    0.4460 H   0  0  0  0  0  0  0  0  0  0  0  0
    0.1296   -1.2922   -0.3122 H   0  0  0  0  0  0  0  0  0  0  0  0
    0.5028    0.2813   -0.9889 H   0  0  0  0  0  0  0  0  0  0  0  0
   -0.2681   -0.9985    2.6849 H   0  0  0  0  0  0  0  0  0  0  0  0
    1.3015   -0.7880    3.4450 H   0  0  0  0  0  0  0  0  0  0  0  0
    0.6815   -3.1961    2.8656 H   0  0  0  0  0  0  0  0  0  0  0  0
    0.8251   -2.8103    1.1659 H   0  0  0  0  0  0  0  0  0  0  0  0
    2.9008   -2.2858    0.3050 H   0  0  0  0  0  0  0  0  0  0  0  0
    5.0337   -3.3393    0.0979 H   0  0  0  0  0  0  0  0  0  0  0  0
    5.0984   -3.5623    1.8447 H   0  0  0  0  0  0  0  0  0  0  0  0
    6.6292   -1.7719    1.2826 H   0  0  0  0  0  0  0  0  0  0  0  0
    5.2818   -1.1081    2.1997 H   0  0  0  0  0  0  0  0  0  0  0  0
    4.2451   -0.2563    0.0949 H   0  0  0  0  0  0  0  0  0  0  0  0
    5.0846   -1.8475   -1.5821 H   0  0  0  0  0  0  0  0  0  0  0  0
    6.7613   -1.3451   -1.2765 H   0  0  0  0  0  0  0  0  0  0  0  0
    5.6066   -0.2215   -2.0156 H   0  0  0  0  0  0  0  0  0  0  0  0
    5.8689    1.5542   -0.3078 H   0  0  0  0  0  0  0  0  0  0  0  0
    7.1587    0.6118    0.4562 H   0  0  0  0  0  0  0  0  0  0  0  0
    5.7812    1.1833    1.4184 H   0  0  0  0  0  0  0  0  0  0  0  0
  1  2  1  0
  2  3  1  0
  2  4  1  0
  4  5  1  0
  5  6  1  0
  6  7  1  0
  7  8  2  0
  7  9  1  0
  9 10  1  0
 10 11  1  0
 11 12  1  0
 12 13  1  0
 13 14  1  0
 14 15  2  0
 14 16  1  0
 16 17  1  0
 17 18  1  0
 18 19  1  0
 19 20  1  0
 19 21  1  0
  1 22  1  0
  1 23  1  0
  1 24  1  0
  2 25  1  0
  3 26  1  0
  3 27  1  0
  3 28  1  0
  4 29  1  0
  4 30  1  0
  5 31  1  0
  5 32  1  0
  6 33  1  0
  9 34  1  0
  9 35  1  0
 10 36  1  0
 10 37  1  0
 12 38  1  0
 12 39  1  0
 13 40  1  0
 13 41  1  0
 16 42  1  0
 17 43  1  0
 17 44  1  0
 18 45  1  0
 18 46  1  0
 19 47  1  0
 20 48  1  0
 20 49  1  0
 20 50  1  0
 21 51  1  0
 21 52  1  0
 21 53  1  0
M  END
$$$$
