
     RDKit          3D

 44 44  0  0  0  0  0  0  0  0999 V2000
   -4.6238   -1.0400   -1.2766 C   0  0  0  0  0  0  0  0  0  0  0  0
   -4.1746   -0.5400    0.0895 C   0  0  0  0  0  0  0  0  0  0  0  0
   -3.6180    0.8175    0.0023 N   0  0  0  0  0  0  0  0  0  0  0  0
   -4.5814    1.9124    0.1717 C   0  0  0  0  0  0  0  0  0  0  0  0
   -4.6038    2.3930    1.6155 C   0  0  0  0  0  0  0  0  0  0  0  0
   -2.2862    1.0499   -0.3310 C   0  0  0  0  0  0  0  0  0  0  0  0
   -1.7373    2.3460   -0.3747 C   0  0  0  0  0  0  0  0  0  0  0  0
   -0.4023    2.5915   -0.7281 C   0  0  0  0  0  0  0  0  0  0  0  0
    0.4442    1.5351   -1.0320 C   0  0  0  0  0  0  0  0  0  0  0  0
   -0.0508    0.2412   -0.9595 C   0  0  0  0  0  0  0  0  0  0  0  0
    0.7265   -0.8486   -1.2483 O   0  0  0  0  0  0  0  0  0  0  0  0
    1.8087   -1.0001   -0.3295 C   0  0  0  0  0  0  0  0  0  0  0  0
    3.1781   -0.5832   -0.8916 C   0  0  0  0  0  0  0  0  0  0  0  0
    3.3028   -0.1916   -2.0532 O   0  0  0  0  0  0  0  0  0  0  0  0
    4.2793   -0.6411   -0.0290 N   0  0  0  0  0  0  0  0  0  0  0  0
    5.5703   -0.2146   -0.5572 C   0  0  0  0  0  0  0  0  0  0  0  0
    4.2729   -1.2182    1.3234 C   0  0  0  0  0  0  0  0  0  0  0  0
    4.9880   -2.5670    1.4434 C   0  0  0  0  0  0  0  0  0  0  0  0
    4.1934   -3.6548    0.8681 C   0  0  0  0  0  0  0  0  0  0  0  0
    3.5488   -4.5206    0.4430 N   0  0  0  0  0  0  0  0  0  0  0  0
   -1.3937    0.0072   -0.6393 C   0  0  0  0  0  0  0  0  0  0  0  0
   -5.0511   -2.0439   -1.1893 H   0  0  0  0  0  0  0  0  0  0  0  0
   -5.3885   -0.3829   -1.7042 H   0  0  0  0  0  0  0  0  0  0  0  0
   -3.7926   -1.0863   -1.9859 H   0  0  0  0  0  0  0  0  0  0  0  0
   -5.0436   -0.5367    0.7596 H   0  0  0  0  0  0  0  0  0  0  0  0
   -3.4709   -1.2400    0.5525 H   0  0  0  0  0  0  0  0  0  0  0  0
   -4.3855    2.7420   -0.5164 H   0  0  0  0  0  0  0  0  0  0  0  0
   -5.5887    1.5658   -0.0919 H   0  0  0  0  0  0  0  0  0  0  0  0
   -3.6241    2.7649    1.9356 H   0  0  0  0  0  0  0  0  0  0  0  0
   -4.8871    1.5812    2.2941 H   0  0  0  0  0  0  0  0  0  0  0  0
   -5.3307    3.2024    1.7335 H   0  0  0  0  0  0  0  0  0  0  0  0
   -2.3400    3.2166   -0.1366 H   0  0  0  0  0  0  0  0  0  0  0  0
   -0.0351    3.6128   -0.7724 H   0  0  0  0  0  0  0  0  0  0  0  0
    1.4667    1.7276   -1.3397 H   0  0  0  0  0  0  0  0  0  0  0  0
    1.8608   -2.0679   -0.0962 H   0  0  0  0  0  0  0  0  0  0  0  0
    1.6178   -0.4608    0.6073 H   0  0  0  0  0  0  0  0  0  0  0  0
    6.1224    0.3188    0.2223 H   0  0  0  0  0  0  0  0  0  0  0  0
    6.1312   -1.0987   -0.8698 H   0  0  0  0  0  0  0  0  0  0  0  0
    5.4604    0.4502   -1.4194 H   0  0  0  0  0  0  0  0  0  0  0  0
    3.2524   -1.3064    1.7015 H   0  0  0  0  0  0  0  0  0  0  0  0
    4.7773   -0.4907    1.9695 H   0  0  0  0  0  0  0  0  0  0  0  0
    5.9771   -2.5336    0.9766 H   0  0  0  0  0  0  0  0  0  0  0  0
    5.1486   -2.7810    2.5068 H   0  0  0  0  0  0  0  0  0  0  0  0
   -1.7180   -1.0273   -0.6446 H   0  0  0  0  0  0  0  0  0  0  0  0
  1  2  1  0
  2  3  1  0
  3  4  1  0
  4  5  1  0
  3  6  1  0
  6  7  2  0
  7  8  1  0
  8  9  2  0
  9 10  1  0
 10 11  1  0
 11 12  1  0
 12 13  1  0
 13 14  2  0
 13 15  1  0
 15 16  1  0
 15 17  1  0
 17 18  1  0
 18 19  1  0
 19 20  3  0
 10 21  2  0
 21  6  1  0
  1 22  1  0
  1 23  1  0
  1 24  1  0
  2 25  1  0
  2 26  1  0
  4 27  1  0
  4 28  1  0
  5 29  1  0
  5 30  1  0
  5 31  1  0
  7 32  1  0
  8 33  1  0
  9 34  1  0
 12 35  1  0
 12 36  1  0
 16 37  1  0
 16 38  1  0
 16 39  1  0
 17 40  1  0
 17 41  1  0
 18 42  1  0
 18 43  1  0
 21 44  1  0
M  END
$$$$
