
     RDKit          3D

 54 57  0  0  0  0  0  0  0  0999 V2000
    0.5002   -0.7486   -2.6611 O   0  0  0  0  0  0  0  0  0  0  0  0
   -0.3684   -1.3553   -2.0396 C   0  0  0  0  0  0  0  0  0  0  0  0
   -1.8037   -1.4437   -2.5718 C   0  0  0  0  0  0  0  0  0  0  0  0
   -2.6996   -0.5004   -1.9818 O   0  0  0  0  0  0  0  0  0  0  0  0
   -3.1489   -0.8208   -0.7451 C   0  0  0  0  0  0  0  0  0  0  0  0
   -2.8185   -1.8144   -0.1142 O   0  0  0  0  0  0  0  0  0  0  0  0
   -4.0948    0.2085   -0.2385 C   0  0  0  0  0  0  0  0  0  0  0  0
   -4.4173    1.3585   -0.9750 C   0  0  0  0  0  0  0  0  0  0  0  0
   -5.3154    2.2958   -0.4565 C   0  0  0  0  0  0  0  0  0  0  0  0
   -5.8939    2.0873    0.7935 C   0  0  0  0  0  0  0  0  0  0  0  0
   -5.5539    0.9567    1.5426 C   0  0  0  0  0  0  0  0  0  0  0  0
   -4.6693    0.0118    1.0245 C   0  0  0  0  0  0  0  0  0  0  0  0
   -6.0582    0.7056    2.7928 O   0  0  0  0  0  0  0  0  0  0  0  0
   -6.6677    1.8736    3.3561 C   0  0  0  0  0  0  0  0  0  0  0  0
   -7.5574    2.5610    2.3338 C   0  0  0  0  0  0  0  0  0  0  0  0
   -6.7817    3.0372    1.2277 O   0  0  0  0  0  0  0  0  0  0  0  0
   -0.2018   -1.9997   -0.8259 N   0  0  0  0  0  0  0  0  0  0  0  0
    0.9931   -2.1579   -0.0998 C   0  0  0  0  0  0  0  0  0  0  0  0
    0.8836   -2.6140    1.2212 C   0  0  0  0  0  0  0  0  0  0  0  0
    2.0198   -2.7838    2.0171 C   0  0  0  0  0  0  0  0  0  0  0  0
    3.2800   -2.5018    1.4973 C   0  0  0  0  0  0  0  0  0  0  0  0
    3.3916   -2.0552    0.1784 C   0  0  0  0  0  0  0  0  0  0  0  0
    5.0015   -1.7414   -0.5005 S   0  0  0  0  0  6  0  0  0  0  0  0
    4.9356   -1.8655   -1.9408 O   0  0  0  0  0  0  0  0  0  0  0  0
    5.9568   -2.5181    0.2629 O   0  0  0  0  0  0  0  0  0  0  0  0
    5.2603   -0.0943   -0.1296 N   0  0  0  0  0  0  0  0  0  0  0  0
    4.2662    0.8620   -0.7265 C   0  0  0  0  0  0  0  0  0  0  0  0
    4.8320    2.2856   -0.7419 C   0  0  0  0  0  0  0  0  0  0  0  0
    6.0067    2.4174   -1.5537 O   0  0  0  0  0  0  0  0  0  0  0  0
    6.7793    1.2107   -1.6292 C   0  0  0  0  0  0  0  0  0  0  0  0
    6.6751    0.3567   -0.3633 C   0  0  0  0  0  0  0  0  0  0  0  0
    2.2578   -1.9010   -0.6283 C   0  0  0  0  0  0  0  0  0  0  0  0
   -2.1841   -2.4675   -2.4676 H   0  0  0  0  0  0  0  0  0  0  0  0
   -1.7742   -1.2372   -3.6475 H   0  0  0  0  0  0  0  0  0  0  0  0
   -3.9808    1.5400   -1.9547 H   0  0  0  0  0  0  0  0  0  0  0  0
   -5.5711    3.1823   -1.0315 H   0  0  0  0  0  0  0  0  0  0  0  0
   -4.4250   -0.8692    1.6139 H   0  0  0  0  0  0  0  0  0  0  0  0
   -7.2598    1.5545    4.2195 H   0  0  0  0  0  0  0  0  0  0  0  0
   -5.8749    2.5423    3.7130 H   0  0  0  0  0  0  0  0  0  0  0  0
   -8.3290    1.8815    1.9514 H   0  0  0  0  0  0  0  0  0  0  0  0
   -8.0562    3.4244    2.7851 H   0  0  0  0  0  0  0  0  0  0  0  0
   -1.0631   -2.2734   -0.3476 H   0  0  0  0  0  0  0  0  0  0  0  0
   -0.0916   -2.8337    1.6515 H   0  0  0  0  0  0  0  0  0  0  0  0
    1.9192   -3.1362    3.0409 H   0  0  0  0  0  0  0  0  0  0  0  0
    4.1649   -2.6367    2.1157 H   0  0  0  0  0  0  0  0  0  0  0  0
    3.3550    0.8471   -0.1212 H   0  0  0  0  0  0  0  0  0  0  0  0
    4.0237    0.5638   -1.7521 H   0  0  0  0  0  0  0  0  0  0  0  0
    4.0850    2.9849   -1.1310 H   0  0  0  0  0  0  0  0  0  0  0  0
    5.0871    2.6110    0.2733 H   0  0  0  0  0  0  0  0  0  0  0  0
    6.4448    0.6491   -2.5087 H   0  0  0  0  0  0  0  0  0  0  0  0
    7.8200    1.5019   -1.8028 H   0  0  0  0  0  0  0  0  0  0  0  0
    7.3612   -0.4927   -0.4322 H   0  0  0  0  0  0  0  0  0  0  0  0
    6.9750    0.9408    0.5149 H   0  0  0  0  0  0  0  0  0  0  0  0
    2.3848   -1.5896   -1.6611 H   0  0  0  0  0  0  0  0  0  0  0  0
  1  2  2  0
  2  3  1  0
  3  4  1  0
  4  5  1  0
  5  6  2  0
  5  7  1  0
  7  8  2  0
  8  9  1  0
  9 10  2  0
 10 11  1  0
 11 12  2  0
 11 13  1  0
 13 14  1  0
 14 15  1  0
 15 16  1  0
  2 17  1  0
 17 18  1  0
 18 19  2  0
 19 20  1  0
 20 21  2  0
 21 22  1  0
 22 23  1  0
 23 24  2  0
 23 25  2  0
 23 26  1  0
 26 27  1  0
 27 28  1  0
 28 29  1  0
 29 30  1  0
 30 31  1  0
 22 32  2  0
 12  7  1  0
 32 18  1  0
 16 10  1  0
 31 26  1  0
  3 33  1  0
  3 34  1  0
  8 35  1  0
  9 36  1  0
 12 37  1  0
 14 38  1  0
 14 39  1  0
 15 40  1  0
 15 41  1  0
 17 42  1  0
 19 43  1  0
 20 44  1  0
 21 45  1  0
 27 46  1  0
 27 47  1  0
 28 48  1  0
 28 49  1  0
 30 50  1  0
 30 51  1  0
 31 52  1  0
 31 53  1  0
 32 54  1  0
M  END
$$$$
