
     RDKit          3D

 36 36  0  0  0  0  0  0  0  0999 V2000
    0.3939   -3.2346    3.8735 C   0  0  0  0  0  0  0  0  0  0  0  0
    1.4440   -3.7028    2.8816 C   0  0  0  0  0  0  0  0  0  0  0  0
    0.8371   -4.4047    1.7983 O   0  0  0  0  0  0  0  0  0  0  0  0
    0.3671   -3.5631    0.7453 C   0  0  0  0  0  0  0  0  0  0  0  0
    1.4859   -3.3082   -0.2626 C   0  0  0  0  0  0  0  0  0  0  0  0
    1.0119   -2.4774   -1.4475 C   0  0  0  0  0  0  0  0  0  0  0  0
    0.7255   -1.1045   -1.0696 N   0  0  0  0  0  0  0  0  0  0  0  0
   -0.1729   -0.3383   -1.7822 C   0  0  0  0  0  0  0  0  0  0  0  0
   -0.8458   -0.8002   -2.7006 O   0  0  0  0  0  0  0  0  0  0  0  0
   -0.2858    1.1054   -1.3797 C   0  0  0  0  0  0  0  0  0  0  0  0
    0.4658    1.5734   -0.2694 C   0  0  0  0  0  0  0  0  0  0  0  0
    1.1227    1.8557    0.6447 N   0  0  0  0  0  0  0  0  0  0  0  0
   -1.1250    1.8616   -2.1137 C   0  0  0  0  0  0  0  0  0  0  0  0
   -1.3797    3.2475   -1.9030 C   0  0  0  0  0  0  0  0  0  0  0  0
   -2.2949    4.0571   -2.5768 C   0  0  0  0  0  0  0  0  0  0  0  0
   -2.2098    5.3681   -2.0454 C   0  0  0  0  0  0  0  0  0  0  0  0
   -1.2438    5.2936   -1.0769 C   0  0  0  0  0  0  0  0  0  0  0  0
   -0.7053    6.2803   -0.1949 N   0  0  0  0  0  4  0  0  0  0  0  0
   -1.1934    7.4154   -0.2844 O   0  0  0  0  0  0  0  0  0  0  0  0
    0.1961    5.9380    0.5790 O   0  0  0  0  0  1  0  0  0  0  0  0
   -0.7363    4.0396   -0.9751 O   0  0  0  0  0  0  0  0  0  0  0  0
   -0.2871   -2.5084    3.4199 H   0  0  0  0  0  0  0  0  0  0  0  0
    0.8652   -2.7693    4.7439 H   0  0  0  0  0  0  0  0  0  0  0  0
   -0.2179   -4.0774    4.2116 H   0  0  0  0  0  0  0  0  0  0  0  0
    2.1162   -4.4068    3.3828 H   0  0  0  0  0  0  0  0  0  0  0  0
    2.0518   -2.8650    2.5240 H   0  0  0  0  0  0  0  0  0  0  0  0
   -0.0470   -2.6297    1.1410 H   0  0  0  0  0  0  0  0  0  0  0  0
   -0.4503   -4.0998    0.2515 H   0  0  0  0  0  0  0  0  0  0  0  0
    2.3353   -2.8196    0.2290 H   0  0  0  0  0  0  0  0  0  0  0  0
    1.8628   -4.2735   -0.6225 H   0  0  0  0  0  0  0  0  0  0  0  0
    1.8003   -2.4336   -2.2070 H   0  0  0  0  0  0  0  0  0  0  0  0
    0.1301   -2.9315   -1.9127 H   0  0  0  0  0  0  0  0  0  0  0  0
    1.3797   -0.6626   -0.4322 H   0  0  0  0  0  0  0  0  0  0  0  0
   -1.6678    1.4034   -2.9397 H   0  0  0  0  0  0  0  0  0  0  0  0
   -2.9546    3.7267   -3.3698 H   0  0  0  0  0  0  0  0  0  0  0  0
   -2.7740    6.2454   -2.3317 H   0  0  0  0  0  0  0  0  0  0  0  0
  1  2  1  0
  2  3  1  0
  3  4  1  0
  4  5  1  0
  5  6  1  0
  6  7  1  0
  7  8  1  0
  8  9  2  0
  8 10  1  0
 10 11  1  0
 11 12  3  0
 10 13  2  3
 13 14  1  0
 14 15  2  0
 15 16  1  0
 16 17  2  0
 17 18  1  0
 18 19  2  0
 18 20  1  0
 17 21  1  0
 21 14  1  0
  1 22  1  0
  1 23  1  0
  1 24  1  0
  2 25  1  0
  2 26  1  0
  4 27  1  0
  4 28  1  0
  5 29  1  0
  5 30  1  0
  6 31  1  0
  6 32  1  0
  7 33  1  0
 13 34  1  0
 15 35  1  0
 16 36  1  0
M  CHG  2  18   1  20  -1
M  END
$$$$
