
     RDKit          3D

 46 47  0  0  0  0  0  0  0  0999 V2000
    8.4190   -0.3333   -0.2494 C   0  0  0  0  0  0  0  0  0  0  0  0
    7.3615   -1.0186    0.4098 O   0  0  0  0  0  0  0  0  0  0  0  0
    6.0881   -0.7181    0.0118 C   0  0  0  0  0  0  0  0  0  0  0  0
    5.0882   -1.4609    0.6428 C   0  0  0  0  0  0  0  0  0  0  0  0
    3.7425   -1.2587    0.3285 C   0  0  0  0  0  0  0  0  0  0  0  0
    3.3763   -0.3013   -0.6234 C   0  0  0  0  0  0  0  0  0  0  0  0
    1.9230   -0.0628   -0.9506 C   0  0  0  0  0  0  0  0  0  0  0  0
    1.2493    0.8116    0.1032 C   0  0  0  0  0  0  0  0  0  0  0  0
   -0.2041    1.0670   -0.2296 C   0  0  0  0  0  0  0  0  0  0  0  0
   -0.7462    0.7049   -1.2694 O   0  0  0  0  0  0  0  0  0  0  0  0
   -0.8603    1.7764    0.7607 N   0  0  0  0  0  0  0  0  0  0  0  0
   -2.2645    1.8619    0.6732 N   0  0  0  0  0  0  0  0  0  0  0  0
   -2.9776    1.5534    1.8213 C   0  0  0  0  0  0  0  0  0  0  0  0
   -2.4366    1.4451    2.9241 O   0  0  0  0  0  0  0  0  0  0  0  0
   -4.4705    1.4330    1.6343 C   0  0  0  0  0  0  0  0  0  0  0  0
   -4.7904    0.4246    0.6448 N   0  0  0  0  0  0  0  0  0  0  0  0
   -4.6209    0.7382   -0.6570 N   0  0  0  0  0  0  0  0  0  0  0  0
   -4.9262   -0.3892   -1.3089 C   0  0  0  0  0  0  0  0  0  0  0  0
   -4.8352   -0.4461   -2.7868 C   0  0  0  0  0  0  0  0  0  0  0  0
   -5.3094   -1.4147   -0.4176 C   0  0  0  0  0  0  0  0  0  0  0  0
   -5.2111   -0.8646    0.8431 C   0  0  0  0  0  0  0  0  0  0  0  0
   -5.4657   -1.4591    2.1774 C   0  0  0  0  0  0  0  0  0  0  0  0
    4.3801    0.4472   -1.2507 C   0  0  0  0  0  0  0  0  0  0  0  0
    5.7282    0.2387   -0.9373 C   0  0  0  0  0  0  0  0  0  0  0  0
    8.3728    0.7436   -0.0546 H   0  0  0  0  0  0  0  0  0  0  0  0
    9.3634   -0.7061    0.1581 H   0  0  0  0  0  0  0  0  0  0  0  0
    8.4163   -0.5415   -1.3245 H   0  0  0  0  0  0  0  0  0  0  0  0
    5.3610   -2.2081    1.3843 H   0  0  0  0  0  0  0  0  0  0  0  0
    2.9856   -1.8580    0.8289 H   0  0  0  0  0  0  0  0  0  0  0  0
    1.4093   -1.0291   -1.0317 H   0  0  0  0  0  0  0  0  0  0  0  0
    1.8376    0.4009   -1.9422 H   0  0  0  0  0  0  0  0  0  0  0  0
    1.7583    1.7797    0.1778 H   0  0  0  0  0  0  0  0  0  0  0  0
    1.2994    0.3289    1.0866 H   0  0  0  0  0  0  0  0  0  0  0  0
   -0.4908    1.7866    1.7123 H   0  0  0  0  0  0  0  0  0  0  0  0
   -2.6701    1.5937   -0.2362 H   0  0  0  0  0  0  0  0  0  0  0  0
   -4.9427    1.1637    2.5829 H   0  0  0  0  0  0  0  0  0  0  0  0
   -4.8851    2.3899    1.3010 H   0  0  0  0  0  0  0  0  0  0  0  0
   -5.0139   -1.4617   -3.1553 H   0  0  0  0  0  0  0  0  0  0  0  0
   -5.5798    0.2155   -3.2404 H   0  0  0  0  0  0  0  0  0  0  0  0
   -3.8417   -0.1338   -3.1245 H   0  0  0  0  0  0  0  0  0  0  0  0
   -5.6070   -2.4248   -0.6632 H   0  0  0  0  0  0  0  0  0  0  0  0
   -5.7364   -2.5161    2.0894 H   0  0  0  0  0  0  0  0  0  0  0  0
   -6.2903   -0.9423    2.6789 H   0  0  0  0  0  0  0  0  0  0  0  0
   -4.5737   -1.3936    2.8089 H   0  0  0  0  0  0  0  0  0  0  0  0
    4.1209    1.1978   -1.9950 H   0  0  0  0  0  0  0  0  0  0  0  0
    6.4694    0.8399   -1.4542 H   0  0  0  0  0  0  0  0  0  0  0  0
  1  2  1  0
  2  3  1  0
  3  4  2  0
  4  5  1  0
  5  6  2  0
  6  7  1  0
  7  8  1  0
  8  9  1  0
  9 10  2  0
  9 11  1  0
 11 12  1  0
 12 13  1  0
 13 14  2  0
 13 15  1  0
 15 16  1  0
 16 17  1  0
 17 18  2  0
 18 19  1  0
 18 20  1  0
 20 21  2  0
 21 22  1  0
  6 23  1  0
 23 24  2  0
 24  3  1  0
 21 16  1  0
  1 25  1  0
  1 26  1  0
  1 27  1  0
  4 28  1  0
  5 29  1  0
  7 30  1  0
  7 31  1  0
  8 32  1  0
  8 33  1  0
 11 34  1  0
 12 35  1  0
 15 36  1  0
 15 37  1  0
 19 38  1  0
 19 39  1  0
 19 40  1  0
 20 41  1  0
 22 42  1  0
 22 43  1  0
 22 44  1  0
 23 45  1  0
 24 46  1  0
M  END
$$$$
