
     RDKit          3D

 67 72  0  0  0  0  0  0  0  0999 V2000
   -4.8871   -3.7161   -2.3307 C   0  0  0  0  0  0  0  0  0  0  0  0
   -3.9760   -3.1122   -1.3033 C   0  0  0  0  0  0  0  0  0  0  0  0
   -3.9710   -3.5522    0.0346 C   0  0  0  0  0  0  0  0  0  0  0  0
   -5.0094   -4.8327    0.5645 Cl  0  0  0  0  0  0  0  0  0  0  0  0
   -3.1328   -2.9639    1.0029 C   0  0  0  0  0  0  0  0  0  0  0  0
   -2.2749   -1.9153    0.6648 C   0  0  0  0  0  0  0  0  0  0  0  0
   -2.2701   -1.4683   -0.6495 C   0  0  0  0  0  0  0  0  0  0  0  0
   -3.1228   -2.0540   -1.6005 C   0  0  0  0  0  0  0  0  0  0  0  0
   -2.9857   -1.3988   -2.8220 N   0  0  0  0  0  0  0  0  0  0  0  0
   -2.0720   -0.3453   -2.7494 C   0  0  0  0  0  0  0  0  0  0  0  0
   -1.8120    0.4046   -3.6806 O   0  0  0  0  0  0  0  0  0  0  0  0
   -1.4837   -0.3591   -1.3094 C   0  0  1  0  0  0  0  0  0  0  0  0
   -1.7244    0.8887   -0.5577 C   0  0  0  0  0  0  0  0  0  0  0  0
   -0.5223    1.4913   -0.1931 C   0  0  0  0  0  0  0  0  0  0  0  0
   -0.7890    2.6472    0.4869 C   0  0  0  0  0  0  0  0  0  0  0  0
    0.0797    3.5588    0.9196 O   0  0  0  0  0  0  0  0  0  0  0  0
   -2.1890    2.7590    0.5729 N   0  0  0  0  0  0  0  0  0  0  0  0
   -2.9039    3.8242    1.1941 C   0  0  0  0  0  0  0  0  0  0  0  0
   -4.0702    4.3261    0.6007 C   0  0  0  0  0  0  0  0  0  0  0  0
   -4.7586    5.3814    1.2012 C   0  0  0  0  0  0  0  0  0  0  0  0
   -4.2878    5.9369    2.3901 C   0  0  0  0  0  0  0  0  0  0  0  0
   -3.1291    5.4368    2.9853 C   0  0  0  0  0  0  0  0  0  0  0  0
   -2.4354    4.3816    2.3908 C   0  0  0  0  0  0  0  0  0  0  0  0
   -2.7602    1.6429   -0.0692 C   0  0  0  0  0  0  0  0  0  0  0  0
   -4.0641    1.3707   -0.1081 O   0  0  0  0  0  0  0  0  0  0  0  0
    0.6471    0.7494   -0.7061 C   0  0  1  0  0  0  0  0  0  0  0  0
    1.6975    0.4082    0.3671 C   0  0  0  0  0  0  0  0  0  0  0  0
    2.6674   -0.5822   -0.1042 N   0  0  0  0  0  0  0  0  0  0  0  0
    3.9837   -0.5079    0.3020 C   0  0  0  0  0  0  0  0  0  0  0  0
    4.4109    0.3454    1.0690 O   0  0  0  0  0  0  0  0  0  0  0  0
    4.7356   -1.4995   -0.2441 O   0  0  0  0  0  0  0  0  0  0  0  0
    6.1511   -1.6084    0.0463 C   0  0  0  0  0  0  0  0  0  0  0  0
    6.6083   -2.8606   -0.7213 C   0  0  0  0  0  0  0  0  0  0  0  0
    6.9237   -0.3954   -0.4810 C   0  0  0  0  0  0  0  0  0  0  0  0
    6.4090   -1.8375    1.5418 C   0  0  0  0  0  0  0  0  0  0  0  0
    2.1717   -1.6282   -1.0038 C   0  0  0  0  0  0  0  0  0  0  0  0
    0.6340   -1.7206   -1.0183 C   0  0  0  0  0  0  0  0  0  0  0  0
    0.0125   -0.4480   -1.3686 N   0  0  0  0  0  0  0  0  0  0  0  0
   -5.9196   -3.3969   -2.1536 H   0  0  0  0  0  0  0  0  0  0  0  0
   -4.6135   -3.4263   -3.3506 H   0  0  0  0  0  0  0  0  0  0  0  0
   -4.8363   -4.8093   -2.3007 H   0  0  0  0  0  0  0  0  0  0  0  0
   -3.1568   -3.3198    2.0319 H   0  0  0  0  0  0  0  0  0  0  0  0
   -1.6396   -1.4551    1.4165 H   0  0  0  0  0  0  0  0  0  0  0  0
   -3.5096   -1.5815   -3.6644 H   0  0  0  0  0  0  0  0  0  0  0  0
   -0.3689    4.4218    0.9827 H   0  0  0  0  0  0  0  0  0  0  0  0
   -4.4299    3.9478   -0.3545 H   0  0  0  0  0  0  0  0  0  0  0  0
   -5.6540    5.7831    0.7295 H   0  0  0  0  0  0  0  0  0  0  0  0
   -4.8218    6.7631    2.8527 H   0  0  0  0  0  0  0  0  0  0  0  0
   -2.7696    5.8675    3.9174 H   0  0  0  0  0  0  0  0  0  0  0  0
   -1.5585    3.9826    2.8993 H   0  0  0  0  0  0  0  0  0  0  0  0
   -4.5170    1.8679    0.5960 H   0  0  0  0  0  0  0  0  0  0  0  0
    1.1287    1.3307   -1.5026 H   0  0  0  0  0  0  0  0  0  0  0  0
    1.2189   -0.0212    1.2565 H   0  0  0  0  0  0  0  0  0  0  0  0
    2.2138    1.3180    0.6941 H   0  0  0  0  0  0  0  0  0  0  0  0
    6.4177   -2.7520   -1.7955 H   0  0  0  0  0  0  0  0  0  0  0  0
    6.0485   -3.7451   -0.3895 H   0  0  0  0  0  0  0  0  0  0  0  0
    7.6752   -3.0550   -0.5750 H   0  0  0  0  0  0  0  0  0  0  0  0
    6.6945    0.5109    0.0867 H   0  0  0  0  0  0  0  0  0  0  0  0
    8.0068   -0.5559   -0.4230 H   0  0  0  0  0  0  0  0  0  0  0  0
    6.6640   -0.1868   -1.5245 H   0  0  0  0  0  0  0  0  0  0  0  0
    6.1812   -0.9498    2.1377 H   0  0  0  0  0  0  0  0  0  0  0  0
    5.7795   -2.6474    1.9317 H   0  0  0  0  0  0  0  0  0  0  0  0
    7.4594   -2.0923    1.7300 H   0  0  0  0  0  0  0  0  0  0  0  0
    2.5926   -2.5933   -0.6930 H   0  0  0  0  0  0  0  0  0  0  0  0
    2.5534   -1.4068   -2.0096 H   0  0  0  0  0  0  0  0  0  0  0  0
    0.3255   -2.0549   -0.0238 H   0  0  0  0  0  0  0  0  0  0  0  0
    0.3344   -2.4911   -1.7375 H   0  0  0  0  0  0  0  0  0  0  0  0
  1  2  1  0
  2  3  2  0
  3  4  1  0
  3  5  1  0
  5  6  2  0
  6  7  1  0
  7  8  2  0
  8  9  1  0
  9 10  1  0
 10 11  2  0
 10 12  1  0
 12 13  1  0
 13 14  1  0
 14 15  2  0
 15 16  1  0
 15 17  1  0
 17 18  1  0
 18 19  2  0
 19 20  1  0
 20 21  2  0
 21 22  1  0
 22 23  2  0
 17 24  1  0
 24 25  1  0
 14 26  1  0
 26 27  1  0
 27 28  1  0
 28 29  1  0
 29 30  2  0
 29 31  1  0
 31 32  1  0
 32 33  1  0
 32 34  1  0
 32 35  1  0
 28 36  1  0
 36 37  1  0
 37 38  1  0
  8  2  1  0
 12 38  1  6
 12  7  1  0
 24 13  2  0
 38 26  1  0
 23 18  1  0
  1 39  1  0
  1 40  1  0
  1 41  1  0
  5 42  1  0
  6 43  1  0
  9 44  1  0
 16 45  1  0
 19 46  1  0
 20 47  1  0
 21 48  1  0
 22 49  1  0
 23 50  1  0
 25 51  1  0
 26 52  1  6
 27 53  1  0
 27 54  1  0
 33 55  1  0
 33 56  1  0
 33 57  1  0
 34 58  1  0
 34 59  1  0
 34 60  1  0
 35 61  1  0
 35 62  1  0
 35 63  1  0
 36 64  1  0
 36 65  1  0
 37 66  1  0
 37 67  1  0
M  END
$$$$
