
     RDKit          3D

 67 72  0  0  0  0  0  0  0  0999 V2000
    3.0623    1.4222   -1.4877 O   0  0  0  0  0  0  0  0  0  0  0  0
    2.5833    1.1826   -0.3754 C   0  0  0  0  0  0  0  0  0  0  0  0
    3.4856    1.1444    0.8694 C   0  0  0  0  0  0  0  0  0  0  0  0
    4.0139   -0.2798    1.1378 C   0  0  0  0  0  0  0  0  0  0  0  0
    5.0693   -0.7446    0.1633 C   0  0  0  0  0  0  0  0  0  0  0  0
    4.7862   -1.7687   -0.7498 C   0  0  0  0  0  0  0  0  0  0  0  0
    5.7583   -2.2047   -1.6507 C   0  0  0  0  0  0  0  0  0  0  0  0
    7.0246   -1.6241   -1.6451 C   0  0  0  0  0  0  0  0  0  0  0  0
    7.3200   -0.6090   -0.7372 C   0  0  0  0  0  0  0  0  0  0  0  0
    6.3485   -0.1715    0.1646 C   0  0  0  0  0  0  0  0  0  0  0  0
    2.7737    1.6546    2.0414 N   0  0  0  0  0  0  0  0  0  0  0  0
    1.5178    1.0816    2.2346 C   0  0  0  0  0  0  0  0  0  0  0  0
    1.1911    0.9165    3.5235 N   0  0  0  0  0  0  0  0  0  0  0  0
   -0.0272    0.4379    3.7521 C   0  0  0  0  0  0  0  0  0  0  0  0
   -0.9479    0.1762    2.8219 N   0  0  0  0  0  0  0  0  0  0  0  0
   -0.6235    0.3954    1.5293 C   0  0  0  0  0  0  0  0  0  0  0  0
   -1.6820    0.3119    0.6081 N   0  0  0  0  0  0  0  0  0  0  0  0
   -2.7542   -0.6618    0.9533 C   0  0  0  0  0  0  0  0  0  0  0  0
   -3.8387   -0.1250    1.9210 C   0  0  0  0  0  0  0  0  0  0  0  0
   -4.3522    1.2032    1.5172 N   0  0  0  0  0  0  0  0  0  0  0  0
   -5.4368    1.3205    0.6452 C   0  0  0  0  0  0  0  0  0  0  0  0
   -6.0787    2.5620    0.4846 C   0  0  0  0  0  0  0  0  0  0  0  0
   -7.1732    2.7310   -0.3714 C   0  0  0  0  0  0  0  0  0  0  0  0
   -7.6670    1.6487   -1.0877 C   0  0  0  0  0  0  0  0  0  0  0  0
   -7.0727    0.4024   -0.9331 C   0  0  0  0  0  0  0  0  0  0  0  0
   -5.9795    0.2430   -0.0705 C   0  0  0  0  0  0  0  0  0  0  0  0
   -3.2460    2.1751    1.3406 C   0  0  0  0  0  0  0  0  0  0  0  0
   -2.2313    1.6655    0.2906 C   0  0  0  0  0  0  0  0  0  0  0  0
    0.6798    0.7684    1.1527 C   0  0  0  0  0  0  0  0  0  0  0  0
    1.2297    0.8507   -0.1852 N   0  0  0  0  0  0  0  0  0  0  0  0
    0.5102    0.4604   -1.3906 C   0  0  0  0  0  0  0  0  0  0  0  0
    0.8449   -0.9510   -1.8413 C   0  0  0  0  0  0  0  0  0  0  0  0
    0.3226   -2.0682   -1.1747 C   0  0  0  0  0  0  0  0  0  0  0  0
    0.6450   -3.3617   -1.5931 C   0  0  0  0  0  0  0  0  0  0  0  0
    1.4920   -3.5472   -2.6830 C   0  0  0  0  0  0  0  0  0  0  0  0
    1.8982   -5.1399   -3.1893 Cl  0  0  0  0  0  0  0  0  0  0  0  0
    2.0203   -2.4507   -3.3579 C   0  0  0  0  0  0  0  0  0  0  0  0
    1.7002   -1.1583   -2.9360 C   0  0  0  0  0  0  0  0  0  0  0  0
    4.3176    1.8340    0.6841 H   0  0  0  0  0  0  0  0  0  0  0  0
    4.4514   -0.3308    2.1445 H   0  0  0  0  0  0  0  0  0  0  0  0
    3.1861   -1.0010    1.1452 H   0  0  0  0  0  0  0  0  0  0  0  0
    3.8046   -2.2362   -0.7685 H   0  0  0  0  0  0  0  0  0  0  0  0
    5.5255   -2.9976   -2.3568 H   0  0  0  0  0  0  0  0  0  0  0  0
    7.7810   -1.9632   -2.3476 H   0  0  0  0  0  0  0  0  0  0  0  0
    8.3087   -0.1573   -0.7318 H   0  0  0  0  0  0  0  0  0  0  0  0
    6.6013    0.6180    0.8684 H   0  0  0  0  0  0  0  0  0  0  0  0
    3.2788    1.6455    2.9224 H   0  0  0  0  0  0  0  0  0  0  0  0
   -0.3054    0.2623    4.7851 H   0  0  0  0  0  0  0  0  0  0  0  0
   -3.2323   -0.9423    0.0075 H   0  0  0  0  0  0  0  0  0  0  0  0
   -2.3232   -1.5893    1.3514 H   0  0  0  0  0  0  0  0  0  0  0  0
   -4.6486   -0.8557    2.0308 H   0  0  0  0  0  0  0  0  0  0  0  0
   -3.4209   -0.0221    2.9285 H   0  0  0  0  0  0  0  0  0  0  0  0
   -5.7519    3.4224    1.0634 H   0  0  0  0  0  0  0  0  0  0  0  0
   -7.6422    3.7069   -0.4632 H   0  0  0  0  0  0  0  0  0  0  0  0
   -8.5174    1.7718   -1.7520 H   0  0  0  0  0  0  0  0  0  0  0  0
   -7.4581   -0.4543   -1.4803 H   0  0  0  0  0  0  0  0  0  0  0  0
   -5.5612   -0.7544    0.0085 H   0  0  0  0  0  0  0  0  0  0  0  0
   -3.5952    3.1708    1.0488 H   0  0  0  0  0  0  0  0  0  0  0  0
   -2.7459    2.3065    2.3077 H   0  0  0  0  0  0  0  0  0  0  0  0
   -1.4282    2.4032    0.1692 H   0  0  0  0  0  0  0  0  0  0  0  0
   -2.7322    1.5952   -0.6833 H   0  0  0  0  0  0  0  0  0  0  0  0
   -0.5660    0.5771   -1.3303 H   0  0  0  0  0  0  0  0  0  0  0  0
    0.7894    1.1589   -2.1917 H   0  0  0  0  0  0  0  0  0  0  0  0
   -0.3403   -1.9406   -0.3241 H   0  0  0  0  0  0  0  0  0  0  0  0
    0.2325   -4.2169   -1.0649 H   0  0  0  0  0  0  0  0  0  0  0  0
    2.6882   -2.5903   -4.2037 H   0  0  0  0  0  0  0  0  0  0  0  0
    2.1375   -0.3082   -3.4589 H   0  0  0  0  0  0  0  0  0  0  0  0
  1  2  2  0
  2  3  1  0
  3  4  1  0
  4  5  1  0
  5  6  2  0
  6  7  1  0
  7  8  2  0
  8  9  1  0
  9 10  2  0
  3 11  1  0
 11 12  1  0
 12 13  2  0
 13 14  1  0
 14 15  2  0
 15 16  1  0
 16 17  1  0
 17 18  1  0
 18 19  1  0
 19 20  1  0
 20 21  1  0
 21 22  2  0
 22 23  1  0
 23 24  2  0
 24 25  1  0
 25 26  2  0
 20 27  1  0
 27 28  1  0
 16 29  2  0
 29 30  1  0
 30 31  1  0
 31 32  1  0
 32 33  2  0
 33 34  1  0
 34 35  2  0
 35 36  1  0
 35 37  1  0
 37 38  2  0
 30  2  1  0
 38 32  1  0
 10  5  1  0
 29 12  1  0
 28 17  1  0
 26 21  1  0
  3 39  1  0
  4 40  1  0
  4 41  1  0
  6 42  1  0
  7 43  1  0
  8 44  1  0
  9 45  1  0
 10 46  1  0
 11 47  1  0
 14 48  1  0
 18 49  1  0
 18 50  1  0
 19 51  1  0
 19 52  1  0
 22 53  1  0
 23 54  1  0
 24 55  1  0
 25 56  1  0
 26 57  1  0
 27 58  1  0
 27 59  1  0
 28 60  1  0
 28 61  1  0
 31 62  1  0
 31 63  1  0
 33 64  1  0
 34 65  1  0
 37 66  1  0
 38 67  1  0
M  END
$$$$
