
     RDKit          3D

 63 67  0  0  0  0  0  0  0  0999 V2000
    7.9704   -0.3656   -3.4152 C   0  0  0  0  0  0  0  0  0  0  0  0
    7.7551    0.8247   -2.4985 C   0  0  0  0  0  0  0  0  0  0  0  0
    6.7146    0.5400   -1.5546 O   0  0  0  0  0  0  0  0  0  0  0  0
    5.4426    0.8143   -1.9679 C   0  0  0  0  0  0  0  0  0  0  0  0
    5.1516    1.2632   -3.0697 O   0  0  0  0  0  0  0  0  0  0  0  0
    4.4469    0.5084   -0.9478 C   0  0  0  0  0  0  0  0  0  0  0  0
    3.0362    0.6827   -1.0454 C   0  0  0  0  0  0  0  0  0  0  0  0
    2.4648    0.2580    0.1395 C   0  0  0  0  0  0  0  0  0  0  0  0
    1.0794    0.2209    0.5818 C   0  0  0  0  0  0  0  0  0  0  0  0
    0.0255    0.5712   -0.2607 N   0  0  0  0  0  0  0  0  0  0  0  0
   -1.2460    1.0114    0.3497 C   0  0  0  0  0  0  0  0  0  0  0  0
   -2.1991   -0.1777    0.6190 C   0  0  0  0  0  0  0  0  0  0  0  0
   -2.4545   -1.0715   -0.5430 N   0  0  0  0  0  0  0  0  0  0  0  0
   -3.3356   -0.4526   -1.5503 C   0  0  0  0  0  0  0  0  0  0  0  0
   -4.8115   -0.8861   -1.4085 C   0  0  0  0  0  0  0  0  0  0  0  0
   -5.6128   -0.1732   -0.3383 C   0  0  0  0  0  0  0  0  0  0  0  0
   -5.6972   -0.7641    0.9345 C   0  0  0  0  0  0  0  0  0  0  0  0
   -6.4173   -0.1587    1.9632 C   0  0  0  0  0  0  0  0  0  0  0  0
   -7.0714    1.0453    1.7350 C   0  0  0  0  0  0  0  0  0  0  0  0
   -7.0088    1.6419    0.4777 C   0  0  0  0  0  0  0  0  0  0  0  0
   -6.2882    1.0481   -0.5751 C   0  0  0  0  0  0  0  0  0  0  0  0
   -6.2989    1.7188   -1.9321 C   0  0  0  0  0  0  0  0  0  0  0  0
   -6.9896    1.0069   -2.8672 F   0  0  0  0  0  0  0  0  0  0  0  0
   -6.8656    2.9581   -1.9259 F   0  0  0  0  0  0  0  0  0  0  0  0
   -5.0488    1.8980   -2.4495 F   0  0  0  0  0  0  0  0  0  0  0  0
   -1.1408   -1.4487   -1.1211 C   0  0  0  0  0  0  0  0  0  0  0  0
   -0.2105   -0.2579   -1.4586 C   0  0  0  0  0  0  0  0  0  0  0  0
    0.8288   -0.1393    1.8150 N   0  0  0  0  0  0  0  0  0  0  0  0
    1.8743   -0.5243    2.6776 C   0  0  0  0  0  0  0  0  0  0  0  0
    1.5502   -0.9186    3.9772 C   0  0  0  0  0  0  0  0  0  0  0  0
    2.5484   -1.3163    4.8717 C   0  0  0  0  0  0  0  0  0  0  0  0
    3.8867   -1.3248    4.4719 C   0  0  0  0  0  0  0  0  0  0  0  0
    4.2334   -0.9361    3.1775 C   0  0  0  0  0  0  0  0  0  0  0  0
    3.2237   -0.5399    2.2940 C   0  0  0  0  0  0  0  0  0  0  0  0
    3.4848   -0.1234    0.9786 N   0  0  0  0  0  0  0  0  0  0  0  0
    4.6833   -0.0028    0.3191 C   0  0  0  0  0  0  0  0  0  0  0  0
    8.1870   -1.2672   -2.8306 H   0  0  0  0  0  0  0  0  0  0  0  0
    8.8015   -0.1810   -4.1027 H   0  0  0  0  0  0  0  0  0  0  0  0
    7.0713   -0.5764   -4.0034 H   0  0  0  0  0  0  0  0  0  0  0  0
    7.5411    1.7368   -3.0687 H   0  0  0  0  0  0  0  0  0  0  0  0
    8.6672    1.0133   -1.9210 H   0  0  0  0  0  0  0  0  0  0  0  0
    2.5020    1.0839   -1.8980 H   0  0  0  0  0  0  0  0  0  0  0  0
   -1.0568    1.5603    1.2805 H   0  0  0  0  0  0  0  0  0  0  0  0
   -1.7216    1.7303   -0.3276 H   0  0  0  0  0  0  0  0  0  0  0  0
   -3.1348    0.2122    1.0261 H   0  0  0  0  0  0  0  0  0  0  0  0
   -1.7757   -0.7990    1.4177 H   0  0  0  0  0  0  0  0  0  0  0  0
   -3.0333   -0.7969   -2.5473 H   0  0  0  0  0  0  0  0  0  0  0  0
   -3.2406    0.6373   -1.5713 H   0  0  0  0  0  0  0  0  0  0  0  0
   -5.3118   -0.7404   -2.3738 H   0  0  0  0  0  0  0  0  0  0  0  0
   -4.8603   -1.9714   -1.2424 H   0  0  0  0  0  0  0  0  0  0  0  0
   -5.1832   -1.7056    1.1298 H   0  0  0  0  0  0  0  0  0  0  0  0
   -6.4688   -0.6310    2.9398 H   0  0  0  0  0  0  0  0  0  0  0  0
   -7.6380    1.5191    2.5320 H   0  0  0  0  0  0  0  0  0  0  0  0
   -7.5407    2.5797    0.3188 H   0  0  0  0  0  0  0  0  0  0  0  0
   -0.6334   -2.1019   -0.3985 H   0  0  0  0  0  0  0  0  0  0  0  0
   -1.2865   -2.0676   -2.0161 H   0  0  0  0  0  0  0  0  0  0  0  0
   -0.6603    0.3663   -2.2396 H   0  0  0  0  0  0  0  0  0  0  0  0
    0.7271   -0.6452   -1.8702 H   0  0  0  0  0  0  0  0  0  0  0  0
    0.5089   -0.9147    4.2911 H   0  0  0  0  0  0  0  0  0  0  0  0
    2.2776   -1.6181    5.8809 H   0  0  0  0  0  0  0  0  0  0  0  0
    4.6593   -1.6346    5.1736 H   0  0  0  0  0  0  0  0  0  0  0  0
    5.2811   -0.9499    2.8914 H   0  0  0  0  0  0  0  0  0  0  0  0
    5.6180   -0.2687    0.7919 H   0  0  0  0  0  0  0  0  0  0  0  0
  1  2  1  0
  2  3  1  0
  3  4  1  0
  4  5  2  0
  4  6  1  0
  6  7  1  0
  7  8  2  0
  8  9  1  0
  9 10  1  0
 10 11  1  0
 11 12  1  0
 12 13  1  0
 13 14  1  0
 14 15  1  0
 15 16  1  0
 16 17  2  0
 17 18  1  0
 18 19  2  0
 19 20  1  0
 20 21  2  0
 21 22  1  0
 22 23  1  0
 22 24  1  0
 22 25  1  0
 13 26  1  0
 26 27  1  0
  9 28  2  0
 28 29  1  0
 29 30  2  0
 30 31  1  0
 31 32  2  0
 32 33  1  0
 33 34  2  0
 34 35  1  0
 35 36  1  0
 36  6  2  0
 35  8  1  0
 27 10  1  0
 34 29  1  0
 21 16  1  0
  1 37  1  0
  1 38  1  0
  1 39  1  0
  2 40  1  0
  2 41  1  0
  7 42  1  0
 11 43  1  0
 11 44  1  0
 12 45  1  0
 12 46  1  0
 14 47  1  0
 14 48  1  0
 15 49  1  0
 15 50  1  0
 17 51  1  0
 18 52  1  0
 19 53  1  0
 20 54  1  0
 26 55  1  0
 26 56  1  0
 27 57  1  0
 27 58  1  0
 30 59  1  0
 31 60  1  0
 32 61  1  0
 33 62  1  0
 36 63  1  0
M  END
$$$$
