
     RDKit          3D

 54 57  0  0  0  0  0  0  0  0999 V2000
    6.4706   -0.9923    3.3501 C   0  0  0  0  0  0  0  0  0  0  0  0
    6.9300   -1.0578    1.8913 C   0  0  0  0  0  0  0  0  0  0  0  0
    8.1077   -0.1110    1.6475 C   0  0  0  0  0  0  0  0  0  0  0  0
    5.7859   -0.7819    0.9326 C   0  0  0  0  0  0  0  0  0  0  0  0
    5.3848   -1.7685    0.0221 C   0  0  0  0  0  0  0  0  0  0  0  0
    4.3324   -1.5399   -0.8733 C   0  0  0  0  0  0  0  0  0  0  0  0
    3.6590   -0.3201   -0.8757 C   0  0  0  0  0  0  0  0  0  0  0  0
    2.5931   -0.0068   -1.7406 N   0  0  0  0  0  0  0  0  0  0  0  0
    1.9885   -0.8245   -2.6790 C   0  0  0  0  0  0  0  0  0  0  0  0
    2.2771   -1.9920   -2.9269 O   0  0  0  0  0  0  0  0  0  0  0  0
    0.8654   -0.1174   -3.4488 C   0  0  0  0  0  0  0  0  0  0  0  0
   -0.3456    0.0364   -2.7052 O   0  0  0  0  0  0  0  0  0  0  0  0
   -0.3628    1.0635   -1.8254 C   0  0  0  0  0  0  0  0  0  0  0  0
    0.5679    1.8255   -1.6102 O   0  0  0  0  0  0  0  0  0  0  0  0
   -1.6742    1.1419   -1.1270 C   0  0  0  0  0  0  0  0  0  0  0  0
   -1.8526    2.1383   -0.1602 C   0  0  0  0  0  0  0  0  0  0  0  0
   -3.0692    2.2523    0.5236 C   0  0  0  0  0  0  0  0  0  0  0  0
   -4.1320    1.3749    0.2553 C   0  0  0  0  0  0  0  0  0  0  0  0
   -3.9424    0.3932   -0.7065 C   0  0  0  0  0  0  0  0  0  0  0  0
   -2.7275    0.2635   -1.4002 C   0  0  0  0  0  0  0  0  0  0  0  0
   -5.2294   -0.7255   -1.0956 S   0  0  0  0  0  6  0  0  0  0  0  0
   -5.6314   -0.4178   -2.4532 O   0  0  0  0  0  0  0  0  0  0  0  0
   -4.7495   -2.0389   -0.7170 O   0  0  0  0  0  0  0  0  0  0  0  0
   -6.6066   -0.3841   -0.0765 C   0  0  0  0  0  0  0  0  0  0  0  0
   -7.7415   -1.1964   -0.2083 C   0  0  0  0  0  0  0  0  0  0  0  0
   -8.8593   -0.9539    0.5862 C   0  0  0  0  0  0  0  0  0  0  0  0
   -8.8400    0.0931    1.5044 C   0  0  0  0  0  0  0  0  0  0  0  0
   -7.7023    0.8963    1.6275 C   0  0  0  0  0  0  0  0  0  0  0  0
   -6.5674    0.6630    0.8336 C   0  0  0  0  0  0  0  0  0  0  0  0
   -5.3934    1.5490    1.0136 C   0  0  0  0  0  0  0  0  0  0  0  0
   -5.4643    2.4666    1.8271 O   0  0  0  0  0  0  0  0  0  0  0  0
    4.0560    0.6699    0.0297 C   0  0  0  0  0  0  0  0  0  0  0  0
    5.1071    0.4429    0.9242 C   0  0  0  0  0  0  0  0  0  0  0  0
    7.2866   -1.2760    4.0235 H   0  0  0  0  0  0  0  0  0  0  0  0
    6.1424    0.0142    3.6318 H   0  0  0  0  0  0  0  0  0  0  0  0
    5.6349   -1.6781    3.5285 H   0  0  0  0  0  0  0  0  0  0  0  0
    7.2950   -2.0785    1.7148 H   0  0  0  0  0  0  0  0  0  0  0  0
    8.9543   -0.3766    2.2899 H   0  0  0  0  0  0  0  0  0  0  0  0
    7.8456    0.9317    1.8574 H   0  0  0  0  0  0  0  0  0  0  0  0
    8.4461   -0.1670    0.6068 H   0  0  0  0  0  0  0  0  0  0  0  0
    5.8878   -2.7331   -0.0034 H   0  0  0  0  0  0  0  0  0  0  0  0
    4.0669   -2.3401   -1.5568 H   0  0  0  0  0  0  0  0  0  0  0  0
    2.1811    0.9197   -1.6223 H   0  0  0  0  0  0  0  0  0  0  0  0
    1.2218    0.8476   -3.8306 H   0  0  0  0  0  0  0  0  0  0  0  0
    0.6287   -0.7259   -4.3289 H   0  0  0  0  0  0  0  0  0  0  0  0
   -1.0470    2.8347    0.0705 H   0  0  0  0  0  0  0  0  0  0  0  0
   -3.1786    3.0377    1.2722 H   0  0  0  0  0  0  0  0  0  0  0  0
   -2.6199   -0.5230   -2.1465 H   0  0  0  0  0  0  0  0  0  0  0  0
   -7.7560   -2.0148   -0.9265 H   0  0  0  0  0  0  0  0  0  0  0  0
   -9.7442   -1.5794    0.4904 H   0  0  0  0  0  0  0  0  0  0  0  0
   -9.7104    0.2873    2.1276 H   0  0  0  0  0  0  0  0  0  0  0  0
   -7.7100    1.7095    2.3530 H   0  0  0  0  0  0  0  0  0  0  0  0
    3.5524    1.6333    0.0537 H   0  0  0  0  0  0  0  0  0  0  0  0
    5.3884    1.2350    1.6141 H   0  0  0  0  0  0  0  0  0  0  0  0
  1  2  1  0
  2  3  1  0
  2  4  1  0
  4  5  2  0
  5  6  1  0
  6  7  2  0
  7  8  1  0
  8  9  1  0
  9 10  2  0
  9 11  1  0
 11 12  1  0
 12 13  1  0
 13 14  2  0
 13 15  1  0
 15 16  2  0
 16 17  1  0
 17 18  2  0
 18 19  1  0
 19 20  2  0
 19 21  1  0
 21 22  2  0
 21 23  2  0
 21 24  1  0
 24 25  2  0
 25 26  1  0
 26 27  2  0
 27 28  1  0
 28 29  2  0
 29 30  1  0
 30 31  2  0
  7 32  1  0
 32 33  2  0
 33  4  1  0
 20 15  1  0
 29 24  1  0
 30 18  1  0
  1 34  1  0
  1 35  1  0
  1 36  1  0
  2 37  1  0
  3 38  1  0
  3 39  1  0
  3 40  1  0
  5 41  1  0
  6 42  1  0
  8 43  1  0
 11 44  1  0
 11 45  1  0
 16 46  1  0
 17 47  1  0
 20 48  1  0
 25 49  1  0
 26 50  1  0
 27 51  1  0
 28 52  1  0
 32 53  1  0
 33 54  1  0
M  END
$$$$
