
     RDKit          3D

 51 53  0  0  0  0  0  0  0  0999 V2000
    8.4557   -2.3274   -0.5453 C   0  0  0  0  0  0  0  0  0  0  0  0
    8.8936   -0.9810   -0.4044 O   0  0  0  0  0  0  0  0  0  0  0  0
    7.9233   -0.0233   -0.2810 C   0  0  0  0  0  0  0  0  0  0  0  0
    8.4092    1.2801   -0.1605 C   0  0  0  0  0  0  0  0  0  0  0  0
    7.5303    2.3523   -0.0280 C   0  0  0  0  0  0  0  0  0  0  0  0
    6.1550    2.1228   -0.0152 C   0  0  0  0  0  0  0  0  0  0  0  0
    5.6511    0.8222   -0.1345 C   0  0  0  0  0  0  0  0  0  0  0  0
    4.2527    0.6750   -0.1118 N   0  0  0  0  0  0  0  0  0  0  0  0
    3.5179   -0.4875   -0.2145 C   0  0  0  0  0  0  0  0  0  0  0  0
    3.9044   -1.6397   -0.3502 O   0  0  0  0  0  0  0  0  0  0  0  0
    2.0014   -0.2202   -0.1421 C   0  0  0  0  0  0  0  0  0  0  0  0
    1.6101    0.9350   -0.0325 O   0  0  0  0  0  0  0  0  0  0  0  0
    1.2620   -1.3865   -0.2275 N   0  0  0  0  0  0  0  0  0  0  0  0
   -0.1001   -1.5068   -0.3267 N   0  0  0  0  0  0  0  0  0  0  0  0
   -0.8602   -0.5443    0.0858 C   0  0  0  0  0  0  0  0  0  0  0  0
   -2.2997   -0.6891   -0.0615 C   0  0  0  0  0  0  0  0  0  0  0  0
   -3.0015   -1.7965   -0.5937 C   0  0  0  0  0  0  0  0  0  0  0  0
   -4.3547   -1.5318   -0.5349 C   0  0  0  0  0  0  0  0  0  0  0  0
   -5.4619   -2.4641   -0.8940 C   0  0  0  0  0  0  0  0  0  0  0  0
   -4.5205   -0.2662    0.0188 N   0  0  0  0  0  0  0  0  0  0  0  0
   -5.7678    0.3724    0.2843 C   0  0  0  0  0  0  0  0  0  0  0  0
   -6.7840    0.3629   -0.6776 C   0  0  0  0  0  0  0  0  0  0  0  0
   -8.0037    0.9915   -0.4116 C   0  0  0  0  0  0  0  0  0  0  0  0
   -8.2168    1.6287    0.8141 C   0  0  0  0  0  0  0  0  0  0  0  0
   -9.7481    2.3854    1.0711 Cl  0  0  0  0  0  0  0  0  0  0  0  0
   -7.2031    1.6366    1.7783 C   0  0  0  0  0  0  0  0  0  0  0  0
   -7.3970    2.3965    3.3185 Cl  0  0  0  0  0  0  0  0  0  0  0  0
   -5.9801    1.0098    1.5138 C   0  0  0  0  0  0  0  0  0  0  0  0
   -3.2543    0.2630    0.2819 C   0  0  0  0  0  0  0  0  0  0  0  0
   -3.0227    1.6599    0.7664 C   0  0  0  0  0  0  0  0  0  0  0  0
    6.5427   -0.2484   -0.2667 C   0  0  0  0  0  0  0  0  0  0  0  0
    9.3443   -2.9591   -0.6403 H   0  0  0  0  0  0  0  0  0  0  0  0
    7.9058   -2.6585    0.3419 H   0  0  0  0  0  0  0  0  0  0  0  0
    7.8583   -2.4557   -1.4541 H   0  0  0  0  0  0  0  0  0  0  0  0
    9.4819    1.4579   -0.1708 H   0  0  0  0  0  0  0  0  0  0  0  0
    7.9175    3.3634    0.0649 H   0  0  0  0  0  0  0  0  0  0  0  0
    5.4862    2.9737    0.0893 H   0  0  0  0  0  0  0  0  0  0  0  0
    3.6917    1.5191   -0.0131 H   0  0  0  0  0  0  0  0  0  0  0  0
    1.7854   -2.2370   -0.4412 H   0  0  0  0  0  0  0  0  0  0  0  0
   -0.4969    0.3720    0.5725 H   0  0  0  0  0  0  0  0  0  0  0  0
   -2.5566   -2.7148   -0.9596 H   0  0  0  0  0  0  0  0  0  0  0  0
   -5.0981   -3.4975   -0.9170 H   0  0  0  0  0  0  0  0  0  0  0  0
   -5.8549   -2.2348   -1.8887 H   0  0  0  0  0  0  0  0  0  0  0  0
   -6.2761   -2.4292   -0.1638 H   0  0  0  0  0  0  0  0  0  0  0  0
   -6.6327   -0.0878   -1.6555 H   0  0  0  0  0  0  0  0  0  0  0  0
   -8.7828    0.9881   -1.1710 H   0  0  0  0  0  0  0  0  0  0  0  0
   -5.2178    0.9901    2.2887 H   0  0  0  0  0  0  0  0  0  0  0  0
   -2.0664    2.0466    0.3993 H   0  0  0  0  0  0  0  0  0  0  0  0
   -2.9961    1.6865    1.8598 H   0  0  0  0  0  0  0  0  0  0  0  0
   -3.7889    2.3528    0.4065 H   0  0  0  0  0  0  0  0  0  0  0  0
    6.1629   -1.2574   -0.3577 H   0  0  0  0  0  0  0  0  0  0  0  0
  1  2  1  0
  2  3  1  0
  3  4  2  0
  4  5  1  0
  5  6  2  0
  6  7  1  0
  7  8  1  0
  8  9  1  0
  9 10  2  0
  9 11  1  0
 11 12  2  0
 11 13  1  0
 13 14  1  0
 14 15  2  3
 15 16  1  0
 16 17  1  0
 17 18  2  0
 18 19  1  0
 18 20  1  0
 20 21  1  0
 21 22  2  0
 22 23  1  0
 23 24  2  0
 24 25  1  0
 24 26  1  0
 26 27  1  0
 26 28  2  0
 20 29  1  0
 29 30  1  0
  7 31  2  0
 31  3  1  0
 29 16  2  0
 28 21  1  0
  1 32  1  0
  1 33  1  0
  1 34  1  0
  4 35  1  0
  5 36  1  0
  6 37  1  0
  8 38  1  0
 13 39  1  0
 15 40  1  0
 17 41  1  0
 19 42  1  0
 19 43  1  0
 19 44  1  0
 22 45  1  0
 23 46  1  0
 28 47  1  0
 30 48  1  0
 30 49  1  0
 30 50  1  0
 31 51  1  0
M  END
$$$$
