
     RDKit          3D

 37 39  0  0  0  0  0  0  0  0999 V2000
   -2.4067   -0.9831   -1.6336 O   0  0  0  0  0  0  0  0  0  0  0  0
   -2.9946   -0.6805   -0.6000 C   0  0  0  0  0  0  0  0  0  0  0  0
   -2.3869   -0.6504    0.6451 N   0  0  0  0  0  0  0  0  0  0  0  0
   -0.9835   -0.7644    0.6488 N   0  0  0  0  0  0  0  0  0  0  0  0
   -0.2239    0.3838    0.5136 C   0  0  0  0  0  0  0  0  0  0  0  0
   -0.6444    1.5337    0.5051 O   0  0  0  0  0  0  0  0  0  0  0  0
    1.2138    0.0058    0.4442 C   0  0  0  0  0  0  0  0  0  0  0  0
    2.1740    0.9277    0.2919 C   0  0  0  0  0  0  0  0  0  0  0  0
    3.6135    0.6603    0.2235 C   0  0  0  0  0  0  0  0  0  0  0  0
    4.4430    1.0827    1.2745 C   0  0  0  0  0  0  0  0  0  0  0  0
    5.8219    0.8501    1.2315 C   0  0  0  0  0  0  0  0  0  0  0  0
    6.3637    0.1999    0.1301 C   0  0  0  0  0  0  0  0  0  0  0  0
    7.7028   -0.0565    0.0278 O   0  0  0  0  0  0  0  0  0  0  0  0
    5.5436   -0.2122   -0.9174 C   0  0  0  0  0  0  0  0  0  0  0  0
    6.0873   -0.8454   -1.9987 O   0  0  0  0  0  0  0  0  0  0  0  0
    4.1742    0.0128   -0.8833 C   0  0  0  0  0  0  0  0  0  0  0  0
    1.3978   -1.7011    0.6199 S   0  0  0  0  0  0  0  0  0  0  0  0
   -0.3381   -1.9795    0.7491 C   0  0  0  0  0  0  0  0  0  0  0  0
   -1.0099   -3.4849    1.0062 S   0  0  0  0  0  0  0  0  0  0  0  0
   -4.4255   -0.2741   -0.6336 C   0  0  0  0  0  0  0  0  0  0  0  0
   -5.2687   -0.4413    0.4733 C   0  0  0  0  0  0  0  0  0  0  0  0
   -6.6059   -0.0444    0.3965 C   0  0  0  0  0  0  0  0  0  0  0  0
   -7.1045    0.5116   -0.7817 C   0  0  0  0  0  0  0  0  0  0  0  0
   -6.2724    0.6652   -1.8900 C   0  0  0  0  0  0  0  0  0  0  0  0
   -4.9361    0.2689   -1.8191 C   0  0  0  0  0  0  0  0  0  0  0  0
   -2.7615   -0.0170    1.3444 H   0  0  0  0  0  0  0  0  0  0  0  0
    1.9060    1.9807    0.2174 H   0  0  0  0  0  0  0  0  0  0  0  0
    4.0185    1.5927    2.1369 H   0  0  0  0  0  0  0  0  0  0  0  0
    6.4439    1.1813    2.0566 H   0  0  0  0  0  0  0  0  0  0  0  0
    8.1382    0.2789    0.8302 H   0  0  0  0  0  0  0  0  0  0  0  0
    7.0433   -0.8958   -1.7992 H   0  0  0  0  0  0  0  0  0  0  0  0
    3.5593   -0.3158   -1.7164 H   0  0  0  0  0  0  0  0  0  0  0  0
   -4.9140   -0.9039    1.3901 H   0  0  0  0  0  0  0  0  0  0  0  0
   -7.2641   -0.1784    1.2518 H   0  0  0  0  0  0  0  0  0  0  0  0
   -8.1468    0.8166   -0.8404 H   0  0  0  0  0  0  0  0  0  0  0  0
   -6.6641    1.0893   -2.8114 H   0  0  0  0  0  0  0  0  0  0  0  0
   -4.2932    0.3868   -2.6896 H   0  0  0  0  0  0  0  0  0  0  0  0
  1  2  2  0
  2  3  1  0
  3  4  1  0
  4  5  1  0
  5  6  2  0
  5  7  1  0
  7  8  2  3
  8  9  1  0
  9 10  2  0
 10 11  1  0
 11 12  2  0
 12 13  1  0
 12 14  1  0
 14 15  1  0
 14 16  2  0
  7 17  1  0
 17 18  1  0
 18 19  2  0
  2 20  1  0
 20 21  2  0
 21 22  1  0
 22 23  2  0
 23 24  1  0
 24 25  2  0
 18  4  1  0
 25 20  1  0
 16  9  1  0
  3 26  1  0
  8 27  1  0
 10 28  1  0
 11 29  1  0
 13 30  1  0
 15 31  1  0
 16 32  1  0
 21 33  1  0
 22 34  1  0
 23 35  1  0
 24 36  1  0
 25 37  1  0
M  END
$$$$
