
     RDKit          3D

 38 41  0  0  0  0  0  0  0  0999 V2000
   -4.2551    0.7054    3.6782 O   0  0  0  0  0  0  0  0  0  0  0  0
   -3.6645   -0.2584    3.2008 C   0  0  0  0  0  0  0  0  0  0  0  0
   -3.1905   -0.3301    1.8300 C   0  0  0  0  0  0  0  0  0  0  0  0
   -2.5141   -1.4071    1.2888 C   0  0  0  0  0  0  0  0  0  0  0  0
   -2.2159   -1.1178   -0.0186 N   0  0  0  0  0  0  0  0  0  0  0  0
   -1.4680   -2.0050   -0.8992 C   0  0  0  0  0  0  0  0  0  0  0  0
    0.0355   -1.9557   -0.6775 C   0  0  0  0  0  0  0  0  0  0  0  0
    0.6835   -3.0009   -0.6940 O   0  0  0  0  0  0  0  0  0  0  0  0
    0.5616   -0.6818   -0.5366 N   0  0  0  0  0  0  0  0  0  0  0  0
    1.9168   -0.3205   -0.3788 C   0  0  0  0  0  0  0  0  0  0  0  0
    2.1842    1.0518   -0.1650 C   0  0  0  0  0  0  0  0  0  0  0  0
    3.4930    1.5197   -0.0010 C   0  0  0  0  0  0  0  0  0  0  0  0
    4.5113    0.5967   -0.0596 C   0  0  0  0  0  0  0  0  0  0  0  0
    4.2611   -0.7378   -0.2698 C   0  0  0  0  0  0  0  0  0  0  0  0
    2.9793   -1.2280   -0.4317 C   0  0  0  0  0  0  0  0  0  0  0  0
    5.4029   -1.4790   -0.2985 O   0  0  0  0  0  0  0  0  0  0  0  0
    6.3969   -0.4574   -0.0787 C   0  0  0  0  0  0  0  0  0  0  0  0
    5.8372    0.8640    0.0736 O   0  0  0  0  0  0  0  0  0  0  0  0
   -2.7032    0.1293   -0.3552 C   0  0  0  0  0  0  0  0  0  0  0  0
   -2.6514    0.8516   -1.5600 C   0  0  0  0  0  0  0  0  0  0  0  0
   -3.2252    2.1257   -1.5911 C   0  0  0  0  0  0  0  0  0  0  0  0
   -3.8321    2.6643   -0.4625 C   0  0  0  0  0  0  0  0  0  0  0  0
   -3.8820    1.9380    0.7305 C   0  0  0  0  0  0  0  0  0  0  0  0
   -3.3099    0.6492    0.7941 C   0  0  0  0  0  0  0  0  0  0  0  0
   -3.4566   -1.1488    3.8191 H   0  0  0  0  0  0  0  0  0  0  0  0
   -2.2140   -2.3494    1.7321 H   0  0  0  0  0  0  0  0  0  0  0  0
   -1.6910   -1.7581   -1.9405 H   0  0  0  0  0  0  0  0  0  0  0  0
   -1.8287   -3.0218   -0.7062 H   0  0  0  0  0  0  0  0  0  0  0  0
   -0.0957    0.0895   -0.4897 H   0  0  0  0  0  0  0  0  0  0  0  0
    1.3704    1.7733   -0.1182 H   0  0  0  0  0  0  0  0  0  0  0  0
    3.6995    2.5705    0.1663 H   0  0  0  0  0  0  0  0  0  0  0  0
    2.8440   -2.2892   -0.5990 H   0  0  0  0  0  0  0  0  0  0  0  0
    6.9612   -0.7059    0.8278 H   0  0  0  0  0  0  0  0  0  0  0  0
    7.0862   -0.4496   -0.9311 H   0  0  0  0  0  0  0  0  0  0  0  0
   -2.1875    0.4472   -2.4543 H   0  0  0  0  0  0  0  0  0  0  0  0
   -3.2007    2.7034   -2.5125 H   0  0  0  0  0  0  0  0  0  0  0  0
   -4.2760    3.6556   -0.5036 H   0  0  0  0  0  0  0  0  0  0  0  0
   -4.3623    2.3673    1.6071 H   0  0  0  0  0  0  0  0  0  0  0  0
  1  2  2  0
  2  3  1  0
  3  4  2  0
  4  5  1  0
  5  6  1  0
  6  7  1  0
  7  8  2  0
  7  9  1  0
  9 10  1  0
 10 11  2  0
 11 12  1  0
 12 13  2  0
 13 14  1  0
 14 15  2  0
 14 16  1  0
 16 17  1  0
 17 18  1  0
  5 19  1  0
 19 20  2  0
 20 21  1  0
 21 22  2  0
 22 23  1  0
 23 24  2  0
 24  3  1  0
 15 10  1  0
 24 19  1  0
 18 13  1  0
  2 25  1  0
  4 26  1  0
  6 27  1  0
  6 28  1  0
  9 29  1  0
 11 30  1  0
 12 31  1  0
 15 32  1  0
 17 33  1  0
 17 34  1  0
 20 35  1  0
 21 36  1  0
 22 37  1  0
 23 38  1  0
M  END
$$$$
