
     RDKit          3D

 31 32  0  0  0  0  0  0  0  0999 V2000
   -2.0274    2.3115   -1.3111 C   0  0  0  0  0  0  0  0  0  0  0  0
   -2.8007    1.2024   -0.7172 N   0  0  0  0  0  4  0  0  0  0  0  0
   -4.1385    1.1572   -0.9284 C   0  0  0  0  0  0  0  0  0  0  0  0
   -4.9134    0.1244   -0.4167 C   0  0  0  0  0  0  0  0  0  0  0  0
   -4.3079   -0.8773    0.3237 C   0  0  0  0  0  0  0  0  0  0  0  0
   -2.9370   -0.8238    0.5387 C   0  0  0  0  0  0  0  0  0  0  0  0
   -2.1805    0.2296    0.0071 C   0  0  0  0  0  0  0  0  0  0  0  0
   -0.7369    0.3014    0.2618 C   0  0  0  0  0  0  0  0  0  0  0  0
    0.1124   -0.6568   -0.1443 C   0  0  0  0  0  0  0  0  0  0  0  0
    1.5600   -0.6405    0.1195 C   0  0  0  0  0  0  0  0  0  0  0  0
    2.3149    0.5420    0.1172 C   0  0  0  0  0  0  0  0  0  0  0  0
    3.6956    0.5091    0.3459 C   0  0  0  0  0  0  0  0  0  0  0  0
    4.3323   -0.7176    0.5690 C   0  0  0  0  0  0  0  0  0  0  0  0
    5.7809   -0.7552    0.8089 N   0  0  0  0  0  4  0  0  0  0  0  0
    6.3031   -1.8619    0.9981 O   0  0  0  0  0  0  0  0  0  0  0  0
    6.3894    0.3238    0.8070 O   0  0  0  0  0  1  0  0  0  0  0  0
    3.5964   -1.9073    0.5590 C   0  0  0  0  0  0  0  0  0  0  0  0
    2.2168   -1.8631    0.3289 C   0  0  0  0  0  0  0  0  0  0  0  0
   -2.6810    2.9409   -1.9204 H   0  0  0  0  0  0  0  0  0  0  0  0
   -1.2463    1.8863   -1.9468 H   0  0  0  0  0  0  0  0  0  0  0  0
   -1.6067    2.9061   -0.4962 H   0  0  0  0  0  0  0  0  0  0  0  0
   -4.5877    1.9553   -1.5140 H   0  0  0  0  0  0  0  0  0  0  0  0
   -5.9868    0.1018   -0.5950 H   0  0  0  0  0  0  0  0  0  0  0  0
   -4.8991   -1.6937    0.7366 H   0  0  0  0  0  0  0  0  0  0  0  0
   -2.4604   -1.6029    1.1324 H   0  0  0  0  0  0  0  0  0  0  0  0
   -0.3937    1.1649    0.8253 H   0  0  0  0  0  0  0  0  0  0  0  0
   -0.2467   -1.5337   -0.6833 H   0  0  0  0  0  0  0  0  0  0  0  0
    1.8510    1.5065   -0.0723 H   0  0  0  0  0  0  0  0  0  0  0  0
    4.2582    1.4414    0.3416 H   0  0  0  0  0  0  0  0  0  0  0  0
    4.0771   -2.8701    0.7256 H   0  0  0  0  0  0  0  0  0  0  0  0
    1.6626   -2.8009    0.3243 H   0  0  0  0  0  0  0  0  0  0  0  0
  1  2  1  0
  2  3  2  0
  3  4  1  0
  4  5  2  0
  5  6  1  0
  6  7  2  0
  7  8  1  0
  8  9  2  3
  9 10  1  0
 10 11  2  0
 11 12  1  0
 12 13  2  0
 13 14  1  0
 14 15  2  0
 14 16  1  0
 13 17  1  0
 17 18  2  0
  7  2  1  0
 18 10  1  0
  1 19  1  0
  1 20  1  0
  1 21  1  0
  3 22  1  0
  4 23  1  0
  5 24  1  0
  6 25  1  0
  8 26  1  0
  9 27  1  0
 11 28  1  0
 12 29  1  0
 17 30  1  0
 18 31  1  0
M  CHG  3   2   1  14   1  16  -1
M  END
$$$$
