
     RDKit          3D

 71 73  0  0  0  0  0  0  0  0999 V2000
   -5.3933   -0.0501    4.1132 C   0  0  0  0  0  0  0  0  0  0  0  0
   -6.1773    0.0835    2.9335 O   0  0  0  0  0  0  0  0  0  0  0  0
   -5.5097    0.2078    1.7381 C   0  0  0  0  0  0  0  0  0  0  0  0
   -4.1337   -0.0029    1.5830 C   0  0  0  0  0  0  0  0  0  0  0  0
   -3.5439    0.1191    0.3226 C   0  0  0  0  0  0  0  0  0  0  0  0
   -2.1167   -0.1311    0.1199 C   0  0  0  0  0  0  0  0  0  0  0  0
   -1.5492   -0.0372   -1.0985 C   0  0  0  0  0  0  0  0  0  0  0  0
   -0.1065   -0.3497   -1.4041 C   0  0  0  0  0  0  0  0  0  0  0  0
    0.8079    0.2308   -0.4040 N   0  0  0  0  0  0  0  0  0  0  0  0
    1.1362    1.6560   -0.6601 C   0  0  0  0  0  0  0  0  0  0  0  0
    2.5617    1.8089   -1.2072 C   0  0  0  0  0  0  0  0  0  0  0  0
    2.8277    3.2033   -1.7307 C   0  0  0  0  0  0  0  0  0  0  0  0
    2.5596    3.4645   -3.0869 C   0  0  0  0  0  0  0  0  0  0  0  0
    2.7813    4.7264   -3.6323 C   0  0  0  0  0  0  0  0  0  0  0  0
    3.2643    5.7486   -2.8262 C   0  0  0  0  0  0  0  0  0  0  0  0
    3.5209    5.5132   -1.4756 C   0  0  0  0  0  0  0  0  0  0  0  0
    3.3108    4.2438   -0.9127 C   0  0  0  0  0  0  0  0  0  0  0  0
    3.6052    4.0378    0.5481 C   0  0  0  0  0  0  0  0  0  0  0  0
    1.1962   -0.3980    0.7624 C   0  0  0  0  0  0  0  0  0  0  0  0
    1.6834    0.3776    2.1716 S   0  0  0  0  0  0  0  0  0  0  0  0
    1.1780   -1.7547    0.8582 N   0  0  0  0  0  0  0  0  0  0  0  0
    1.5448   -2.7231   -0.1718 C   0  0  0  0  0  0  0  0  0  0  0  0
    2.3744   -3.8856    0.3797 C   0  0  0  0  0  0  0  0  0  0  0  0
    3.8143   -3.4639    0.7141 C   0  0  0  0  0  0  0  0  0  0  0  0
    4.6683   -4.4934    1.3232 N   0  0  0  0  0  0  0  0  0  0  0  0
    4.8790   -5.6560    0.4648 C   0  0  0  0  0  0  0  0  0  0  0  0
    4.2212   -4.8894    2.6556 C   0  0  0  0  0  0  0  0  0  0  0  0
   -2.3956    0.3458   -2.2697 C   0  0  0  0  0  0  0  0  0  0  0  0
   -1.9306    0.4288   -3.4023 O   0  0  0  0  0  0  0  0  0  0  0  0
   -3.7239    0.5867   -2.0362 N   0  0  0  0  0  0  0  0  0  0  0  0
   -4.3294    0.4722   -0.7775 C   0  0  0  0  0  0  0  0  0  0  0  0
   -5.7009    0.6896   -0.6386 C   0  0  0  0  0  0  0  0  0  0  0  0
   -6.3006    0.5472    0.6183 C   0  0  0  0  0  0  0  0  0  0  0  0
   -7.6434    0.7078    0.8615 O   0  0  0  0  0  0  0  0  0  0  0  0
   -8.4755    1.0778   -0.2288 C   0  0  0  0  0  0  0  0  0  0  0  0
   -4.7046    0.7936    4.2235 H   0  0  0  0  0  0  0  0  0  0  0  0
   -4.8629   -1.0085    4.1203 H   0  0  0  0  0  0  0  0  0  0  0  0
   -6.0702   -0.0416    4.9755 H   0  0  0  0  0  0  0  0  0  0  0  0
   -3.5119   -0.2830    2.4264 H   0  0  0  0  0  0  0  0  0  0  0  0
   -1.5367   -0.4326    0.9865 H   0  0  0  0  0  0  0  0  0  0  0  0
    0.2080    0.0343   -2.3812 H   0  0  0  0  0  0  0  0  0  0  0  0
   -0.0163   -1.4286   -1.4693 H   0  0  0  0  0  0  0  0  0  0  0  0
    1.0147    2.2450    0.2548 H   0  0  0  0  0  0  0  0  0  0  0  0
    0.4031    2.0657   -1.3707 H   0  0  0  0  0  0  0  0  0  0  0  0
    2.7306    1.0872   -2.0139 H   0  0  0  0  0  0  0  0  0  0  0  0
    3.2968    1.5375   -0.4426 H   0  0  0  0  0  0  0  0  0  0  0  0
    2.1779    2.6764   -3.7333 H   0  0  0  0  0  0  0  0  0  0  0  0
    2.5857    4.9039   -4.6818 H   0  0  0  0  0  0  0  0  0  0  0  0
    3.4401    6.7339   -3.2451 H   0  0  0  0  0  0  0  0  0  0  0  0
    3.8951    6.3314   -0.8597 H   0  0  0  0  0  0  0  0  0  0  0  0
    2.6861    3.8445    1.1100 H   0  0  0  0  0  0  0  0  0  0  0  0
    4.3079    3.2059    0.6754 H   0  0  0  0  0  0  0  0  0  0  0  0
    4.0789    4.9278    0.9884 H   0  0  0  0  0  0  0  0  0  0  0  0
    1.4394   -2.0327    1.8036 H   0  0  0  0  0  0  0  0  0  0  0  0
    2.0782   -2.2178   -0.9856 H   0  0  0  0  0  0  0  0  0  0  0  0
    0.6074   -3.1408   -0.5509 H   0  0  0  0  0  0  0  0  0  0  0  0
    2.3981   -4.6704   -0.3846 H   0  0  0  0  0  0  0  0  0  0  0  0
    1.8711   -4.3018    1.2565 H   0  0  0  0  0  0  0  0  0  0  0  0
    4.3064   -3.1125   -0.2075 H   0  0  0  0  0  0  0  0  0  0  0  0
    3.7984   -2.5887    1.3804 H   0  0  0  0  0  0  0  0  0  0  0  0
    5.2440   -5.3428   -0.5201 H   0  0  0  0  0  0  0  0  0  0  0  0
    3.9651   -6.2464    0.3243 H   0  0  0  0  0  0  0  0  0  0  0  0
    5.6333   -6.3226    0.9031 H   0  0  0  0  0  0  0  0  0  0  0  0
    4.0799   -4.0112    3.2968 H   0  0  0  0  0  0  0  0  0  0  0  0
    4.9765   -5.5203    3.1359 H   0  0  0  0  0  0  0  0  0  0  0  0
    3.2840   -5.4494    2.6382 H   0  0  0  0  0  0  0  0  0  0  0  0
   -4.2729    0.8469   -2.8451 H   0  0  0  0  0  0  0  0  0  0  0  0
   -6.2813    0.9495   -1.5149 H   0  0  0  0  0  0  0  0  0  0  0  0
   -8.1916    2.0601   -0.6261 H   0  0  0  0  0  0  0  0  0  0  0  0
   -8.4606    0.3130   -1.0153 H   0  0  0  0  0  0  0  0  0  0  0  0
   -9.5024    1.1530    0.1432 H   0  0  0  0  0  0  0  0  0  0  0  0
  1  2  1  0
  2  3  1  0
  3  4  2  0
  4  5  1  0
  5  6  1  0
  6  7  2  0
  7  8  1  0
  8  9  1  0
  9 10  1  0
 10 11  1  0
 11 12  1  0
 12 13  2  0
 13 14  1  0
 14 15  2  0
 15 16  1  0
 16 17  2  0
 17 18  1  0
  9 19  1  0
 19 20  2  0
 19 21  1  0
 21 22  1  0
 22 23  1  0
 23 24  1  0
 24 25  1  0
 25 26  1  0
 25 27  1  0
  7 28  1  0
 28 29  2  0
 28 30  1  0
 30 31  1  0
 31 32  1  0
 32 33  2  0
 33 34  1  0
 34 35  1  0
 33  3  1  0
 31  5  2  0
 17 12  1  0
  1 36  1  0
  1 37  1  0
  1 38  1  0
  4 39  1  0
  6 40  1  0
  8 41  1  0
  8 42  1  0
 10 43  1  0
 10 44  1  0
 11 45  1  0
 11 46  1  0
 13 47  1  0
 14 48  1  0
 15 49  1  0
 16 50  1  0
 18 51  1  0
 18 52  1  0
 18 53  1  0
 21 54  1  0
 22 55  1  0
 22 56  1  0
 23 57  1  0
 23 58  1  0
 24 59  1  0
 24 60  1  0
 26 61  1  0
 26 62  1  0
 26 63  1  0
 27 64  1  0
 27 65  1  0
 27 66  1  0
 30 67  1  0
 32 68  1  0
 35 69  1  0
 35 70  1  0
 35 71  1  0
M  END
$$$$
