
     RDKit          3D

 47 48  0  0  0  0  0  0  0  0999 V2000
   -3.3173    1.0519    4.1558 C   0  0  0  0  0  0  0  0  0  0  0  0
   -3.6829    1.6194    2.7916 C   0  0  0  0  0  0  0  0  0  0  0  0
   -3.3807    0.6556    1.7211 N   0  0  0  0  0  0  0  0  0  0  0  0
   -4.4909   -0.2334    1.3463 C   0  0  0  0  0  0  0  0  0  0  0  0
   -5.3127    0.3639    0.2128 C   0  0  0  0  0  0  0  0  0  0  0  0
   -2.1384    0.6080    1.0963 C   0  0  0  0  0  0  0  0  0  0  0  0
   -1.0453    1.3645    1.5504 C   0  0  0  0  0  0  0  0  0  0  0  0
    0.2118    1.3194    0.9342 C   0  0  0  0  0  0  0  0  0  0  0  0
    0.4230    0.5043   -0.1760 C   0  0  0  0  0  0  0  0  0  0  0  0
    1.7375    0.4647   -0.8281 C   0  0  0  0  0  0  0  0  0  0  0  0
    2.8369    0.0488   -0.1826 C   0  0  0  0  0  0  0  0  0  0  0  0
    4.1171   -0.0989   -0.8713 C   0  0  0  0  0  0  0  0  0  0  0  0
    5.1276    0.8427   -0.6530 C   0  0  0  0  0  0  0  0  0  0  0  0
    6.3421    0.7232   -1.3158 C   0  0  0  0  0  0  0  0  0  0  0  0
    6.5324   -0.3344   -2.1910 C   0  0  0  0  0  0  0  0  0  0  0  0
    5.5090   -1.2544   -2.3827 C   0  0  0  0  0  0  0  0  0  0  0  0
    4.3300   -1.1374   -1.7264 N   0  0  0  0  0  4  0  0  0  0  0  0
    3.2844   -2.1573   -1.9606 C   0  0  0  0  0  0  0  0  0  0  0  0
   -0.6433   -0.2579   -0.6749 C   0  0  0  0  0  0  0  0  0  0  0  0
   -0.3632   -1.0450   -1.7700 O   0  0  0  0  0  0  0  0  0  0  0  0
   -1.4775   -1.6179   -2.4486 C   0  0  0  0  0  0  0  0  0  0  0  0
   -1.8925   -0.2023   -0.0312 C   0  0  0  0  0  0  0  0  0  0  0  0
   -3.8674    0.1267    4.3570 H   0  0  0  0  0  0  0  0  0  0  0  0
   -3.5651    1.7713    4.9426 H   0  0  0  0  0  0  0  0  0  0  0  0
   -2.2496    0.8243    4.2285 H   0  0  0  0  0  0  0  0  0  0  0  0
   -4.7562    1.8492    2.7895 H   0  0  0  0  0  0  0  0  0  0  0  0
   -3.1919    2.5842    2.6223 H   0  0  0  0  0  0  0  0  0  0  0  0
   -5.1511   -0.3836    2.2102 H   0  0  0  0  0  0  0  0  0  0  0  0
   -4.1375   -1.2381    1.0887 H   0  0  0  0  0  0  0  0  0  0  0  0
   -4.7126    0.5141   -0.6896 H   0  0  0  0  0  0  0  0  0  0  0  0
   -5.7294    1.3354    0.4986 H   0  0  0  0  0  0  0  0  0  0  0  0
   -6.1450   -0.3003   -0.0404 H   0  0  0  0  0  0  0  0  0  0  0  0
   -1.1368    2.0143    2.4159 H   0  0  0  0  0  0  0  0  0  0  0  0
    1.0106    1.9385    1.3350 H   0  0  0  0  0  0  0  0  0  0  0  0
    1.7362    0.7262   -1.8843 H   0  0  0  0  0  0  0  0  0  0  0  0
    2.8177   -0.2207    0.8709 H   0  0  0  0  0  0  0  0  0  0  0  0
    4.9673    1.6770    0.0282 H   0  0  0  0  0  0  0  0  0  0  0  0
    7.1323    1.4550   -1.1532 H   0  0  0  0  0  0  0  0  0  0  0  0
    7.4752   -0.4423   -2.7236 H   0  0  0  0  0  0  0  0  0  0  0  0
    5.6283   -2.0927   -3.0638 H   0  0  0  0  0  0  0  0  0  0  0  0
    2.5179   -1.7136   -2.6001 H   0  0  0  0  0  0  0  0  0  0  0  0
    2.8790   -2.4825   -0.9993 H   0  0  0  0  0  0  0  0  0  0  0  0
    3.7236   -3.0241   -2.4619 H   0  0  0  0  0  0  0  0  0  0  0  0
   -1.1022   -2.0906   -3.3614 H   0  0  0  0  0  0  0  0  0  0  0  0
   -1.9455   -2.3982   -1.8401 H   0  0  0  0  0  0  0  0  0  0  0  0
   -2.2026   -0.8525   -2.7449 H   0  0  0  0  0  0  0  0  0  0  0  0
   -2.7026   -0.8047   -0.4209 H   0  0  0  0  0  0  0  0  0  0  0  0
  1  2  1  0
  2  3  1  0
  3  4  1  0
  4  5  1  0
  3  6  1  0
  6  7  2  0
  7  8  1  0
  8  9  2  0
  9 10  1  0
 10 11  2  3
 11 12  1  0
 12 13  2  0
 13 14  1  0
 14 15  2  0
 15 16  1  0
 16 17  2  0
 17 18  1  0
  9 19  1  0
 19 20  1  0
 20 21  1  0
 19 22  2  0
 22  6  1  0
 17 12  1  0
  1 23  1  0
  1 24  1  0
  1 25  1  0
  2 26  1  0
  2 27  1  0
  4 28  1  0
  4 29  1  0
  5 30  1  0
  5 31  1  0
  5 32  1  0
  7 33  1  0
  8 34  1  0
 10 35  1  0
 11 36  1  0
 13 37  1  0
 14 38  1  0
 15 39  1  0
 16 40  1  0
 18 41  1  0
 18 42  1  0
 18 43  1  0
 21 44  1  0
 21 45  1  0
 21 46  1  0
 22 47  1  0
M  CHG  1  17   1
M  END
$$$$
