
     RDKit          3D

 40 42  0  0  0  0  0  0  0  0999 V2000
   -1.6806    3.9440    1.6975 C   0  0  0  0  0  0  0  0  0  0  0  0
   -2.3332    3.1477    2.6760 O   0  0  0  0  0  0  0  0  0  0  0  0
   -2.2645    1.7889    2.5236 C   0  0  0  0  0  0  0  0  0  0  0  0
   -2.9947    1.0672    3.4649 C   0  0  0  0  0  0  0  0  0  0  0  0
   -3.0412   -0.3290    3.4401 C   0  0  0  0  0  0  0  0  0  0  0  0
   -2.3177   -0.9931    2.4391 C   0  0  0  0  0  0  0  0  0  0  0  0
   -1.5525   -0.3047    1.4903 C   0  0  0  0  0  0  0  0  0  0  0  0
   -1.5429    1.1115    1.5337 C   0  0  0  0  0  0  0  0  0  0  0  0
   -0.9474   -1.2921    0.6499 C   0  0  0  0  0  0  0  0  0  0  0  0
   -0.0611   -1.1363   -0.4592 C   0  0  0  0  0  0  0  0  0  0  0  0
    0.9131   -0.2150   -0.5473 C   0  0  0  0  0  0  0  0  0  0  0  0
    1.8279   -0.0888   -1.6875 C   0  0  0  0  0  0  0  0  0  0  0  0
    2.3727   -1.1978   -2.3335 C   0  0  0  0  0  0  0  0  0  0  0  0
    3.2595   -1.0160   -3.3890 C   0  0  0  0  0  0  0  0  0  0  0  0
    3.6104    0.2269   -3.7873 N   0  0  0  0  0  4  0  0  0  0  0  0
    4.5420    0.3941   -4.9159 C   0  0  0  0  0  0  0  0  0  0  0  0
    3.1018    1.3174   -3.1721 C   0  0  0  0  0  0  0  0  0  0  0  0
    2.2134    1.1820   -2.1107 C   0  0  0  0  0  0  0  0  0  0  0  0
   -1.3861   -2.5278    1.0735 C   0  0  0  0  0  0  0  0  0  0  0  0
   -2.1968   -2.3383    2.1611 N   0  0  0  0  0  0  0  0  0  0  0  0
   -2.8420   -3.3987    2.9044 C   0  0  0  0  0  0  0  0  0  0  0  0
   -0.5982    3.7797    1.7142 H   0  0  0  0  0  0  0  0  0  0  0  0
   -2.0925    3.7617    0.6994 H   0  0  0  0  0  0  0  0  0  0  0  0
   -1.8614    4.9944    1.9453 H   0  0  0  0  0  0  0  0  0  0  0  0
   -3.5513    1.6016    4.2325 H   0  0  0  0  0  0  0  0  0  0  0  0
   -3.6280   -0.8703    4.1755 H   0  0  0  0  0  0  0  0  0  0  0  0
   -0.9784    1.6491    0.7843 H   0  0  0  0  0  0  0  0  0  0  0  0
   -0.1954   -1.8554   -1.2645 H   0  0  0  0  0  0  0  0  0  0  0  0
    1.0651    0.4919    0.2661 H   0  0  0  0  0  0  0  0  0  0  0  0
    2.1230   -2.2087   -2.0167 H   0  0  0  0  0  0  0  0  0  0  0  0
    3.6960   -1.8588   -3.9178 H   0  0  0  0  0  0  0  0  0  0  0  0
    5.2366   -0.4497   -4.9348 H   0  0  0  0  0  0  0  0  0  0  0  0
    5.1043    1.3219   -4.7827 H   0  0  0  0  0  0  0  0  0  0  0  0
    3.9448    0.4282   -5.8303 H   0  0  0  0  0  0  0  0  0  0  0  0
    3.4114    2.2935   -3.5351 H   0  0  0  0  0  0  0  0  0  0  0  0
    1.8184    2.0732   -1.6259 H   0  0  0  0  0  0  0  0  0  0  0  0
   -1.1768   -3.5238    0.7049 H   0  0  0  0  0  0  0  0  0  0  0  0
   -3.9236   -3.2528    2.8465 H   0  0  0  0  0  0  0  0  0  0  0  0
   -2.4984   -3.3525    3.9409 H   0  0  0  0  0  0  0  0  0  0  0  0
   -2.5755   -4.3654    2.4695 H   0  0  0  0  0  0  0  0  0  0  0  0
  1  2  1  0
  2  3  1  0
  3  4  2  0
  4  5  1  0
  5  6  2  0
  6  7  1  0
  7  8  2  0
  7  9  1  0
  9 10  1  0
 10 11  2  3
 11 12  1  0
 12 13  2  0
 13 14  1  0
 14 15  2  0
 15 16  1  0
 15 17  1  0
 17 18  2  0
  9 19  2  0
 19 20  1  0
 20 21  1  0
  8  3  1  0
 18 12  1  0
 20  6  1  0
  1 22  1  0
  1 23  1  0
  1 24  1  0
  4 25  1  0
  5 26  1  0
  8 27  1  0
 10 28  1  0
 11 29  1  0
 13 30  1  0
 14 31  1  0
 16 32  1  0
 16 33  1  0
 16 34  1  0
 17 35  1  0
 18 36  1  0
 19 37  1  0
 21 38  1  0
 21 39  1  0
 21 40  1  0
M  CHG  1  15   1
M  END
$$$$
