
     RDKit          3D

 71 75  0  0  0  0  0  0  0  0999 V2000
   -5.0155   -2.8640    3.9533 C   0  0  0  0  0  0  0  0  0  0  0  0
   -6.0074   -2.1181    3.1114 C   0  0  0  0  0  0  0  0  0  0  0  0
   -7.1822   -1.6204    3.6752 C   0  0  0  0  0  0  0  0  0  0  0  0
   -8.0828   -0.8902    2.8983 C   0  0  0  0  0  0  0  0  0  0  0  0
   -7.8313   -0.6365    1.5400 C   0  0  0  0  0  0  0  0  0  0  0  0
   -8.8314    0.1765    0.7628 C   0  0  0  0  0  0  0  0  0  0  0  0
   -6.6411   -1.1229    0.9603 C   0  0  0  0  0  0  0  0  0  0  0  0
   -6.2729   -0.8731   -0.4865 C   0  0  0  0  0  0  0  0  0  0  0  0
   -5.5340    0.3623   -0.6534 N   0  0  0  0  0  0  0  0  0  0  0  0
   -6.1448    1.4863   -1.1064 N   0  0  0  0  0  0  0  0  0  0  0  0
   -5.2236    2.4464   -1.1873 N   0  0  0  0  0  0  0  0  0  0  0  0
   -4.0357    1.8981   -0.8157 C   0  0  0  0  0  0  0  0  0  0  0  0
   -2.7207    2.4699   -0.7224 C   0  0  0  0  0  0  0  0  0  0  0  0
   -2.4207    3.6313   -0.9734 O   0  0  0  0  0  0  0  0  0  0  0  0
   -1.7727    1.5410   -0.3060 N   0  0  0  0  0  0  0  0  0  0  0  0
   -2.0570    0.2123   -0.0140 C   0  0  0  0  0  0  0  0  0  0  0  0
   -0.8929   -0.6706    0.4164 C   0  0  0  0  0  0  0  0  0  0  0  0
    0.1123   -0.8844   -0.7237 C   0  0  0  0  0  0  0  0  0  0  0  0
    1.3717   -0.0429   -0.5590 C   0  0  0  0  0  0  0  0  0  0  0  0
    2.0541   -0.3294    0.7331 N   0  0  0  0  0  0  0  0  0  0  0  0
    3.2547    0.8060    1.1874 S   0  0  0  0  0  6  0  0  0  0  0  0
    3.9295    0.3159    2.3693 O   0  0  0  0  0  0  0  0  0  0  0  0
    2.6247    2.1093    1.1592 O   0  0  0  0  0  0  0  0  0  0  0  0
    4.4153    0.7043   -0.1526 C   0  0  0  0  0  0  0  0  0  0  0  0
    5.0682   -0.5126   -0.3851 C   0  0  0  0  0  0  0  0  0  0  0  0
    5.9705   -0.6164   -1.4439 C   0  0  0  0  0  0  0  0  0  0  0  0
    6.2271    0.5044   -2.2440 C   0  0  0  0  0  0  0  0  0  0  0  0
    7.3514    0.3587   -3.6224 S   0  0  0  0  0  6  0  0  0  0  0  0
    7.3693   -1.0362   -4.0110 O   0  0  0  0  0  0  0  0  0  0  0  0
    6.9993    1.3937   -4.5714 O   0  0  0  0  0  0  0  0  0  0  0  0
    8.8564    0.7469   -2.9350 N   0  0  0  0  0  0  0  0  0  0  0  0
    9.0705    2.1506   -2.5417 C   0  0  0  0  0  0  0  0  0  0  0  0
    9.4294   -0.2176   -1.9799 C   0  0  0  0  0  0  0  0  0  0  0  0
    5.5641    1.7176   -2.0165 C   0  0  0  0  0  0  0  0  0  0  0  0
    4.6588    1.8213   -0.9584 C   0  0  0  0  0  0  0  0  0  0  0  0
    1.1596   -0.7468    1.8496 C   0  0  0  0  0  0  0  0  0  0  0  0
   -0.2306   -0.1520    1.6948 C   0  0  0  0  0  0  0  0  0  0  0  0
   -3.2463   -0.3165   -0.1046 N   0  0  0  0  0  0  0  0  0  0  0  0
   -4.1929    0.5716   -0.4958 C   0  0  0  0  0  0  0  0  0  0  0  0
   -5.7408   -1.8543    1.7625 C   0  0  0  0  0  0  0  0  0  0  0  0
   -4.3129   -2.1624    4.4151 H   0  0  0  0  0  0  0  0  0  0  0  0
   -4.4524   -3.5836    3.3496 H   0  0  0  0  0  0  0  0  0  0  0  0
   -5.5205   -3.4300    4.7438 H   0  0  0  0  0  0  0  0  0  0  0  0
   -7.4048   -1.7929    4.7261 H   0  0  0  0  0  0  0  0  0  0  0  0
   -8.9905   -0.5137    3.3671 H   0  0  0  0  0  0  0  0  0  0  0  0
   -9.1222   -0.3405   -0.1572 H   0  0  0  0  0  0  0  0  0  0  0  0
   -8.4168    1.1592    0.5213 H   0  0  0  0  0  0  0  0  0  0  0  0
   -9.7484    0.3371    1.3399 H   0  0  0  0  0  0  0  0  0  0  0  0
   -7.1555   -0.8399   -1.1337 H   0  0  0  0  0  0  0  0  0  0  0  0
   -5.6455   -1.6866   -0.8717 H   0  0  0  0  0  0  0  0  0  0  0  0
   -0.8475    1.9274   -0.1919 H   0  0  0  0  0  0  0  0  0  0  0  0
   -1.3249   -1.6568    0.6421 H   0  0  0  0  0  0  0  0  0  0  0  0
    0.4039   -1.9435   -0.7365 H   0  0  0  0  0  0  0  0  0  0  0  0
   -0.3447   -0.6800   -1.6993 H   0  0  0  0  0  0  0  0  0  0  0  0
    2.0564   -0.2838   -1.3791 H   0  0  0  0  0  0  0  0  0  0  0  0
    1.1190    1.0194   -0.6355 H   0  0  0  0  0  0  0  0  0  0  0  0
    4.8687   -1.3754    0.2484 H   0  0  0  0  0  0  0  0  0  0  0  0
    6.4640   -1.5663   -1.6416 H   0  0  0  0  0  0  0  0  0  0  0  0
    8.7355    2.8386   -3.3239 H   0  0  0  0  0  0  0  0  0  0  0  0
    8.5519    2.3808   -1.6065 H   0  0  0  0  0  0  0  0  0  0  0  0
   10.1410    2.3313   -2.3965 H   0  0  0  0  0  0  0  0  0  0  0  0
    8.9676   -0.1158   -0.9926 H   0  0  0  0  0  0  0  0  0  0  0  0
   10.5055   -0.0401   -1.8795 H   0  0  0  0  0  0  0  0  0  0  0  0
    9.3109   -1.2464   -2.3322 H   0  0  0  0  0  0  0  0  0  0  0  0
    5.7438    2.5781   -2.6588 H   0  0  0  0  0  0  0  0  0  0  0  0
    4.1476    2.7648   -0.7758 H   0  0  0  0  0  0  0  0  0  0  0  0
    1.1142   -1.8427    1.8544 H   0  0  0  0  0  0  0  0  0  0  0  0
    1.5694   -0.4560    2.8221 H   0  0  0  0  0  0  0  0  0  0  0  0
   -0.8505   -0.4225    2.5584 H   0  0  0  0  0  0  0  0  0  0  0  0
   -0.1620    0.9422    1.7033 H   0  0  0  0  0  0  0  0  0  0  0  0
   -4.8100   -2.2195    1.3273 H   0  0  0  0  0  0  0  0  0  0  0  0
  1  2  1  0
  2  3  2  0
  3  4  1  0
  4  5  2  0
  5  6  1  0
  5  7  1  0
  7  8  1  0
  8  9  1  0
  9 10  1  0
 10 11  2  0
 11 12  1  0
 12 13  1  0
 13 14  2  0
 13 15  1  0
 15 16  1  0
 16 17  1  0
 17 18  1  0
 18 19  1  0
 19 20  1  0
 20 21  1  0
 21 22  2  0
 21 23  2  0
 21 24  1  0
 24 25  2  0
 25 26  1  0
 26 27  2  0
 27 28  1  0
 28 29  2  0
 28 30  2  0
 28 31  1  0
 31 32  1  0
 31 33  1  0
 27 34  1  0
 34 35  2  0
 20 36  1  0
 36 37  1  0
 16 38  2  0
 38 39  1  0
  7 40  2  0
 40  2  1  0
 39  9  1  0
 39 12  2  0
 37 17  1  0
 35 24  1  0
  1 41  1  0
  1 42  1  0
  1 43  1  0
  3 44  1  0
  4 45  1  0
  6 46  1  0
  6 47  1  0
  6 48  1  0
  8 49  1  0
  8 50  1  0
 15 51  1  0
 17 52  1  0
 18 53  1  0
 18 54  1  0
 19 55  1  0
 19 56  1  0
 25 57  1  0
 26 58  1  0
 32 59  1  0
 32 60  1  0
 32 61  1  0
 33 62  1  0
 33 63  1  0
 33 64  1  0
 34 65  1  0
 35 66  1  0
 36 67  1  0
 36 68  1  0
 37 69  1  0
 37 70  1  0
 40 71  1  0
M  END
$$$$
