
     RDKit          3D

 71 77  0  0  0  0  0  0  0  0999 V2000
    2.2931    3.5434    0.2105 C   0  0  0  0  0  0  0  0  0  0  0  0
    3.0457    2.7583   -0.6975 O   0  0  0  0  0  0  0  0  0  0  0  0
    4.0345    1.9624   -0.0468 C   0  0  0  0  0  0  0  0  0  0  0  0
    3.5249    0.9357    1.0165 C   0  0  0  0  0  0  0  0  0  0  0  0
    4.0072    0.9719    2.1550 O   0  0  0  0  0  0  0  0  0  0  0  0
    2.5372    0.0144    0.6848 N   0  0  0  0  0  0  0  0  0  0  0  0
    2.2921   -1.0930    1.6032 C   0  0  0  0  0  0  0  0  0  0  0  0
    0.8147   -1.4969    1.6097 C   0  0  0  0  0  0  0  0  0  0  0  0
    0.3139   -1.9417    0.2916 N   0  0  0  0  0  0  0  0  0  0  0  0
    0.6584   -0.8903   -0.7650 C   0  0  2  0  0  0  0  0  0  0  0  0
    2.0413   -0.2129   -0.6753 C   0  0  0  0  0  0  0  0  0  0  0  0
   -0.5368   -0.0032   -0.7067 C   0  0  0  0  0  0  0  0  0  0  0  0
   -1.6266   -0.6861   -0.1546 C   0  0  0  0  0  0  0  0  0  0  0  0
   -2.7147    0.1453   -0.1536 C   0  0  0  0  0  0  0  0  0  0  0  0
   -3.9238   -0.0833    0.3600 O   0  0  0  0  0  0  0  0  0  0  0  0
   -2.3011    1.3602   -0.7350 N   0  0  0  0  0  0  0  0  0  0  0  0
   -3.1106    2.5225   -0.9097 C   0  0  0  0  0  0  0  0  0  0  0  0
   -4.4454    2.3974   -1.3157 C   0  0  0  0  0  0  0  0  0  0  0  0
   -5.2366    3.5398   -1.4612 C   0  0  0  0  0  0  0  0  0  0  0  0
   -4.7022    4.8018   -1.1943 C   0  0  0  0  0  0  0  0  0  0  0  0
   -3.3726    4.9297   -0.7954 C   0  0  0  0  0  0  0  0  0  0  0  0
   -2.5712    3.7929   -0.6550 C   0  0  0  0  0  0  0  0  0  0  0  0
   -0.9456    1.2414   -1.0996 C   0  0  0  0  0  0  0  0  0  0  0  0
   -0.2580    2.1620   -1.7710 O   0  0  0  0  0  0  0  0  0  0  0  0
   -1.2087   -2.0456    0.2567 C   0  0  1  0  0  0  0  0  0  0  0  0
   -1.6027   -3.1308   -0.8057 C   0  0  0  0  0  0  0  0  0  0  0  0
   -1.2916   -3.1974   -1.9865 O   0  0  0  0  0  0  0  0  0  0  0  0
   -2.3950   -4.0719   -0.1566 N   0  0  0  0  0  0  0  0  0  0  0  0
   -2.6369   -3.7202    1.1670 C   0  0  0  0  0  0  0  0  0  0  0  0
   -1.9787   -2.5152    1.4688 C   0  0  0  0  0  0  0  0  0  0  0  0
   -2.1508   -1.9366    2.7194 C   0  0  0  0  0  0  0  0  0  0  0  0
   -2.9430   -2.5954    3.6612 C   0  0  0  0  0  0  0  0  0  0  0  0
   -3.5706   -3.8141    3.3483 C   0  0  0  0  0  0  0  0  0  0  0  0
   -4.5375   -4.5475    4.5814 Cl  0  0  0  0  0  0  0  0  0  0  0  0
   -3.4344   -4.4051    2.0800 C   0  0  0  0  0  0  0  0  0  0  0  0
   -4.1282   -5.6912    1.7390 C   0  0  0  0  0  0  0  0  0  0  0  0
    4.9614    1.2972   -1.0648 C   0  0  0  0  0  0  0  0  0  0  0  0
    4.7039    1.3293   -2.4447 C   0  0  0  0  0  0  0  0  0  0  0  0
    5.5775    0.7217   -3.3505 C   0  0  0  0  0  0  0  0  0  0  0  0
    6.7264    0.0788   -2.8926 C   0  0  0  0  0  0  0  0  0  0  0  0
    7.0022    0.0409   -1.5285 C   0  0  0  0  0  0  0  0  0  0  0  0
    6.1250    0.6412   -0.6208 C   0  0  0  0  0  0  0  0  0  0  0  0
    1.6439    2.9233    0.8450 H   0  0  0  0  0  0  0  0  0  0  0  0
    2.9472    4.1433    0.8465 H   0  0  0  0  0  0  0  0  0  0  0  0
    1.6556    4.2253   -0.3626 H   0  0  0  0  0  0  0  0  0  0  0  0
    4.6785    2.6664    0.4988 H   0  0  0  0  0  0  0  0  0  0  0  0
    2.9237   -1.9331    1.2911 H   0  0  0  0  0  0  0  0  0  0  0  0
    2.5898   -0.8243    2.6214 H   0  0  0  0  0  0  0  0  0  0  0  0
    0.2524   -0.6300    1.9790 H   0  0  0  0  0  0  0  0  0  0  0  0
    0.6961   -2.3145    2.3287 H   0  0  0  0  0  0  0  0  0  0  0  0
    0.6306   -1.3901   -1.7423 H   0  0  0  0  0  0  0  0  0  0  0  0
    2.7799   -0.8780   -1.1422 H   0  0  0  0  0  0  0  0  0  0  0  0
    2.0309    0.7118   -1.2504 H   0  0  0  0  0  0  0  0  0  0  0  0
   -4.3642    0.7667    0.5423 H   0  0  0  0  0  0  0  0  0  0  0  0
   -4.8774    1.4281   -1.5669 H   0  0  0  0  0  0  0  0  0  0  0  0
   -6.2699    3.4472   -1.7874 H   0  0  0  0  0  0  0  0  0  0  0  0
   -5.3259    5.6875   -1.2989 H   0  0  0  0  0  0  0  0  0  0  0  0
   -2.9632    5.9160   -0.5793 H   0  0  0  0  0  0  0  0  0  0  0  0
   -1.5491    3.9147   -0.3029 H   0  0  0  0  0  0  0  0  0  0  0  0
   -0.8807    2.7552   -2.2325 H   0  0  0  0  0  0  0  0  0  0  0  0
   -2.7711   -4.8684   -0.6462 H   0  0  0  0  0  0  0  0  0  0  0  0
   -1.7038   -0.9798    2.9701 H   0  0  0  0  0  0  0  0  0  0  0  0
   -3.0820   -2.1489    4.6431 H   0  0  0  0  0  0  0  0  0  0  0  0
   -3.7940   -6.4936    2.4051 H   0  0  0  0  0  0  0  0  0  0  0  0
   -5.2122   -5.5697    1.8283 H   0  0  0  0  0  0  0  0  0  0  0  0
   -3.9277   -6.0208    0.7174 H   0  0  0  0  0  0  0  0  0  0  0  0
    3.8187    1.8300   -2.8313 H   0  0  0  0  0  0  0  0  0  0  0  0
    5.3606    0.7607   -4.4153 H   0  0  0  0  0  0  0  0  0  0  0  0
    7.4091   -0.3882   -3.6029 H   0  0  0  0  0  0  0  0  0  0  0  0
    7.9035   -0.4443   -1.1643 H   0  0  0  0  0  0  0  0  0  0  0  0
    6.3646    0.5976    0.4431 H   0  0  0  0  0  0  0  0  0  0  0  0
  1  2  1  0
  2  3  1  0
  3  4  1  0
  4  5  2  0
  4  6  1  0
  6  7  1  0
  7  8  1  0
  8  9  1  0
  9 10  1  0
 10 11  1  0
 10 12  1  0
 12 13  1  0
 13 14  2  0
 14 15  1  0
 14 16  1  0
 16 17  1  0
 17 18  2  0
 18 19  1  0
 19 20  2  0
 20 21  1  0
 21 22  2  0
 16 23  1  0
 23 24  1  0
 13 25  1  0
 25 26  1  0
 26 27  2  0
 26 28  1  0
 28 29  1  0
 29 30  2  0
 30 31  1  0
 31 32  2  0
 32 33  1  0
 33 34  1  0
 33 35  2  0
 35 36  1  0
  3 37  1  0
 37 38  2  0
 38 39  1  0
 39 40  2  0
 40 41  1  0
 41 42  2  0
 11  6  1  0
 23 12  2  0
 30 25  1  0
 42 37  1  0
 25  9  1  1
 35 29  1  0
 22 17  1  0
  1 43  1  0
  1 44  1  0
  1 45  1  0
  3 46  1  0
  7 47  1  0
  7 48  1  0
  8 49  1  0
  8 50  1  0
 10 51  1  6
 11 52  1  0
 11 53  1  0
 15 54  1  0
 18 55  1  0
 19 56  1  0
 20 57  1  0
 21 58  1  0
 22 59  1  0
 24 60  1  0
 28 61  1  0
 31 62  1  0
 32 63  1  0
 36 64  1  0
 36 65  1  0
 36 66  1  0
 38 67  1  0
 39 68  1  0
 40 69  1  0
 41 70  1  0
 42 71  1  0
M  END
$$$$
