
     RDKit          3D

 58 63  0  0  0  0  0  0  0  0999 V2000
    6.7346    1.7540   -2.6409 C   0  0  0  0  0  0  0  0  0  0  0  0
    6.1935    1.1141   -1.4088 C   0  0  0  0  0  0  0  0  0  0  0  0
    6.7904    0.1721   -0.5980 C   0  0  0  0  0  0  0  0  0  0  0  0
    5.9584   -0.1989    0.4974 C   0  0  0  0  0  0  0  0  0  0  0  0
    4.7331    0.4377    0.4676 C   0  0  0  0  0  0  0  0  0  0  0  0
    3.6682    0.3320    1.4527 C   0  0  0  0  0  0  0  0  0  0  0  0
    3.9110    0.4191    2.6582 O   0  0  0  0  0  0  0  0  0  0  0  0
    2.3569    0.0977    1.0154 N   0  0  0  0  0  0  0  0  0  0  0  0
    1.2902    0.1591    2.0061 C   0  0  0  0  0  0  0  0  0  0  0  0
   -0.0703    0.3273    1.3390 C   0  0  0  0  0  0  0  0  0  0  0  0
   -0.4177   -0.8925    0.4409 C   0  0  0  0  0  0  0  0  0  0  0  0
    0.8864   -1.4479   -0.2136 C   0  0  0  0  0  0  0  0  0  0  0  0
    2.0006   -0.4088   -0.3100 C   0  0  0  0  0  0  0  0  0  0  0  0
   -0.9265   -1.8860    1.3725 O   0  0  0  0  0  0  0  0  0  0  0  0
   -1.5249   -2.9814    0.8190 C   0  0  0  0  0  0  0  0  0  0  0  0
   -1.6457   -4.0978    1.6455 C   0  0  0  0  0  0  0  0  0  0  0  0
   -2.2298   -5.2688    1.1570 C   0  0  0  0  0  0  0  0  0  0  0  0
   -2.6977   -5.3166   -0.1563 C   0  0  0  0  0  0  0  0  0  0  0  0
   -3.4157   -6.7605   -0.7522 Cl  0  0  0  0  0  0  0  0  0  0  0  0
   -2.5952   -4.2011   -0.9834 C   0  0  0  0  0  0  0  0  0  0  0  0
   -2.0141   -3.0307   -0.4841 C   0  0  0  0  0  0  0  0  0  0  0  0
   -1.9329   -1.8208   -1.3228 C   0  0  0  0  0  0  0  0  0  0  0  0
   -2.2405   -1.8861   -2.5088 O   0  0  0  0  0  0  0  0  0  0  0  0
   -1.5119   -0.5407   -0.6066 C   0  0  0  0  0  0  0  0  0  0  0  0
   -2.7739    0.1150   -0.0587 C   0  0  0  0  0  0  0  0  0  0  0  0
   -2.5569    1.5059   -0.5428 C   0  0  0  0  0  0  0  0  0  0  0  0
   -3.4141    2.6328   -0.1052 C   0  0  0  0  0  0  0  0  0  0  0  0
   -3.0935    3.9312   -0.5247 C   0  0  0  0  0  0  0  0  0  0  0  0
   -3.8799    5.0160   -0.1270 C   0  0  0  0  0  0  0  0  0  0  0  0
   -4.9884    4.8037    0.6888 C   0  0  0  0  0  0  0  0  0  0  0  0
   -5.9592    6.1358    1.1788 Cl  0  0  0  0  0  0  0  0  0  0  0  0
   -5.3174    3.5158    1.1093 C   0  0  0  0  0  0  0  0  0  0  0  0
   -4.5319    2.4282    0.7128 C   0  0  0  0  0  0  0  0  0  0  0  0
   -1.5706    1.6488   -1.3676 N   0  0  0  0  0  0  0  0  0  0  0  0
   -0.9918    0.3776   -1.5746 O   0  0  0  0  0  0  0  0  0  0  0  0
    4.6423    1.5486   -0.8321 S   0  0  0  0  0  0  0  0  0  0  0  0
    6.6357    2.8436   -2.5976 H   0  0  0  0  0  0  0  0  0  0  0  0
    6.2038    1.3888   -3.5263 H   0  0  0  0  0  0  0  0  0  0  0  0
    7.7975    1.5218   -2.7659 H   0  0  0  0  0  0  0  0  0  0  0  0
    7.7835   -0.2248   -0.7718 H   0  0  0  0  0  0  0  0  0  0  0  0
    6.2371   -0.9044    1.2712 H   0  0  0  0  0  0  0  0  0  0  0  0
    1.3278   -0.7605    2.6022 H   0  0  0  0  0  0  0  0  0  0  0  0
    1.4792    0.9988    2.6848 H   0  0  0  0  0  0  0  0  0  0  0  0
   -0.0407    1.2537    0.7553 H   0  0  0  0  0  0  0  0  0  0  0  0
   -0.8261    0.4553    2.1231 H   0  0  0  0  0  0  0  0  0  0  0  0
    1.2594   -2.2984    0.3739 H   0  0  0  0  0  0  0  0  0  0  0  0
    0.6916   -1.8434   -1.2169 H   0  0  0  0  0  0  0  0  0  0  0  0
    2.8696   -0.8698   -0.7881 H   0  0  0  0  0  0  0  0  0  0  0  0
    1.6838    0.4429   -0.9207 H   0  0  0  0  0  0  0  0  0  0  0  0
   -1.2736   -4.0639    2.6671 H   0  0  0  0  0  0  0  0  0  0  0  0
   -2.3127   -6.1393    1.8032 H   0  0  0  0  0  0  0  0  0  0  0  0
   -2.9703   -4.2374   -2.0041 H   0  0  0  0  0  0  0  0  0  0  0  0
   -3.6943   -0.2739   -0.5084 H   0  0  0  0  0  0  0  0  0  0  0  0
   -2.8583    0.0619    1.0290 H   0  0  0  0  0  0  0  0  0  0  0  0
   -2.2311    4.1085   -1.1654 H   0  0  0  0  0  0  0  0  0  0  0  0
   -3.6218    6.0183   -0.4590 H   0  0  0  0  0  0  0  0  0  0  0  0
   -6.1859    3.3521    1.7428 H   0  0  0  0  0  0  0  0  0  0  0  0
   -4.8193    1.4363    1.0489 H   0  0  0  0  0  0  0  0  0  0  0  0
  1  2  1  0
  2  3  2  0
  3  4  1  0
  4  5  2  0
  5  6  1  0
  6  7  2  0
  6  8  1  0
  8  9  1  0
  9 10  1  0
 10 11  1  0
 11 12  1  0
 12 13  1  0
 11 14  1  0
 14 15  1  0
 15 16  2  0
 16 17  1  0
 17 18  2  0
 18 19  1  0
 18 20  1  0
 20 21  2  0
 21 22  1  0
 22 23  2  0
 22 24  1  0
 24 25  1  0
 25 26  1  0
 26 27  1  0
 27 28  2  0
 28 29  1  0
 29 30  2  0
 30 31  1  0
 30 32  1  0
 32 33  2  0
 26 34  2  0
 34 35  1  0
  5 36  1  0
 36  2  1  0
 13  8  1  0
 21 15  1  0
 35 24  1  0
 24 11  1  0
 33 27  1  0
  1 37  1  0
  1 38  1  0
  1 39  1  0
  3 40  1  0
  4 41  1  0
  9 42  1  0
  9 43  1  0
 10 44  1  0
 10 45  1  0
 12 46  1  0
 12 47  1  0
 13 48  1  0
 13 49  1  0
 16 50  1  0
 17 51  1  0
 20 52  1  0
 25 53  1  0
 25 54  1  0
 28 55  1  0
 29 56  1  0
 32 57  1  0
 33 58  1  0
M  END
$$$$
