
     RDKit          3D

 41 42  0  0  0  0  0  0  0  0999 V2000
   -3.6134   -2.3978    0.5801 C   0  0  0  0  0  0  0  0  0  0  0  0
   -3.8933   -0.9837    1.0691 C   0  0  0  0  0  0  0  0  0  0  0  0
   -3.4832    0.0136    0.0724 N   0  0  0  0  0  0  0  0  0  0  0  0
   -4.5102    0.4029   -0.9023 C   0  0  0  0  0  0  0  0  0  0  0  0
   -5.2601    1.6426   -0.4360 C   0  0  0  0  0  0  0  0  0  0  0  0
   -2.1849    0.5113    0.0146 C   0  0  0  0  0  0  0  0  0  0  0  0
   -1.8112    1.5379   -0.8698 C   0  0  0  0  0  0  0  0  0  0  0  0
   -0.5031    2.0464   -0.9315 C   0  0  0  0  0  0  0  0  0  0  0  0
    0.4976    1.5358   -0.1088 C   0  0  0  0  0  0  0  0  0  0  0  0
    1.8385    2.1286   -0.1529 C   0  0  0  0  0  0  0  0  0  0  0  0
    3.0226    1.5045   -0.2558 C   0  0  0  0  0  0  0  0  0  0  0  0
    3.2256    0.0396   -0.4374 C   0  0  0  0  0  0  0  0  0  0  0  0
    2.4275   -0.6665   -1.0412 O   0  0  0  0  0  0  0  0  0  0  0  0
    4.4830   -0.5517    0.0779 C   0  0  0  0  0  0  0  0  0  0  0  0
    4.9514   -1.7509   -0.4655 C   0  0  0  0  0  0  0  0  0  0  0  0
    6.1281   -2.3154    0.0216 C   0  0  0  0  0  0  0  0  0  0  0  0
    6.7953   -1.6618    1.0450 C   0  0  0  0  0  0  0  0  0  0  0  0
    6.3655   -0.5089    1.6041 N   0  0  0  0  0  0  0  0  0  0  0  0
    5.2141    0.0148    1.1145 C   0  0  0  0  0  0  0  0  0  0  0  0
    0.1567    0.5297    0.7904 C   0  0  0  0  0  0  0  0  0  0  0  0
   -1.1554    0.0299    0.8418 C   0  0  0  0  0  0  0  0  0  0  0  0
   -3.9450   -3.1272    1.3257 H   0  0  0  0  0  0  0  0  0  0  0  0
   -4.1450   -2.6035   -0.3548 H   0  0  0  0  0  0  0  0  0  0  0  0
   -2.5472   -2.5612    0.3972 H   0  0  0  0  0  0  0  0  0  0  0  0
   -3.4228   -0.8045    2.0423 H   0  0  0  0  0  0  0  0  0  0  0  0
   -4.9703   -0.8906    1.2595 H   0  0  0  0  0  0  0  0  0  0  0  0
   -5.2349   -0.4127   -1.0222 H   0  0  0  0  0  0  0  0  0  0  0  0
   -4.0901    0.5509   -1.9034 H   0  0  0  0  0  0  0  0  0  0  0  0
   -6.0360    1.9094   -1.1603 H   0  0  0  0  0  0  0  0  0  0  0  0
   -4.5927    2.5020   -0.3218 H   0  0  0  0  0  0  0  0  0  0  0  0
   -5.7441    1.4682    0.5307 H   0  0  0  0  0  0  0  0  0  0  0  0
   -2.5350    1.9886   -1.5408 H   0  0  0  0  0  0  0  0  0  0  0  0
   -0.2840    2.8421   -1.6391 H   0  0  0  0  0  0  0  0  0  0  0  0
    1.8387    3.2154   -0.0828 H   0  0  0  0  0  0  0  0  0  0  0  0
    3.9247    2.1089   -0.2505 H   0  0  0  0  0  0  0  0  0  0  0  0
    4.4024   -2.2441   -1.2651 H   0  0  0  0  0  0  0  0  0  0  0  0
    6.5122   -3.2438   -0.3868 H   0  0  0  0  0  0  0  0  0  0  0  0
    7.7174   -2.0622    1.4576 H   0  0  0  0  0  0  0  0  0  0  0  0
    4.8969    0.9219    1.6199 H   0  0  0  0  0  0  0  0  0  0  0  0
    0.9002    0.1100    1.4622 H   0  0  0  0  0  0  0  0  0  0  0  0
   -1.3365   -0.7685    1.5539 H   0  0  0  0  0  0  0  0  0  0  0  0
  1  2  1  0
  2  3  1  0
  3  4  1  0
  4  5  1  0
  3  6  1  0
  6  7  2  0
  7  8  1  0
  8  9  2  0
  9 10  1  0
 10 11  2  3
 11 12  1  0
 12 13  2  0
 12 14  1  0
 14 15  2  0
 15 16  1  0
 16 17  2  0
 17 18  1  0
 18 19  2  0
  9 20  1  0
 20 21  2  0
 21  6  1  0
 19 14  1  0
  1 22  1  0
  1 23  1  0
  1 24  1  0
  2 25  1  0
  2 26  1  0
  4 27  1  0
  4 28  1  0
  5 29  1  0
  5 30  1  0
  5 31  1  0
  7 32  1  0
  8 33  1  0
 10 34  1  0
 11 35  1  0
 15 36  1  0
 16 37  1  0
 17 38  1  0
 19 39  1  0
 20 40  1  0
 21 41  1  0
M  END
$$$$
