
     RDKit          3D

 81 84  0  0  0  0  0  0  0  0999 V2000
   -7.1792    3.7323    1.0387 C   0  0  0  0  0  0  0  0  0  0  0  0
   -6.0150    4.2866    0.4375 O   0  0  0  0  0  0  0  0  0  0  0  0
   -4.8167    3.7054    0.7476 C   0  0  0  0  0  0  0  0  0  0  0  0
   -4.6360    2.5803    1.5550 C   0  0  0  0  0  0  0  0  0  0  0  0
   -3.3515    2.0788    1.7855 C   0  0  0  0  0  0  0  0  0  0  0  0
   -2.2484    2.6990    1.1919 C   0  0  0  0  0  0  0  0  0  0  0  0
   -0.6184    2.0604    1.4884 S   0  0  0  0  0  6  0  0  0  0  0  0
   -0.6545    1.2564    2.6903 O   0  0  0  0  0  0  0  0  0  0  0  0
    0.3337    3.1446    1.3665 O   0  0  0  0  0  0  0  0  0  0  0  0
   -0.3503    1.0097    0.1603 N   0  0  0  0  0  0  0  0  0  0  0  0
   -0.2489    1.6569   -1.1717 C   0  0  0  0  0  0  0  0  0  0  0  0
   -1.2042   -0.2197    0.1307 C   0  0  0  0  0  0  0  0  0  0  0  0
   -0.3782   -1.4952   -0.1702 C   0  0  0  0  0  0  0  0  0  0  0  0
    0.4132   -1.7731    1.0004 O   0  0  0  0  0  0  0  0  0  0  0  0
    1.6583   -2.2500    0.6674 C   0  0  0  0  0  0  0  0  0  0  0  0
    2.6982   -1.3780    0.2751 C   0  0  0  0  0  0  0  0  0  0  0  0
    2.4767    0.0222    0.2818 N   0  0  0  0  0  0  0  0  0  0  0  0
    3.2421    0.9737   -0.3745 C   0  0  0  0  0  0  0  0  0  0  0  0
    4.1060    0.7055   -1.2008 O   0  0  0  0  0  0  0  0  0  0  0  0
    2.8988    2.2567    0.0130 N   0  0  0  0  0  0  0  0  0  0  0  0
    3.4068    3.4700   -0.4986 C   0  0  0  0  0  0  0  0  0  0  0  0
    3.0734    4.6477    0.1817 C   0  0  0  0  0  0  0  0  0  0  0  0
    3.5251    5.8925   -0.2703 C   0  0  0  0  0  0  0  0  0  0  0  0
    4.3190    5.9869   -1.4211 C   0  0  0  0  0  0  0  0  0  0  0  0
    4.8328    7.3211   -1.9015 C   0  0  0  0  0  0  0  0  0  0  0  0
    4.9432    7.3943   -3.2574 F   0  0  0  0  0  0  0  0  0  0  0  0
    6.0672    7.6142   -1.4097 F   0  0  0  0  0  0  0  0  0  0  0  0
    4.0312    8.3641   -1.5417 F   0  0  0  0  0  0  0  0  0  0  0  0
    4.6538    4.8083   -2.1009 C   0  0  0  0  0  0  0  0  0  0  0  0
    4.1990    3.5646   -1.6455 C   0  0  0  0  0  0  0  0  0  0  0  0
    3.9429   -1.9215   -0.0679 C   0  0  0  0  0  0  0  0  0  0  0  0
    4.1759   -3.2946    0.0020 C   0  0  0  0  0  0  0  0  0  0  0  0
    3.1647   -4.1430    0.4324 C   0  0  0  0  0  0  0  0  0  0  0  0
    1.9025   -3.6233    0.7585 C   0  0  0  0  0  0  0  0  0  0  0  0
    0.8967   -4.6046    1.2067 C   0  0  0  0  0  0  0  0  0  0  0  0
    1.2247   -5.3365    2.1418 O   0  0  0  0  0  0  0  0  0  0  0  0
   -0.3011   -4.7784    0.4927 N   0  0  0  0  0  0  0  0  0  0  0  0
   -0.9420   -6.1059    0.7123 C   0  0  0  0  0  0  0  0  0  0  0  0
   -2.4526   -6.1549    0.4735 C   0  0  0  0  0  0  0  0  0  0  0  0
   -0.2148   -7.2239   -0.0725 C   0  0  0  0  0  0  0  0  0  0  0  0
   -0.4146   -7.1174   -1.4812 O   0  0  0  0  0  0  0  0  0  0  0  0
   -0.5886   -4.0303   -0.7418 C   0  0  0  0  0  0  0  0  0  0  0  0
   -1.3180   -2.6793   -0.5396 C   0  0  0  0  0  0  0  0  0  0  0  0
   -2.5313   -2.8208    0.3913 C   0  0  0  0  0  0  0  0  0  0  0  0
   -2.4146    3.8401    0.4079 C   0  0  0  0  0  0  0  0  0  0  0  0
   -3.7017    4.3321    0.1820 C   0  0  0  0  0  0  0  0  0  0  0  0
   -8.0436    4.3149    0.7001 H   0  0  0  0  0  0  0  0  0  0  0  0
   -7.3300    2.6963    0.7188 H   0  0  0  0  0  0  0  0  0  0  0  0
   -7.1338    3.8067    2.1321 H   0  0  0  0  0  0  0  0  0  0  0  0
   -5.4738    2.0726    2.0222 H   0  0  0  0  0  0  0  0  0  0  0  0
   -3.2233    1.2127    2.4326 H   0  0  0  0  0  0  0  0  0  0  0  0
    0.2639    0.9822   -1.8655 H   0  0  0  0  0  0  0  0  0  0  0  0
   -1.2385    1.8858   -1.5774 H   0  0  0  0  0  0  0  0  0  0  0  0
    0.3371    2.5779   -1.1261 H   0  0  0  0  0  0  0  0  0  0  0  0
   -1.6857   -0.3455    1.1057 H   0  0  0  0  0  0  0  0  0  0  0  0
   -1.9974   -0.0857   -0.6154 H   0  0  0  0  0  0  0  0  0  0  0  0
    0.2643   -1.2955   -1.0386 H   0  0  0  0  0  0  0  0  0  0  0  0
    1.5699    0.3209    0.6240 H   0  0  0  0  0  0  0  0  0  0  0  0
    2.2964    2.3386    0.8247 H   0  0  0  0  0  0  0  0  0  0  0  0
    2.4568    4.6156    1.0761 H   0  0  0  0  0  0  0  0  0  0  0  0
    3.2581    6.7883    0.2894 H   0  0  0  0  0  0  0  0  0  0  0  0
    5.2742    4.8472   -2.9954 H   0  0  0  0  0  0  0  0  0  0  0  0
    4.4709    2.6857   -2.2215 H   0  0  0  0  0  0  0  0  0  0  0  0
    4.7720   -1.2936   -0.3739 H   0  0  0  0  0  0  0  0  0  0  0  0
    5.1529   -3.6934   -0.2603 H   0  0  0  0  0  0  0  0  0  0  0  0
    3.3578   -5.2118    0.5149 H   0  0  0  0  0  0  0  0  0  0  0  0
   -0.8186   -6.3418    1.7751 H   0  0  0  0  0  0  0  0  0  0  0  0
   -2.8357   -7.1648    0.6513 H   0  0  0  0  0  0  0  0  0  0  0  0
   -2.9698   -5.4923    1.1715 H   0  0  0  0  0  0  0  0  0  0  0  0
   -2.7399   -5.8733   -0.5429 H   0  0  0  0  0  0  0  0  0  0  0  0
    0.8634   -7.1929    0.1086 H   0  0  0  0  0  0  0  0  0  0  0  0
   -0.5693   -8.2100    0.2450 H   0  0  0  0  0  0  0  0  0  0  0  0
   -1.3082   -7.4467   -1.6761 H   0  0  0  0  0  0  0  0  0  0  0  0
   -1.2133   -4.6521   -1.3885 H   0  0  0  0  0  0  0  0  0  0  0  0
    0.3385   -3.8874   -1.3076 H   0  0  0  0  0  0  0  0  0  0  0  0
   -1.7277   -2.4149   -1.5255 H   0  0  0  0  0  0  0  0  0  0  0  0
   -2.2351   -3.0943    1.4124 H   0  0  0  0  0  0  0  0  0  0  0  0
   -3.1185   -1.8982    0.4403 H   0  0  0  0  0  0  0  0  0  0  0  0
   -3.2186   -3.5778   -0.0004 H   0  0  0  0  0  0  0  0  0  0  0  0
   -1.5602    4.3546   -0.0246 H   0  0  0  0  0  0  0  0  0  0  0  0
   -3.8407    5.2179   -0.4351 H   0  0  0  0  0  0  0  0  0  0  0  0
  1  2  1  0
  2  3  1  0
  3  4  2  0
  4  5  1  0
  5  6  2  0
  6  7  1  0
  7  8  2  0
  7  9  2  0
  7 10  1  0
 10 11  1  0
 10 12  1  0
 12 13  1  0
 13 14  1  0
 14 15  1  0
 15 16  2  0
 16 17  1  0
 17 18  1  0
 18 19  2  0
 18 20  1  0
 20 21  1  0
 21 22  2  0
 22 23  1  0
 23 24  2  0
 24 25  1  0
 25 26  1  0
 25 27  1  0
 25 28  1  0
 24 29  1  0
 29 30  2  0
 16 31  1  0
 31 32  2  0
 32 33  1  0
 33 34  2  0
 34 35  1  0
 35 36  2  0
 35 37  1  0
 37 38  1  0
 38 39  1  0
 38 40  1  0
 40 41  1  0
 37 42  1  0
 42 43  1  0
 43 44  1  0
  6 45  1  0
 45 46  2  0
 46  3  1  0
 43 13  1  0
 34 15  1  0
 30 21  1  0
  1 47  1  0
  1 48  1  0
  1 49  1  0
  4 50  1  0
  5 51  1  0
 11 52  1  0
 11 53  1  0
 11 54  1  0
 12 55  1  0
 12 56  1  0
 13 57  1  0
 17 58  1  0
 20 59  1  0
 22 60  1  0
 23 61  1  0
 29 62  1  0
 30 63  1  0
 31 64  1  0
 32 65  1  0
 33 66  1  0
 38 67  1  0
 39 68  1  0
 39 69  1  0
 39 70  1  0
 40 71  1  0
 40 72  1  0
 41 73  1  0
 42 74  1  0
 42 75  1  0
 43 76  1  0
 44 77  1  0
 44 78  1  0
 44 79  1  0
 45 80  1  0
 46 81  1  0
M  END
$$$$
