
     RDKit          3D

 51 55  0  0  0  0  0  0  0  0999 V2000
    2.6169   -1.0758    2.7155 O   0  0  0  0  0  0  0  0  0  0  0  0
    2.3148    0.0204    2.2529 C   0  0  0  0  0  0  0  0  0  0  0  0
    1.1093    0.8211    2.7527 C   0  0  0  0  0  0  0  0  0  0  0  0
   -0.0991    0.4578    2.0060 N   0  0  0  0  0  0  0  0  0  0  0  0
   -0.2218    0.9638    0.7145 C   0  0  0  0  0  0  0  0  0  0  0  0
    0.5800    1.7790    0.2482 O   0  0  0  0  0  0  0  0  0  0  0  0
   -1.3315    0.4060   -0.1413 C   0  0  0  0  0  0  0  0  0  0  0  0
   -2.6073    1.2116    0.0213 C   0  0  0  0  0  0  0  0  0  0  0  0
   -3.7260    0.5783   -0.7479 C   0  0  0  0  0  0  0  0  0  0  0  0
   -4.6740   -0.3857   -0.4700 C   0  0  0  0  0  0  0  0  0  0  0  0
   -5.4613   -0.5295   -1.6376 C   0  0  0  0  0  0  0  0  0  0  0  0
   -4.9218    0.3235   -2.5700 C   0  0  0  0  0  0  0  0  0  0  0  0
   -3.8688    0.9953   -2.0404 O   0  0  0  0  0  0  0  0  0  0  0  0
   -3.1042    1.5304    1.7618 S   0  0  0  0  0  0  0  0  0  0  0  0
   -2.4918    0.0567    2.5815 C   0  0  0  0  0  0  0  0  0  0  0  0
   -3.4436   -0.6917    3.2933 C   0  0  0  0  0  0  0  0  0  0  0  0
   -3.0595   -1.7735    4.0846 C   0  0  0  0  0  0  0  0  0  0  0  0
   -1.7136   -2.1008    4.1992 C   0  0  0  0  0  0  0  0  0  0  0  0
   -0.7535   -1.3543    3.5139 C   0  0  0  0  0  0  0  0  0  0  0  0
   -1.1225   -0.2775    2.6842 C   0  0  0  0  0  0  0  0  0  0  0  0
    2.9755    0.6111    1.2047 N   0  0  0  0  0  0  0  0  0  0  0  0
    4.0441   -0.0508    0.4950 C   0  0  0  0  0  0  0  0  0  0  0  0
    3.6869   -0.2062   -0.9617 C   0  0  0  0  0  0  0  0  0  0  0  0
    2.9371   -1.3245   -1.3948 C   0  0  0  0  0  0  0  0  0  0  0  0
    2.5644   -1.4662   -2.7371 C   0  0  0  0  0  0  0  0  0  0  0  0
    2.9458   -0.4770   -3.6161 C   0  0  0  0  0  0  0  0  0  0  0  0
    3.6646    0.6188   -3.2022 C   0  0  0  0  0  0  0  0  0  0  0  0
    4.0472    0.7865   -1.8873 C   0  0  0  0  0  0  0  0  0  0  0  0
    3.9340    1.4773   -4.2214 O   0  0  0  0  0  0  0  0  0  0  0  0
    3.2993    0.7952   -5.3252 C   0  0  0  0  0  0  0  0  0  0  0  0
    2.6743   -0.4463   -4.9496 O   0  0  0  0  0  0  0  0  0  0  0  0
    0.9884    0.6504    3.8272 H   0  0  0  0  0  0  0  0  0  0  0  0
    1.3064    1.8922    2.6295 H   0  0  0  0  0  0  0  0  0  0  0  0
   -0.9926    0.4434   -1.1871 H   0  0  0  0  0  0  0  0  0  0  0  0
   -1.4707   -0.6645    0.0639 H   0  0  0  0  0  0  0  0  0  0  0  0
   -2.4373    2.2124   -0.3983 H   0  0  0  0  0  0  0  0  0  0  0  0
   -4.7947   -0.9091    0.4633 H   0  0  0  0  0  0  0  0  0  0  0  0
   -6.3066   -1.1836   -1.7869 H   0  0  0  0  0  0  0  0  0  0  0  0
   -5.1608    0.5599   -3.5998 H   0  0  0  0  0  0  0  0  0  0  0  0
   -4.4971   -0.4223    3.2482 H   0  0  0  0  0  0  0  0  0  0  0  0
   -3.8092   -2.3469    4.6205 H   0  0  0  0  0  0  0  0  0  0  0  0
   -1.4046   -2.9372    4.8237 H   0  0  0  0  0  0  0  0  0  0  0  0
    0.2882   -1.6548    3.6166 H   0  0  0  0  0  0  0  0  0  0  0  0
    2.4535    1.3195    0.6938 H   0  0  0  0  0  0  0  0  0  0  0  0
    4.2766   -1.0248    0.9384 H   0  0  0  0  0  0  0  0  0  0  0  0
    4.9379    0.5744    0.6017 H   0  0  0  0  0  0  0  0  0  0  0  0
    2.6397   -2.0859   -0.6746 H   0  0  0  0  0  0  0  0  0  0  0  0
    1.9923   -2.3227   -3.0746 H   0  0  0  0  0  0  0  0  0  0  0  0
    4.6060    1.6665   -1.5873 H   0  0  0  0  0  0  0  0  0  0  0  0
    4.0550    0.5902   -6.0928 H   0  0  0  0  0  0  0  0  0  0  0  0
    2.5358    1.4542   -5.7520 H   0  0  0  0  0  0  0  0  0  0  0  0
  1  2  2  0
  2  3  1  0
  3  4  1  0
  4  5  1  0
  5  6  2  0
  5  7  1  0
  7  8  1  0
  8  9  1  0
  9 10  2  0
 10 11  1  0
 11 12  2  0
 12 13  1  0
  8 14  1  0
 14 15  1  0
 15 16  2  0
 16 17  1  0
 17 18  2  0
 18 19  1  0
 19 20  2  0
  2 21  1  0
 21 22  1  0
 22 23  1  0
 23 24  2  0
 24 25  1  0
 25 26  2  0
 26 27  1  0
 27 28  2  0
 27 29  1  0
 29 30  1  0
 30 31  1  0
 20  4  1  0
 28 23  1  0
 13  9  1  0
 20 15  1  0
 31 26  1  0
  3 32  1  0
  3 33  1  0
  7 34  1  0
  7 35  1  0
  8 36  1  0
 10 37  1  0
 11 38  1  0
 12 39  1  0
 16 40  1  0
 17 41  1  0
 18 42  1  0
 19 43  1  0
 21 44  1  0
 22 45  1  0
 22 46  1  0
 24 47  1  0
 25 48  1  0
 28 49  1  0
 30 50  1  0
 30 51  1  0
M  END
$$$$
