
     RDKit          3D

 39 42  0  0  0  0  0  0  0  0999 V2000
    6.0225    0.1663   -0.9742 C   0  0  0  0  0  0  0  0  0  0  0  0
    5.8375   -0.3893    0.3036 C   0  0  0  0  0  0  0  0  0  0  0  0
    4.5666   -0.4446    0.8854 C   0  0  0  0  0  0  0  0  0  0  0  0
    3.4934    0.0617    0.1719 C   0  0  0  0  0  0  0  0  0  0  0  0
    3.6865    0.6186   -1.1114 C   0  0  0  0  0  0  0  0  0  0  0  0
    4.9412    0.6772   -1.6948 C   0  0  0  0  0  0  0  0  0  0  0  0
    2.3663    1.0989   -1.6795 C   0  0  0  0  0  0  0  0  0  0  0  0
    1.4006    0.7500   -0.5656 C   0  0  0  0  0  0  0  0  0  0  0  0
    0.0316    0.9591   -0.5251 C   0  0  0  0  0  0  0  0  0  0  0  0
   -0.6778    0.5455    0.6145 C   0  0  0  0  0  0  0  0  0  0  0  0
   -2.1755    0.7679    0.7039 C   0  0  0  0  0  0  0  0  0  0  0  0
   -2.9207    0.1880   -0.4260 N   0  0  0  0  0  0  0  0  0  0  0  0
   -2.8862   -1.2923   -0.4398 C   0  0  0  0  0  0  0  0  0  0  0  0
   -3.7601   -1.9517    0.6405 C   0  0  0  0  0  0  0  0  0  0  0  0
   -5.1180   -1.5002    0.5629 O   0  0  0  0  0  0  0  0  0  0  0  0
   -5.1889   -0.0738    0.6699 C   0  0  0  0  0  0  0  0  0  0  0  0
   -4.3370    0.6147   -0.4106 C   0  0  0  0  0  0  0  0  0  0  0  0
    0.0162   -0.0586    1.6878 C   0  0  0  0  0  0  0  0  0  0  0  0
    1.4005   -0.2640    1.6370 C   0  0  0  0  0  0  0  0  0  0  0  0
    2.0869    0.1423    0.5063 C   0  0  0  0  0  0  0  0  0  0  0  0
    7.0205    0.1977   -1.4053 H   0  0  0  0  0  0  0  0  0  0  0  0
    6.6946   -0.7813    0.8462 H   0  0  0  0  0  0  0  0  0  0  0  0
    4.4347   -0.8755    1.8717 H   0  0  0  0  0  0  0  0  0  0  0  0
    5.0840    1.1058   -2.6810 H   0  0  0  0  0  0  0  0  0  0  0  0
    2.3881    2.1794   -1.8484 H   0  0  0  0  0  0  0  0  0  0  0  0
    2.1167    0.5523   -2.5935 H   0  0  0  0  0  0  0  0  0  0  0  0
   -0.4859    1.4229   -1.3600 H   0  0  0  0  0  0  0  0  0  0  0  0
   -2.5503    0.4017    1.6666 H   0  0  0  0  0  0  0  0  0  0  0  0
   -2.3209    1.8567    0.7169 H   0  0  0  0  0  0  0  0  0  0  0  0
   -1.8602   -1.6705   -0.3748 H   0  0  0  0  0  0  0  0  0  0  0  0
   -3.2581   -1.6124   -1.4222 H   0  0  0  0  0  0  0  0  0  0  0  0
   -3.7679   -3.0366    0.4935 H   0  0  0  0  0  0  0  0  0  0  0  0
   -3.3743   -1.7614    1.6482 H   0  0  0  0  0  0  0  0  0  0  0  0
   -6.2384    0.2122    0.5461 H   0  0  0  0  0  0  0  0  0  0  0  0
   -4.8850    0.2269    1.6789 H   0  0  0  0  0  0  0  0  0  0  0  0
   -4.7616    0.3691   -1.3928 H   0  0  0  0  0  0  0  0  0  0  0  0
   -4.4110    1.7042   -0.3127 H   0  0  0  0  0  0  0  0  0  0  0  0
   -0.5257   -0.3758    2.5764 H   0  0  0  0  0  0  0  0  0  0  0  0
    1.9153   -0.7311    2.4695 H   0  0  0  0  0  0  0  0  0  0  0  0
  1  2  2  0
  2  3  1  0
  3  4  2  0
  4  5  1  0
  5  6  2  0
  5  7  1  0
  7  8  1  0
  8  9  2  0
  9 10  1  0
 10 11  1  0
 11 12  1  0
 12 13  1  0
 13 14  1  0
 14 15  1  0
 15 16  1  0
 16 17  1  0
 10 18  2  0
 18 19  1  0
 19 20  2  0
  6  1  1  0
 20  8  1  0
 20  4  1  0
 17 12  1  0
  1 21  1  0
  2 22  1  0
  3 23  1  0
  6 24  1  0
  7 25  1  0
  7 26  1  0
  9 27  1  0
 11 28  1  0
 11 29  1  0
 13 30  1  0
 13 31  1  0
 14 32  1  0
 14 33  1  0
 16 34  1  0
 16 35  1  0
 17 36  1  0
 17 37  1  0
 18 38  1  0
 19 39  1  0
M  END
$$$$
