
     RDKit          3D

 37 39  0  0  0  0  0  0  0  0999 V2000
   -5.5628    0.8594   -0.9265 C   0  0  0  0  0  0  0  0  0  0  0  0
   -4.8324    1.0382    0.3721 C   0  0  0  0  0  0  0  0  0  0  0  0
   -5.0854    2.1592    1.1749 C   0  0  0  0  0  0  0  0  0  0  0  0
   -4.4182    2.3277    2.3909 C   0  0  0  0  0  0  0  0  0  0  0  0
   -3.4943    1.3764    2.8203 C   0  0  0  0  0  0  0  0  0  0  0  0
   -3.2246    0.2626    2.0276 C   0  0  0  0  0  0  0  0  0  0  0  0
   -3.8708    0.1120    0.7997 C   0  0  0  0  0  0  0  0  0  0  0  0
   -3.6011   -0.9945    0.0367 O   0  0  0  0  0  0  0  0  0  0  0  0
   -2.4542   -0.7801   -0.7780 C   0  0  0  0  0  0  0  0  0  0  0  0
   -1.1136   -1.2285   -0.1734 C   0  0  0  0  0  0  0  0  0  0  0  0
   -1.0463   -1.9834    0.7903 O   0  0  0  0  0  0  0  0  0  0  0  0
   -0.0391   -0.6910   -0.8576 N   0  0  0  0  0  0  0  0  0  0  0  0
    1.2539   -0.9420   -0.4880 C   0  0  0  0  0  0  0  0  0  0  0  0
    1.7364   -1.6632    0.4895 N   0  0  0  0  0  0  0  0  0  0  0  0
    3.1183   -1.6410    0.5047 N   0  0  0  0  0  0  0  0  0  0  0  0
    3.6325   -0.9085   -0.4676 C   0  0  0  0  0  0  0  0  0  0  0  0
    5.0764   -0.7085   -0.6816 C   0  0  0  0  0  0  0  0  0  0  0  0
    5.9757   -1.2139    0.2668 C   0  0  0  0  0  0  0  0  0  0  0  0
    7.3351   -1.0311    0.0748 C   0  0  0  0  0  0  0  0  0  0  0  0
    7.8586   -0.3871   -0.9871 N   0  0  0  0  0  0  0  0  0  0  0  0
    6.9863    0.0913   -1.8955 C   0  0  0  0  0  0  0  0  0  0  0  0
    5.6095   -0.0412   -1.7903 C   0  0  0  0  0  0  0  0  0  0  0  0
    2.4251   -0.1832   -1.4673 S   0  0  0  0  0  0  0  0  0  0  0  0
   -6.4242    1.5324   -0.9959 H   0  0  0  0  0  0  0  0  0  0  0  0
   -5.9423   -0.1638   -1.0181 H   0  0  0  0  0  0  0  0  0  0  0  0
   -4.8940    1.0730   -1.7658 H   0  0  0  0  0  0  0  0  0  0  0  0
   -5.8151    2.9043    0.8656 H   0  0  0  0  0  0  0  0  0  0  0  0
   -4.6315    3.1949    3.0113 H   0  0  0  0  0  0  0  0  0  0  0  0
   -2.9913    1.4950    3.7764 H   0  0  0  0  0  0  0  0  0  0  0  0
   -2.5220   -0.4910    2.3753 H   0  0  0  0  0  0  0  0  0  0  0  0
   -2.5991   -1.3803   -1.6846 H   0  0  0  0  0  0  0  0  0  0  0  0
   -2.3801    0.2672   -1.1042 H   0  0  0  0  0  0  0  0  0  0  0  0
   -0.1756   -0.0823   -1.6499 H   0  0  0  0  0  0  0  0  0  0  0  0
    5.6269   -1.7448    1.1487 H   0  0  0  0  0  0  0  0  0  0  0  0
    8.0576   -1.4100    0.7922 H   0  0  0  0  0  0  0  0  0  0  0  0
    7.4360    0.6020   -2.7428 H   0  0  0  0  0  0  0  0  0  0  0  0
    4.9896    0.3739   -2.5764 H   0  0  0  0  0  0  0  0  0  0  0  0
  1  2  1  0
  2  3  2  0
  3  4  1  0
  4  5  2  0
  5  6  1  0
  6  7  2  0
  7  8  1  0
  8  9  1  0
  9 10  1  0
 10 11  2  0
 10 12  1  0
 12 13  1  0
 13 14  2  0
 14 15  1  0
 15 16  2  0
 16 17  1  0
 17 18  2  0
 18 19  1  0
 19 20  2  0
 20 21  1  0
 21 22  2  0
 16 23  1  0
  7  2  1  0
 23 13  1  0
 22 17  1  0
  1 24  1  0
  1 25  1  0
  1 26  1  0
  3 27  1  0
  4 28  1  0
  5 29  1  0
  6 30  1  0
  9 31  1  0
  9 32  1  0
 12 33  1  0
 18 34  1  0
 19 35  1  0
 21 36  1  0
 22 37  1  0
M  END
$$$$
