
     RDKit          3D

 53 54  0  0  0  0  0  0  0  0999 V2000
   -4.5498   -0.7773    1.9564 C   0  0  0  0  0  0  0  0  0  0  0  0
   -5.0932   -1.5573    0.7719 C   0  0  0  0  0  0  0  0  0  0  0  0
   -5.5535   -0.6076   -0.2716 N   0  0  0  0  0  0  0  0  0  0  0  0
   -6.9979   -0.2635   -0.1827 C   0  0  0  0  0  0  0  0  0  0  0  0
   -7.9114   -1.3216   -0.7865 C   0  0  0  0  0  0  0  0  0  0  0  0
   -4.9272   -0.8193   -1.8402 S   0  0  0  0  0  6  0  0  0  0  0  0
   -5.0535   -2.2219   -2.1807 O   0  0  0  0  0  0  0  0  0  0  0  0
   -5.4661    0.2157   -2.6955 O   0  0  0  0  0  0  0  0  0  0  0  0
   -3.2025   -0.4481   -1.6090 C   0  0  0  0  0  0  0  0  0  0  0  0
   -2.2381   -1.4485   -1.7484 C   0  0  0  0  0  0  0  0  0  0  0  0
   -0.8890   -1.1328   -1.5598 C   0  0  0  0  0  0  0  0  0  0  0  0
   -0.5028    0.1775   -1.2383 C   0  0  0  0  0  0  0  0  0  0  0  0
    0.9474    0.4545   -1.0368 C   0  0  0  0  0  0  0  0  0  0  0  0
    1.8215   -0.3975   -1.1087 O   0  0  0  0  0  0  0  0  0  0  0  0
    1.1485    1.7720   -0.7764 O   0  0  0  0  0  0  0  0  0  0  0  0
    2.5005    2.0936   -0.4566 C   0  0  0  0  0  0  0  0  0  0  0  0
    2.9376    1.5571    0.9120 C   0  0  0  0  0  0  0  0  0  0  0  0
    2.1411    1.2715    1.8079 O   0  0  0  0  0  0  0  0  0  0  0  0
    4.3070    1.4299    1.0415 N   0  0  0  0  0  0  0  0  0  0  0  0
    4.9384    0.9316    2.2546 C   0  0  0  0  0  0  0  0  0  0  0  0
    5.8518   -0.2732    1.9720 C   0  0  0  0  0  0  0  0  0  0  0  0
    7.0180    0.0761    1.1698 N   0  0  0  0  0  0  0  0  0  0  0  0
    7.0493    0.2013   -0.2003 C   0  0  0  0  0  0  0  0  0  0  0  0
    5.9516   -0.0454   -0.9720 O   0  0  0  0  0  0  0  0  0  0  0  0
    8.2155    0.6289   -0.6958 C   0  0  0  0  0  0  0  0  0  0  0  0
    9.3838    0.9016    0.5594 S   0  0  0  0  0  0  0  0  0  0  0  0
    8.2012    0.4556    1.8033 C   0  0  0  0  0  0  0  0  0  0  0  0
    8.4232    0.5043    3.0028 O   0  0  0  0  0  0  0  0  0  0  0  0
   -1.4819    1.1754   -1.1128 C   0  0  0  0  0  0  0  0  0  0  0  0
   -2.8313    0.8649   -1.3026 C   0  0  0  0  0  0  0  0  0  0  0  0
   -3.6506   -0.2194    1.6717 H   0  0  0  0  0  0  0  0  0  0  0  0
   -5.2736   -0.0422    2.3331 H   0  0  0  0  0  0  0  0  0  0  0  0
   -4.2851   -1.4570    2.7704 H   0  0  0  0  0  0  0  0  0  0  0  0
   -4.3040   -2.2173    0.3961 H   0  0  0  0  0  0  0  0  0  0  0  0
   -5.9131   -2.2071    1.0944 H   0  0  0  0  0  0  0  0  0  0  0  0
   -7.1648    0.7049   -0.6698 H   0  0  0  0  0  0  0  0  0  0  0  0
   -7.2650   -0.1173    0.8724 H   0  0  0  0  0  0  0  0  0  0  0  0
   -7.7276   -2.3138   -0.3572 H   0  0  0  0  0  0  0  0  0  0  0  0
   -8.9577   -1.0590   -0.5943 H   0  0  0  0  0  0  0  0  0  0  0  0
   -7.7820   -1.3943   -1.8723 H   0  0  0  0  0  0  0  0  0  0  0  0
   -2.5241   -2.4671   -2.0007 H   0  0  0  0  0  0  0  0  0  0  0  0
   -0.1379   -1.9141   -1.6642 H   0  0  0  0  0  0  0  0  0  0  0  0
    2.5783    3.1869   -0.4195 H   0  0  0  0  0  0  0  0  0  0  0  0
    3.1735    1.7423   -1.2504 H   0  0  0  0  0  0  0  0  0  0  0  0
    4.9099    1.7525    0.2890 H   0  0  0  0  0  0  0  0  0  0  0  0
    5.5128    1.7655    2.6765 H   0  0  0  0  0  0  0  0  0  0  0  0
    4.1733    0.6445    2.9840 H   0  0  0  0  0  0  0  0  0  0  0  0
    6.2043   -0.6697    2.9327 H   0  0  0  0  0  0  0  0  0  0  0  0
    5.3024   -1.0870    1.4803 H   0  0  0  0  0  0  0  0  0  0  0  0
    5.3679   -0.6707   -0.5035 H   0  0  0  0  0  0  0  0  0  0  0  0
    8.4218    0.8000   -1.7434 H   0  0  0  0  0  0  0  0  0  0  0  0
   -1.2101    2.1991   -0.8650 H   0  0  0  0  0  0  0  0  0  0  0  0
   -3.5870    1.6429   -1.2078 H   0  0  0  0  0  0  0  0  0  0  0  0
  1  2  1  0
  2  3  1  0
  3  4  1  0
  4  5  1  0
  3  6  1  0
  6  7  2  0
  6  8  2  0
  6  9  1  0
  9 10  2  0
 10 11  1  0
 11 12  2  0
 12 13  1  0
 13 14  2  0
 13 15  1  0
 15 16  1  0
 16 17  1  0
 17 18  2  0
 17 19  1  0
 19 20  1  0
 20 21  1  0
 21 22  1  0
 22 23  1  0
 23 24  1  0
 23 25  2  0
 25 26  1  0
 26 27  1  0
 27 28  2  0
 12 29  1  0
 29 30  2  0
 30  9  1  0
 27 22  1  0
  1 31  1  0
  1 32  1  0
  1 33  1  0
  2 34  1  0
  2 35  1  0
  4 36  1  0
  4 37  1  0
  5 38  1  0
  5 39  1  0
  5 40  1  0
 10 41  1  0
 11 42  1  0
 16 43  1  0
 16 44  1  0
 19 45  1  0
 20 46  1  0
 20 47  1  0
 21 48  1  0
 21 49  1  0
 24 50  1  0
 25 51  1  0
 29 52  1  0
 30 53  1  0
M  END
$$$$
