
     RDKit          3D

 49 51  0  0  0  0  0  0  0  0999 V2000
   -0.6101    3.0365    2.1956 C   0  0  0  0  0  0  0  0  0  0  0  0
   -0.7427    1.7797    1.3790 C   0  0  0  0  0  0  0  0  0  0  0  0
   -2.0059    1.1936    1.2097 C   0  0  0  0  0  0  0  0  0  0  0  0
   -2.1346    0.0214    0.4620 C   0  0  0  0  0  0  0  0  0  0  0  0
   -3.7449   -0.6944    0.2542 S   0  0  0  0  0  6  0  0  0  0  0  0
   -4.3357   -0.8161    1.5692 O   0  0  0  0  0  0  0  0  0  0  0  0
   -3.6326   -1.8348   -0.6309 O   0  0  0  0  0  0  0  0  0  0  0  0
   -4.5891    0.5250   -0.5951 N   0  0  0  0  0  0  0  0  0  0  0  0
   -4.0845    0.7953   -1.9806 C   0  0  0  0  0  0  0  0  0  0  0  0
   -4.8553    1.9766   -2.5819 C   0  0  0  0  0  0  0  0  0  0  0  0
   -6.2647    1.7106   -2.6224 O   0  0  0  0  0  0  0  0  0  0  0  0
   -6.7670    1.4740   -1.2982 C   0  0  0  0  0  0  0  0  0  0  0  0
   -6.0680    0.2781   -0.6420 C   0  0  0  0  0  0  0  0  0  0  0  0
   -1.0166   -0.5862   -0.1071 C   0  0  0  0  0  0  0  0  0  0  0  0
    0.2440   -0.0060    0.0611 C   0  0  0  0  0  0  0  0  0  0  0  0
    0.3898    1.1785    0.7930 C   0  0  0  0  0  0  0  0  0  0  0  0
    1.5770    1.8243    1.0160 O   0  0  0  0  0  0  0  0  0  0  0  0
    2.7301    1.3956    0.3142 C   0  0  0  0  0  0  0  0  0  0  0  0
    3.4719    0.1779    0.8920 C   0  0  0  0  0  0  0  0  0  0  0  0
    3.1258   -0.3748    1.9301 O   0  0  0  0  0  0  0  0  0  0  0  0
    4.5452   -0.1966    0.0962 N   0  0  0  0  0  0  0  0  0  0  0  0
    5.4373   -1.2717    0.3034 C   0  0  0  0  0  0  0  0  0  0  0  0
    5.3664   -2.1665    1.3711 C   0  0  0  0  0  0  0  0  0  0  0  0
    6.3025   -3.2030    1.4841 C   0  0  0  0  0  0  0  0  0  0  0  0
    7.3099   -3.3461    0.5297 C   0  0  0  0  0  0  0  0  0  0  0  0
    8.5663   -4.7479    0.6930 Br  0  0  0  0  0  0  0  0  0  0  0  0
    7.3951   -2.4641   -0.5411 C   0  0  0  0  0  0  0  0  0  0  0  0
    6.4599   -1.4395   -0.6418 C   0  0  0  0  0  0  0  0  0  0  0  0
    6.5408   -0.5877   -1.6774 F   0  0  0  0  0  0  0  0  0  0  0  0
   -1.5826    3.3824    2.5616 H   0  0  0  0  0  0  0  0  0  0  0  0
    0.0283    2.8563    3.0665 H   0  0  0  0  0  0  0  0  0  0  0  0
   -0.1810    3.8401    1.5885 H   0  0  0  0  0  0  0  0  0  0  0  0
   -2.8876    1.6430    1.6633 H   0  0  0  0  0  0  0  0  0  0  0  0
   -3.0200    1.0437   -1.9588 H   0  0  0  0  0  0  0  0  0  0  0  0
   -4.2354   -0.0946   -2.6025 H   0  0  0  0  0  0  0  0  0  0  0  0
   -4.5223    2.1531   -3.6094 H   0  0  0  0  0  0  0  0  0  0  0  0
   -4.6809    2.8958   -2.0099 H   0  0  0  0  0  0  0  0  0  0  0  0
   -6.6381    2.3843   -0.7006 H   0  0  0  0  0  0  0  0  0  0  0  0
   -7.8405    1.2775   -1.3818 H   0  0  0  0  0  0  0  0  0  0  0  0
   -6.2630   -0.6310   -1.2229 H   0  0  0  0  0  0  0  0  0  0  0  0
   -6.4621    0.1511    0.3710 H   0  0  0  0  0  0  0  0  0  0  0  0
   -1.1113   -1.5127   -0.6693 H   0  0  0  0  0  0  0  0  0  0  0  0
    1.0929   -0.5216   -0.3747 H   0  0  0  0  0  0  0  0  0  0  0  0
    3.4391    2.2318    0.3582 H   0  0  0  0  0  0  0  0  0  0  0  0
    2.5112    1.2378   -0.7494 H   0  0  0  0  0  0  0  0  0  0  0  0
    4.7428    0.3613   -0.7294 H   0  0  0  0  0  0  0  0  0  0  0  0
    4.5982   -2.0902    2.1350 H   0  0  0  0  0  0  0  0  0  0  0  0
    6.2320   -3.8912    2.3239 H   0  0  0  0  0  0  0  0  0  0  0  0
    8.1701   -2.5575   -1.2943 H   0  0  0  0  0  0  0  0  0  0  0  0
  1  2  1  0
  2  3  2  0
  3  4  1  0
  4  5  1  0
  5  6  2  0
  5  7  2  0
  5  8  1  0
  8  9  1  0
  9 10  1  0
 10 11  1  0
 11 12  1  0
 12 13  1  0
  4 14  2  0
 14 15  1  0
 15 16  2  0
 16 17  1  0
 17 18  1  0
 18 19  1  0
 19 20  2  0
 19 21  1  0
 21 22  1  0
 22 23  2  0
 23 24  1  0
 24 25  2  0
 25 26  1  0
 25 27  1  0
 27 28  2  0
 28 29  1  0
 16  2  1  0
 28 22  1  0
 13  8  1  0
  1 30  1  0
  1 31  1  0
  1 32  1  0
  3 33  1  0
  9 34  1  0
  9 35  1  0
 10 36  1  0
 10 37  1  0
 12 38  1  0
 12 39  1  0
 13 40  1  0
 13 41  1  0
 14 42  1  0
 15 43  1  0
 18 44  1  0
 18 45  1  0
 21 46  1  0
 23 47  1  0
 24 48  1  0
 27 49  1  0
M  END
$$$$
