
     RDKit          3D

 69 74  0  0  0  0  0  0  0  0999 V2000
    6.3818   -2.8339    2.1877 C   0  0  0  0  0  0  0  0  0  0  0  0
    6.1692   -2.4915    0.8266 O   0  0  0  0  0  0  0  0  0  0  0  0
    4.9358   -1.9997    0.4761 C   0  0  0  0  0  0  0  0  0  0  0  0
    3.8767   -1.8087    1.3705 C   0  0  0  0  0  0  0  0  0  0  0  0
    2.6442   -1.3056    0.9265 C   0  0  0  0  0  0  0  0  0  0  0  0
    2.4746   -0.9662   -0.4271 C   0  0  0  0  0  0  0  0  0  0  0  0
    3.5368   -1.1665   -1.3241 C   0  0  0  0  0  0  0  0  0  0  0  0
    4.7654   -1.6714   -0.8828 C   0  0  0  0  0  0  0  0  0  0  0  0
    5.8492   -1.8909   -1.6973 O   0  0  0  0  0  0  0  0  0  0  0  0
    5.7785   -1.4104   -3.0314 C   0  0  0  0  0  0  0  0  0  0  0  0
    1.1435   -0.4552   -0.9512 C   0  0  0  0  0  0  0  0  0  0  0  0
    0.3273    0.0950    0.1417 N   0  0  0  0  0  0  0  0  0  0  0  0
   -0.9353    0.5007   -0.3283 C   0  0  0  0  0  0  0  0  0  0  0  0
   -1.6749   -0.3406   -1.0878 N   0  0  0  0  0  0  0  0  0  0  0  0
   -2.8962    0.0443   -1.5197 C   0  0  0  0  0  0  0  0  0  0  0  0
   -3.6866   -0.9703   -2.3409 C   0  0  0  0  0  0  0  0  0  0  0  0
   -4.5807   -1.8551   -1.5570 N   0  0  0  0  0  0  0  0  0  0  0  0
   -3.8157   -2.6890   -0.6031 C   0  0  0  0  0  0  0  0  0  0  0  0
   -4.5811   -3.9652   -0.2226 C   0  0  0  0  0  0  0  0  0  0  0  0
   -4.7933   -4.8353   -1.3438 O   0  0  0  0  0  0  0  0  0  0  0  0
   -4.8925   -4.1335   -2.5900 C   0  0  0  0  0  0  0  0  0  0  0  0
   -5.4184   -2.6977   -2.4352 C   0  0  0  0  0  0  0  0  0  0  0  0
   -3.4800    1.2248   -1.2753 N   0  0  0  0  0  0  0  0  0  0  0  0
   -2.7256    2.0382   -0.5219 C   0  0  0  0  0  0  0  0  0  0  0  0
   -3.2988    3.5856   -0.0943 S   0  0  0  0  0  0  0  0  0  0  0  0
   -1.8845    3.9300    0.7820 C   0  0  0  0  0  0  0  0  0  0  0  0
   -0.9702    2.8930    0.7478 C   0  0  0  0  0  0  0  0  0  0  0  0
   -1.4654    1.7686   -0.0129 C   0  0  0  0  0  0  0  0  0  0  0  0
    0.3477    2.9803    1.4623 C   0  0  0  0  0  0  0  0  0  0  0  0
    0.6879    4.4216    1.8762 C   0  0  0  0  0  0  0  0  0  0  0  0
   -0.5275    5.1477    2.4912 C   0  0  0  0  0  0  0  0  0  0  0  0
   -0.1356    6.5382    2.9863 C   0  0  0  0  0  0  0  0  0  0  0  0
   -1.6819    5.2448    1.4698 C   0  0  0  0  0  0  0  0  0  0  0  0
    0.1696   -0.8658    1.2422 C   0  0  0  0  0  0  0  0  0  0  0  0
    1.5306   -1.0635    1.9197 C   0  0  0  0  0  0  0  0  0  0  0  0
    7.4028   -3.2170    2.2812 H   0  0  0  0  0  0  0  0  0  0  0  0
    6.2971   -1.9537    2.8337 H   0  0  0  0  0  0  0  0  0  0  0  0
    5.6995   -3.6285    2.5081 H   0  0  0  0  0  0  0  0  0  0  0  0
    3.9847   -2.0408    2.4250 H   0  0  0  0  0  0  0  0  0  0  0  0
    3.3764   -0.9227   -2.3696 H   0  0  0  0  0  0  0  0  0  0  0  0
    6.7498   -1.5879   -3.5034 H   0  0  0  0  0  0  0  0  0  0  0  0
    5.5890   -0.3322   -3.0572 H   0  0  0  0  0  0  0  0  0  0  0  0
    5.0259   -1.9588   -3.6066 H   0  0  0  0  0  0  0  0  0  0  0  0
    1.3333    0.3354   -1.6888 H   0  0  0  0  0  0  0  0  0  0  0  0
    0.6456   -1.2949   -1.4551 H   0  0  0  0  0  0  0  0  0  0  0  0
   -4.2908   -0.3920   -3.0517 H   0  0  0  0  0  0  0  0  0  0  0  0
   -2.9836   -1.5640   -2.9400 H   0  0  0  0  0  0  0  0  0  0  0  0
   -2.8556   -2.9928   -1.0404 H   0  0  0  0  0  0  0  0  0  0  0  0
   -3.6107   -2.1079    0.3025 H   0  0  0  0  0  0  0  0  0  0  0  0
   -5.5564   -3.7229    0.2159 H   0  0  0  0  0  0  0  0  0  0  0  0
   -4.0199   -4.5317    0.5279 H   0  0  0  0  0  0  0  0  0  0  0  0
   -3.9031   -4.1354   -3.0618 H   0  0  0  0  0  0  0  0  0  0  0  0
   -5.5608   -4.7107   -3.2369 H   0  0  0  0  0  0  0  0  0  0  0  0
   -5.5625   -2.2412   -3.4216 H   0  0  0  0  0  0  0  0  0  0  0  0
   -6.4128   -2.7454   -1.9733 H   0  0  0  0  0  0  0  0  0  0  0  0
    0.2992    2.3503    2.3585 H   0  0  0  0  0  0  0  0  0  0  0  0
    1.1557    2.5976    0.8299 H   0  0  0  0  0  0  0  0  0  0  0  0
    1.0339    4.9779    0.9947 H   0  0  0  0  0  0  0  0  0  0  0  0
    1.5234    4.4036    2.5856 H   0  0  0  0  0  0  0  0  0  0  0  0
   -0.8736    4.5640    3.3557 H   0  0  0  0  0  0  0  0  0  0  0  0
    0.2371    7.1616    2.1668 H   0  0  0  0  0  0  0  0  0  0  0  0
   -0.9953    7.0471    3.4356 H   0  0  0  0  0  0  0  0  0  0  0  0
    0.6505    6.4729    3.7459 H   0  0  0  0  0  0  0  0  0  0  0  0
   -1.4496    6.0034    0.7107 H   0  0  0  0  0  0  0  0  0  0  0  0
   -2.5987    5.5618    1.9823 H   0  0  0  0  0  0  0  0  0  0  0  0
   -0.5422   -0.4984    1.9930 H   0  0  0  0  0  0  0  0  0  0  0  0
   -0.2084   -1.8284    0.8697 H   0  0  0  0  0  0  0  0  0  0  0  0
    1.4616   -1.9025    2.6216 H   0  0  0  0  0  0  0  0  0  0  0  0
    1.7838   -0.1630    2.4936 H   0  0  0  0  0  0  0  0  0  0  0  0
  1  2  1  0
  2  3  1  0
  3  4  2  0
  4  5  1  0
  5  6  2  0
  6  7  1  0
  7  8  2  0
  8  9  1  0
  9 10  1  0
  6 11  1  0
 11 12  1  0
 12 13  1  0
 13 14  2  0
 14 15  1  0
 15 16  1  0
 16 17  1  0
 17 18  1  0
 18 19  1  0
 19 20  1  0
 20 21  1  0
 21 22  1  0
 15 23  2  0
 23 24  1  0
 24 25  1  0
 25 26  1  0
 26 27  2  0
 27 28  1  0
 27 29  1  0
 29 30  1  0
 30 31  1  0
 31 32  1  0
 31 33  1  0
 12 34  1  0
 34 35  1  0
  8  3  1  0
 28 13  1  0
 35  5  1  0
 22 17  1  0
 28 24  2  0
 33 26  1  0
  1 36  1  0
  1 37  1  0
  1 38  1  0
  4 39  1  0
  7 40  1  0
 10 41  1  0
 10 42  1  0
 10 43  1  0
 11 44  1  0
 11 45  1  0
 16 46  1  0
 16 47  1  0
 18 48  1  0
 18 49  1  0
 19 50  1  0
 19 51  1  0
 21 52  1  0
 21 53  1  0
 22 54  1  0
 22 55  1  0
 29 56  1  0
 29 57  1  0
 30 58  1  0
 30 59  1  0
 31 60  1  0
 32 61  1  0
 32 62  1  0
 32 63  1  0
 33 64  1  0
 33 65  1  0
 34 66  1  0
 34 67  1  0
 35 68  1  0
 35 69  1  0
M  END
$$$$
