
     RDKit          3D

 32 33  0  0  0  0  0  0  0  0999 V2000
   -5.8865   -0.2558   -0.2659 C   0  0  0  0  0  0  0  0  0  0  0  0
   -4.3894   -0.3435   -0.2110 C   0  0  0  0  0  0  0  0  0  0  0  0
   -3.7319   -1.5098   -0.6222 C   0  0  0  0  0  0  0  0  0  0  0  0
   -2.3392   -1.6063   -0.5396 C   0  0  0  0  0  0  0  0  0  0  0  0
   -1.5958   -3.0861   -1.0324 Cl  0  0  0  0  0  0  0  0  0  0  0  0
   -1.5839   -0.5317   -0.0545 C   0  0  0  0  0  0  0  0  0  0  0  0
   -0.2192   -0.6350    0.0564 O   0  0  0  0  0  0  0  0  0  0  0  0
    0.4232   -0.2078   -1.1519 C   0  0  0  0  0  0  0  0  0  0  0  0
    1.9324   -0.2925   -0.9527 C   0  0  0  0  0  0  0  0  0  0  0  0
    2.4031    0.6060    0.1892 C   0  0  0  0  0  0  0  0  0  0  0  0
    3.8453    0.5853    0.3326 N   0  0  0  0  0  0  0  0  0  0  0  0
    4.7301    1.4428   -0.2575 C   0  0  0  0  0  0  0  0  0  0  0  0
    5.9663    1.0307    0.1832 C   0  0  0  0  0  0  0  0  0  0  0  0
    5.8497   -0.0465    1.0236 N   0  0  0  0  0  0  0  0  0  0  0  0
    4.5603   -0.2894    1.0987 C   0  0  0  0  0  0  0  0  0  0  0  0
   -2.2424    0.6161    0.4020 C   0  0  0  0  0  0  0  0  0  0  0  0
   -1.2939    2.0734    1.1658 Br  0  0  0  0  0  0  0  0  0  0  0  0
   -3.6357    0.7114    0.3190 C   0  0  0  0  0  0  0  0  0  0  0  0
   -6.3176   -0.6304    0.6676 H   0  0  0  0  0  0  0  0  0  0  0  0
   -6.2114    0.7791   -0.4164 H   0  0  0  0  0  0  0  0  0  0  0  0
   -6.2816   -0.8446   -1.1004 H   0  0  0  0  0  0  0  0  0  0  0  0
   -4.3081   -2.3520   -1.0008 H   0  0  0  0  0  0  0  0  0  0  0  0
    0.1394    0.8224   -1.4000 H   0  0  0  0  0  0  0  0  0  0  0  0
    0.1377   -0.8575   -1.9873 H   0  0  0  0  0  0  0  0  0  0  0  0
    2.2120   -1.3300   -0.7298 H   0  0  0  0  0  0  0  0  0  0  0  0
    2.4366   -0.0154   -1.8862 H   0  0  0  0  0  0  0  0  0  0  0  0
    1.9762    0.2937    1.1489 H   0  0  0  0  0  0  0  0  0  0  0  0
    2.1069    1.6470    0.0154 H   0  0  0  0  0  0  0  0  0  0  0  0
    4.4251    2.2433   -0.9161 H   0  0  0  0  0  0  0  0  0  0  0  0
    6.9334    1.4523   -0.0583 H   0  0  0  0  0  0  0  0  0  0  0  0
    4.0997   -1.0762    1.6824 H   0  0  0  0  0  0  0  0  0  0  0  0
   -4.1407    1.6072    0.6763 H   0  0  0  0  0  0  0  0  0  0  0  0
  1  2  1  0
  2  3  2  0
  3  4  1  0
  4  5  1  0
  4  6  2  0
  6  7  1  0
  7  8  1  0
  8  9  1  0
  9 10  1  0
 10 11  1  0
 11 12  1  0
 12 13  2  0
 13 14  1  0
 14 15  2  0
  6 16  1  0
 16 17  1  0
 16 18  2  0
 18  2  1  0
 15 11  1  0
  1 19  1  0
  1 20  1  0
  1 21  1  0
  3 22  1  0
  8 23  1  0
  8 24  1  0
  9 25  1  0
  9 26  1  0
 10 27  1  0
 10 28  1  0
 12 29  1  0
 13 30  1  0
 15 31  1  0
 18 32  1  0
M  END
$$$$
