
     RDKit          3D

 73 75  0  0  0  0  0  0  0  0999 V2000
   -2.0405   -1.9348   -3.9266 C   0  0  0  0  0  0  0  0  0  0  0  0
   -2.2774   -0.5932   -3.2394 C   0  0  0  0  0  0  0  0  0  0  0  0
   -1.8489   -0.5287   -1.7653 C   0  0  0  0  0  0  0  0  0  0  0  0
   -0.0456   -0.7847   -1.5667 S   0  0  0  0  0  0  0  0  0  0  0  0
    0.4136    0.8419   -1.1276 C   0  0  0  0  0  0  0  0  0  0  0  0
    0.2239    1.7541   -2.0227 N   0  0  0  0  0  0  0  0  0  0  0  0
    0.6085    3.0652   -1.7291 C   0  0  0  0  0  0  0  0  0  0  0  0
    0.3893    4.0600   -2.6847 C   0  0  0  0  0  0  0  0  0  0  0  0
    0.7628    5.3864   -2.4361 C   0  0  0  0  0  0  0  0  0  0  0  0
    0.5818    6.4199   -3.3222 O   0  0  0  0  0  0  0  0  0  0  0  0
    0.0667    6.1041   -4.6085 C   0  0  0  0  0  0  0  0  0  0  0  0
    1.3599    5.7251   -1.2031 C   0  0  0  0  0  0  0  0  0  0  0  0
    1.6851    7.0476   -1.0335 O   0  0  0  0  0  0  0  0  0  0  0  0
    2.1595    7.4497    0.2444 C   0  0  0  0  0  0  0  0  0  0  0  0
    1.5900    4.7280   -0.2521 C   0  0  0  0  0  0  0  0  0  0  0  0
    1.2103    3.4084   -0.5250 C   0  0  0  0  0  0  0  0  0  0  0  0
    1.4291    2.3356    0.4602 C   0  0  0  0  0  0  0  0  0  0  0  0
    2.0099    2.5976    1.5111 O   0  0  0  0  0  0  0  0  0  0  0  0
    0.9584    1.0683    0.1235 N   0  0  0  0  0  0  0  0  0  0  0  0
    1.1342    0.0212    1.1395 C   0  0  0  0  0  0  0  0  0  0  0  0
    2.4840   -0.6936    1.0075 C   0  0  0  0  0  0  0  0  0  0  0  0
    2.6178   -1.8002    2.0241 C   0  0  0  0  0  0  0  0  0  0  0  0
    2.1162   -3.0761    1.7496 C   0  0  0  0  0  0  0  0  0  0  0  0
    2.2071   -4.0924    2.7037 C   0  0  0  0  0  0  0  0  0  0  0  0
    2.7970   -3.8466    3.9481 C   0  0  0  0  0  0  0  0  0  0  0  0
    2.9253   -4.7841    4.9439 O   0  0  0  0  0  0  0  0  0  0  0  0
    2.4694   -6.1002    4.6702 C   0  0  0  0  0  0  0  0  0  0  0  0
    3.2979   -2.5613    4.2374 C   0  0  0  0  0  0  0  0  0  0  0  0
    3.8535   -2.3979    5.4826 O   0  0  0  0  0  0  0  0  0  0  0  0
    4.3505   -1.1095    5.8178 C   0  0  0  0  0  0  0  0  0  0  0  0
    3.2036   -1.5489    3.2736 C   0  0  0  0  0  0  0  0  0  0  0  0
   -2.6271   -1.5251   -0.8887 C   0  0  0  0  0  0  0  0  0  0  0  0
   -2.1361   -2.5269   -0.3722 O   0  0  0  0  0  0  0  0  0  0  0  0
   -3.9582   -1.1954   -0.7063 N   0  0  0  0  0  0  0  0  0  0  0  0
   -4.8422   -2.0246    0.0992 C   0  0  0  0  0  0  0  0  0  0  0  0
   -5.3328   -3.2756   -0.6329 C   0  0  0  0  0  0  0  0  0  0  0  0
   -6.3352   -2.9293   -1.5956 O   0  0  0  0  0  0  0  0  0  0  0  0
   -5.8508   -2.9747   -2.9316 C   0  0  0  0  0  0  0  0  0  0  0  0
   -2.5555   -2.7481   -3.4062 H   0  0  0  0  0  0  0  0  0  0  0  0
   -0.9773   -2.1820   -3.9818 H   0  0  0  0  0  0  0  0  0  0  0  0
   -2.4231   -1.9013   -4.9525 H   0  0  0  0  0  0  0  0  0  0  0  0
   -1.7592    0.1910   -3.8068 H   0  0  0  0  0  0  0  0  0  0  0  0
   -3.3465   -0.3602   -3.3161 H   0  0  0  0  0  0  0  0  0  0  0  0
   -2.0977    0.4673   -1.3753 H   0  0  0  0  0  0  0  0  0  0  0  0
   -0.0794    3.7657   -3.6180 H   0  0  0  0  0  0  0  0  0  0  0  0
    0.0508    7.0260   -5.1992 H   0  0  0  0  0  0  0  0  0  0  0  0
   -0.9624    5.7355   -4.5379 H   0  0  0  0  0  0  0  0  0  0  0  0
    0.7099    5.3869   -5.1305 H   0  0  0  0  0  0  0  0  0  0  0  0
    1.4361    7.2121    1.0312 H   0  0  0  0  0  0  0  0  0  0  0  0
    2.2826    8.5360    0.2263 H   0  0  0  0  0  0  0  0  0  0  0  0
    3.1367    7.0061    0.4568 H   0  0  0  0  0  0  0  0  0  0  0  0
    2.0611    4.9462    0.7014 H   0  0  0  0  0  0  0  0  0  0  0  0
    1.0586    0.4768    2.1356 H   0  0  0  0  0  0  0  0  0  0  0  0
    0.3044   -0.6912    1.0856 H   0  0  0  0  0  0  0  0  0  0  0  0
    2.6102   -1.1113    0.0010 H   0  0  0  0  0  0  0  0  0  0  0  0
    3.3071    0.0228    1.1293 H   0  0  0  0  0  0  0  0  0  0  0  0
    1.6418   -3.2890    0.7926 H   0  0  0  0  0  0  0  0  0  0  0  0
    1.8008   -5.0646    2.4445 H   0  0  0  0  0  0  0  0  0  0  0  0
    1.3893   -6.1154    4.4955 H   0  0  0  0  0  0  0  0  0  0  0  0
    2.6710   -6.7126    5.5537 H   0  0  0  0  0  0  0  0  0  0  0  0
    3.0121   -6.5423    3.8286 H   0  0  0  0  0  0  0  0  0  0  0  0
    3.5504   -0.3613    5.8073 H   0  0  0  0  0  0  0  0  0  0  0  0
    5.1753   -0.8206    5.1568 H   0  0  0  0  0  0  0  0  0  0  0  0
    4.7422   -1.1574    6.8390 H   0  0  0  0  0  0  0  0  0  0  0  0
    3.5743   -0.5476    3.4739 H   0  0  0  0  0  0  0  0  0  0  0  0
   -4.3790   -0.4446   -1.2398 H   0  0  0  0  0  0  0  0  0  0  0  0
   -5.6876   -1.3921    0.3875 H   0  0  0  0  0  0  0  0  0  0  0  0
   -4.2997   -2.3186    1.0032 H   0  0  0  0  0  0  0  0  0  0  0  0
   -5.8210   -3.9355    0.0950 H   0  0  0  0  0  0  0  0  0  0  0  0
   -4.5083   -3.8389   -1.0884 H   0  0  0  0  0  0  0  0  0  0  0  0
   -5.4881   -3.9786   -3.1750 H   0  0  0  0  0  0  0  0  0  0  0  0
   -6.6800   -2.7338   -3.6030 H   0  0  0  0  0  0  0  0  0  0  0  0
   -5.0608   -2.2345   -3.0807 H   0  0  0  0  0  0  0  0  0  0  0  0
  1  2  1  0
  2  3  1  0
  3  4  1  0
  4  5  1  0
  5  6  2  0
  6  7  1  0
  7  8  2  0
  8  9  1  0
  9 10  1  0
 10 11  1  0
  9 12  2  0
 12 13  1  0
 13 14  1  0
 12 15  1  0
 15 16  2  0
 16 17  1  0
 17 18  2  0
 17 19  1  0
 19 20  1  0
 20 21  1  0
 21 22  1  0
 22 23  2  0
 23 24  1  0
 24 25  2  0
 25 26  1  0
 26 27  1  0
 25 28  1  0
 28 29  1  0
 29 30  1  0
 28 31  2  0
  3 32  1  0
 32 33  2  0
 32 34  1  0
 34 35  1  0
 35 36  1  0
 36 37  1  0
 37 38  1  0
 19  5  1  0
 31 22  1  0
 16  7  1  0
  1 39  1  0
  1 40  1  0
  1 41  1  0
  2 42  1  0
  2 43  1  0
  3 44  1  0
  8 45  1  0
 11 46  1  0
 11 47  1  0
 11 48  1  0
 14 49  1  0
 14 50  1  0
 14 51  1  0
 15 52  1  0
 20 53  1  0
 20 54  1  0
 21 55  1  0
 21 56  1  0
 23 57  1  0
 24 58  1  0
 27 59  1  0
 27 60  1  0
 27 61  1  0
 30 62  1  0
 30 63  1  0
 30 64  1  0
 31 65  1  0
 34 66  1  0
 35 67  1  0
 35 68  1  0
 36 69  1  0
 36 70  1  0
 38 71  1  0
 38 72  1  0
 38 73  1  0
M  END
$$$$
