
     RDKit          3D

 48 50  0  0  0  0  0  0  0  0999 V2000
   -3.3587    2.9887   -3.6512 C   0  0  0  0  0  0  0  0  0  0  0  0
   -4.2181    2.1264   -2.9181 O   0  0  0  0  0  0  0  0  0  0  0  0
   -3.6953    1.4906   -1.8215 C   0  0  0  0  0  0  0  0  0  0  0  0
   -2.3948    1.6702   -1.3341 C   0  0  0  0  0  0  0  0  0  0  0  0
   -1.9482    0.9679   -0.2021 C   0  0  0  0  0  0  0  0  0  0  0  0
   -0.5811    1.1971    0.2855 C   0  0  0  0  0  0  0  0  0  0  0  0
    0.3946    0.2691    0.3565 C   0  0  0  0  0  0  0  0  0  0  0  0
    0.2010   -1.0782   -0.0486 C   0  0  0  0  0  0  0  0  0  0  0  0
    0.1331   -2.1966   -0.3483 N   0  0  0  0  0  0  0  0  0  0  0  0
    1.7412    0.7148    0.8733 C   0  0  0  0  0  0  0  0  0  0  0  0
    1.8964    1.8810    1.2250 O   0  0  0  0  0  0  0  0  0  0  0  0
    2.7160   -0.2720    0.8972 N   0  0  0  0  0  0  0  0  0  0  0  0
    4.0696   -0.1631    1.3301 C   0  0  0  0  0  0  0  0  0  0  0  0
    4.5809    1.0330    1.8441 C   0  0  0  0  0  0  0  0  0  0  0  0
    5.9047    1.1169    2.2619 C   0  0  0  0  0  0  0  0  0  0  0  0
    6.7324    0.0031    2.1694 C   0  0  0  0  0  0  0  0  0  0  0  0
    6.2756   -1.2026    1.6697 C   0  0  0  0  0  0  0  0  0  0  0  0
    7.1572   -2.2166    1.6229 N   0  0  0  0  0  0  0  0  0  0  0  0
    6.7454   -3.4045    1.1412 C   0  0  0  0  0  0  0  0  0  0  0  0
    5.4657   -3.6377    0.6926 C   0  0  0  0  0  0  0  0  0  0  0  0
    4.5551   -2.5855    0.7421 C   0  0  0  0  0  0  0  0  0  0  0  0
    4.9295   -1.3106    1.2391 C   0  0  0  0  0  0  0  0  0  0  0  0
   -2.8138    0.0887    0.4553 C   0  0  0  0  0  0  0  0  0  0  0  0
   -4.1007   -0.1136   -0.0389 C   0  0  0  0  0  0  0  0  0  0  0  0
   -4.9164   -0.9767    0.6462 O   0  0  0  0  0  0  0  0  0  0  0  0
   -4.9993   -2.2248   -0.0457 C   0  0  0  0  0  0  0  0  0  0  0  0
   -4.5539    0.6058   -1.1508 C   0  0  0  0  0  0  0  0  0  0  0  0
   -5.8307    0.3970   -1.6157 O   0  0  0  0  0  0  0  0  0  0  0  0
   -6.7207    1.3424   -1.0237 C   0  0  0  0  0  0  0  0  0  0  0  0
   -3.0476    3.8435   -3.0428 H   0  0  0  0  0  0  0  0  0  0  0  0
   -3.9223    3.3749   -4.5053 H   0  0  0  0  0  0  0  0  0  0  0  0
   -2.4930    2.4455   -4.0437 H   0  0  0  0  0  0  0  0  0  0  0  0
   -1.7077    2.3555   -1.8222 H   0  0  0  0  0  0  0  0  0  0  0  0
   -0.3842    2.2271    0.5823 H   0  0  0  0  0  0  0  0  0  0  0  0
    2.4585   -1.1898    0.5648 H   0  0  0  0  0  0  0  0  0  0  0  0
    3.9779    1.9296    1.9411 H   0  0  0  0  0  0  0  0  0  0  0  0
    6.2920    2.0509    2.6608 H   0  0  0  0  0  0  0  0  0  0  0  0
    7.7669    0.0783    2.4983 H   0  0  0  0  0  0  0  0  0  0  0  0
    7.4996   -4.1861    1.1268 H   0  0  0  0  0  0  0  0  0  0  0  0
    5.1790   -4.6116    0.3127 H   0  0  0  0  0  0  0  0  0  0  0  0
    3.5528   -2.7921    0.3821 H   0  0  0  0  0  0  0  0  0  0  0  0
   -2.5035   -0.4462    1.3491 H   0  0  0  0  0  0  0  0  0  0  0  0
   -5.6366   -2.8907    0.5455 H   0  0  0  0  0  0  0  0  0  0  0  0
   -4.0116   -2.6908   -0.1300 H   0  0  0  0  0  0  0  0  0  0  0  0
   -5.4583   -2.1139   -1.0338 H   0  0  0  0  0  0  0  0  0  0  0  0
   -7.7350    1.1029   -1.3593 H   0  0  0  0  0  0  0  0  0  0  0  0
   -6.4902    2.3620   -1.3499 H   0  0  0  0  0  0  0  0  0  0  0  0
   -6.7031    1.2826    0.0702 H   0  0  0  0  0  0  0  0  0  0  0  0
  1  2  1  0
  2  3  1  0
  3  4  2  0
  4  5  1  0
  5  6  1  0
  6  7  2  3
  7  8  1  0
  8  9  3  0
  7 10  1  0
 10 11  2  0
 10 12  1  0
 12 13  1  0
 13 14  2  0
 14 15  1  0
 15 16  2  0
 16 17  1  0
 17 18  2  0
 18 19  1  0
 19 20  2  0
 20 21  1  0
 21 22  2  0
  5 23  2  0
 23 24  1  0
 24 25  1  0
 25 26  1  0
 24 27  2  0
 27 28  1  0
 28 29  1  0
 27  3  1  0
 22 13  1  0
 22 17  1  0
  1 30  1  0
  1 31  1  0
  1 32  1  0
  4 33  1  0
  6 34  1  0
 12 35  1  0
 14 36  1  0
 15 37  1  0
 16 38  1  0
 19 39  1  0
 20 40  1  0
 21 41  1  0
 23 42  1  0
 26 43  1  0
 26 44  1  0
 26 45  1  0
 29 46  1  0
 29 47  1  0
 29 48  1  0
M  END
$$$$
