
     RDKit          3D

 46 48  0  0  0  0  0  0  0  0999 V2000
    0.7978   -2.0886   -0.6343 C   0  0  0  0  0  0  0  0  0  0  0  0
    1.5350   -0.7677   -0.6600 C   0  0  0  0  0  0  0  0  0  0  0  0
    3.0239   -0.8518   -0.7533 C   0  0  0  0  0  0  0  0  0  0  0  0
    3.7895    0.1728   -0.3494 C   0  0  0  0  0  0  0  0  0  0  0  0
    5.2569    0.1752   -0.4139 C   0  0  0  0  0  0  0  0  0  0  0  0
    6.0244   -0.9605   -0.1230 C   0  0  0  0  0  0  0  0  0  0  0  0
    7.4202   -0.9058   -0.1704 C   0  0  0  0  0  0  0  0  0  0  0  0
    8.0621    0.2865   -0.4988 C   0  0  0  0  0  0  0  0  0  0  0  0
    7.3100    1.4263   -0.7741 C   0  0  0  0  0  0  0  0  0  0  0  0
    5.9149    1.3720   -0.7261 C   0  0  0  0  0  0  0  0  0  0  0  0
    0.9479    0.3934   -0.6206 N   0  0  0  0  0  0  0  0  0  0  0  0
   -0.4091    0.4522   -0.5479 N   0  0  0  0  0  0  0  0  0  0  0  0
   -1.0466    1.6745   -0.4501 C   0  0  0  0  0  0  0  0  0  0  0  0
   -0.5249    2.7808   -0.4423 O   0  0  0  0  0  0  0  0  0  0  0  0
   -2.5267    1.5478   -0.3745 C   0  0  0  0  0  0  0  0  0  0  0  0
   -3.3148    2.4028    0.5838 C   0  0  0  0  0  0  0  0  0  0  0  0
   -3.2178    0.9114    0.8358 C   0  0  0  0  0  0  0  0  0  0  0  0
   -2.4008    0.4796    2.0335 C   0  0  0  0  0  0  0  0  0  0  0  0
   -4.4460    0.0482    0.5733 C   0  0  0  0  0  0  0  0  0  0  0  0
   -5.6714    0.3150    1.2086 C   0  0  0  0  0  0  0  0  0  0  0  0
   -6.7993   -0.4780    0.9830 C   0  0  0  0  0  0  0  0  0  0  0  0
   -6.7239   -1.5632    0.1156 C   0  0  0  0  0  0  0  0  0  0  0  0
   -5.5221   -1.8549   -0.5225 C   0  0  0  0  0  0  0  0  0  0  0  0
   -4.3970   -1.0582   -0.2925 C   0  0  0  0  0  0  0  0  0  0  0  0
    0.2001   -2.1580    0.2794 H   0  0  0  0  0  0  0  0  0  0  0  0
    1.4916   -2.9336   -0.6521 H   0  0  0  0  0  0  0  0  0  0  0  0
    0.1433   -2.1602   -1.5077 H   0  0  0  0  0  0  0  0  0  0  0  0
    3.4427   -1.7661   -1.1553 H   0  0  0  0  0  0  0  0  0  0  0  0
    3.3314    1.0875    0.0254 H   0  0  0  0  0  0  0  0  0  0  0  0
    5.5485   -1.8964    0.1568 H   0  0  0  0  0  0  0  0  0  0  0  0
    8.0060   -1.7928    0.0559 H   0  0  0  0  0  0  0  0  0  0  0  0
    9.1475    0.3294   -0.5340 H   0  0  0  0  0  0  0  0  0  0  0  0
    7.8070    2.3599   -1.0246 H   0  0  0  0  0  0  0  0  0  0  0  0
    5.3439    2.2728   -0.9431 H   0  0  0  0  0  0  0  0  0  0  0  0
   -0.9587   -0.3956   -0.5284 H   0  0  0  0  0  0  0  0  0  0  0  0
   -2.9831    1.4246   -1.3527 H   0  0  0  0  0  0  0  0  0  0  0  0
   -2.7640    3.0824    1.2268 H   0  0  0  0  0  0  0  0  0  0  0  0
   -4.2477    2.8218    0.2228 H   0  0  0  0  0  0  0  0  0  0  0  0
   -1.9933   -0.5250    1.8778 H   0  0  0  0  0  0  0  0  0  0  0  0
   -3.0236    0.4605    2.9345 H   0  0  0  0  0  0  0  0  0  0  0  0
   -1.5629    1.1567    2.2314 H   0  0  0  0  0  0  0  0  0  0  0  0
   -5.7474    1.1578    1.8933 H   0  0  0  0  0  0  0  0  0  0  0  0
   -7.7344   -0.2460    1.4862 H   0  0  0  0  0  0  0  0  0  0  0  0
   -7.6004   -2.1807   -0.0619 H   0  0  0  0  0  0  0  0  0  0  0  0
   -5.4593   -2.7024   -1.2000 H   0  0  0  0  0  0  0  0  0  0  0  0
   -3.4693   -1.3065   -0.8008 H   0  0  0  0  0  0  0  0  0  0  0  0
  1  2  1  0
  2  3  1  0
  3  4  2  3
  4  5  1  0
  5  6  2  0
  6  7  1  0
  7  8  2  0
  8  9  1  0
  9 10  2  0
  2 11  2  3
 11 12  1  0
 12 13  1  0
 13 14  2  0
 13 15  1  0
 15 16  1  0
 16 17  1  0
 17 18  1  0
 17 19  1  0
 19 20  2  0
 20 21  1  0
 21 22  2  0
 22 23  1  0
 23 24  2  0
 10  5  1  0
 17 15  1  0
 24 19  1  0
  1 25  1  0
  1 26  1  0
  1 27  1  0
  3 28  1  0
  4 29  1  0
  6 30  1  0
  7 31  1  0
  8 32  1  0
  9 33  1  0
 10 34  1  0
 12 35  1  0
 15 36  1  0
 16 37  1  0
 16 38  1  0
 18 39  1  0
 18 40  1  0
 18 41  1  0
 20 42  1  0
 21 43  1  0
 22 44  1  0
 23 45  1  0
 24 46  1  0
M  END
$$$$
