
     RDKit          3D

 58 61  0  0  0  0  0  0  0  0999 V2000
   -2.8042    6.2184    1.1166 C   0  0  0  0  0  0  0  0  0  0  0  0
   -2.0544    5.0228    0.9426 O   0  0  0  0  0  0  0  0  0  0  0  0
   -2.7498    3.8447    0.9709 C   0  0  0  0  0  0  0  0  0  0  0  0
   -4.1229    3.7104    1.1278 C   0  0  0  0  0  0  0  0  0  0  0  0
   -4.7197    2.4442    1.1396 C   0  0  0  0  0  0  0  0  0  0  0  0
   -3.9119    1.3008    0.9893 C   0  0  0  0  0  0  0  0  0  0  0  0
   -4.4333   -0.3369    0.9726 S   0  0  0  0  0  0  0  0  0  0  0  0
   -2.8449   -0.9297    0.7574 C   0  0  0  0  0  0  0  0  0  0  0  0
   -2.6473   -2.3812    0.6565 C   0  0  0  0  0  0  0  0  0  0  0  0
   -2.7905   -2.9949   -0.5991 C   0  0  0  0  0  0  0  0  0  0  0  0
   -2.5952   -4.3670   -0.7436 C   0  0  0  0  0  0  0  0  0  0  0  0
   -2.2536   -5.1361    0.3646 C   0  0  0  0  0  0  0  0  0  0  0  0
   -2.1052   -4.5378    1.6195 C   0  0  0  0  0  0  0  0  0  0  0  0
   -2.2971   -3.1600    1.7785 C   0  0  0  0  0  0  0  0  0  0  0  0
   -2.1751   -2.4932    2.9721 O   0  0  0  0  0  0  0  0  0  0  0  0
   -1.7287   -3.2370    4.0968 C   0  0  0  0  0  0  0  0  0  0  0  0
   -1.9197    0.0981    0.6952 C   0  0  0  0  0  0  0  0  0  0  0  0
   -0.5000   -0.1652    0.5075 C   0  0  0  0  0  0  0  0  0  0  0  0
    0.3184   -0.4221    1.6089 C   0  0  0  0  0  0  0  0  0  0  0  0
    1.6806   -0.6657    1.4212 C   0  0  0  0  0  0  0  0  0  0  0  0
    2.2399   -0.6532    0.1398 C   0  0  0  0  0  0  0  0  0  0  0  0
    3.5831   -0.9038    0.1096 O   0  0  0  0  0  0  0  0  0  0  0  0
    4.2460   -0.9576   -1.1580 C   0  0  0  0  0  0  0  0  0  0  0  0
    4.6849    0.4480   -1.6049 C   0  0  0  0  0  0  0  0  0  0  0  0
    5.4850    0.4591   -2.8456 N   0  0  0  0  0  0  0  0  0  0  0  0
    4.6715    0.1324   -4.0186 C   0  0  0  0  0  0  0  0  0  0  0  0
    6.1033    1.7759   -3.0267 C   0  0  0  0  0  0  0  0  0  0  0  0
    1.4203   -0.3892   -0.9584 C   0  0  0  0  0  0  0  0  0  0  0  0
    0.0543   -0.1444   -0.7754 C   0  0  0  0  0  0  0  0  0  0  0  0
   -2.5293    1.4005    0.8289 C   0  0  0  0  0  0  0  0  0  0  0  0
   -1.9581    2.6998    0.8223 C   0  0  0  0  0  0  0  0  0  0  0  0
   -2.1051    7.0596    1.0817 H   0  0  0  0  0  0  0  0  0  0  0  0
   -3.2982    6.2364    2.0938 H   0  0  0  0  0  0  0  0  0  0  0  0
   -3.5269    6.3523    0.3049 H   0  0  0  0  0  0  0  0  0  0  0  0
   -4.7716    4.5723    1.2455 H   0  0  0  0  0  0  0  0  0  0  0  0
   -5.7946    2.3464    1.2641 H   0  0  0  0  0  0  0  0  0  0  0  0
   -3.0535   -2.3989   -1.4701 H   0  0  0  0  0  0  0  0  0  0  0  0
   -2.7085   -4.8333   -1.7186 H   0  0  0  0  0  0  0  0  0  0  0  0
   -2.1008   -6.2070    0.2545 H   0  0  0  0  0  0  0  0  0  0  0  0
   -1.8403   -5.1779    2.4541 H   0  0  0  0  0  0  0  0  0  0  0  0
   -2.4546   -4.0091    4.3714 H   0  0  0  0  0  0  0  0  0  0  0  0
   -0.7378   -3.6678    3.9195 H   0  0  0  0  0  0  0  0  0  0  0  0
   -1.6435   -2.5461    4.9412 H   0  0  0  0  0  0  0  0  0  0  0  0
   -0.0991   -0.4396    2.6127 H   0  0  0  0  0  0  0  0  0  0  0  0
    2.3120   -0.8687    2.2826 H   0  0  0  0  0  0  0  0  0  0  0  0
    3.6449   -1.4910   -1.9016 H   0  0  0  0  0  0  0  0  0  0  0  0
    5.1426   -1.5708   -1.0055 H   0  0  0  0  0  0  0  0  0  0  0  0
    5.2835    0.8645   -0.7829 H   0  0  0  0  0  0  0  0  0  0  0  0
    3.8165    1.1128   -1.6949 H   0  0  0  0  0  0  0  0  0  0  0  0
    3.8298    0.8234   -4.1438 H   0  0  0  0  0  0  0  0  0  0  0  0
    5.2805    0.1662   -4.9295 H   0  0  0  0  0  0  0  0  0  0  0  0
    4.2773   -0.8866   -3.9567 H   0  0  0  0  0  0  0  0  0  0  0  0
    6.7636    2.0108   -2.1844 H   0  0  0  0  0  0  0  0  0  0  0  0
    6.7305    1.7869   -3.9253 H   0  0  0  0  0  0  0  0  0  0  0  0
    5.3576    2.5744   -3.1154 H   0  0  0  0  0  0  0  0  0  0  0  0
    1.8051   -0.3609   -1.9715 H   0  0  0  0  0  0  0  0  0  0  0  0
   -0.5735    0.0610   -1.6393 H   0  0  0  0  0  0  0  0  0  0  0  0
   -0.8824    2.8103    0.7024 H   0  0  0  0  0  0  0  0  0  0  0  0
  1  2  1  0
  2  3  1  0
  3  4  2  0
  4  5  1  0
  5  6  2  0
  6  7  1  0
  7  8  1  0
  8  9  1  0
  9 10  2  0
 10 11  1  0
 11 12  2  0
 12 13  1  0
 13 14  2  0
 14 15  1  0
 15 16  1  0
  8 17  2  0
 17 18  1  0
 18 19  2  0
 19 20  1  0
 20 21  2  0
 21 22  1  0
 22 23  1  0
 23 24  1  0
 24 25  1  0
 25 26  1  0
 25 27  1  0
 21 28  1  0
 28 29  2  0
 17 30  1  0
 30 31  2  0
 31  3  1  0
 30  6  1  0
 14  9  1  0
 29 18  1  0
  1 32  1  0
  1 33  1  0
  1 34  1  0
  4 35  1  0
  5 36  1  0
 10 37  1  0
 11 38  1  0
 12 39  1  0
 13 40  1  0
 16 41  1  0
 16 42  1  0
 16 43  1  0
 19 44  1  0
 20 45  1  0
 23 46  1  0
 23 47  1  0
 24 48  1  0
 24 49  1  0
 26 50  1  0
 26 51  1  0
 26 52  1  0
 27 53  1  0
 27 54  1  0
 27 55  1  0
 28 56  1  0
 29 57  1  0
 31 58  1  0
M  END
$$$$
