
     RDKit          3D

 37 40  0  0  0  0  0  0  0  0999 V2000
   -1.3182   -2.9761    0.7620 C   0  0  0  0  0  0  0  0  0  0  0  0
   -0.5321   -1.7424    0.4168 C   0  0  0  0  0  0  0  0  0  0  0  0
    0.8729   -1.7943    0.3943 C   0  0  0  0  0  0  0  0  0  0  0  0
    1.6229   -0.6421    0.0748 C   0  0  0  0  0  0  0  0  0  0  0  0
    0.9423    0.5423   -0.2142 C   0  0  0  0  0  0  0  0  0  0  0  0
    1.9044    1.4902   -0.4847 N   0  0  0  0  0  0  0  0  0  0  0  0
    3.1700    0.9645   -0.3816 C   0  0  0  0  0  0  0  0  0  0  0  0
    4.4180    1.5699   -0.5711 C   0  0  0  0  0  0  0  0  0  0  0  0
    5.5552    0.7761   -0.3947 C   0  0  0  0  0  0  0  0  0  0  0  0
    5.4453   -0.5672   -0.0435 C   0  0  0  0  0  0  0  0  0  0  0  0
    4.1886   -1.1550    0.1416 C   0  0  0  0  0  0  0  0  0  0  0  0
    3.0258   -0.3755   -0.0305 C   0  0  0  0  0  0  0  0  0  0  0  0
   -0.4605    0.6186   -0.1982 C   0  0  0  0  0  0  0  0  0  0  0  0
   -1.1845   -0.5389    0.1166 C   0  0  0  0  0  0  0  0  0  0  0  0
   -2.5540   -0.5555    0.1675 O   0  0  0  0  0  0  0  0  0  0  0  0
   -3.2899    0.6029   -0.2735 C   0  0  0  0  0  0  0  0  0  0  0  0
   -4.0184    0.2006   -1.5612 C   0  0  0  0  0  0  0  0  0  0  0  0
   -4.3153    0.8938    0.8292 C   0  0  0  0  0  0  0  0  0  0  0  0
   -2.4702    1.8480   -0.5277 C   0  0  0  0  0  0  0  0  0  0  0  0
   -1.1349    1.8685   -0.4918 C   0  0  0  0  0  0  0  0  0  0  0  0
   -0.6610   -3.8291    0.9611 H   0  0  0  0  0  0  0  0  0  0  0  0
   -1.9194   -2.8034    1.6605 H   0  0  0  0  0  0  0  0  0  0  0  0
   -1.9760   -3.2514   -0.0688 H   0  0  0  0  0  0  0  0  0  0  0  0
    1.3925   -2.7207    0.6234 H   0  0  0  0  0  0  0  0  0  0  0  0
    1.7090    2.4485   -0.7296 H   0  0  0  0  0  0  0  0  0  0  0  0
    4.5077    2.6161   -0.8446 H   0  0  0  0  0  0  0  0  0  0  0  0
    6.5405    1.2152   -0.5342 H   0  0  0  0  0  0  0  0  0  0  0  0
    6.3425   -1.1668    0.0888 H   0  0  0  0  0  0  0  0  0  0  0  0
    4.1120   -2.2030    0.4154 H   0  0  0  0  0  0  0  0  0  0  0  0
   -3.3026   -0.0557   -2.3516 H   0  0  0  0  0  0  0  0  0  0  0  0
   -4.6312   -0.6941   -1.3998 H   0  0  0  0  0  0  0  0  0  0  0  0
   -4.6680    1.0008   -1.9326 H   0  0  0  0  0  0  0  0  0  0  0  0
   -4.9310    0.0097    1.0332 H   0  0  0  0  0  0  0  0  0  0  0  0
   -4.9812    1.7223    0.5638 H   0  0  0  0  0  0  0  0  0  0  0  0
   -3.8137    1.1436    1.7720 H   0  0  0  0  0  0  0  0  0  0  0  0
   -3.0082    2.7633   -0.7599 H   0  0  0  0  0  0  0  0  0  0  0  0
   -0.5793    2.7766   -0.6812 H   0  0  0  0  0  0  0  0  0  0  0  0
  1  2  1  0
  2  3  2  0
  3  4  1  0
  4  5  2  0
  5  6  1  0
  6  7  1  0
  7  8  2  0
  8  9  1  0
  9 10  2  0
 10 11  1  0
 11 12  2  0
  5 13  1  0
 13 14  2  0
 14 15  1  0
 15 16  1  0
 16 17  1  0
 16 18  1  0
 16 19  1  0
 19 20  2  0
 14  2  1  0
 12  4  1  0
 20 13  1  0
 12  7  1  0
  1 21  1  0
  1 22  1  0
  1 23  1  0
  3 24  1  0
  6 25  1  0
  8 26  1  0
  9 27  1  0
 10 28  1  0
 11 29  1  0
 17 30  1  0
 17 31  1  0
 17 32  1  0
 18 33  1  0
 18 34  1  0
 18 35  1  0
 19 36  1  0
 20 37  1  0
M  END
$$$$
