
     RDKit          3D

 61 65  0  0  0  0  0  0  0  0999 V2000
   -8.1563    4.1666   -0.4321 C   0  0  0  0  0  0  0  0  0  0  0  0
   -7.2251    2.9919   -0.3752 C   0  0  0  0  0  0  0  0  0  0  0  0
   -7.7185    1.7062   -0.1582 C   0  0  0  0  0  0  0  0  0  0  0  0
   -6.8450    0.6164   -0.0644 C   0  0  0  0  0  0  0  0  0  0  0  0
   -5.4517    0.7729   -0.1727 C   0  0  0  0  0  0  0  0  0  0  0  0
   -4.5495   -0.3952   -0.0451 C   0  0  0  0  0  0  0  0  0  0  0  0
   -3.2446   -0.2976    0.4067 C   0  0  0  0  0  0  0  0  0  0  0  0
   -2.4774   -1.4608    0.4880 C   0  0  0  0  0  0  0  0  0  0  0  0
   -1.0744   -1.2794    0.9207 C   0  0  0  0  0  0  0  0  0  0  0  0
   -0.8722   -0.7788    2.0190 O   0  0  0  0  0  0  0  0  0  0  0  0
   -0.1407   -1.6633   -0.0237 N   0  0  0  0  0  0  0  0  0  0  0  0
    1.2620   -1.5560    0.0714 C   0  0  0  0  0  0  0  0  0  0  0  0
    1.9248   -0.9888    1.1637 C   0  0  0  0  0  0  0  0  0  0  0  0
    3.3201   -0.8945    1.1785 C   0  0  0  0  0  0  0  0  0  0  0  0
    4.0568   -1.3738    0.0943 C   0  0  0  0  0  0  0  0  0  0  0  0
    5.8295   -1.2515    0.1028 S   0  0  0  0  0  6  0  0  0  0  0  0
    6.3449   -2.4904   -0.4365 O   0  0  0  0  0  0  0  0  0  0  0  0
    6.2299   -0.7434    1.3954 O   0  0  0  0  0  0  0  0  0  0  0  0
    6.0600   -0.0719   -1.0984 N   0  0  0  0  0  0  0  0  0  0  0  0
    7.0977    0.8856   -0.7311 C   0  0  0  0  0  0  0  0  0  0  0  0
    8.4035    0.7460   -1.0724 O   0  0  0  0  0  0  0  0  0  0  0  0
    9.1172    1.8406   -0.6239 N   0  0  0  0  0  0  0  0  0  0  0  0
    8.2246    2.6288   -0.0125 C   0  0  0  0  0  0  0  0  0  0  0  0
    8.6566    3.9065    0.5999 C   0  0  0  0  0  0  0  0  0  0  0  0
    6.9125    2.0794   -0.0688 C   0  0  0  0  0  0  0  0  0  0  0  0
    5.6631    2.6598    0.4690 C   0  0  0  0  0  0  0  0  0  0  0  0
    3.4125   -1.9622   -0.9954 C   0  0  0  0  0  0  0  0  0  0  0  0
    2.0170   -2.0436   -1.0057 C   0  0  0  0  0  0  0  0  0  0  0  0
   -3.0179   -2.7223    0.1674 C   0  0  0  0  0  0  0  0  0  0  0  0
   -2.3341   -3.9579    0.2866 C   0  0  0  0  0  0  0  0  0  0  0  0
   -2.9571   -5.1554   -0.0602 C   0  0  0  0  0  0  0  0  0  0  0  0
   -4.2664   -5.1395   -0.5196 C   0  0  0  0  0  0  0  0  0  0  0  0
   -4.9469   -3.9273   -0.6212 C   0  0  0  0  0  0  0  0  0  0  0  0
   -4.3506   -2.7191   -0.2811 C   0  0  0  0  0  0  0  0  0  0  0  0
   -5.0808   -1.5980   -0.3921 N   0  0  0  0  0  0  0  0  0  0  0  0
   -4.9746    2.0773   -0.3970 C   0  0  0  0  0  0  0  0  0  0  0  0
   -5.8450    3.1708   -0.4858 C   0  0  0  0  0  0  0  0  0  0  0  0
   -8.3360    4.5511    0.5786 H   0  0  0  0  0  0  0  0  0  0  0  0
   -7.7387    4.9724   -1.0470 H   0  0  0  0  0  0  0  0  0  0  0  0
   -9.1148    3.8813   -0.8784 H   0  0  0  0  0  0  0  0  0  0  0  0
   -8.7856    1.5353   -0.0576 H   0  0  0  0  0  0  0  0  0  0  0  0
   -7.2652   -0.3724    0.1052 H   0  0  0  0  0  0  0  0  0  0  0  0
   -2.8141    0.6562    0.7052 H   0  0  0  0  0  0  0  0  0  0  0  0
   -0.5011   -2.0479   -0.8903 H   0  0  0  0  0  0  0  0  0  0  0  0
    1.3841   -0.5985    2.0219 H   0  0  0  0  0  0  0  0  0  0  0  0
    3.8131   -0.4449    2.0386 H   0  0  0  0  0  0  0  0  0  0  0  0
    6.3708   -0.5807   -1.9261 H   0  0  0  0  0  0  0  0  0  0  0  0
    8.2723    4.7562    0.0242 H   0  0  0  0  0  0  0  0  0  0  0  0
    8.2794    3.9874    1.6245 H   0  0  0  0  0  0  0  0  0  0  0  0
    9.7464    3.9848    0.6340 H   0  0  0  0  0  0  0  0  0  0  0  0
    5.6513    2.5898    1.5606 H   0  0  0  0  0  0  0  0  0  0  0  0
    5.5797    3.7162    0.1935 H   0  0  0  0  0  0  0  0  0  0  0  0
    4.7777    2.1463    0.0836 H   0  0  0  0  0  0  0  0  0  0  0  0
    3.9816   -2.3534   -1.8353 H   0  0  0  0  0  0  0  0  0  0  0  0
    1.5310   -2.4957   -1.8671 H   0  0  0  0  0  0  0  0  0  0  0  0
   -1.3181   -4.0016    0.6765 H   0  0  0  0  0  0  0  0  0  0  0  0
   -2.4280   -6.0983    0.0412 H   0  0  0  0  0  0  0  0  0  0  0  0
   -4.7680   -6.0706   -0.7829 H   0  0  0  0  0  0  0  0  0  0  0  0
   -5.9796   -3.9258   -0.9677 H   0  0  0  0  0  0  0  0  0  0  0  0
   -3.9103    2.2693   -0.5161 H   0  0  0  0  0  0  0  0  0  0  0  0
   -5.4316    4.1655   -0.6461 H   0  0  0  0  0  0  0  0  0  0  0  0
  1  2  1  0
  2  3  2  0
  3  4  1  0
  4  5  2  0
  5  6  1  0
  6  7  2  0
  7  8  1  0
  8  9  1  0
  9 10  2  0
  9 11  1  0
 11 12  1  0
 12 13  2  0
 13 14  1  0
 14 15  2  0
 15 16  1  0
 16 17  2  0
 16 18  2  0
 16 19  1  0
 19 20  1  0
 20 21  1  0
 21 22  1  0
 22 23  2  0
 23 24  1  0
 23 25  1  0
 25 26  1  0
 15 27  1  0
 27 28  2  0
  8 29  2  0
 29 30  1  0
 30 31  2  0
 31 32  1  0
 32 33  2  0
 33 34  1  0
 34 35  2  0
  5 36  1  0
 36 37  2  0
 37  2  1  0
 35  6  1  0
 28 12  1  0
 34 29  1  0
 25 20  2  0
  1 38  1  0
  1 39  1  0
  1 40  1  0
  3 41  1  0
  4 42  1  0
  7 43  1  0
 11 44  1  0
 13 45  1  0
 14 46  1  0
 19 47  1  0
 24 48  1  0
 24 49  1  0
 24 50  1  0
 26 51  1  0
 26 52  1  0
 26 53  1  0
 27 54  1  0
 28 55  1  0
 30 56  1  0
 31 57  1  0
 32 58  1  0
 33 59  1  0
 36 60  1  0
 37 61  1  0
M  END
$$$$
