
     RDKit          3D

 47 48  0  0  0  0  0  0  0  0999 V2000
   -2.4338    3.3267    1.3075 C   0  0  0  0  0  0  0  0  0  0  0  0
   -2.9375    1.9742    1.7907 C   0  0  0  0  0  0  0  0  0  0  0  0
   -2.6650    0.9281    0.7904 N   0  0  0  0  0  0  0  0  0  0  0  0
   -3.7820    0.6298   -0.1201 C   0  0  0  0  0  0  0  0  0  0  0  0
   -4.6843   -0.4565    0.4483 C   0  0  0  0  0  0  0  0  0  0  0  0
   -1.4860    0.1905    0.7974 C   0  0  0  0  0  0  0  0  0  0  0  0
   -0.4011    0.5225    1.6276 C   0  0  0  0  0  0  0  0  0  0  0  0
    0.8013   -0.1987    1.6276 C   0  0  0  0  0  0  0  0  0  0  0  0
    0.9650   -1.2948    0.7844 C   0  0  0  0  0  0  0  0  0  0  0  0
    2.2366   -2.0298    0.7716 C   0  0  0  0  0  0  0  0  0  0  0  0
    3.3870   -1.5767    0.2465 C   0  0  0  0  0  0  0  0  0  0  0  0
    3.5616   -0.2655   -0.3847 C   0  0  0  0  0  0  0  0  0  0  0  0
    4.2107    0.7443    0.3379 C   0  0  0  0  0  0  0  0  0  0  0  0
    4.3518    2.0131   -0.2080 C   0  0  0  0  0  0  0  0  0  0  0  0
    3.8386    2.2634   -1.4697 C   0  0  0  0  0  0  0  0  0  0  0  0
    3.2087    1.2388   -2.1635 C   0  0  0  0  0  0  0  0  0  0  0  0
    3.0916   -0.0033   -1.6343 N   0  0  0  0  0  4  0  0  0  0  0  0
    2.4306   -1.0330   -2.4606 C   0  0  0  0  0  0  0  0  0  0  0  0
   -0.1042   -1.6775   -0.0309 C   0  0  0  0  0  0  0  0  0  0  0  0
    0.0943   -2.7436   -0.8771 O   0  0  0  0  0  0  0  0  0  0  0  0
   -1.0141   -3.6444   -0.9329 C   0  0  0  0  0  0  0  0  0  0  0  0
   -1.2927   -0.9282   -0.0348 C   0  0  0  0  0  0  0  0  0  0  0  0
   -1.3525    3.3213    1.1405 H   0  0  0  0  0  0  0  0  0  0  0  0
   -2.9133    3.6093    0.3644 H   0  0  0  0  0  0  0  0  0  0  0  0
   -2.6591    4.1005    2.0480 H   0  0  0  0  0  0  0  0  0  0  0  0
   -2.5162    1.7235    2.7706 H   0  0  0  0  0  0  0  0  0  0  0  0
   -4.0185    2.0517    1.9639 H   0  0  0  0  0  0  0  0  0  0  0  0
   -4.3825    1.5359   -0.2730 H   0  0  0  0  0  0  0  0  0  0  0  0
   -3.4263    0.3608   -1.1209 H   0  0  0  0  0  0  0  0  0  0  0  0
   -5.5200   -0.6468   -0.2325 H   0  0  0  0  0  0  0  0  0  0  0  0
   -5.0981   -0.1583    1.4172 H   0  0  0  0  0  0  0  0  0  0  0  0
   -4.1459   -1.3977    0.5940 H   0  0  0  0  0  0  0  0  0  0  0  0
   -0.4562    1.3701    2.3052 H   0  0  0  0  0  0  0  0  0  0  0  0
    1.5943    0.1089    2.3054 H   0  0  0  0  0  0  0  0  0  0  0  0
    2.1933   -3.0246    1.2136 H   0  0  0  0  0  0  0  0  0  0  0  0
    4.2800   -2.1959    0.2995 H   0  0  0  0  0  0  0  0  0  0  0  0
    4.5939    0.5466    1.3379 H   0  0  0  0  0  0  0  0  0  0  0  0
    4.8487    2.8028    0.3535 H   0  0  0  0  0  0  0  0  0  0  0  0
    3.9268    3.2534   -1.9121 H   0  0  0  0  0  0  0  0  0  0  0  0
    2.7919    1.4017   -3.1540 H   0  0  0  0  0  0  0  0  0  0  0  0
    1.3549   -0.8549   -2.4131 H   0  0  0  0  0  0  0  0  0  0  0  0
    2.6903   -2.0383   -2.1290 H   0  0  0  0  0  0  0  0  0  0  0  0
    2.7820   -0.9173   -3.4908 H   0  0  0  0  0  0  0  0  0  0  0  0
   -1.7700   -3.2786   -1.6345 H   0  0  0  0  0  0  0  0  0  0  0  0
   -0.6438   -4.6023   -1.3104 H   0  0  0  0  0  0  0  0  0  0  0  0
   -1.4507   -3.8188    0.0570 H   0  0  0  0  0  0  0  0  0  0  0  0
   -2.0805   -1.2325   -0.7136 H   0  0  0  0  0  0  0  0  0  0  0  0
  1  2  1  0
  2  3  1  0
  3  4  1  0
  4  5  1  0
  3  6  1  0
  6  7  2  0
  7  8  1  0
  8  9  2  0
  9 10  1  0
 10 11  2  3
 11 12  1  0
 12 13  2  0
 13 14  1  0
 14 15  2  0
 15 16  1  0
 16 17  2  0
 17 18  1  0
  9 19  1  0
 19 20  1  0
 20 21  1  0
 19 22  2  0
 22  6  1  0
 17 12  1  0
  1 23  1  0
  1 24  1  0
  1 25  1  0
  2 26  1  0
  2 27  1  0
  4 28  1  0
  4 29  1  0
  5 30  1  0
  5 31  1  0
  5 32  1  0
  7 33  1  0
  8 34  1  0
 10 35  1  0
 11 36  1  0
 13 37  1  0
 14 38  1  0
 15 39  1  0
 16 40  1  0
 18 41  1  0
 18 42  1  0
 18 43  1  0
 21 44  1  0
 21 45  1  0
 21 46  1  0
 22 47  1  0
M  CHG  1  17   1
M  END
$$$$
