
     RDKit          3D

 56 60  0  0  0  0  0  0  0  0999 V2000
   -5.4538   -2.3777   -1.3973 C   0  0  0  0  0  0  0  0  0  0  0  0
   -4.0173   -1.9598   -1.2645 C   0  0  0  0  0  0  0  0  0  0  0  0
   -3.0616   -2.6210   -2.0558 C   0  0  0  0  0  0  0  0  0  0  0  0
   -1.7046   -2.2976   -1.9728 C   0  0  0  0  0  0  0  0  0  0  0  0
   -1.2550   -1.3131   -1.0838 C   0  0  0  0  0  0  0  0  0  0  0  0
    0.1674   -0.9732   -0.9921 C   0  0  0  0  0  0  0  0  0  0  0  0
    0.5210    0.1095   -1.7250 N   0  0  0  0  0  0  0  0  0  0  0  0
    1.8113    0.5518   -1.7138 N   0  0  0  0  0  0  0  0  0  0  0  0
    2.7428   -0.0733   -0.9577 C   0  0  0  0  0  0  0  0  0  0  0  0
    4.0352    0.5114   -0.9720 N   0  0  0  0  0  0  0  0  0  0  0  0
    4.6936    1.0454    0.1724 C   0  0  0  0  0  0  0  0  0  0  0  0
    3.9849    1.5416    1.2910 C   0  0  0  0  0  0  0  0  0  0  0  0
    4.6559    2.1373    2.3670 C   0  0  0  0  0  0  0  0  0  0  0  0
    6.0278    2.2403    2.2860 C   0  0  0  0  0  0  0  0  0  0  0  0
    6.7247    1.7774    1.1946 C   0  0  0  0  0  0  0  0  0  0  0  0
    6.0869    1.1920    0.1225 C   0  0  0  0  0  0  0  0  0  0  0  0
    8.0655    1.9749    1.3134 O   0  0  0  0  0  0  0  0  0  0  0  0
    8.1293    2.6306    2.5991 C   0  0  0  0  0  0  0  0  0  0  0  0
    6.8401    2.7923    3.2258 O   0  0  0  0  0  0  0  0  0  0  0  0
    2.4347   -1.2315   -0.2102 C   0  0  0  0  0  0  0  0  0  0  0  0
    3.3901   -1.9648    0.5399 C   0  0  0  0  0  0  0  0  0  0  0  0
    3.0378   -3.0947    1.2786 C   0  0  0  0  0  0  0  0  0  0  0  0
    1.7199   -3.5249    1.2910 C   0  0  0  0  0  0  0  0  0  0  0  0
    0.7614   -2.8337    0.5470 C   0  0  0  0  0  0  0  0  0  0  0  0
    1.0981   -1.6885   -0.2190 C   0  0  0  0  0  0  0  0  0  0  0  0
   -2.1982   -0.6549   -0.2842 C   0  0  0  0  0  0  0  0  0  0  0  0
   -3.5655   -0.9718   -0.3686 C   0  0  0  0  0  0  0  0  0  0  0  0
   -4.6755   -0.0632    0.6928 S   0  0  0  0  0  6  0  0  0  0  0  0
   -5.7595   -0.9312    1.0900 O   0  0  0  0  0  0  0  0  0  0  0  0
   -3.8971    0.6603    1.6725 O   0  0  0  0  0  0  0  0  0  0  0  0
   -5.2887    1.0718   -0.3796 N   0  0  0  0  0  0  0  0  0  0  0  0
   -6.4344    1.8718    0.0911 C   0  0  0  0  0  0  0  0  0  0  0  0
   -6.6600    3.0373   -0.8779 C   0  0  0  0  0  0  0  0  0  0  0  0
   -5.4534    3.7617   -1.1141 O   0  0  0  0  0  0  0  0  0  0  0  0
   -6.1299   -1.5178   -1.4058 H   0  0  0  0  0  0  0  0  0  0  0  0
   -5.7151   -3.0639   -0.5901 H   0  0  0  0  0  0  0  0  0  0  0  0
   -5.6232   -2.9013   -2.3430 H   0  0  0  0  0  0  0  0  0  0  0  0
   -3.3704   -3.3970   -2.7551 H   0  0  0  0  0  0  0  0  0  0  0  0
   -0.9919   -2.8191   -2.6114 H   0  0  0  0  0  0  0  0  0  0  0  0
    3.9349    1.2845   -1.6342 H   0  0  0  0  0  0  0  0  0  0  0  0
    2.8990    1.4798    1.3275 H   0  0  0  0  0  0  0  0  0  0  0  0
    4.1114    2.5164    3.2291 H   0  0  0  0  0  0  0  0  0  0  0  0
    6.6577    0.8408   -0.7340 H   0  0  0  0  0  0  0  0  0  0  0  0
    8.5854    3.6188    2.4687 H   0  0  0  0  0  0  0  0  0  0  0  0
    8.7658    2.0395    3.2628 H   0  0  0  0  0  0  0  0  0  0  0  0
    4.4351   -1.6611    0.5420 H   0  0  0  0  0  0  0  0  0  0  0  0
    3.7947   -3.6312    1.8470 H   0  0  0  0  0  0  0  0  0  0  0  0
    1.4325   -4.3952    1.8782 H   0  0  0  0  0  0  0  0  0  0  0  0
   -0.2620   -3.2017    0.5743 H   0  0  0  0  0  0  0  0  0  0  0  0
   -1.8571    0.1194    0.4041 H   0  0  0  0  0  0  0  0  0  0  0  0
   -5.3099    0.7859   -1.3587 H   0  0  0  0  0  0  0  0  0  0  0  0
   -7.3352    1.2537    0.1368 H   0  0  0  0  0  0  0  0  0  0  0  0
   -6.2104    2.2677    1.0875 H   0  0  0  0  0  0  0  0  0  0  0  0
   -7.0081    2.6681   -1.8478 H   0  0  0  0  0  0  0  0  0  0  0  0
   -7.4138    3.7245   -0.4828 H   0  0  0  0  0  0  0  0  0  0  0  0
   -4.8931    3.6569   -0.3211 H   0  0  0  0  0  0  0  0  0  0  0  0
  1  2  1  0
  2  3  2  0
  3  4  1  0
  4  5  2  0
  5  6  1  0
  6  7  2  0
  7  8  1  0
  8  9  2  0
  9 10  1  0
 10 11  1  0
 11 12  2  0
 12 13  1  0
 13 14  2  0
 14 15  1  0
 15 16  2  0
 15 17  1  0
 17 18  1  0
 18 19  1  0
  9 20  1  0
 20 21  2  0
 21 22  1  0
 22 23  2  0
 23 24  1  0
 24 25  2  0
  5 26  1  0
 26 27  2  0
 27 28  1  0
 28 29  2  0
 28 30  2  0
 28 31  1  0
 31 32  1  0
 32 33  1  0
 33 34  1  0
 27  2  1  0
 25  6  1  0
 16 11  1  0
 25 20  1  0
 19 14  1  0
  1 35  1  0
  1 36  1  0
  1 37  1  0
  3 38  1  0
  4 39  1  0
 10 40  1  0
 12 41  1  0
 13 42  1  0
 16 43  1  0
 18 44  1  0
 18 45  1  0
 21 46  1  0
 22 47  1  0
 23 48  1  0
 24 49  1  0
 26 50  1  0
 31 51  1  0
 32 52  1  0
 32 53  1  0
 33 54  1  0
 33 55  1  0
 34 56  1  0
M  END
$$$$
