
     RDKit          3D

 51 55  0  0  0  0  0  0  0  0999 V2000
   -9.4110    1.4339    0.2260 C   0  0  0  0  0  0  0  0  0  0  0  0
   -7.9479    1.5948   -0.0650 C   0  0  0  0  0  0  0  0  0  0  0  0
   -7.4612    2.7708   -0.6484 C   0  0  0  0  0  0  0  0  0  0  0  0
   -6.1062    2.9013   -0.9588 C   0  0  0  0  0  0  0  0  0  0  0  0
   -5.2209    1.8563   -0.6901 C   0  0  0  0  0  0  0  0  0  0  0  0
   -5.6943    0.6756   -0.1036 C   0  0  0  0  0  0  0  0  0  0  0  0
   -4.7888   -0.4715    0.1926 C   0  0  0  0  0  0  0  0  0  0  0  0
   -5.2363   -1.6064    0.0859 O   0  0  0  0  0  0  0  0  0  0  0  0
   -3.5261   -0.1124    0.6026 N   0  0  0  0  0  0  0  0  0  0  0  0
   -2.4871   -0.9605    0.8966 C   0  0  0  0  0  0  0  0  0  0  0  0
   -1.3357   -0.5181    1.3546 N   0  0  0  0  0  0  0  0  0  0  0  0
   -0.4299   -1.5419    1.5575 N   0  0  0  0  0  0  0  0  0  0  0  0
   -0.9383   -2.7074    1.2273 C   0  0  0  0  0  0  0  0  0  0  0  0
    0.0021   -4.1735    1.3615 S   0  0  0  0  0  0  0  0  0  0  0  0
    0.5343   -4.3544   -0.3647 C   0  0  0  0  0  0  0  0  0  0  0  0
    1.3456   -3.1701   -0.8730 C   0  0  0  0  0  0  0  0  0  0  0  0
    1.1227   -2.7136   -1.9916 O   0  0  0  0  0  0  0  0  0  0  0  0
    2.3448   -2.7617   -0.0071 N   0  0  0  0  0  0  0  0  0  0  0  0
    3.2978   -1.7391   -0.1997 C   0  0  0  0  0  0  0  0  0  0  0  0
    3.4301   -1.0160   -1.3905 C   0  0  0  0  0  0  0  0  0  0  0  0
    4.3998   -0.0077   -1.5359 C   0  0  0  0  0  0  0  0  0  0  0  0
    5.2560    0.2734   -0.4575 C   0  0  0  0  0  0  0  0  0  0  0  0
    5.1022   -0.4638    0.7097 C   0  0  0  0  0  0  0  0  0  0  0  0
    4.1486   -1.4666    0.8832 C   0  0  0  0  0  0  0  0  0  0  0  0
    6.0083   -0.0711    1.6478 O   0  0  0  0  0  0  0  0  0  0  0  0
    6.7496    0.9259    1.0906 C   0  0  0  0  0  0  0  0  0  0  0  0
    7.7892    1.6055    1.7221 C   0  0  0  0  0  0  0  0  0  0  0  0
    8.4282    2.6023    0.9774 C   0  0  0  0  0  0  0  0  0  0  0  0
    8.0344    2.8903   -0.3321 C   0  0  0  0  0  0  0  0  0  0  0  0
    6.9845    2.1880   -0.9420 C   0  0  0  0  0  0  0  0  0  0  0  0
    6.3269    1.1810   -0.2102 C   0  0  0  0  0  0  0  0  0  0  0  0
   -2.5520   -2.6482    0.6705 S   0  0  0  0  0  0  0  0  0  0  0  0
   -7.0586    0.5423    0.1894 C   0  0  0  0  0  0  0  0  0  0  0  0
   -9.5613    0.8562    1.1436 H   0  0  0  0  0  0  0  0  0  0  0  0
   -9.8931    2.4064    0.3718 H   0  0  0  0  0  0  0  0  0  0  0  0
   -9.9032    0.9189   -0.6045 H   0  0  0  0  0  0  0  0  0  0  0  0
   -8.1393    3.5915   -0.8751 H   0  0  0  0  0  0  0  0  0  0  0  0
   -5.7445    3.8153   -1.4247 H   0  0  0  0  0  0  0  0  0  0  0  0
   -4.1787    1.9684   -0.9765 H   0  0  0  0  0  0  0  0  0  0  0  0
   -3.3107    0.8574    0.7852 H   0  0  0  0  0  0  0  0  0  0  0  0
    1.1513   -5.2543   -0.4541 H   0  0  0  0  0  0  0  0  0  0  0  0
   -0.3461   -4.4848   -1.0022 H   0  0  0  0  0  0  0  0  0  0  0  0
    2.3293   -3.1830    0.9164 H   0  0  0  0  0  0  0  0  0  0  0  0
    2.7865   -1.2087   -2.2444 H   0  0  0  0  0  0  0  0  0  0  0  0
    4.4793    0.5402   -2.4702 H   0  0  0  0  0  0  0  0  0  0  0  0
    4.0855   -1.9963    1.8256 H   0  0  0  0  0  0  0  0  0  0  0  0
    8.0817    1.3692    2.7379 H   0  0  0  0  0  0  0  0  0  0  0  0
    9.2452    3.1625    1.4278 H   0  0  0  0  0  0  0  0  0  0  0  0
    8.5486    3.6716   -0.8883 H   0  0  0  0  0  0  0  0  0  0  0  0
    6.6857    2.4205   -1.9598 H   0  0  0  0  0  0  0  0  0  0  0  0
   -7.4272   -0.3884    0.6193 H   0  0  0  0  0  0  0  0  0  0  0  0
  1  2  1  0
  2  3  2  0
  3  4  1  0
  4  5  2  0
  5  6  1  0
  6  7  1  0
  7  8  2  0
  7  9  1  0
  9 10  1  0
 10 11  2  0
 11 12  1  0
 12 13  2  0
 13 14  1  0
 14 15  1  0
 15 16  1  0
 16 17  2  0
 16 18  1  0
 18 19  1  0
 19 20  2  0
 20 21  1  0
 21 22  2  0
 22 23  1  0
 23 24  2  0
 23 25  1  0
 25 26  1  0
 26 27  2  0
 27 28  1  0
 28 29  2  0
 29 30  1  0
 30 31  2  0
 13 32  1  0
  6 33  2  0
 33  2  1  0
 32 10  1  0
 24 19  1  0
 31 26  1  0
 31 22  1  0
  1 34  1  0
  1 35  1  0
  1 36  1  0
  3 37  1  0
  4 38  1  0
  5 39  1  0
  9 40  1  0
 15 41  1  0
 15 42  1  0
 18 43  1  0
 20 44  1  0
 21 45  1  0
 24 46  1  0
 27 47  1  0
 28 48  1  0
 29 49  1  0
 30 50  1  0
 33 51  1  0
M  END
$$$$
