
     RDKit          3D

 56 61  0  0  0  0  0  0  0  0999 V2000
    5.4211   -0.0877   -0.4964 C   0  0  0  0  0  0  0  0  0  0  0  0
    4.1914   -0.9360   -0.3594 C   0  0  0  0  0  0  0  0  0  0  0  0
    4.1157   -2.1820   -0.9857 C   0  0  0  0  0  0  0  0  0  0  0  0
    2.9896   -2.9844   -0.8124 C   0  0  0  0  0  0  0  0  0  0  0  0
    1.9365   -2.5539   -0.0049 C   0  0  0  0  0  0  0  0  0  0  0  0
    1.9710   -1.2972    0.6109 C   0  0  0  0  0  0  0  0  0  0  0  0
    3.1253   -0.5113    0.4473 C   0  0  0  0  0  0  0  0  0  0  0  0
    0.8106   -0.8208    1.4626 C   0  0  0  0  0  0  0  0  0  0  0  0
   -0.3993   -1.7423    1.3480 C   0  0  0  0  0  0  0  0  0  0  0  0
    0.0449   -3.1891    1.2308 C   0  0  0  0  0  0  0  0  0  0  0  0
    0.8835   -3.4222    0.1013 O   0  0  0  0  0  0  0  0  0  0  0  0
   -1.1386   -1.1899    0.1049 C   0  0  0  0  0  0  0  0  0  0  0  0
   -2.5556   -1.7151   -0.0882 C   0  0  0  0  0  0  0  0  0  0  0  0
   -3.4262   -1.9993    0.9760 C   0  0  0  0  0  0  0  0  0  0  0  0
   -4.7187   -2.4767    0.7395 C   0  0  0  0  0  0  0  0  0  0  0  0
   -5.1640   -2.6785   -0.5634 C   0  0  0  0  0  0  0  0  0  0  0  0
   -4.3172   -2.4023   -1.6315 C   0  0  0  0  0  0  0  0  0  0  0  0
   -3.0262   -1.9254   -1.3953 C   0  0  0  0  0  0  0  0  0  0  0  0
   -0.9504    0.3668    0.2531 C   0  0  0  0  0  0  0  0  0  0  0  0
   -2.1504    1.0260    0.9592 C   0  0  0  0  0  0  0  0  0  0  0  0
   -0.7089    1.0030   -1.1274 C   0  0  0  0  0  0  0  0  0  0  0  0
   -1.0157    0.4463   -2.1856 O   0  0  0  0  0  0  0  0  0  0  0  0
   -0.2900    2.2972   -1.2321 N   0  0  0  0  0  0  0  0  0  0  0  0
    0.0468    3.2419   -0.2537 C   0  0  0  0  0  0  0  0  0  0  0  0
   -0.0447    4.5804   -0.6820 C   0  0  0  0  0  0  0  0  0  0  0  0
    0.2093    5.6293    0.1952 C   0  0  0  0  0  0  0  0  0  0  0  0
    0.0911    6.8911   -0.2381 F   0  0  0  0  0  0  0  0  0  0  0  0
    0.5735    5.3688    1.5028 C   0  0  0  0  0  0  0  0  0  0  0  0
    0.8185    6.3751    2.3516 F   0  0  0  0  0  0  0  0  0  0  0  0
    0.7068    4.0573    1.9375 C   0  0  0  0  0  0  0  0  0  0  0  0
    0.4557    2.9762    1.0641 C   0  0  0  0  0  0  0  0  0  0  0  0
    0.8079    1.6373    1.6024 C   0  0  0  0  0  0  0  0  0  0  0  0
    1.6070    1.5957    2.5385 O   0  0  0  0  0  0  0  0  0  0  0  0
    0.2905    0.4885    1.0485 N   0  0  0  0  0  0  0  0  0  0  0  0
    6.1231   -0.3134    0.3122 H   0  0  0  0  0  0  0  0  0  0  0  0
    5.1663    0.9767   -0.4590 H   0  0  0  0  0  0  0  0  0  0  0  0
    5.9169   -0.2688   -1.4559 H   0  0  0  0  0  0  0  0  0  0  0  0
    4.9337   -2.5396   -1.6063 H   0  0  0  0  0  0  0  0  0  0  0  0
    2.9357   -3.9548   -1.2988 H   0  0  0  0  0  0  0  0  0  0  0  0
    3.2056    0.4463    0.9572 H   0  0  0  0  0  0  0  0  0  0  0  0
    1.1528   -0.7873    2.5047 H   0  0  0  0  0  0  0  0  0  0  0  0
   -1.0106   -1.6192    2.2497 H   0  0  0  0  0  0  0  0  0  0  0  0
    0.5754   -3.5106    2.1366 H   0  0  0  0  0  0  0  0  0  0  0  0
   -0.8256   -3.8456    1.1274 H   0  0  0  0  0  0  0  0  0  0  0  0
   -0.5727   -1.5218   -0.7772 H   0  0  0  0  0  0  0  0  0  0  0  0
   -3.1280   -1.8479    2.0093 H   0  0  0  0  0  0  0  0  0  0  0  0
   -5.3796   -2.6905    1.5758 H   0  0  0  0  0  0  0  0  0  0  0  0
   -6.1683   -3.0506   -0.7464 H   0  0  0  0  0  0  0  0  0  0  0  0
   -4.6570   -2.5583   -2.6521 H   0  0  0  0  0  0  0  0  0  0  0  0
   -2.3838   -1.7215   -2.2515 H   0  0  0  0  0  0  0  0  0  0  0  0
   -3.0652    0.9250    0.3650 H   0  0  0  0  0  0  0  0  0  0  0  0
   -2.3205    0.5856    1.9476 H   0  0  0  0  0  0  0  0  0  0  0  0
   -2.0252    2.0991    1.1194 H   0  0  0  0  0  0  0  0  0  0  0  0
   -0.3586    2.6143   -2.1941 H   0  0  0  0  0  0  0  0  0  0  0  0
   -0.3419    4.8311   -1.6974 H   0  0  0  0  0  0  0  0  0  0  0  0
    1.0363    3.8850    2.9605 H   0  0  0  0  0  0  0  0  0  0  0  0
  1  2  1  0
  2  3  2  0
  3  4  1  0
  4  5  2  0
  5  6  1  0
  6  7  2  0
  6  8  1  0
  8  9  1  0
  9 10  1  0
 10 11  1  0
  9 12  1  0
 12 13  1  0
 13 14  2  0
 14 15  1  0
 15 16  2  0
 16 17  1  0
 17 18  2  0
 12 19  1  0
 19 20  1  0
 19 21  1  0
 21 22  2  0
 21 23  1  0
 23 24  1  0
 24 25  2  0
 25 26  1  0
 26 27  1  0
 26 28  2  0
 28 29  1  0
 28 30  1  0
 30 31  2  0
 31 32  1  0
 32 33  2  0
 32 34  1  0
  7  2  1  0
 34  8  1  0
 11  5  1  0
 18 13  1  0
 34 19  1  0
 31 24  1  0
  1 35  1  0
  1 36  1  0
  1 37  1  0
  3 38  1  0
  4 39  1  0
  7 40  1  0
  8 41  1  0
  9 42  1  0
 10 43  1  0
 10 44  1  0
 12 45  1  0
 14 46  1  0
 15 47  1  0
 16 48  1  0
 17 49  1  0
 18 50  1  0
 20 51  1  0
 20 52  1  0
 20 53  1  0
 23 54  1  0
 25 55  1  0
 30 56  1  0
M  END
$$$$
