
     RDKit          3D

 53 55  0  0  0  0  0  0  0  0999 V2000
   -6.2699    2.0504    1.5164 C   0  0  0  0  0  0  0  0  0  0  0  0
   -6.7497    0.7236    1.3303 O   0  0  0  0  0  0  0  0  0  0  0  0
   -5.8890   -0.1724    0.7541 C   0  0  0  0  0  0  0  0  0  0  0  0
   -4.5877    0.0987    0.3218 C   0  0  0  0  0  0  0  0  0  0  0  0
   -3.8092   -0.9073   -0.2606 C   0  0  0  0  0  0  0  0  0  0  0  0
   -2.4951   -0.7070   -0.7442 N   0  0  0  0  0  0  0  0  0  0  0  0
   -1.7447    0.4581   -0.7023 C   0  0  0  0  0  0  0  0  0  0  0  0
   -2.0657    1.5143   -0.1699 O   0  0  0  0  0  0  0  0  0  0  0  0
   -0.4033    0.2835   -1.3933 C   0  0  0  0  0  0  0  0  0  0  0  0
    0.3706    1.5916   -1.5154 C   0  0  0  0  0  0  0  0  0  0  0  0
    0.8253    2.0351   -0.1893 N   0  0  0  0  0  0  0  0  0  0  0  0
    2.0846    3.1480   -0.1143 S   0  0  0  0  0  6  0  0  0  0  0  0
    2.0658    3.9392   -1.3246 O   0  0  0  0  0  0  0  0  0  0  0  0
    2.0331    3.7489    1.1994 O   0  0  0  0  0  0  0  0  0  0  0  0
    3.5016    2.0775   -0.1494 C   0  0  0  0  0  0  0  0  0  0  0  0
    4.3095    2.0202   -1.2887 C   0  0  0  0  0  0  0  0  0  0  0  0
    5.4167    1.1694   -1.3040 C   0  0  0  0  0  0  0  0  0  0  0  0
    5.7170    0.4026   -0.1767 C   0  0  0  0  0  0  0  0  0  0  0  0
    4.9151    0.4655    0.9699 C   0  0  0  0  0  0  0  0  0  0  0  0
    3.7973    1.3060    0.9807 C   0  0  0  0  0  0  0  0  0  0  0  0
    5.2096   -0.4493    2.1262 C   0  0  0  0  0  0  0  0  0  0  0  0
    6.6960   -0.7469    2.2301 C   0  0  0  0  0  0  0  0  0  0  0  0
    7.2939   -1.1278    0.8957 C   0  0  0  0  0  0  0  0  0  0  0  0
    8.2269   -1.9214    0.7929 O   0  0  0  0  0  0  0  0  0  0  0  0
    6.8173   -0.4581   -0.2002 N   0  0  0  0  0  0  0  0  0  0  0  0
   -4.3457   -2.1974   -0.3994 C   0  0  0  0  0  0  0  0  0  0  0  0
   -5.6427   -2.4787    0.0337 C   0  0  0  0  0  0  0  0  0  0  0  0
   -6.2753   -3.6884   -0.0501 O   0  0  0  0  0  0  0  0  0  0  0  0
   -5.5203   -4.7846   -0.5560 C   0  0  0  0  0  0  0  0  0  0  0  0
   -6.4068   -1.4597    0.6041 C   0  0  0  0  0  0  0  0  0  0  0  0
   -6.0214    2.5199    0.5583 H   0  0  0  0  0  0  0  0  0  0  0  0
   -7.0750    2.6345    1.9736 H   0  0  0  0  0  0  0  0  0  0  0  0
   -5.4143    2.0678    2.2022 H   0  0  0  0  0  0  0  0  0  0  0  0
   -4.1868    1.0974    0.4325 H   0  0  0  0  0  0  0  0  0  0  0  0
   -2.0536   -1.5156   -1.1632 H   0  0  0  0  0  0  0  0  0  0  0  0
    0.1826   -0.4567   -0.8372 H   0  0  0  0  0  0  0  0  0  0  0  0
   -0.5910   -0.1098   -2.3985 H   0  0  0  0  0  0  0  0  0  0  0  0
   -0.2558    2.3707   -1.9623 H   0  0  0  0  0  0  0  0  0  0  0  0
    1.2356    1.4178   -2.1651 H   0  0  0  0  0  0  0  0  0  0  0  0
    0.0777    2.2699    0.4739 H   0  0  0  0  0  0  0  0  0  0  0  0
    4.0867    2.6300   -2.1613 H   0  0  0  0  0  0  0  0  0  0  0  0
    6.0426    1.1244   -2.1908 H   0  0  0  0  0  0  0  0  0  0  0  0
    3.1527    1.3575    1.8561 H   0  0  0  0  0  0  0  0  0  0  0  0
    4.8683    0.0007    3.0654 H   0  0  0  0  0  0  0  0  0  0  0  0
    4.6480   -1.3791    1.9777 H   0  0  0  0  0  0  0  0  0  0  0  0
    7.2404    0.1341    2.5915 H   0  0  0  0  0  0  0  0  0  0  0  0
    6.8614   -1.5619    2.9430 H   0  0  0  0  0  0  0  0  0  0  0  0
    7.3216   -0.6188   -1.0636 H   0  0  0  0  0  0  0  0  0  0  0  0
   -3.7401   -2.9746   -0.8526 H   0  0  0  0  0  0  0  0  0  0  0  0
   -6.1531   -5.6771   -0.5180 H   0  0  0  0  0  0  0  0  0  0  0  0
   -5.2419   -4.6182   -1.6024 H   0  0  0  0  0  0  0  0  0  0  0  0
   -4.6386   -4.9767    0.0655 H   0  0  0  0  0  0  0  0  0  0  0  0
   -7.4214   -1.6697    0.9380 H   0  0  0  0  0  0  0  0  0  0  0  0
  1  2  1  0
  2  3  1  0
  3  4  2  0
  4  5  1  0
  5  6  1  0
  6  7  1  0
  7  8  2  0
  7  9  1  0
  9 10  1  0
 10 11  1  0
 11 12  1  0
 12 13  2  0
 12 14  2  0
 12 15  1  0
 15 16  2  0
 16 17  1  0
 17 18  2  0
 18 19  1  0
 19 20  2  0
 19 21  1  0
 21 22  1  0
 22 23  1  0
 23 24  2  0
 23 25  1  0
  5 26  2  0
 26 27  1  0
 27 28  1  0
 28 29  1  0
 27 30  2  0
 30  3  1  0
 20 15  1  0
 25 18  1  0
  1 31  1  0
  1 32  1  0
  1 33  1  0
  4 34  1  0
  6 35  1  0
  9 36  1  0
  9 37  1  0
 10 38  1  0
 10 39  1  0
 11 40  1  0
 16 41  1  0
 17 42  1  0
 20 43  1  0
 21 44  1  0
 21 45  1  0
 22 46  1  0
 22 47  1  0
 25 48  1  0
 26 49  1  0
 29 50  1  0
 29 51  1  0
 29 52  1  0
 30 53  1  0
M  END
$$$$
