
     RDKit          3D

 36 37  0  0  0  0  0  0  0  0999 V2000
   -1.8603   -1.2313    0.0228 O   0  0  0  0  0  0  0  0  0  0  0  0
   -0.8320   -1.1870   -0.6520 C   0  0  0  0  0  0  0  0  0  0  0  0
    0.1848   -2.3301   -0.6941 C   0  0  0  0  0  0  0  0  0  0  0  0
    1.2656   -2.1406    0.2210 O   0  0  0  0  0  0  0  0  0  0  0  0
    2.1884   -1.2326   -0.1745 C   0  0  0  0  0  0  0  0  0  0  0  0
    2.1932   -0.6112   -1.2230 O   0  0  0  0  0  0  0  0  0  0  0  0
    3.1862   -1.0820    0.8961 C   0  0  0  0  0  0  0  0  0  0  0  0
    3.9416   -2.2079    1.2594 C   0  0  0  0  0  0  0  0  0  0  0  0
    4.9156   -2.1000    2.2488 C   0  0  0  0  0  0  0  0  0  0  0  0
    5.1345   -0.8720    2.8720 C   0  0  0  0  0  0  0  0  0  0  0  0
    4.3782    0.2515    2.5128 C   0  0  0  0  0  0  0  0  0  0  0  0
    4.7152    1.7281    3.3490 Cl  0  0  0  0  0  0  0  0  0  0  0  0
    3.3933    0.1564    1.5188 C   0  0  0  0  0  0  0  0  0  0  0  0
    2.4184    1.5295    1.1016 Cl  0  0  0  0  0  0  0  0  0  0  0  0
   -0.5125   -0.0962   -1.4356 N   0  0  0  0  0  0  0  0  0  0  0  0
   -1.2726    1.1347   -1.3132 C   0  0  0  0  0  0  0  0  0  0  0  0
   -2.7128    1.0101   -1.8332 C   0  0  0  0  0  0  0  0  0  0  0  0
   -3.6479    1.7582   -1.0185 N   0  0  0  0  0  0  0  0  0  0  0  0
   -4.3548    1.2517    0.0467 C   0  0  0  0  0  0  0  0  0  0  0  0
   -4.2306   -0.0435    0.4532 O   0  0  0  0  0  0  0  0  0  0  0  0
   -5.1662    2.1318    0.6404 C   0  0  0  0  0  0  0  0  0  0  0  0
   -5.0645    3.6969   -0.1025 S   0  0  0  0  0  0  0  0  0  0  0  0
   -3.8623    3.1083   -1.2627 C   0  0  0  0  0  0  0  0  0  0  0  0
   -3.3310    3.8088   -2.1091 O   0  0  0  0  0  0  0  0  0  0  0  0
    0.5529   -2.4784   -1.7166 H   0  0  0  0  0  0  0  0  0  0  0  0
   -0.3335   -3.2524   -0.4106 H   0  0  0  0  0  0  0  0  0  0  0  0
    3.7760   -3.1657    0.7697 H   0  0  0  0  0  0  0  0  0  0  0  0
    5.5056   -2.9688    2.5341 H   0  0  0  0  0  0  0  0  0  0  0  0
    5.8978   -0.7942    3.6443 H   0  0  0  0  0  0  0  0  0  0  0  0
    0.4695   -0.0113   -1.7092 H   0  0  0  0  0  0  0  0  0  0  0  0
   -1.2538    1.4211   -0.2547 H   0  0  0  0  0  0  0  0  0  0  0  0
   -0.7370    1.9084   -1.8739 H   0  0  0  0  0  0  0  0  0  0  0  0
   -2.7470    1.4051   -2.8566 H   0  0  0  0  0  0  0  0  0  0  0  0
   -3.0549   -0.0278   -1.9082 H   0  0  0  0  0  0  0  0  0  0  0  0
   -3.3414   -0.3846    0.2165 H   0  0  0  0  0  0  0  0  0  0  0  0
   -5.8014    1.9169    1.4877 H   0  0  0  0  0  0  0  0  0  0  0  0
  1  2  2  0
  2  3  1  0
  3  4  1  0
  4  5  1  0
  5  6  2  0
  5  7  1  0
  7  8  2  0
  8  9  1  0
  9 10  2  0
 10 11  1  0
 11 12  1  0
 11 13  2  0
 13 14  1  0
  2 15  1  0
 15 16  1  0
 16 17  1  0
 17 18  1  0
 18 19  1  0
 19 20  1  0
 19 21  2  0
 21 22  1  0
 22 23  1  0
 23 24  2  0
 13  7  1  0
 23 18  1  0
  3 25  1  0
  3 26  1  0
  8 27  1  0
  9 28  1  0
 10 29  1  0
 15 30  1  0
 16 31  1  0
 16 32  1  0
 17 33  1  0
 17 34  1  0
 20 35  1  0
 21 36  1  0
M  END
$$$$
