
     RDKit          3D

 39 40  0  0  0  0  0  0  0  0999 V2000
    6.9927   -0.7169    2.6565 C   0  0  0  0  0  0  0  0  0  0  0  0
    5.5618   -0.7560    2.2066 C   0  0  0  0  0  0  0  0  0  0  0  0
    5.0675   -1.8672    1.5137 C   0  0  0  0  0  0  0  0  0  0  0  0
    3.7276   -1.9166    1.1200 C   0  0  0  0  0  0  0  0  0  0  0  0
    2.8604   -0.8603    1.4260 C   0  0  0  0  0  0  0  0  0  0  0  0
    1.4432   -0.9637    0.9853 C   0  0  0  0  0  0  0  0  0  0  0  0
    1.0150   -1.8723    0.2901 O   0  0  0  0  0  0  0  0  0  0  0  0
    0.7090    0.0625    1.4836 O   0  0  0  0  0  0  0  0  0  0  0  0
   -0.6436    0.0738    1.0320 C   0  0  0  0  0  0  0  0  0  0  0  0
   -0.7822    0.5285   -0.4242 C   0  0  0  0  0  0  0  0  0  0  0  0
    0.0455    1.2414   -0.9868 O   0  0  0  0  0  0  0  0  0  0  0  0
   -1.9348    0.0912   -1.0405 N   0  0  0  0  0  0  0  0  0  0  0  0
   -2.1888    0.3704   -2.4433 C   0  0  0  0  0  0  0  0  0  0  0  0
   -3.5454   -0.1578   -2.9212 C   0  0  0  0  0  0  0  0  0  0  0  0
   -4.6640    0.4656   -2.2319 N   0  0  0  0  0  0  0  0  0  0  0  0
   -5.3319    1.5675   -2.7044 C   0  0  0  0  0  0  0  0  0  0  0  0
   -4.9757    2.0880   -3.9115 O   0  0  0  0  0  0  0  0  0  0  0  0
   -6.2890    2.0283   -1.8906 C   0  0  0  0  0  0  0  0  0  0  0  0
   -6.3916    1.0787   -0.4378 S   0  0  0  0  0  0  0  0  0  0  0  0
   -5.0537    0.0459   -0.9703 C   0  0  0  0  0  0  0  0  0  0  0  0
   -4.5687   -0.8496   -0.2951 O   0  0  0  0  0  0  0  0  0  0  0  0
    3.3501    0.2476    2.1287 C   0  0  0  0  0  0  0  0  0  0  0  0
    4.6913    0.2947    2.5209 C   0  0  0  0  0  0  0  0  0  0  0  0
    7.0842   -1.1632    3.6514 H   0  0  0  0  0  0  0  0  0  0  0  0
    7.6360   -1.2662    1.9611 H   0  0  0  0  0  0  0  0  0  0  0  0
    7.3620    0.3134    2.6950 H   0  0  0  0  0  0  0  0  0  0  0  0
    5.7227   -2.7014    1.2720 H   0  0  0  0  0  0  0  0  0  0  0  0
    3.3628   -2.7847    0.5742 H   0  0  0  0  0  0  0  0  0  0  0  0
   -1.1097   -0.9067    1.1865 H   0  0  0  0  0  0  0  0  0  0  0  0
   -1.1886    0.7949    1.6505 H   0  0  0  0  0  0  0  0  0  0  0  0
   -2.5105   -0.6074   -0.5722 H   0  0  0  0  0  0  0  0  0  0  0  0
   -2.1187    1.4542   -2.5909 H   0  0  0  0  0  0  0  0  0  0  0  0
   -1.3847   -0.0976   -3.0223 H   0  0  0  0  0  0  0  0  0  0  0  0
   -3.6492   -0.0146   -4.0024 H   0  0  0  0  0  0  0  0  0  0  0  0
   -3.5971   -1.2376   -2.7334 H   0  0  0  0  0  0  0  0  0  0  0  0
   -5.5311    2.8669   -4.0863 H   0  0  0  0  0  0  0  0  0  0  0  0
   -6.9274    2.8805   -2.0706 H   0  0  0  0  0  0  0  0  0  0  0  0
    2.7013    1.0845    2.3746 H   0  0  0  0  0  0  0  0  0  0  0  0
    5.0529    1.1614    3.0705 H   0  0  0  0  0  0  0  0  0  0  0  0
  1  2  1  0
  2  3  2  0
  3  4  1  0
  4  5  2  0
  5  6  1  0
  6  7  2  0
  6  8  1  0
  8  9  1  0
  9 10  1  0
 10 11  2  0
 10 12  1  0
 12 13  1  0
 13 14  1  0
 14 15  1  0
 15 16  1  0
 16 17  1  0
 16 18  2  0
 18 19  1  0
 19 20  1  0
 20 21  2  0
  5 22  1  0
 22 23  2  0
 23  2  1  0
 20 15  1  0
  1 24  1  0
  1 25  1  0
  1 26  1  0
  3 27  1  0
  4 28  1  0
  9 29  1  0
  9 30  1  0
 12 31  1  0
 13 32  1  0
 13 33  1  0
 14 34  1  0
 14 35  1  0
 17 36  1  0
 18 37  1  0
 22 38  1  0
 23 39  1  0
M  END
$$$$
