
     RDKit          3D

 44 46  0  0  0  0  0  0  0  0999 V2000
   -2.8950   -2.7923    3.5653 C   0  0  0  0  0  0  0  0  0  0  0  0
   -2.4359   -2.4121    2.1885 C   0  0  0  0  0  0  0  0  0  0  0  0
   -1.7077   -3.3106    1.4099 C   0  0  0  0  0  0  0  0  0  0  0  0
   -1.2907   -2.9850    0.1052 C   0  0  0  0  0  0  0  0  0  0  0  0
   -0.5354   -4.0512   -0.6453 C   0  0  0  0  0  0  0  0  0  0  0  0
   -1.6376   -1.7169   -0.4356 C   0  0  0  0  0  0  0  0  0  0  0  0
   -1.0947   -1.2960   -2.1096 S   0  0  0  0  0  6  0  0  0  0  0  0
   -1.2154   -2.4832   -2.9311 O   0  0  0  0  0  0  0  0  0  0  0  0
   -1.7075   -0.0616   -2.5467 O   0  0  0  0  0  0  0  0  0  0  0  0
    0.5641   -1.0230   -1.9215 N   0  0  0  0  0  0  0  0  0  0  0  0
    1.0183   -0.1008   -0.9407 C   0  0  0  0  0  0  0  0  0  0  0  0
    1.6968   -0.5852    0.1781 C   0  0  0  0  0  0  0  0  0  0  0  0
    2.1160    0.2959    1.1758 C   0  0  0  0  0  0  0  0  0  0  0  0
    1.8565    1.6610    1.0464 C   0  0  0  0  0  0  0  0  0  0  0  0
    2.2567    2.5181    2.0356 O   0  0  0  0  0  0  0  0  0  0  0  0
    1.1853    2.1593   -0.0798 C   0  0  0  0  0  0  0  0  0  0  0  0
    0.8147    3.8948   -0.2754 S   0  0  0  0  0  0  0  0  0  0  0  0
    2.3300    4.5400   -0.8568 C   0  0  0  0  0  0  0  0  0  0  0  0
    2.6297    5.8769   -0.7662 N   0  0  0  0  0  0  0  0  0  0  0  0
    3.8073    5.9605   -1.3362 C   0  0  0  0  0  0  0  0  0  0  0  0
    4.1905    4.7303   -1.7615 N   0  0  0  0  0  0  0  0  0  0  0  0
    3.2628    3.8053   -1.4783 N   0  0  0  0  0  0  0  0  0  0  0  0
    0.7626    1.2634   -1.0707 C   0  0  0  0  0  0  0  0  0  0  0  0
   -2.4091   -0.8107    0.3340 C   0  0  0  0  0  0  0  0  0  0  0  0
   -2.8820    0.5360   -0.1457 C   0  0  0  0  0  0  0  0  0  0  0  0
   -2.7920   -1.1804    1.6387 C   0  0  0  0  0  0  0  0  0  0  0  0
   -2.1839   -3.4771    4.0392 H   0  0  0  0  0  0  0  0  0  0  0  0
   -2.9724   -1.9097    4.2090 H   0  0  0  0  0  0  0  0  0  0  0  0
   -3.8737   -3.2791    3.5124 H   0  0  0  0  0  0  0  0  0  0  0  0
   -1.4651   -4.2880    1.8263 H   0  0  0  0  0  0  0  0  0  0  0  0
    0.3720   -3.6549   -1.1049 H   0  0  0  0  0  0  0  0  0  0  0  0
   -1.1774   -4.5114   -1.4020 H   0  0  0  0  0  0  0  0  0  0  0  0
   -0.2045   -4.8516    0.0268 H   0  0  0  0  0  0  0  0  0  0  0  0
    1.1227   -1.8527   -2.1041 H   0  0  0  0  0  0  0  0  0  0  0  0
    1.8915   -1.6477    0.2926 H   0  0  0  0  0  0  0  0  0  0  0  0
    2.6335   -0.0974    2.0453 H   0  0  0  0  0  0  0  0  0  0  0  0
    2.7194    2.0207    2.7278 H   0  0  0  0  0  0  0  0  0  0  0  0
    4.4035    6.8519   -1.4670 H   0  0  0  0  0  0  0  0  0  0  0  0
    5.0385    4.4534   -2.2424 H   0  0  0  0  0  0  0  0  0  0  0  0
    0.2410    1.6347   -1.9502 H   0  0  0  0  0  0  0  0  0  0  0  0
   -3.4350    1.0700    0.6358 H   0  0  0  0  0  0  0  0  0  0  0  0
   -3.5704    0.4222   -0.9883 H   0  0  0  0  0  0  0  0  0  0  0  0
   -2.0394    1.1773   -0.4118 H   0  0  0  0  0  0  0  0  0  0  0  0
   -3.3892   -0.4931    2.2382 H   0  0  0  0  0  0  0  0  0  0  0  0
  1  2  1  0
  2  3  2  0
  3  4  1  0
  4  5  1  0
  4  6  2  0
  6  7  1  0
  7  8  2  0
  7  9  2  0
  7 10  1  0
 10 11  1  0
 11 12  2  0
 12 13  1  0
 13 14  2  0
 14 15  1  0
 14 16  1  0
 16 17  1  0
 17 18  1  0
 18 19  1  0
 19 20  2  0
 20 21  1  0
 21 22  1  0
 16 23  2  0
  6 24  1  0
 24 25  1  0
 24 26  2  0
 26  2  1  0
 23 11  1  0
 22 18  2  0
  1 27  1  0
  1 28  1  0
  1 29  1  0
  3 30  1  0
  5 31  1  0
  5 32  1  0
  5 33  1  0
 10 34  1  0
 12 35  1  0
 13 36  1  0
 15 37  1  0
 20 38  1  0
 21 39  1  0
 23 40  1  0
 25 41  1  0
 25 42  1  0
 25 43  1  0
 26 44  1  0
M  END
$$$$
