
     RDKit          3D

 50 53  0  0  0  0  0  0  0  0999 V2000
   -5.9922   -2.6299    4.8492 C   0  0  0  0  0  0  0  0  0  0  0  0
   -4.9321   -2.1520    3.9020 C   0  0  0  0  0  0  0  0  0  0  0  0
   -5.2472   -1.2584    2.8735 C   0  0  0  0  0  0  0  0  0  0  0  0
   -4.2676   -0.8346    1.9664 C   0  0  0  0  0  0  0  0  0  0  0  0
   -2.9525   -1.2982    2.0772 C   0  0  0  0  0  0  0  0  0  0  0  0
   -1.9199   -0.9010    1.1719 N   0  0  0  0  0  0  0  0  0  0  0  0
   -0.7955   -1.6636    1.0927 N   0  0  0  0  0  0  0  0  0  0  0  0
   -0.1300   -1.1959    0.0356 C   0  0  0  0  0  0  0  0  0  0  0  0
    1.1097   -1.7326   -0.5111 C   0  0  0  0  0  0  0  0  0  0  0  0
    1.6922   -2.7117   -0.0523 O   0  0  0  0  0  0  0  0  0  0  0  0
    1.5714   -1.0013   -1.6242 N   0  0  0  0  0  0  0  0  0  0  0  0
    2.8193   -1.4159   -2.2658 C   0  0  0  0  0  0  0  0  0  0  0  0
    4.0398   -0.6684   -1.7233 C   0  0  0  0  0  0  0  0  0  0  0  0
    5.1876   -1.0300   -1.9753 O   0  0  0  0  0  0  0  0  0  0  0  0
    3.7516    0.4838   -1.0261 N   0  0  0  0  0  0  0  0  0  0  0  0
    4.7702    1.4251   -0.6319 C   0  0  0  0  0  0  0  0  0  0  0  0
    4.8324    2.5036   -1.6667 C   0  0  0  0  0  0  0  0  0  0  0  0
    5.5859    2.5297   -2.8245 C   0  0  0  0  0  0  0  0  0  0  0  0
    5.3855    3.7228   -3.5758 C   0  0  0  0  0  0  0  0  0  0  0  0
    4.4835    4.5677   -2.9691 C   0  0  0  0  0  0  0  0  0  0  0  0
    3.8809    3.9206   -1.5053 S   0  0  0  0  0  0  0  0  0  0  0  0
    0.9621    0.1510   -2.1424 N   0  0  0  0  0  0  0  0  0  0  0  0
   -0.1507    0.6096   -1.6382 C   0  0  0  0  0  0  0  0  0  0  0  0
   -0.7610    1.8352   -2.2560 C   0  0  0  0  0  0  0  0  0  0  0  0
   -0.7418   -0.0603   -0.5064 C   0  0  0  0  0  0  0  0  0  0  0  0
   -1.8436    0.1894    0.2952 C   0  0  0  0  0  0  0  0  0  0  0  0
   -2.7532    1.3641    0.3271 C   0  0  0  0  0  0  0  0  0  0  0  0
   -2.6488   -2.2282    3.0853 C   0  0  0  0  0  0  0  0  0  0  0  0
   -3.6289   -2.6477    3.9897 C   0  0  0  0  0  0  0  0  0  0  0  0
   -6.4724   -3.5290    4.4511 H   0  0  0  0  0  0  0  0  0  0  0  0
   -6.7552   -1.8594    5.0024 H   0  0  0  0  0  0  0  0  0  0  0  0
   -5.5636   -2.8614    5.8300 H   0  0  0  0  0  0  0  0  0  0  0  0
   -6.2666   -0.8940    2.7621 H   0  0  0  0  0  0  0  0  0  0  0  0
   -4.5891   -0.1842    1.1622 H   0  0  0  0  0  0  0  0  0  0  0  0
    2.7407   -1.2185   -3.3402 H   0  0  0  0  0  0  0  0  0  0  0  0
    2.9791   -2.4879   -2.1132 H   0  0  0  0  0  0  0  0  0  0  0  0
    2.7987    0.8230   -1.1138 H   0  0  0  0  0  0  0  0  0  0  0  0
    4.4905    1.8227    0.3492 H   0  0  0  0  0  0  0  0  0  0  0  0
    5.7392    0.9248   -0.5329 H   0  0  0  0  0  0  0  0  0  0  0  0
    6.2473    1.7212   -3.1172 H   0  0  0  0  0  0  0  0  0  0  0  0
    5.8777    3.9481   -4.5139 H   0  0  0  0  0  0  0  0  0  0  0  0
    4.1470    5.5351   -3.3156 H   0  0  0  0  0  0  0  0  0  0  0  0
   -1.8303    1.6832   -2.4239 H   0  0  0  0  0  0  0  0  0  0  0  0
   -0.2857    2.0524   -3.2173 H   0  0  0  0  0  0  0  0  0  0  0  0
   -0.6083    2.6913   -1.5935 H   0  0  0  0  0  0  0  0  0  0  0  0
   -3.6007    1.2175   -0.3489 H   0  0  0  0  0  0  0  0  0  0  0  0
   -2.2296    2.2723    0.0159 H   0  0  0  0  0  0  0  0  0  0  0  0
   -3.1198    1.5717    1.3366 H   0  0  0  0  0  0  0  0  0  0  0  0
   -1.6430   -2.6342    3.1883 H   0  0  0  0  0  0  0  0  0  0  0  0
   -3.3629   -3.3675    4.7611 H   0  0  0  0  0  0  0  0  0  0  0  0
  1  2  1  0
  2  3  2  0
  3  4  1  0
  4  5  2  0
  5  6  1  0
  6  7  1  0
  7  8  2  0
  8  9  1  0
  9 10  2  0
  9 11  1  0
 11 12  1  0
 12 13  1  0
 13 14  2  0
 13 15  1  0
 15 16  1  0
 16 17  1  0
 17 18  2  0
 18 19  1  0
 19 20  2  0
 20 21  1  0
 11 22  1  0
 22 23  2  0
 23 24  1  0
 23 25  1  0
 25 26  2  0
 26 27  1  0
  5 28  1  0
 28 29  2  0
 29  2  1  0
 26  6  1  0
 25  8  1  0
 21 17  1  0
  1 30  1  0
  1 31  1  0
  1 32  1  0
  3 33  1  0
  4 34  1  0
 12 35  1  0
 12 36  1  0
 15 37  1  0
 16 38  1  0
 16 39  1  0
 18 40  1  0
 19 41  1  0
 20 42  1  0
 24 43  1  0
 24 44  1  0
 24 45  1  0
 27 46  1  0
 27 47  1  0
 27 48  1  0
 28 49  1  0
 29 50  1  0
M  END
$$$$
