
     RDKit          3D

 65 68  0  0  0  0  0  0  0  0999 V2000
    6.3333   -1.3470    4.7311 C   0  0  0  0  0  0  0  0  0  0  0  0
    5.8250   -0.4743    3.6614 C   0  0  0  0  0  0  0  0  0  0  0  0
    5.4713   -0.6684    2.3494 C   0  0  0  0  0  0  0  0  0  0  0  0
    5.0626    0.6052    1.8984 C   0  0  0  0  0  0  0  0  0  0  0  0
    4.6115    0.9896    0.6558 N   0  0  0  0  0  0  0  0  0  0  0  0
    4.4084    0.1481   -0.4099 C   0  0  0  0  0  0  0  0  0  0  0  0
    4.5625   -1.0714   -0.4058 O   0  0  0  0  0  0  0  0  0  0  0  0
    3.9550    0.8695   -1.6661 C   0  0  0  0  0  0  0  0  0  0  0  0
    2.6113    0.3197   -2.1320 C   0  0  0  0  0  0  0  0  0  0  0  0
    1.5004    0.6803   -1.1559 C   0  0  0  0  0  0  0  0  0  0  0  0
    1.6916    1.5451   -0.2972 O   0  0  0  0  0  0  0  0  0  0  0  0
    0.2890    0.0134   -1.2737 N   0  0  0  0  0  0  0  0  0  0  0  0
   -0.0439   -0.8540   -2.4091 C   0  0  0  0  0  0  0  0  0  0  0  0
    0.1488   -2.3064   -2.0702 C   0  0  0  0  0  0  0  0  0  0  0  0
    1.0200   -2.9107   -1.1809 C   0  0  0  0  0  0  0  0  0  0  0  0
    0.8873   -4.3290   -1.1607 C   0  0  0  0  0  0  0  0  0  0  0  0
   -0.0723   -4.7684   -2.0423 C   0  0  0  0  0  0  0  0  0  0  0  0
   -0.8056   -3.4782   -2.8879 S   0  0  0  0  0  0  0  0  0  0  0  0
   -0.8110    0.4610   -0.3934 C   0  0  0  0  0  0  0  0  0  0  0  0
   -1.6548    1.5747   -1.0812 C   0  0  0  0  0  0  0  0  0  0  0  0
   -1.5794    1.8380   -2.2813 O   0  0  0  0  0  0  0  0  0  0  0  0
   -2.5210    2.2409   -0.2279 N   0  0  0  0  0  0  0  0  0  0  0  0
   -3.4676    3.2264   -0.7245 C   0  0  0  0  0  0  0  0  0  0  0  0
   -4.0573    4.0555    0.4115 C   0  0  0  0  0  0  0  0  0  0  0  0
   -5.1892    3.1999    0.9773 C   0  0  0  0  0  0  0  0  0  0  0  0
   -5.5785    2.2181   -0.1281 C   0  0  0  0  0  0  0  0  0  0  0  0
   -4.7063    2.5703   -1.3301 C   0  0  0  0  0  0  0  0  0  0  0  0
   -1.6498   -0.6859    0.1638 C   0  0  0  0  0  0  0  0  0  0  0  0
   -2.8522   -1.1024   -0.4298 C   0  0  0  0  0  0  0  0  0  0  0  0
   -3.5760   -2.1712    0.1029 C   0  0  0  0  0  0  0  0  0  0  0  0
   -3.1083   -2.8392    1.2323 C   0  0  0  0  0  0  0  0  0  0  0  0
   -1.9150   -2.4427    1.8298 C   0  0  0  0  0  0  0  0  0  0  0  0
   -1.1886   -1.3762    1.2984 C   0  0  0  0  0  0  0  0  0  0  0  0
    5.1714    1.5127    2.8746 N   0  0  0  0  0  0  0  0  0  0  0  0
    5.6500    0.8335    3.9792 O   0  0  0  0  0  0  0  0  0  0  0  0
    5.6930   -1.2840    5.6160 H   0  0  0  0  0  0  0  0  0  0  0  0
    7.3472   -1.0513    5.0163 H   0  0  0  0  0  0  0  0  0  0  0  0
    6.3619   -2.3914    4.4054 H   0  0  0  0  0  0  0  0  0  0  0  0
    5.5021   -1.5975    1.8028 H   0  0  0  0  0  0  0  0  0  0  0  0
    4.3187    1.9559    0.6054 H   0  0  0  0  0  0  0  0  0  0  0  0
    4.7172    0.6955   -2.4342 H   0  0  0  0  0  0  0  0  0  0  0  0
    3.9049    1.9517   -1.5070 H   0  0  0  0  0  0  0  0  0  0  0  0
    2.3665    0.7656   -3.1020 H   0  0  0  0  0  0  0  0  0  0  0  0
    2.6785   -0.7648   -2.2489 H   0  0  0  0  0  0  0  0  0  0  0  0
   -1.0747   -0.6564   -2.7215 H   0  0  0  0  0  0  0  0  0  0  0  0
    0.5837   -0.6072   -3.2709 H   0  0  0  0  0  0  0  0  0  0  0  0
    1.7200   -2.3640   -0.5598 H   0  0  0  0  0  0  0  0  0  0  0  0
    1.4686   -4.9918   -0.5308 H   0  0  0  0  0  0  0  0  0  0  0  0
   -0.3793   -5.7873   -2.2331 H   0  0  0  0  0  0  0  0  0  0  0  0
   -0.3716    0.9638    0.4796 H   0  0  0  0  0  0  0  0  0  0  0  0
   -2.6837    1.8352    0.6876 H   0  0  0  0  0  0  0  0  0  0  0  0
   -2.9540    3.8579   -1.4580 H   0  0  0  0  0  0  0  0  0  0  0  0
   -4.4795    4.9854    0.0097 H   0  0  0  0  0  0  0  0  0  0  0  0
   -3.3248    4.3234    1.1799 H   0  0  0  0  0  0  0  0  0  0  0  0
   -4.8471    2.6510    1.8609 H   0  0  0  0  0  0  0  0  0  0  0  0
   -6.0342    3.8225    1.2850 H   0  0  0  0  0  0  0  0  0  0  0  0
   -6.6436    2.2793   -0.3752 H   0  0  0  0  0  0  0  0  0  0  0  0
   -5.3792    1.1910    0.1992 H   0  0  0  0  0  0  0  0  0  0  0  0
   -5.2361    3.2961   -1.9605 H   0  0  0  0  0  0  0  0  0  0  0  0
   -4.4842    1.6911   -1.9428 H   0  0  0  0  0  0  0  0  0  0  0  0
   -3.2350   -0.6127   -1.3227 H   0  0  0  0  0  0  0  0  0  0  0  0
   -4.4999   -2.4910   -0.3721 H   0  0  0  0  0  0  0  0  0  0  0  0
   -3.6669   -3.6771    1.6403 H   0  0  0  0  0  0  0  0  0  0  0  0
   -1.5435   -2.9718    2.7040 H   0  0  0  0  0  0  0  0  0  0  0  0
   -0.2477   -1.0935    1.7674 H   0  0  0  0  0  0  0  0  0  0  0  0
  1  2  1  0
  2  3  2  0
  3  4  1  0
  4  5  1  0
  5  6  1  0
  6  7  2  0
  6  8  1  0
  8  9  1  0
  9 10  1  0
 10 11  2  0
 10 12  1  0
 12 13  1  0
 13 14  1  0
 14 15  2  0
 15 16  1  0
 16 17  2  0
 17 18  1  0
 12 19  1  0
 19 20  1  0
 20 21  2  0
 20 22  1  0
 22 23  1  0
 23 24  1  0
 24 25  1  0
 25 26  1  0
 26 27  1  0
 19 28  1  0
 28 29  2  0
 29 30  1  0
 30 31  2  0
 31 32  1  0
 32 33  2  0
  4 34  2  0
 34 35  1  0
 35  2  1  0
 18 14  1  0
 27 23  1  0
 33 28  1  0
  1 36  1  0
  1 37  1  0
  1 38  1  0
  3 39  1  0
  5 40  1  0
  8 41  1  0
  8 42  1  0
  9 43  1  0
  9 44  1  0
 13 45  1  0
 13 46  1  0
 15 47  1  0
 16 48  1  0
 17 49  1  0
 19 50  1  0
 22 51  1  0
 23 52  1  0
 24 53  1  0
 24 54  1  0
 25 55  1  0
 25 56  1  0
 26 57  1  0
 26 58  1  0
 27 59  1  0
 27 60  1  0
 29 61  1  0
 30 62  1  0
 31 63  1  0
 32 64  1  0
 33 65  1  0
M  END
$$$$
