
     RDKit          3D

 40 42  0  0  0  0  0  0  0  0999 V2000
   -6.4283   -1.5963    1.2145 C   0  0  0  0  0  0  0  0  0  0  0  0
   -6.2791   -1.6870   -0.1978 O   0  0  0  0  0  0  0  0  0  0  0  0
   -5.0805   -1.2694   -0.7175 C   0  0  0  0  0  0  0  0  0  0  0  0
   -4.0003   -0.7598    0.0046 C   0  0  0  0  0  0  0  0  0  0  0  0
   -2.8256   -0.3736   -0.6613 C   0  0  0  0  0  0  0  0  0  0  0  0
   -1.7075    0.1710    0.1160 C   0  0  0  0  0  0  0  0  0  0  0  0
   -0.5169   -0.4169    0.2979 C   0  0  0  0  0  0  0  0  0  0  0  0
    0.0105   -1.9473   -0.3039 S   0  0  0  0  0  0  0  0  0  0  0  0
    1.5957   -1.8089    0.4449 C   0  0  0  0  0  0  0  0  0  0  0  0
    2.7699   -2.9928    0.3631 S   0  0  0  0  0  0  0  0  0  0  0  0
    1.6639   -0.6018    1.1089 N   0  0  0  0  0  0  0  0  0  0  0  0
    2.8380   -0.1800    1.7783 N   0  0  0  0  0  0  0  0  0  0  0  0
    3.7030    0.5802    0.9382 C   0  0  0  0  0  0  0  0  0  0  0  0
    3.2702    0.9700   -0.2896 N   0  0  0  0  0  0  0  0  0  0  0  0
    4.0938    1.7309   -1.0496 C   0  0  0  0  0  0  0  0  0  0  0  0
    5.3563    2.1426   -0.6531 C   0  0  0  0  0  0  0  0  0  0  0  0
    6.2050    2.9638   -1.5733 C   0  0  0  0  0  0  0  0  0  0  0  0
    7.1155    3.7317   -0.9147 F   0  0  0  0  0  0  0  0  0  0  0  0
    6.9185    2.1938   -2.4379 F   0  0  0  0  0  0  0  0  0  0  0  0
    5.4803    3.8207   -2.3428 F   0  0  0  0  0  0  0  0  0  0  0  0
    5.8026    1.7288    0.6048 C   0  0  0  0  0  0  0  0  0  0  0  0
    4.9719    0.9492    1.4098 C   0  0  0  0  0  0  0  0  0  0  0  0
    5.5527    0.4425    2.9544 Cl  0  0  0  0  0  0  0  0  0  0  0  0
    0.5490    0.2241    1.1224 C   0  0  0  0  0  0  0  0  0  0  0  0
    0.4011    1.2837    1.7172 O   0  0  0  0  0  0  0  0  0  0  0  0
   -2.7431   -0.4865   -2.0555 C   0  0  0  0  0  0  0  0  0  0  0  0
   -3.8188   -0.9944   -2.7817 C   0  0  0  0  0  0  0  0  0  0  0  0
   -4.9705   -1.3797   -2.1085 C   0  0  0  0  0  0  0  0  0  0  0  0
   -6.0129   -1.8746   -2.8444 O   0  0  0  0  0  0  0  0  0  0  0  0
   -6.3626   -0.5568    1.5521 H   0  0  0  0  0  0  0  0  0  0  0  0
   -7.4260   -1.9666    1.4691 H   0  0  0  0  0  0  0  0  0  0  0  0
   -5.6971   -2.2279    1.7298 H   0  0  0  0  0  0  0  0  0  0  0  0
   -4.0440   -0.6563    1.0839 H   0  0  0  0  0  0  0  0  0  0  0  0
   -1.9084    1.1351    0.5821 H   0  0  0  0  0  0  0  0  0  0  0  0
    3.3606   -0.9674    2.1652 H   0  0  0  0  0  0  0  0  0  0  0  0
    3.6853    2.0085   -2.0203 H   0  0  0  0  0  0  0  0  0  0  0  0
    6.7916    2.0164    0.9570 H   0  0  0  0  0  0  0  0  0  0  0  0
   -1.8447   -0.1796   -2.5860 H   0  0  0  0  0  0  0  0  0  0  0  0
   -3.7617   -1.0883   -3.8619 H   0  0  0  0  0  0  0  0  0  0  0  0
   -6.7077   -2.0812   -2.1894 H   0  0  0  0  0  0  0  0  0  0  0  0
  1  2  1  0
  2  3  1  0
  3  4  2  0
  4  5  1  0
  5  6  1  0
  6  7  2  3
  7  8  1  0
  8  9  1  0
  9 10  2  0
  9 11  1  0
 11 12  1  0
 12 13  1  0
 13 14  2  0
 14 15  1  0
 15 16  2  0
 16 17  1  0
 17 18  1  0
 17 19  1  0
 17 20  1  0
 16 21  1  0
 21 22  2  0
 22 23  1  0
 11 24  1  0
 24 25  2  0
  5 26  2  0
 26 27  1  0
 27 28  2  0
 28 29  1  0
 28  3  1  0
 24  7  1  0
 22 13  1  0
  1 30  1  0
  1 31  1  0
  1 32  1  0
  4 33  1  0
  6 34  1  0
 12 35  1  0
 15 36  1  0
 21 37  1  0
 26 38  1  0
 27 39  1  0
 29 40  1  0
M  END
$$$$
