
     RDKit          3D

 47 48  0  0  0  0  0  0  0  0999 V2000
   -5.1126    1.5003    0.5557 C   0  0  0  0  0  0  0  0  0  0  0  0
   -4.1613    1.3765    1.7375 C   0  0  0  0  0  0  0  0  0  0  0  0
   -3.4845    0.0706    1.7387 N   0  0  0  0  0  0  0  0  0  0  0  0
   -4.1660   -0.9889    2.4994 C   0  0  0  0  0  0  0  0  0  0  0  0
   -3.6556   -1.0456    3.9322 C   0  0  0  0  0  0  0  0  0  0  0  0
   -2.2995   -0.1592    1.0471 C   0  0  0  0  0  0  0  0  0  0  0  0
   -1.5924   -1.3663    1.1580 C   0  0  0  0  0  0  0  0  0  0  0  0
   -0.3920   -1.6025    0.4746 C   0  0  0  0  0  0  0  0  0  0  0  0
    0.1596   -0.6264   -0.3555 C   0  0  0  0  0  0  0  0  0  0  0  0
    1.4193   -0.9533   -1.0451 C   0  0  0  0  0  0  0  0  0  0  0  0
    2.4848   -0.1371   -1.0205 C   0  0  0  0  0  0  0  0  0  0  0  0
    3.7425   -0.4439   -1.7043 C   0  0  0  0  0  0  0  0  0  0  0  0
    3.7550   -0.7067   -3.0811 C   0  0  0  0  0  0  0  0  0  0  0  0
    4.9539   -0.9629   -3.7333 C   0  0  0  0  0  0  0  0  0  0  0  0
    6.1326   -0.9480   -3.0062 C   0  0  0  0  0  0  0  0  0  0  0  0
    6.0899   -0.6792   -1.6442 C   0  0  0  0  0  0  0  0  0  0  0  0
    4.9165   -0.4339   -1.0132 N   0  0  0  0  0  4  0  0  0  0  0  0
    4.9331   -0.1793    0.4417 C   0  0  0  0  0  0  0  0  0  0  0  0
   -0.5322    0.5839   -0.5207 C   0  0  0  0  0  0  0  0  0  0  0  0
    0.0283    1.5000   -1.3800 O   0  0  0  0  0  0  0  0  0  0  0  0
   -0.8035    2.5688   -1.8206 C   0  0  0  0  0  0  0  0  0  0  0  0
   -1.7285    0.8017    0.1889 C   0  0  0  0  0  0  0  0  0  0  0  0
   -5.8762    0.7160    0.5816 H   0  0  0  0  0  0  0  0  0  0  0  0
   -5.6213    2.4691    0.5808 H   0  0  0  0  0  0  0  0  0  0  0  0
   -4.5868    1.4185   -0.4002 H   0  0  0  0  0  0  0  0  0  0  0  0
   -4.7414    1.4919    2.6622 H   0  0  0  0  0  0  0  0  0  0  0  0
   -3.4447    2.2053    1.7539 H   0  0  0  0  0  0  0  0  0  0  0  0
   -5.2451   -0.7900    2.5249 H   0  0  0  0  0  0  0  0  0  0  0  0
   -4.0747   -1.9652    2.0105 H   0  0  0  0  0  0  0  0  0  0  0  0
   -4.1844   -1.8242    4.4909 H   0  0  0  0  0  0  0  0  0  0  0  0
   -2.5848   -1.2663    3.9738 H   0  0  0  0  0  0  0  0  0  0  0  0
   -3.8171   -0.0916    4.4450 H   0  0  0  0  0  0  0  0  0  0  0  0
   -1.9509   -2.1673    1.7979 H   0  0  0  0  0  0  0  0  0  0  0  0
    0.1013   -2.5620    0.6131 H   0  0  0  0  0  0  0  0  0  0  0  0
    1.4333   -1.9126   -1.5584 H   0  0  0  0  0  0  0  0  0  0  0  0
    2.4409    0.8097   -0.4873 H   0  0  0  0  0  0  0  0  0  0  0  0
    2.8270   -0.6999   -3.6518 H   0  0  0  0  0  0  0  0  0  0  0  0
    4.9658   -1.1662   -4.8032 H   0  0  0  0  0  0  0  0  0  0  0  0
    7.0831   -1.1434   -3.4987 H   0  0  0  0  0  0  0  0  0  0  0  0
    6.9992   -0.6602   -1.0494 H   0  0  0  0  0  0  0  0  0  0  0  0
    4.6250    0.8561    0.6079 H   0  0  0  0  0  0  0  0  0  0  0  0
    5.9421   -0.3264    0.8356 H   0  0  0  0  0  0  0  0  0  0  0  0
    4.2559   -0.8874    0.9264 H   0  0  0  0  0  0  0  0  0  0  0  0
   -0.2704    3.0978   -2.6164 H   0  0  0  0  0  0  0  0  0  0  0  0
   -0.9815    3.2826   -1.0101 H   0  0  0  0  0  0  0  0  0  0  0  0
   -1.7449    2.1985   -2.2403 H   0  0  0  0  0  0  0  0  0  0  0  0
   -2.2370    1.7487    0.0624 H   0  0  0  0  0  0  0  0  0  0  0  0
  1  2  1  0
  2  3  1  0
  3  4  1  0
  4  5  1  0
  3  6  1  0
  6  7  2  0
  7  8  1  0
  8  9  2  0
  9 10  1  0
 10 11  2  3
 11 12  1  0
 12 13  2  0
 13 14  1  0
 14 15  2  0
 15 16  1  0
 16 17  2  0
 17 18  1  0
  9 19  1  0
 19 20  1  0
 20 21  1  0
 19 22  2  0
 22  6  1  0
 17 12  1  0
  1 23  1  0
  1 24  1  0
  1 25  1  0
  2 26  1  0
  2 27  1  0
  4 28  1  0
  4 29  1  0
  5 30  1  0
  5 31  1  0
  5 32  1  0
  7 33  1  0
  8 34  1  0
 10 35  1  0
 11 36  1  0
 13 37  1  0
 14 38  1  0
 15 39  1  0
 16 40  1  0
 18 41  1  0
 18 42  1  0
 18 43  1  0
 21 44  1  0
 21 45  1  0
 21 46  1  0
 22 47  1  0
M  CHG  1  17   1
M  END
$$$$
