
     RDKit          3D

 36 38  0  0  0  0  0  0  0  0999 V2000
    4.5821    2.4708   -1.2815 C   0  0  0  0  0  0  0  0  0  0  0  0
    4.2274    1.1893   -0.5847 C   0  0  0  0  0  0  0  0  0  0  0  0
    5.2334    0.3023   -0.1916 C   0  0  0  0  0  0  0  0  0  0  0  0
    4.9316   -0.9132    0.4304 C   0  0  0  0  0  0  0  0  0  0  0  0
    3.5828   -1.2204    0.6386 C   0  0  0  0  0  0  0  0  0  0  0  0
    3.0103   -2.3292    1.2165 N   0  0  0  0  0  0  0  0  0  0  0  0
    1.6436   -2.2168    1.2102 C   0  0  0  0  0  0  0  0  0  0  0  0
    1.3178   -1.0153    0.6175 C   0  0  0  0  0  0  0  0  0  0  0  0
   -0.0019   -0.5011    0.4134 C   0  0  0  0  0  0  0  0  0  0  0  0
   -1.1511   -1.1436    0.6852 C   0  0  0  0  0  0  0  0  0  0  0  0
   -2.4790   -0.5664    0.4514 C   0  0  0  0  0  0  0  0  0  0  0  0
   -3.4826   -1.3651   -0.0929 C   0  0  0  0  0  0  0  0  0  0  0  0
   -4.7515   -0.8348   -0.2970 C   0  0  0  0  0  0  0  0  0  0  0  0
   -5.0235    0.4469    0.0350 N   0  0  0  0  0  4  0  0  0  0  0  0
   -6.3780    0.9837   -0.1804 C   0  0  0  0  0  0  0  0  0  0  0  0
   -4.0731    1.2331    0.5879 C   0  0  0  0  0  0  0  0  0  0  0  0
   -2.7899    0.7452    0.8072 C   0  0  0  0  0  0  0  0  0  0  0  0
    2.5443   -0.3725    0.2515 C   0  0  0  0  0  0  0  0  0  0  0  0
    2.8796    0.8485   -0.3765 C   0  0  0  0  0  0  0  0  0  0  0  0
    3.8357    3.2458   -1.0776 H   0  0  0  0  0  0  0  0  0  0  0  0
    4.6355    2.3063   -2.3621 H   0  0  0  0  0  0  0  0  0  0  0  0
    5.5479    2.8513   -0.9324 H   0  0  0  0  0  0  0  0  0  0  0  0
    6.2784    0.5527   -0.3679 H   0  0  0  0  0  0  0  0  0  0  0  0
    5.7235   -1.5904    0.7346 H   0  0  0  0  0  0  0  0  0  0  0  0
    3.5314   -3.1106    1.5907 H   0  0  0  0  0  0  0  0  0  0  0  0
    1.0394   -3.0068    1.6338 H   0  0  0  0  0  0  0  0  0  0  0  0
   -0.0492    0.4978   -0.0145 H   0  0  0  0  0  0  0  0  0  0  0  0
   -1.1349   -2.1569    1.0802 H   0  0  0  0  0  0  0  0  0  0  0  0
   -3.2815   -2.3988   -0.3696 H   0  0  0  0  0  0  0  0  0  0  0  0
   -5.5556   -1.4287   -0.7227 H   0  0  0  0  0  0  0  0  0  0  0  0
   -6.3112    2.0573   -0.3743 H   0  0  0  0  0  0  0  0  0  0  0  0
   -6.9560    0.7863    0.7258 H   0  0  0  0  0  0  0  0  0  0  0  0
   -6.8267    0.4877   -1.0449 H   0  0  0  0  0  0  0  0  0  0  0  0
   -4.3501    2.2487    0.8569 H   0  0  0  0  0  0  0  0  0  0  0  0
   -2.0439    1.3909    1.2672 H   0  0  0  0  0  0  0  0  0  0  0  0
    2.0951    1.5258   -0.6996 H   0  0  0  0  0  0  0  0  0  0  0  0
  1  2  1  0
  2  3  2  0
  3  4  1  0
  4  5  2  0
  5  6  1  0
  6  7  1  0
  7  8  2  0
  8  9  1  0
  9 10  2  3
 10 11  1  0
 11 12  2  0
 12 13  1  0
 13 14  2  0
 14 15  1  0
 14 16  1  0
 16 17  2  0
  8 18  1  0
 18 19  2  0
 19  2  1  0
 18  5  1  0
 17 11  1  0
  1 20  1  0
  1 21  1  0
  1 22  1  0
  3 23  1  0
  4 24  1  0
  6 25  1  0
  7 26  1  0
  9 27  1  0
 10 28  1  0
 12 29  1  0
 13 30  1  0
 15 31  1  0
 15 32  1  0
 15 33  1  0
 16 34  1  0
 17 35  1  0
 19 36  1  0
M  CHG  1  14   1
M  END
$$$$
