
     RDKit          3D

 52 54  0  0  0  0  0  0  0  0999 V2000
    4.9134   -4.0669   -4.4555 C   0  0  0  0  0  0  0  0  0  0  0  0
    4.8309   -2.8658   -3.5607 C   0  0  0  0  0  0  0  0  0  0  0  0
    3.7696   -1.9628   -3.6856 C   0  0  0  0  0  0  0  0  0  0  0  0
    3.6740   -0.8598   -2.8338 C   0  0  0  0  0  0  0  0  0  0  0  0
    4.6366   -0.6416   -1.8396 C   0  0  0  0  0  0  0  0  0  0  0  0
    4.5177    0.5382   -0.9115 C   0  0  0  0  0  0  0  0  0  0  0  0
    3.6622    0.2316    0.2045 N   0  0  0  0  0  0  0  0  0  0  0  0
    2.3300    0.5725    0.2254 C   0  0  0  0  0  0  0  0  0  0  0  0
    1.7486    1.2652   -0.5958 O   0  0  0  0  0  0  0  0  0  0  0  0
    1.5682   -0.0272    1.4306 C   0  0  0  0  0  0  0  0  0  0  0  0
    2.1307   -0.8254    2.1693 O   0  0  0  0  0  0  0  0  0  0  0  0
    0.2753    0.4242    1.5703 N   0  0  0  0  0  0  0  0  0  0  0  0
   -0.5059    0.1079    2.7520 C   0  0  0  0  0  0  0  0  0  0  0  0
   -2.0211    0.3080    2.5729 C   0  0  0  0  0  0  0  0  0  0  0  0
   -2.7176   -0.4040    3.6139 O   0  0  0  0  0  0  0  0  0  0  0  0
   -3.9151    0.3371    3.8586 C   0  0  0  0  0  0  0  0  0  0  0  0
   -3.4809    1.7796    3.7314 C   0  0  0  0  0  0  0  0  0  0  0  0
   -2.4152    1.7191    2.7255 N   0  0  0  0  0  0  0  0  0  0  0  0
   -2.4800    2.7050    1.3762 S   0  0  0  0  0  6  0  0  0  0  0  0
   -1.2634    2.4926    0.6217 O   0  0  0  0  0  0  0  0  0  0  0  0
   -2.8698    4.0285    1.8116 O   0  0  0  0  0  0  0  0  0  0  0  0
   -3.8277    2.0439    0.4150 C   0  0  0  0  0  0  0  0  0  0  0  0
   -3.5637    1.1252   -0.6072 C   0  0  0  0  0  0  0  0  0  0  0  0
   -4.6162    0.6308   -1.3796 C   0  0  0  0  0  0  0  0  0  0  0  0
   -5.9181    1.0711   -1.1395 C   0  0  0  0  0  0  0  0  0  0  0  0
   -7.3403    0.4018   -2.1886 Br  0  0  0  0  0  0  0  0  0  0  0  0
   -6.1785    2.0104   -0.1410 C   0  0  0  0  0  0  0  0  0  0  0  0
   -5.1293    2.5077    0.6346 C   0  0  0  0  0  0  0  0  0  0  0  0
    5.6844   -1.5608   -1.6995 C   0  0  0  0  0  0  0  0  0  0  0  0
    5.7793   -2.6639   -2.5519 C   0  0  0  0  0  0  0  0  0  0  0  0
    4.3179   -4.8854   -4.0398 H   0  0  0  0  0  0  0  0  0  0  0  0
    5.9493   -4.4048   -4.5644 H   0  0  0  0  0  0  0  0  0  0  0  0
    4.5425   -3.8306   -5.4582 H   0  0  0  0  0  0  0  0  0  0  0  0
    3.0076   -2.1125   -4.4469 H   0  0  0  0  0  0  0  0  0  0  0  0
    2.8385   -0.1701   -2.9448 H   0  0  0  0  0  0  0  0  0  0  0  0
    4.1413    1.4126   -1.4547 H   0  0  0  0  0  0  0  0  0  0  0  0
    5.5002    0.8061   -0.5078 H   0  0  0  0  0  0  0  0  0  0  0  0
    3.9557   -0.4633    0.8845 H   0  0  0  0  0  0  0  0  0  0  0  0
    0.0260    1.2452    1.0059 H   0  0  0  0  0  0  0  0  0  0  0  0
   -0.3027   -0.9337    3.0292 H   0  0  0  0  0  0  0  0  0  0  0  0
   -0.1270    0.7266    3.5744 H   0  0  0  0  0  0  0  0  0  0  0  0
   -2.3577   -0.1142    1.6218 H   0  0  0  0  0  0  0  0  0  0  0  0
   -4.3147    0.0971    4.8471 H   0  0  0  0  0  0  0  0  0  0  0  0
   -4.6546    0.0666    3.0966 H   0  0  0  0  0  0  0  0  0  0  0  0
   -4.3156    2.4351    3.4788 H   0  0  0  0  0  0  0  0  0  0  0  0
   -3.0377    2.1347    4.6680 H   0  0  0  0  0  0  0  0  0  0  0  0
   -2.5472    0.7964   -0.8165 H   0  0  0  0  0  0  0  0  0  0  0  0
   -4.4101   -0.0853   -2.1719 H   0  0  0  0  0  0  0  0  0  0  0  0
   -7.1905    2.3694    0.0299 H   0  0  0  0  0  0  0  0  0  0  0  0
   -5.3332    3.2626    1.3910 H   0  0  0  0  0  0  0  0  0  0  0  0
    6.4342   -1.4262   -0.9238 H   0  0  0  0  0  0  0  0  0  0  0  0
    6.5995   -3.3663   -2.4223 H   0  0  0  0  0  0  0  0  0  0  0  0
  1  2  1  0
  2  3  2  0
  3  4  1  0
  4  5  2  0
  5  6  1  0
  6  7  1  0
  7  8  1  0
  8  9  2  0
  8 10  1  0
 10 11  2  0
 10 12  1  0
 12 13  1  0
 13 14  1  0
 14 15  1  0
 15 16  1  0
 16 17  1  0
 17 18  1  0
 18 19  1  0
 19 20  2  0
 19 21  2  0
 19 22  1  0
 22 23  2  0
 23 24  1  0
 24 25  2  0
 25 26  1  0
 25 27  1  0
 27 28  2  0
  5 29  1  0
 29 30  2  0
 30  2  1  0
 18 14  1  0
 28 22  1  0
  1 31  1  0
  1 32  1  0
  1 33  1  0
  3 34  1  0
  4 35  1  0
  6 36  1  0
  6 37  1  0
  7 38  1  0
 12 39  1  0
 13 40  1  0
 13 41  1  0
 14 42  1  0
 16 43  1  0
 16 44  1  0
 17 45  1  0
 17 46  1  0
 23 47  1  0
 24 48  1  0
 27 49  1  0
 28 50  1  0
 29 51  1  0
 30 52  1  0
M  END
$$$$
