
     RDKit          3D

 34 36  0  0  0  0  0  0  0  0999 V2000
    4.6990    2.0073    0.6761 C   0  0  0  0  0  0  0  0  0  0  0  0
    4.5316    0.6112    0.3330 N   0  0  0  0  0  0  0  0  0  0  0  0
    5.6068   -0.2030    0.4019 N   0  0  0  0  0  0  0  0  0  0  0  0
    5.1261   -1.3884    0.0298 C   0  0  0  0  0  0  0  0  0  0  0  0
    3.7528   -1.3379   -0.2618 C   0  0  0  0  0  0  0  0  0  0  0  0
    2.8462   -2.6645   -0.8050 Cl  0  0  0  0  0  0  0  0  0  0  0  0
    3.3663   -0.0271   -0.0415 C   0  0  0  0  0  0  0  0  0  0  0  0
    2.0868    0.6460   -0.1750 C   0  0  0  0  0  0  0  0  0  0  0  0
    2.0368    1.8633   -0.3108 O   0  0  0  0  0  0  0  0  0  0  0  0
    0.9938   -0.1955   -0.0934 N   0  0  0  0  0  0  0  0  0  0  0  0
   -0.3515    0.1381   -0.1987 C   0  0  0  0  0  0  0  0  0  0  0  0
   -0.8451    1.7237   -0.6247 S   0  0  0  0  0  0  0  0  0  0  0  0
   -2.4480    1.2879   -0.5262 C   0  0  0  0  0  0  0  0  0  0  0  0
   -2.6531   -0.0226   -0.1958 C   0  0  0  0  0  0  0  0  0  0  0  0
   -1.4304   -0.7358   -0.0103 C   0  0  0  0  0  0  0  0  0  0  0  0
   -1.2402   -2.1384    0.3498 C   0  0  0  0  0  0  0  0  0  0  0  0
   -2.3206   -2.9606    0.2129 N   0  0  0  0  0  0  0  0  0  0  0  0
   -0.1630   -2.5944    0.7235 O   0  0  0  0  0  0  0  0  0  0  0  0
   -4.1104   -0.3092   -0.1048 C   0  0  0  0  0  0  0  0  0  0  0  0
   -4.7387    1.1187   -0.0857 C   0  0  0  0  0  0  0  0  0  0  0  0
   -3.6865    2.0767   -0.7168 C   0  0  0  0  0  0  0  0  0  0  0  0
    5.7043    2.1633    1.0773 H   0  0  0  0  0  0  0  0  0  0  0  0
    3.9622    2.2732    1.4377 H   0  0  0  0  0  0  0  0  0  0  0  0
    4.5695    2.6028   -0.2305 H   0  0  0  0  0  0  0  0  0  0  0  0
    5.7968   -2.2363   -0.0192 H   0  0  0  0  0  0  0  0  0  0  0  0
    1.1666   -1.1737    0.1367 H   0  0  0  0  0  0  0  0  0  0  0  0
   -2.1391   -3.9486    0.3288 H   0  0  0  0  0  0  0  0  0  0  0  0
   -3.1127   -2.6941   -0.3503 H   0  0  0  0  0  0  0  0  0  0  0  0
   -4.3791   -0.8662    0.7970 H   0  0  0  0  0  0  0  0  0  0  0  0
   -4.4482   -0.8591   -0.9896 H   0  0  0  0  0  0  0  0  0  0  0  0
   -5.7018    1.1569   -0.6039 H   0  0  0  0  0  0  0  0  0  0  0  0
   -4.9133    1.4168    0.9568 H   0  0  0  0  0  0  0  0  0  0  0  0
   -3.8923    2.2269   -1.7816 H   0  0  0  0  0  0  0  0  0  0  0  0
   -3.6713    3.0425   -0.2045 H   0  0  0  0  0  0  0  0  0  0  0  0
  1  2  1  0
  2  3  1  0
  3  4  2  0
  4  5  1  0
  5  6  1  0
  5  7  2  0
  7  8  1  0
  8  9  2  0
  8 10  1  0
 10 11  1  0
 11 12  1  0
 12 13  1  0
 13 14  2  0
 14 15  1  0
 15 16  1  0
 16 17  1  0
 16 18  2  0
 14 19  1  0
 19 20  1  0
 20 21  1  0
  7  2  1  0
 15 11  2  0
 21 13  1  0
  1 22  1  0
  1 23  1  0
  1 24  1  0
  4 25  1  0
 10 26  1  0
 17 27  1  0
 17 28  1  0
 19 29  1  0
 19 30  1  0
 20 31  1  0
 20 32  1  0
 21 33  1  0
 21 34  1  0
M  END
$$$$
