
     RDKit          3D

 50 53  0  0  0  0  0  0  0  0999 V2000
   -3.9662    2.0126   -1.3863 C   0  0  0  0  0  0  0  0  0  0  0  0
   -3.6989    0.6999   -1.9338 N   0  0  0  0  0  0  0  0  0  0  0  0
   -4.6730   -0.1535   -2.3844 C   0  0  0  0  0  0  0  0  0  0  0  0
   -4.0610   -1.2748   -2.8928 C   0  0  0  0  0  0  0  0  0  0  0  0
   -2.6691   -1.0973   -2.7348 C   0  0  0  0  0  0  0  0  0  0  0  0
   -2.4584    0.1217   -2.1080 C   0  0  0  0  0  0  0  0  0  0  0  0
   -1.1679    0.7735   -1.6966 C   0  0  0  0  0  0  0  0  0  0  0  0
   -0.1634   -0.1915   -1.1474 C   0  0  0  0  0  0  0  0  0  0  0  0
    0.9829   -0.4842   -1.7365 N   0  0  0  0  0  0  0  0  0  0  0  0
    1.5535   -1.5271   -1.0703 N   0  0  0  0  0  0  0  0  0  0  0  0
    0.7738   -1.8360   -0.0584 C   0  0  0  0  0  0  0  0  0  0  0  0
    1.2331   -2.9444    1.1963 S   0  0  0  0  0  0  0  0  0  0  0  0
    3.0461   -2.8865    1.0548 C   0  0  0  0  0  0  0  0  0  0  0  0
    3.5849   -1.5571    1.5681 C   0  0  0  0  0  0  0  0  0  0  0  0
    3.9194   -1.4294    2.7434 O   0  0  0  0  0  0  0  0  0  0  0  0
    3.6294   -0.5737    0.5934 N   0  0  0  0  0  0  0  0  0  0  0  0
    4.0645    0.7590    0.7276 C   0  0  0  0  0  0  0  0  0  0  0  0
    3.8764    1.6018   -0.3759 C   0  0  0  0  0  0  0  0  0  0  0  0
    4.2798    2.9388   -0.3292 C   0  0  0  0  0  0  0  0  0  0  0  0
    4.8779    3.4444    0.8220 C   0  0  0  0  0  0  0  0  0  0  0  0
    5.0713    2.6128    1.9228 C   0  0  0  0  0  0  0  0  0  0  0  0
    4.6664    1.2746    1.8763 C   0  0  0  0  0  0  0  0  0  0  0  0
   -0.3381   -1.0125   -0.0356 N   0  0  0  0  0  0  0  0  0  0  0  0
   -1.4045   -0.9939    0.9001 C   0  0  0  0  0  0  0  0  0  0  0  0
   -1.8492    0.2250    1.4316 C   0  0  0  0  0  0  0  0  0  0  0  0
   -2.9056    0.2397    2.3447 C   0  0  0  0  0  0  0  0  0  0  0  0
   -3.5108   -0.9548    2.7175 C   0  0  0  0  0  0  0  0  0  0  0  0
   -4.5271   -0.9339    3.5894 F   0  0  0  0  0  0  0  0  0  0  0  0
   -3.0747   -2.1692    2.2017 C   0  0  0  0  0  0  0  0  0  0  0  0
   -2.0148   -2.1941    1.2928 C   0  0  0  0  0  0  0  0  0  0  0  0
   -3.3381    2.7414   -1.9050 H   0  0  0  0  0  0  0  0  0  0  0  0
   -3.7400    1.9933   -0.3180 H   0  0  0  0  0  0  0  0  0  0  0  0
   -5.0189    2.2651   -1.5390 H   0  0  0  0  0  0  0  0  0  0  0  0
   -5.7224    0.1061   -2.3215 H   0  0  0  0  0  0  0  0  0  0  0  0
   -4.5636   -2.1249   -3.3360 H   0  0  0  0  0  0  0  0  0  0  0  0
   -1.8951   -1.7924   -3.0392 H   0  0  0  0  0  0  0  0  0  0  0  0
   -1.3293    1.5845   -0.9819 H   0  0  0  0  0  0  0  0  0  0  0  0
   -0.7394    1.2488   -2.5891 H   0  0  0  0  0  0  0  0  0  0  0  0
    3.3749   -3.0715    0.0270 H   0  0  0  0  0  0  0  0  0  0  0  0
    3.4710   -3.6852    1.6716 H   0  0  0  0  0  0  0  0  0  0  0  0
    3.1954   -0.8032   -0.3016 H   0  0  0  0  0  0  0  0  0  0  0  0
    3.4103    1.2278   -1.2855 H   0  0  0  0  0  0  0  0  0  0  0  0
    4.1289    3.5815   -1.1923 H   0  0  0  0  0  0  0  0  0  0  0  0
    5.1966    4.4827    0.8616 H   0  0  0  0  0  0  0  0  0  0  0  0
    5.5423    3.0007    2.8230 H   0  0  0  0  0  0  0  0  0  0  0  0
    4.8429    0.6595    2.7529 H   0  0  0  0  0  0  0  0  0  0  0  0
   -1.3596    1.1651    1.1932 H   0  0  0  0  0  0  0  0  0  0  0  0
   -3.2539    1.1720    2.7779 H   0  0  0  0  0  0  0  0  0  0  0  0
   -3.5661   -3.0886    2.5049 H   0  0  0  0  0  0  0  0  0  0  0  0
   -1.7127   -3.1527    0.8760 H   0  0  0  0  0  0  0  0  0  0  0  0
  1  2  1  0
  2  3  1  0
  3  4  2  0
  4  5  1  0
  5  6  2  0
  6  7  1  0
  7  8  1  0
  8  9  2  0
  9 10  1  0
 10 11  2  0
 11 12  1  0
 12 13  1  0
 13 14  1  0
 14 15  2  0
 14 16  1  0
 16 17  1  0
 17 18  2  0
 18 19  1  0
 19 20  2  0
 20 21  1  0
 21 22  2  0
 11 23  1  0
 23 24  1  0
 24 25  2  0
 25 26  1  0
 26 27  2  0
 27 28  1  0
 27 29  1  0
 29 30  2  0
  6  2  1  0
 23  8  1  0
 30 24  1  0
 22 17  1  0
  1 31  1  0
  1 32  1  0
  1 33  1  0
  3 34  1  0
  4 35  1  0
  5 36  1  0
  7 37  1  0
  7 38  1  0
 13 39  1  0
 13 40  1  0
 16 41  1  0
 18 42  1  0
 19 43  1  0
 20 44  1  0
 21 45  1  0
 22 46  1  0
 25 47  1  0
 26 48  1  0
 29 49  1  0
 30 50  1  0
M  END
$$$$
