
     RDKit          3D

 22 22  0  0  0  0  0  0  0  0999 V2000
    2.2269   -1.8728   -2.7128 N   0  0  0  0  0  0  0  0  0  0  0  0
    2.4369   -1.5544   -1.4893 C   0  0  0  0  0  0  0  0  0  0  0  0
    3.6564   -1.2396   -1.0100 N   0  0  0  0  0  0  0  0  0  0  0  0
    1.1180   -1.5502   -0.3705 S   0  0  0  0  0  0  0  0  0  0  0  0
    0.6874    0.2056   -0.5034 C   0  0  0  0  0  0  0  0  0  0  0  0
   -0.4701    0.5147    0.3977 C   0  0  0  0  0  0  0  0  0  0  0  0
   -0.3832    1.2108    1.5440 C   0  0  0  0  0  0  0  0  0  0  0  0
   -1.6505    1.4521    2.3027 C   0  0  0  0  0  0  0  0  0  0  0  0
   -2.9161    0.7236    1.2697 S   0  0  0  0  0  6  0  0  0  0  0  0
   -3.5265   -0.3801    1.9864 O   0  0  0  0  0  0  0  0  0  0  0  0
   -3.7183    1.7902    0.6995 O   0  0  0  0  0  0  0  0  0  0  0  0
   -1.8488    0.0667   -0.0090 C   0  0  0  0  0  0  0  0  0  0  0  0
    1.2297   -2.0939   -2.8088 H   0  0  0  0  0  0  0  0  0  0  0  0
    4.3927   -1.5514   -1.6345 H   0  0  0  0  0  0  0  0  0  0  0  0
    3.8072   -1.5144   -0.0474 H   0  0  0  0  0  0  0  0  0  0  0  0
    1.5607    0.8073   -0.2281 H   0  0  0  0  0  0  0  0  0  0  0  0
    0.4312    0.4529   -1.5393 H   0  0  0  0  0  0  0  0  0  0  0  0
    0.5554    1.5940    1.9302 H   0  0  0  0  0  0  0  0  0  0  0  0
   -1.6402    0.9467    3.2705 H   0  0  0  0  0  0  0  0  0  0  0  0
   -1.8542    2.5185    2.4181 H   0  0  0  0  0  0  0  0  0  0  0  0
   -1.9461   -1.0211   -0.0167 H   0  0  0  0  0  0  0  0  0  0  0  0
   -2.1487    0.4947   -0.9684 H   0  0  0  0  0  0  0  0  0  0  0  0
  1  2  2  3
  2  3  1  0
  2  4  1  0
  4  5  1  0
  5  6  1  0
  6  7  2  0
  7  8  1  0
  8  9  1  0
  9 10  2  0
  9 11  2  0
  9 12  1  0
 12  6  1  0
  1 13  1  0
  3 14  1  0
  3 15  1  0
  5 16  1  0
  5 17  1  0
  7 18  1  0
  8 19  1  0
  8 20  1  0
 12 21  1  0
 12 22  1  0
M  END
$$$$
