
     RDKit          3D

 38 39  0  0  0  0  0  0  0  0999 V2000
    0.1966    0.1054   -1.9281 C   0  0  0  0  0  0  0  0  0  0  0  0
   -0.2887    0.2748   -0.5638 N   0  0  0  0  0  0  0  0  0  0  0  0
   -1.7249    0.5149   -0.4037 C   0  0  0  0  0  0  0  0  0  0  0  0
   -2.5307   -0.7812   -0.3077 C   0  0  0  0  0  0  0  0  0  0  0  0
   -3.9894   -0.4849   -0.0873 C   0  0  0  0  0  0  0  0  0  0  0  0
   -4.5081   -0.4152    1.2035 C   0  0  0  0  0  0  0  0  0  0  0  0
   -5.8573   -0.1172    1.3693 C   0  0  0  0  0  0  0  0  0  0  0  0
   -6.6479    0.1053    0.2490 C   0  0  0  0  0  0  0  0  0  0  0  0
   -6.0516    0.0240   -0.9977 C   0  0  0  0  0  0  0  0  0  0  0  0
   -4.7445   -0.2600   -1.1905 N   0  0  0  0  0  0  0  0  0  0  0  0
    0.4569    0.0152    0.5852 C   0  0  0  0  0  0  0  0  0  0  0  0
   -0.0504   -0.1431    1.6940 O   0  0  0  0  0  0  0  0  0  0  0  0
    1.9320   -0.0612    0.4889 C   0  0  0  0  0  0  0  0  0  0  0  0
    2.6684    0.9809   -0.0834 C   0  0  0  0  0  0  0  0  0  0  0  0
    4.0651    0.9054   -0.1370 C   0  0  0  0  0  0  0  0  0  0  0  0
    4.7299   -0.2032    0.3938 C   0  0  0  0  0  0  0  0  0  0  0  0
    6.0798   -0.4089    0.4103 O   0  0  0  0  0  0  0  0  0  0  0  0
    6.9074    0.5763   -0.1836 C   0  0  0  0  0  0  0  0  0  0  0  0
    8.1956    0.1821   -0.0786 F   0  0  0  0  0  0  0  0  0  0  0  0
    6.7789    1.7643    0.4446 F   0  0  0  0  0  0  0  0  0  0  0  0
    6.6206    0.7266   -1.4947 F   0  0  0  0  0  0  0  0  0  0  0  0
    3.9840   -1.2290    0.9876 C   0  0  0  0  0  0  0  0  0  0  0  0
    2.5904   -1.1586    1.0448 C   0  0  0  0  0  0  0  0  0  0  0  0
    0.1949    1.0823   -2.4195 H   0  0  0  0  0  0  0  0  0  0  0  0
    1.1989   -0.3237   -1.9655 H   0  0  0  0  0  0  0  0  0  0  0  0
   -0.4758   -0.5698   -2.4658 H   0  0  0  0  0  0  0  0  0  0  0  0
   -2.0670    1.1347   -1.2416 H   0  0  0  0  0  0  0  0  0  0  0  0
   -1.8720    1.1110    0.5062 H   0  0  0  0  0  0  0  0  0  0  0  0
   -2.4204   -1.3631   -1.2309 H   0  0  0  0  0  0  0  0  0  0  0  0
   -2.1534   -1.4224    0.4979 H   0  0  0  0  0  0  0  0  0  0  0  0
   -3.8731   -0.5866    2.0679 H   0  0  0  0  0  0  0  0  0  0  0  0
   -6.2860   -0.0585    2.3656 H   0  0  0  0  0  0  0  0  0  0  0  0
   -7.7021    0.3385    0.3445 H   0  0  0  0  0  0  0  0  0  0  0  0
   -6.6264    0.1919   -1.9039 H   0  0  0  0  0  0  0  0  0  0  0  0
    2.1605    1.8584   -0.4768 H   0  0  0  0  0  0  0  0  0  0  0  0
    4.5956    1.7369   -0.5928 H   0  0  0  0  0  0  0  0  0  0  0  0
    4.4916   -2.0898    1.4185 H   0  0  0  0  0  0  0  0  0  0  0  0
    2.0226   -1.9527    1.5243 H   0  0  0  0  0  0  0  0  0  0  0  0
  1  2  1  0
  2  3  1  0
  3  4  1  0
  4  5  1  0
  5  6  2  0
  6  7  1  0
  7  8  2  0
  8  9  1  0
  9 10  2  0
  2 11  1  0
 11 12  2  0
 11 13  1  0
 13 14  2  0
 14 15  1  0
 15 16  2  0
 16 17  1  0
 17 18  1  0
 18 19  1  0
 18 20  1  0
 18 21  1  0
 16 22  1  0
 22 23  2  0
 10  5  1  0
 23 13  1  0
  1 24  1  0
  1 25  1  0
  1 26  1  0
  3 27  1  0
  3 28  1  0
  4 29  1  0
  4 30  1  0
  6 31  1  0
  7 32  1  0
  8 33  1  0
  9 34  1  0
 14 35  1  0
 15 36  1  0
 22 37  1  0
 23 38  1  0
M  END
$$$$
