
     RDKit          3D

 36 36  0  0  0  0  0  0  0  0999 V2000
    1.5513   -3.5396    3.2147 C   0  0  0  0  0  0  0  0  0  0  0  0
    1.6735   -2.1632    2.5920 C   0  0  0  0  0  0  0  0  0  0  0  0
    1.5178   -2.2930    1.1802 O   0  0  0  0  0  0  0  0  0  0  0  0
    1.6035   -1.0270    0.5252 C   0  0  0  0  0  0  0  0  0  0  0  0
    1.5170   -1.2259   -0.9839 C   0  0  0  0  0  0  0  0  0  0  0  0
    0.2720   -1.9901   -1.4294 C   0  0  0  0  0  0  0  0  0  0  0  0
   -0.9674   -1.3268   -1.0719 N   0  0  0  0  0  0  0  0  0  0  0  0
   -1.4495   -0.2547   -1.7839 C   0  0  0  0  0  0  0  0  0  0  0  0
   -0.9048    0.2155   -2.7767 O   0  0  0  0  0  0  0  0  0  0  0  0
   -2.7221    0.3106   -1.2601 C   0  0  0  0  0  0  0  0  0  0  0  0
   -3.8350   -0.5667   -1.1510 C   0  0  0  0  0  0  0  0  0  0  0  0
   -4.7539   -1.2643   -1.0264 N   0  0  0  0  0  0  0  0  0  0  0  0
   -2.8632    1.6148   -0.9604 C   0  0  0  0  0  0  0  0  0  0  0  0
   -1.7947    2.5515   -0.9840 C   0  0  0  0  0  0  0  0  0  0  0  0
   -1.8293    3.8996   -1.3346 C   0  0  0  0  0  0  0  0  0  0  0  0
   -0.5189    4.4248   -1.2035 C   0  0  0  0  0  0  0  0  0  0  0  0
    0.2386    3.3761   -0.7517 C   0  0  0  0  0  0  0  0  0  0  0  0
    1.6223    3.2770   -0.4145 N   0  0  0  0  0  4  0  0  0  0  0  0
    2.0221    2.2188    0.0888 O   0  0  0  0  0  0  0  0  0  0  0  0
    2.3134    4.2810   -0.6345 O   0  0  0  0  0  1  0  0  0  0  0  0
   -0.5044    2.2524   -0.5977 O   0  0  0  0  0  0  0  0  0  0  0  0
    2.3137   -4.2143    2.8114 H   0  0  0  0  0  0  0  0  0  0  0  0
    1.6644   -3.4879    4.3012 H   0  0  0  0  0  0  0  0  0  0  0  0
    0.5778   -3.9832    2.9811 H   0  0  0  0  0  0  0  0  0  0  0  0
    2.6574   -1.7380    2.8183 H   0  0  0  0  0  0  0  0  0  0  0  0
    0.8953   -1.5034    2.9911 H   0  0  0  0  0  0  0  0  0  0  0  0
    0.7904   -0.3809    0.8753 H   0  0  0  0  0  0  0  0  0  0  0  0
    2.5595   -0.5515    0.7726 H   0  0  0  0  0  0  0  0  0  0  0  0
    2.3933   -1.7965   -1.3148 H   0  0  0  0  0  0  0  0  0  0  0  0
    1.5604   -0.2487   -1.4777 H   0  0  0  0  0  0  0  0  0  0  0  0
    0.2940   -2.1111   -2.5185 H   0  0  0  0  0  0  0  0  0  0  0  0
    0.2439   -2.9915   -0.9873 H   0  0  0  0  0  0  0  0  0  0  0  0
   -1.4145   -1.6267   -0.2142 H   0  0  0  0  0  0  0  0  0  0  0  0
   -3.8391    1.9965   -0.6678 H   0  0  0  0  0  0  0  0  0  0  0  0
   -2.7075    4.4358   -1.6716 H   0  0  0  0  0  0  0  0  0  0  0  0
   -0.1770    5.4305   -1.4068 H   0  0  0  0  0  0  0  0  0  0  0  0
  1  2  1  0
  2  3  1  0
  3  4  1  0
  4  5  1  0
  5  6  1  0
  6  7  1  0
  7  8  1  0
  8  9  2  0
  8 10  1  0
 10 11  1  0
 11 12  3  0
 10 13  2  3
 13 14  1  0
 14 15  2  0
 15 16  1  0
 16 17  2  0
 17 18  1  0
 18 19  2  0
 18 20  1  0
 17 21  1  0
 21 14  1  0
  1 22  1  0
  1 23  1  0
  1 24  1  0
  2 25  1  0
  2 26  1  0
  4 27  1  0
  4 28  1  0
  5 29  1  0
  5 30  1  0
  6 31  1  0
  6 32  1  0
  7 33  1  0
 13 34  1  0
 15 35  1  0
 16 36  1  0
M  CHG  2  18   1  20  -1
M  END
$$$$
