
     RDKit          3D

 39 41  0  0  0  0  0  0  0  0999 V2000
    2.6405    0.5339    1.0020 O   0  0  0  0  0  0  0  0  0  0  0  0
    2.0115   -0.3332    0.4087 C   0  0  0  0  0  0  0  0  0  0  0  0
    2.6685   -1.5098   -0.2300 C   0  0  0  0  0  0  0  0  0  0  0  0
    3.9342   -1.5642   -0.6748 C   0  0  0  0  0  0  0  0  0  0  0  0
    4.9278   -0.4855   -0.7098 C   0  0  0  0  0  0  0  0  0  0  0  0
    6.1895   -0.7035   -0.1416 C   0  0  0  0  0  0  0  0  0  0  0  0
    7.1734    0.2877   -0.1971 C   0  0  0  0  0  0  0  0  0  0  0  0
    6.8995    1.4975   -0.8311 C   0  0  0  0  0  0  0  0  0  0  0  0
    8.2290    2.8391   -0.9076 Br  0  0  0  0  0  0  0  0  0  0  0  0
    5.6540    1.7237   -1.4123 C   0  0  0  0  0  0  0  0  0  0  0  0
    4.6723    0.7302   -1.3564 C   0  0  0  0  0  0  0  0  0  0  0  0
    0.5245   -0.2712    0.3631 C   0  0  0  0  0  0  0  0  0  0  0  0
   -0.2191   -0.8494   -0.6706 C   0  0  0  0  0  0  0  0  0  0  0  0
   -1.6159   -0.7517   -0.6681 C   0  0  0  0  0  0  0  0  0  0  0  0
   -2.2882   -0.0729    0.3569 C   0  0  0  0  0  0  0  0  0  0  0  0
   -3.6915   -0.0262    0.2798 N   0  0  0  0  0  0  0  0  0  0  0  0
   -4.5835    0.5655    1.1576 C   0  0  0  0  0  0  0  0  0  0  0  0
   -4.2826    1.1619    2.1859 O   0  0  0  0  0  0  0  0  0  0  0  0
   -5.9647    0.4072    0.7354 C   0  0  0  0  0  0  0  0  0  0  0  0
   -7.1467    0.8373    1.3084 C   0  0  0  0  0  0  0  0  0  0  0  0
   -8.1939    0.3996    0.4632 C   0  0  0  0  0  0  0  0  0  0  0  0
   -7.5928   -0.2714   -0.5749 C   0  0  0  0  0  0  0  0  0  0  0  0
   -6.2429   -0.2754   -0.4235 O   0  0  0  0  0  0  0  0  0  0  0  0
   -1.5406    0.5161    1.3772 C   0  0  0  0  0  0  0  0  0  0  0  0
   -0.1432    0.4229    1.3776 C   0  0  0  0  0  0  0  0  0  0  0  0
    2.0626   -2.4083   -0.2937 H   0  0  0  0  0  0  0  0  0  0  0  0
    4.2994   -2.5115   -1.0680 H   0  0  0  0  0  0  0  0  0  0  0  0
    6.4125   -1.6420    0.3605 H   0  0  0  0  0  0  0  0  0  0  0  0
    8.1427    0.1069    0.2591 H   0  0  0  0  0  0  0  0  0  0  0  0
    5.4330    2.6665   -1.9046 H   0  0  0  0  0  0  0  0  0  0  0  0
    3.7038    0.9209   -1.8115 H   0  0  0  0  0  0  0  0  0  0  0  0
    0.2647   -1.3602   -1.4984 H   0  0  0  0  0  0  0  0  0  0  0  0
   -2.1700   -1.2089   -1.4848 H   0  0  0  0  0  0  0  0  0  0  0  0
   -4.1290   -0.4805   -0.5150 H   0  0  0  0  0  0  0  0  0  0  0  0
   -7.2274    1.4006    2.2288 H   0  0  0  0  0  0  0  0  0  0  0  0
   -9.2559    0.5543    0.5944 H   0  0  0  0  0  0  0  0  0  0  0  0
   -7.9675   -0.7772   -1.4544 H   0  0  0  0  0  0  0  0  0  0  0  0
   -2.0087    1.0631    2.1901 H   0  0  0  0  0  0  0  0  0  0  0  0
    0.4208    0.8972    2.1796 H   0  0  0  0  0  0  0  0  0  0  0  0
  1  2  2  0
  2  3  1  0
  3  4  2  3
  4  5  1  0
  5  6  2  0
  6  7  1  0
  7  8  2  0
  8  9  1  0
  8 10  1  0
 10 11  2  0
  2 12  1  0
 12 13  2  0
 13 14  1  0
 14 15  2  0
 15 16  1  0
 16 17  1  0
 17 18  2  0
 17 19  1  0
 19 20  2  0
 20 21  1  0
 21 22  2  0
 22 23  1  0
 15 24  1  0
 24 25  2  0
 11  5  1  0
 25 12  1  0
 23 19  1  0
  3 26  1  0
  4 27  1  0
  6 28  1  0
  7 29  1  0
 10 30  1  0
 11 31  1  0
 13 32  1  0
 14 33  1  0
 16 34  1  0
 20 35  1  0
 21 36  1  0
 22 37  1  0
 24 38  1  0
 25 39  1  0
M  END
$$$$
