
     RDKit          3D

 56 59  0  0  0  0  0  0  0  0999 V2000
    3.1692    4.5236    2.0426 C   0  0  0  0  0  0  0  0  0  0  0  0
    4.3407    3.5595    2.1196 C   0  0  0  0  0  0  0  0  0  0  0  0
    3.9324    2.3069    2.6661 O   0  0  0  0  0  0  0  0  0  0  0  0
    3.4542    1.3423    1.8247 C   0  0  0  0  0  0  0  0  0  0  0  0
    3.1597    0.1266    2.4477 C   0  0  0  0  0  0  0  0  0  0  0  0
    2.6596   -0.9523    1.7138 C   0  0  0  0  0  0  0  0  0  0  0  0
    2.4527   -0.8268    0.3374 C   0  0  0  0  0  0  0  0  0  0  0  0
    1.9291   -1.9454   -0.4359 C   0  0  0  0  0  0  0  0  0  0  0  0
    0.6391   -2.1922   -0.8877 C   0  0  0  0  0  0  0  0  0  0  0  0
   -0.5635   -1.3791   -0.7156 C   0  0  0  0  0  0  0  0  0  0  0  0
   -0.5675   -0.3239   -0.0900 O   0  0  0  0  0  0  0  0  0  0  0  0
   -1.6788   -1.9481   -1.3370 N   0  0  0  0  0  0  0  0  0  0  0  0
   -2.9506   -1.5603   -1.0042 N   0  0  0  0  0  0  0  0  0  0  0  0
   -3.3572   -0.3760   -1.3765 C   0  0  0  0  0  0  0  0  0  0  0  0
   -2.5762    0.5503   -2.2885 C   0  0  0  0  0  0  0  0  0  0  0  0
   -4.7191    0.0653   -0.9418 C   0  0  0  0  0  0  0  0  0  0  0  0
   -5.7361   -0.9042   -0.9364 C   0  0  0  0  0  0  0  0  0  0  0  0
   -7.0320   -0.5657   -0.5528 C   0  0  0  0  0  0  0  0  0  0  0  0
   -7.3173    0.7406   -0.1684 C   0  0  0  0  0  0  0  0  0  0  0  0
   -6.3073    1.7082   -0.1555 C   0  0  0  0  0  0  0  0  0  0  0  0
   -4.9972    1.3814   -0.5302 C   0  0  0  0  0  0  0  0  0  0  0  0
   -3.9573    2.2714   -0.5154 O   0  0  0  0  0  0  0  0  0  0  0  0
   -4.1532    3.5073    0.1601 C   0  0  0  0  0  0  0  0  0  0  0  0
    0.6137   -3.3891   -1.5562 N   0  0  0  0  0  0  0  0  0  0  0  0
    1.8313   -3.8980   -1.5447 N   0  0  0  0  0  0  0  0  0  0  0  0
    2.6703   -3.0409   -0.8884 N   0  0  0  0  0  0  0  0  0  0  0  0
    4.0576   -3.3139   -0.7735 C   0  0  0  0  0  0  0  0  0  0  0  0
    4.8933   -2.4411   -0.2103 N   0  0  0  0  0  0  0  0  0  0  0  0
    6.1412   -3.0528   -0.3048 O   0  0  0  0  0  0  0  0  0  0  0  0
    6.0503   -4.2900   -0.9340 N   0  0  0  0  0  0  0  0  0  0  0  0
    4.7585   -4.4516   -1.2171 C   0  0  0  0  0  0  0  0  0  0  0  0
    4.2466   -5.5388   -1.8251 N   0  0  0  0  0  0  0  0  0  0  0  0
    2.7339    0.3933   -0.2860 C   0  0  0  0  0  0  0  0  0  0  0  0
    3.2332    1.4722    0.4543 C   0  0  0  0  0  0  0  0  0  0  0  0
    2.3897    4.1544    1.3697 H   0  0  0  0  0  0  0  0  0  0  0  0
    2.7061    4.6423    3.0282 H   0  0  0  0  0  0  0  0  0  0  0  0
    3.4981    5.5052    1.6890 H   0  0  0  0  0  0  0  0  0  0  0  0
    4.8592    3.4512    1.1606 H   0  0  0  0  0  0  0  0  0  0  0  0
    5.0812    3.9724    2.8142 H   0  0  0  0  0  0  0  0  0  0  0  0
    3.3200    0.0192    3.5179 H   0  0  0  0  0  0  0  0  0  0  0  0
    2.4357   -1.8821    2.2302 H   0  0  0  0  0  0  0  0  0  0  0  0
   -1.5892   -2.9488   -1.5020 H   0  0  0  0  0  0  0  0  0  0  0  0
   -3.2501    1.2187   -2.8328 H   0  0  0  0  0  0  0  0  0  0  0  0
   -1.8715    1.1503   -1.7085 H   0  0  0  0  0  0  0  0  0  0  0  0
   -2.0271   -0.0269   -3.0382 H   0  0  0  0  0  0  0  0  0  0  0  0
   -5.5191   -1.9271   -1.2370 H   0  0  0  0  0  0  0  0  0  0  0  0
   -7.8147   -1.3197   -0.5550 H   0  0  0  0  0  0  0  0  0  0  0  0
   -8.3282    1.0093    0.1288 H   0  0  0  0  0  0  0  0  0  0  0  0
   -6.5782    2.7128    0.1529 H   0  0  0  0  0  0  0  0  0  0  0  0
   -4.4667    3.3507    1.1979 H   0  0  0  0  0  0  0  0  0  0  0  0
   -4.8672    4.1382   -0.3794 H   0  0  0  0  0  0  0  0  0  0  0  0
   -3.1939    4.0338    0.1772 H   0  0  0  0  0  0  0  0  0  0  0  0
    4.8776   -6.1965   -2.2707 H   0  0  0  0  0  0  0  0  0  0  0  0
    3.2997   -5.5386   -2.2004 H   0  0  0  0  0  0  0  0  0  0  0  0
    2.5604    0.5225   -1.3518 H   0  0  0  0  0  0  0  0  0  0  0  0
    3.4248    2.3999   -0.0735 H   0  0  0  0  0  0  0  0  0  0  0  0
  1  2  1  0
  2  3  1  0
  3  4  1  0
  4  5  2  0
  5  6  1  0
  6  7  2  0
  7  8  1  0
  8  9  2  0
  9 10  1  0
 10 11  2  0
 10 12  1  0
 12 13  1  0
 13 14  2  3
 14 15  1  0
 14 16  1  0
 16 17  2  0
 17 18  1  0
 18 19  2  0
 19 20  1  0
 20 21  2  0
 21 22  1  0
 22 23  1  0
  9 24  1  0
 24 25  2  0
 25 26  1  0
 26 27  1  0
 27 28  2  0
 28 29  1  0
 29 30  1  0
 30 31  2  0
 31 32  1  0
  7 33  1  0
 33 34  2  0
 34  4  1  0
 26  8  1  0
 31 27  1  0
 21 16  1  0
  1 35  1  0
  1 36  1  0
  1 37  1  0
  2 38  1  0
  2 39  1  0
  5 40  1  0
  6 41  1  0
 12 42  1  0
 15 43  1  0
 15 44  1  0
 15 45  1  0
 17 46  1  0
 18 47  1  0
 19 48  1  0
 20 49  1  0
 23 50  1  0
 23 51  1  0
 23 52  1  0
 32 53  1  0
 32 54  1  0
 33 55  1  0
 34 56  1  0
M  END
$$$$
