
     RDKit          3D

 69 71  0  0  0  0  0  0  0  0999 V2000
   -5.5402    4.2652   -2.4103 C   0  0  0  0  0  0  0  0  0  0  0  0
   -4.3382    3.5284   -2.5930 O   0  0  0  0  0  0  0  0  0  0  0  0
   -4.2608    2.3030   -1.9830 C   0  0  0  0  0  0  0  0  0  0  0  0
   -5.3846    1.5734   -1.5880 C   0  0  0  0  0  0  0  0  0  0  0  0
   -5.2373    0.3473   -0.9454 C   0  0  0  0  0  0  0  0  0  0  0  0
   -3.9657   -0.1523   -0.6674 C   0  0  0  0  0  0  0  0  0  0  0  0
   -2.8097    0.5547   -1.0408 C   0  0  0  0  0  0  0  0  0  0  0  0
   -1.3989    0.0435   -0.7179 C   0  0  0  0  0  0  0  0  0  0  0  0
   -1.2722   -1.4634   -0.3309 C   0  0  0  0  0  0  0  0  0  0  0  0
   -1.9187   -2.3426   -0.9015 O   0  0  0  0  0  0  0  0  0  0  0  0
   -0.3250   -1.7549    0.6352 N   0  0  0  0  0  0  0  0  0  0  0  0
    0.0606   -3.1042    1.0718 C   0  0  0  0  0  0  0  0  0  0  0  0
    0.7528   -3.8611   -0.0700 C   0  0  0  0  0  0  0  0  0  0  0  0
   -1.1528   -3.9008    1.5800 C   0  0  0  0  0  0  0  0  0  0  0  0
    1.0512   -2.9601    2.2416 C   0  0  0  0  0  0  0  0  0  0  0  0
   -0.6217    0.9412    0.1867 N   0  0  0  0  0  0  0  0  0  0  0  0
    0.6275    1.4729   -0.1493 C   0  0  0  0  0  0  0  0  0  0  0  0
    1.2360    2.2331    0.6125 O   0  0  0  0  0  0  0  0  0  0  0  0
    1.2663    1.0710   -1.4714 C   0  0  0  0  0  0  0  0  0  0  0  0
    2.7760    1.3035   -1.4342 C   0  0  0  0  0  0  0  0  0  0  0  0
    3.4442    0.3474   -0.4563 C   0  0  0  0  0  0  0  0  0  0  0  0
    2.8496   -0.6162    0.0207 O   0  0  0  0  0  0  0  0  0  0  0  0
    4.7600    0.6753   -0.2303 N   0  0  0  0  0  0  0  0  0  0  0  0
    5.6252   -0.0174    0.5868 C   0  0  0  0  0  0  0  0  0  0  0  0
    5.4044   -1.1905    1.3410 C   0  0  0  0  0  0  0  0  0  0  0  0
    6.6041   -1.4340    1.9613 C   0  0  0  0  0  0  0  0  0  0  0  0
    7.0962   -2.4710    2.8836 C   0  0  0  0  0  0  0  0  0  0  0  0
    7.4928   -0.4709    1.6025 O   0  0  0  0  0  0  0  0  0  0  0  0
    6.8811    0.4185    0.7388 N   0  0  0  0  0  0  0  0  0  0  0  0
   -1.0229    1.1203    1.5779 C   0  0  0  0  0  0  0  0  0  0  0  0
   -1.8677    2.3128    1.9579 C   0  0  0  0  0  0  0  0  0  0  0  0
   -2.3701    0.9204    2.2095 C   0  0  0  0  0  0  0  0  0  0  0  0
   -2.9757    1.7629   -1.7596 C   0  0  0  0  0  0  0  0  0  0  0  0
   -1.8143    2.3820   -2.1679 O   0  0  0  0  0  0  0  0  0  0  0  0
   -1.8330    2.8559   -3.5147 C   0  0  0  0  0  0  0  0  0  0  0  0
   -5.8127    4.3360   -1.3517 H   0  0  0  0  0  0  0  0  0  0  0  0
   -6.3530    3.8337   -3.0017 H   0  0  0  0  0  0  0  0  0  0  0  0
   -5.3677    5.2828   -2.7788 H   0  0  0  0  0  0  0  0  0  0  0  0
   -6.3923    1.9283   -1.7770 H   0  0  0  0  0  0  0  0  0  0  0  0
   -6.1169   -0.2187   -0.6490 H   0  0  0  0  0  0  0  0  0  0  0  0
   -3.8993   -1.1029   -0.1415 H   0  0  0  0  0  0  0  0  0  0  0  0
   -0.9159    0.0486   -1.7010 H   0  0  0  0  0  0  0  0  0  0  0  0
    0.3394   -1.0134    0.8361 H   0  0  0  0  0  0  0  0  0  0  0  0
    0.0800   -4.0211   -0.9190 H   0  0  0  0  0  0  0  0  0  0  0  0
    1.1042   -4.8447    0.2627 H   0  0  0  0  0  0  0  0  0  0  0  0
    1.6200   -3.3031   -0.4416 H   0  0  0  0  0  0  0  0  0  0  0  0
   -0.8435   -4.8624    2.0070 H   0  0  0  0  0  0  0  0  0  0  0  0
   -1.8668   -4.1201    0.7797 H   0  0  0  0  0  0  0  0  0  0  0  0
   -1.6907   -3.3440    2.3568 H   0  0  0  0  0  0  0  0  0  0  0  0
    0.5939   -2.4176    3.0773 H   0  0  0  0  0  0  0  0  0  0  0  0
    1.9431   -2.4003    1.9407 H   0  0  0  0  0  0  0  0  0  0  0  0
    1.3797   -3.9368    2.6145 H   0  0  0  0  0  0  0  0  0  0  0  0
    0.8230    1.6774   -2.2660 H   0  0  0  0  0  0  0  0  0  0  0  0
    1.0897    0.0133   -1.6844 H   0  0  0  0  0  0  0  0  0  0  0  0
    3.0120    2.3382   -1.1615 H   0  0  0  0  0  0  0  0  0  0  0  0
    3.1970    1.1098   -2.4272 H   0  0  0  0  0  0  0  0  0  0  0  0
    5.1624    1.5071   -0.6398 H   0  0  0  0  0  0  0  0  0  0  0  0
    4.5020   -1.7763    1.4246 H   0  0  0  0  0  0  0  0  0  0  0  0
    7.4486   -2.0200    3.8160 H   0  0  0  0  0  0  0  0  0  0  0  0
    6.3045   -3.1862    3.1267 H   0  0  0  0  0  0  0  0  0  0  0  0
    7.9265   -3.0229    2.4323 H   0  0  0  0  0  0  0  0  0  0  0  0
   -0.1889    0.9011    2.2513 H   0  0  0  0  0  0  0  0  0  0  0  0
   -2.3299    2.8889    1.1619 H   0  0  0  0  0  0  0  0  0  0  0  0
   -1.5379    2.9077    2.8013 H   0  0  0  0  0  0  0  0  0  0  0  0
   -3.2320    0.6023    1.6498 H   0  0  0  0  0  0  0  0  0  0  0  0
   -2.3900    0.5711    3.2384 H   0  0  0  0  0  0  0  0  0  0  0  0
   -0.8246    2.7361   -3.9205 H   0  0  0  0  0  0  0  0  0  0  0  0
   -2.5151    2.2903   -4.1601 H   0  0  0  0  0  0  0  0  0  0  0  0
   -2.0674    3.9243   -3.5319 H   0  0  0  0  0  0  0  0  0  0  0  0
  1  2  1  0
  2  3  1  0
  3  4  2  0
  4  5  1  0
  5  6  2  0
  6  7  1  0
  7  8  1  0
  8  9  1  0
  9 10  2  0
  9 11  1  0
 11 12  1  0
 12 13  1  0
 12 14  1  0
 12 15  1  0
  8 16  1  0
 16 17  1  0
 17 18  2  0
 17 19  1  0
 19 20  1  0
 20 21  1  0
 21 22  2  0
 21 23  1  0
 23 24  1  0
 24 25  1  0
 25 26  2  0
 26 27  1  0
 26 28  1  0
 28 29  1  0
 16 30  1  0
 30 31  1  0
 31 32  1  0
  7 33  2  0
 33 34  1  0
 34 35  1  0
 33  3  1  0
 29 24  2  0
 32 30  1  0
  1 36  1  0
  1 37  1  0
  1 38  1  0
  4 39  1  0
  5 40  1  0
  6 41  1  0
  8 42  1  0
 11 43  1  0
 13 44  1  0
 13 45  1  0
 13 46  1  0
 14 47  1  0
 14 48  1  0
 14 49  1  0
 15 50  1  0
 15 51  1  0
 15 52  1  0
 19 53  1  0
 19 54  1  0
 20 55  1  0
 20 56  1  0
 23 57  1  0
 25 58  1  0
 27 59  1  0
 27 60  1  0
 27 61  1  0
 30 62  1  0
 31 63  1  0
 31 64  1  0
 32 65  1  0
 32 66  1  0
 35 67  1  0
 35 68  1  0
 35 69  1  0
M  END
$$$$
