
     RDKit          3D

 40 42  0  0  0  0  0  0  0  0999 V2000
   -2.5182    0.5761   -1.4166 C   0  0  0  0  0  0  0  0  0  0  0  0
   -2.9478   -0.1084   -0.1944 N   0  0  0  0  0  0  0  0  0  0  0  0
   -2.0888   -1.0328    0.4299 C   0  0  0  0  0  0  0  0  0  0  0  0
   -2.4340   -2.0243    1.0700 O   0  0  0  0  0  0  0  0  0  0  0  0
   -0.6224   -0.8134    0.3225 C   0  0  0  0  0  0  0  0  0  0  0  0
   -0.0619    0.4409    0.5805 C   0  0  0  0  0  0  0  0  0  0  0  0
    1.3242    0.6205    0.4970 C   0  0  0  0  0  0  0  0  0  0  0  0
    2.1621   -0.4507    0.1751 C   0  0  0  0  0  0  0  0  0  0  0  0
    3.5665   -0.3578    0.0742 N   0  0  0  0  0  0  0  0  0  0  0  0
    4.3570    0.7799    0.1874 C   0  0  0  0  0  0  0  0  0  0  0  0
    3.9117    1.9108    0.3595 O   0  0  0  0  0  0  0  0  0  0  0  0
    5.7879    0.5211    0.0671 C   0  0  0  0  0  0  0  0  0  0  0  0
    6.5509   -0.6320   -0.0407 C   0  0  0  0  0  0  0  0  0  0  0  0
    7.9071   -0.2272   -0.1243 C   0  0  0  0  0  0  0  0  0  0  0  0
    7.8995    1.1438   -0.0611 C   0  0  0  0  0  0  0  0  0  0  0  0
    6.6306    1.6048    0.0553 O   0  0  0  0  0  0  0  0  0  0  0  0
    1.5918   -1.7126   -0.0495 C   0  0  0  0  0  0  0  0  0  0  0  0
    0.2080   -1.8968    0.0284 C   0  0  0  0  0  0  0  0  0  0  0  0
   -4.3151    0.0820    0.2396 C   0  0  0  0  0  0  0  0  0  0  0  0
   -5.2163    0.8667   -0.5040 C   0  0  0  0  0  0  0  0  0  0  0  0
   -6.5352    1.0760   -0.0790 C   0  0  0  0  0  0  0  0  0  0  0  0
   -6.9838    0.5147    1.1094 C   0  0  0  0  0  0  0  0  0  0  0  0
   -6.1103   -0.2479    1.8738 C   0  0  0  0  0  0  0  0  0  0  0  0
   -4.7923   -0.4547    1.4456 C   0  0  0  0  0  0  0  0  0  0  0  0
   -3.1857    0.3053   -2.2413 H   0  0  0  0  0  0  0  0  0  0  0  0
   -1.5175    0.2772   -1.7365 H   0  0  0  0  0  0  0  0  0  0  0  0
   -2.5285    1.6577   -1.2504 H   0  0  0  0  0  0  0  0  0  0  0  0
   -0.6922    1.2818    0.8605 H   0  0  0  0  0  0  0  0  0  0  0  0
    1.7148    1.6117    0.7068 H   0  0  0  0  0  0  0  0  0  0  0  0
    4.0446   -1.2221   -0.1319 H   0  0  0  0  0  0  0  0  0  0  0  0
    6.1912   -1.6505   -0.0510 H   0  0  0  0  0  0  0  0  0  0  0  0
    8.7819   -0.8561   -0.2150 H   0  0  0  0  0  0  0  0  0  0  0  0
    8.6708    1.9015   -0.0825 H   0  0  0  0  0  0  0  0  0  0  0  0
    2.2127   -2.5734   -0.2848 H   0  0  0  0  0  0  0  0  0  0  0  0
   -0.2210   -2.8833   -0.1349 H   0  0  0  0  0  0  0  0  0  0  0  0
   -4.9294    1.3400   -1.4371 H   0  0  0  0  0  0  0  0  0  0  0  0
   -7.2083    1.6810   -0.6811 H   0  0  0  0  0  0  0  0  0  0  0  0
   -8.0056    0.6746    1.4418 H   0  0  0  0  0  0  0  0  0  0  0  0
   -6.4445   -0.6853    2.8113 H   0  0  0  0  0  0  0  0  0  0  0  0
   -4.1546   -1.0389    2.1021 H   0  0  0  0  0  0  0  0  0  0  0  0
  1  2  1  0
  2  3  1  0
  3  4  2  0
  3  5  1  0
  5  6  2  0
  6  7  1  0
  7  8  2  0
  8  9  1  0
  9 10  1  0
 10 11  2  0
 10 12  1  0
 12 13  2  0
 13 14  1  0
 14 15  2  0
 15 16  1  0
  8 17  1  0
 17 18  2  0
  2 19  1  0
 19 20  2  0
 20 21  1  0
 21 22  2  0
 22 23  1  0
 23 24  2  0
 18  5  1  0
 24 19  1  0
 16 12  1  0
  1 25  1  0
  1 26  1  0
  1 27  1  0
  6 28  1  0
  7 29  1  0
  9 30  1  0
 13 31  1  0
 14 32  1  0
 15 33  1  0
 17 34  1  0
 18 35  1  0
 20 36  1  0
 21 37  1  0
 22 38  1  0
 23 39  1  0
 24 40  1  0
M  END
$$$$
