
     RDKit          3D

 56 60  0  0  0  0  0  0  0  0999 V2000
   -0.9181    0.0378   -1.8098 C   0  0  0  0  0  0  0  0  0  0  0  0
   -1.9049   -0.8516   -1.1038 C   0  0  0  0  0  0  0  0  0  0  0  0
   -2.3477   -2.0069   -1.7657 C   0  0  0  0  0  0  0  0  0  0  0  0
   -3.2443   -2.8806   -1.1542 C   0  0  0  0  0  0  0  0  0  0  0  0
   -3.7220   -2.6096    0.1253 C   0  0  0  0  0  0  0  0  0  0  0  0
   -3.2952   -1.4697    0.8211 C   0  0  0  0  0  0  0  0  0  0  0  0
   -3.8683   -1.1966    2.1857 C   0  0  0  0  0  0  0  0  0  0  0  0
   -2.3513   -0.6065    0.2144 C   0  0  0  0  0  0  0  0  0  0  0  0
   -1.8639    0.5242    0.9365 N   0  0  0  0  0  0  0  0  0  0  0  0
   -0.8850    0.4128    1.9190 C   0  0  0  0  0  0  0  0  0  0  0  0
   -0.0996   -1.1430    2.1782 S   0  0  0  0  0  0  0  0  0  0  0  0
    1.6350   -0.6237    2.0662 C   0  0  0  0  0  0  0  0  0  0  0  0
    1.9690   -0.1503    0.6526 C   0  0  0  0  0  0  0  0  0  0  0  0
    1.6646    1.0059    0.3428 O   0  0  0  0  0  0  0  0  0  0  0  0
    2.5866   -1.0645   -0.2197 N   0  0  0  0  0  0  0  0  0  0  0  0
    2.6202   -2.4968    0.1063 C   0  0  0  0  0  0  0  0  0  0  0  0
    2.9152   -3.5000   -0.9937 C   0  0  0  0  0  0  0  0  0  0  0  0
    2.8202   -4.7137   -0.8167 O   0  0  0  0  0  0  0  0  0  0  0  0
    3.3675   -3.0070   -2.1762 N   0  0  0  0  0  0  0  0  0  0  0  0
    3.5306   -1.6455   -2.4298 C   0  0  0  0  0  0  0  0  0  0  0  0
    4.0689   -1.2893   -3.6744 C   0  0  0  0  0  0  0  0  0  0  0  0
    4.2724    0.0489   -3.9919 C   0  0  0  0  0  0  0  0  0  0  0  0
    3.9457    1.0267   -3.0618 C   0  0  0  0  0  0  0  0  0  0  0  0
    3.4023    0.6696   -1.8213 C   0  0  0  0  0  0  0  0  0  0  0  0
    3.1639   -0.6710   -1.4810 C   0  0  0  0  0  0  0  0  0  0  0  0
   -0.5002    1.3836    2.6830 N   0  0  0  0  0  0  0  0  0  0  0  0
   -1.0626    2.6470    2.4793 C   0  0  0  0  0  0  0  0  0  0  0  0
   -0.6275    3.7117    3.2727 C   0  0  0  0  0  0  0  0  0  0  0  0
   -1.1547    4.9942    3.0969 C   0  0  0  0  0  0  0  0  0  0  0  0
   -2.1241    5.2225    2.1214 C   0  0  0  0  0  0  0  0  0  0  0  0
   -2.5660    4.1680    1.3242 C   0  0  0  0  0  0  0  0  0  0  0  0
   -2.0310    2.8865    1.5086 C   0  0  0  0  0  0  0  0  0  0  0  0
   -2.4901    1.7474    0.6919 C   0  0  0  0  0  0  0  0  0  0  0  0
   -3.3921    1.9357   -0.1238 O   0  0  0  0  0  0  0  0  0  0  0  0
    0.0987   -0.2549   -1.5437 H   0  0  0  0  0  0  0  0  0  0  0  0
   -1.0678    1.0944   -1.5698 H   0  0  0  0  0  0  0  0  0  0  0  0
   -1.0237   -0.0512   -2.8976 H   0  0  0  0  0  0  0  0  0  0  0  0
   -1.9945   -2.2316   -2.7698 H   0  0  0  0  0  0  0  0  0  0  0  0
   -3.5817   -3.7684   -1.6823 H   0  0  0  0  0  0  0  0  0  0  0  0
   -4.4378   -3.2944    0.5766 H   0  0  0  0  0  0  0  0  0  0  0  0
   -4.6874   -1.8862    2.4191 H   0  0  0  0  0  0  0  0  0  0  0  0
   -3.1059   -1.3192    2.9608 H   0  0  0  0  0  0  0  0  0  0  0  0
   -4.2801   -0.1833    2.2329 H   0  0  0  0  0  0  0  0  0  0  0  0
    1.8426    0.1961    2.7622 H   0  0  0  0  0  0  0  0  0  0  0  0
    2.2809   -1.4448    2.3836 H   0  0  0  0  0  0  0  0  0  0  0  0
    3.3853   -2.6341    0.8789 H   0  0  0  0  0  0  0  0  0  0  0  0
    1.6475   -2.7820    0.5167 H   0  0  0  0  0  0  0  0  0  0  0  0
    3.5997   -3.6929   -2.8831 H   0  0  0  0  0  0  0  0  0  0  0  0
    4.3391   -2.0482   -4.4044 H   0  0  0  0  0  0  0  0  0  0  0  0
    4.6938    0.3292   -4.9550 H   0  0  0  0  0  0  0  0  0  0  0  0
    4.1140    2.0773   -3.2912 H   0  0  0  0  0  0  0  0  0  0  0  0
    3.1964    1.4845   -1.1338 H   0  0  0  0  0  0  0  0  0  0  0  0
    0.1316    3.5384    4.0311 H   0  0  0  0  0  0  0  0  0  0  0  0
   -0.8062    5.8130    3.7211 H   0  0  0  0  0  0  0  0  0  0  0  0
   -2.5347    6.2197    1.9825 H   0  0  0  0  0  0  0  0  0  0  0  0
   -3.3230    4.3426    0.5630 H   0  0  0  0  0  0  0  0  0  0  0  0
  1  2  1  0
  2  3  2  0
  3  4  1  0
  4  5  2  0
  5  6  1  0
  6  7  1  0
  6  8  2  0
  8  9  1  0
  9 10  1  0
 10 11  1  0
 11 12  1  0
 12 13  1  0
 13 14  2  0
 13 15  1  0
 15 16  1  0
 16 17  1  0
 17 18  2  0
 17 19  1  0
 19 20  1  0
 20 21  2  0
 21 22  1  0
 22 23  2  0
 23 24  1  0
 24 25  2  0
 10 26  2  0
 26 27  1  0
 27 28  2  0
 28 29  1  0
 29 30  2  0
 30 31  1  0
 31 32  2  0
 32 33  1  0
 33 34  2  0
  8  2  1  0
 33  9  1  0
 25 15  1  0
 32 27  1  0
 25 20  1  0
  1 35  1  0
  1 36  1  0
  1 37  1  0
  3 38  1  0
  4 39  1  0
  5 40  1  0
  7 41  1  0
  7 42  1  0
  7 43  1  0
 12 44  1  0
 12 45  1  0
 16 46  1  0
 16 47  1  0
 19 48  1  0
 21 49  1  0
 22 50  1  0
 23 51  1  0
 24 52  1  0
 28 53  1  0
 29 54  1  0
 30 55  1  0
 31 56  1  0
M  END
$$$$
