
     RDKit          3D

 72 74  0  0  0  0  0  0  0  0999 V2000
   -3.8983    3.2356    5.2302 C   0  0  0  0  0  0  0  0  0  0  0  0
   -4.2714    2.9741    3.8854 O   0  0  0  0  0  0  0  0  0  0  0  0
   -3.5289    2.0483    3.2052 C   0  0  0  0  0  0  0  0  0  0  0  0
   -2.3837    1.4102    3.6762 C   0  0  0  0  0  0  0  0  0  0  0  0
   -1.7131    0.4837    2.8694 C   0  0  0  0  0  0  0  0  0  0  0  0
   -2.1826    0.1701    1.5826 C   0  0  0  0  0  0  0  0  0  0  0  0
   -1.4243   -0.8570    0.7483 C   0  0  0  0  0  0  0  0  0  0  0  0
   -2.3282   -1.6648   -0.2336 C   0  0  0  0  0  0  0  0  0  0  0  0
   -2.1957   -1.6259   -1.4557 O   0  0  0  0  0  0  0  0  0  0  0  0
   -3.3055   -2.4221    0.3984 N   0  0  0  0  0  0  0  0  0  0  0  0
   -4.3551   -3.1893   -0.2879 C   0  0  0  0  0  0  0  0  0  0  0  0
   -5.2084   -3.8896    0.7860 C   0  0  0  0  0  0  0  0  0  0  0  0
   -3.7514   -4.2706   -1.1994 C   0  0  0  0  0  0  0  0  0  0  0  0
   -5.2642   -2.2555   -1.1029 C   0  0  0  0  0  0  0  0  0  0  0  0
   -0.2356   -0.2981    0.0687 N   0  0  0  0  0  0  0  0  0  0  0  0
   -0.4302    0.8174   -0.8822 C   0  0  0  0  0  0  0  0  0  0  0  0
    0.1057    2.1634   -0.3629 C   0  0  0  0  0  0  0  0  0  0  0  0
    0.5255    3.0989   -1.4877 C   0  0  0  0  0  0  0  0  0  0  0  0
    0.3857    4.4505   -0.8354 C   0  0  0  0  0  0  0  0  0  0  0  0
   -0.8563    4.2620    0.0070 C   0  0  0  0  0  0  0  0  0  0  0  0
   -0.9039    2.8777    0.3721 O   0  0  0  0  0  0  0  0  0  0  0  0
    0.9432   -1.0313    0.1528 C   0  0  0  0  0  0  0  0  0  0  0  0
    1.0553   -2.0114    0.8917 O   0  0  0  0  0  0  0  0  0  0  0  0
    2.1122   -0.5861   -0.7111 C   0  0  0  0  0  0  0  0  0  0  0  0
    3.3892   -1.3454   -0.3627 C   0  0  0  0  0  0  0  0  0  0  0  0
    4.5678   -0.8561   -1.1807 C   0  0  0  0  0  0  0  0  0  0  0  0
    4.4407   -0.0511   -2.0987 O   0  0  0  0  0  0  0  0  0  0  0  0
    5.7511   -1.4213   -0.7623 N   0  0  0  0  0  0  0  0  0  0  0  0
    6.9883   -1.1739   -1.3146 C   0  0  0  0  0  0  0  0  0  0  0  0
    7.3302   -0.3957   -2.4443 C   0  0  0  0  0  0  0  0  0  0  0  0
    8.6956   -0.4961   -2.5309 C   0  0  0  0  0  0  0  0  0  0  0  0
    9.7124    0.0597   -3.4389 C   0  0  0  0  0  0  0  0  0  0  0  0
    9.1509   -1.2790   -1.5156 O   0  0  0  0  0  0  0  0  0  0  0  0
    8.0773   -1.7251   -0.7655 N   0  0  0  0  0  0  0  0  0  0  0  0
   -3.3296    0.8276    1.1141 C   0  0  0  0  0  0  0  0  0  0  0  0
   -3.9930    1.7556    1.9211 C   0  0  0  0  0  0  0  0  0  0  0  0
   -4.6065    3.9631    5.6375 H   0  0  0  0  0  0  0  0  0  0  0  0
   -3.9639    2.3296    5.8415 H   0  0  0  0  0  0  0  0  0  0  0  0
   -2.8995    3.6785    5.2844 H   0  0  0  0  0  0  0  0  0  0  0  0
   -1.9742    1.6182    4.6597 H   0  0  0  0  0  0  0  0  0  0  0  0
   -0.8095    0.0082    3.2494 H   0  0  0  0  0  0  0  0  0  0  0  0
   -1.0869   -1.6218    1.4621 H   0  0  0  0  0  0  0  0  0  0  0  0
   -3.4260   -2.2644    1.3930 H   0  0  0  0  0  0  0  0  0  0  0  0
   -5.6556   -3.1609    1.4732 H   0  0  0  0  0  0  0  0  0  0  0  0
   -6.0216   -4.4720    0.3362 H   0  0  0  0  0  0  0  0  0  0  0  0
   -4.5996   -4.5748    1.3886 H   0  0  0  0  0  0  0  0  0  0  0  0
   -4.5326   -4.9086   -1.6270 H   0  0  0  0  0  0  0  0  0  0  0  0
   -3.1941   -3.8404   -2.0377 H   0  0  0  0  0  0  0  0  0  0  0  0
   -3.0591   -4.9116   -0.6413 H   0  0  0  0  0  0  0  0  0  0  0  0
   -5.6841   -1.4645   -0.4698 H   0  0  0  0  0  0  0  0  0  0  0  0
   -4.7202   -1.7676   -1.9188 H   0  0  0  0  0  0  0  0  0  0  0  0
   -6.0984   -2.8071   -1.5512 H   0  0  0  0  0  0  0  0  0  0  0  0
   -1.4935    0.9061   -1.1239 H   0  0  0  0  0  0  0  0  0  0  0  0
    0.0813    0.5463   -1.8113 H   0  0  0  0  0  0  0  0  0  0  0  0
    0.9417    2.0158    0.3300 H   0  0  0  0  0  0  0  0  0  0  0  0
   -0.1653    3.0261   -2.3354 H   0  0  0  0  0  0  0  0  0  0  0  0
    1.5363    2.8953   -1.8490 H   0  0  0  0  0  0  0  0  0  0  0  0
    0.2965    5.2776   -1.5455 H   0  0  0  0  0  0  0  0  0  0  0  0
    1.2518    4.6442   -0.1915 H   0  0  0  0  0  0  0  0  0  0  0  0
   -1.7629    4.4874   -0.5657 H   0  0  0  0  0  0  0  0  0  0  0  0
   -0.8510    4.8811    0.9087 H   0  0  0  0  0  0  0  0  0  0  0  0
    1.8572   -0.7672   -1.7611 H   0  0  0  0  0  0  0  0  0  0  0  0
    2.2889    0.4832   -0.5700 H   0  0  0  0  0  0  0  0  0  0  0  0
    3.6208   -1.2148    0.7020 H   0  0  0  0  0  0  0  0  0  0  0  0
    3.2593   -2.4176   -0.5533 H   0  0  0  0  0  0  0  0  0  0  0  0
    5.7720   -2.0448    0.0335 H   0  0  0  0  0  0  0  0  0  0  0  0
    6.6790    0.1598   -3.1034 H   0  0  0  0  0  0  0  0  0  0  0  0
    9.2513    0.4561   -4.3500 H   0  0  0  0  0  0  0  0  0  0  0  0
   10.4358   -0.7078   -3.7299 H   0  0  0  0  0  0  0  0  0  0  0  0
   10.2530    0.8741   -2.9480 H   0  0  0  0  0  0  0  0  0  0  0  0
   -3.7170    0.6424    0.1145 H   0  0  0  0  0  0  0  0  0  0  0  0
   -4.8752    2.2638    1.5396 H   0  0  0  0  0  0  0  0  0  0  0  0
  1  2  1  0
  2  3  1  0
  3  4  2  0
  4  5  1  0
  5  6  2  0
  6  7  1  0
  7  8  1  0
  8  9  2  0
  8 10  1  0
 10 11  1  0
 11 12  1  0
 11 13  1  0
 11 14  1  0
  7 15  1  0
 15 16  1  0
 16 17  1  0
 17 18  1  0
 18 19  1  0
 19 20  1  0
 20 21  1  0
 15 22  1  0
 22 23  2  0
 22 24  1  0
 24 25  1  0
 25 26  1  0
 26 27  2  0
 26 28  1  0
 28 29  1  0
 29 30  1  0
 30 31  2  0
 31 32  1  0
 31 33  1  0
 33 34  1  0
  6 35  1  0
 35 36  2  0
 36  3  1  0
 21 17  1  0
 34 29  2  0
  1 37  1  0
  1 38  1  0
  1 39  1  0
  4 40  1  0
  5 41  1  0
  7 42  1  0
 10 43  1  0
 12 44  1  0
 12 45  1  0
 12 46  1  0
 13 47  1  0
 13 48  1  0
 13 49  1  0
 14 50  1  0
 14 51  1  0
 14 52  1  0
 16 53  1  0
 16 54  1  0
 17 55  1  0
 18 56  1  0
 18 57  1  0
 19 58  1  0
 19 59  1  0
 20 60  1  0
 20 61  1  0
 24 62  1  0
 24 63  1  0
 25 64  1  0
 25 65  1  0
 28 66  1  0
 30 67  1  0
 32 68  1  0
 32 69  1  0
 32 70  1  0
 35 71  1  0
 36 72  1  0
M  END
$$$$
