
     RDKit          3D

 37 38  0  0  0  0  0  0  0  0999 V2000
   -5.1073    2.5444   -0.3087 C   0  0  0  0  0  0  0  0  0  0  0  0
   -4.6204    1.3889    0.3578 O   0  0  0  0  0  0  0  0  0  0  0  0
   -3.4190    0.8691   -0.0551 C   0  0  0  0  0  0  0  0  0  0  0  0
   -2.6370    1.4079   -1.0832 C   0  0  0  0  0  0  0  0  0  0  0  0
   -1.4223    0.8122   -1.4351 C   0  0  0  0  0  0  0  0  0  0  0  0
   -0.9781   -0.3246   -0.7540 C   0  0  0  0  0  0  0  0  0  0  0  0
    0.3084   -0.9918   -1.0937 C   0  0  0  0  0  0  0  0  0  0  0  0
    0.4461   -2.1942   -0.9012 O   0  0  0  0  0  0  0  0  0  0  0  0
    1.3079   -0.1776   -1.5829 N   0  0  0  0  0  0  0  0  0  0  0  0
    2.6399   -0.6868   -1.8204 C   0  0  0  0  0  0  0  0  0  0  0  0
    3.5400   -0.4007   -0.6446 C   0  0  0  0  0  0  0  0  0  0  0  0
    4.3902    0.7126   -0.6449 C   0  0  0  0  0  0  0  0  0  0  0  0
    5.2024    0.9817    0.4599 C   0  0  0  0  0  0  0  0  0  0  0  0
    5.1694    0.1462    1.5804 C   0  0  0  0  0  0  0  0  0  0  0  0
    6.2000    0.5442    2.9088 Cl  0  0  0  0  0  0  0  0  0  0  0  0
    4.3184   -0.9632    1.5951 C   0  0  0  0  0  0  0  0  0  0  0  0
    4.2176   -2.0352    2.9463 Cl  0  0  0  0  0  0  0  0  0  0  0  0
    3.5079   -1.2317    0.4872 C   0  0  0  0  0  0  0  0  0  0  0  0
   -1.7639   -0.8797    0.2641 C   0  0  0  0  0  0  0  0  0  0  0  0
   -2.9803   -0.2884    0.6214 C   0  0  0  0  0  0  0  0  0  0  0  0
   -3.8075   -0.7570    1.6125 O   0  0  0  0  0  0  0  0  0  0  0  0
   -3.4308   -1.9575    2.2730 C   0  0  0  0  0  0  0  0  0  0  0  0
   -6.0660    2.8135    0.1451 H   0  0  0  0  0  0  0  0  0  0  0  0
   -5.2872    2.3421   -1.3696 H   0  0  0  0  0  0  0  0  0  0  0  0
   -4.4275    3.3925   -0.1765 H   0  0  0  0  0  0  0  0  0  0  0  0
   -2.9506    2.2871   -1.6362 H   0  0  0  0  0  0  0  0  0  0  0  0
   -0.8525    1.2322   -2.2590 H   0  0  0  0  0  0  0  0  0  0  0  0
    1.2075    0.8236   -1.4961 H   0  0  0  0  0  0  0  0  0  0  0  0
    2.6156   -1.7626   -2.0279 H   0  0  0  0  0  0  0  0  0  0  0  0
    3.0200   -0.1917   -2.7208 H   0  0  0  0  0  0  0  0  0  0  0  0
    4.4292    1.3779   -1.5054 H   0  0  0  0  0  0  0  0  0  0  0  0
    5.8602    1.8477    0.4420 H   0  0  0  0  0  0  0  0  0  0  0  0
    2.8388   -2.0922    0.5020 H   0  0  0  0  0  0  0  0  0  0  0  0
   -1.3987   -1.7712    0.7651 H   0  0  0  0  0  0  0  0  0  0  0  0
   -2.4927   -1.8273    2.8223 H   0  0  0  0  0  0  0  0  0  0  0  0
   -3.3662   -2.7936    1.5689 H   0  0  0  0  0  0  0  0  0  0  0  0
   -4.2113   -2.1969    3.0017 H   0  0  0  0  0  0  0  0  0  0  0  0
  1  2  1  0
  2  3  1  0
  3  4  2  0
  4  5  1  0
  5  6  2  0
  6  7  1  0
  7  8  2  0
  7  9  1  0
  9 10  1  0
 10 11  1  0
 11 12  2  0
 12 13  1  0
 13 14  2  0
 14 15  1  0
 14 16  1  0
 16 17  1  0
 16 18  2  0
  6 19  1  0
 19 20  2  0
 20 21  1  0
 21 22  1  0
 20  3  1  0
 18 11  1  0
  1 23  1  0
  1 24  1  0
  1 25  1  0
  4 26  1  0
  5 27  1  0
  9 28  1  0
 10 29  1  0
 10 30  1  0
 12 31  1  0
 13 32  1  0
 18 33  1  0
 19 34  1  0
 22 35  1  0
 22 36  1  0
 22 37  1  0
M  END
$$$$
