
     RDKit          3D

 42 45  0  0  0  0  0  0  0  0999 V2000
    3.4156    0.1039   -2.5430 O   0  0  0  0  0  0  0  0  0  0  0  0
    3.1696    0.0743   -1.3399 C   0  0  0  0  0  0  0  0  0  0  0  0
    4.2694    0.3976   -0.4051 C   0  0  0  0  0  0  0  0  0  0  0  0
    4.1279    1.4167    0.5464 C   0  0  0  0  0  0  0  0  0  0  0  0
    5.1882    1.7188    1.4034 C   0  0  0  0  0  0  0  0  0  0  0  0
    6.3871    1.0131    1.2970 C   0  0  0  0  0  0  0  0  0  0  0  0
    6.5215    0.0202    0.3300 C   0  0  0  0  0  0  0  0  0  0  0  0
    7.6798   -0.6444    0.2284 F   0  0  0  0  0  0  0  0  0  0  0  0
    5.4770   -0.2919   -0.5299 C   0  0  0  0  0  0  0  0  0  0  0  0
    1.9187   -0.2478   -0.8233 N   0  0  0  0  0  0  0  0  0  0  0  0
    0.8285   -0.4930   -1.7688 C   0  0  0  0  0  0  0  0  0  0  0  0
   -0.5590   -0.3004   -1.1408 C   0  0  0  0  0  0  0  0  0  0  0  0
   -0.7394   -1.0492    0.1103 N   0  0  0  0  0  0  0  0  0  0  0  0
   -1.9764   -1.3951    0.6669 C   0  0  0  0  0  0  0  0  0  0  0  0
   -2.0365   -2.2068    1.5936 O   0  0  0  0  0  0  0  0  0  0  0  0
   -3.2250   -0.7838    0.1537 C   0  0  0  0  0  0  0  0  0  0  0  0
   -4.5322   -1.2446    0.4643 C   0  0  0  0  0  0  0  0  0  0  0  0
   -5.4003   -0.3959   -0.1753 C   0  0  0  0  0  0  0  0  0  0  0  0
   -6.7661   -0.3621   -0.2365 N   0  0  0  0  0  0  0  0  0  0  0  0
   -7.2736    0.6060   -0.9433 C   0  0  0  0  0  0  0  0  0  0  0  0
   -6.5049    1.6583   -1.6764 C   0  0  0  0  0  0  0  0  0  0  0  0
   -7.4098    2.9566   -2.6300 Br  0  0  0  0  0  0  0  0  0  0  0  0
   -5.1731    1.5645   -1.5739 C   0  0  0  0  0  0  0  0  0  0  0  0
   -4.6007    0.5426   -0.8267 N   0  0  0  0  0  0  0  0  0  0  0  0
   -3.2825    0.3126   -0.6258 N   0  0  0  0  0  0  0  0  0  0  0  0
    0.4751   -1.5720    0.7376 C   0  0  0  0  0  0  0  0  0  0  0  0
    1.6689   -0.6207    0.5763 C   0  0  0  0  0  0  0  0  0  0  0  0
    3.2040    1.9864    0.6094 H   0  0  0  0  0  0  0  0  0  0  0  0
    5.0850    2.5084    2.1438 H   0  0  0  0  0  0  0  0  0  0  0  0
    7.2230    1.2377    1.9527 H   0  0  0  0  0  0  0  0  0  0  0  0
    5.6079   -1.0592   -1.2866 H   0  0  0  0  0  0  0  0  0  0  0  0
    0.9372    0.1616   -2.6408 H   0  0  0  0  0  0  0  0  0  0  0  0
    0.9407   -1.5268   -2.1188 H   0  0  0  0  0  0  0  0  0  0  0  0
   -0.6999    0.7595   -0.9000 H   0  0  0  0  0  0  0  0  0  0  0  0
   -1.3177   -0.6091   -1.8663 H   0  0  0  0  0  0  0  0  0  0  0  0
   -4.7977   -2.0919    1.0811 H   0  0  0  0  0  0  0  0  0  0  0  0
   -8.3720    0.6736   -1.0210 H   0  0  0  0  0  0  0  0  0  0  0  0
   -4.4822    2.2497   -2.0454 H   0  0  0  0  0  0  0  0  0  0  0  0
    0.3037   -1.7641    1.8021 H   0  0  0  0  0  0  0  0  0  0  0  0
    0.6914   -2.5345    0.2582 H   0  0  0  0  0  0  0  0  0  0  0  0
    1.4635    0.3101    1.1172 H   0  0  0  0  0  0  0  0  0  0  0  0
    2.5652   -1.0789    1.0062 H   0  0  0  0  0  0  0  0  0  0  0  0
  1  2  2  0
  2  3  1  0
  3  4  2  0
  4  5  1  0
  5  6  2  0
  6  7  1  0
  7  8  1  0
  7  9  2  0
  2 10  1  0
 10 11  1  0
 11 12  1  0
 12 13  1  0
 13 14  1  0
 14 15  2  0
 14 16  1  0
 16 17  1  0
 17 18  2  0
 18 19  1  0
 19 20  2  0
 20 21  1  0
 21 22  1  0
 21 23  2  0
 23 24  1  0
 24 25  1  0
 13 26  1  0
 26 27  1  0
  9  3  1  0
 27 10  1  0
 25 16  2  0
 24 18  1  0
  4 28  1  0
  5 29  1  0
  6 30  1  0
  9 31  1  0
 11 32  1  0
 11 33  1  0
 12 34  1  0
 12 35  1  0
 17 36  1  0
 20 37  1  0
 23 38  1  0
 26 39  1  0
 26 40  1  0
 27 41  1  0
 27 42  1  0
M  END
$$$$
