
     RDKit          3D

 43 45  0  0  0  0  0  0  0  0999 V2000
   -7.3644    1.3341    1.2325 C   0  0  0  0  0  0  0  0  0  0  0  0
   -6.0393    0.7852    1.0037 N   0  0  0  0  0  0  0  0  0  0  0  0
   -5.8771   -0.6343    1.2876 C   0  0  0  0  0  0  0  0  0  0  0  0
   -4.9897    1.6731    0.7736 C   0  0  0  0  0  0  0  0  0  0  0  0
   -5.0996    2.8932    0.8767 O   0  0  0  0  0  0  0  0  0  0  0  0
   -3.6679    1.1414    0.3666 C   0  0  0  0  0  0  0  0  0  0  0  0
   -2.5242    1.6009    1.0218 C   0  0  0  0  0  0  0  0  0  0  0  0
   -1.2653    1.1350    0.6316 C   0  0  0  0  0  0  0  0  0  0  0  0
   -1.1356    0.2189   -0.4220 C   0  0  0  0  0  0  0  0  0  0  0  0
    0.1673   -0.1989   -0.7475 N   0  0  0  0  0  0  0  0  0  0  0  0
    0.5654   -1.1032   -1.7163 C   0  0  0  0  0  0  0  0  0  0  0  0
   -0.1836   -1.7207   -2.4659 O   0  0  0  0  0  0  0  0  0  0  0  0
    2.0078   -1.2684   -1.7634 C   0  0  0  0  0  0  0  0  0  0  0  0
    2.8050   -2.0630   -2.5618 C   0  0  0  0  0  0  0  0  0  0  0  0
    4.1434   -1.8201   -2.1698 C   0  0  0  0  0  0  0  0  0  0  0  0
    4.1006   -0.8870   -1.1516 C   0  0  0  0  0  0  0  0  0  0  0  0
    5.1123   -0.2239   -0.3302 C   0  0  0  0  0  0  0  0  0  0  0  0
    6.4688   -0.5640   -0.4577 C   0  0  0  0  0  0  0  0  0  0  0  0
    7.4454    0.0654    0.3226 C   0  0  0  0  0  0  0  0  0  0  0  0
    7.0745    1.0442    1.2398 C   0  0  0  0  0  0  0  0  0  0  0  0
    8.2740    1.8192    2.1980 Cl  0  0  0  0  0  0  0  0  0  0  0  0
    5.7365    1.3978    1.3838 C   0  0  0  0  0  0  0  0  0  0  0  0
    4.7623    0.7664    0.6024 C   0  0  0  0  0  0  0  0  0  0  0  0
    2.7978   -0.5507   -0.9021 O   0  0  0  0  0  0  0  0  0  0  0  0
   -2.2847   -0.2142   -1.0890 C   0  0  0  0  0  0  0  0  0  0  0  0
   -3.5473    0.2518   -0.7043 C   0  0  0  0  0  0  0  0  0  0  0  0
   -7.5563    1.3516    2.3095 H   0  0  0  0  0  0  0  0  0  0  0  0
   -8.1048    0.6993    0.7365 H   0  0  0  0  0  0  0  0  0  0  0  0
   -7.4529    2.3502    0.8382 H   0  0  0  0  0  0  0  0  0  0  0  0
   -6.3720   -1.2059    0.4975 H   0  0  0  0  0  0  0  0  0  0  0  0
   -6.3536   -0.8580    2.2474 H   0  0  0  0  0  0  0  0  0  0  0  0
   -4.8301   -0.9325    1.3593 H   0  0  0  0  0  0  0  0  0  0  0  0
   -2.6129    2.3233    1.8301 H   0  0  0  0  0  0  0  0  0  0  0  0
   -0.3901    1.5042    1.1605 H   0  0  0  0  0  0  0  0  0  0  0  0
    0.9286    0.2019   -0.2103 H   0  0  0  0  0  0  0  0  0  0  0  0
    2.4500   -2.7342   -3.3327 H   0  0  0  0  0  0  0  0  0  0  0  0
    5.0312   -2.2738   -2.5875 H   0  0  0  0  0  0  0  0  0  0  0  0
    6.7874   -1.3254   -1.1658 H   0  0  0  0  0  0  0  0  0  0  0  0
    8.4897   -0.2132    0.2069 H   0  0  0  0  0  0  0  0  0  0  0  0
    5.4425    2.1630    2.0976 H   0  0  0  0  0  0  0  0  0  0  0  0
    3.7236    1.0624    0.7303 H   0  0  0  0  0  0  0  0  0  0  0  0
   -2.2348   -0.9056   -1.9246 H   0  0  0  0  0  0  0  0  0  0  0  0
   -4.4280   -0.0735   -1.2523 H   0  0  0  0  0  0  0  0  0  0  0  0
  1  2  1  0
  2  3  1  0
  2  4  1  0
  4  5  2  0
  4  6  1  0
  6  7  2  0
  7  8  1  0
  8  9  2  0
  9 10  1  0
 10 11  1  0
 11 12  2  0
 11 13  1  0
 13 14  2  0
 14 15  1  0
 15 16  2  0
 16 17  1  0
 17 18  2  0
 18 19  1  0
 19 20  2  0
 20 21  1  0
 20 22  1  0
 22 23  2  0
 16 24  1  0
  9 25  1  0
 25 26  2  0
 26  6  1  0
 24 13  1  0
 23 17  1  0
  1 27  1  0
  1 28  1  0
  1 29  1  0
  3 30  1  0
  3 31  1  0
  3 32  1  0
  7 33  1  0
  8 34  1  0
 10 35  1  0
 14 36  1  0
 15 37  1  0
 18 38  1  0
 19 39  1  0
 22 40  1  0
 23 41  1  0
 25 42  1  0
 26 43  1  0
M  END
$$$$
