
     RDKit          3D

 34 35  0  0  0  0  0  0  0  0999 V2000
   -4.4873    0.9736    0.3610 O   0  0  0  0  0  0  0  0  0  0  0  0
   -4.0153   -0.1643    0.5048 C   0  0  0  0  0  0  0  0  0  0  0  0
   -4.9805   -1.3190    0.7827 C   0  0  0  0  0  0  0  0  0  0  0  0
   -5.1506   -2.3509   -0.6492 Cl  0  0  0  0  0  0  0  0  0  0  0  0
   -4.5423   -2.2288    2.2371 Cl  0  0  0  0  0  0  0  0  0  0  0  0
   -2.6434   -0.3622    0.3897 N   0  0  0  0  0  0  0  0  0  0  0  0
   -1.7946    0.8113    0.1499 C   0  0  0  0  0  0  0  0  0  0  0  0
   -0.3300    0.5883    0.5697 C   0  0  0  0  0  0  0  0  0  0  0  0
    0.3178   -0.6069   -0.0110 N   0  0  0  0  0  0  0  0  0  0  0  0
    1.2254   -0.2841   -1.1234 C   0  0  0  0  0  0  0  0  0  0  0  0
    2.4722    0.4594   -0.6903 C   0  0  0  0  0  0  0  0  0  0  0  0
    3.2788   -0.0360    0.3456 C   0  0  0  0  0  0  0  0  0  0  0  0
    4.4387    0.6391    0.7286 C   0  0  0  0  0  0  0  0  0  0  0  0
    4.8097    1.8128    0.0759 C   0  0  0  0  0  0  0  0  0  0  0  0
    4.0228    2.3111   -0.9607 C   0  0  0  0  0  0  0  0  0  0  0  0
    2.8617    1.6372   -1.3449 C   0  0  0  0  0  0  0  0  0  0  0  0
   -0.6640   -1.6270   -0.4277 C   0  0  0  0  0  0  0  0  0  0  0  0
   -1.9314   -1.6472    0.4470 C   0  0  0  0  0  0  0  0  0  0  0  0
   -5.9679   -0.8899    0.9780 H   0  0  0  0  0  0  0  0  0  0  0  0
   -2.1996    1.6749    0.6893 H   0  0  0  0  0  0  0  0  0  0  0  0
   -1.8503    1.0357   -0.9223 H   0  0  0  0  0  0  0  0  0  0  0  0
   -0.3117    0.4535    1.6593 H   0  0  0  0  0  0  0  0  0  0  0  0
    0.2402    1.5046    0.3797 H   0  0  0  0  0  0  0  0  0  0  0  0
    1.5729   -1.2104   -1.6009 H   0  0  0  0  0  0  0  0  0  0  0  0
    0.6893    0.2833   -1.8956 H   0  0  0  0  0  0  0  0  0  0  0  0
    2.9963   -0.9510    0.8625 H   0  0  0  0  0  0  0  0  0  0  0  0
    5.0512    0.2480    1.5366 H   0  0  0  0  0  0  0  0  0  0  0  0
    5.7130    2.3382    0.3744 H   0  0  0  0  0  0  0  0  0  0  0  0
    4.3143    3.2251   -1.4716 H   0  0  0  0  0  0  0  0  0  0  0  0
    2.2625    2.0395   -2.1582 H   0  0  0  0  0  0  0  0  0  0  0  0
   -0.1854   -2.6122   -0.3897 H   0  0  0  0  0  0  0  0  0  0  0  0
   -0.9777   -1.4549   -1.4666 H   0  0  0  0  0  0  0  0  0  0  0  0
   -1.6612   -1.8252    1.4945 H   0  0  0  0  0  0  0  0  0  0  0  0
   -2.5738   -2.4655    0.1236 H   0  0  0  0  0  0  0  0  0  0  0  0
  1  2  2  0
  2  3  1  0
  3  4  1  0
  3  5  1  0
  2  6  1  0
  6  7  1  0
  7  8  1  0
  8  9  1  0
  9 10  1  0
 10 11  1  0
 11 12  2  0
 12 13  1  0
 13 14  2  0
 14 15  1  0
 15 16  2  0
  9 17  1  0
 17 18  1  0
 18  6  1  0
 16 11  1  0
  3 19  1  0
  7 20  1  0
  7 21  1  0
  8 22  1  0
  8 23  1  0
 10 24  1  0
 10 25  1  0
 12 26  1  0
 13 27  1  0
 14 28  1  0
 15 29  1  0
 16 30  1  0
 17 31  1  0
 17 32  1  0
 18 33  1  0
 18 34  1  0
M  END
$$$$
