
     RDKit          3D

 36 37  0  0  0  0  0  0  0  0999 V2000
    0.1422    2.1737   -0.4593 O   0  0  0  0  0  0  0  0  0  0  0  0
   -0.4203    1.0882   -0.3883 C   0  0  0  0  0  0  0  0  0  0  0  0
   -1.8810    1.0250   -0.1443 C   0  0  0  0  0  0  0  0  0  0  0  0
   -2.6731    0.0615   -0.6392 C   0  0  0  0  0  0  0  0  0  0  0  0
   -4.1256    0.0206   -0.4020 C   0  0  0  0  0  0  0  0  0  0  0  0
   -4.9062    1.1576   -0.6686 C   0  0  0  0  0  0  0  0  0  0  0  0
   -6.2901    1.1370   -0.4761 C   0  0  0  0  0  0  0  0  0  0  0  0
   -6.9153   -0.0215   -0.0221 C   0  0  0  0  0  0  0  0  0  0  0  0
   -6.1578   -1.1631    0.2369 C   0  0  0  0  0  0  0  0  0  0  0  0
   -4.7721   -1.1459    0.0449 C   0  0  0  0  0  0  0  0  0  0  0  0
   -3.8974   -2.5988    0.3960 Cl  0  0  0  0  0  0  0  0  0  0  0  0
    0.2169   -0.1239   -0.4496 N   0  0  0  0  0  0  0  0  0  0  0  0
    1.6583   -0.2143   -0.5886 C   0  0  0  0  0  0  0  0  0  0  0  0
    2.3828    0.0172    0.7394 C   0  0  0  0  0  0  0  0  0  0  0  0
    3.8764   -0.1297    0.5923 C   0  0  0  0  0  0  0  0  0  0  0  0
    4.6515    0.9514    0.1512 C   0  0  0  0  0  0  0  0  0  0  0  0
    6.0312    0.8144   -0.0058 C   0  0  0  0  0  0  0  0  0  0  0  0
    6.6478   -0.4039    0.2733 C   0  0  0  0  0  0  0  0  0  0  0  0
    5.8852   -1.4863    0.7085 C   0  0  0  0  0  0  0  0  0  0  0  0
    4.5048   -1.3517    0.8659 C   0  0  0  0  0  0  0  0  0  0  0  0
   -2.2707    1.8620    0.4258 H   0  0  0  0  0  0  0  0  0  0  0  0
   -2.2745   -0.7469   -1.2463 H   0  0  0  0  0  0  0  0  0  0  0  0
   -4.4446    2.0710   -1.0400 H   0  0  0  0  0  0  0  0  0  0  0  0
   -6.8796    2.0267   -0.6861 H   0  0  0  0  0  0  0  0  0  0  0  0
   -7.9922   -0.0371    0.1270 H   0  0  0  0  0  0  0  0  0  0  0  0
   -6.6528   -2.0648    0.5890 H   0  0  0  0  0  0  0  0  0  0  0  0
   -0.2917   -0.9632   -0.2062 H   0  0  0  0  0  0  0  0  0  0  0  0
    1.9828    0.5180   -1.3374 H   0  0  0  0  0  0  0  0  0  0  0  0
    1.8782   -1.2130   -0.9819 H   0  0  0  0  0  0  0  0  0  0  0  0
    2.0139   -0.6890    1.4945 H   0  0  0  0  0  0  0  0  0  0  0  0
    2.1534    1.0143    1.1361 H   0  0  0  0  0  0  0  0  0  0  0  0
    4.1818    1.9076   -0.0724 H   0  0  0  0  0  0  0  0  0  0  0  0
    6.6244    1.6591   -0.3461 H   0  0  0  0  0  0  0  0  0  0  0  0
    7.7225   -0.5093    0.1514 H   0  0  0  0  0  0  0  0  0  0  0  0
    6.3664   -2.4363    0.9257 H   0  0  0  0  0  0  0  0  0  0  0  0
    3.9243   -2.2063    1.2052 H   0  0  0  0  0  0  0  0  0  0  0  0
  1  2  2  0
  2  3  1  0
  3  4  2  3
  4  5  1  0
  5  6  2  0
  6  7  1  0
  7  8  2  0
  8  9  1  0
  9 10  2  0
 10 11  1  0
  2 12  1  0
 12 13  1  0
 13 14  1  0
 14 15  1  0
 15 16  2  0
 16 17  1  0
 17 18  2  0
 18 19  1  0
 19 20  2  0
 10  5  1  0
 20 15  1  0
  3 21  1  0
  4 22  1  0
  6 23  1  0
  7 24  1  0
  8 25  1  0
  9 26  1  0
 12 27  1  0
 13 28  1  0
 13 29  1  0
 14 30  1  0
 14 31  1  0
 16 32  1  0
 17 33  1  0
 18 34  1  0
 19 35  1  0
 20 36  1  0
M  END
$$$$
