
     RDKit          3D

 59 62  0  0  0  0  0  0  0  0999 V2000
    7.2871    2.3397   -0.9097 C   0  0  0  0  0  0  0  0  0  0  0  0
    6.2534    1.3202   -0.4661 C   0  0  0  0  0  0  0  0  0  0  0  0
    5.3474    1.9706    0.4227 O   0  0  0  0  0  0  0  0  0  0  0  0
    4.3227    1.2240    0.9334 C   0  0  0  0  0  0  0  0  0  0  0  0
    4.0874   -0.1278    0.6803 C   0  0  0  0  0  0  0  0  0  0  0  0
    2.9969   -0.7839    1.2682 C   0  0  0  0  0  0  0  0  0  0  0  0
    2.1310   -0.0897    2.1129 C   0  0  0  0  0  0  0  0  0  0  0  0
    1.0374   -0.6272    2.7457 O   0  0  0  0  0  0  0  0  0  0  0  0
    0.5824   -1.8945    2.2714 C   0  0  0  0  0  0  0  0  0  0  0  0
   -0.6914   -2.2439    3.0197 C   0  0  0  0  0  0  0  0  0  0  0  0
    2.3740    1.2703    2.3671 C   0  0  0  0  0  0  0  0  0  0  0  0
    1.4514    2.0030    3.1845 N   0  0  0  0  0  0  0  0  0  0  0  0
    0.4051    3.0868    2.4066 S   0  0  0  0  0  6  0  0  0  0  0  0
    1.1734    4.0673    1.6707 O   0  0  0  0  0  0  0  0  0  0  0  0
   -0.5663    3.4949    3.4011 O   0  0  0  0  0  0  0  0  0  0  0  0
   -0.4515    2.0632    1.2253 C   0  0  0  0  0  0  0  0  0  0  0  0
    0.0810    1.8938   -0.0635 C   0  0  0  0  0  0  0  0  0  0  0  0
   -0.5752    1.0814   -0.9958 C   0  0  0  0  0  0  0  0  0  0  0  0
   -1.7635    0.4660   -0.6308 C   0  0  0  0  0  0  0  0  0  0  0  0
   -2.3055    0.6803    0.6404 C   0  0  0  0  0  0  0  0  0  0  0  0
   -1.6689    1.4767    1.5821 C   0  0  0  0  0  0  0  0  0  0  0  0
   -3.6342    0.0154    0.7802 C   0  0  0  0  0  0  0  0  0  0  0  0
   -3.6702   -0.8592   -0.4767 C   0  0  0  0  0  0  0  0  0  0  0  0
   -2.6015   -0.3970   -1.3795 N   0  0  0  0  0  0  0  0  0  0  0  0
   -2.3473   -0.8242   -2.6836 C   0  0  0  0  0  0  0  0  0  0  0  0
   -1.2972   -0.5159   -3.2732 O   0  0  0  0  0  0  0  0  0  0  0  0
   -3.3703   -1.6760   -3.4541 C   0  0  0  0  0  0  0  0  0  0  0  0
   -4.7842   -1.1257   -3.7545 C   0  0  0  0  0  0  0  0  0  0  0  0
   -5.2869   -2.5829   -3.7432 C   0  0  0  0  0  0  0  0  0  0  0  0
   -4.0474   -2.9492   -2.9018 C   0  0  0  0  0  0  0  0  0  0  0  0
    3.4582    1.9210    1.7786 C   0  0  0  0  0  0  0  0  0  0  0  0
    8.0119    1.8881   -1.5928 H   0  0  0  0  0  0  0  0  0  0  0  0
    6.8043    3.1837   -1.4133 H   0  0  0  0  0  0  0  0  0  0  0  0
    7.8218    2.7479   -0.0457 H   0  0  0  0  0  0  0  0  0  0  0  0
    5.7197    0.9451   -1.3471 H   0  0  0  0  0  0  0  0  0  0  0  0
    6.7617    0.4952    0.0463 H   0  0  0  0  0  0  0  0  0  0  0  0
    4.7368   -0.7058    0.0297 H   0  0  0  0  0  0  0  0  0  0  0  0
    2.8591   -1.8365    1.0453 H   0  0  0  0  0  0  0  0  0  0  0  0
    1.3317   -2.6681    2.4717 H   0  0  0  0  0  0  0  0  0  0  0  0
    0.3683   -1.8439    1.1976 H   0  0  0  0  0  0  0  0  0  0  0  0
   -1.1024   -3.1940    2.6678 H   0  0  0  0  0  0  0  0  0  0  0  0
   -0.4948   -2.3220    4.0939 H   0  0  0  0  0  0  0  0  0  0  0  0
   -1.4454   -1.4619    2.8920 H   0  0  0  0  0  0  0  0  0  0  0  0
    0.9212    1.4039    3.8199 H   0  0  0  0  0  0  0  0  0  0  0  0
    1.0117    2.3834   -0.3458 H   0  0  0  0  0  0  0  0  0  0  0  0
   -0.1385    0.9573   -1.9808 H   0  0  0  0  0  0  0  0  0  0  0  0
   -2.1098    1.6415    2.5609 H   0  0  0  0  0  0  0  0  0  0  0  0
   -4.4326    0.7647    0.7574 H   0  0  0  0  0  0  0  0  0  0  0  0
   -3.7149   -0.5842    1.6912 H   0  0  0  0  0  0  0  0  0  0  0  0
   -4.6497   -0.8276   -0.9551 H   0  0  0  0  0  0  0  0  0  0  0  0
   -3.4407   -1.8966   -0.2071 H   0  0  0  0  0  0  0  0  0  0  0  0
   -2.8960   -1.9453   -4.4175 H   0  0  0  0  0  0  0  0  0  0  0  0
   -4.8893   -0.6096   -4.7136 H   0  0  0  0  0  0  0  0  0  0  0  0
   -5.2244   -0.4936   -2.9786 H   0  0  0  0  0  0  0  0  0  0  0  0
   -5.2978   -3.0512   -4.7340 H   0  0  0  0  0  0  0  0  0  0  0  0
   -6.2534   -2.7466   -3.2600 H   0  0  0  0  0  0  0  0  0  0  0  0
   -4.2577   -2.9871   -1.8332 H   0  0  0  0  0  0  0  0  0  0  0  0
   -3.5632   -3.8897   -3.1825 H   0  0  0  0  0  0  0  0  0  0  0  0
    3.6352    2.9758    1.9749 H   0  0  0  0  0  0  0  0  0  0  0  0
  1  2  1  0
  2  3  1  0
  3  4  1  0
  4  5  2  0
  5  6  1  0
  6  7  2  0
  7  8  1  0
  8  9  1  0
  9 10  1  0
  7 11  1  0
 11 12  1  0
 12 13  1  0
 13 14  2  0
 13 15  2  0
 13 16  1  0
 16 17  2  0
 17 18  1  0
 18 19  2  0
 19 20  1  0
 20 21  2  0
 20 22  1  0
 22 23  1  0
 23 24  1  0
 24 25  1  0
 25 26  2  0
 25 27  1  0
 27 28  1  0
 28 29  1  0
 29 30  1  0
 11 31  2  0
 31  4  1  0
 21 16  1  0
 30 27  1  0
 24 19  1  0
  1 32  1  0
  1 33  1  0
  1 34  1  0
  2 35  1  0
  2 36  1  0
  5 37  1  0
  6 38  1  0
  9 39  1  0
  9 40  1  0
 10 41  1  0
 10 42  1  0
 10 43  1  0
 12 44  1  0
 17 45  1  0
 18 46  1  0
 21 47  1  0
 22 48  1  0
 22 49  1  0
 23 50  1  0
 23 51  1  0
 27 52  1  0
 28 53  1  0
 28 54  1  0
 29 55  1  0
 29 56  1  0
 30 57  1  0
 30 58  1  0
 31 59  1  0
M  END
$$$$
