
     RDKit          3D

 56 61  0  0  0  0  0  0  0  0999 V2000
    5.7762   -0.6661   -1.1064 C   0  0  0  0  0  0  0  0  0  0  0  0
    4.6614   -0.6339   -0.1040 C   0  0  0  0  0  0  0  0  0  0  0  0
    4.9173   -0.6075    1.2803 C   0  0  0  0  0  0  0  0  0  0  0  0
    6.5355   -0.6074    1.8930 Cl  0  0  0  0  0  0  0  0  0  0  0  0
    3.8716   -0.5757    2.2242 C   0  0  0  0  0  0  0  0  0  0  0  0
    2.5374   -0.5720    1.8158 C   0  0  0  0  0  0  0  0  0  0  0  0
    2.2730   -0.5963    0.4554 C   0  0  0  0  0  0  0  0  0  0  0  0
    3.3225   -0.6260   -0.4763 C   0  0  0  0  0  0  0  0  0  0  0  0
    2.7989   -0.6359   -1.7666 N   0  0  0  0  0  0  0  0  0  0  0  0
    1.4021   -0.6260   -1.7664 C   0  0  0  0  0  0  0  0  0  0  0  0
    0.7130   -0.6291   -2.7749 O   0  0  0  0  0  0  0  0  0  0  0  0
    0.9593   -0.6038   -0.2790 C   0  0  0  0  0  0  0  0  0  0  0  0
    0.0632   -1.7588    0.0531 N   0  0  0  0  0  0  0  0  0  0  0  0
   -1.3475   -1.2433    0.2047 C   0  0  2  0  0  0  0  0  0  0  0  0
   -2.2287   -1.5740   -1.0134 C   0  0  0  0  0  0  0  0  0  0  0  0
   -2.5802   -3.0409   -1.1036 C   0  0  0  0  0  0  0  0  0  0  0  0
   -3.7056   -3.5499   -0.4411 C   0  0  0  0  0  0  0  0  0  0  0  0
   -4.0147   -4.9091   -0.5176 C   0  0  0  0  0  0  0  0  0  0  0  0
   -3.2022   -5.7704   -1.2529 C   0  0  0  0  0  0  0  0  0  0  0  0
   -2.0795   -5.2742   -1.9125 C   0  0  0  0  0  0  0  0  0  0  0  0
   -1.7690   -3.9161   -1.8379 C   0  0  0  0  0  0  0  0  0  0  0  0
   -1.1367    0.2128    0.3861 C   0  0  0  0  0  0  0  0  0  0  0  0
    0.1745    0.5813    0.1013 C   0  0  0  0  0  0  0  0  0  0  0  0
    0.3007    1.9354    0.2816 C   0  0  0  0  0  0  0  0  0  0  0  0
    1.3802    2.7082    0.1832 O   0  0  0  0  0  0  0  0  0  0  0  0
   -0.9614    2.4299    0.6842 N   0  0  0  0  0  0  0  0  0  0  0  0
   -1.2855    3.8017    0.9761 C   0  0  0  0  0  0  0  0  0  0  0  0
   -0.5374    4.8508    0.4159 C   0  0  0  0  0  0  0  0  0  0  0  0
   -0.8528    6.1839    0.6994 C   0  0  0  0  0  0  0  0  0  0  0  0
   -1.9148    6.4744    1.5431 C   0  0  0  0  0  0  0  0  0  0  0  0
   -2.2151    7.7511    1.8146 F   0  0  0  0  0  0  0  0  0  0  0  0
   -2.6693    5.4570    2.1085 C   0  0  0  0  0  0  0  0  0  0  0  0
   -2.3573    4.1229    1.8257 C   0  0  0  0  0  0  0  0  0  0  0  0
   -1.8430    1.3276    0.7520 C   0  0  0  0  0  0  0  0  0  0  0  0
   -3.1308    1.4456    1.0649 O   0  0  0  0  0  0  0  0  0  0  0  0
    6.3962    0.2316   -1.0134 H   0  0  0  0  0  0  0  0  0  0  0  0
    5.4126   -0.7008   -2.1370 H   0  0  0  0  0  0  0  0  0  0  0  0
    6.3973   -1.5552   -0.9563 H   0  0  0  0  0  0  0  0  0  0  0  0
    4.1017   -0.5522    3.2880 H   0  0  0  0  0  0  0  0  0  0  0  0
    1.7361   -0.5399    2.5486 H   0  0  0  0  0  0  0  0  0  0  0  0
    3.3241   -0.6673   -2.6276 H   0  0  0  0  0  0  0  0  0  0  0  0
    0.3418   -2.0979    0.9714 H   0  0  0  0  0  0  0  0  0  0  0  0
   -1.7794   -1.6742    1.1165 H   0  0  0  0  0  0  0  0  0  0  0  0
   -3.1629   -0.9979   -0.9626 H   0  0  0  0  0  0  0  0  0  0  0  0
   -1.7530   -1.2511   -1.9483 H   0  0  0  0  0  0  0  0  0  0  0  0
   -4.3527   -2.8928    0.1341 H   0  0  0  0  0  0  0  0  0  0  0  0
   -4.8913   -5.2969   -0.0054 H   0  0  0  0  0  0  0  0  0  0  0  0
   -3.4441   -6.8281   -1.3133 H   0  0  0  0  0  0  0  0  0  0  0  0
   -1.4441   -5.9436   -2.4863 H   0  0  0  0  0  0  0  0  0  0  0  0
   -0.8869   -3.5393   -2.3534 H   0  0  0  0  0  0  0  0  0  0  0  0
    2.1437    2.1485   -0.0408 H   0  0  0  0  0  0  0  0  0  0  0  0
    0.2770    4.6659   -0.2780 H   0  0  0  0  0  0  0  0  0  0  0  0
   -0.2784    6.9924    0.2590 H   0  0  0  0  0  0  0  0  0  0  0  0
   -3.4931    5.7027    2.7707 H   0  0  0  0  0  0  0  0  0  0  0  0
   -2.9503    3.3563    2.3145 H   0  0  0  0  0  0  0  0  0  0  0  0
   -3.5497    0.5739    0.9643 H   0  0  0  0  0  0  0  0  0  0  0  0
  1  2  1  0
  2  3  2  0
  3  4  1  0
  3  5  1  0
  5  6  2  0
  6  7  1  0
  7  8  2  0
  8  9  1  0
  9 10  1  0
 10 11  2  0
 10 12  1  0
 12 13  1  0
 13 14  1  0
 14 15  1  0
 15 16  1  0
 16 17  2  0
 17 18  1  0
 18 19  2  0
 19 20  1  0
 20 21  2  0
 14 22  1  0
 22 23  1  0
 23 24  2  0
 24 25  1  0
 24 26  1  0
 26 27  1  0
 27 28  2  0
 28 29  1  0
 29 30  2  0
 30 31  1  0
 30 32  1  0
 32 33  2  0
 26 34  1  0
 34 35  1  0
  8  2  1  0
 23 12  1  0
 33 27  1  0
 12  7  1  0
 21 16  1  0
 34 22  2  0
  1 36  1  0
  1 37  1  0
  1 38  1  0
  5 39  1  0
  6 40  1  0
  9 41  1  0
 13 42  1  0
 14 43  1  1
 15 44  1  0
 15 45  1  0
 17 46  1  0
 18 47  1  0
 19 48  1  0
 20 49  1  0
 21 50  1  0
 25 51  1  0
 28 52  1  0
 29 53  1  0
 32 54  1  0
 33 55  1  0
 35 56  1  0
M  END
$$$$
