
     RDKit          3D

 53 56  0  0  0  0  0  0  0  0999 V2000
    7.9540   -0.0317   -3.1454 C   0  0  0  0  0  0  0  0  0  0  0  0
    6.6570   -0.6049   -3.2379 O   0  0  0  0  0  0  0  0  0  0  0  0
    5.8724   -0.5569   -2.1170 C   0  0  0  0  0  0  0  0  0  0  0  0
    6.2439   -0.0184   -0.8856 C   0  0  0  0  0  0  0  0  0  0  0  0
    5.3448   -0.0354    0.1809 C   0  0  0  0  0  0  0  0  0  0  0  0
    4.0748   -0.5910    0.0183 C   0  0  0  0  0  0  0  0  0  0  0  0
    3.6875   -1.1358   -1.2116 C   0  0  0  0  0  0  0  0  0  0  0  0
    2.3902   -1.6798   -1.2876 N   0  0  0  0  0  0  0  0  0  0  0  0
    1.7597   -2.2483   -2.3782 C   0  0  0  0  0  0  0  0  0  0  0  0
    2.2620   -2.4090   -3.4897 O   0  0  0  0  0  0  0  0  0  0  0  0
    0.3593   -2.7946   -2.1099 C   0  0  0  0  0  0  0  0  0  0  0  0
   -0.4200   -2.2091   -0.5725 S   0  0  0  0  0  0  0  0  0  0  0  0
   -0.9530   -0.6251   -1.0445 C   0  0  0  0  0  0  0  0  0  0  0  0
   -0.6288   -0.0494   -2.1772 N   0  0  0  0  0  0  0  0  0  0  0  0
   -1.1282    1.2213   -2.1617 N   0  0  0  0  0  0  0  0  0  0  0  0
   -1.7638    1.4058   -1.0195 C   0  0  0  0  0  0  0  0  0  0  0  0
   -2.5992    2.6068   -0.7072 C   0  0  0  0  0  0  0  0  0  0  0  0
   -4.0699    2.3019   -0.6061 C   0  0  0  0  0  0  0  0  0  0  0  0
   -4.8741    2.3074    0.5182 C   0  0  0  0  0  0  0  0  0  0  0  0
   -6.2245    1.9619    0.2235 C   0  0  0  0  0  0  0  0  0  0  0  0
   -6.4126    1.7164   -1.1174 C   0  0  0  0  0  0  0  0  0  0  0  0
   -4.9696    1.9040   -2.0127 S   0  0  0  0  0  0  0  0  0  0  0  0
   -1.6355    0.2661   -0.2327 N   0  0  0  0  0  0  0  0  0  0  0  0
   -2.0869    0.0835    1.0984 C   0  0  0  0  0  0  0  0  0  0  0  0
   -2.7942   -1.0697    1.4524 C   0  0  0  0  0  0  0  0  0  0  0  0
   -3.2428   -1.2348    2.7651 C   0  0  0  0  0  0  0  0  0  0  0  0
   -2.9940   -0.2543    3.7326 C   0  0  0  0  0  0  0  0  0  0  0  0
   -3.4469   -0.4542    5.1491 C   0  0  0  0  0  0  0  0  0  0  0  0
   -2.2657    0.8862    3.3755 C   0  0  0  0  0  0  0  0  0  0  0  0
   -1.8186    1.0611    2.0636 C   0  0  0  0  0  0  0  0  0  0  0  0
    4.5950   -1.1129   -2.2725 C   0  0  0  0  0  0  0  0  0  0  0  0
    8.4385   -0.1413   -4.1204 H   0  0  0  0  0  0  0  0  0  0  0  0
    7.8982    1.0385   -2.9200 H   0  0  0  0  0  0  0  0  0  0  0  0
    8.5672   -0.5602   -2.4080 H   0  0  0  0  0  0  0  0  0  0  0  0
    7.2226    0.4202   -0.7240 H   0  0  0  0  0  0  0  0  0  0  0  0
    5.6346    0.3848    1.1405 H   0  0  0  0  0  0  0  0  0  0  0  0
    3.3950   -0.5910    0.8661 H   0  0  0  0  0  0  0  0  0  0  0  0
    1.8265   -1.6145   -0.4485 H   0  0  0  0  0  0  0  0  0  0  0  0
    0.4504   -3.8833   -2.0359 H   0  0  0  0  0  0  0  0  0  0  0  0
   -0.2840   -2.5682   -2.9662 H   0  0  0  0  0  0  0  0  0  0  0  0
   -2.2494    3.0922    0.2092 H   0  0  0  0  0  0  0  0  0  0  0  0
   -2.4497    3.3538   -1.4987 H   0  0  0  0  0  0  0  0  0  0  0  0
   -4.5139    2.5403    1.5132 H   0  0  0  0  0  0  0  0  0  0  0  0
   -7.0183    1.8988    0.9577 H   0  0  0  0  0  0  0  0  0  0  0  0
   -7.3297    1.4386   -1.6187 H   0  0  0  0  0  0  0  0  0  0  0  0
   -3.0444   -1.8343    0.7205 H   0  0  0  0  0  0  0  0  0  0  0  0
   -3.7967   -2.1346    3.0267 H   0  0  0  0  0  0  0  0  0  0  0  0
   -2.6712   -0.9736    5.7200 H   0  0  0  0  0  0  0  0  0  0  0  0
   -3.6581    0.5065    5.6305 H   0  0  0  0  0  0  0  0  0  0  0  0
   -4.3686   -1.0444    5.1848 H   0  0  0  0  0  0  0  0  0  0  0  0
   -2.0353    1.6435    4.1226 H   0  0  0  0  0  0  0  0  0  0  0  0
   -1.2247    1.9422    1.8340 H   0  0  0  0  0  0  0  0  0  0  0  0
    4.3385   -1.5214   -3.2451 H   0  0  0  0  0  0  0  0  0  0  0  0
  1  2  1  0
  2  3  1  0
  3  4  2  0
  4  5  1  0
  5  6  2  0
  6  7  1  0
  7  8  1  0
  8  9  1  0
  9 10  2  0
  9 11  1  0
 11 12  1  0
 12 13  1  0
 13 14  2  0
 14 15  1  0
 15 16  2  0
 16 17  1  0
 17 18  1  0
 18 19  2  0
 19 20  1  0
 20 21  2  0
 21 22  1  0
 16 23  1  0
 23 24  1  0
 24 25  2  0
 25 26  1  0
 26 27  2  0
 27 28  1  0
 27 29  1  0
 29 30  2  0
  7 31  2  0
 31  3  1  0
 23 13  1  0
 30 24  1  0
 22 18  1  0
  1 32  1  0
  1 33  1  0
  1 34  1  0
  4 35  1  0
  5 36  1  0
  6 37  1  0
  8 38  1  0
 11 39  1  0
 11 40  1  0
 17 41  1  0
 17 42  1  0
 19 43  1  0
 20 44  1  0
 21 45  1  0
 25 46  1  0
 26 47  1  0
 28 48  1  0
 28 49  1  0
 28 50  1  0
 29 51  1  0
 30 52  1  0
 31 53  1  0
M  END
$$$$
