
     RDKit          3D

 42 44  0  0  0  0  0  0  0  0999 V2000
   -4.4088    2.8386    0.8875 C   0  0  0  0  0  0  0  0  0  0  0  0
   -3.0240    2.6214    1.1274 O   0  0  0  0  0  0  0  0  0  0  0  0
   -2.5852    1.3265    1.0968 C   0  0  0  0  0  0  0  0  0  0  0  0
   -3.3738    0.1976    0.8610 C   0  0  0  0  0  0  0  0  0  0  0  0
   -2.7954   -1.0766    0.8540 C   0  0  0  0  0  0  0  0  0  0  0  0
   -1.4224   -1.2165    1.0755 C   0  0  0  0  0  0  0  0  0  0  0  0
   -0.6894   -2.8372    1.0841 S   0  0  0  0  0  6  0  0  0  0  0  0
   -1.7584   -3.7952    1.2836 O   0  0  0  0  0  0  0  0  0  0  0  0
    0.4566   -2.8092    1.9667 O   0  0  0  0  0  0  0  0  0  0  0  0
   -0.1800   -3.0494   -0.5114 N   0  0  0  0  0  0  0  0  0  0  0  0
    0.6718   -2.0867   -1.1285 C   0  0  0  0  0  0  0  0  0  0  0  0
    1.9505   -1.8605   -0.6054 C   0  0  0  0  0  0  0  0  0  0  0  0
    2.7896   -0.8937   -1.1679 C   0  0  0  0  0  0  0  0  0  0  0  0
    4.4133   -0.6187   -0.4857 S   0  0  0  0  0  0  0  0  0  0  0  0
    4.0934    0.5693    0.7531 C   0  0  0  0  0  0  0  0  0  0  0  0
    2.8416    0.9797    1.1294 N   0  0  0  0  0  0  0  0  0  0  0  0
    3.0861    1.8576    2.0729 C   0  0  0  0  0  0  0  0  0  0  0  0
    4.4282    1.9719    2.2466 N   0  0  0  0  0  0  0  0  0  0  0  0
    5.0959    1.1704    1.4034 N   0  0  0  0  0  0  0  0  0  0  0  0
    2.3395   -0.1757   -2.2791 C   0  0  0  0  0  0  0  0  0  0  0  0
    3.1093    0.7740   -2.8941 O   0  0  0  0  0  0  0  0  0  0  0  0
    1.0759   -0.4049   -2.8168 C   0  0  0  0  0  0  0  0  0  0  0  0
    0.2236   -1.3626   -2.2474 C   0  0  0  0  0  0  0  0  0  0  0  0
   -1.1323   -1.5836   -2.8556 C   0  0  0  0  0  0  0  0  0  0  0  0
   -0.6317   -0.0972    1.3380 C   0  0  0  0  0  0  0  0  0  0  0  0
   -1.2160    1.1703    1.3354 C   0  0  0  0  0  0  0  0  0  0  0  0
   -5.0226    2.3568    1.6557 H   0  0  0  0  0  0  0  0  0  0  0  0
   -4.5925    3.9160    0.9423 H   0  0  0  0  0  0  0  0  0  0  0  0
   -4.6931    2.5031   -0.1153 H   0  0  0  0  0  0  0  0  0  0  0  0
   -4.4419    0.2736    0.6839 H   0  0  0  0  0  0  0  0  0  0  0  0
   -3.4223   -1.9481    0.6788 H   0  0  0  0  0  0  0  0  0  0  0  0
   -0.8864   -3.5096   -1.0810 H   0  0  0  0  0  0  0  0  0  0  0  0
    2.2969   -2.4395    0.2481 H   0  0  0  0  0  0  0  0  0  0  0  0
    2.3598    2.4194    2.6431 H   0  0  0  0  0  0  0  0  0  0  0  0
    4.9451    2.5571    2.8936 H   0  0  0  0  0  0  0  0  0  0  0  0
    3.9468    0.8282   -2.3978 H   0  0  0  0  0  0  0  0  0  0  0  0
    0.7620    0.1739   -3.6823 H   0  0  0  0  0  0  0  0  0  0  0  0
   -1.9181   -1.4254   -2.1118 H   0  0  0  0  0  0  0  0  0  0  0  0
   -1.3215   -0.8898   -3.6815 H   0  0  0  0  0  0  0  0  0  0  0  0
   -1.2069   -2.6003   -3.2542 H   0  0  0  0  0  0  0  0  0  0  0  0
    0.4338   -0.1972    1.5341 H   0  0  0  0  0  0  0  0  0  0  0  0
   -0.5968    2.0448    1.5210 H   0  0  0  0  0  0  0  0  0  0  0  0
  1  2  1  0
  2  3  1  0
  3  4  2  0
  4  5  1  0
  5  6  2  0
  6  7  1  0
  7  8  2  0
  7  9  2  0
  7 10  1  0
 10 11  1  0
 11 12  2  0
 12 13  1  0
 13 14  1  0
 14 15  1  0
 15 16  1  0
 16 17  2  0
 17 18  1  0
 18 19  1  0
 13 20  2  0
 20 21  1  0
 20 22  1  0
 22 23  2  0
 23 24  1  0
  6 25  1  0
 25 26  2  0
 26  3  1  0
 23 11  1  0
 19 15  2  0
  1 27  1  0
  1 28  1  0
  1 29  1  0
  4 30  1  0
  5 31  1  0
 10 32  1  0
 12 33  1  0
 17 34  1  0
 18 35  1  0
 21 36  1  0
 22 37  1  0
 24 38  1  0
 24 39  1  0
 24 40  1  0
 25 41  1  0
 26 42  1  0
M  END
$$$$
