
     RDKit          3D

 53 58  0  0  0  0  0  0  0  0999 V2000
   -0.7441    2.1483   -0.9177 O   0  0  0  0  0  0  0  0  0  0  0  0
   -1.3541    1.3158   -0.2442 C   0  0  0  0  0  0  0  0  0  0  0  0
   -0.7701    0.8185    1.0906 C   0  0  0  0  0  0  0  0  0  0  0  0
    0.6622    0.4908    0.9814 N   0  0  0  0  0  4  0  0  0  0  0  0
    1.2436   -0.7678    1.1292 C   0  0  0  0  0  0  0  0  0  0  0  0
    2.6164   -0.6570    0.9429 C   0  0  0  0  0  0  0  0  0  0  0  0
    3.6610   -1.8326    0.9638 C   0  0  0  0  0  0  0  0  0  0  0  0
    5.0040   -1.6008    0.6612 C   0  0  0  0  0  0  0  0  0  0  0  0
    5.9213   -2.6583    0.6740 C   0  0  0  0  0  0  0  0  0  0  0  0
    5.5054   -3.9551    0.9836 C   0  0  0  0  0  0  0  0  0  0  0  0
    6.6916   -5.2069    0.9768 Cl  0  0  0  0  0  0  0  0  0  0  0  0
    4.1613   -4.1919    1.2815 C   0  0  0  0  0  0  0  0  0  0  0  0
    3.5592   -5.7633    1.6692 Cl  0  0  0  0  0  0  0  0  0  0  0  0
    3.2416   -3.1331    1.2704 C   0  0  0  0  0  0  0  0  0  0  0  0
    2.7998    0.6984    0.7432 N   0  0  0  0  0  0  0  0  0  0  0  0
    1.6423    1.3587    0.7382 C   0  0  0  0  0  0  0  0  0  0  0  0
    1.8106    2.8182    0.5340 C   0  0  0  0  0  0  0  0  0  0  0  0
    3.3173    3.0035    0.7991 C   0  0  0  0  0  0  0  0  0  0  0  0
    3.9323    1.5986    0.5589 C   0  0  0  0  0  0  0  0  0  0  0  0
   -2.6202    0.7945   -0.5328 N   0  0  0  0  0  0  0  0  0  0  0  0
   -3.7439    1.6606   -0.7970 C   0  0  0  0  0  0  0  0  0  0  0  0
   -3.5486    3.0299   -1.0702 C   0  0  0  0  0  0  0  0  0  0  0  0
   -4.6196    3.8930   -1.3309 C   0  0  0  0  0  0  0  0  0  0  0  0
   -5.9198    3.4134   -1.3082 C   0  0  0  0  0  0  0  0  0  0  0  0
   -6.1462    2.0744   -1.0100 C   0  0  0  0  0  0  0  0  0  0  0  0
   -5.0742    1.2018   -0.7499 C   0  0  0  0  0  0  0  0  0  0  0  0
   -5.5100   -0.4432   -0.2450 S   0  0  0  0  0  0  0  0  0  0  0  0
   -4.0054   -1.2871   -0.6237 C   0  0  0  0  0  0  0  0  0  0  0  0
   -4.0789   -2.6795   -0.7965 C   0  0  0  0  0  0  0  0  0  0  0  0
   -2.9430   -3.4247   -1.1022 C   0  0  0  0  0  0  0  0  0  0  0  0
   -1.7224   -2.7824   -1.2480 C   0  0  0  0  0  0  0  0  0  0  0  0
   -1.6403   -1.3998   -1.0637 C   0  0  0  0  0  0  0  0  0  0  0  0
   -2.7729   -0.6270   -0.7212 C   0  0  0  0  0  0  0  0  0  0  0  0
   -1.3084   -0.0492    1.4827 H   0  0  0  0  0  0  0  0  0  0  0  0
   -0.8748    1.6269    1.8232 H   0  0  0  0  0  0  0  0  0  0  0  0
    0.5921   -1.6009    1.3342 H   0  0  0  0  0  0  0  0  0  0  0  0
    5.3742   -0.6183    0.3952 H   0  0  0  0  0  0  0  0  0  0  0  0
    6.9662   -2.4657    0.4343 H   0  0  0  0  0  0  0  0  0  0  0  0
    2.2053   -3.3544    1.5107 H   0  0  0  0  0  0  0  0  0  0  0  0
    1.5593    3.0275   -0.5068 H   0  0  0  0  0  0  0  0  0  0  0  0
    1.1708    3.3574    1.2325 H   0  0  0  0  0  0  0  0  0  0  0  0
    3.7707    3.7798    0.1772 H   0  0  0  0  0  0  0  0  0  0  0  0
    3.4641    3.2802    1.8497 H   0  0  0  0  0  0  0  0  0  0  0  0
    4.2986    1.4960   -0.4668 H   0  0  0  0  0  0  0  0  0  0  0  0
    4.7243    1.3877    1.2810 H   0  0  0  0  0  0  0  0  0  0  0  0
   -2.5595    3.4740   -1.1291 H   0  0  0  0  0  0  0  0  0  0  0  0
   -4.4312    4.9401   -1.5601 H   0  0  0  0  0  0  0  0  0  0  0  0
   -6.7557    4.0786   -1.5120 H   0  0  0  0  0  0  0  0  0  0  0  0
   -7.1737    1.7148   -0.9707 H   0  0  0  0  0  0  0  0  0  0  0  0
   -5.0342   -3.1954   -0.7057 H   0  0  0  0  0  0  0  0  0  0  0  0
   -3.0223   -4.4996   -1.2519 H   0  0  0  0  0  0  0  0  0  0  0  0
   -0.8427   -3.3541   -1.5358 H   0  0  0  0  0  0  0  0  0  0  0  0
   -0.6791   -0.9332   -1.2653 H   0  0  0  0  0  0  0  0  0  0  0  0
  1  2  2  0
  2  3  1  0
  3  4  1  0
  4  5  1  0
  5  6  2  0
  6  7  1  0
  7  8  2  0
  8  9  1  0
  9 10  2  0
 10 11  1  0
 10 12  1  0
 12 13  1  0
 12 14  2  0
  6 15  1  0
 15 16  1  0
 16 17  1  0
 17 18  1  0
 18 19  1  0
  2 20  1  0
 20 21  1  0
 21 22  2  0
 22 23  1  0
 23 24  2  0
 24 25  1  0
 25 26  2  0
 26 27  1  0
 27 28  1  0
 28 29  2  0
 29 30  1  0
 30 31  2  0
 31 32  1  0
 32 33  2  0
 16  4  2  0
 33 20  1  0
 14  7  1  0
 19 15  1  0
 26 21  1  0
 33 28  1  0
  3 34  1  0
  3 35  1  0
  5 36  1  0
  8 37  1  0
  9 38  1  0
 14 39  1  0
 17 40  1  0
 17 41  1  0
 18 42  1  0
 18 43  1  0
 19 44  1  0
 19 45  1  0
 22 46  1  0
 23 47  1  0
 24 48  1  0
 25 49  1  0
 29 50  1  0
 30 51  1  0
 31 52  1  0
 32 53  1  0
M  CHG  1   4   1
M  END
$$$$
