
     RDKit          3D

 48 50  0  0  0  0  0  0  0  0999 V2000
    9.5763   -0.0212    0.2255 C   0  0  0  0  0  0  0  0  0  0  0  0
    8.5002    0.9079    0.2658 O   0  0  0  0  0  0  0  0  0  0  0  0
    7.2361    0.4009    0.1495 C   0  0  0  0  0  0  0  0  0  0  0  0
    6.9054   -0.9359   -0.0702 C   0  0  0  0  0  0  0  0  0  0  0  0
    5.5633   -1.3291   -0.1719 C   0  0  0  0  0  0  0  0  0  0  0  0
    4.5369   -0.3884   -0.0480 C   0  0  0  0  0  0  0  0  0  0  0  0
    3.2024   -0.6817   -0.1392 O   0  0  0  0  0  0  0  0  0  0  0  0
    2.8179   -2.0503   -0.0397 C   0  0  0  0  0  0  0  0  0  0  0  0
    1.3399   -2.0758    0.0495 C   0  0  0  0  0  0  0  0  0  0  0  0
    0.3592   -1.1284    0.2177 C   0  0  0  0  0  0  0  0  0  0  0  0
   -0.8609   -1.8577    0.2180 C   0  0  0  0  0  0  0  0  0  0  0  0
   -2.2369   -1.3614    0.3573 C   0  0  0  0  0  0  0  0  0  0  0  0
   -3.2010   -2.0931    0.5727 O   0  0  0  0  0  0  0  0  0  0  0  0
   -2.3847    0.0106    0.2088 N   0  0  0  0  0  0  0  0  0  0  0  0
   -3.7092    0.6333    0.2169 C   0  0  0  0  0  0  0  0  0  0  0  0
   -3.5630    2.1164    0.5596 C   0  0  0  0  0  0  0  0  0  0  0  0
   -4.4220    0.4150   -1.1306 C   0  0  0  0  0  0  0  0  0  0  0  0
   -5.8824    0.7800   -1.0825 C   0  0  0  0  0  0  0  0  0  0  0  0
   -6.8114   -0.1035   -0.5374 C   0  0  0  0  0  0  0  0  0  0  0  0
   -8.1498    0.2739   -0.4929 C   0  0  0  0  0  0  0  0  0  0  0  0
   -8.5246    1.5134   -0.9968 C   0  0  0  0  0  0  0  0  0  0  0  0
   -7.5382    2.3316   -1.5202 C   0  0  0  0  0  0  0  0  0  0  0  0
   -6.2296    1.9969   -1.5678 N   0  0  0  0  0  0  0  0  0  0  0  0
   -0.6095   -3.1709    0.0744 N   0  0  0  0  0  0  0  0  0  0  0  0
    0.7589   -3.2990   -0.0377 O   0  0  0  0  0  0  0  0  0  0  0  0
    4.8779    0.9558    0.1642 C   0  0  0  0  0  0  0  0  0  0  0  0
    3.6585    2.1735    0.3366 Cl  0  0  0  0  0  0  0  0  0  0  0  0
    6.2156    1.3454    0.2620 C   0  0  0  0  0  0  0  0  0  0  0  0
    9.5067   -0.7394    1.0485 H   0  0  0  0  0  0  0  0  0  0  0  0
   10.5081    0.5398    0.3499 H   0  0  0  0  0  0  0  0  0  0  0  0
    9.6219   -0.5297   -0.7428 H   0  0  0  0  0  0  0  0  0  0  0  0
    7.6680   -1.7013   -0.1735 H   0  0  0  0  0  0  0  0  0  0  0  0
    5.3607   -2.3791   -0.3600 H   0  0  0  0  0  0  0  0  0  0  0  0
    3.2418   -2.5093    0.8610 H   0  0  0  0  0  0  0  0  0  0  0  0
    3.1385   -2.5941   -0.9358 H   0  0  0  0  0  0  0  0  0  0  0  0
    0.5153   -0.0669    0.3337 H   0  0  0  0  0  0  0  0  0  0  0  0
   -1.6171    0.5440   -0.1739 H   0  0  0  0  0  0  0  0  0  0  0  0
   -4.2843    0.1520    1.0178 H   0  0  0  0  0  0  0  0  0  0  0  0
   -4.5376    2.5991    0.6800 H   0  0  0  0  0  0  0  0  0  0  0  0
   -3.0133    2.2422    1.4990 H   0  0  0  0  0  0  0  0  0  0  0  0
   -3.0077    2.6506   -0.2195 H   0  0  0  0  0  0  0  0  0  0  0  0
   -3.9228    0.9981   -1.9158 H   0  0  0  0  0  0  0  0  0  0  0  0
   -4.3395   -0.6309   -1.4508 H   0  0  0  0  0  0  0  0  0  0  0  0
   -6.4993   -1.0701   -0.1515 H   0  0  0  0  0  0  0  0  0  0  0  0
   -8.8943   -0.3950   -0.0688 H   0  0  0  0  0  0  0  0  0  0  0  0
   -9.5598    1.8348   -0.9803 H   0  0  0  0  0  0  0  0  0  0  0  0
   -7.7806    3.3086   -1.9273 H   0  0  0  0  0  0  0  0  0  0  0  0
    6.4702    2.3885    0.4353 H   0  0  0  0  0  0  0  0  0  0  0  0
  1  2  1  0
  2  3  1  0
  3  4  2  0
  4  5  1  0
  5  6  2  0
  6  7  1  0
  7  8  1  0
  8  9  1  0
  9 10  2  0
 10 11  1  0
 11 12  1  0
 12 13  2  0
 12 14  1  0
 14 15  1  0
 15 16  1  0
 15 17  1  0
 17 18  1  0
 18 19  2  0
 19 20  1  0
 20 21  2  0
 21 22  1  0
 22 23  2  0
 11 24  2  0
 24 25  1  0
  6 26  1  0
 26 27  1  0
 26 28  2  0
 28  3  1  0
 25  9  1  0
 23 18  1  0
  1 29  1  0
  1 30  1  0
  1 31  1  0
  4 32  1  0
  5 33  1  0
  8 34  1  0
  8 35  1  0
 10 36  1  0
 14 37  1  0
 15 38  1  0
 16 39  1  0
 16 40  1  0
 16 41  1  0
 17 42  1  0
 17 43  1  0
 19 44  1  0
 20 45  1  0
 21 46  1  0
 22 47  1  0
 28 48  1  0
M  END
$$$$
