
     RDKit          3D

 59 64  0  0  0  0  0  0  0  0999 V2000
   -4.4718    2.4983    1.5886 C   0  0  0  0  0  0  0  0  0  0  0  0
   -4.1419    1.3056    0.8913 O   0  0  0  0  0  0  0  0  0  0  0  0
   -5.1638    0.6145    0.2876 C   0  0  0  0  0  0  0  0  0  0  0  0
   -6.5073    1.0140    0.3295 C   0  0  0  0  0  0  0  0  0  0  0  0
   -7.4928    0.2733   -0.3276 C   0  0  0  0  0  0  0  0  0  0  0  0
   -7.1480   -0.8719   -1.0350 C   0  0  0  0  0  0  0  0  0  0  0  0
   -5.8159   -1.2796   -1.0813 C   0  0  0  0  0  0  0  0  0  0  0  0
   -4.8064   -0.5578   -0.4211 C   0  0  0  0  0  0  0  0  0  0  0  0
   -3.4942   -1.0621   -0.5444 N   0  0  0  0  0  0  0  0  0  0  0  0
   -2.7038   -0.3132   -1.5475 C   0  0  0  0  0  0  0  0  0  0  0  0
   -1.2481   -0.8252   -1.5865 C   0  0  0  0  0  0  0  0  0  0  0  0
   -0.5562   -0.7094   -0.2707 N   0  0  0  0  0  0  0  0  0  0  0  0
    0.5880    0.0414   -0.2593 C   0  0  0  0  0  0  0  0  0  0  0  0
    0.7133    1.4122   -0.3767 C   0  0  0  0  0  0  0  0  0  0  0  0
    2.0850    1.7306   -0.3305 C   0  0  0  0  0  0  0  0  0  0  0  0
    2.7825    0.5507   -0.1529 C   0  0  0  0  0  0  0  0  0  0  0  0
    4.1988    0.2764   -0.0351 C   0  0  0  0  0  0  0  0  0  0  0  0
    5.1877    1.3840   -0.0004 C   0  0  0  0  0  0  0  0  0  0  0  0
    5.0423    2.4543    0.8892 C   0  0  0  0  0  0  0  0  0  0  0  0
    5.9967    3.4729    0.9115 C   0  0  0  0  0  0  0  0  0  0  0  0
    7.0990    3.4162    0.0574 C   0  0  0  0  0  0  0  0  0  0  0  0
    7.2564    2.3379   -0.8143 C   0  0  0  0  0  0  0  0  0  0  0  0
    6.3053    1.3172   -0.8397 C   0  0  0  0  0  0  0  0  0  0  0  0
    4.6395   -0.9444    0.0303 N   0  0  0  0  0  0  0  0  0  0  0  0
    3.7179   -2.0095    0.0351 C   0  0  0  0  0  0  0  0  0  0  0  0
    4.2335   -3.3060    0.1296 C   0  0  0  0  0  0  0  0  0  0  0  0
    3.3850   -4.4130    0.1547 C   0  0  0  0  0  0  0  0  0  0  0  0
    2.0064   -4.2298    0.0873 C   0  0  0  0  0  0  0  0  0  0  0  0
    1.4720   -2.9425   -0.0077 C   0  0  0  0  0  0  0  0  0  0  0  0
    2.3243   -1.8343   -0.0359 C   0  0  0  0  0  0  0  0  0  0  0  0
    1.8693   -0.4950   -0.1420 N   0  0  0  0  0  0  0  0  0  0  0  0
   -1.4798   -0.4926    0.8760 C   0  0  0  0  0  0  0  0  0  0  0  0
   -2.7811   -1.3122    0.7331 C   0  0  0  0  0  0  0  0  0  0  0  0
   -5.1377    2.2911    2.4325 H   0  0  0  0  0  0  0  0  0  0  0  0
   -4.9033    3.2449    0.9142 H   0  0  0  0  0  0  0  0  0  0  0  0
   -3.5440    2.9145    1.9932 H   0  0  0  0  0  0  0  0  0  0  0  0
   -6.8234    1.9027    0.8646 H   0  0  0  0  0  0  0  0  0  0  0  0
   -8.5306    0.5942   -0.2873 H   0  0  0  0  0  0  0  0  0  0  0  0
   -7.9105   -1.4505   -1.5489 H   0  0  0  0  0  0  0  0  0  0  0  0
   -5.5509   -2.1792   -1.6320 H   0  0  0  0  0  0  0  0  0  0  0  0
   -3.1504   -0.4501   -2.5400 H   0  0  0  0  0  0  0  0  0  0  0  0
   -2.7011    0.7625   -1.3290 H   0  0  0  0  0  0  0  0  0  0  0  0
   -1.2486   -1.8867   -1.8633 H   0  0  0  0  0  0  0  0  0  0  0  0
   -0.7002   -0.2931   -2.3746 H   0  0  0  0  0  0  0  0  0  0  0  0
   -0.1076    2.1062   -0.4983 H   0  0  0  0  0  0  0  0  0  0  0  0
    2.5108    2.7214   -0.4192 H   0  0  0  0  0  0  0  0  0  0  0  0
    4.2028    2.4922    1.5783 H   0  0  0  0  0  0  0  0  0  0  0  0
    5.8870    4.3057    1.6016 H   0  0  0  0  0  0  0  0  0  0  0  0
    7.8437    4.2083    0.0790 H   0  0  0  0  0  0  0  0  0  0  0  0
    8.1226    2.2885   -1.4692 H   0  0  0  0  0  0  0  0  0  0  0  0
    6.4342    0.4715   -1.5114 H   0  0  0  0  0  0  0  0  0  0  0  0
    5.3096   -3.4469    0.1872 H   0  0  0  0  0  0  0  0  0  0  0  0
    3.8009   -5.4139    0.2294 H   0  0  0  0  0  0  0  0  0  0  0  0
    1.3419   -5.0901    0.1087 H   0  0  0  0  0  0  0  0  0  0  0  0
    0.3947   -2.8433   -0.0551 H   0  0  0  0  0  0  0  0  0  0  0  0
   -1.7180    0.5732    0.9676 H   0  0  0  0  0  0  0  0  0  0  0  0
   -0.9741   -0.7951    1.8012 H   0  0  0  0  0  0  0  0  0  0  0  0
   -3.4209   -1.1514    1.6095 H   0  0  0  0  0  0  0  0  0  0  0  0
   -2.5188   -2.3779    0.7422 H   0  0  0  0  0  0  0  0  0  0  0  0
  1  2  1  0
  2  3  1  0
  3  4  2  0
  4  5  1  0
  5  6  2  0
  6  7  1  0
  7  8  2  0
  8  9  1  0
  9 10  1  0
 10 11  1  0
 11 12  1  0
 12 13  1  0
 13 14  2  0
 14 15  1  0
 15 16  2  0
 16 17  1  0
 17 18  1  0
 18 19  2  0
 19 20  1  0
 20 21  2  0
 21 22  1  0
 22 23  2  0
 17 24  2  0
 24 25  1  0
 25 26  2  0
 26 27  1  0
 27 28  2  0
 28 29  1  0
 29 30  2  0
 30 31  1  0
 12 32  1  0
 32 33  1  0
  8  3  1  0
 33  9  1  0
 31 13  1  0
 31 16  1  0
 23 18  1  0
 30 25  1  0
  1 34  1  0
  1 35  1  0
  1 36  1  0
  4 37  1  0
  5 38  1  0
  6 39  1  0
  7 40  1  0
 10 41  1  0
 10 42  1  0
 11 43  1  0
 11 44  1  0
 14 45  1  0
 15 46  1  0
 19 47  1  0
 20 48  1  0
 21 49  1  0
 22 50  1  0
 23 51  1  0
 26 52  1  0
 27 53  1  0
 28 54  1  0
 29 55  1  0
 32 56  1  0
 32 57  1  0
 33 58  1  0
 33 59  1  0
M  END
$$$$
