
     RDKit          3D

 38 40  0  0  0  0  0  0  0  0999 V2000
    0.0016    3.5778   -0.0761 S   0  0  0  0  0  0  0  0  0  0  0  0
    0.0324    1.9277   -0.3943 C   0  0  0  0  0  0  0  0  0  0  0  0
    1.1998    1.1905   -0.3883 N   0  0  0  0  0  0  0  0  0  0  0  0
    2.5368    1.7049   -0.1297 C   0  0  0  0  0  0  0  0  0  0  0  0
    3.5310    0.5740   -0.0860 C   0  0  0  0  0  0  0  0  0  0  0  0
    3.6082   -0.2548    1.0427 C   0  0  0  0  0  0  0  0  0  0  0  0
    4.5091   -1.3198    1.0789 C   0  0  0  0  0  0  0  0  0  0  0  0
    5.3366   -1.5702   -0.0142 C   0  0  0  0  0  0  0  0  0  0  0  0
    5.2624   -0.7584   -1.1448 C   0  0  0  0  0  0  0  0  0  0  0  0
    4.3616    0.3074   -1.1832 C   0  0  0  0  0  0  0  0  0  0  0  0
   -1.1032    1.1582   -0.6715 N   0  0  0  0  0  0  0  0  0  0  0  0
   -2.3877    1.7391   -1.0866 C   0  0  0  0  0  0  0  0  0  0  0  0
   -3.4541    1.4974   -0.0225 C   0  0  0  0  0  0  0  0  0  0  0  0
   -3.5515    0.0282    0.3055 C   0  0  0  0  0  0  0  0  0  0  0  0
   -4.7288   -0.4896    0.8619 C   0  0  0  0  0  0  0  0  0  0  0  0
   -4.8211   -1.8435    1.1815 C   0  0  0  0  0  0  0  0  0  0  0  0
   -3.7371   -2.6882    0.9561 C   0  0  0  0  0  0  0  0  0  0  0  0
   -2.5556   -2.1789    0.4166 C   0  0  0  0  0  0  0  0  0  0  0  0
   -2.4455   -0.8171    0.0945 C   0  0  0  0  0  0  0  0  0  0  0  0
   -1.1430   -0.2998   -0.4834 C   0  0  0  0  0  0  0  0  0  0  0  0
    1.1866    0.3685   -0.9736 H   0  0  0  0  0  0  0  0  0  0  0  0
    2.7935    2.4174   -0.9221 H   0  0  0  0  0  0  0  0  0  0  0  0
    2.5449    2.2481    0.8222 H   0  0  0  0  0  0  0  0  0  0  0  0
    2.9617   -0.0716    1.8990 H   0  0  0  0  0  0  0  0  0  0  0  0
    4.5650   -1.9538    1.9600 H   0  0  0  0  0  0  0  0  0  0  0  0
    6.0395   -2.3988    0.0150 H   0  0  0  0  0  0  0  0  0  0  0  0
    5.9073   -0.9553   -1.9974 H   0  0  0  0  0  0  0  0  0  0  0  0
    4.3138    0.9297   -2.0742 H   0  0  0  0  0  0  0  0  0  0  0  0
   -2.6678    1.2507   -2.0295 H   0  0  0  0  0  0  0  0  0  0  0  0
   -2.3096    2.8063   -1.3066 H   0  0  0  0  0  0  0  0  0  0  0  0
   -4.4175    1.8671   -0.3917 H   0  0  0  0  0  0  0  0  0  0  0  0
   -3.2060    2.0427    0.8959 H   0  0  0  0  0  0  0  0  0  0  0  0
   -5.5805    0.1608    1.0479 H   0  0  0  0  0  0  0  0  0  0  0  0
   -5.7387   -2.2388    1.6093 H   0  0  0  0  0  0  0  0  0  0  0  0
   -3.8100   -3.7433    1.2064 H   0  0  0  0  0  0  0  0  0  0  0  0
   -1.7154   -2.8507    0.2544 H   0  0  0  0  0  0  0  0  0  0  0  0
   -0.3317   -0.6138    0.1820 H   0  0  0  0  0  0  0  0  0  0  0  0
   -0.9869   -0.7502   -1.4707 H   0  0  0  0  0  0  0  0  0  0  0  0
  1  2  2  0
  2  3  1  0
  3  4  1  0
  4  5  1  0
  5  6  2  0
  6  7  1  0
  7  8  2  0
  8  9  1  0
  9 10  2  0
  2 11  1  0
 11 12  1  0
 12 13  1  0
 13 14  1  0
 14 15  2  0
 15 16  1  0
 16 17  2  0
 17 18  1  0
 18 19  2  0
 19 20  1  0
 10  5  1  0
 20 11  1  0
 19 14  1  0
  3 21  1  0
  4 22  1  0
  4 23  1  0
  6 24  1  0
  7 25  1  0
  8 26  1  0
  9 27  1  0
 10 28  1  0
 12 29  1  0
 12 30  1  0
 13 31  1  0
 13 32  1  0
 15 33  1  0
 16 34  1  0
 17 35  1  0
 18 36  1  0
 20 37  1  0
 20 38  1  0
M  END
$$$$
