
     RDKit          3D

 61 64  0  0  0  0  0  0  0  0999 V2000
    6.7515    2.2839   -2.9284 C   0  0  0  0  0  0  0  0  0  0  0  0
    6.2973    2.9760   -1.7689 O   0  0  0  0  0  0  0  0  0  0  0  0
    5.4000    2.1990   -1.0782 C   0  0  0  0  0  0  0  0  0  0  0  0
    4.0438    2.4394   -1.2884 C   0  0  0  0  0  0  0  0  0  0  0  0
    3.0943    1.7105   -0.5761 C   0  0  0  0  0  0  0  0  0  0  0  0
    3.4956    0.7487    0.3564 C   0  0  0  0  0  0  0  0  0  0  0  0
    2.4754    0.0811    1.0606 N   0  0  0  0  0  0  0  0  0  0  0  0
    2.5982   -0.9690    1.9509 C   0  0  0  0  0  0  0  0  0  0  0  0
    3.6359   -1.5754    2.2160 O   0  0  0  0  0  0  0  0  0  0  0  0
    1.2998   -1.3240    2.6611 C   0  0  0  0  0  0  0  0  0  0  0  0
    0.1860   -2.2992    1.6107 S   0  0  0  0  0  0  0  0  0  0  0  0
   -0.7394   -1.0468    0.8597 C   0  0  0  0  0  0  0  0  0  0  0  0
   -0.2391    0.1359    0.5916 N   0  0  0  0  0  0  0  0  0  0  0  0
   -1.1774    0.8464   -0.0952 N   0  0  0  0  0  0  0  0  0  0  0  0
   -2.2618    0.1002   -0.2177 C   0  0  0  0  0  0  0  0  0  0  0  0
   -3.5771    0.5781   -0.7566 C   0  0  0  0  0  0  0  0  0  0  0  0
   -3.9186    1.9710   -0.3122 C   0  0  0  0  0  0  0  0  0  0  0  0
   -4.5961    2.3797    0.8264 C   0  0  0  0  0  0  0  0  0  0  0  0
   -4.6897    3.7920    0.7911 C   0  0  0  0  0  0  0  0  0  0  0  0
   -4.0649    4.2139   -0.3545 C   0  0  0  0  0  0  0  0  0  0  0  0
   -3.5790    3.1115   -1.0132 N   0  0  0  0  0  0  0  0  0  0  0  0
   -2.8174    3.1694   -2.2467 C   0  0  0  0  0  0  0  0  0  0  0  0
   -2.0106   -1.1680    0.3163 N   0  0  0  0  0  0  0  0  0  0  0  0
   -2.8727   -2.2983    0.2844 C   0  0  0  0  0  0  0  0  0  0  0  0
   -3.6076   -2.5813   -0.8780 C   0  0  0  0  0  0  0  0  0  0  0  0
   -4.4596   -3.6866   -0.9211 C   0  0  0  0  0  0  0  0  0  0  0  0
   -4.5926   -4.5218    0.1909 C   0  0  0  0  0  0  0  0  0  0  0  0
   -5.4975   -5.7182    0.1324 C   0  0  0  0  0  0  0  0  0  0  0  0
   -3.8489   -4.2430    1.3408 C   0  0  0  0  0  0  0  0  0  0  0  0
   -2.9953   -3.1371    1.3921 C   0  0  0  0  0  0  0  0  0  0  0  0
    4.8597    0.5255    0.5695 C   0  0  0  0  0  0  0  0  0  0  0  0
    5.8248    1.2542   -0.1359 C   0  0  0  0  0  0  0  0  0  0  0  0
    7.1798    1.1349    0.0416 O   0  0  0  0  0  0  0  0  0  0  0  0
    7.6298    0.1881    1.0028 C   0  0  0  0  0  0  0  0  0  0  0  0
    7.3072    1.3792   -2.6694 H   0  0  0  0  0  0  0  0  0  0  0  0
    7.4296    2.9524   -3.4673 H   0  0  0  0  0  0  0  0  0  0  0  0
    5.9188    2.0346   -3.5921 H   0  0  0  0  0  0  0  0  0  0  0  0
    3.7308    3.1936   -2.0033 H   0  0  0  0  0  0  0  0  0  0  0  0
    2.0389    1.9019   -0.7628 H   0  0  0  0  0  0  0  0  0  0  0  0
    1.5210    0.3775    0.8419 H   0  0  0  0  0  0  0  0  0  0  0  0
    0.8144   -0.4198    3.0455 H   0  0  0  0  0  0  0  0  0  0  0  0
    1.5574   -1.9330    3.5333 H   0  0  0  0  0  0  0  0  0  0  0  0
   -3.5622    0.5182   -1.8464 H   0  0  0  0  0  0  0  0  0  0  0  0
   -4.3994   -0.0650   -0.4254 H   0  0  0  0  0  0  0  0  0  0  0  0
   -4.9795    1.7272    1.5994 H   0  0  0  0  0  0  0  0  0  0  0  0
   -5.1567    4.4300    1.5267 H   0  0  0  0  0  0  0  0  0  0  0  0
   -3.9163    5.2119   -0.7529 H   0  0  0  0  0  0  0  0  0  0  0  0
   -2.6302    4.2120   -2.5116 H   0  0  0  0  0  0  0  0  0  0  0  0
   -1.8630    2.6576   -2.1009 H   0  0  0  0  0  0  0  0  0  0  0  0
   -3.4037    2.6888   -3.0369 H   0  0  0  0  0  0  0  0  0  0  0  0
   -3.5095   -1.9868   -1.7832 H   0  0  0  0  0  0  0  0  0  0  0  0
   -5.0146   -3.8991   -1.8340 H   0  0  0  0  0  0  0  0  0  0  0  0
   -6.4674   -5.4405   -0.2992 H   0  0  0  0  0  0  0  0  0  0  0  0
   -5.0406   -6.5029   -0.4812 H   0  0  0  0  0  0  0  0  0  0  0  0
   -5.6853   -6.1236    1.1344 H   0  0  0  0  0  0  0  0  0  0  0  0
   -3.9346   -4.8820    2.2147 H   0  0  0  0  0  0  0  0  0  0  0  0
   -2.4763   -2.9373    2.3257 H   0  0  0  0  0  0  0  0  0  0  0  0
    5.1687   -0.2010    1.3104 H   0  0  0  0  0  0  0  0  0  0  0  0
    7.3140   -0.8278    0.7329 H   0  0  0  0  0  0  0  0  0  0  0  0
    7.2891    0.4579    2.0095 H   0  0  0  0  0  0  0  0  0  0  0  0
    8.7225    0.2053    1.0039 H   0  0  0  0  0  0  0  0  0  0  0  0
  1  2  1  0
  2  3  1  0
  3  4  2  0
  4  5  1  0
  5  6  2  0
  6  7  1  0
  7  8  1  0
  8  9  2  0
  8 10  1  0
 10 11  1  0
 11 12  1  0
 12 13  2  0
 13 14  1  0
 14 15  2  0
 15 16  1  0
 16 17  1  0
 17 18  2  0
 18 19  1  0
 19 20  2  0
 20 21  1  0
 21 22  1  0
 15 23  1  0
 23 24  1  0
 24 25  2  0
 25 26  1  0
 26 27  2  0
 27 28  1  0
 27 29  1  0
 29 30  2  0
  6 31  1  0
 31 32  2  0
 32 33  1  0
 33 34  1  0
 32  3  1  0
 23 12  1  0
 30 24  1  0
 21 17  1  0
  1 35  1  0
  1 36  1  0
  1 37  1  0
  4 38  1  0
  5 39  1  0
  7 40  1  0
 10 41  1  0
 10 42  1  0
 16 43  1  0
 16 44  1  0
 18 45  1  0
 19 46  1  0
 20 47  1  0
 22 48  1  0
 22 49  1  0
 22 50  1  0
 25 51  1  0
 26 52  1  0
 28 53  1  0
 28 54  1  0
 28 55  1  0
 29 56  1  0
 30 57  1  0
 31 58  1  0
 34 59  1  0
 34 60  1  0
 34 61  1  0
M  END
$$$$
