
     RDKit          3D

 45 47  0  0  0  0  0  0  0  0999 V2000
   -7.9142   -1.5017   -0.4815 C   0  0  0  0  0  0  0  0  0  0  0  0
   -6.7452   -0.5501   -0.2752 C   0  0  0  0  0  0  0  0  0  0  0  0
   -5.8661   -1.1369    0.6987 O   0  0  0  0  0  0  0  0  0  0  0  0
   -4.5583   -0.9287    0.3426 C   0  0  0  0  0  0  0  0  0  0  0  0
   -3.9264   -1.9123   -0.4189 C   0  0  0  0  0  0  0  0  0  0  0  0
   -2.5944   -1.7445   -0.7933 C   0  0  0  0  0  0  0  0  0  0  0  0
   -1.8914   -0.6028   -0.3907 C   0  0  0  0  0  0  0  0  0  0  0  0
   -0.5030   -0.4290   -0.8287 C   0  0  0  0  0  0  0  0  0  0  0  0
    0.5838   -0.5314   -0.0517 C   0  0  0  0  0  0  0  0  0  0  0  0
    0.6540   -0.8947    1.6340 S   0  0  0  0  0  0  0  0  0  0  0  0
    2.4188   -0.8910    1.6667 C   0  0  0  0  0  0  0  0  0  0  0  0
    3.3114   -1.2883    3.0188 S   0  0  0  0  0  0  0  0  0  0  0  0
    2.8766   -0.5587    0.4086 N   0  0  0  0  0  0  0  0  0  0  0  0
    4.2463   -0.4488    0.0986 N   0  0  0  0  0  0  0  0  0  0  0  0
    4.8250    0.7912    0.3094 C   0  0  0  0  0  0  0  0  0  0  0  0
    4.2748    1.7098    0.9034 O   0  0  0  0  0  0  0  0  0  0  0  0
    6.1812    0.9762   -0.2686 C   0  0  0  0  0  0  0  0  0  0  0  0
    7.0704   -0.0939   -0.4065 C   0  0  0  0  0  0  0  0  0  0  0  0
    8.3117    0.1696   -0.9567 C   0  0  0  0  0  0  0  0  0  0  0  0
    8.7054    1.3970   -1.3635 N   0  0  0  0  0  0  0  0  0  0  0  0
    7.8323    2.4165   -1.1965 C   0  0  0  0  0  0  0  0  0  0  0  0
    6.5709    2.2604   -0.6539 C   0  0  0  0  0  0  0  0  0  0  0  0
    1.9556   -0.3819   -0.6087 C   0  0  0  0  0  0  0  0  0  0  0  0
    2.2158   -0.1974   -1.7925 O   0  0  0  0  0  0  0  0  0  0  0  0
   -2.5284    0.3700    0.3964 C   0  0  0  0  0  0  0  0  0  0  0  0
   -3.8628    0.2050    0.7824 C   0  0  0  0  0  0  0  0  0  0  0  0
   -4.5670    1.1054    1.5375 O   0  0  0  0  0  0  0  0  0  0  0  0
   -3.7946    1.9217    2.4123 C   0  0  0  0  0  0  0  0  0  0  0  0
   -8.6090   -1.1165   -1.2369 H   0  0  0  0  0  0  0  0  0  0  0  0
   -7.5529   -2.4884   -0.8023 H   0  0  0  0  0  0  0  0  0  0  0  0
   -8.4592   -1.6511    0.4564 H   0  0  0  0  0  0  0  0  0  0  0  0
   -6.2540   -0.3731   -1.2416 H   0  0  0  0  0  0  0  0  0  0  0  0
   -7.1113    0.4113    0.1121 H   0  0  0  0  0  0  0  0  0  0  0  0
   -4.4753   -2.7997   -0.7220 H   0  0  0  0  0  0  0  0  0  0  0  0
   -2.1134   -2.5102   -1.3981 H   0  0  0  0  0  0  0  0  0  0  0  0
   -0.3894   -0.2252   -1.8931 H   0  0  0  0  0  0  0  0  0  0  0  0
    4.5243   -0.9618   -0.7312 H   0  0  0  0  0  0  0  0  0  0  0  0
    6.8319   -1.1000   -0.0742 H   0  0  0  0  0  0  0  0  0  0  0  0
    9.0495   -0.6209   -1.0833 H   0  0  0  0  0  0  0  0  0  0  0  0
    8.1888    3.3926   -1.5207 H   0  0  0  0  0  0  0  0  0  0  0  0
    5.9093    3.1150   -0.5391 H   0  0  0  0  0  0  0  0  0  0  0  0
   -1.9737    1.2581    0.6840 H   0  0  0  0  0  0  0  0  0  0  0  0
   -4.4775    2.3813    3.1351 H   0  0  0  0  0  0  0  0  0  0  0  0
   -3.3072    2.7272    1.8550 H   0  0  0  0  0  0  0  0  0  0  0  0
   -3.0629    1.3308    2.9764 H   0  0  0  0  0  0  0  0  0  0  0  0
  1  2  1  0
  2  3  1  0
  3  4  1  0
  4  5  2  0
  5  6  1  0
  6  7  2  0
  7  8  1  0
  8  9  2  3
  9 10  1  0
 10 11  1  0
 11 12  2  0
 11 13  1  0
 13 14  1  0
 14 15  1  0
 15 16  2  0
 15 17  1  0
 17 18  2  0
 18 19  1  0
 19 20  2  0
 20 21  1  0
 21 22  2  0
 13 23  1  0
 23 24  2  0
  7 25  1  0
 25 26  2  0
 26 27  1  0
 27 28  1  0
 26  4  1  0
 23  9  1  0
 22 17  1  0
  1 29  1  0
  1 30  1  0
  1 31  1  0
  2 32  1  0
  2 33  1  0
  5 34  1  0
  6 35  1  0
  8 36  1  0
 14 37  1  0
 18 38  1  0
 19 39  1  0
 21 40  1  0
 22 41  1  0
 25 42  1  0
 28 43  1  0
 28 44  1  0
 28 45  1  0
M  END
$$$$
