
     RDKit          3D

 46 48  0  0  0  0  0  0  0  0999 V2000
   -7.0001    1.2706   -0.9373 C   0  0  0  0  0  0  0  0  0  0  0  0
   -6.9597    0.1301   -0.0869 O   0  0  0  0  0  0  0  0  0  0  0  0
   -5.7795   -0.5678   -0.0514 C   0  0  0  0  0  0  0  0  0  0  0  0
   -4.6127   -0.2528   -0.7495 C   0  0  0  0  0  0  0  0  0  0  0  0
   -3.4681   -1.0552   -0.6129 C   0  0  0  0  0  0  0  0  0  0  0  0
   -2.2602   -0.7057   -1.3653 C   0  0  0  0  0  0  0  0  0  0  0  0
   -1.0724   -0.4417   -0.8034 C   0  0  0  0  0  0  0  0  0  0  0  0
   -0.6684   -0.4056    0.6382 C   0  0  0  0  0  0  0  0  0  0  0  0
    0.5918    0.4582    0.6783 C   0  0  0  0  0  0  0  0  0  0  0  0
    1.1652    0.3781   -0.7028 C   0  0  0  0  0  0  0  0  0  0  0  0
    2.4129    0.6010   -1.1385 C   0  0  0  0  0  0  0  0  0  0  0  0
    3.5240    1.0169   -0.2783 C   0  0  0  0  0  0  0  0  0  0  0  0
    3.4690    2.2139    0.4485 C   0  0  0  0  0  0  0  0  0  0  0  0
    4.5403    2.5955    1.2544 C   0  0  0  0  0  0  0  0  0  0  0  0
    5.6630    1.7813    1.3203 C   0  0  0  0  0  0  0  0  0  0  0  0
    6.7012    2.1774    2.1192 O   0  0  0  0  0  0  0  0  0  0  0  0
    5.7494    0.5885    0.5933 C   0  0  0  0  0  0  0  0  0  0  0  0
    6.9218   -0.1043    0.7564 O   0  0  0  0  0  0  0  0  0  0  0  0
    7.0579   -1.3104    0.0132 C   0  0  0  0  0  0  0  0  0  0  0  0
    4.6728    0.2116   -0.2110 C   0  0  0  0  0  0  0  0  0  0  0  0
    0.0993   -0.0681   -1.6343 C   0  0  0  0  0  0  0  0  0  0  0  0
    0.1722   -0.1180   -2.8471 O   0  0  0  0  0  0  0  0  0  0  0  0
   -3.5062   -2.1884    0.2108 C   0  0  0  0  0  0  0  0  0  0  0  0
   -4.6680   -2.5079    0.9116 C   0  0  0  0  0  0  0  0  0  0  0  0
   -5.7865   -1.6966    0.7760 C   0  0  0  0  0  0  0  0  0  0  0  0
   -6.9146   -2.0310    1.4748 O   0  0  0  0  0  0  0  0  0  0  0  0
   -6.8348    0.9898   -1.9827 H   0  0  0  0  0  0  0  0  0  0  0  0
   -6.2818    2.0303   -0.6119 H   0  0  0  0  0  0  0  0  0  0  0  0
   -8.0012    1.7061   -0.8639 H   0  0  0  0  0  0  0  0  0  0  0  0
   -4.5632    0.6137   -1.4012 H   0  0  0  0  0  0  0  0  0  0  0  0
   -2.3790   -0.6483   -2.4466 H   0  0  0  0  0  0  0  0  0  0  0  0
   -0.4362   -1.4209    0.9814 H   0  0  0  0  0  0  0  0  0  0  0  0
   -1.4441    0.0120    1.2878 H   0  0  0  0  0  0  0  0  0  0  0  0
    1.2822    0.0990    1.4480 H   0  0  0  0  0  0  0  0  0  0  0  0
    0.3252    1.4970    0.9069 H   0  0  0  0  0  0  0  0  0  0  0  0
    2.6598    0.4559   -2.1895 H   0  0  0  0  0  0  0  0  0  0  0  0
    2.5978    2.8615    0.3856 H   0  0  0  0  0  0  0  0  0  0  0  0
    4.5043    3.5208    1.8213 H   0  0  0  0  0  0  0  0  0  0  0  0
    7.3784    1.4807    2.0154 H   0  0  0  0  0  0  0  0  0  0  0  0
    6.3022   -2.0444    0.3115 H   0  0  0  0  0  0  0  0  0  0  0  0
    7.0201   -1.1169   -1.0639 H   0  0  0  0  0  0  0  0  0  0  0  0
    8.0410   -1.7335    0.2412 H   0  0  0  0  0  0  0  0  0  0  0  0
    4.6972   -0.7056   -0.7908 H   0  0  0  0  0  0  0  0  0  0  0  0
   -2.6369   -2.8347    0.3058 H   0  0  0  0  0  0  0  0  0  0  0  0
   -4.7044   -3.3835    1.5526 H   0  0  0  0  0  0  0  0  0  0  0  0
   -7.5711   -1.3486    1.2342 H   0  0  0  0  0  0  0  0  0  0  0  0
  1  2  1  0
  2  3  1  0
  3  4  2  0
  4  5  1  0
  5  6  1  0
  6  7  2  3
  7  8  1  0
  8  9  1  0
  9 10  1  0
 10 11  2  3
 11 12  1  0
 12 13  2  0
 13 14  1  0
 14 15  2  0
 15 16  1  0
 15 17  1  0
 17 18  1  0
 18 19  1  0
 17 20  2  0
 10 21  1  0
 21 22  2  0
  5 23  2  0
 23 24  1  0
 24 25  2  0
 25 26  1  0
 25  3  1  0
 21  7  1  0
 20 12  1  0
  1 27  1  0
  1 28  1  0
  1 29  1  0
  4 30  1  0
  6 31  1  0
  8 32  1  0
  8 33  1  0
  9 34  1  0
  9 35  1  0
 11 36  1  0
 13 37  1  0
 14 38  1  0
 16 39  1  0
 19 40  1  0
 19 41  1  0
 19 42  1  0
 20 43  1  0
 23 44  1  0
 24 45  1  0
 26 46  1  0
M  END
$$$$
