
     RDKit          3D

 49 50  0  0  0  0  0  0  0  0999 V2000
    6.9048   -0.8470   -1.6775 C   0  0  0  0  0  0  0  0  0  0  0  0
    5.9310   -1.4374   -0.6763 C   0  0  0  0  0  0  0  0  0  0  0  0
    4.7360   -0.6507   -0.7025 O   0  0  0  0  0  0  0  0  0  0  0  0
    3.7647   -1.0679    0.1624 C   0  0  0  0  0  0  0  0  0  0  0  0
    3.8955   -2.0382    0.9017 O   0  0  0  0  0  0  0  0  0  0  0  0
    2.5517   -0.2370    0.1071 C   0  0  0  0  0  0  0  0  0  0  0  0
    2.3398    1.0109   -0.5824 C   0  0  0  0  0  0  0  0  0  0  0  0
    3.3440    1.7485   -1.4053 C   0  0  0  0  0  0  0  0  0  0  0  0
    1.0319    1.4082   -0.3376 C   0  0  0  0  0  0  0  0  0  0  0  0
    0.2940    2.6099   -0.8298 C   0  0  0  0  0  0  0  0  0  0  0  0
    0.4585    0.4805    0.5103 N   0  0  0  0  0  0  0  0  0  0  0  0
   -0.8779    0.6027    1.1087 C   0  0  0  0  0  0  0  0  0  0  0  0
   -2.0035   -0.0143    0.3029 C   0  0  0  0  0  0  0  0  0  0  0  0
   -1.7961   -0.7412   -0.8789 C   0  0  0  0  0  0  0  0  0  0  0  0
   -2.8700   -1.3020   -1.5686 C   0  0  0  0  0  0  0  0  0  0  0  0
   -4.1706   -1.1641   -1.0833 C   0  0  0  0  0  0  0  0  0  0  0  0
   -4.4141   -0.4561    0.0962 C   0  0  0  0  0  0  0  0  0  0  0  0
   -5.6538   -0.3102    0.6617 O   0  0  0  0  0  0  0  0  0  0  0  0
   -6.7243   -1.0616    0.1050 C   0  0  0  0  0  0  0  0  0  0  0  0
   -3.3277    0.1422    0.7671 C   0  0  0  0  0  0  0  0  0  0  0  0
   -3.4708    0.8453    1.9435 O   0  0  0  0  0  0  0  0  0  0  0  0
   -4.4055    1.9199    1.8513 C   0  0  0  0  0  0  0  0  0  0  0  0
    1.3537   -0.5434    0.7529 C   0  0  0  0  0  0  0  0  0  0  0  0
    1.0164   -1.7385    1.5869 C   0  0  0  0  0  0  0  0  0  0  0  0
    7.1292    0.1954   -1.4280 H   0  0  0  0  0  0  0  0  0  0  0  0
    7.8388   -1.4153   -1.6954 H   0  0  0  0  0  0  0  0  0  0  0  0
    6.4710   -0.8470   -2.6830 H   0  0  0  0  0  0  0  0  0  0  0  0
    6.3713   -1.4104    0.3267 H   0  0  0  0  0  0  0  0  0  0  0  0
    5.6998   -2.4723   -0.9521 H   0  0  0  0  0  0  0  0  0  0  0  0
    4.2703    1.8966   -0.8409 H   0  0  0  0  0  0  0  0  0  0  0  0
    2.9885    2.7406   -1.6972 H   0  0  0  0  0  0  0  0  0  0  0  0
    3.5697    1.1915   -2.3201 H   0  0  0  0  0  0  0  0  0  0  0  0
    0.7582    3.0241   -1.7294 H   0  0  0  0  0  0  0  0  0  0  0  0
   -0.7396    2.3661   -1.0933 H   0  0  0  0  0  0  0  0  0  0  0  0
    0.2855    3.3891   -0.0612 H   0  0  0  0  0  0  0  0  0  0  0  0
   -0.8303    0.1490    2.1051 H   0  0  0  0  0  0  0  0  0  0  0  0
   -1.0609    1.6740    1.2530 H   0  0  0  0  0  0  0  0  0  0  0  0
   -0.7959   -0.8854   -1.2833 H   0  0  0  0  0  0  0  0  0  0  0  0
   -2.6892   -1.8599   -2.4847 H   0  0  0  0  0  0  0  0  0  0  0  0
   -4.9709   -1.6285   -1.6494 H   0  0  0  0  0  0  0  0  0  0  0  0
   -6.9598   -0.7175   -0.9073 H   0  0  0  0  0  0  0  0  0  0  0  0
   -6.5079   -2.1350    0.1198 H   0  0  0  0  0  0  0  0  0  0  0  0
   -7.6089   -0.8927    0.7265 H   0  0  0  0  0  0  0  0  0  0  0  0
   -4.4949    2.3224    0.8357 H   0  0  0  0  0  0  0  0  0  0  0  0
   -5.3814    1.6044    2.2313 H   0  0  0  0  0  0  0  0  0  0  0  0
   -4.0455    2.7267    2.4973 H   0  0  0  0  0  0  0  0  0  0  0  0
    1.4578   -2.6461    1.1638 H   0  0  0  0  0  0  0  0  0  0  0  0
   -0.0598   -1.9221    1.6431 H   0  0  0  0  0  0  0  0  0  0  0  0
    1.3976   -1.6061    2.6042 H   0  0  0  0  0  0  0  0  0  0  0  0
  1  2  1  0
  2  3  1  0
  3  4  1  0
  4  5  2  0
  4  6  1  0
  6  7  1  0
  7  8  1  0
  7  9  2  0
  9 10  1  0
  9 11  1  0
 11 12  1  0
 12 13  1  0
 13 14  2  0
 14 15  1  0
 15 16  2  0
 16 17  1  0
 17 18  1  0
 18 19  1  0
 17 20  2  0
 20 21  1  0
 21 22  1  0
 11 23  1  0
 23 24  1  0
 23  6  2  0
 20 13  1  0
  1 25  1  0
  1 26  1  0
  1 27  1  0
  2 28  1  0
  2 29  1  0
  8 30  1  0
  8 31  1  0
  8 32  1  0
 10 33  1  0
 10 34  1  0
 10 35  1  0
 12 36  1  0
 12 37  1  0
 14 38  1  0
 15 39  1  0
 16 40  1  0
 19 41  1  0
 19 42  1  0
 19 43  1  0
 22 44  1  0
 22 45  1  0
 22 46  1  0
 24 47  1  0
 24 48  1  0
 24 49  1  0
M  END
$$$$
