
     RDKit          3D

 38 39  0  0  0  0  0  0  0  0999 V2000
    0.6947    2.1203   -1.6378 C   0  0  0  0  0  0  0  0  0  0  0  0
    0.6318    0.9772   -0.6460 C   0  0  0  0  0  0  0  0  0  0  0  0
    1.8818    0.4703   -0.0072 C   0  0  0  0  0  0  0  0  0  0  0  0
    3.1271    0.7660   -0.4082 C   0  0  0  0  0  0  0  0  0  0  0  0
    4.3366    0.2384    0.2436 C   0  0  0  0  0  0  0  0  0  0  0  0
    4.4249    0.0632    1.6312 C   0  0  0  0  0  0  0  0  0  0  0  0
    5.6038   -0.4087    2.2152 C   0  0  0  0  0  0  0  0  0  0  0  0
    6.7104   -0.6991    1.4201 C   0  0  0  0  0  0  0  0  0  0  0  0
    6.6413   -0.5131    0.0415 C   0  0  0  0  0  0  0  0  0  0  0  0
    5.4624   -0.0423   -0.5428 C   0  0  0  0  0  0  0  0  0  0  0  0
   -0.4785    0.3844   -0.3025 N   0  0  0  0  0  0  0  0  0  0  0  0
   -1.6240    0.8038   -0.9148 N   0  0  0  0  0  0  0  0  0  0  0  0
   -2.8371    0.1953   -0.5395 C   0  0  0  0  0  0  0  0  0  0  0  0
   -3.7704    0.1247   -1.5068 N   0  0  0  0  0  0  0  0  0  0  0  0
   -4.9484   -0.4529   -1.1946 C   0  0  0  0  0  0  0  0  0  0  0  0
   -5.9863   -0.5176   -2.2734 C   0  0  0  0  0  0  0  0  0  0  0  0
   -5.2214   -0.9429    0.0652 C   0  0  0  0  0  0  0  0  0  0  0  0
   -4.2140   -0.8269    0.9993 C   0  0  0  0  0  0  0  0  0  0  0  0
   -4.4055   -1.3488    2.3917 C   0  0  0  0  0  0  0  0  0  0  0  0
   -3.0262   -0.2635    0.7100 N   0  0  0  0  0  0  0  0  0  0  0  0
    1.6178    2.6950   -1.5473 H   0  0  0  0  0  0  0  0  0  0  0  0
   -0.1294    2.8189   -1.4621 H   0  0  0  0  0  0  0  0  0  0  0  0
    0.6158    1.7198   -2.6529 H   0  0  0  0  0  0  0  0  0  0  0  0
    1.6997   -0.2125    0.8191 H   0  0  0  0  0  0  0  0  0  0  0  0
    3.3130    1.3998   -1.2695 H   0  0  0  0  0  0  0  0  0  0  0  0
    3.5825    0.3007    2.2769 H   0  0  0  0  0  0  0  0  0  0  0  0
    5.6575   -0.5432    3.2925 H   0  0  0  0  0  0  0  0  0  0  0  0
    7.6273   -1.0645    1.8754 H   0  0  0  0  0  0  0  0  0  0  0  0
    7.5054   -0.7337   -0.5803 H   0  0  0  0  0  0  0  0  0  0  0  0
    5.4304    0.0953   -1.6210 H   0  0  0  0  0  0  0  0  0  0  0  0
   -1.6446    0.8440   -1.9307 H   0  0  0  0  0  0  0  0  0  0  0  0
   -6.4615   -1.5027   -2.2920 H   0  0  0  0  0  0  0  0  0  0  0  0
   -6.7506    0.2459   -2.1041 H   0  0  0  0  0  0  0  0  0  0  0  0
   -5.5351   -0.3468   -3.2556 H   0  0  0  0  0  0  0  0  0  0  0  0
   -6.1727   -1.3992    0.3081 H   0  0  0  0  0  0  0  0  0  0  0  0
   -3.5387   -1.1170    3.0181 H   0  0  0  0  0  0  0  0  0  0  0  0
   -4.5327   -2.4357    2.3727 H   0  0  0  0  0  0  0  0  0  0  0  0
   -5.2873   -0.8914    2.8512 H   0  0  0  0  0  0  0  0  0  0  0  0
  1  2  1  0
  2  3  1  0
  3  4  2  3
  4  5  1  0
  5  6  2  0
  6  7  1  0
  7  8  2  0
  8  9  1  0
  9 10  2  0
  2 11  2  3
 11 12  1  0
 12 13  1  0
 13 14  2  0
 14 15  1  0
 15 16  1  0
 15 17  2  0
 17 18  1  0
 18 19  1  0
 18 20  2  0
 10  5  1  0
 20 13  1  0
  1 21  1  0
  1 22  1  0
  1 23  1  0
  3 24  1  0
  4 25  1  0
  6 26  1  0
  7 27  1  0
  8 28  1  0
  9 29  1  0
 10 30  1  0
 12 31  1  0
 16 32  1  0
 16 33  1  0
 16 34  1  0
 17 35  1  0
 19 36  1  0
 19 37  1  0
 19 38  1  0
M  END
$$$$
