
     RDKit          3D

 31 32  0  0  0  0  0  0  0  0999 V2000
    4.9053   -1.1080    1.8847 C   0  0  0  0  0  0  0  0  0  0  0  0
    4.5425   -0.0904    0.4294 S   0  0  0  0  0  0  0  0  0  0  0  0
    2.9093   -0.6822    0.0168 C   0  0  0  0  0  0  0  0  0  0  0  0
    2.6493   -1.0571   -1.3063 C   0  0  0  0  0  0  0  0  0  0  0  0
    1.3801   -1.5021   -1.6803 C   0  0  0  0  0  0  0  0  0  0  0  0
    0.3608   -1.5695   -0.7331 C   0  0  0  0  0  0  0  0  0  0  0  0
    0.6127   -1.1965    0.5852 C   0  0  0  0  0  0  0  0  0  0  0  0
   -0.4574   -1.2254    1.5308 N   0  0  0  0  0  0  0  0  0  0  0  0
   -1.3317    0.2240    1.7074 S   0  0  0  0  0  6  0  0  0  0  0  0
   -2.3530   -0.0208    2.7051 O   0  0  0  0  0  0  0  0  0  0  0  0
   -0.3912    1.3155    1.8670 O   0  0  0  0  0  0  0  0  0  0  0  0
   -2.2178    0.5951    0.2521 C   0  0  0  0  0  0  0  0  0  0  0  0
   -2.5048    1.8624   -0.2193 C   0  0  0  0  0  0  0  0  0  0  0  0
   -3.2145    1.6597   -1.3659 N   0  0  0  0  0  0  0  0  0  0  0  0
   -3.7497    2.6767   -2.2346 C   0  0  0  0  0  0  0  0  0  0  0  0
   -3.3388    0.3128   -1.5554 C   0  0  0  0  0  0  0  0  0  0  0  0
   -2.7471   -0.3661   -0.5983 N   0  0  0  0  0  0  0  0  0  0  0  0
    1.8779   -0.7389    0.9600 C   0  0  0  0  0  0  0  0  0  0  0  0
    4.2694   -0.8265    2.7275 H   0  0  0  0  0  0  0  0  0  0  0  0
    5.9475   -0.9520    2.1758 H   0  0  0  0  0  0  0  0  0  0  0  0
    4.7645   -2.1682    1.6579 H   0  0  0  0  0  0  0  0  0  0  0  0
    3.4342   -1.0027   -2.0579 H   0  0  0  0  0  0  0  0  0  0  0  0
    1.1851   -1.7918   -2.7093 H   0  0  0  0  0  0  0  0  0  0  0  0
   -0.6274   -1.9159   -1.0269 H   0  0  0  0  0  0  0  0  0  0  0  0
   -0.1812   -1.5327    2.4620 H   0  0  0  0  0  0  0  0  0  0  0  0
   -2.2612    2.8427    0.1675 H   0  0  0  0  0  0  0  0  0  0  0  0
   -3.5697    3.6625   -1.7986 H   0  0  0  0  0  0  0  0  0  0  0  0
   -3.2498    2.5997   -3.2034 H   0  0  0  0  0  0  0  0  0  0  0  0
   -4.8243    2.5104   -2.3437 H   0  0  0  0  0  0  0  0  0  0  0  0
   -3.8660   -0.1158   -2.3985 H   0  0  0  0  0  0  0  0  0  0  0  0
    2.0473   -0.3990    1.9772 H   0  0  0  0  0  0  0  0  0  0  0  0
  1  2  1  0
  2  3  1  0
  3  4  2  0
  4  5  1  0
  5  6  2  0
  6  7  1  0
  7  8  1  0
  8  9  1  0
  9 10  2  0
  9 11  2  0
  9 12  1  0
 12 13  2  0
 13 14  1  0
 14 15  1  0
 14 16  1  0
 16 17  2  0
  7 18  2  0
 18  3  1  0
 17 12  1  0
  1 19  1  0
  1 20  1  0
  1 21  1  0
  4 22  1  0
  5 23  1  0
  6 24  1  0
  8 25  1  0
 13 26  1  0
 15 27  1  0
 15 28  1  0
 15 29  1  0
 16 30  1  0
 18 31  1  0
M  END
$$$$
