
     RDKit          3D

 31 32  0  0  0  0  0  0  0  0999 V2000
    2.3650   -1.3747    1.8318 C   0  0  0  0  0  0  0  0  0  0  0  0
    2.5094   -0.0148    1.1639 C   0  0  0  0  0  0  0  0  0  0  0  0
    2.7230   -0.1288   -0.2757 N   0  0  0  0  0  0  0  0  0  0  0  0
    1.8462    0.0880   -1.2994 C   0  0  0  0  0  0  0  0  0  0  0  0
    0.4346    0.3920   -1.1468 C   0  0  0  0  0  0  0  0  0  0  0  0
   -0.2335    1.2042   -2.0477 C   0  0  0  0  0  0  0  0  0  0  0  0
   -1.8804    1.4286   -1.6679 S   0  0  0  0  0  0  0  0  0  0  0  0
   -1.7718    0.4006   -0.3042 C   0  0  0  0  0  0  0  0  0  0  0  0
   -2.9711    0.1001    0.5687 C   0  0  0  0  0  0  0  0  0  0  0  0
   -3.5114    1.3555    1.2549 C   0  0  0  0  0  0  0  0  0  0  0  0
   -4.0743   -0.6285   -0.2001 C   0  0  0  0  0  0  0  0  0  0  0  0
   -0.4853   -0.0858   -0.1541 C   0  0  0  0  0  0  0  0  0  0  0  0
    2.3770    0.0251   -2.4900 N   0  0  0  0  0  0  0  0  0  0  0  0
    3.6872   -0.2662   -2.2598 N   0  0  0  0  0  0  0  0  0  0  0  0
    3.9311   -0.3470   -0.8990 C   0  0  0  0  0  0  0  0  0  0  0  0
    5.4335   -0.6359   -0.2609 S   0  0  0  0  0  0  0  0  0  0  0  0
    2.1401   -1.2515    2.8957 H   0  0  0  0  0  0  0  0  0  0  0  0
    1.5648   -1.9648    1.3761 H   0  0  0  0  0  0  0  0  0  0  0  0
    3.2860   -1.9597    1.7491 H   0  0  0  0  0  0  0  0  0  0  0  0
    3.3619    0.5134    1.6048 H   0  0  0  0  0  0  0  0  0  0  0  0
    1.6257    0.5982    1.3582 H   0  0  0  0  0  0  0  0  0  0  0  0
    0.1821    1.6927   -2.9199 H   0  0  0  0  0  0  0  0  0  0  0  0
   -2.6350   -0.5789    1.3648 H   0  0  0  0  0  0  0  0  0  0  0  0
   -4.3038    1.0945    1.9648 H   0  0  0  0  0  0  0  0  0  0  0  0
   -3.9324    2.0664    0.5357 H   0  0  0  0  0  0  0  0  0  0  0  0
   -2.7201    1.8708    1.8107 H   0  0  0  0  0  0  0  0  0  0  0  0
   -3.6852   -1.5311   -0.6845 H   0  0  0  0  0  0  0  0  0  0  0  0
   -4.8787   -0.9328    0.4784 H   0  0  0  0  0  0  0  0  0  0  0  0
   -4.5181    0.0034   -0.9770 H   0  0  0  0  0  0  0  0  0  0  0  0
   -0.2307   -0.7767    0.6378 H   0  0  0  0  0  0  0  0  0  0  0  0
    4.3638   -0.3562   -3.0083 H   0  0  0  0  0  0  0  0  0  0  0  0
  1  2  1  0
  2  3  1  0
  3  4  1  0
  4  5  1  0
  5  6  2  0
  6  7  1  0
  7  8  1  0
  8  9  1  0
  9 10  1  0
  9 11  1  0
  8 12  2  0
  4 13  2  0
 13 14  1  0
 14 15  1  0
 15 16  2  0
 15  3  1  0
 12  5  1  0
  1 17  1  0
  1 18  1  0
  1 19  1  0
  2 20  1  0
  2 21  1  0
  6 22  1  0
  9 23  1  0
 10 24  1  0
 10 25  1  0
 10 26  1  0
 11 27  1  0
 11 28  1  0
 11 29  1  0
 12 30  1  0
 14 31  1  0
M  END
$$$$
