
     RDKit          3D

 32 34  0  0  0  0  0  0  0  0999 V2000
    5.1718   -1.1094   -0.4029 C   0  0  0  0  0  0  0  0  0  0  0  0
    4.4223    0.1495   -0.0132 C   0  0  0  0  0  0  0  0  0  0  0  0
    3.0191   -0.1268   -0.0824 O   0  0  0  0  0  0  0  0  0  0  0  0
    2.2158    0.8995    0.2741 C   0  0  0  0  0  0  0  0  0  0  0  0
    2.6043    2.0232    0.5819 O   0  0  0  0  0  0  0  0  0  0  0  0
    0.7811    0.5533    0.1710 C   0  0  0  0  0  0  0  0  0  0  0  0
   -0.0981    1.5772    0.0118 C   0  0  0  0  0  0  0  0  0  0  0  0
    0.2351    2.9207   -0.0236 O   0  0  0  0  0  0  0  0  0  0  0  0
   -1.5327    1.3113   -0.1563 C   0  0  0  0  0  0  0  0  0  0  0  0
   -2.5483    2.2508   -0.3319 C   0  0  0  0  0  0  0  0  0  0  0  0
   -3.8895    1.8325   -0.4827 C   0  0  0  0  0  0  0  0  0  0  0  0
   -4.2376    0.4721   -0.4599 C   0  0  0  0  0  0  0  0  0  0  0  0
   -3.2289   -0.4534   -0.2838 C   0  0  0  0  0  0  0  0  0  0  0  0
   -1.9242   -0.0091   -0.1441 C   0  0  0  0  0  0  0  0  0  0  0  0
   -1.0444   -1.0594    0.0312 N   0  0  0  0  0  0  0  0  0  0  0  0
    0.2992   -0.8773    0.2390 C   0  0  0  0  0  0  0  0  0  0  0  0
    1.0469   -1.8183    0.4893 O   0  0  0  0  0  0  0  0  0  0  0  0
   -1.7938   -2.3156    0.0624 C   0  0  0  0  0  0  0  0  0  0  0  0
   -3.2733   -1.9496   -0.2189 C   0  0  0  0  0  0  0  0  0  0  0  0
    4.8960   -1.4245   -1.4147 H   0  0  0  0  0  0  0  0  0  0  0  0
    6.2527   -0.9476   -0.3655 H   0  0  0  0  0  0  0  0  0  0  0  0
    4.9140   -1.9348    0.2689 H   0  0  0  0  0  0  0  0  0  0  0  0
    4.6928    0.4408    1.0079 H   0  0  0  0  0  0  0  0  0  0  0  0
    4.6727    0.9599   -0.7068 H   0  0  0  0  0  0  0  0  0  0  0  0
    1.1838    3.0220    0.2114 H   0  0  0  0  0  0  0  0  0  0  0  0
   -2.3138    3.3127   -0.3543 H   0  0  0  0  0  0  0  0  0  0  0  0
   -4.6664    2.5826   -0.6193 H   0  0  0  0  0  0  0  0  0  0  0  0
   -5.2720    0.1653   -0.5772 H   0  0  0  0  0  0  0  0  0  0  0  0
   -1.3870   -3.0006   -0.6891 H   0  0  0  0  0  0  0  0  0  0  0  0
   -1.6697   -2.7751    1.0495 H   0  0  0  0  0  0  0  0  0  0  0  0
   -3.9246   -2.3004    0.5870 H   0  0  0  0  0  0  0  0  0  0  0  0
   -3.6036   -2.3715   -1.1732 H   0  0  0  0  0  0  0  0  0  0  0  0
  1  2  1  0
  2  3  1  0
  3  4  1  0
  4  5  2  0
  4  6  1  0
  6  7  2  0
  7  8  1  0
  7  9  1  0
  9 10  2  0
 10 11  1  0
 11 12  2  0
 12 13  1  0
 13 14  2  0
 14 15  1  0
 15 16  1  0
 16 17  2  0
 15 18  1  0
 18 19  1  0
 16  6  1  0
 14  9  1  0
 19 13  1  0
  1 20  1  0
  1 21  1  0
  1 22  1  0
  2 23  1  0
  2 24  1  0
  8 25  1  0
 10 26  1  0
 11 27  1  0
 12 28  1  0
 18 29  1  0
 18 30  1  0
 19 31  1  0
 19 32  1  0
M  END
$$$$
