
     RDKit          3D

 47 50  0  0  0  0  0  0  0  0999 V2000
   -2.6215   -3.3587    1.4747 C   0  0  0  0  0  0  0  0  0  0  0  0
   -1.5051   -2.3735    1.2771 C   0  0  0  0  0  0  0  0  0  0  0  0
   -0.2876   -2.7540    1.5488 N   0  0  0  0  0  0  0  0  0  0  0  0
    0.7949   -1.8840    1.3846 N   0  0  0  0  0  0  0  0  0  0  0  0
    2.1096   -2.4138    1.7181 C   0  0  0  0  0  0  0  0  0  0  0  0
    2.8904   -2.6934    0.4356 C   0  0  0  0  0  0  0  0  0  0  0  0
    2.8005   -3.7488   -0.1860 O   0  0  0  0  0  0  0  0  0  0  0  0
    3.6549   -1.6287    0.0019 N   0  0  0  0  0  0  0  0  0  0  0  0
    4.3016   -1.6823   -1.2874 C   0  0  0  0  0  0  0  0  0  0  0  0
    5.1899   -0.4880   -1.4221 C   0  0  0  0  0  0  0  0  0  0  0  0
    4.8291    0.8161   -1.7056 C   0  0  0  0  0  0  0  0  0  0  0  0
    5.9531    1.6911   -1.7575 C   0  0  0  0  0  0  0  0  0  0  0  0
    7.1339    1.0272   -1.5129 C   0  0  0  0  0  0  0  0  0  0  0  0
    6.8851   -0.6391   -1.2197 S   0  0  0  0  0  0  0  0  0  0  0  0
    0.7004   -0.5432    0.9662 C   0  0  0  0  0  0  0  0  0  0  0  0
    1.6803    0.1944    0.8525 O   0  0  0  0  0  0  0  0  0  0  0  0
   -0.6651   -0.1425    0.6613 C   0  0  0  0  0  0  0  0  0  0  0  0
   -1.0546    1.0443    0.1932 N   0  0  0  0  0  0  0  0  0  0  0  0
   -2.4133    0.9693    0.1236 N   0  0  0  0  0  0  0  0  0  0  0  0
   -3.1482    2.1633   -0.1589 C   0  0  0  0  0  0  0  0  0  0  0  0
   -2.4629    3.2697   -0.6915 C   0  0  0  0  0  0  0  0  0  0  0  0
   -3.1406    4.4559   -0.9830 C   0  0  0  0  0  0  0  0  0  0  0  0
   -4.5053    4.5577   -0.7325 C   0  0  0  0  0  0  0  0  0  0  0  0
   -5.1896    3.4784   -0.1777 C   0  0  0  0  0  0  0  0  0  0  0  0
   -4.5153    2.2876    0.1155 C   0  0  0  0  0  0  0  0  0  0  0  0
   -2.8533   -0.3404    0.3588 C   0  0  0  0  0  0  0  0  0  0  0  0
   -4.2307   -0.8320    0.0952 C   0  0  0  0  0  0  0  0  0  0  0  0
   -1.7366   -1.0306    0.8012 C   0  0  0  0  0  0  0  0  0  0  0  0
   -2.2689   -4.2215    2.0481 H   0  0  0  0  0  0  0  0  0  0  0  0
   -2.9740   -3.7107    0.5016 H   0  0  0  0  0  0  0  0  0  0  0  0
   -3.4467   -2.8933    2.0208 H   0  0  0  0  0  0  0  0  0  0  0  0
    2.6512   -1.6921    2.3394 H   0  0  0  0  0  0  0  0  0  0  0  0
    2.0109   -3.3448    2.2866 H   0  0  0  0  0  0  0  0  0  0  0  0
    3.3687   -0.7076    0.3335 H   0  0  0  0  0  0  0  0  0  0  0  0
    4.8477   -2.6277   -1.3811 H   0  0  0  0  0  0  0  0  0  0  0  0
    3.5224   -1.6688   -2.0597 H   0  0  0  0  0  0  0  0  0  0  0  0
    3.8030    1.1293   -1.8631 H   0  0  0  0  0  0  0  0  0  0  0  0
    5.8955    2.7523   -1.9627 H   0  0  0  0  0  0  0  0  0  0  0  0
    8.1339    1.4378   -1.4889 H   0  0  0  0  0  0  0  0  0  0  0  0
   -1.3948    3.2197   -0.8990 H   0  0  0  0  0  0  0  0  0  0  0  0
   -2.5979    5.2992   -1.4027 H   0  0  0  0  0  0  0  0  0  0  0  0
   -5.0322    5.4817   -0.9559 H   0  0  0  0  0  0  0  0  0  0  0  0
   -6.2508    3.5683    0.0410 H   0  0  0  0  0  0  0  0  0  0  0  0
   -5.0853    1.5040    0.5992 H   0  0  0  0  0  0  0  0  0  0  0  0
   -4.2211   -1.8873   -0.1914 H   0  0  0  0  0  0  0  0  0  0  0  0
   -4.7002   -0.3079   -0.7428 H   0  0  0  0  0  0  0  0  0  0  0  0
   -4.8557   -0.7329    0.9874 H   0  0  0  0  0  0  0  0  0  0  0  0
  1  2  1  0
  2  3  2  0
  3  4  1  0
  4  5  1  0
  5  6  1  0
  6  7  2  0
  6  8  1  0
  8  9  1  0
  9 10  1  0
 10 11  2  0
 11 12  1  0
 12 13  2  0
 13 14  1  0
  4 15  1  0
 15 16  2  0
 15 17  1  0
 17 18  2  0
 18 19  1  0
 19 20  1  0
 20 21  2  0
 21 22  1  0
 22 23  2  0
 23 24  1  0
 24 25  2  0
 19 26  1  0
 26 27  1  0
 26 28  2  0
 28  2  1  0
 14 10  1  0
 28 17  1  0
 25 20  1  0
  1 29  1  0
  1 30  1  0
  1 31  1  0
  5 32  1  0
  5 33  1  0
  8 34  1  0
  9 35  1  0
  9 36  1  0
 11 37  1  0
 12 38  1  0
 13 39  1  0
 21 40  1  0
 22 41  1  0
 23 42  1  0
 24 43  1  0
 25 44  1  0
 27 45  1  0
 27 46  1  0
 27 47  1  0
M  END
$$$$
