
     RDKit          3D

 64 69  0  0  0  0  0  0  0  0999 V2000
   -3.4054    4.8860    3.3065 C   0  0  0  0  0  0  0  0  0  0  0  0
   -3.1171    4.6802    1.9292 O   0  0  0  0  0  0  0  0  0  0  0  0
   -3.2921    3.4140    1.4434 C   0  0  0  0  0  0  0  0  0  0  0  0
   -3.6945    2.3001    2.1793 C   0  0  0  0  0  0  0  0  0  0  0  0
   -3.8342    1.0553    1.5525 C   0  0  0  0  0  0  0  0  0  0  0  0
   -3.5772    0.9076    0.1825 C   0  0  0  0  0  0  0  0  0  0  0  0
   -3.7145   -0.4002   -0.4737 C   0  0  0  0  0  0  0  0  0  0  0  0
   -5.2561   -1.1438   -0.4851 S   0  0  0  0  0  0  0  0  0  0  0  0
   -4.7016   -2.5060   -1.3727 C   0  0  0  0  0  0  0  0  0  0  0  0
   -5.4800   -3.6137   -1.7760 C   0  0  0  0  0  0  0  0  0  0  0  0
   -4.8272   -4.6051   -2.4788 C   0  0  0  0  0  0  0  0  0  0  0  0
   -3.4943   -4.5322   -2.7764 C   0  0  0  0  0  0  0  0  0  0  0  0
   -2.7150   -3.4585   -2.3925 C   0  0  0  0  0  0  0  0  0  0  0  0
   -3.3336   -2.4007   -1.6682 C   0  0  0  0  0  0  0  0  0  0  0  0
   -2.7761   -1.1695   -1.1454 C   0  0  0  0  0  0  0  0  0  0  0  0
   -1.3849   -0.7471   -1.2811 C   0  0  0  0  0  0  0  0  0  0  0  0
   -0.8797   -0.4016   -2.5375 C   0  0  0  0  0  0  0  0  0  0  0  0
    0.4536   -0.0064   -2.6688 C   0  0  0  0  0  0  0  0  0  0  0  0
    1.2981    0.0432   -1.5559 C   0  0  0  0  0  0  0  0  0  0  0  0
    2.5728    0.4492   -1.8336 O   0  0  0  0  0  0  0  0  0  0  0  0
    3.5606    0.3649   -0.8015 C   0  0  0  0  0  0  0  0  0  0  0  0
    3.6144    1.6717    0.0114 C   0  0  0  0  0  0  0  0  0  0  0  0
    4.6226    1.7486    1.0769 N   0  0  0  0  0  0  0  0  0  0  0  0
    4.3190    0.8959    2.2284 C   0  0  0  0  0  0  0  0  0  0  0  0
    5.4891    0.8475    3.2087 C   0  0  0  0  0  0  0  0  0  0  0  0
    6.7427    0.2601    2.5600 C   0  0  0  0  0  0  0  0  0  0  0  0
    6.7448    0.4187    1.0399 C   0  0  0  0  0  0  0  0  0  0  0  0
    6.0091    1.6848    0.6046 C   0  0  0  0  0  0  0  0  0  0  0  0
    0.7918   -0.2970   -0.3014 C   0  0  0  0  0  0  0  0  0  0  0  0
   -0.5436   -0.6950   -0.1648 C   0  0  0  0  0  0  0  0  0  0  0  0
   -3.0552   -5.6158   -3.4727 O   0  0  0  0  0  0  0  0  0  0  0  0
   -4.2726   -6.3819   -3.5779 C   0  0  0  0  0  0  0  0  0  0  0  0
   -5.4034   -5.7456   -2.9480 O   0  0  0  0  0  0  0  0  0  0  0  0
   -3.1721    2.0298   -0.5488 C   0  0  0  0  0  0  0  0  0  0  0  0
   -3.0305    3.2707    0.0793 C   0  0  0  0  0  0  0  0  0  0  0  0
   -2.7378    4.2951    3.9425 H   0  0  0  0  0  0  0  0  0  0  0  0
   -4.4565    4.6697    3.5269 H   0  0  0  0  0  0  0  0  0  0  0  0
   -3.2292    5.9426    3.5308 H   0  0  0  0  0  0  0  0  0  0  0  0
   -3.9071    2.3606    3.2412 H   0  0  0  0  0  0  0  0  0  0  0  0
   -4.1425    0.1985    2.1479 H   0  0  0  0  0  0  0  0  0  0  0  0
   -6.5363   -3.6820   -1.5441 H   0  0  0  0  0  0  0  0  0  0  0  0
   -1.6582   -3.4303   -2.6378 H   0  0  0  0  0  0  0  0  0  0  0  0
   -1.5165   -0.4312   -3.4183 H   0  0  0  0  0  0  0  0  0  0  0  0
    0.8397    0.2637   -3.6492 H   0  0  0  0  0  0  0  0  0  0  0  0
    3.4252   -0.5286   -0.1829 H   0  0  0  0  0  0  0  0  0  0  0  0
    4.5160    0.2231   -1.3189 H   0  0  0  0  0  0  0  0  0  0  0  0
    3.7731    2.5061   -0.6855 H   0  0  0  0  0  0  0  0  0  0  0  0
    2.6268    1.8795    0.4419 H   0  0  0  0  0  0  0  0  0  0  0  0
    4.0822   -0.1297    1.9215 H   0  0  0  0  0  0  0  0  0  0  0  0
    3.4366    1.2907    2.7461 H   0  0  0  0  0  0  0  0  0  0  0  0
    5.2198    0.2584    4.0930 H   0  0  0  0  0  0  0  0  0  0  0  0
    5.7053    1.8622    3.5671 H   0  0  0  0  0  0  0  0  0  0  0  0
    6.8287   -0.8054    2.8053 H   0  0  0  0  0  0  0  0  0  0  0  0
    7.6271    0.7460    2.9901 H   0  0  0  0  0  0  0  0  0  0  0  0
    6.2673   -0.4568    0.5812 H   0  0  0  0  0  0  0  0  0  0  0  0
    7.7780    0.4361    0.6731 H   0  0  0  0  0  0  0  0  0  0  0  0
    6.0767    1.7957   -0.4846 H   0  0  0  0  0  0  0  0  0  0  0  0
    6.5388    2.5529    1.0178 H   0  0  0  0  0  0  0  0  0  0  0  0
    1.3999   -0.2558    0.5959 H   0  0  0  0  0  0  0  0  0  0  0  0
   -0.9207   -0.9597    0.8205 H   0  0  0  0  0  0  0  0  0  0  0  0
   -4.5015   -6.5342   -4.6389 H   0  0  0  0  0  0  0  0  0  0  0  0
   -4.1131   -7.3597   -3.1086 H   0  0  0  0  0  0  0  0  0  0  0  0
   -2.9647    1.9503   -1.6134 H   0  0  0  0  0  0  0  0  0  0  0  0
   -2.7145    4.1340   -0.5020 H   0  0  0  0  0  0  0  0  0  0  0  0
  1  2  1  0
  2  3  1  0
  3  4  2  0
  4  5  1  0
  5  6  2  0
  6  7  1  0
  7  8  1  0
  8  9  1  0
  9 10  2  0
 10 11  1  0
 11 12  2  0
 12 13  1  0
 13 14  2  0
 14 15  1  0
 15 16  1  0
 16 17  2  0
 17 18  1  0
 18 19  2  0
 19 20  1  0
 20 21  1  0
 21 22  1  0
 22 23  1  0
 23 24  1  0
 24 25  1  0
 25 26  1  0
 26 27  1  0
 27 28  1  0
 19 29  1  0
 29 30  2  0
 12 31  1  0
 31 32  1  0
 32 33  1  0
  6 34  1  0
 34 35  2  0
 35  3  1  0
 15  7  2  0
 30 16  1  0
 14  9  1  0
 28 23  1  0
 33 11  1  0
  1 36  1  0
  1 37  1  0
  1 38  1  0
  4 39  1  0
  5 40  1  0
 10 41  1  0
 13 42  1  0
 17 43  1  0
 18 44  1  0
 21 45  1  0
 21 46  1  0
 22 47  1  0
 22 48  1  0
 24 49  1  0
 24 50  1  0
 25 51  1  0
 25 52  1  0
 26 53  1  0
 26 54  1  0
 27 55  1  0
 27 56  1  0
 28 57  1  0
 28 58  1  0
 29 59  1  0
 30 60  1  0
 32 61  1  0
 32 62  1  0
 34 63  1  0
 35 64  1  0
M  END
$$$$
