
     RDKit          3D

 50 53  0  0  0  0  0  0  0  0999 V2000
    8.4578    1.8232    0.5338 C   0  0  0  0  0  0  0  0  0  0  0  0
    7.2048    2.3165    0.9924 O   0  0  0  0  0  0  0  0  0  0  0  0
    6.0960    1.5924    0.6543 C   0  0  0  0  0  0  0  0  0  0  0  0
    6.0768    0.4204   -0.0952 C   0  0  0  0  0  0  0  0  0  0  0  0
    4.8603   -0.2227   -0.3636 C   0  0  0  0  0  0  0  0  0  0  0  0
    3.6321    0.2840    0.1005 C   0  0  0  0  0  0  0  0  0  0  0  0
    2.3658   -0.4190   -0.1979 C   0  0  0  0  0  0  0  0  0  0  0  0
    1.1498    0.2287   -0.3254 C   0  0  0  0  0  0  0  0  0  0  0  0
    0.0127   -0.5355   -0.5924 C   0  0  0  0  0  0  0  0  0  0  0  0
   -1.2708    0.2009   -0.6555 C   0  0  0  0  0  0  0  0  0  0  0  0
   -1.3685    1.1165   -1.4609 O   0  0  0  0  0  0  0  0  0  0  0  0
   -2.2002   -0.2157    0.2776 N   0  0  0  0  0  0  0  0  0  0  0  0
   -3.5156    0.2648    0.4484 C   0  0  0  0  0  0  0  0  0  0  0  0
   -4.2517   -0.2564    1.5144 C   0  0  0  0  0  0  0  0  0  0  0  0
   -5.5700    0.1500    1.7303 C   0  0  0  0  0  0  0  0  0  0  0  0
   -6.1723    1.1019    0.8946 C   0  0  0  0  0  0  0  0  0  0  0  0
   -7.6054    1.4880    1.1373 C   0  0  0  0  0  0  0  0  0  0  0  0
   -5.4219    1.6728   -0.1478 C   0  0  0  0  0  0  0  0  0  0  0  0
   -6.0136    2.5397   -1.0834 N   0  0  0  0  0  0  0  0  0  0  0  0
   -4.1185    1.2056   -0.3890 C   0  0  0  0  0  0  0  0  0  0  0  0
    0.0934   -1.9314   -0.7820 C   0  0  0  0  0  0  0  0  0  0  0  0
   -0.9944   -2.7753   -1.1274 C   0  0  0  0  0  0  0  0  0  0  0  0
   -0.8176   -4.1483   -1.2834 C   0  0  0  0  0  0  0  0  0  0  0  0
    0.4437   -4.6974   -1.1064 C   0  0  0  0  0  0  0  0  0  0  0  0
    1.5204   -3.8670   -0.7868 C   0  0  0  0  0  0  0  0  0  0  0  0
    1.3717   -2.4953   -0.6298 C   0  0  0  0  0  0  0  0  0  0  0  0
    2.4623   -1.7656   -0.3402 N   0  0  0  0  0  0  0  0  0  0  0  0
    3.6770    1.4663    0.8585 C   0  0  0  0  0  0  0  0  0  0  0  0
    4.8912    2.1097    1.1290 C   0  0  0  0  0  0  0  0  0  0  0  0
    9.2365    2.5033    0.8922 H   0  0  0  0  0  0  0  0  0  0  0  0
    8.5008    1.8120   -0.5607 H   0  0  0  0  0  0  0  0  0  0  0  0
    8.6679    0.8313    0.9487 H   0  0  0  0  0  0  0  0  0  0  0  0
    6.9840   -0.0268   -0.4869 H   0  0  0  0  0  0  0  0  0  0  0  0
    4.8761   -1.1399   -0.9519 H   0  0  0  0  0  0  0  0  0  0  0  0
    1.0670    1.3068   -0.2310 H   0  0  0  0  0  0  0  0  0  0  0  0
   -1.9004   -0.9255    0.9356 H   0  0  0  0  0  0  0  0  0  0  0  0
   -3.8190   -0.9911    2.1870 H   0  0  0  0  0  0  0  0  0  0  0  0
   -6.1296   -0.2901    2.5532 H   0  0  0  0  0  0  0  0  0  0  0  0
   -8.0286    0.9479    1.9916 H   0  0  0  0  0  0  0  0  0  0  0  0
   -7.6765    2.5588    1.3577 H   0  0  0  0  0  0  0  0  0  0  0  0
   -8.2183    1.2529    0.2604 H   0  0  0  0  0  0  0  0  0  0  0  0
   -6.7584    3.1113   -0.7017 H   0  0  0  0  0  0  0  0  0  0  0  0
   -5.3365    3.0930   -1.6018 H   0  0  0  0  0  0  0  0  0  0  0  0
   -3.5858    1.5994   -1.2487 H   0  0  0  0  0  0  0  0  0  0  0  0
   -1.9885   -2.3654   -1.2990 H   0  0  0  0  0  0  0  0  0  0  0  0
   -1.6596   -4.7826   -1.5506 H   0  0  0  0  0  0  0  0  0  0  0  0
    0.5996   -5.7664   -1.2270 H   0  0  0  0  0  0  0  0  0  0  0  0
    2.5092   -4.3039   -0.6622 H   0  0  0  0  0  0  0  0  0  0  0  0
    2.7694    1.9015    1.2696 H   0  0  0  0  0  0  0  0  0  0  0  0
    4.8952    3.0217    1.7214 H   0  0  0  0  0  0  0  0  0  0  0  0
  1  2  1  0
  2  3  1  0
  3  4  2  0
  4  5  1  0
  5  6  2  0
  6  7  1  0
  7  8  2  0
  8  9  1  0
  9 10  1  0
 10 11  2  0
 10 12  1  0
 12 13  1  0
 13 14  2  0
 14 15  1  0
 15 16  2  0
 16 17  1  0
 16 18  1  0
 18 19  1  0
 18 20  2  0
  9 21  2  0
 21 22  1  0
 22 23  2  0
 23 24  1  0
 24 25  2  0
 25 26  1  0
 26 27  2  0
  6 28  1  0
 28 29  2  0
 29  3  1  0
 27  7  1  0
 20 13  1  0
 26 21  1  0
  1 30  1  0
  1 31  1  0
  1 32  1  0
  4 33  1  0
  5 34  1  0
  8 35  1  0
 12 36  1  0
 14 37  1  0
 15 38  1  0
 17 39  1  0
 17 40  1  0
 17 41  1  0
 19 42  1  0
 19 43  1  0
 20 44  1  0
 22 45  1  0
 23 46  1  0
 24 47  1  0
 25 48  1  0
 28 49  1  0
 29 50  1  0
M  END
$$$$
