
     RDKit          3D

 35 38  0  0  0  0  0  0  0  0999 V2000
    3.4087    3.5671   -0.0971 N   0  0  0  0  0  0  0  0  0  0  0  0
    2.0485    3.5182    0.0450 C   0  0  0  0  0  0  0  0  0  0  0  0
    1.3808    4.5279    0.2298 O   0  0  0  0  0  0  0  0  0  0  0  0
    1.4379    2.1624   -0.0395 C   0  0  0  0  0  0  0  0  0  0  0  0
    2.2796    1.1188   -0.2445 N   0  0  0  0  0  0  0  0  0  0  0  0
    1.6990   -0.1002   -0.3107 C   0  0  0  0  0  0  0  0  0  0  0  0
    2.6082   -1.2319   -0.5294 C   0  0  0  0  0  0  0  0  0  0  0  0
    3.9867   -1.2160   -0.6809 C   0  0  0  0  0  0  0  0  0  0  0  0
    4.5435   -2.5133   -0.8776 C   0  0  0  0  0  0  0  0  0  0  0  0
    3.5763   -3.4907   -0.8716 C   0  0  0  0  0  0  0  0  0  0  0  0
    2.0141   -2.8442   -0.6309 S   0  0  0  0  0  0  0  0  0  0  0  0
    0.3798   -0.3551   -0.1949 N   0  0  0  0  0  0  0  0  0  0  0  0
   -0.4014    0.7108   -0.0003 C   0  0  0  0  0  0  0  0  0  0  0  0
    0.0905    1.9914    0.0885 C   0  0  0  0  0  0  0  0  0  0  0  0
   -0.9497    2.8787    0.3079 N   0  0  0  0  0  0  0  0  0  0  0  0
   -2.1495    2.1581    0.3658 C   0  0  0  0  0  0  0  0  0  0  0  0
   -3.2337    2.6872    0.5465 O   0  0  0  0  0  0  0  0  0  0  0  0
   -1.8092    0.7831    0.1688 N   0  0  0  0  0  0  0  0  0  0  0  0
   -2.7016   -0.3253    0.1516 C   0  0  0  0  0  0  0  0  0  0  0  0
   -4.0637   -0.1482    0.4621 C   0  0  0  0  0  0  0  0  0  0  0  0
   -4.9695   -1.2174    0.4552 C   0  0  0  0  0  0  0  0  0  0  0  0
   -4.5263   -2.4881    0.1341 C   0  0  0  0  0  0  0  0  0  0  0  0
   -5.3882   -3.5125    0.1260 F   0  0  0  0  0  0  0  0  0  0  0  0
   -3.1961   -2.7052   -0.1806 C   0  0  0  0  0  0  0  0  0  0  0  0
   -2.2942   -1.6319   -0.1722 C   0  0  0  0  0  0  0  0  0  0  0  0
    3.8805    4.4596   -0.0475 H   0  0  0  0  0  0  0  0  0  0  0  0
    3.9437    2.7201   -0.2474 H   0  0  0  0  0  0  0  0  0  0  0  0
    4.5738   -0.3057   -0.6515 H   0  0  0  0  0  0  0  0  0  0  0  0
    5.5983   -2.7177   -1.0159 H   0  0  0  0  0  0  0  0  0  0  0  0
    3.7101   -4.5568   -0.9970 H   0  0  0  0  0  0  0  0  0  0  0  0
   -0.8633    3.8833    0.4127 H   0  0  0  0  0  0  0  0  0  0  0  0
   -4.4676    0.8238    0.7299 H   0  0  0  0  0  0  0  0  0  0  0  0
   -6.0144   -1.0556    0.7008 H   0  0  0  0  0  0  0  0  0  0  0  0
   -2.8592   -3.7053   -0.4353 H   0  0  0  0  0  0  0  0  0  0  0  0
   -1.2725   -1.8694   -0.4434 H   0  0  0  0  0  0  0  0  0  0  0  0
  1  2  1  0
  2  3  2  0
  2  4  1  0
  4  5  2  0
  5  6  1  0
  6  7  1  0
  7  8  2  0
  8  9  1  0
  9 10  2  0
 10 11  1  0
  6 12  2  0
 12 13  1  0
 13 14  2  0
 14 15  1  0
 15 16  1  0
 16 17  2  0
 16 18  1  0
 18 19  1  0
 19 20  2  0
 20 21  1  0
 21 22  2  0
 22 23  1  0
 22 24  1  0
 24 25  2  0
 14  4  1  0
 25 19  1  0
 11  7  1  0
 18 13  1  0
  1 26  1  0
  1 27  1  0
  8 28  1  0
  9 29  1  0
 10 30  1  0
 15 31  1  0
 20 32  1  0
 21 33  1  0
 24 34  1  0
 25 35  1  0
M  END
$$$$
