
     RDKit          3D

 52 53  0  0  0  0  0  0  0  0999 V2000
    5.6010   -2.8538   -3.1796 C   0  0  0  0  0  0  0  0  0  0  0  0
    6.0668   -1.7499   -2.2407 C   0  0  0  0  0  0  0  0  0  0  0  0
    4.9108   -0.9535   -1.6243 C   0  0  0  0  0  0  0  0  0  0  0  0
    4.0830   -1.8011   -0.7631 N   0  0  0  0  0  0  0  0  0  0  0  0
    3.1035   -1.0472    0.0356 C   0  0  0  0  0  0  0  0  0  0  0  0
    2.0896   -0.1908   -0.7601 C   0  0  0  0  0  0  0  0  0  0  0  0
    2.7246    1.0107   -1.2319 O   0  0  0  0  0  0  0  0  0  0  0  0
    0.8932    0.1801    0.1363 C   0  0  0  0  0  0  0  0  0  0  0  0
   -0.1372    0.8127   -0.6464 O   0  0  0  0  0  0  0  0  0  0  0  0
   -0.3019    2.1279   -0.3087 C   0  0  0  0  0  0  0  0  0  0  0  0
    0.1698    3.0793   -1.2137 C   0  0  0  0  0  0  0  0  0  0  0  0
    0.0667    4.4389   -0.9151 C   0  0  0  0  0  0  0  0  0  0  0  0
   -0.5040    4.8499    0.2893 C   0  0  0  0  0  0  0  0  0  0  0  0
   -1.0061    3.9014    1.1821 C   0  0  0  0  0  0  0  0  0  0  0  0
   -0.9357    2.5399    0.8670 C   0  0  0  0  0  0  0  0  0  0  0  0
   -1.5178    1.5779    1.8242 C   0  0  0  0  0  0  0  0  0  0  0  0
   -1.1286    1.6018    2.9881 O   0  0  0  0  0  0  0  0  0  0  0  0
   -2.5790    0.6275    1.3022 C   0  0  0  0  0  0  0  0  0  0  0  0
   -3.3443   -0.0199    2.4525 C   0  0  0  0  0  0  0  0  0  0  0  0
   -4.4589   -0.9044    1.9534 C   0  0  0  0  0  0  0  0  0  0  0  0
   -4.2194   -2.2543    1.6658 C   0  0  0  0  0  0  0  0  0  0  0  0
   -5.2494   -3.0712    1.1954 C   0  0  0  0  0  0  0  0  0  0  0  0
   -6.5259   -2.5455    1.0061 C   0  0  0  0  0  0  0  0  0  0  0  0
   -6.7721   -1.2007    1.2806 C   0  0  0  0  0  0  0  0  0  0  0  0
   -5.7432   -0.3825    1.7500 C   0  0  0  0  0  0  0  0  0  0  0  0
    6.4641   -3.3519   -3.6299 H   0  0  0  0  0  0  0  0  0  0  0  0
    4.9882   -2.4456   -3.9885 H   0  0  0  0  0  0  0  0  0  0  0  0
    5.0176   -3.6129   -2.6495 H   0  0  0  0  0  0  0  0  0  0  0  0
    6.6907   -2.1843   -1.4504 H   0  0  0  0  0  0  0  0  0  0  0  0
    6.7060   -1.0591   -2.8025 H   0  0  0  0  0  0  0  0  0  0  0  0
    5.3365   -0.1266   -1.0438 H   0  0  0  0  0  0  0  0  0  0  0  0
    4.3104   -0.5316   -2.4381 H   0  0  0  0  0  0  0  0  0  0  0  0
    4.6883   -2.3276   -0.1318 H   0  0  0  0  0  0  0  0  0  0  0  0
    2.5536   -1.7918    0.6219 H   0  0  0  0  0  0  0  0  0  0  0  0
    3.6435   -0.4122    0.7478 H   0  0  0  0  0  0  0  0  0  0  0  0
    1.7306   -0.7337   -1.6417 H   0  0  0  0  0  0  0  0  0  0  0  0
    2.9195    1.5708   -0.4618 H   0  0  0  0  0  0  0  0  0  0  0  0
    0.4487   -0.7265    0.5606 H   0  0  0  0  0  0  0  0  0  0  0  0
    1.2309    0.8100    0.9708 H   0  0  0  0  0  0  0  0  0  0  0  0
    0.6456    2.7598   -2.1382 H   0  0  0  0  0  0  0  0  0  0  0  0
    0.4528    5.1765   -1.6144 H   0  0  0  0  0  0  0  0  0  0  0  0
   -0.5555    5.9073    0.5326 H   0  0  0  0  0  0  0  0  0  0  0  0
   -1.4395    4.2262    2.1247 H   0  0  0  0  0  0  0  0  0  0  0  0
   -3.2685    1.1899    0.6621 H   0  0  0  0  0  0  0  0  0  0  0  0
   -2.0992   -0.1457    0.6950 H   0  0  0  0  0  0  0  0  0  0  0  0
   -2.6637   -0.6111    3.0773 H   0  0  0  0  0  0  0  0  0  0  0  0
   -3.7601    0.7465    3.1196 H   0  0  0  0  0  0  0  0  0  0  0  0
   -3.2278   -2.6768    1.8071 H   0  0  0  0  0  0  0  0  0  0  0  0
   -5.0545   -4.1176    0.9767 H   0  0  0  0  0  0  0  0  0  0  0  0
   -7.3278   -3.1819    0.6410 H   0  0  0  0  0  0  0  0  0  0  0  0
   -7.7666   -0.7894    1.1305 H   0  0  0  0  0  0  0  0  0  0  0  0
   -5.9495    0.6658    1.9582 H   0  0  0  0  0  0  0  0  0  0  0  0
  1  2  1  0
  2  3  1  0
  3  4  1  0
  4  5  1  0
  5  6  1  0
  6  7  1  0
  6  8  1  0
  8  9  1  0
  9 10  1  0
 10 11  2  0
 11 12  1  0
 12 13  2  0
 13 14  1  0
 14 15  2  0
 15 16  1  0
 16 17  2  0
 16 18  1  0
 18 19  1  0
 19 20  1  0
 20 21  2  0
 21 22  1  0
 22 23  2  0
 23 24  1  0
 24 25  2  0
 15 10  1  0
 25 20  1  0
  1 26  1  0
  1 27  1  0
  1 28  1  0
  2 29  1  0
  2 30  1  0
  3 31  1  0
  3 32  1  0
  4 33  1  0
  5 34  1  0
  5 35  1  0
  6 36  1  0
  7 37  1  0
  8 38  1  0
  8 39  1  0
 11 40  1  0
 12 41  1  0
 13 42  1  0
 14 43  1  0
 18 44  1  0
 18 45  1  0
 19 46  1  0
 19 47  1  0
 21 48  1  0
 22 49  1  0
 23 50  1  0
 24 51  1  0
 25 52  1  0
M  END
$$$$
