
     RDKit          3D

 34 36  0  0  0  0  0  0  0  0999 V2000
    3.4634    0.5064   -1.4850 C   0  0  0  0  0  0  0  0  0  0  0  0
    3.9797    0.0603   -0.2096 N   0  0  0  0  0  0  0  0  0  0  0  0
    5.2285   -0.4494   -0.1640 N   0  0  0  0  0  0  0  0  0  0  0  0
    5.4384   -0.6455    1.1396 C   0  0  0  0  0  0  0  0  0  0  0  0
    4.3212   -0.2975    1.9169 C   0  0  0  0  0  0  0  0  0  0  0  0
    4.2204   -0.4359    3.6027 Cl  0  0  0  0  0  0  0  0  0  0  0  0
    3.3620    0.1230    1.0174 C   0  0  0  0  0  0  0  0  0  0  0  0
    2.0225    0.5937    1.2810 C   0  0  0  0  0  0  0  0  0  0  0  0
    1.8063    1.4439    2.1338 O   0  0  0  0  0  0  0  0  0  0  0  0
    1.0785   -0.0372    0.4944 N   0  0  0  0  0  0  0  0  0  0  0  0
   -0.2862    0.2086    0.4309 C   0  0  0  0  0  0  0  0  0  0  0  0
   -1.0118    1.4702    1.3312 S   0  0  0  0  0  0  0  0  0  0  0  0
   -2.5068    1.1036    0.6962 C   0  0  0  0  0  0  0  0  0  0  0  0
   -2.5024    0.0562   -0.1833 C   0  0  0  0  0  0  0  0  0  0  0  0
   -1.2008   -0.5018   -0.3565 C   0  0  0  0  0  0  0  0  0  0  0  0
   -0.7801   -1.6118   -1.2080 C   0  0  0  0  0  0  0  0  0  0  0  0
   -1.7641   -2.4053   -1.7195 N   0  0  0  0  0  0  0  0  0  0  0  0
    0.4012   -1.8607   -1.4400 O   0  0  0  0  0  0  0  0  0  0  0  0
   -3.8717   -0.1732   -0.7180 C   0  0  0  0  0  0  0  0  0  0  0  0
   -4.6280    1.1223   -0.2890 C   0  0  0  0  0  0  0  0  0  0  0  0
   -3.8331    1.7284    0.9043 C   0  0  0  0  0  0  0  0  0  0  0  0
    4.2983    0.8234   -2.1158 H   0  0  0  0  0  0  0  0  0  0  0  0
    2.9360   -0.3299   -1.9491 H   0  0  0  0  0  0  0  0  0  0  0  0
    2.7911    1.3531   -1.3288 H   0  0  0  0  0  0  0  0  0  0  0  0
    6.3928   -1.0367    1.4669 H   0  0  0  0  0  0  0  0  0  0  0  0
    1.3865   -0.8139   -0.0888 H   0  0  0  0  0  0  0  0  0  0  0  0
   -1.4585   -3.2460   -2.1914 H   0  0  0  0  0  0  0  0  0  0  0  0
   -2.6968   -2.3985   -1.3373 H   0  0  0  0  0  0  0  0  0  0  0  0
   -4.3249   -1.0507   -0.2449 H   0  0  0  0  0  0  0  0  0  0  0  0
   -3.8896   -0.2933   -1.8047 H   0  0  0  0  0  0  0  0  0  0  0  0
   -5.6754    0.9288   -0.0374 H   0  0  0  0  0  0  0  0  0  0  0  0
   -4.6160    1.8346   -1.1247 H   0  0  0  0  0  0  0  0  0  0  0  0
   -3.8131    2.8204    0.8541 H   0  0  0  0  0  0  0  0  0  0  0  0
   -4.2677    1.4106    1.8575 H   0  0  0  0  0  0  0  0  0  0  0  0
  1  2  1  0
  2  3  1  0
  3  4  2  0
  4  5  1  0
  5  6  1  0
  5  7  2  0
  7  8  1  0
  8  9  2  0
  8 10  1  0
 10 11  1  0
 11 12  1  0
 12 13  1  0
 13 14  2  0
 14 15  1  0
 15 16  1  0
 16 17  1  0
 16 18  2  0
 14 19  1  0
 19 20  1  0
 20 21  1  0
  7  2  1  0
 15 11  2  0
 21 13  1  0
  1 22  1  0
  1 23  1  0
  1 24  1  0
  4 25  1  0
 10 26  1  0
 17 27  1  0
 17 28  1  0
 19 29  1  0
 19 30  1  0
 20 31  1  0
 20 32  1  0
 21 33  1  0
 21 34  1  0
M  END
$$$$
