
     RDKit          3D

 35 36  0  0  0  0  0  0  0  0999 V2000
    3.2453   -0.3349    0.9480 C   0  0  0  0  0  0  0  0  0  0  0  0
    2.4088    0.3826   -0.0195 N   0  0  0  0  0  0  0  0  0  0  0  0
    1.0182   -0.1192   -0.0060 C   0  0  0  0  0  0  0  0  0  0  0  0
    0.2520    0.2683    1.2673 C   0  0  0  0  0  0  0  0  0  0  0  0
   -1.1927   -0.2306    1.2343 C   0  0  0  0  0  0  0  0  0  0  0  0
   -1.8833    0.3920    0.1440 O   0  0  0  0  0  0  0  0  0  0  0  0
   -3.2151    0.0713    0.1718 C   0  0  0  0  0  0  0  0  0  0  0  0
   -3.6295   -1.1042   -0.4578 C   0  0  0  0  0  0  0  0  0  0  0  0
   -4.9847   -1.4359   -0.4800 C   0  0  0  0  0  0  0  0  0  0  0  0
   -5.9169   -0.5835    0.1134 C   0  0  0  0  0  0  0  0  0  0  0  0
   -7.5868   -0.9980    0.0836 Cl  0  0  0  0  0  0  0  0  0  0  0  0
   -5.5109    0.6023    0.7239 C   0  0  0  0  0  0  0  0  0  0  0  0
   -4.1560    0.9344    0.7456 C   0  0  0  0  0  0  0  0  0  0  0  0
   -3.6792    2.4144    1.4939 Cl  0  0  0  0  0  0  0  0  0  0  0  0
    2.9615    0.2583   -1.3830 C   0  0  0  0  0  0  0  0  0  0  0  0
    4.2176    1.0600   -1.5334 C   0  0  0  0  0  0  0  0  0  0  0  0
    5.5827    0.4201   -1.5325 C   0  0  0  0  0  0  0  0  0  0  0  0
    4.9334    0.7986   -2.7523 O   0  0  0  0  0  0  0  0  0  0  0  0
    4.2676    0.0569    0.9551 H   0  0  0  0  0  0  0  0  0  0  0  0
    2.8800   -0.1997    1.9703 H   0  0  0  0  0  0  0  0  0  0  0  0
    3.2906   -1.4094    0.7369 H   0  0  0  0  0  0  0  0  0  0  0  0
    0.4775    0.3152   -0.8564 H   0  0  0  0  0  0  0  0  0  0  0  0
    0.9993   -1.2084   -0.1431 H   0  0  0  0  0  0  0  0  0  0  0  0
    0.2547    1.3609    1.3659 H   0  0  0  0  0  0  0  0  0  0  0  0
    0.7327   -0.1501    2.1570 H   0  0  0  0  0  0  0  0  0  0  0  0
   -1.6752    0.0241    2.1864 H   0  0  0  0  0  0  0  0  0  0  0  0
   -1.2052   -1.3212    1.1144 H   0  0  0  0  0  0  0  0  0  0  0  0
   -2.9020   -1.7545   -0.9359 H   0  0  0  0  0  0  0  0  0  0  0  0
   -5.3081   -2.3528   -0.9665 H   0  0  0  0  0  0  0  0  0  0  0  0
   -6.2446    1.2652    1.1739 H   0  0  0  0  0  0  0  0  0  0  0  0
    3.1187   -0.7943   -1.6522 H   0  0  0  0  0  0  0  0  0  0  0  0
    2.2487    0.6698   -2.1088 H   0  0  0  0  0  0  0  0  0  0  0  0
    4.1094    2.0942   -1.2348 H   0  0  0  0  0  0  0  0  0  0  0  0
    6.4248    1.0178   -1.2073 H   0  0  0  0  0  0  0  0  0  0  0  0
    5.6666   -0.6371   -1.3165 H   0  0  0  0  0  0  0  0  0  0  0  0
  1  2  1  0
  2  3  1  0
  3  4  1  0
  4  5  1  0
  5  6  1  0
  6  7  1  0
  7  8  2  0
  8  9  1  0
  9 10  2  0
 10 11  1  0
 10 12  1  0
 12 13  2  0
 13 14  1  0
  2 15  1  0
 15 16  1  0
 16 17  1  0
 17 18  1  0
 13  7  1  0
 18 16  1  0
  1 19  1  0
  1 20  1  0
  1 21  1  0
  3 22  1  0
  3 23  1  0
  4 24  1  0
  4 25  1  0
  5 26  1  0
  5 27  1  0
  8 28  1  0
  9 29  1  0
 12 30  1  0
 15 31  1  0
 15 32  1  0
 16 33  1  0
 17 34  1  0
 17 35  1  0
M  END
$$$$
