
     RDKit          3D

 37 39  0  0  0  0  0  0  0  0999 V2000
    3.0104    1.6839    4.4468 C   0  0  0  0  0  0  0  0  0  0  0  0
    2.2992    1.4198    3.2429 O   0  0  0  0  0  0  0  0  0  0  0  0
    2.1476    0.1046    2.8904 C   0  0  0  0  0  0  0  0  0  0  0  0
    2.6064   -0.9940    3.6131 C   0  0  0  0  0  0  0  0  0  0  0  0
    2.4023   -2.3001    3.1500 C   0  0  0  0  0  0  0  0  0  0  0  0
    1.7154   -2.4682    1.9424 C   0  0  0  0  0  0  0  0  0  0  0  0
    1.3995   -3.6208    1.2606 N   0  0  0  0  0  0  0  0  0  0  0  0
    0.7283   -3.3185    0.1049 C   0  0  0  0  0  0  0  0  0  0  0  0
    0.5785   -1.9498    0.0463 C   0  0  0  0  0  0  0  0  0  0  0  0
   -0.0954   -1.2950   -1.0299 C   0  0  0  0  0  0  0  0  0  0  0  0
   -0.8203   -0.1694   -0.9156 C   0  0  0  0  0  0  0  0  0  0  0  0
   -1.5005    0.4951   -2.0321 C   0  0  0  0  0  0  0  0  0  0  0  0
   -1.5203    1.8882   -2.0768 C   0  0  0  0  0  0  0  0  0  0  0  0
   -2.1811    2.5369   -3.1137 C   0  0  0  0  0  0  0  0  0  0  0  0
   -2.8120    1.8290   -4.0766 N   0  0  0  0  0  4  0  0  0  0  0  0
   -3.5147    2.5382   -5.1592 C   0  0  0  0  0  0  0  0  0  0  0  0
   -2.8281    0.4780   -4.0410 C   0  0  0  0  0  0  0  0  0  0  0  0
   -2.1781   -0.2122   -3.0237 C   0  0  0  0  0  0  0  0  0  0  0  0
    1.2231   -1.3951    1.1968 C   0  0  0  0  0  0  0  0  0  0  0  0
    1.4613   -0.0911    1.6836 C   0  0  0  0  0  0  0  0  0  0  0  0
    3.0526    2.7694    4.5780 H   0  0  0  0  0  0  0  0  0  0  0  0
    4.0398    1.3155    4.3864 H   0  0  0  0  0  0  0  0  0  0  0  0
    2.4886    1.2640    5.3130 H   0  0  0  0  0  0  0  0  0  0  0  0
    3.1403   -0.8745    4.5508 H   0  0  0  0  0  0  0  0  0  0  0  0
    2.7730   -3.1501    3.7148 H   0  0  0  0  0  0  0  0  0  0  0  0
    1.6421   -4.5527    1.5693 H   0  0  0  0  0  0  0  0  0  0  0  0
    0.4066   -4.1090   -0.5600 H   0  0  0  0  0  0  0  0  0  0  0  0
   -0.0066   -1.7806   -1.9993 H   0  0  0  0  0  0  0  0  0  0  0  0
   -0.9270    0.3097    0.0557 H   0  0  0  0  0  0  0  0  0  0  0  0
   -1.0159    2.4762   -1.3115 H   0  0  0  0  0  0  0  0  0  0  0  0
   -2.2126    3.6209   -3.1792 H   0  0  0  0  0  0  0  0  0  0  0  0
   -3.5022    1.9196   -6.0603 H   0  0  0  0  0  0  0  0  0  0  0  0
   -3.0010    3.4816   -5.3616 H   0  0  0  0  0  0  0  0  0  0  0  0
   -4.5390    2.7162   -4.8228 H   0  0  0  0  0  0  0  0  0  0  0  0
   -3.3688   -0.0421   -4.8268 H   0  0  0  0  0  0  0  0  0  0  0  0
   -2.2184   -1.2996   -3.0069 H   0  0  0  0  0  0  0  0  0  0  0  0
    1.1269    0.7758    1.1241 H   0  0  0  0  0  0  0  0  0  0  0  0
  1  2  1  0
  2  3  1  0
  3  4  2  0
  4  5  1  0
  5  6  2  0
  6  7  1  0
  7  8  1  0
  8  9  2  0
  9 10  1  0
 10 11  2  3
 11 12  1  0
 12 13  2  0
 13 14  1  0
 14 15  2  0
 15 16  1  0
 15 17  1  0
 17 18  2  0
  9 19  1  0
 19 20  2  0
 20  3  1  0
 19  6  1  0
 18 12  1  0
  1 21  1  0
  1 22  1  0
  1 23  1  0
  4 24  1  0
  5 25  1  0
  7 26  1  0
  8 27  1  0
 10 28  1  0
 11 29  1  0
 13 30  1  0
 14 31  1  0
 16 32  1  0
 16 33  1  0
 16 34  1  0
 17 35  1  0
 18 36  1  0
 20 37  1  0
M  CHG  1  15   1
M  END
$$$$
