
     RDKit          3D

 38 41  0  0  0  0  0  0  0  0999 V2000
   -3.5907    0.4367    4.2236 O   0  0  0  0  0  0  0  0  0  0  0  0
   -3.7559    0.9231    3.1087 C   0  0  0  0  0  0  0  0  0  0  0  0
   -3.2285    0.3377    1.8903 C   0  0  0  0  0  0  0  0  0  0  0  0
   -2.5296   -0.8528    1.8238 C   0  0  0  0  0  0  0  0  0  0  0  0
   -2.1891   -1.0812    0.5176 N   0  0  0  0  0  0  0  0  0  0  0  0
   -1.4319   -2.2367    0.0563 C   0  0  0  0  0  0  0  0  0  0  0  0
   -0.0461   -1.8851   -0.4578 C   0  0  0  0  0  0  0  0  0  0  0  0
    0.3559   -2.3756   -1.5109 O   0  0  0  0  0  0  0  0  0  0  0  0
    0.6822   -1.0596    0.3848 N   0  0  0  0  0  0  0  0  0  0  0  0
    2.0010   -0.5911    0.2031 C   0  0  0  0  0  0  0  0  0  0  0  0
    2.4991    0.2952    1.1861 C   0  0  0  0  0  0  0  0  0  0  0  0
    3.7948    0.8179    1.1037 C   0  0  0  0  0  0  0  0  0  0  0  0
    4.5678    0.4376    0.0316 C   0  0  0  0  0  0  0  0  0  0  0  0
    4.0929   -0.4238   -0.9276 C   0  0  0  0  0  0  0  0  0  0  0  0
    2.8185   -0.9547   -0.8716 C   0  0  0  0  0  0  0  0  0  0  0  0
    5.0132   -0.6720   -1.8992 O   0  0  0  0  0  0  0  0  0  0  0  0
    6.1179    0.1339   -1.4413 C   0  0  0  0  0  0  0  0  0  0  0  0
    5.8424    0.8402   -0.2135 O   0  0  0  0  0  0  0  0  0  0  0  0
   -2.6624   -0.0622   -0.2824 C   0  0  0  0  0  0  0  0  0  0  0  0
   -2.5628    0.1403   -1.6685 C   0  0  0  0  0  0  0  0  0  0  0  0
   -3.1442    1.2899   -2.2089 C   0  0  0  0  0  0  0  0  0  0  0  0
   -3.8035    2.2070   -1.3977 C   0  0  0  0  0  0  0  0  0  0  0  0
   -3.8980    1.9977   -0.0177 C   0  0  0  0  0  0  0  0  0  0  0  0
   -3.3188    0.8454    0.5567 C   0  0  0  0  0  0  0  0  0  0  0  0
   -4.3247    1.8590    2.9821 H   0  0  0  0  0  0  0  0  0  0  0  0
   -2.2623   -1.5459    2.6133 H   0  0  0  0  0  0  0  0  0  0  0  0
   -2.0174   -2.7057   -0.7418 H   0  0  0  0  0  0  0  0  0  0  0  0
   -1.3359   -2.9495    0.8819 H   0  0  0  0  0  0  0  0  0  0  0  0
    0.2025   -0.6993    1.2025 H   0  0  0  0  0  0  0  0  0  0  0  0
    1.8786    0.5910    2.0292 H   0  0  0  0  0  0  0  0  0  0  0  0
    4.1775    1.4983    1.8557 H   0  0  0  0  0  0  0  0  0  0  0  0
    2.4999   -1.6298   -1.6555 H   0  0  0  0  0  0  0  0  0  0  0  0
    6.9855   -0.5172   -1.2838 H   0  0  0  0  0  0  0  0  0  0  0  0
    6.3644    0.8659   -2.2190 H   0  0  0  0  0  0  0  0  0  0  0  0
   -2.0486   -0.5656   -2.3153 H   0  0  0  0  0  0  0  0  0  0  0  0
   -3.0776    1.4684   -3.2801 H   0  0  0  0  0  0  0  0  0  0  0  0
   -4.2490    3.0953   -1.8396 H   0  0  0  0  0  0  0  0  0  0  0  0
   -4.4171    2.7275    0.5971 H   0  0  0  0  0  0  0  0  0  0  0  0
  1  2  2  0
  2  3  1  0
  3  4  2  0
  4  5  1  0
  5  6  1  0
  6  7  1  0
  7  8  2  0
  7  9  1  0
  9 10  1  0
 10 11  2  0
 11 12  1  0
 12 13  2  0
 13 14  1  0
 14 15  2  0
 14 16  1  0
 16 17  1  0
 17 18  1  0
  5 19  1  0
 19 20  2  0
 20 21  1  0
 21 22  2  0
 22 23  1  0
 23 24  2  0
 24  3  1  0
 15 10  1  0
 24 19  1  0
 18 13  1  0
  2 25  1  0
  4 26  1  0
  6 27  1  0
  6 28  1  0
  9 29  1  0
 11 30  1  0
 12 31  1  0
 15 32  1  0
 17 33  1  0
 17 34  1  0
 20 35  1  0
 21 36  1  0
 22 37  1  0
 23 38  1  0
M  END
$$$$
