
     RDKit          3D

 55 60  0  0  0  0  0  0  0  0999 V2000
    7.3294    2.1970    0.6447 C   0  0  0  0  0  0  0  0  0  0  0  0
    6.0861    2.6262    1.1105 C   0  0  0  0  0  0  0  0  0  0  0  0
    4.9491    1.8467    0.8889 C   0  0  0  0  0  0  0  0  0  0  0  0
    5.0566    0.6397    0.1882 C   0  0  0  0  0  0  0  0  0  0  0  0
    3.8688   -0.2221   -0.0503 C   0  0  0  0  0  0  0  0  0  0  0  0
    3.9753   -1.4992    0.1722 N   0  0  0  0  0  0  0  0  0  0  0  0
    2.8607   -2.3321   -0.0498 C   0  0  0  0  0  0  0  0  0  0  0  0
    3.0335   -3.7083    0.1237 C   0  0  0  0  0  0  0  0  0  0  0  0
    1.9834   -4.5961   -0.1154 C   0  0  0  0  0  0  0  0  0  0  0  0
    0.7502   -4.1125   -0.5469 C   0  0  0  0  0  0  0  0  0  0  0  0
    0.5575   -2.7408   -0.7227 C   0  0  0  0  0  0  0  0  0  0  0  0
    1.6004   -1.8523   -0.4462 C   0  0  0  0  0  0  0  0  0  0  0  0
    1.4907   -0.4494   -0.6079 N   0  0  0  0  0  0  0  0  0  0  0  0
    0.3945    0.3713   -0.8862 C   0  0  0  0  0  0  0  0  0  0  0  0
   -0.9147   -0.0272   -0.7744 N   0  0  0  0  0  0  0  0  0  0  0  0
   -1.9271    0.6417   -1.6245 C   0  0  0  0  0  0  0  0  0  0  0  0
   -3.3553    0.1275   -1.3354 C   0  0  0  0  0  0  0  0  0  0  0  0
   -3.7325    0.3516    0.0740 N   0  0  0  0  0  0  0  0  0  0  0  0
   -5.0469    0.5928    0.4363 C   0  0  0  0  0  0  0  0  0  0  0  0
   -5.3828    1.2894    1.6087 C   0  0  0  0  0  0  0  0  0  0  0  0
   -6.7133    1.5296    1.9758 C   0  0  0  0  0  0  0  0  0  0  0  0
   -7.7514    1.0706    1.1751 C   0  0  0  0  0  0  0  0  0  0  0  0
   -7.4553    0.3725    0.0115 C   0  0  0  0  0  0  0  0  0  0  0  0
   -6.1216    0.1394   -0.3472 C   0  0  0  0  0  0  0  0  0  0  0  0
   -2.6185    0.4888    1.0300 C   0  0  0  0  0  0  0  0  0  0  0  0
   -1.3970   -0.3560    0.5990 C   0  0  0  0  0  0  0  0  0  0  0  0
    0.9066    1.6016   -1.2592 C   0  0  0  0  0  0  0  0  0  0  0  0
    2.2970    1.5924   -1.0130 C   0  0  0  0  0  0  0  0  0  0  0  0
    2.6224    0.3446   -0.5186 C   0  0  0  0  0  0  0  0  0  0  0  0
    6.3087    0.2015   -0.2586 C   0  0  0  0  0  0  0  0  0  0  0  0
    7.4424    0.9841   -0.0353 C   0  0  0  0  0  0  0  0  0  0  0  0
    8.2144    2.8035    0.8215 H   0  0  0  0  0  0  0  0  0  0  0  0
    6.0047    3.5637    1.6549 H   0  0  0  0  0  0  0  0  0  0  0  0
    3.9917    2.1776    1.2823 H   0  0  0  0  0  0  0  0  0  0  0  0
    4.0018   -4.0869    0.4404 H   0  0  0  0  0  0  0  0  0  0  0  0
    2.1350   -5.6637    0.0194 H   0  0  0  0  0  0  0  0  0  0  0  0
   -0.0611   -4.8046   -0.7588 H   0  0  0  0  0  0  0  0  0  0  0  0
   -0.3979   -2.3991   -1.1053 H   0  0  0  0  0  0  0  0  0  0  0  0
   -1.6898    0.4597   -2.6795 H   0  0  0  0  0  0  0  0  0  0  0  0
   -1.9078    1.7260   -1.4555 H   0  0  0  0  0  0  0  0  0  0  0  0
   -4.0350    0.6567   -2.0140 H   0  0  0  0  0  0  0  0  0  0  0  0
   -3.4168   -0.9453   -1.5546 H   0  0  0  0  0  0  0  0  0  0  0  0
   -4.6076    1.6850    2.2583 H   0  0  0  0  0  0  0  0  0  0  0  0
   -6.9309    2.0788    2.8877 H   0  0  0  0  0  0  0  0  0  0  0  0
   -8.7841    1.2535    1.4574 H   0  0  0  0  0  0  0  0  0  0  0  0
   -8.2574   -0.0003   -0.6197 H   0  0  0  0  0  0  0  0  0  0  0  0
   -5.9391   -0.4351   -1.2512 H   0  0  0  0  0  0  0  0  0  0  0  0
   -2.9183    0.1422    2.0262 H   0  0  0  0  0  0  0  0  0  0  0  0
   -2.3322    1.5449    1.1054 H   0  0  0  0  0  0  0  0  0  0  0  0
   -1.6861   -1.4135    0.6124 H   0  0  0  0  0  0  0  0  0  0  0  0
   -0.6010   -0.2284    1.3435 H   0  0  0  0  0  0  0  0  0  0  0  0
    0.3301    2.4533   -1.5932 H   0  0  0  0  0  0  0  0  0  0  0  0
    2.9757    2.4230   -1.1576 H   0  0  0  0  0  0  0  0  0  0  0  0
    6.4009   -0.7483   -0.7807 H   0  0  0  0  0  0  0  0  0  0  0  0
    8.4134    0.6445   -0.3867 H   0  0  0  0  0  0  0  0  0  0  0  0
  1  2  2  0
  2  3  1  0
  3  4  2  0
  4  5  1  0
  5  6  2  0
  6  7  1  0
  7  8  2  0
  8  9  1  0
  9 10  2  0
 10 11  1  0
 11 12  2  0
 12 13  1  0
 13 14  1  0
 14 15  1  0
 15 16  1  0
 16 17  1  0
 17 18  1  0
 18 19  1  0
 19 20  2  0
 20 21  1  0
 21 22  2  0
 22 23  1  0
 23 24  2  0
 18 25  1  0
 25 26  1  0
 14 27  2  0
 27 28  1  0
 28 29  2  0
  4 30  1  0
 30 31  2  0
 31  1  1  0
 29  5  1  0
 12  7  1  0
 29 13  1  0
 26 15  1  0
 24 19  1  0
  1 32  1  0
  2 33  1  0
  3 34  1  0
  8 35  1  0
  9 36  1  0
 10 37  1  0
 11 38  1  0
 16 39  1  0
 16 40  1  0
 17 41  1  0
 17 42  1  0
 20 43  1  0
 21 44  1  0
 22 45  1  0
 23 46  1  0
 24 47  1  0
 25 48  1  0
 25 49  1  0
 26 50  1  0
 26 51  1  0
 27 52  1  0
 28 53  1  0
 30 54  1  0
 31 55  1  0
M  END
$$$$
