
     RDKit          3D

 49 52  0  0  0  0  0  0  0  0999 V2000
    4.6221   -0.0782   -1.6450 C   0  0  0  0  0  0  0  0  0  0  0  0
    4.7631    0.1566   -0.2102 N   0  0  0  0  0  0  0  0  0  0  0  0
    3.9518    1.3070    0.2378 C   0  0  0  0  0  0  0  0  0  0  0  0
    2.4247    1.0518    0.3107 C   0  0  0  0  0  0  0  0  0  0  0  0
    2.0884   -0.1323    1.1296 N   0  0  0  0  0  0  0  0  0  0  0  0
    0.6451   -0.4284    1.1154 C   0  0  0  0  0  0  0  0  0  0  0  0
   -0.1733    0.6153    1.8826 C   0  0  0  0  0  0  0  0  0  0  0  0
   -1.6167    0.1576    2.1474 C   0  0  0  0  0  0  0  0  0  0  0  0
   -2.4347    0.0481    0.9110 N   0  0  0  0  0  0  0  0  0  0  0  0
   -2.5327   -1.2492    0.3395 C   0  0  0  0  0  0  0  0  0  0  0  0
   -2.7643   -2.3822    1.1503 C   0  0  0  0  0  0  0  0  0  0  0  0
   -2.8534   -3.6699    0.6132 C   0  0  0  0  0  0  0  0  0  0  0  0
   -2.7313   -3.8573   -0.7569 C   0  0  0  0  0  0  0  0  0  0  0  0
   -2.5476   -2.7521   -1.5881 C   0  0  0  0  0  0  0  0  0  0  0  0
   -2.4651   -1.4545   -1.0540 C   0  0  0  0  0  0  0  0  0  0  0  0
   -2.2336   -0.1207   -2.2195 S   0  0  0  0  0  0  0  0  0  0  0  0
   -2.6485    1.2959   -1.2128 C   0  0  0  0  0  0  0  0  0  0  0  0
   -2.9061    2.4961   -1.8988 C   0  0  0  0  0  0  0  0  0  0  0  0
   -3.1887    3.6698   -1.2005 C   0  0  0  0  0  0  0  0  0  0  0  0
   -3.2168    3.6429    0.1871 C   0  0  0  0  0  0  0  0  0  0  0  0
   -3.5669    5.0849    1.0614 Cl  0  0  0  0  0  0  0  0  0  0  0  0
   -2.9679    2.4552    0.8802 C   0  0  0  0  0  0  0  0  0  0  0  0
   -2.6641    1.2561    0.1988 C   0  0  0  0  0  0  0  0  0  0  0  0
    2.8543   -1.3015    0.6417 C   0  0  0  0  0  0  0  0  0  0  0  0
    4.3760   -1.0315    0.5776 C   0  0  0  0  0  0  0  0  0  0  0  0
    3.5960   -0.3048   -1.9529 H   0  0  0  0  0  0  0  0  0  0  0  0
    4.9592    0.8011   -2.2066 H   0  0  0  0  0  0  0  0  0  0  0  0
    5.2616   -0.9096   -1.9555 H   0  0  0  0  0  0  0  0  0  0  0  0
    4.1469    2.1765   -0.4019 H   0  0  0  0  0  0  0  0  0  0  0  0
    4.3024    1.5932    1.2400 H   0  0  0  0  0  0  0  0  0  0  0  0
    1.9645    1.9485    0.7455 H   0  0  0  0  0  0  0  0  0  0  0  0
    2.0280    0.9425   -0.7049 H   0  0  0  0  0  0  0  0  0  0  0  0
    0.2854   -0.5171    0.0846 H   0  0  0  0  0  0  0  0  0  0  0  0
    0.4828   -1.3996    1.5983 H   0  0  0  0  0  0  0  0  0  0  0  0
   -0.1675    1.5717    1.3510 H   0  0  0  0  0  0  0  0  0  0  0  0
    0.3014    0.7955    2.8554 H   0  0  0  0  0  0  0  0  0  0  0  0
   -2.0897    0.8517    2.8520 H   0  0  0  0  0  0  0  0  0  0  0  0
   -1.5684   -0.7811    2.7102 H   0  0  0  0  0  0  0  0  0  0  0  0
   -2.9240   -2.2771    2.2209 H   0  0  0  0  0  0  0  0  0  0  0  0
   -3.0289   -4.5219    1.2680 H   0  0  0  0  0  0  0  0  0  0  0  0
   -2.7991   -4.8552   -1.1808 H   0  0  0  0  0  0  0  0  0  0  0  0
   -2.4737   -2.9071   -2.6613 H   0  0  0  0  0  0  0  0  0  0  0  0
   -2.8880    2.5213   -2.9872 H   0  0  0  0  0  0  0  0  0  0  0  0
   -3.3870    4.5899   -1.7430 H   0  0  0  0  0  0  0  0  0  0  0  0
   -3.0459    2.4765    1.9656 H   0  0  0  0  0  0  0  0  0  0  0  0
    2.6933   -2.1472    1.3227 H   0  0  0  0  0  0  0  0  0  0  0  0
    2.4950   -1.6120   -0.3485 H   0  0  0  0  0  0  0  0  0  0  0  0
    4.7478   -0.8917    1.6042 H   0  0  0  0  0  0  0  0  0  0  0  0
    4.8941   -1.9236    0.1970 H   0  0  0  0  0  0  0  0  0  0  0  0
  1  2  1  0
  2  3  1  0
  3  4  1  0
  4  5  1  0
  5  6  1  0
  6  7  1  0
  7  8  1  0
  8  9  1  0
  9 10  1  0
 10 11  2  0
 11 12  1  0
 12 13  2  0
 13 14  1  0
 14 15  2  0
 15 16  1  0
 16 17  1  0
 17 18  2  0
 18 19  1  0
 19 20  2  0
 20 21  1  0
 20 22  1  0
 22 23  2  0
  5 24  1  0
 24 25  1  0
 25  2  1  0
 23  9  1  0
 15 10  1  0
 23 17  1  0
  1 26  1  0
  1 27  1  0
  1 28  1  0
  3 29  1  0
  3 30  1  0
  4 31  1  0
  4 32  1  0
  6 33  1  0
  6 34  1  0
  7 35  1  0
  7 36  1  0
  8 37  1  0
  8 38  1  0
 11 39  1  0
 12 40  1  0
 13 41  1  0
 14 42  1  0
 18 43  1  0
 19 44  1  0
 22 45  1  0
 24 46  1  0
 24 47  1  0
 25 48  1  0
 25 49  1  0
M  END
$$$$
