
     RDKit          3D

 65 68  0  0  0  0  0  0  0  0999 V2000
    7.7896   -0.0660    5.3019 C   0  0  0  0  0  0  0  0  0  0  0  0
    6.4044    0.2865    4.9473 C   0  0  0  0  0  0  0  0  0  0  0  0
    5.5525   -0.0735    3.9330 C   0  0  0  0  0  0  0  0  0  0  0  0
    4.3667    0.6478    4.1954 C   0  0  0  0  0  0  0  0  0  0  0  0
    3.1784    0.6646    3.5007 N   0  0  0  0  0  0  0  0  0  0  0  0
    2.9244   -0.0266    2.3375 C   0  0  0  0  0  0  0  0  0  0  0  0
    3.7178   -0.7463    1.7387 O   0  0  0  0  0  0  0  0  0  0  0  0
    1.5073    0.1999    1.8529 C   0  0  0  0  0  0  0  0  0  0  0  0
    1.2427   -0.4935    0.5195 C   0  0  0  0  0  0  0  0  0  0  0  0
   -0.1883   -0.2758    0.0649 C   0  0  0  0  0  0  0  0  0  0  0  0
   -0.8917    0.5706    0.6228 O   0  0  0  0  0  0  0  0  0  0  0  0
   -0.6551   -1.0228   -1.0097 N   0  0  0  0  0  0  0  0  0  0  0  0
    0.2369   -1.6829   -1.9695 C   0  0  0  0  0  0  0  0  0  0  0  0
    0.0248   -3.1690   -1.9754 C   0  0  0  0  0  0  0  0  0  0  0  0
   -0.7072   -3.9249   -2.8731 C   0  0  0  0  0  0  0  0  0  0  0  0
   -0.6826   -5.3153   -2.5642 C   0  0  0  0  0  0  0  0  0  0  0  0
    0.0821   -5.5812   -1.4519 C   0  0  0  0  0  0  0  0  0  0  0  0
    0.7697   -4.1634   -0.7924 S   0  0  0  0  0  0  0  0  0  0  0  0
   -2.0843   -0.9098   -1.4127 C   0  0  0  0  0  0  0  0  0  0  0  0
   -2.3759    0.3860   -2.2227 C   0  0  0  0  0  0  0  0  0  0  0  0
   -3.0751    0.3716   -3.2362 O   0  0  0  0  0  0  0  0  0  0  0  0
   -1.8671    1.5559   -1.6921 N   0  0  0  0  0  0  0  0  0  0  0  0
   -2.2121    2.8534   -2.2284 C   0  0  0  0  0  0  0  0  0  0  0  0
   -1.6345    3.1110   -3.6231 C   0  0  0  0  0  0  0  0  0  0  0  0
   -1.3902    4.6194   -3.7053 C   0  0  0  0  0  0  0  0  0  0  0  0
   -1.7219    5.1822   -2.3275 C   0  0  0  0  0  0  0  0  0  0  0  0
   -1.6283    3.9884   -1.3931 C   0  0  0  0  0  0  0  0  0  0  0  0
   -3.0656   -1.2172   -0.2794 C   0  0  0  0  0  0  0  0  0  0  0  0
   -2.9297   -2.4221    0.4366 C   0  0  0  0  0  0  0  0  0  0  0  0
   -3.8038   -2.7479    1.4753 C   0  0  0  0  0  0  0  0  0  0  0  0
   -4.8379   -1.8801    1.8127 C   0  0  0  0  0  0  0  0  0  0  0  0
   -4.9990   -0.6902    1.1074 C   0  0  0  0  0  0  0  0  0  0  0  0
   -4.1235   -0.3619    0.0678 C   0  0  0  0  0  0  0  0  0  0  0  0
    4.4934    1.3967    5.2979 N   0  0  0  0  0  0  0  0  0  0  0  0
    5.7748    1.1716    5.7655 O   0  0  0  0  0  0  0  0  0  0  0  0
    8.1417   -0.9200    4.7141 H   0  0  0  0  0  0  0  0  0  0  0  0
    7.8618   -0.3299    6.3628 H   0  0  0  0  0  0  0  0  0  0  0  0
    8.4569    0.7799    5.1113 H   0  0  0  0  0  0  0  0  0  0  0  0
    5.7647   -0.7517    3.1201 H   0  0  0  0  0  0  0  0  0  0  0  0
    2.4719    1.2614    3.9129 H   0  0  0  0  0  0  0  0  0  0  0  0
    0.8183   -0.1790    2.6179 H   0  0  0  0  0  0  0  0  0  0  0  0
    1.3425    1.2798    1.7551 H   0  0  0  0  0  0  0  0  0  0  0  0
    1.9192   -0.0838   -0.2382 H   0  0  0  0  0  0  0  0  0  0  0  0
    1.4310   -1.5653    0.6233 H   0  0  0  0  0  0  0  0  0  0  0  0
    1.2876   -1.4581   -1.7708 H   0  0  0  0  0  0  0  0  0  0  0  0
    0.0251   -1.2647   -2.9610 H   0  0  0  0  0  0  0  0  0  0  0  0
   -1.2477   -3.4999   -3.7120 H   0  0  0  0  0  0  0  0  0  0  0  0
   -1.1974   -6.0812   -3.1311 H   0  0  0  0  0  0  0  0  0  0  0  0
    0.2740   -6.5416   -0.9947 H   0  0  0  0  0  0  0  0  0  0  0  0
   -2.2682   -1.7096   -2.1425 H   0  0  0  0  0  0  0  0  0  0  0  0
   -1.6376    1.5025   -0.6973 H   0  0  0  0  0  0  0  0  0  0  0  0
   -3.3062    2.9334   -2.2599 H   0  0  0  0  0  0  0  0  0  0  0  0
   -0.6881    2.5755   -3.7673 H   0  0  0  0  0  0  0  0  0  0  0  0
   -2.3179    2.7739   -4.4094 H   0  0  0  0  0  0  0  0  0  0  0  0
   -2.0071    5.0885   -4.4803 H   0  0  0  0  0  0  0  0  0  0  0  0
   -0.3415    4.8143   -3.9589 H   0  0  0  0  0  0  0  0  0  0  0  0
   -2.7443    5.5808   -2.3236 H   0  0  0  0  0  0  0  0  0  0  0  0
   -1.0443    5.9914   -2.0382 H   0  0  0  0  0  0  0  0  0  0  0  0
   -0.5807    3.7890   -1.1316 H   0  0  0  0  0  0  0  0  0  0  0  0
   -2.1810    4.1461   -0.4609 H   0  0  0  0  0  0  0  0  0  0  0  0
   -2.1327   -3.1198    0.1894 H   0  0  0  0  0  0  0  0  0  0  0  0
   -3.6742   -3.6797    2.0188 H   0  0  0  0  0  0  0  0  0  0  0  0
   -5.5185   -2.1302    2.6222 H   0  0  0  0  0  0  0  0  0  0  0  0
   -5.8087   -0.0120    1.3659 H   0  0  0  0  0  0  0  0  0  0  0  0
   -4.2899    0.5749   -0.4590 H   0  0  0  0  0  0  0  0  0  0  0  0
  1  2  1  0
  2  3  2  0
  3  4  1  0
  4  5  1  0
  5  6  1  0
  6  7  2  0
  6  8  1  0
  8  9  1  0
  9 10  1  0
 10 11  2  0
 10 12  1  0
 12 13  1  0
 13 14  1  0
 14 15  2  0
 15 16  1  0
 16 17  2  0
 17 18  1  0
 12 19  1  0
 19 20  1  0
 20 21  2  0
 20 22  1  0
 22 23  1  0
 23 24  1  0
 24 25  1  0
 25 26  1  0
 26 27  1  0
 19 28  1  0
 28 29  2  0
 29 30  1  0
 30 31  2  0
 31 32  1  0
 32 33  2  0
  4 34  2  0
 34 35  1  0
 35  2  1  0
 18 14  1  0
 27 23  1  0
 33 28  1  0
  1 36  1  0
  1 37  1  0
  1 38  1  0
  3 39  1  0
  5 40  1  0
  8 41  1  0
  8 42  1  0
  9 43  1  0
  9 44  1  0
 13 45  1  0
 13 46  1  0
 15 47  1  0
 16 48  1  0
 17 49  1  0
 19 50  1  0
 22 51  1  0
 23 52  1  0
 24 53  1  0
 24 54  1  0
 25 55  1  0
 25 56  1  0
 26 57  1  0
 26 58  1  0
 27 59  1  0
 27 60  1  0
 29 61  1  0
 30 62  1  0
 31 63  1  0
 32 64  1  0
 33 65  1  0
M  END
$$$$
