
     RDKit          3D

 49 52  0  0  0  0  0  0  0  0999 V2000
   -4.4223   -1.7070    0.7317 C   0  0  0  0  0  0  0  0  0  0  0  0
   -4.2102   -0.2201    0.5326 C   0  0  0  0  0  0  0  0  0  0  0  0
   -3.0772    0.3099    0.1724 N   0  0  0  0  0  0  0  0  0  0  0  0
   -2.0149   -0.5006   -0.0844 N   0  0  0  0  0  0  0  0  0  0  0  0
   -0.7831    0.0375   -0.4290 C   0  0  0  0  0  0  0  0  0  0  0  0
   -0.5273    1.2355   -0.4993 O   0  0  0  0  0  0  0  0  0  0  0  0
    0.2083   -0.9955   -0.7205 C   0  0  0  0  0  0  0  0  0  0  0  0
   -0.1094   -2.3282   -0.7119 N   0  0  0  0  0  0  0  0  0  0  0  0
    0.9786   -3.0155   -1.0066 N   0  0  0  0  0  0  0  0  0  0  0  0
    2.0139   -2.1495   -1.2281 N   0  0  0  0  0  0  0  0  0  0  0  0
    3.3004   -2.6223   -1.5957 C   0  0  0  0  0  0  0  0  0  0  0  0
    4.3053   -1.7815   -1.8418 N   0  0  0  0  0  0  0  0  0  0  0  0
    5.3794   -2.6133   -2.1508 O   0  0  0  0  0  0  0  0  0  0  0  0
    5.0097   -3.9530   -2.1037 N   0  0  0  0  0  0  0  0  0  0  0  0
    3.7202   -3.9555   -1.7686 C   0  0  0  0  0  0  0  0  0  0  0  0
    2.9763   -5.0692   -1.6299 N   0  0  0  0  0  0  0  0  0  0  0  0
    1.5519   -0.8508   -1.0299 C   0  0  0  0  0  0  0  0  0  0  0  0
    2.3960    0.3672   -1.1124 C   0  0  0  0  0  0  0  0  0  0  0  0
    3.1992    0.3532    0.0645 O   0  0  0  0  0  0  0  0  0  0  0  0
    4.1332    1.3436    0.1937 C   0  0  0  0  0  0  0  0  0  0  0  0
    4.9915    1.1929    1.2892 C   0  0  0  0  0  0  0  0  0  0  0  0
    5.9922    2.1322    1.5415 C   0  0  0  0  0  0  0  0  0  0  0  0
    6.1283    3.2244    0.6956 C   0  0  0  0  0  0  0  0  0  0  0  0
    7.0866    4.1294    0.9330 F   0  0  0  0  0  0  0  0  0  0  0  0
    5.2815    3.3925   -0.3935 C   0  0  0  0  0  0  0  0  0  0  0  0
    4.2791    2.4508   -0.6464 C   0  0  0  0  0  0  0  0  0  0  0  0
   -5.3687    0.6978    0.7662 C   0  0  0  0  0  0  0  0  0  0  0  0
   -5.1168    2.0160    1.1737 C   0  0  0  0  0  0  0  0  0  0  0  0
   -6.1751    2.9017    1.3943 C   0  0  0  0  0  0  0  0  0  0  0  0
   -7.4861    2.4736    1.1995 C   0  0  0  0  0  0  0  0  0  0  0  0
   -8.7910    3.5610    1.4696 Cl  0  0  0  0  0  0  0  0  0  0  0  0
   -7.7473    1.1696    0.7803 C   0  0  0  0  0  0  0  0  0  0  0  0
   -6.6896    0.2812    0.5591 C   0  0  0  0  0  0  0  0  0  0  0  0
   -3.6077   -2.1216    1.3332 H   0  0  0  0  0  0  0  0  0  0  0  0
   -4.4443   -2.2033   -0.2426 H   0  0  0  0  0  0  0  0  0  0  0  0
   -5.3487   -1.9254    1.2675 H   0  0  0  0  0  0  0  0  0  0  0  0
   -2.1162   -1.5099   -0.0842 H   0  0  0  0  0  0  0  0  0  0  0  0
    2.0558   -5.0409   -1.1954 H   0  0  0  0  0  0  0  0  0  0  0  0
    3.4408   -5.9701   -1.5821 H   0  0  0  0  0  0  0  0  0  0  0  0
    3.0052    0.3617   -2.0228 H   0  0  0  0  0  0  0  0  0  0  0  0
    1.7801    1.2707   -1.1277 H   0  0  0  0  0  0  0  0  0  0  0  0
    4.8797    0.3354    1.9482 H   0  0  0  0  0  0  0  0  0  0  0  0
    6.6607    2.0176    2.3881 H   0  0  0  0  0  0  0  0  0  0  0  0
    5.4038    4.2572   -1.0381 H   0  0  0  0  0  0  0  0  0  0  0  0
    3.6293    2.6175   -1.4990 H   0  0  0  0  0  0  0  0  0  0  0  0
   -4.0944    2.3613    1.3212 H   0  0  0  0  0  0  0  0  0  0  0  0
   -5.9667    3.9201    1.7121 H   0  0  0  0  0  0  0  0  0  0  0  0
   -8.7708    0.8415    0.6165 H   0  0  0  0  0  0  0  0  0  0  0  0
   -6.9191   -0.7198    0.2052 H   0  0  0  0  0  0  0  0  0  0  0  0
  1  2  1  0
  2  3  2  3
  3  4  1  0
  4  5  1  0
  5  6  2  0
  5  7  1  0
  7  8  1  0
  8  9  2  0
  9 10  1  0
 10 11  1  0
 11 12  2  0
 12 13  1  0
 13 14  1  0
 14 15  2  0
 15 16  1  0
 10 17  1  0
 17 18  1  0
 18 19  1  0
 19 20  1  0
 20 21  2  0
 21 22  1  0
 22 23  2  0
 23 24  1  0
 23 25  1  0
 25 26  2  0
  2 27  1  0
 27 28  2  0
 28 29  1  0
 29 30  2  0
 30 31  1  0
 30 32  1  0
 32 33  2  0
 17  7  2  0
 26 20  1  0
 33 27  1  0
 15 11  1  0
  1 34  1  0
  1 35  1  0
  1 36  1  0
  4 37  1  0
 16 38  1  0
 16 39  1  0
 18 40  1  0
 18 41  1  0
 21 42  1  0
 22 43  1  0
 25 44  1  0
 26 45  1  0
 28 46  1  0
 29 47  1  0
 32 48  1  0
 33 49  1  0
M  END
$$$$
