
     RDKit          3D

 57 60  0  0  0  0  0  0  0  0999 V2000
   -8.1320    2.6131   -0.9039 C   0  0  0  0  0  0  0  0  0  0  0  0
   -7.7109    1.2668   -1.0875 O   0  0  0  0  0  0  0  0  0  0  0  0
   -6.5148    0.9118   -0.5227 C   0  0  0  0  0  0  0  0  0  0  0  0
   -5.7146    1.7272    0.2757 C   0  0  0  0  0  0  0  0  0  0  0  0
   -4.5089    1.2429    0.7961 C   0  0  0  0  0  0  0  0  0  0  0  0
   -4.0951   -0.0599    0.5203 C   0  0  0  0  0  0  0  0  0  0  0  0
   -2.8904   -0.6208    0.9991 N   0  0  0  0  0  0  0  0  0  0  0  0
   -1.9318   -0.0401    1.8050 C   0  0  0  0  0  0  0  0  0  0  0  0
   -1.9795    1.0893    2.2856 O   0  0  0  0  0  0  0  0  0  0  0  0
   -0.7481   -0.9493    2.0755 C   0  0  0  0  0  0  0  0  0  0  0  0
    0.3642   -0.6599    1.1838 N   0  0  0  0  0  0  0  0  0  0  0  0
    1.3538    0.2449    1.4665 C   0  0  0  0  0  0  0  0  0  0  0  0
    2.2295    0.2621    0.4013 C   0  0  0  0  0  0  0  0  0  0  0  0
    3.6734    1.2149    0.2903 S   0  0  0  0  0  6  0  0  0  0  0  0
    3.6614    1.7269   -1.0664 O   0  0  0  0  0  0  0  0  0  0  0  0
    3.6188    2.0794    1.4544 O   0  0  0  0  0  0  0  0  0  0  0  0
    4.9599   -0.0133    0.4916 C   0  0  0  0  0  0  0  0  0  0  0  0
    6.3048    0.6641    0.4653 C   0  0  0  0  0  0  0  0  0  0  0  0
    6.9223    1.0656    1.6585 C   0  0  0  0  0  0  0  0  0  0  0  0
    8.1672    1.6961    1.6338 C   0  0  0  0  0  0  0  0  0  0  0  0
    8.8058    1.9344    0.4184 C   0  0  0  0  0  0  0  0  0  0  0  0
    8.1984    1.5469   -0.7744 C   0  0  0  0  0  0  0  0  0  0  0  0
    6.9537    0.9159   -0.7528 C   0  0  0  0  0  0  0  0  0  0  0  0
    1.7629   -0.6722   -0.5669 C   0  0  0  0  0  0  0  0  0  0  0  0
    2.2093   -1.0868   -1.8413 C   0  0  0  0  0  0  0  0  0  0  0  0
    1.5088   -2.0756   -2.5379 C   0  0  0  0  0  0  0  0  0  0  0  0
    0.3744   -2.6576   -1.9859 C   0  0  0  0  0  0  0  0  0  0  0  0
   -0.0972   -2.2627   -0.7312 C   0  0  0  0  0  0  0  0  0  0  0  0
    0.6049   -1.2616   -0.0377 C   0  0  0  0  0  0  0  0  0  0  0  0
   -4.9019   -0.8886   -0.2869 C   0  0  0  0  0  0  0  0  0  0  0  0
   -4.4112   -2.1582   -0.5024 O   0  0  0  0  0  0  0  0  0  0  0  0
   -5.1534   -2.9873   -1.3903 C   0  0  0  0  0  0  0  0  0  0  0  0
   -6.1071   -0.3971   -0.7970 C   0  0  0  0  0  0  0  0  0  0  0  0
   -8.3174    2.8270    0.1544 H   0  0  0  0  0  0  0  0  0  0  0  0
   -9.0764    2.7431   -1.4417 H   0  0  0  0  0  0  0  0  0  0  0  0
   -7.4066    3.3153   -1.3295 H   0  0  0  0  0  0  0  0  0  0  0  0
   -5.9939    2.7482    0.5180 H   0  0  0  0  0  0  0  0  0  0  0  0
   -3.9137    1.9128    1.4092 H   0  0  0  0  0  0  0  0  0  0  0  0
   -2.7467   -1.5713    0.6732 H   0  0  0  0  0  0  0  0  0  0  0  0
   -0.4103   -0.7985    3.1068 H   0  0  0  0  0  0  0  0  0  0  0  0
   -1.0150   -2.0061    1.9763 H   0  0  0  0  0  0  0  0  0  0  0  0
    1.3512    0.8197    2.3857 H   0  0  0  0  0  0  0  0  0  0  0  0
    4.7975   -0.5256    1.4458 H   0  0  0  0  0  0  0  0  0  0  0  0
    4.8816   -0.7444   -0.3186 H   0  0  0  0  0  0  0  0  0  0  0  0
    6.4343    0.9024    2.6178 H   0  0  0  0  0  0  0  0  0  0  0  0
    8.6350    2.0100    2.5639 H   0  0  0  0  0  0  0  0  0  0  0  0
    9.7721    2.4317    0.3997 H   0  0  0  0  0  0  0  0  0  0  0  0
    8.6912    1.7460   -1.7234 H   0  0  0  0  0  0  0  0  0  0  0  0
    6.4898    0.6347   -1.6968 H   0  0  0  0  0  0  0  0  0  0  0  0
    3.0835   -0.6313   -2.2998 H   0  0  0  0  0  0  0  0  0  0  0  0
    1.8519   -2.3848   -3.5222 H   0  0  0  0  0  0  0  0  0  0  0  0
   -0.1599   -3.4243   -2.5424 H   0  0  0  0  0  0  0  0  0  0  0  0
   -0.9872   -2.7281   -0.3236 H   0  0  0  0  0  0  0  0  0  0  0  0
   -6.1438   -3.2129   -0.9818 H   0  0  0  0  0  0  0  0  0  0  0  0
   -5.2242   -2.5354   -2.3855 H   0  0  0  0  0  0  0  0  0  0  0  0
   -4.6122   -3.9334   -1.4942 H   0  0  0  0  0  0  0  0  0  0  0  0
   -6.7573   -1.0064   -1.4160 H   0  0  0  0  0  0  0  0  0  0  0  0
  1  2  1  0
  2  3  1  0
  3  4  2  0
  4  5  1  0
  5  6  2  0
  6  7  1  0
  7  8  1  0
  8  9  2  0
  8 10  1  0
 10 11  1  0
 11 12  1  0
 12 13  2  0
 13 14  1  0
 14 15  2  0
 14 16  2  0
 14 17  1  0
 17 18  1  0
 18 19  2  0
 19 20  1  0
 20 21  2  0
 21 22  1  0
 22 23  2  0
 13 24  1  0
 24 25  2  0
 25 26  1  0
 26 27  2  0
 27 28  1  0
 28 29  2  0
  6 30  1  0
 30 31  1  0
 31 32  1  0
 30 33  2  0
 33  3  1  0
 29 11  1  0
 23 18  1  0
 29 24  1  0
  1 34  1  0
  1 35  1  0
  1 36  1  0
  4 37  1  0
  5 38  1  0
  7 39  1  0
 10 40  1  0
 10 41  1  0
 12 42  1  0
 17 43  1  0
 17 44  1  0
 19 45  1  0
 20 46  1  0
 21 47  1  0
 22 48  1  0
 23 49  1  0
 25 50  1  0
 26 51  1  0
 27 52  1  0
 28 53  1  0
 32 54  1  0
 32 55  1  0
 32 56  1  0
 33 57  1  0
M  END
$$$$
