
     RDKit          3D

 33 33  0  0  0  0  0  0  0  0999 V2000
   -3.8988    3.4923   -0.7425 C   0  0  0  0  0  0  0  0  0  0  0  0
   -3.6297    2.5224    0.3811 C   0  0  0  0  0  0  0  0  0  0  0  0
   -4.3903    2.4506    1.3401 O   0  0  0  0  0  0  0  0  0  0  0  0
   -2.4939    1.7716    0.1653 N   0  0  0  0  0  0  0  0  0  0  0  0
   -1.9585    0.7426    0.9717 C   0  0  0  0  0  0  0  0  0  0  0  0
   -2.5478    0.3021    2.1580 C   0  0  0  0  0  0  0  0  0  0  0  0
   -1.9695   -0.7405    2.8863 C   0  0  0  0  0  0  0  0  0  0  0  0
   -0.8063   -1.3548    2.4290 C   0  0  0  0  0  0  0  0  0  0  0  0
   -0.2032   -0.9196    1.2484 C   0  0  0  0  0  0  0  0  0  0  0  0
   -0.7609    0.1418    0.5296 C   0  0  0  0  0  0  0  0  0  0  0  0
   -0.2325    0.6376   -0.6412 O   0  0  0  0  0  0  0  0  0  0  0  0
    1.1844    0.6183   -0.7425 C   0  0  0  0  0  0  0  0  0  0  0  0
    1.7734   -0.6094   -1.4475 C   0  0  0  0  0  0  0  0  0  0  0  0
    1.0995   -1.4946   -1.9628 O   0  0  0  0  0  0  0  0  0  0  0  0
    3.1567   -0.6365   -1.4597 N   0  0  0  0  0  0  0  0  0  0  0  0
    3.8620   -1.8278   -1.9423 C   0  0  0  0  0  0  0  0  0  0  0  0
    4.0274   -2.9392   -0.9017 C   0  0  0  0  0  0  0  0  0  0  0  0
    4.7348   -2.4786    0.1599 F   0  0  0  0  0  0  0  0  0  0  0  0
    2.8491   -3.3969   -0.4343 F   0  0  0  0  0  0  0  0  0  0  0  0
    4.7096   -3.9855   -1.4174 F   0  0  0  0  0  0  0  0  0  0  0  0
   -4.5200    3.0047   -1.4982 H   0  0  0  0  0  0  0  0  0  0  0  0
   -2.9675    3.8367   -1.2012 H   0  0  0  0  0  0  0  0  0  0  0  0
   -4.4234    4.3669   -0.3470 H   0  0  0  0  0  0  0  0  0  0  0  0
   -1.9679    1.9307   -0.6880 H   0  0  0  0  0  0  0  0  0  0  0  0
   -3.4646    0.7420    2.5371 H   0  0  0  0  0  0  0  0  0  0  0  0
   -2.4422   -1.0824    3.8039 H   0  0  0  0  0  0  0  0  0  0  0  0
   -0.3761   -2.1840    2.9856 H   0  0  0  0  0  0  0  0  0  0  0  0
    0.6783   -1.4475    0.9008 H   0  0  0  0  0  0  0  0  0  0  0  0
    1.4612    1.4868   -1.3523 H   0  0  0  0  0  0  0  0  0  0  0  0
    1.6662    0.7577    0.2339 H   0  0  0  0  0  0  0  0  0  0  0  0
    3.6662    0.0058   -0.8636 H   0  0  0  0  0  0  0  0  0  0  0  0
    3.3344   -2.2231   -2.8169 H   0  0  0  0  0  0  0  0  0  0  0  0
    4.8500   -1.4903   -2.2717 H   0  0  0  0  0  0  0  0  0  0  0  0
  1  2  1  0
  2  3  2  0
  2  4  1  0
  4  5  1  0
  5  6  2  0
  6  7  1  0
  7  8  2  0
  8  9  1  0
  9 10  2  0
 10 11  1  0
 11 12  1  0
 12 13  1  0
 13 14  2  0
 13 15  1  0
 15 16  1  0
 16 17  1  0
 17 18  1  0
 17 19  1  0
 17 20  1  0
 10  5  1  0
  1 21  1  0
  1 22  1  0
  1 23  1  0
  4 24  1  0
  6 25  1  0
  7 26  1  0
  8 27  1  0
  9 28  1  0
 12 29  1  0
 12 30  1  0
 15 31  1  0
 16 32  1  0
 16 33  1  0
M  END
$$$$
