
     RDKit          3D

 54 56  0  0  0  0  0  0  0  0999 V2000
    9.8450   -0.4279    0.0105 C   0  0  0  0  0  0  0  0  0  0  0  0
    8.9072    0.4338   -0.6203 O   0  0  0  0  0  0  0  0  0  0  0  0
    7.5909    0.0748   -0.5406 C   0  0  0  0  0  0  0  0  0  0  0  0
    6.6914    1.0341   -1.0096 C   0  0  0  0  0  0  0  0  0  0  0  0
    5.3143    0.8005   -0.9763 C   0  0  0  0  0  0  0  0  0  0  0  0
    4.8177   -0.4069   -0.4793 C   0  0  0  0  0  0  0  0  0  0  0  0
    3.3305   -0.6537   -0.4034 C   0  0  0  0  0  0  0  0  0  0  0  0
    2.7795   -0.2702    0.9765 C   0  0  0  0  0  0  0  0  0  0  0  0
    1.2810   -0.5407    1.1083 C   0  0  0  0  0  0  0  0  0  0  0  0
    0.4606    0.4447    0.3679 C   0  0  0  0  0  0  0  0  0  0  0  0
   -0.1263    0.3474   -0.8086 N   0  0  0  0  0  0  0  0  0  0  0  0
   -0.7826    1.5445   -1.0067 N   0  0  0  0  0  0  0  0  0  0  0  0
   -0.5608    2.2819    0.0672 C   0  0  0  0  0  0  0  0  0  0  0  0
   -1.2134    3.8691    0.3312 S   0  0  0  0  0  0  0  0  0  0  0  0
   -2.7333    3.7516   -0.6526 C   0  0  0  0  0  0  0  0  0  0  0  0
   -3.6807    2.7155   -0.0589 C   0  0  0  0  0  0  0  0  0  0  0  0
   -4.2338    2.9108    1.0198 O   0  0  0  0  0  0  0  0  0  0  0  0
   -3.8150    1.5837   -0.8509 N   0  0  0  0  0  0  0  0  0  0  0  0
   -4.6677    0.4712   -0.6568 C   0  0  0  0  0  0  0  0  0  0  0  0
   -5.5758    0.3769    0.4034 C   0  0  0  0  0  0  0  0  0  0  0  0
   -6.4202   -0.7412    0.5566 C   0  0  0  0  0  0  0  0  0  0  0  0
   -7.3700   -0.7702    1.7271 C   0  0  0  0  0  0  0  0  0  0  0  0
   -6.3833   -1.7735   -0.4013 C   0  0  0  0  0  0  0  0  0  0  0  0
   -7.2567   -2.9943   -0.3112 C   0  0  0  0  0  0  0  0  0  0  0  0
   -5.4581   -1.6932   -1.4547 C   0  0  0  0  0  0  0  0  0  0  0  0
   -4.6148   -0.5866   -1.5809 C   0  0  0  0  0  0  0  0  0  0  0  0
   -3.4105   -0.5599   -3.0564 Br  0  0  0  0  0  0  0  0  0  0  0  0
    0.2418    1.6487    0.9788 O   0  0  0  0  0  0  0  0  0  0  0  0
    5.7226   -1.3726   -0.0211 C   0  0  0  0  0  0  0  0  0  0  0  0
    7.1015   -1.1344   -0.0527 C   0  0  0  0  0  0  0  0  0  0  0  0
   10.8276    0.0477   -0.0465 H   0  0  0  0  0  0  0  0  0  0  0  0
    9.9075   -1.3928   -0.5097 H   0  0  0  0  0  0  0  0  0  0  0  0
    9.6105   -0.5660    1.0713 H   0  0  0  0  0  0  0  0  0  0  0  0
    7.0685    1.9793   -1.3986 H   0  0  0  0  0  0  0  0  0  0  0  0
    4.6368    1.5691   -1.3379 H   0  0  0  0  0  0  0  0  0  0  0  0
    2.8267   -0.0864   -1.1972 H   0  0  0  0  0  0  0  0  0  0  0  0
    3.1279   -1.7129   -0.6116 H   0  0  0  0  0  0  0  0  0  0  0  0
    2.9974    0.7881    1.1860 H   0  0  0  0  0  0  0  0  0  0  0  0
    3.3032   -0.8525    1.7492 H   0  0  0  0  0  0  0  0  0  0  0  0
    1.0067   -0.4959    2.1697 H   0  0  0  0  0  0  0  0  0  0  0  0
    1.0424   -1.5548    0.7671 H   0  0  0  0  0  0  0  0  0  0  0  0
   -3.2454    4.7189   -0.6399 H   0  0  0  0  0  0  0  0  0  0  0  0
   -2.4944    3.5311   -1.6972 H   0  0  0  0  0  0  0  0  0  0  0  0
   -3.1891    1.4935   -1.6529 H   0  0  0  0  0  0  0  0  0  0  0  0
   -5.6461    1.1692    1.1427 H   0  0  0  0  0  0  0  0  0  0  0  0
   -8.3868   -0.5266    1.3897 H   0  0  0  0  0  0  0  0  0  0  0  0
   -7.0831   -0.0433    2.4994 H   0  0  0  0  0  0  0  0  0  0  0  0
   -7.3680   -1.7559    2.2065 H   0  0  0  0  0  0  0  0  0  0  0  0
   -8.1859   -2.7951    0.2239 H   0  0  0  0  0  0  0  0  0  0  0  0
   -7.5409   -3.3394   -1.3089 H   0  0  0  0  0  0  0  0  0  0  0  0
   -6.7152   -3.7982    0.1963 H   0  0  0  0  0  0  0  0  0  0  0  0
   -5.4018   -2.4997   -2.1844 H   0  0  0  0  0  0  0  0  0  0  0  0
    5.3577   -2.3253    0.3620 H   0  0  0  0  0  0  0  0  0  0  0  0
    7.7632   -1.9164    0.3056 H   0  0  0  0  0  0  0  0  0  0  0  0
  1  2  1  0
  2  3  1  0
  3  4  2  0
  4  5  1  0
  5  6  2  0
  6  7  1  0
  7  8  1  0
  8  9  1  0
  9 10  1  0
 10 11  2  0
 11 12  1  0
 12 13  2  0
 13 14  1  0
 14 15  1  0
 15 16  1  0
 16 17  2  0
 16 18  1  0
 18 19  1  0
 19 20  2  0
 20 21  1  0
 21 22  1  0
 21 23  2  0
 23 24  1  0
 23 25  1  0
 25 26  2  0
 26 27  1  0
 13 28  1  0
  6 29  1  0
 29 30  2  0
 30  3  1  0
 28 10  1  0
 26 19  1  0
  1 31  1  0
  1 32  1  0
  1 33  1  0
  4 34  1  0
  5 35  1  0
  7 36  1  0
  7 37  1  0
  8 38  1  0
  8 39  1  0
  9 40  1  0
  9 41  1  0
 15 42  1  0
 15 43  1  0
 18 44  1  0
 20 45  1  0
 22 46  1  0
 22 47  1  0
 22 48  1  0
 24 49  1  0
 24 50  1  0
 24 51  1  0
 25 52  1  0
 29 53  1  0
 30 54  1  0
M  END
$$$$
