
     RDKit          3D

 60 63  0  0  0  0  0  0  0  0999 V2000
   -6.6054    0.2577   -4.3675 C   0  0  0  0  0  0  0  0  0  0  0  0
   -5.2132   -0.2026   -4.0566 C   0  0  0  0  0  0  0  0  0  0  0  0
   -4.1987    0.7191   -3.8848 C   0  0  0  0  0  0  0  0  0  0  0  0
   -2.9482    0.2138   -3.5918 C   0  0  0  0  0  0  0  0  0  0  0  0
   -1.7831    1.1325   -3.3821 C   0  0  0  0  0  0  0  0  0  0  0  0
   -2.7142   -1.1071   -3.4927 N   0  0  0  0  0  0  0  0  0  0  0  0
   -3.7544   -1.9296   -3.6923 C   0  0  0  0  0  0  0  0  0  0  0  0
   -3.4526   -3.6733   -3.6553 S   0  0  0  0  0  0  0  0  0  0  0  0
   -3.1107   -3.8595   -1.8844 C   0  0  0  0  0  0  0  0  0  0  0  0
   -1.7992   -3.2869   -1.4645 C   0  0  0  0  0  0  0  0  0  0  0  0
   -0.6273   -3.5147   -2.0313 N   0  0  0  0  0  0  0  0  0  0  0  0
    0.3176   -2.7491   -1.3978 N   0  0  0  0  0  0  0  0  0  0  0  0
   -0.2847   -2.0926   -0.4376 C   0  0  0  0  0  0  0  0  0  0  0  0
    0.4694   -0.9683    0.6335 S   0  0  0  0  0  0  0  0  0  0  0  0
    1.8917   -0.4815   -0.3893 C   0  0  0  0  0  0  0  0  0  0  0  0
    2.7373    0.5141    0.3865 C   0  0  0  0  0  0  0  0  0  0  0  0
    2.6092    1.7224    0.2080 O   0  0  0  0  0  0  0  0  0  0  0  0
    3.6055   -0.1043    1.2752 N   0  0  0  0  0  0  0  0  0  0  0  0
    4.5255    0.5062    2.1516 C   0  0  0  0  0  0  0  0  0  0  0  0
    5.2585   -0.3368    2.9918 C   0  0  0  0  0  0  0  0  0  0  0  0
    6.1873    0.1875    3.8942 C   0  0  0  0  0  0  0  0  0  0  0  0
    6.4040    1.5687    3.9777 C   0  0  0  0  0  0  0  0  0  0  0  0
    7.4139    2.1003    4.9566 C   0  0  0  0  0  0  0  0  0  0  0  0
    5.6794    2.4260    3.1280 C   0  0  0  0  0  0  0  0  0  0  0  0
    5.8735    3.9178    3.1699 C   0  0  0  0  0  0  0  0  0  0  0  0
    4.7438    1.8825    2.2258 C   0  0  0  0  0  0  0  0  0  0  0  0
   -1.6058   -2.4433   -0.3888 N   0  0  0  0  0  0  0  0  0  0  0  0
   -2.5644   -2.1203    0.6497 C   0  0  0  0  0  0  0  0  0  0  0  0
   -3.4213   -0.9711    0.2789 C   0  0  0  0  0  0  0  0  0  0  0  0
   -3.2253    0.3939    0.2210 C   0  0  0  0  0  0  0  0  0  0  0  0
   -4.4652    0.9592   -0.1652 C   0  0  0  0  0  0  0  0  0  0  0  0
   -5.3353   -0.0937   -0.3199 C   0  0  0  0  0  0  0  0  0  0  0  0
   -4.7126   -1.2674   -0.0463 O   0  0  0  0  0  0  0  0  0  0  0  0
   -5.0075   -1.5313   -3.9636 N   0  0  0  0  0  0  0  0  0  0  0  0
   -6.9608    0.9402   -3.5889 H   0  0  0  0  0  0  0  0  0  0  0  0
   -6.6266    0.7709   -5.3341 H   0  0  0  0  0  0  0  0  0  0  0  0
   -7.2958   -0.5912   -4.4148 H   0  0  0  0  0  0  0  0  0  0  0  0
   -4.3756    1.7838   -3.9696 H   0  0  0  0  0  0  0  0  0  0  0  0
   -2.0054    1.8545   -2.5900 H   0  0  0  0  0  0  0  0  0  0  0  0
   -1.5556    1.6711   -4.3067 H   0  0  0  0  0  0  0  0  0  0  0  0
   -0.8917    0.5699   -3.0855 H   0  0  0  0  0  0  0  0  0  0  0  0
   -3.0940   -4.9336   -1.6691 H   0  0  0  0  0  0  0  0  0  0  0  0
   -3.9520   -3.4449   -1.3245 H   0  0  0  0  0  0  0  0  0  0  0  0
    1.5507   -0.0075   -1.3157 H   0  0  0  0  0  0  0  0  0  0  0  0
    2.5013   -1.3518   -0.6548 H   0  0  0  0  0  0  0  0  0  0  0  0
    3.5433   -1.1138    1.3365 H   0  0  0  0  0  0  0  0  0  0  0  0
    5.1195   -1.4144    2.9618 H   0  0  0  0  0  0  0  0  0  0  0  0
    6.7416   -0.4956    4.5352 H   0  0  0  0  0  0  0  0  0  0  0  0
    6.9538    2.8417    5.6172 H   0  0  0  0  0  0  0  0  0  0  0  0
    7.8155    1.3036    5.5918 H   0  0  0  0  0  0  0  0  0  0  0  0
    8.2534    2.5567    4.4235 H   0  0  0  0  0  0  0  0  0  0  0  0
    5.2820    4.4238    2.3990 H   0  0  0  0  0  0  0  0  0  0  0  0
    5.5600    4.3130    4.1413 H   0  0  0  0  0  0  0  0  0  0  0  0
    6.9237    4.1715    2.9930 H   0  0  0  0  0  0  0  0  0  0  0  0
    4.1946    2.5653    1.5839 H   0  0  0  0  0  0  0  0  0  0  0  0
   -3.1635   -3.0182    0.8377 H   0  0  0  0  0  0  0  0  0  0  0  0
   -2.0293   -1.9152    1.5817 H   0  0  0  0  0  0  0  0  0  0  0  0
   -2.3046    0.9200    0.4366 H   0  0  0  0  0  0  0  0  0  0  0  0
   -4.6966    2.0045   -0.3123 H   0  0  0  0  0  0  0  0  0  0  0  0
   -6.3755   -0.1724   -0.6052 H   0  0  0  0  0  0  0  0  0  0  0  0
  1  2  1  0
  2  3  2  0
  3  4  1  0
  4  5  1  0
  4  6  2  0
  6  7  1  0
  7  8  1  0
  8  9  1  0
  9 10  1  0
 10 11  2  0
 11 12  1  0
 12 13  2  0
 13 14  1  0
 14 15  1  0
 15 16  1  0
 16 17  2  0
 16 18  1  0
 18 19  1  0
 19 20  2  0
 20 21  1  0
 21 22  2  0
 22 23  1  0
 22 24  1  0
 24 25  1  0
 24 26  2  0
 13 27  1  0
 27 28  1  0
 28 29  1  0
 29 30  2  0
 30 31  1  0
 31 32  2  0
 32 33  1  0
  7 34  2  0
 34  2  1  0
 27 10  1  0
 33 29  1  0
 26 19  1  0
  1 35  1  0
  1 36  1  0
  1 37  1  0
  3 38  1  0
  5 39  1  0
  5 40  1  0
  5 41  1  0
  9 42  1  0
  9 43  1  0
 15 44  1  0
 15 45  1  0
 18 46  1  0
 20 47  1  0
 21 48  1  0
 23 49  1  0
 23 50  1  0
 23 51  1  0
 25 52  1  0
 25 53  1  0
 25 54  1  0
 26 55  1  0
 28 56  1  0
 28 57  1  0
 30 58  1  0
 31 59  1  0
 32 60  1  0
M  END
$$$$
