
     RDKit          3D

 55 59  0  0  0  0  0  0  0  0999 V2000
    6.4498    2.1895   -1.2472 C   0  0  0  0  0  0  0  0  0  0  0  0
    7.0139    1.6972   -0.0342 O   0  0  0  0  0  0  0  0  0  0  0  0
    6.1321    1.1707    0.8699 C   0  0  0  0  0  0  0  0  0  0  0  0
    6.6376    0.9947    2.1647 C   0  0  0  0  0  0  0  0  0  0  0  0
    5.8276    0.4833    3.1814 C   0  0  0  0  0  0  0  0  0  0  0  0
    4.5057    0.1269    2.9053 C   0  0  0  0  0  0  0  0  0  0  0  0
    3.9884    0.2653    1.6053 C   0  0  0  0  0  0  0  0  0  0  0  0
    2.6083   -0.0859    1.2550 C   0  0  0  0  0  0  0  0  0  0  0  0
    1.8425    0.6290    0.4409 N   0  0  0  0  0  0  0  0  0  0  0  0
    0.6318    0.0024    0.3129 N   0  0  0  0  0  0  0  0  0  0  0  0
    0.6731   -1.0968    1.0243 C   0  0  0  0  0  0  0  0  0  0  0  0
   -0.6098   -2.2491    1.1697 S   0  0  0  0  0  0  0  0  0  0  0  0
   -1.7659   -1.5893   -0.1140 C   0  0  0  0  0  0  0  0  0  0  0  0
   -2.4304   -0.2756    0.3638 C   0  0  0  0  0  0  0  0  0  0  0  0
   -2.7472   -0.0972    1.5476 O   0  0  0  0  0  0  0  0  0  0  0  0
   -2.7380    0.7551   -0.6509 C   0  0  0  0  0  0  0  0  0  0  0  0
   -2.5296    0.6641   -2.0228 C   0  0  0  0  0  0  0  0  0  0  0  0
   -2.9108    1.8477   -2.6037 N   0  0  0  0  0  0  0  0  0  0  0  0
   -3.4007    2.7109   -1.6496 C   0  0  0  0  0  0  0  0  0  0  0  0
   -3.9029    4.0108   -1.7912 C   0  0  0  0  0  0  0  0  0  0  0  0
   -4.3398    4.6692   -0.6345 C   0  0  0  0  0  0  0  0  0  0  0  0
   -4.2686    4.0506    0.6120 C   0  0  0  0  0  0  0  0  0  0  0  0
   -3.7499    2.7528    0.7377 C   0  0  0  0  0  0  0  0  0  0  0  0
   -3.3079    2.0587   -0.4150 C   0  0  0  0  0  0  0  0  0  0  0  0
   -2.7725   -2.6633   -0.5216 C   0  0  0  0  0  0  0  0  0  0  0  0
   -2.4529   -3.5470   -1.5701 C   0  0  0  0  0  0  0  0  0  0  0  0
   -3.3499   -4.5464   -1.9654 C   0  0  0  0  0  0  0  0  0  0  0  0
   -4.5782   -4.6773   -1.3174 C   0  0  0  0  0  0  0  0  0  0  0  0
   -4.9054   -3.8185   -0.2680 C   0  0  0  0  0  0  0  0  0  0  0  0
   -4.0051   -2.8259    0.1365 C   0  0  0  0  0  0  0  0  0  0  0  0
    1.8873   -1.1969    1.6565 N   0  0  0  0  0  0  0  0  0  0  0  0
    2.3473   -2.2649    2.5072 C   0  0  0  0  0  0  0  0  0  0  0  0
    4.8118    0.8046    0.5981 C   0  0  0  0  0  0  0  0  0  0  0  0
    7.2483    2.6676   -1.8183 H   0  0  0  0  0  0  0  0  0  0  0  0
    6.0542    1.3680   -1.8571 H   0  0  0  0  0  0  0  0  0  0  0  0
    5.6783    2.9432   -1.0486 H   0  0  0  0  0  0  0  0  0  0  0  0
    7.6639    1.2753    2.3780 H   0  0  0  0  0  0  0  0  0  0  0  0
    6.2246    0.3777    4.1886 H   0  0  0  0  0  0  0  0  0  0  0  0
    3.8837   -0.2316    3.7222 H   0  0  0  0  0  0  0  0  0  0  0  0
   -1.1421   -1.3713   -0.9917 H   0  0  0  0  0  0  0  0  0  0  0  0
   -2.1292   -0.1259   -2.6440 H   0  0  0  0  0  0  0  0  0  0  0  0
   -2.8480    2.0611   -3.5925 H   0  0  0  0  0  0  0  0  0  0  0  0
   -3.9649    4.4844   -2.7698 H   0  0  0  0  0  0  0  0  0  0  0  0
   -4.7404    5.6800   -0.7138 H   0  0  0  0  0  0  0  0  0  0  0  0
   -4.6109    4.5784    1.5031 H   0  0  0  0  0  0  0  0  0  0  0  0
   -3.6938    2.2835    1.7201 H   0  0  0  0  0  0  0  0  0  0  0  0
   -1.4939   -3.4700   -2.0847 H   0  0  0  0  0  0  0  0  0  0  0  0
   -3.0834   -5.2314   -2.7697 H   0  0  0  0  0  0  0  0  0  0  0  0
   -5.2786   -5.4531   -1.6240 H   0  0  0  0  0  0  0  0  0  0  0  0
   -5.8615   -3.9258    0.2421 H   0  0  0  0  0  0  0  0  0  0  0  0
   -4.2850   -2.1832    0.9724 H   0  0  0  0  0  0  0  0  0  0  0  0
    2.2093   -1.9581    3.5502 H   0  0  0  0  0  0  0  0  0  0  0  0
    3.4043   -2.4700    2.2995 H   0  0  0  0  0  0  0  0  0  0  0  0
    1.7863   -3.1819    2.3030 H   0  0  0  0  0  0  0  0  0  0  0  0
    4.3872    0.9336   -0.3959 H   0  0  0  0  0  0  0  0  0  0  0  0
  1  2  1  0
  2  3  1  0
  3  4  2  0
  4  5  1  0
  5  6  2  0
  6  7  1  0
  7  8  1  0
  8  9  2  0
  9 10  1  0
 10 11  2  0
 11 12  1  0
 12 13  1  0
 13 14  1  0
 14 15  2  0
 14 16  1  0
 16 17  2  0
 17 18  1  0
 18 19  1  0
 19 20  2  0
 20 21  1  0
 21 22  2  0
 22 23  1  0
 23 24  2  0
 13 25  1  0
 25 26  2  0
 26 27  1  0
 27 28  2  0
 28 29  1  0
 29 30  2  0
 11 31  1  0
 31 32  1  0
  7 33  2  0
 33  3  1  0
 31  8  1  0
 24 16  1  0
 30 25  1  0
 24 19  1  0
  1 34  1  0
  1 35  1  0
  1 36  1  0
  4 37  1  0
  5 38  1  0
  6 39  1  0
 13 40  1  0
 17 41  1  0
 18 42  1  0
 20 43  1  0
 21 44  1  0
 22 45  1  0
 23 46  1  0
 26 47  1  0
 27 48  1  0
 28 49  1  0
 29 50  1  0
 30 51  1  0
 32 52  1  0
 32 53  1  0
 32 54  1  0
 33 55  1  0
M  END
$$$$
