
     RDKit          3D

 37 38  0  0  0  0  0  0  0  0999 V2000
    3.3632   -2.2880    2.0977 C   0  0  0  0  0  0  0  0  0  0  0  0
    4.0526   -1.4962    1.0012 C   0  0  0  0  0  0  0  0  0  0  0  0
    3.2760   -0.3439    0.5885 N   0  0  0  0  0  0  0  0  0  0  0  0
    2.4267   -0.2714   -0.4730 C   0  0  0  0  0  0  0  0  0  0  0  0
    1.9180    1.0125   -0.4813 C   0  0  0  0  0  0  0  0  0  0  0  0
    0.9428    1.5933   -1.4402 C   0  0  0  0  0  0  0  0  0  0  0  0
   -0.3792    1.1412   -1.0653 N   0  0  0  0  0  0  0  0  0  0  0  0
   -0.9900    0.0959   -1.7231 C   0  0  0  0  0  0  0  0  0  0  0  0
   -0.5265   -0.4525   -2.7160 O   0  0  0  0  0  0  0  0  0  0  0  0
   -2.2749   -0.3890   -1.1458 C   0  0  0  0  0  0  0  0  0  0  0  0
   -2.6445   -1.7226   -1.3764 C   0  0  0  0  0  0  0  0  0  0  0  0
   -3.8414   -2.2283   -0.8636 C   0  0  0  0  0  0  0  0  0  0  0  0
   -4.6852   -1.4024   -0.1214 C   0  0  0  0  0  0  0  0  0  0  0  0
   -4.3243   -0.0656    0.0964 C   0  0  0  0  0  0  0  0  0  0  0  0
   -5.2155    0.8094    0.8684 N   0  0  0  0  0  4  0  0  0  0  0  0
   -6.3143    0.3545    1.2144 O   0  0  0  0  0  0  0  0  0  0  0  0
   -4.8104    1.9508    1.1312 O   0  0  0  0  0  1  0  0  0  0  0  0
   -3.1242    0.4503   -0.4153 C   0  0  0  0  0  0  0  0  0  0  0  0
    2.5410    1.6399    0.6336 C   0  0  0  0  0  0  0  0  0  0  0  0
    2.3737    3.0352    1.1113 C   0  0  0  0  0  0  0  0  0  0  0  0
    3.3616    0.8044    1.2817 N   0  0  0  0  0  0  0  0  0  0  0  0
    3.9705   -3.1530    2.3813 H   0  0  0  0  0  0  0  0  0  0  0  0
    3.2059   -1.6734    2.9903 H   0  0  0  0  0  0  0  0  0  0  0  0
    2.3844   -2.6507    1.7659 H   0  0  0  0  0  0  0  0  0  0  0  0
    5.0306   -1.1345    1.3373 H   0  0  0  0  0  0  0  0  0  0  0  0
    4.2126   -2.1244    0.1181 H   0  0  0  0  0  0  0  0  0  0  0  0
    2.2466   -1.1147   -1.1262 H   0  0  0  0  0  0  0  0  0  0  0  0
    0.9394    2.6864   -1.3873 H   0  0  0  0  0  0  0  0  0  0  0  0
    1.1815    1.3013   -2.4680 H   0  0  0  0  0  0  0  0  0  0  0  0
   -0.6837    1.3845   -0.1339 H   0  0  0  0  0  0  0  0  0  0  0  0
   -1.9943   -2.3737   -1.9601 H   0  0  0  0  0  0  0  0  0  0  0  0
   -4.1146   -3.2654   -1.0475 H   0  0  0  0  0  0  0  0  0  0  0  0
   -5.6152   -1.8097    0.2712 H   0  0  0  0  0  0  0  0  0  0  0  0
   -2.8717    1.4974   -0.2705 H   0  0  0  0  0  0  0  0  0  0  0  0
    2.9155    3.2095    2.0467 H   0  0  0  0  0  0  0  0  0  0  0  0
    1.3158    3.2532    1.2893 H   0  0  0  0  0  0  0  0  0  0  0  0
    2.7516    3.7400    0.3640 H   0  0  0  0  0  0  0  0  0  0  0  0
  1  2  1  0
  2  3  1  0
  3  4  1  0
  4  5  2  0
  5  6  1  0
  6  7  1  0
  7  8  1  0
  8  9  2  0
  8 10  1  0
 10 11  2  0
 11 12  1  0
 12 13  2  0
 13 14  1  0
 14 15  1  0
 15 16  2  0
 15 17  1  0
 14 18  2  0
  5 19  1  0
 19 20  1  0
 19 21  2  0
 21  3  1  0
 18 10  1  0
  1 22  1  0
  1 23  1  0
  1 24  1  0
  2 25  1  0
  2 26  1  0
  4 27  1  0
  6 28  1  0
  6 29  1  0
  7 30  1  0
 11 31  1  0
 12 32  1  0
 13 33  1  0
 18 34  1  0
 20 35  1  0
 20 36  1  0
 20 37  1  0
M  CHG  2  15   1  17  -1
M  END
$$$$
