
     RDKit          3D

 59 62  0  0  0  0  0  0  0  0999 V2000
   -9.0174    3.4611    0.5568 C   0  0  0  0  0  0  0  0  0  0  0  0
   -8.0249    2.3374    0.6312 C   0  0  0  0  0  0  0  0  0  0  0  0
   -7.6960    1.6014   -0.5143 C   0  0  0  0  0  0  0  0  0  0  0  0
   -6.7563    0.5718   -0.4464 C   0  0  0  0  0  0  0  0  0  0  0  0
   -6.1270    0.2920    0.7680 C   0  0  0  0  0  0  0  0  0  0  0  0
   -5.1454   -0.8075    0.8649 C   0  0  0  0  0  0  0  0  0  0  0  0
   -5.4252   -1.7601    1.5880 O   0  0  0  0  0  0  0  0  0  0  0  0
   -3.9608   -0.7026    0.1433 N   0  0  0  0  0  0  0  0  0  0  0  0
   -3.4657    0.5649   -0.4099 C   0  0  0  0  0  0  0  0  0  0  0  0
   -2.0220    0.4907   -0.9517 C   0  0  0  0  0  0  0  0  0  0  0  0
   -1.1122   -0.0975    0.0442 N   0  0  0  0  0  0  0  0  0  0  0  0
    0.2553    0.1324    0.0075 C   0  0  0  0  0  0  0  0  0  0  0  0
    1.0717   -0.1568    1.1097 C   0  0  0  0  0  0  0  0  0  0  0  0
    2.4526    0.0813    1.0967 C   0  0  0  0  0  0  0  0  0  0  0  0
    3.0724    0.6094   -0.0335 C   0  0  0  0  0  0  0  0  0  0  0  0
    4.4653    0.7975    0.0239 N   0  0  0  0  0  0  0  0  0  0  0  0
    5.3187    1.1905   -0.9893 C   0  0  0  0  0  0  0  0  0  0  0  0
    4.9847    1.4992   -2.1312 O   0  0  0  0  0  0  0  0  0  0  0  0
    6.7861    1.2746   -0.5830 C   0  0  0  0  0  0  0  0  0  0  0  0
    7.2373    0.1528    0.7898 S   0  0  0  0  0  0  0  0  0  0  0  0
    7.6390   -1.3520   -0.0858 C   0  0  0  0  0  0  0  0  0  0  0  0
    6.8164   -1.9045   -1.0762 C   0  0  0  0  0  0  0  0  0  0  0  0
    7.1744   -3.1035   -1.7053 C   0  0  0  0  0  0  0  0  0  0  0  0
    8.3494   -3.7583   -1.3402 C   0  0  0  0  0  0  0  0  0  0  0  0
    8.7857   -5.2329   -2.1121 Cl  0  0  0  0  0  0  0  0  0  0  0  0
    9.1675   -3.2281   -0.3463 C   0  0  0  0  0  0  0  0  0  0  0  0
    8.8096   -2.0301    0.2814 C   0  0  0  0  0  0  0  0  0  0  0  0
    2.2842    0.9100   -1.1400 C   0  0  0  0  0  0  0  0  0  0  0  0
    0.8984    0.6812   -1.1116 C   0  0  0  0  0  0  0  0  0  0  0  0
   -1.6353   -1.2261    0.8442 C   0  0  0  0  0  0  0  0  0  0  0  0
   -2.9609   -1.7634    0.2789 C   0  0  0  0  0  0  0  0  0  0  0  0
   -6.4528    1.0100    1.9192 C   0  0  0  0  0  0  0  0  0  0  0  0
   -7.3914    2.0396    1.8455 C   0  0  0  0  0  0  0  0  0  0  0  0
   -8.4932    4.4194    0.4817 H   0  0  0  0  0  0  0  0  0  0  0  0
   -9.6563    3.4715    1.4450 H   0  0  0  0  0  0  0  0  0  0  0  0
   -9.6703    3.3504   -0.3161 H   0  0  0  0  0  0  0  0  0  0  0  0
   -8.1808    1.8154   -1.4641 H   0  0  0  0  0  0  0  0  0  0  0  0
   -6.5249   -0.0131   -1.3315 H   0  0  0  0  0  0  0  0  0  0  0  0
   -3.5141    1.3128    0.3910 H   0  0  0  0  0  0  0  0  0  0  0  0
   -4.1381    0.8860   -1.2109 H   0  0  0  0  0  0  0  0  0  0  0  0
   -1.9981   -0.1138   -1.8674 H   0  0  0  0  0  0  0  0  0  0  0  0
   -1.7171    1.5125   -1.2095 H   0  0  0  0  0  0  0  0  0  0  0  0
    0.6376   -0.5541    2.0236 H   0  0  0  0  0  0  0  0  0  0  0  0
    3.0259   -0.1586    1.9872 H   0  0  0  0  0  0  0  0  0  0  0  0
    4.9188    0.5284    0.8924 H   0  0  0  0  0  0  0  0  0  0  0  0
    7.4179    1.0695   -1.4531 H   0  0  0  0  0  0  0  0  0  0  0  0
    6.9771    2.3016   -0.2552 H   0  0  0  0  0  0  0  0  0  0  0  0
    5.8825   -1.4323   -1.3715 H   0  0  0  0  0  0  0  0  0  0  0  0
    6.5258   -3.5228   -2.4715 H   0  0  0  0  0  0  0  0  0  0  0  0
   10.0780   -3.7407   -0.0522 H   0  0  0  0  0  0  0  0  0  0  0  0
    9.4581   -1.6303    1.0592 H   0  0  0  0  0  0  0  0  0  0  0  0
    2.7082    1.3274   -2.0473 H   0  0  0  0  0  0  0  0  0  0  0  0
    0.3401    0.9235   -2.0107 H   0  0  0  0  0  0  0  0  0  0  0  0
   -0.9197   -2.0571    0.8608 H   0  0  0  0  0  0  0  0  0  0  0  0
   -1.7920   -0.8844    1.8736 H   0  0  0  0  0  0  0  0  0  0  0  0
   -2.7997   -2.1759   -0.7249 H   0  0  0  0  0  0  0  0  0  0  0  0
   -3.3269   -2.5797    0.9072 H   0  0  0  0  0  0  0  0  0  0  0  0
   -5.9794    0.7682    2.8687 H   0  0  0  0  0  0  0  0  0  0  0  0
   -7.6349    2.6020    2.7437 H   0  0  0  0  0  0  0  0  0  0  0  0
  1  2  1  0
  2  3  2  0
  3  4  1  0
  4  5  2  0
  5  6  1  0
  6  7  2  0
  6  8  1  0
  8  9  1  0
  9 10  1  0
 10 11  1  0
 11 12  1  0
 12 13  2  0
 13 14  1  0
 14 15  2  0
 15 16  1  0
 16 17  1  0
 17 18  2  0
 17 19  1  0
 19 20  1  0
 20 21  1  0
 21 22  2  0
 22 23  1  0
 23 24  2  0
 24 25  1  0
 24 26  1  0
 26 27  2  0
 15 28  1  0
 28 29  2  0
 11 30  1  0
 30 31  1  0
  5 32  1  0
 32 33  2  0
 33  2  1  0
 31  8  1  0
 29 12  1  0
 27 21  1  0
  1 34  1  0
  1 35  1  0
  1 36  1  0
  3 37  1  0
  4 38  1  0
  9 39  1  0
  9 40  1  0
 10 41  1  0
 10 42  1  0
 13 43  1  0
 14 44  1  0
 16 45  1  0
 19 46  1  0
 19 47  1  0
 22 48  1  0
 23 49  1  0
 26 50  1  0
 27 51  1  0
 28 52  1  0
 29 53  1  0
 30 54  1  0
 30 55  1  0
 31 56  1  0
 31 57  1  0
 32 58  1  0
 33 59  1  0
M  END
$$$$
