
     RDKit          3D

 63 66  0  0  0  0  0  0  0  0999 V2000
    2.1082    4.4875   -1.5679 C   0  0  0  0  0  0  0  0  0  0  0  0
    2.1262    2.9940   -1.7353 C   0  0  0  0  0  0  0  0  0  0  0  0
    1.0314    2.4042   -2.1284 N   0  0  0  0  0  0  0  0  0  0  0  0
    0.9768    1.0115   -2.2831 N   0  0  0  0  0  0  0  0  0  0  0  0
   -0.3056    0.4557   -2.7107 C   0  0  0  0  0  0  0  0  0  0  0  0
   -1.5224    1.0755   -2.0268 C   0  0  0  0  0  0  0  0  0  0  0  0
   -1.5605    0.7757   -0.5432 C   0  0  0  0  0  0  0  0  0  0  0  0
   -0.7372    0.0756    0.0372 O   0  0  0  0  0  0  0  0  0  0  0  0
   -2.6373    1.3628    0.0903 N   0  0  0  0  0  0  0  0  0  0  0  0
   -2.9412    1.0803    1.4757 C   0  0  0  0  0  0  0  0  0  0  0  0
   -3.9345   -0.0479    1.5865 C   0  0  0  0  0  0  0  0  0  0  0  0
   -3.5026   -1.3795    1.4959 C   0  0  0  0  0  0  0  0  0  0  0  0
   -4.4182   -2.4366    1.5660 C   0  0  0  0  0  0  0  0  0  0  0  0
   -5.7810   -2.1771    1.7168 C   0  0  0  0  0  0  0  0  0  0  0  0
   -6.7809   -3.1066    1.7968 O   0  0  0  0  0  0  0  0  0  0  0  0
   -6.4800   -4.4726    1.4845 C   0  0  0  0  0  0  0  0  0  0  0  0
   -7.7580   -5.0817    0.9032 C   0  0  0  0  0  0  0  0  0  0  0  0
   -6.0747   -5.2153    2.7551 C   0  0  0  0  0  0  0  0  0  0  0  0
   -6.2143   -0.8510    1.8143 C   0  0  0  0  0  0  0  0  0  0  0  0
   -5.3033    0.2079    1.7442 C   0  0  0  0  0  0  0  0  0  0  0  0
    2.0804    0.1369   -2.1456 C   0  0  0  0  0  0  0  0  0  0  0  0
    2.0417   -1.0651   -2.4026 O   0  0  0  0  0  0  0  0  0  0  0  0
    3.2837    0.8217   -1.6890 C   0  0  0  0  0  0  0  0  0  0  0  0
    4.4742    0.2620   -1.4558 N   0  0  0  0  0  0  0  0  0  0  0  0
    5.2462    1.2658   -0.9584 N   0  0  0  0  0  0  0  0  0  0  0  0
    6.5141    0.9312   -0.3871 C   0  0  0  0  0  0  0  0  0  0  0  0
    7.2039    1.7946    0.4726 C   0  0  0  0  0  0  0  0  0  0  0  0
    8.4370    1.4156    1.0163 C   0  0  0  0  0  0  0  0  0  0  0  0
    8.9849    0.1694    0.7197 C   0  0  0  0  0  0  0  0  0  0  0  0
    8.2972   -0.7080   -0.1138 C   0  0  0  0  0  0  0  0  0  0  0  0
    7.0661   -0.3342   -0.6589 C   0  0  0  0  0  0  0  0  0  0  0  0
    4.6109    2.5061   -1.1106 C   0  0  0  0  0  0  0  0  0  0  0  0
    5.2778    3.8242   -0.9441 C   0  0  0  0  0  0  0  0  0  0  0  0
    3.3101    2.2062   -1.4868 C   0  0  0  0  0  0  0  0  0  0  0  0
    2.5363    4.7649   -0.6018 H   0  0  0  0  0  0  0  0  0  0  0  0
    2.6829    4.9528   -2.3748 H   0  0  0  0  0  0  0  0  0  0  0  0
    1.0812    4.8639   -1.6136 H   0  0  0  0  0  0  0  0  0  0  0  0
   -0.3123   -0.6304   -2.5575 H   0  0  0  0  0  0  0  0  0  0  0  0
   -0.3713    0.6247   -3.7926 H   0  0  0  0  0  0  0  0  0  0  0  0
   -1.5494    2.1619   -2.1705 H   0  0  0  0  0  0  0  0  0  0  0  0
   -2.4312    0.6542   -2.4752 H   0  0  0  0  0  0  0  0  0  0  0  0
   -3.3800    1.7480   -0.4765 H   0  0  0  0  0  0  0  0  0  0  0  0
   -3.3556    1.9970    1.9103 H   0  0  0  0  0  0  0  0  0  0  0  0
   -2.0277    0.8402    2.0316 H   0  0  0  0  0  0  0  0  0  0  0  0
   -2.4414   -1.6019    1.3666 H   0  0  0  0  0  0  0  0  0  0  0  0
   -4.0249   -3.4468    1.5057 H   0  0  0  0  0  0  0  0  0  0  0  0
   -5.7038   -4.5569    0.7130 H   0  0  0  0  0  0  0  0  0  0  0  0
   -8.5896   -5.0092    1.6153 H   0  0  0  0  0  0  0  0  0  0  0  0
   -7.6117   -6.1342    0.6361 H   0  0  0  0  0  0  0  0  0  0  0  0
   -8.0668   -4.5349    0.0048 H   0  0  0  0  0  0  0  0  0  0  0  0
   -5.1726   -4.7796    3.2025 H   0  0  0  0  0  0  0  0  0  0  0  0
   -6.8621   -5.1441    3.5163 H   0  0  0  0  0  0  0  0  0  0  0  0
   -5.8799   -6.2740    2.5479 H   0  0  0  0  0  0  0  0  0  0  0  0
   -7.2756   -0.6410    1.9407 H   0  0  0  0  0  0  0  0  0  0  0  0
   -5.6740    1.2285    1.8167 H   0  0  0  0  0  0  0  0  0  0  0  0
    6.7976    2.7483    0.7872 H   0  0  0  0  0  0  0  0  0  0  0  0
    8.9642    2.0896    1.6877 H   0  0  0  0  0  0  0  0  0  0  0  0
    9.9389   -0.1242    1.1486 H   0  0  0  0  0  0  0  0  0  0  0  0
    8.7124   -1.6871   -0.3394 H   0  0  0  0  0  0  0  0  0  0  0  0
    6.5491   -1.0422   -1.3077 H   0  0  0  0  0  0  0  0  0  0  0  0
    4.8354    4.5746   -1.6055 H   0  0  0  0  0  0  0  0  0  0  0  0
    5.1755    4.1839    0.0837 H   0  0  0  0  0  0  0  0  0  0  0  0
    6.3375    3.7854   -1.2158 H   0  0  0  0  0  0  0  0  0  0  0  0
  1  2  1  0
  2  3  2  0
  3  4  1  0
  4  5  1  0
  5  6  1  0
  6  7  1  0
  7  8  2  0
  7  9  1  0
  9 10  1  0
 10 11  1  0
 11 12  2  0
 12 13  1  0
 13 14  2  0
 14 15  1  0
 15 16  1  0
 16 17  1  0
 16 18  1  0
 14 19  1  0
 19 20  2  0
  4 21  1  0
 21 22  2  0
 21 23  1  0
 23 24  2  0
 24 25  1  0
 25 26  1  0
 26 27  2  0
 27 28  1  0
 28 29  2  0
 29 30  1  0
 30 31  2  0
 25 32  1  0
 32 33  1  0
 32 34  2  0
 34  2  1  0
 20 11  1  0
 34 23  1  0
 31 26  1  0
  1 35  1  0
  1 36  1  0
  1 37  1  0
  5 38  1  0
  5 39  1  0
  6 40  1  0
  6 41  1  0
  9 42  1  0
 10 43  1  0
 10 44  1  0
 12 45  1  0
 13 46  1  0
 16 47  1  0
 17 48  1  0
 17 49  1  0
 17 50  1  0
 18 51  1  0
 18 52  1  0
 18 53  1  0
 19 54  1  0
 20 55  1  0
 27 56  1  0
 28 57  1  0
 29 58  1  0
 30 59  1  0
 31 60  1  0
 33 61  1  0
 33 62  1  0
 33 63  1  0
M  END
$$$$
