
     RDKit          3D

 40 42  0  0  0  0  0  0  0  0999 V2000
   -6.6280   -1.0773   -1.7670 C   0  0  0  0  0  0  0  0  0  0  0  0
   -6.3042   -2.0475   -0.7776 O   0  0  0  0  0  0  0  0  0  0  0  0
   -4.9753   -2.1938   -0.4714 C   0  0  0  0  0  0  0  0  0  0  0  0
   -3.9145   -1.4866   -1.0394 C   0  0  0  0  0  0  0  0  0  0  0  0
   -2.5966   -1.7380   -0.6242 C   0  0  0  0  0  0  0  0  0  0  0  0
   -1.4956   -0.9911   -1.2408 C   0  0  0  0  0  0  0  0  0  0  0  0
   -0.7360   -0.0705   -0.6315 C   0  0  0  0  0  0  0  0  0  0  0  0
   -0.8522    0.4903    0.9938 S   0  0  0  0  0  0  0  0  0  0  0  0
    0.4706    1.6385    0.8007 C   0  0  0  0  0  0  0  0  0  0  0  0
    0.9012    2.7224    1.9929 S   0  0  0  0  0  0  0  0  0  0  0  0
    1.0190    1.4692   -0.4581 N   0  0  0  0  0  0  0  0  0  0  0  0
    2.0356    2.3038   -0.9745 N   0  0  0  0  0  0  0  0  0  0  0  0
    3.3324    2.1223   -0.4621 C   0  0  0  0  0  0  0  0  0  0  0  0
    3.9519    3.2929   -0.1663 N   0  0  0  0  0  0  0  0  0  0  0  0
    5.2107    3.2586    0.3312 C   0  0  0  0  0  0  0  0  0  0  0  0
    5.9194    2.0926    0.5542 C   0  0  0  0  0  0  0  0  0  0  0  0
    7.3181    2.1457    1.0842 C   0  0  0  0  0  0  0  0  0  0  0  0
    7.5239    3.1837    1.9398 F   0  0  0  0  0  0  0  0  0  0  0  0
    8.2393    2.2864    0.0938 F   0  0  0  0  0  0  0  0  0  0  0  0
    7.6699    1.0229    1.7685 F   0  0  0  0  0  0  0  0  0  0  0  0
    5.2901    0.8909    0.2218 C   0  0  0  0  0  0  0  0  0  0  0  0
    3.9889    0.8957   -0.2924 C   0  0  0  0  0  0  0  0  0  0  0  0
    3.3060   -0.6371   -0.6922 Cl  0  0  0  0  0  0  0  0  0  0  0  0
    0.3519    0.6441   -1.3563 C   0  0  0  0  0  0  0  0  0  0  0  0
    0.5561    0.5246   -2.5571 O   0  0  0  0  0  0  0  0  0  0  0  0
   -2.3443   -2.7104    0.3525 C   0  0  0  0  0  0  0  0  0  0  0  0
   -3.3998   -3.4198    0.9228 C   0  0  0  0  0  0  0  0  0  0  0  0
   -4.6982   -3.1548    0.5078 C   0  0  0  0  0  0  0  0  0  0  0  0
   -5.7167   -3.8653    1.0828 O   0  0  0  0  0  0  0  0  0  0  0  0
   -7.7148   -1.0806   -1.8943 H   0  0  0  0  0  0  0  0  0  0  0  0
   -6.3332   -0.0728   -1.4460 H   0  0  0  0  0  0  0  0  0  0  0  0
   -6.1789   -1.3334   -2.7323 H   0  0  0  0  0  0  0  0  0  0  0  0
   -4.0849   -0.7338   -1.8021 H   0  0  0  0  0  0  0  0  0  0  0  0
   -1.3220   -1.2259   -2.2905 H   0  0  0  0  0  0  0  0  0  0  0  0
    1.8262    3.2977   -0.8699 H   0  0  0  0  0  0  0  0  0  0  0  0
    5.6384    4.2359    0.5497 H   0  0  0  0  0  0  0  0  0  0  0  0
    5.8170   -0.0524    0.3598 H   0  0  0  0  0  0  0  0  0  0  0  0
   -1.3281   -2.9246    0.6751 H   0  0  0  0  0  0  0  0  0  0  0  0
   -3.2136   -4.1731    1.6823 H   0  0  0  0  0  0  0  0  0  0  0  0
   -6.5296   -3.5295    0.6575 H   0  0  0  0  0  0  0  0  0  0  0  0
  1  2  1  0
  2  3  1  0
  3  4  2  0
  4  5  1  0
  5  6  1  0
  6  7  2  3
  7  8  1  0
  8  9  1  0
  9 10  2  0
  9 11  1  0
 11 12  1  0
 12 13  1  0
 13 14  2  0
 14 15  1  0
 15 16  2  0
 16 17  1  0
 17 18  1  0
 17 19  1  0
 17 20  1  0
 16 21  1  0
 21 22  2  0
 22 23  1  0
 11 24  1  0
 24 25  2  0
  5 26  2  0
 26 27  1  0
 27 28  2  0
 28 29  1  0
 28  3  1  0
 24  7  1  0
 22 13  1  0
  1 30  1  0
  1 31  1  0
  1 32  1  0
  4 33  1  0
  6 34  1  0
 12 35  1  0
 15 36  1  0
 21 37  1  0
 26 38  1  0
 27 39  1  0
 29 40  1  0
M  END
$$$$
