
     RDKit          3D

 52 55  0  0  0  0  0  0  0  0999 V2000
    5.6757   -2.9198   -0.1733 C   0  0  0  0  0  0  0  0  0  0  0  0
    5.1406   -1.5630    0.0893 C   0  0  0  0  0  0  0  0  0  0  0  0
    3.8288   -1.0842   -0.1170 C   0  0  0  0  0  0  0  0  0  0  0  0
    3.8381    0.2443    0.2793 C   0  0  0  0  0  0  0  0  0  0  0  0
    2.7923    1.2430    0.2996 C   0  0  0  0  0  0  0  0  0  0  0  0
    2.9777    2.4108    0.6291 O   0  0  0  0  0  0  0  0  0  0  0  0
    1.5473    0.7918   -0.0716 N   0  0  0  0  0  0  0  0  0  0  0  0
    0.3809    1.6494   -0.0325 C   0  0  0  0  0  0  0  0  0  0  0  0
   -0.1469    1.8643    1.4072 C   0  0  0  0  0  0  0  0  0  0  0  0
   -1.0530    0.7189    1.9617 C   0  0  0  0  0  0  0  0  0  0  0  0
   -1.5908    1.1526    3.3409 C   0  0  0  0  0  0  0  0  0  0  0  0
   -0.2536   -0.5842    2.1646 C   0  0  0  0  0  0  0  0  0  0  0  0
   -2.2650    0.4599    1.0135 C   0  0  0  0  0  0  0  0  0  0  0  0
   -1.8588    0.4949   -0.4231 C   0  0  0  0  0  0  0  0  0  0  0  0
   -0.6673    1.0261   -0.8861 C   0  0  0  0  0  0  0  0  0  0  0  0
   -0.6883    0.8034   -2.2661 C   0  0  0  0  0  0  0  0  0  0  0  0
   -1.7853    0.1608   -2.6554 N   0  0  0  0  0  0  0  0  0  0  0  0
   -2.5530    0.0276   -1.5338 N   0  0  0  0  0  0  0  0  0  0  0  0
   -3.8624   -0.5317   -1.6644 C   0  0  0  0  0  0  0  0  0  0  0  0
   -4.8169   -0.4859   -0.6395 C   0  0  0  0  0  0  0  0  0  0  0  0
   -6.0874   -1.0492   -0.8227 C   0  0  0  0  0  0  0  0  0  0  0  0
   -6.4183   -1.6561   -2.0308 C   0  0  0  0  0  0  0  0  0  0  0  0
   -5.4807   -1.6891   -3.0528 C   0  0  0  0  0  0  0  0  0  0  0  0
   -5.7985   -2.2684   -4.2179 F   0  0  0  0  0  0  0  0  0  0  0  0
   -4.2168   -1.1326   -2.8857 C   0  0  0  0  0  0  0  0  0  0  0  0
    5.1360    0.4714    0.6801 N   0  0  0  0  0  0  0  0  0  0  0  0
    5.6989    1.7054    1.1821 C   0  0  0  0  0  0  0  0  0  0  0  0
    5.9345   -0.6103    0.5811 N   0  0  0  0  0  0  0  0  0  0  0  0
    6.4512   -2.8830   -0.9450 H   0  0  0  0  0  0  0  0  0  0  0  0
    4.8861   -3.5952   -0.5180 H   0  0  0  0  0  0  0  0  0  0  0  0
    6.1109   -3.3453    0.7366 H   0  0  0  0  0  0  0  0  0  0  0  0
    2.9966   -1.6491   -0.5109 H   0  0  0  0  0  0  0  0  0  0  0  0
    1.4115   -0.1884   -0.2650 H   0  0  0  0  0  0  0  0  0  0  0  0
    0.6668    2.6237   -0.4483 H   0  0  0  0  0  0  0  0  0  0  0  0
   -0.7457    2.7870    1.4009 H   0  0  0  0  0  0  0  0  0  0  0  0
    0.6862    2.0498    2.0968 H   0  0  0  0  0  0  0  0  0  0  0  0
   -0.7718    1.3167    4.0503 H   0  0  0  0  0  0  0  0  0  0  0  0
   -2.1611    2.0856    3.2700 H   0  0  0  0  0  0  0  0  0  0  0  0
   -2.2539    0.3902    3.7649 H   0  0  0  0  0  0  0  0  0  0  0  0
    0.6601   -0.4005    2.7407 H   0  0  0  0  0  0  0  0  0  0  0  0
   -0.8465   -1.3247    2.7145 H   0  0  0  0  0  0  0  0  0  0  0  0
    0.0300   -1.0522    1.2182 H   0  0  0  0  0  0  0  0  0  0  0  0
   -3.0150    1.2454    1.1706 H   0  0  0  0  0  0  0  0  0  0  0  0
   -2.7175   -0.5049    1.2684 H   0  0  0  0  0  0  0  0  0  0  0  0
    0.0613    1.0591   -3.0049 H   0  0  0  0  0  0  0  0  0  0  0  0
   -4.6373    0.0078    0.3061 H   0  0  0  0  0  0  0  0  0  0  0  0
   -6.8221   -1.0033   -0.0219 H   0  0  0  0  0  0  0  0  0  0  0  0
   -7.3990   -2.0944   -2.1856 H   0  0  0  0  0  0  0  0  0  0  0  0
   -3.5206   -1.1874   -3.7192 H   0  0  0  0  0  0  0  0  0  0  0  0
    5.6164    2.4670    0.4031 H   0  0  0  0  0  0  0  0  0  0  0  0
    6.7527    1.5501    1.4295 H   0  0  0  0  0  0  0  0  0  0  0  0
    5.1532    1.9956    2.0829 H   0  0  0  0  0  0  0  0  0  0  0  0
  1  2  1  0
  2  3  1  0
  3  4  2  0
  4  5  1  0
  5  6  2  0
  5  7  1  0
  7  8  1  0
  8  9  1  0
  9 10  1  0
 10 11  1  0
 10 12  1  0
 10 13  1  0
 13 14  1  0
 14 15  2  0
 15 16  1  0
 16 17  2  0
 17 18  1  0
 18 19  1  0
 19 20  2  0
 20 21  1  0
 21 22  2  0
 22 23  1  0
 23 24  1  0
 23 25  2  0
  4 26  1  0
 26 27  1  0
 26 28  1  0
 28  2  2  0
 15  8  1  0
 25 19  1  0
 18 14  1  0
  1 29  1  0
  1 30  1  0
  1 31  1  0
  3 32  1  0
  7 33  1  0
  8 34  1  0
  9 35  1  0
  9 36  1  0
 11 37  1  0
 11 38  1  0
 11 39  1  0
 12 40  1  0
 12 41  1  0
 12 42  1  0
 13 43  1  0
 13 44  1  0
 16 45  1  0
 20 46  1  0
 21 47  1  0
 22 48  1  0
 25 49  1  0
 27 50  1  0
 27 51  1  0
 27 52  1  0
M  END
$$$$
