
     RDKit          3D

 47 50  0  0  0  0  0  0  0  0999 V2000
   -4.1528    3.5707    3.0448 N   0  0  0  0  0  0  0  0  0  0  0  0
   -4.6784    3.3609    1.8223 C   0  0  0  0  0  0  0  0  0  0  0  0
   -5.9049    3.7339    1.4597 N   0  0  0  0  0  0  0  0  0  0  0  0
   -6.0437    3.3217    0.1387 O   0  0  0  0  0  0  0  0  0  0  0  0
   -4.8823    2.7059   -0.3235 N   0  0  0  0  0  0  0  0  0  0  0  0
   -4.0607    2.7282    0.7262 C   0  0  0  0  0  0  0  0  0  0  0  0
   -2.7432    2.2087    0.6444 N   0  0  0  0  0  0  0  0  0  0  0  0
   -1.8494    2.3891    1.6642 N   0  0  0  0  0  0  0  0  0  0  0  0
   -0.6729    1.9132    1.3009 N   0  0  0  0  0  0  0  0  0  0  0  0
   -0.7946    1.3793    0.0455 C   0  0  0  0  0  0  0  0  0  0  0  0
    0.3370    0.7709   -0.6484 C   0  0  0  0  0  0  0  0  0  0  0  0
    0.2637    0.3862   -1.8114 O   0  0  0  0  0  0  0  0  0  0  0  0
    1.4664    0.6940    0.1525 N   0  0  0  0  0  0  0  0  0  0  0  0
    2.6214    0.1479   -0.3219 N   0  0  0  0  0  0  0  0  0  0  0  0
    3.6067    0.1175    0.5175 C   0  0  0  0  0  0  0  0  0  0  0  0
    4.9227   -0.4433    0.1520 C   0  0  0  0  0  0  0  0  0  0  0  0
    5.9432   -0.4514    1.1097 C   0  0  0  0  0  0  0  0  0  0  0  0
    7.1965   -0.9777    0.7851 C   0  0  0  0  0  0  0  0  0  0  0  0
    7.4151   -1.4889   -0.4918 C   0  0  0  0  0  0  0  0  0  0  0  0
    8.6220   -2.0113   -0.8499 O   0  0  0  0  0  0  0  0  0  0  0  0
    6.4047   -1.4833   -1.4478 C   0  0  0  0  0  0  0  0  0  0  0  0
    5.1517   -0.9590   -1.1274 C   0  0  0  0  0  0  0  0  0  0  0  0
   -2.1068    1.5136   -0.3816 C   0  0  0  0  0  0  0  0  0  0  0  0
   -2.7773    1.0279   -1.6155 C   0  0  0  0  0  0  0  0  0  0  0  0
   -3.8014    0.1039   -1.2373 O   0  0  0  0  0  0  0  0  0  0  0  0
   -3.4593   -1.1762   -0.9061 C   0  0  0  0  0  0  0  0  0  0  0  0
   -2.3010   -1.8469   -1.3005 C   0  0  0  0  0  0  0  0  0  0  0  0
   -2.0778   -3.1627   -0.8826 C   0  0  0  0  0  0  0  0  0  0  0  0
   -3.0184   -3.8035   -0.0856 C   0  0  0  0  0  0  0  0  0  0  0  0
   -2.8003   -5.0637    0.3117 F   0  0  0  0  0  0  0  0  0  0  0  0
   -4.1848   -3.1561    0.2980 C   0  0  0  0  0  0  0  0  0  0  0  0
   -4.4056   -1.8427   -0.1183 C   0  0  0  0  0  0  0  0  0  0  0  0
   -3.1526    3.4693    3.2089 H   0  0  0  0  0  0  0  0  0  0  0  0
   -4.6167    4.2212    3.6703 H   0  0  0  0  0  0  0  0  0  0  0  0
    1.4169    1.0453    1.1045 H   0  0  0  0  0  0  0  0  0  0  0  0
    3.5046    0.5100    1.5455 H   0  0  0  0  0  0  0  0  0  0  0  0
    5.7760   -0.0536    2.1069 H   0  0  0  0  0  0  0  0  0  0  0  0
    7.9833   -0.9808    1.5332 H   0  0  0  0  0  0  0  0  0  0  0  0
    9.2274   -1.9560   -0.0928 H   0  0  0  0  0  0  0  0  0  0  0  0
    6.5905   -1.8859   -2.4399 H   0  0  0  0  0  0  0  0  0  0  0  0
    4.3629   -0.9558   -1.8768 H   0  0  0  0  0  0  0  0  0  0  0  0
   -3.2588    1.8653   -2.1324 H   0  0  0  0  0  0  0  0  0  0  0  0
   -2.1007    0.6011   -2.3582 H   0  0  0  0  0  0  0  0  0  0  0  0
   -1.5583   -1.3915   -1.9466 H   0  0  0  0  0  0  0  0  0  0  0  0
   -1.1779   -3.6905   -1.1833 H   0  0  0  0  0  0  0  0  0  0  0  0
   -4.9132   -3.6739    0.9130 H   0  0  0  0  0  0  0  0  0  0  0  0
   -5.3192   -1.3310    0.1760 H   0  0  0  0  0  0  0  0  0  0  0  0
  1  2  1  0
  2  3  2  0
  3  4  1  0
  4  5  1  0
  5  6  2  0
  6  7  1  0
  7  8  1  0
  8  9  2  0
  9 10  1  0
 10 11  1  0
 11 12  2  0
 11 13  1  0
 13 14  1  0
 14 15  2  3
 15 16  1  0
 16 17  2  0
 17 18  1  0
 18 19  2  0
 19 20  1  0
 19 21  1  0
 21 22  2  0
 10 23  2  0
 23 24  1  0
 24 25  1  0
 25 26  1  0
 26 27  2  0
 27 28  1  0
 28 29  2  0
 29 30  1  0
 29 31  1  0
 31 32  2  0
  6  2  1  0
 23  7  1  0
 32 26  1  0
 22 16  1  0
  1 33  1  0
  1 34  1  0
 13 35  1  0
 15 36  1  0
 17 37  1  0
 18 38  1  0
 20 39  1  0
 21 40  1  0
 22 41  1  0
 24 42  1  0
 24 43  1  0
 27 44  1  0
 28 45  1  0
 31 46  1  0
 32 47  1  0
M  END
$$$$
