
     RDKit          3D

 57 61  0  0  0  0  0  0  0  0999 V2000
   -6.7782    3.9868   -0.7049 C   0  0  0  0  0  0  0  0  0  0  0  0
   -6.1795    2.6439   -1.0015 C   0  0  0  0  0  0  0  0  0  0  0  0
   -4.9369    2.5459   -1.6368 C   0  0  0  0  0  0  0  0  0  0  0  0
   -4.3624    1.2964   -1.8814 C   0  0  0  0  0  0  0  0  0  0  0  0
   -5.0195    0.1218   -1.4905 C   0  0  0  0  0  0  0  0  0  0  0  0
   -4.3947   -1.2273   -1.7423 C   0  0  0  0  0  0  0  0  0  0  0  0
   -3.6867   -1.7114   -0.5765 N   0  0  0  0  0  0  0  0  0  0  0  0
   -4.2791   -2.5701    0.2909 N   0  0  0  0  0  0  0  0  0  0  0  0
   -3.3935   -2.8570    1.2453 N   0  0  0  0  0  0  0  0  0  0  0  0
   -2.2466   -2.1859    0.9488 C   0  0  0  0  0  0  0  0  0  0  0  0
   -0.9818   -2.1366    1.6329 C   0  0  0  0  0  0  0  0  0  0  0  0
   -0.7107   -2.7368    2.6663 O   0  0  0  0  0  0  0  0  0  0  0  0
   -0.0711   -1.3176    0.9768 N   0  0  0  0  0  0  0  0  0  0  0  0
   -0.3398   -0.6392   -0.2115 C   0  0  0  0  0  0  0  0  0  0  0  0
    0.7951    0.2044   -0.7790 C   0  0  0  0  0  0  0  0  0  0  0  0
    1.9802   -0.7097   -1.1418 C   0  0  0  0  0  0  0  0  0  0  0  0
    3.3223    0.0013   -1.1808 C   0  0  0  0  0  0  0  0  0  0  0  0
    3.5127    0.8729    0.0015 N   0  0  0  0  0  0  0  0  0  0  0  0
    3.7900    0.1390    1.5243 S   0  0  0  0  0  6  0  0  0  0  0  0
    2.7018   -0.7858    1.7777 O   0  0  0  0  0  0  0  0  0  0  0  0
    4.0526    1.2084    2.4660 O   0  0  0  0  0  0  0  0  0  0  0  0
    5.2967   -0.7438    1.3009 C   0  0  0  0  0  0  0  0  0  0  0  0
    6.5146   -0.1091    1.5738 C   0  0  0  0  0  0  0  0  0  0  0  0
    7.7093   -0.8206    1.4479 C   0  0  0  0  0  0  0  0  0  0  0  0
    7.6868   -2.1612    1.0604 C   0  0  0  0  0  0  0  0  0  0  0  0
    6.4694   -2.7908    0.7981 C   0  0  0  0  0  0  0  0  0  0  0  0
    5.2778   -2.0802    0.9243 C   0  0  0  0  0  0  0  0  0  0  0  0
    4.1327   -2.7095    0.6310 F   0  0  0  0  0  0  0  0  0  0  0  0
    2.4903    1.9497    0.0092 C   0  0  0  0  0  0  0  0  0  0  0  0
    1.1008    1.3607    0.1909 C   0  0  0  0  0  0  0  0  0  0  0  0
   -1.4811   -0.6855   -0.8431 N   0  0  0  0  0  0  0  0  0  0  0  0
   -2.3940   -1.4650   -0.2120 C   0  0  0  0  0  0  0  0  0  0  0  0
   -6.2530    0.2236   -0.8331 C   0  0  0  0  0  0  0  0  0  0  0  0
   -6.8256    1.4737   -0.5886 C   0  0  0  0  0  0  0  0  0  0  0  0
   -7.8720    3.9340   -0.6977 H   0  0  0  0  0  0  0  0  0  0  0  0
   -6.4938    4.7183   -1.4688 H   0  0  0  0  0  0  0  0  0  0  0  0
   -6.4344    4.3425    0.2713 H   0  0  0  0  0  0  0  0  0  0  0  0
   -4.4051    3.4442   -1.9419 H   0  0  0  0  0  0  0  0  0  0  0  0
   -3.3910    1.2472   -2.3698 H   0  0  0  0  0  0  0  0  0  0  0  0
   -5.1602   -1.9647   -2.0116 H   0  0  0  0  0  0  0  0  0  0  0  0
   -3.6854   -1.1863   -2.5770 H   0  0  0  0  0  0  0  0  0  0  0  0
    0.8444   -1.2536    1.4218 H   0  0  0  0  0  0  0  0  0  0  0  0
    0.4434    0.6584   -1.7161 H   0  0  0  0  0  0  0  0  0  0  0  0
    2.0495   -1.5679   -0.4663 H   0  0  0  0  0  0  0  0  0  0  0  0
    1.7889   -1.1603   -2.1248 H   0  0  0  0  0  0  0  0  0  0  0  0
    3.3809    0.6257   -2.0817 H   0  0  0  0  0  0  0  0  0  0  0  0
    4.1427   -0.7151   -1.2744 H   0  0  0  0  0  0  0  0  0  0  0  0
    6.5396    0.9326    1.8888 H   0  0  0  0  0  0  0  0  0  0  0  0
    8.6580   -0.3315    1.6597 H   0  0  0  0  0  0  0  0  0  0  0  0
    8.6177   -2.7161    0.9665 H   0  0  0  0  0  0  0  0  0  0  0  0
    6.4420   -3.8340    0.4963 H   0  0  0  0  0  0  0  0  0  0  0  0
    2.7102    2.6821    0.7931 H   0  0  0  0  0  0  0  0  0  0  0  0
    2.5466    2.4998   -0.9383 H   0  0  0  0  0  0  0  0  0  0  0  0
    0.3537    2.1522    0.0469 H   0  0  0  0  0  0  0  0  0  0  0  0
    0.9763    1.0516    1.2346 H   0  0  0  0  0  0  0  0  0  0  0  0
   -6.7718   -0.6719   -0.4940 H   0  0  0  0  0  0  0  0  0  0  0  0
   -7.7790    1.5271   -0.0672 H   0  0  0  0  0  0  0  0  0  0  0  0
  1  2  1  0
  2  3  2  0
  3  4  1  0
  4  5  2  0
  5  6  1  0
  6  7  1  0
  7  8  1  0
  8  9  2  0
  9 10  1  0
 10 11  1  0
 11 12  2  0
 11 13  1  0
 13 14  1  0
 14 15  1  0
 15 16  1  0
 16 17  1  0
 17 18  1  0
 18 19  1  0
 19 20  2  0
 19 21  2  0
 19 22  1  0
 22 23  2  0
 23 24  1  0
 24 25  2  0
 25 26  1  0
 26 27  2  0
 27 28  1  0
 18 29  1  0
 29 30  1  0
 14 31  2  0
 31 32  1  0
  5 33  1  0
 33 34  2  0
 34  2  1  0
 32  7  1  0
 32 10  2  0
 30 15  1  0
 27 22  1  0
  1 35  1  0
  1 36  1  0
  1 37  1  0
  3 38  1  0
  4 39  1  0
  6 40  1  0
  6 41  1  0
 13 42  1  0
 15 43  1  0
 16 44  1  0
 16 45  1  0
 17 46  1  0
 17 47  1  0
 23 48  1  0
 24 49  1  0
 25 50  1  0
 26 51  1  0
 29 52  1  0
 29 53  1  0
 30 54  1  0
 30 55  1  0
 33 56  1  0
 34 57  1  0
M  END
$$$$
