
     RDKit          3D

 47 51  0  0  0  0  0  0  0  0999 V2000
   -1.0494   -1.2793   -3.1487 C   0  0  0  0  0  0  0  0  0  0  0  0
   -1.8115   -0.4111   -2.1964 C   0  0  0  0  0  0  0  0  0  0  0  0
   -3.1009   -0.2570   -2.3694 N   0  0  0  0  0  0  0  0  0  0  0  0
   -3.7637    0.5449   -1.4823 C   0  0  0  0  0  0  0  0  0  0  0  0
   -5.4431    0.8447   -1.5978 S   0  0  0  0  0  0  0  0  0  0  0  0
   -5.4205    1.8587   -0.2226 C   0  0  0  0  0  0  0  0  0  0  0  0
   -4.1633    1.9747    0.3451 C   0  0  0  0  0  0  0  0  0  0  0  0
   -3.2347    1.2208   -0.4030 C   0  0  0  0  0  0  0  0  0  0  0  0
   -1.7271    1.0107   -0.2433 C   0  0  0  0  0  0  0  0  0  0  0  0
   -0.9005    1.4923    0.6483 N   0  0  0  0  0  0  0  0  0  0  0  0
    0.3411    0.9948    0.3399 N   0  0  0  0  0  0  0  0  0  0  0  0
    0.2286    0.2273   -0.7269 C   0  0  0  0  0  0  0  0  0  0  0  0
    1.5602   -0.6137   -1.4396 S   0  0  0  0  0  0  0  0  0  0  0  0
    2.9540    0.1949   -0.5989 C   0  0  0  0  0  0  0  0  0  0  0  0
    4.2487   -0.3968   -1.1216 C   0  0  0  0  0  0  0  0  0  0  0  0
    4.8016    0.0137   -2.1387 O   0  0  0  0  0  0  0  0  0  0  0  0
    4.7418   -1.4397   -0.3693 N   0  0  0  0  0  0  0  0  0  0  0  0
    5.8797   -2.1982   -0.8334 C   0  0  0  0  0  0  0  0  0  0  0  0
    6.3198   -3.1022    0.2554 C   0  0  0  0  0  0  0  0  0  0  0  0
    7.5003   -3.2395    0.9560 C   0  0  0  0  0  0  0  0  0  0  0  0
    7.2954   -4.2892    1.8834 C   0  0  0  0  0  0  0  0  0  0  0  0
    6.0055   -4.7250    1.6912 C   0  0  0  0  0  0  0  0  0  0  0  0
    5.4029   -4.0098    0.7068 O   0  0  0  0  0  0  0  0  0  0  0  0
   -1.0828    0.1987   -1.1528 N   0  0  0  0  0  0  0  0  0  0  0  0
   -3.9022    2.8180    1.5539 C   0  0  0  0  0  0  0  0  0  0  0  0
   -5.2072    3.1865    2.2794 C   0  0  0  0  0  0  0  0  0  0  0  0
   -6.3022    3.6274    1.2962 C   0  0  0  0  0  0  0  0  0  0  0  0
   -6.6624    2.5107    0.3023 C   0  0  0  0  0  0  0  0  0  0  0  0
   -0.2877   -0.6968   -3.6726 H   0  0  0  0  0  0  0  0  0  0  0  0
   -1.7312   -1.6832   -3.9050 H   0  0  0  0  0  0  0  0  0  0  0  0
   -0.6059   -2.1278   -2.6220 H   0  0  0  0  0  0  0  0  0  0  0  0
    2.8863    0.0441    0.4839 H   0  0  0  0  0  0  0  0  0  0  0  0
    2.9585    1.2715   -0.7984 H   0  0  0  0  0  0  0  0  0  0  0  0
    4.1180   -1.9140    0.2728 H   0  0  0  0  0  0  0  0  0  0  0  0
    5.5745   -2.7728   -1.7146 H   0  0  0  0  0  0  0  0  0  0  0  0
    6.6780   -1.5094   -1.1287 H   0  0  0  0  0  0  0  0  0  0  0  0
    8.3966   -2.6510    0.8138 H   0  0  0  0  0  0  0  0  0  0  0  0
    7.9994   -4.6815    2.6036 H   0  0  0  0  0  0  0  0  0  0  0  0
    5.3989   -5.4939    2.1498 H   0  0  0  0  0  0  0  0  0  0  0  0
   -3.3902    3.7349    1.2378 H   0  0  0  0  0  0  0  0  0  0  0  0
   -3.2383    2.2943    2.2506 H   0  0  0  0  0  0  0  0  0  0  0  0
   -5.5668    2.3198    2.8491 H   0  0  0  0  0  0  0  0  0  0  0  0
   -5.0094    3.9853    3.0031 H   0  0  0  0  0  0  0  0  0  0  0  0
   -5.9523    4.5098    0.7449 H   0  0  0  0  0  0  0  0  0  0  0  0
   -7.2004    3.9298    1.8461 H   0  0  0  0  0  0  0  0  0  0  0  0
   -7.2735    1.7541    0.8104 H   0  0  0  0  0  0  0  0  0  0  0  0
   -7.2627    2.9298   -0.5134 H   0  0  0  0  0  0  0  0  0  0  0  0
  1  2  1  0
  2  3  2  0
  3  4  1  0
  4  5  1  0
  5  6  1  0
  6  7  2  0
  7  8  1  0
  8  9  1  0
  9 10  2  0
 10 11  1  0
 11 12  2  0
 12 13  1  0
 13 14  1  0
 14 15  1  0
 15 16  2  0
 15 17  1  0
 17 18  1  0
 18 19  1  0
 19 20  2  0
 20 21  1  0
 21 22  2  0
 22 23  1  0
 12 24  1  0
  7 25  1  0
 25 26  1  0
 26 27  1  0
 27 28  1  0
 24  2  1  0
  8  4  2  0
 24  9  1  0
 28  6  1  0
 23 19  1  0
  1 29  1  0
  1 30  1  0
  1 31  1  0
 14 32  1  0
 14 33  1  0
 17 34  1  0
 18 35  1  0
 18 36  1  0
 20 37  1  0
 21 38  1  0
 22 39  1  0
 25 40  1  0
 25 41  1  0
 26 42  1  0
 26 43  1  0
 27 44  1  0
 27 45  1  0
 28 46  1  0
 28 47  1  0
M  END
$$$$
