
     RDKit          3D

 59 64  0  0  0  0  0  0  0  0999 V2000
   -4.4186   -1.6544    1.7704 C   0  0  0  0  0  0  0  0  0  0  0  0
   -4.8904   -0.7679    0.6760 C   0  0  0  0  0  0  0  0  0  0  0  0
   -6.0706   -0.8431    0.0931 N   0  0  0  0  0  0  0  0  0  0  0  0
   -6.0864    0.1498   -0.8528 C   0  0  0  0  0  0  0  0  0  0  0  0
   -7.1028    0.5092   -1.7503 C   0  0  0  0  0  0  0  0  0  0  0  0
   -6.8753    1.5710   -2.6351 C   0  0  0  0  0  0  0  0  0  0  0  0
   -5.6594    2.2593   -2.6282 C   0  0  0  0  0  0  0  0  0  0  0  0
   -4.6343    1.9139   -1.7395 C   0  0  0  0  0  0  0  0  0  0  0  0
   -4.8842    0.8522   -0.8599 C   0  0  0  0  0  0  0  0  0  0  0  0
   -4.1391    0.2493    0.1277 N   0  0  0  0  0  0  0  0  0  0  0  0
   -2.7947    0.6313    0.5162 C   0  0  0  0  0  0  0  0  0  0  0  0
   -1.7374   -0.0582   -0.3341 C   0  0  0  0  0  0  0  0  0  0  0  0
   -0.3748    0.3087    0.1206 C   0  0  0  0  0  0  0  0  0  0  0  0
    0.2283   -0.3298    1.1744 N   0  0  0  0  0  0  0  0  0  0  0  0
    1.3886    0.2842    1.2614 C   0  0  0  0  0  0  0  0  0  0  0  0
    2.5233    0.0905    2.1355 C   0  0  0  0  0  0  0  0  0  0  0  0
    2.5627   -0.9068    3.1117 C   0  0  0  0  0  0  0  0  0  0  0  0
    3.6975   -1.0385    3.9114 C   0  0  0  0  0  0  0  0  0  0  0  0
    4.7829   -0.1773    3.7345 C   0  0  0  0  0  0  0  0  0  0  0  0
    4.7398    0.8202    2.7562 C   0  0  0  0  0  0  0  0  0  0  0  0
    3.6139    0.9669    1.9469 C   0  0  0  0  0  0  0  0  0  0  0  0
    3.6029    1.9954    0.9681 N   0  0  0  0  0  0  0  0  0  0  0  0
    2.5648    2.1294    0.1887 C   0  0  0  0  0  0  0  0  0  0  0  0
    2.5924    3.4382   -0.9853 S   0  0  0  0  0  0  0  0  0  0  0  0
    2.4996    2.5164   -2.5418 C   0  0  0  0  0  0  0  0  0  0  0  0
    3.5525    1.4276   -2.6030 C   0  0  0  0  0  0  0  0  0  0  0  0
    4.7137    1.6418   -2.9353 O   0  0  0  0  0  0  0  0  0  0  0  0
    3.0990    0.1891   -2.2109 N   0  0  0  0  0  0  0  0  0  0  0  0
    3.9667   -0.9664   -2.2116 C   0  0  0  0  0  0  0  0  0  0  0  0
    3.4026   -1.9604   -1.2664 C   0  0  0  0  0  0  0  0  0  0  0  0
    3.9429   -2.6948   -0.2311 C   0  0  0  0  0  0  0  0  0  0  0  0
    2.8820   -3.4524    0.3182 C   0  0  0  0  0  0  0  0  0  0  0  0
    1.7635   -3.1366   -0.4161 C   0  0  0  0  0  0  0  0  0  0  0  0
    2.0700   -2.2343   -1.3843 O   0  0  0  0  0  0  0  0  0  0  0  0
    1.4590    1.2783    0.3218 N   0  0  0  0  0  0  0  0  0  0  0  0
    0.3357    1.2990   -0.4390 N   0  0  0  0  0  0  0  0  0  0  0  0
   -5.1781   -2.4078    2.0059 H   0  0  0  0  0  0  0  0  0  0  0  0
   -3.5027   -2.1787    1.4798 H   0  0  0  0  0  0  0  0  0  0  0  0
   -4.2239   -1.0780    2.6803 H   0  0  0  0  0  0  0  0  0  0  0  0
   -8.0434   -0.0321   -1.7494 H   0  0  0  0  0  0  0  0  0  0  0  0
   -7.6562    1.8605   -3.3337 H   0  0  0  0  0  0  0  0  0  0  0  0
   -5.5058    3.0815   -3.3263 H   0  0  0  0  0  0  0  0  0  0  0  0
   -3.6933    2.4541   -1.7406 H   0  0  0  0  0  0  0  0  0  0  0  0
   -2.6666    0.3955    1.5785 H   0  0  0  0  0  0  0  0  0  0  0  0
   -2.7201    1.7216    0.4341 H   0  0  0  0  0  0  0  0  0  0  0  0
   -1.8535   -1.1468   -0.2747 H   0  0  0  0  0  0  0  0  0  0  0  0
   -1.8650    0.2058   -1.3906 H   0  0  0  0  0  0  0  0  0  0  0  0
    1.7192   -1.5799    3.2458 H   0  0  0  0  0  0  0  0  0  0  0  0
    3.7375   -1.8125    4.6745 H   0  0  0  0  0  0  0  0  0  0  0  0
    5.6658   -0.2807    4.3613 H   0  0  0  0  0  0  0  0  0  0  0  0
    5.5862    1.4878    2.6236 H   0  0  0  0  0  0  0  0  0  0  0  0
    1.4985    2.1009   -2.6882 H   0  0  0  0  0  0  0  0  0  0  0  0
    2.6783    3.2057   -3.3731 H   0  0  0  0  0  0  0  0  0  0  0  0
    2.1032   -0.0025   -2.2060 H   0  0  0  0  0  0  0  0  0  0  0  0
    4.9816   -0.6723   -1.9214 H   0  0  0  0  0  0  0  0  0  0  0  0
    3.9954   -1.3697   -3.2281 H   0  0  0  0  0  0  0  0  0  0  0  0
    4.9734   -2.6740    0.0957 H   0  0  0  0  0  0  0  0  0  0  0  0
    2.9244   -4.1377    1.1534 H   0  0  0  0  0  0  0  0  0  0  0  0
    0.7291   -3.4418   -0.3715 H   0  0  0  0  0  0  0  0  0  0  0  0
  1  2  1  0
  2  3  2  0
  3  4  1  0
  4  5  2  0
  5  6  1  0
  6  7  2  0
  7  8  1  0
  8  9  2  0
  9 10  1  0
 10 11  1  0
 11 12  1  0
 12 13  1  0
 13 14  1  0
 14 15  2  0
 15 16  1  0
 16 17  2  0
 17 18  1  0
 18 19  2  0
 19 20  1  0
 20 21  2  0
 21 22  1  0
 22 23  2  0
 23 24  1  0
 24 25  1  0
 25 26  1  0
 26 27  2  0
 26 28  1  0
 28 29  1  0
 29 30  1  0
 30 31  2  0
 31 32  1  0
 32 33  2  0
 33 34  1  0
 23 35  1  0
 35 36  1  0
 10  2  1  0
 36 13  2  0
  9  4  1  0
 35 15  1  0
 21 16  1  0
 34 30  1  0
  1 37  1  0
  1 38  1  0
  1 39  1  0
  5 40  1  0
  6 41  1  0
  7 42  1  0
  8 43  1  0
 11 44  1  0
 11 45  1  0
 12 46  1  0
 12 47  1  0
 17 48  1  0
 18 49  1  0
 19 50  1  0
 20 51  1  0
 25 52  1  0
 25 53  1  0
 28 54  1  0
 29 55  1  0
 29 56  1  0
 31 57  1  0
 32 58  1  0
 33 59  1  0
M  END
$$$$
