
     RDKit          3D

 24 26  0  0  0  0  0  0  0  0999 V2000
    3.1184   -1.3048   -0.4413 N   0  0  0  0  0  0  0  0  0  0  0  0
    1.7239   -1.1637   -0.2991 C   0  0  0  0  0  0  0  0  0  0  0  0
    0.8888   -2.2317   -0.7011 C   0  0  0  0  0  0  0  0  0  0  0  0
   -0.5117   -2.1262   -0.6801 C   0  0  0  0  0  0  0  0  0  0  0  0
   -1.0795   -0.9266   -0.2937 C   0  0  0  0  0  0  0  0  0  0  0  0
   -0.2658    0.1250    0.0382 C   0  0  0  0  0  0  0  0  0  0  0  0
   -1.0222    1.2265    0.3519 C   0  0  0  0  0  0  0  0  0  0  0  0
   -0.3932    2.4111    0.6936 C   0  0  0  0  0  0  0  0  0  0  0  0
    1.0078    2.4482    0.7009 C   0  0  0  0  0  0  0  0  0  0  0  0
    1.7663    1.3050    0.3757 C   0  0  0  0  0  0  0  0  0  0  0  0
    1.1330    0.0855    0.0363 C   0  0  0  0  0  0  0  0  0  0  0  0
   -2.4896    0.9301    0.2533 C   0  0  0  0  0  0  0  0  0  0  0  0
   -2.5288   -0.5510   -0.2016 C   0  0  0  0  0  0  0  0  0  0  0  0
    3.6431   -0.6864    0.1678 H   0  0  0  0  0  0  0  0  0  0  0  0
    3.4333   -2.2667   -0.3678 H   0  0  0  0  0  0  0  0  0  0  0  0
    1.3337   -3.1662   -1.0348 H   0  0  0  0  0  0  0  0  0  0  0  0
   -1.1289   -2.9677   -0.9777 H   0  0  0  0  0  0  0  0  0  0  0  0
   -0.9677    3.2975    0.9431 H   0  0  0  0  0  0  0  0  0  0  0  0
    1.5193    3.3731    0.9572 H   0  0  0  0  0  0  0  0  0  0  0  0
    2.8496    1.3763    0.3818 H   0  0  0  0  0  0  0  0  0  0  0  0
   -2.9747    1.5771   -0.4848 H   0  0  0  0  0  0  0  0  0  0  0  0
   -2.9813    1.0527    1.2238 H   0  0  0  0  0  0  0  0  0  0  0  0
   -3.0220   -0.6455   -1.1746 H   0  0  0  0  0  0  0  0  0  0  0  0
   -3.0518   -1.1715    0.5332 H   0  0  0  0  0  0  0  0  0  0  0  0
  1  2  1  0
  2  3  2  0
  3  4  1  0
  4  5  2  0
  5  6  1  0
  6  7  2  0
  7  8  1  0
  8  9  2  0
  9 10  1  0
 10 11  2  0
  7 12  1  0
 12 13  1  0
 11  2  1  0
 13  5  1  0
 11  6  1  0
  1 14  1  0
  1 15  1  0
  3 16  1  0
  4 17  1  0
  8 18  1  0
  9 19  1  0
 10 20  1  0
 12 21  1  0
 12 22  1  0
 13 23  1  0
 13 24  1  0
M  END
$$$$
