
     RDKit          3D

 64 69  0  0  0  0  0  0  0  0999 V2000
    7.1064    1.5359   -2.9512 F   0  0  0  0  0  0  0  0  0  0  0  0
    6.1351    1.0090   -2.1522 C   0  0  0  0  0  0  0  0  0  0  0  0
    5.2684    2.0323   -1.9112 F   0  0  0  0  0  0  0  0  0  0  0  0
    5.4586    0.1220   -2.9344 F   0  0  0  0  0  0  0  0  0  0  0  0
    6.6676    0.3775   -0.8831 C   0  0  0  0  0  0  0  0  0  0  0  0
    8.0612    0.2647   -0.7113 C   0  0  0  0  0  0  0  0  0  0  0  0
    8.6015   -0.3192    0.4342 C   0  0  0  0  0  0  0  0  0  0  0  0
    7.7590   -0.8011    1.4289 C   0  0  0  0  0  0  0  0  0  0  0  0
    6.3766   -0.7015    1.2790 C   0  0  0  0  0  0  0  0  0  0  0  0
    5.8131   -0.1199    0.1286 C   0  0  0  0  0  0  0  0  0  0  0  0
    4.3006   -0.0332    0.0382 C   0  0  0  0  0  0  0  0  0  0  0  0
    3.7506    1.2007    0.7816 C   0  0  0  0  0  0  0  0  0  0  0  0
    2.3063    1.4369    0.6806 N   0  0  0  0  0  0  0  0  0  0  0  0
    1.8351    1.7532   -0.6820 C   0  0  0  0  0  0  0  0  0  0  0  0
    0.8439    0.7348   -1.2853 C   0  0  0  0  0  0  0  0  0  0  0  0
   -0.3160    0.5197   -0.4012 N   0  0  0  0  0  0  0  0  0  0  0  0
   -1.4359   -0.1425   -0.8975 C   0  0  0  0  0  0  0  0  0  0  0  0
   -1.3119   -0.7847   -2.0347 N   0  0  0  0  0  0  0  0  0  0  0  0
   -2.3890   -1.5058   -2.5825 C   0  0  0  0  0  0  0  0  0  0  0  0
   -2.1919   -2.1753   -3.7922 C   0  0  0  0  0  0  0  0  0  0  0  0
   -3.2255   -2.9131   -4.3767 C   0  0  0  0  0  0  0  0  0  0  0  0
   -4.4704   -2.9896   -3.7519 C   0  0  0  0  0  0  0  0  0  0  0  0
   -4.6888   -2.3294   -2.5417 C   0  0  0  0  0  0  0  0  0  0  0  0
   -3.6453   -1.5943   -1.9698 C   0  0  0  0  0  0  0  0  0  0  0  0
   -3.7828   -0.8852   -0.7654 N   0  0  0  0  0  0  0  0  0  0  0  0
   -4.8843   -0.7625    0.0481 C   0  0  0  0  0  0  0  0  0  0  0  0
   -4.5691    0.0925    1.0866 C   0  0  0  0  0  0  0  0  0  0  0  0
   -5.5057    0.4888    2.1266 C   0  0  0  0  0  0  0  0  0  0  0  0
   -5.5068    1.8051    2.6061 C   0  0  0  0  0  0  0  0  0  0  0  0
   -6.3973    2.1939    3.6103 C   0  0  0  0  0  0  0  0  0  0  0  0
   -7.2905    1.2693    4.1474 C   0  0  0  0  0  0  0  0  0  0  0  0
   -7.2954   -0.0436    3.6814 C   0  0  0  0  0  0  0  0  0  0  0  0
   -6.4076   -0.4327    2.6750 C   0  0  0  0  0  0  0  0  0  0  0  0
   -3.2215    0.4954    0.8819 C   0  0  0  0  0  0  0  0  0  0  0  0
   -2.7365   -0.1580   -0.2385 C   0  0  0  0  0  0  0  0  0  0  0  0
   -0.0243    0.5823    1.0391 C   0  0  0  0  0  0  0  0  0  0  0  0
    1.4828    0.4070    1.3309 C   0  0  0  0  0  0  0  0  0  0  0  0
    8.7409    0.6345   -1.4787 H   0  0  0  0  0  0  0  0  0  0  0  0
    9.6803   -0.3969    0.5493 H   0  0  0  0  0  0  0  0  0  0  0  0
    8.1779   -1.2567    2.3227 H   0  0  0  0  0  0  0  0  0  0  0  0
    5.7346   -1.0847    2.0707 H   0  0  0  0  0  0  0  0  0  0  0  0
    3.8816   -0.9533    0.4642 H   0  0  0  0  0  0  0  0  0  0  0  0
    3.9865   -0.0350   -1.0103 H   0  0  0  0  0  0  0  0  0  0  0  0
    4.2689    2.1021    0.4288 H   0  0  0  0  0  0  0  0  0  0  0  0
    4.0152    1.1286    1.8455 H   0  0  0  0  0  0  0  0  0  0  0  0
    2.6692    1.8988   -1.3791 H   0  0  0  0  0  0  0  0  0  0  0  0
    1.3270    2.7252   -0.6223 H   0  0  0  0  0  0  0  0  0  0  0  0
    0.5068    1.1188   -2.2569 H   0  0  0  0  0  0  0  0  0  0  0  0
    1.3548   -0.2214   -1.4605 H   0  0  0  0  0  0  0  0  0  0  0  0
   -1.2227   -2.1180   -4.2809 H   0  0  0  0  0  0  0  0  0  0  0  0
   -3.0571   -3.4262   -5.3202 H   0  0  0  0  0  0  0  0  0  0  0  0
   -5.2733   -3.5619   -4.2114 H   0  0  0  0  0  0  0  0  0  0  0  0
   -5.6674   -2.4004   -2.0790 H   0  0  0  0  0  0  0  0  0  0  0  0
   -5.8137   -1.2635   -0.1829 H   0  0  0  0  0  0  0  0  0  0  0  0
   -4.8250    2.5441    2.1928 H   0  0  0  0  0  0  0  0  0  0  0  0
   -6.3938    3.2194    3.9705 H   0  0  0  0  0  0  0  0  0  0  0  0
   -7.9818    1.5716    4.9298 H   0  0  0  0  0  0  0  0  0  0  0  0
   -7.9873   -0.7677    4.1025 H   0  0  0  0  0  0  0  0  0  0  0  0
   -6.4180   -1.4652    2.3361 H   0  0  0  0  0  0  0  0  0  0  0  0
   -2.6670    1.1848    1.5030 H   0  0  0  0  0  0  0  0  0  0  0  0
   -0.5575   -0.2101    1.5771 H   0  0  0  0  0  0  0  0  0  0  0  0
   -0.3621    1.5489    1.4306 H   0  0  0  0  0  0  0  0  0  0  0  0
    1.7734   -0.5977    1.0023 H   0  0  0  0  0  0  0  0  0  0  0  0
    1.6391    0.4523    2.4147 H   0  0  0  0  0  0  0  0  0  0  0  0
  1  2  1  0
  2  3  1  0
  2  4  1  0
  2  5  1  0
  5  6  2  0
  6  7  1  0
  7  8  2  0
  8  9  1  0
  9 10  2  0
 10 11  1  0
 11 12  1  0
 12 13  1  0
 13 14  1  0
 14 15  1  0
 15 16  1  0
 16 17  1  0
 17 18  2  0
 18 19  1  0
 19 20  2  0
 20 21  1  0
 21 22  2  0
 22 23  1  0
 23 24  2  0
 24 25  1  0
 25 26  1  0
 26 27  2  0
 27 28  1  0
 28 29  2  0
 29 30  1  0
 30 31  2  0
 31 32  1  0
 32 33  2  0
 27 34  1  0
 34 35  2  0
 16 36  1  0
 36 37  1  0
 10  5  1  0
 37 13  1  0
 35 17  1  0
 24 19  1  0
 35 25  1  0
 33 28  1  0
  6 38  1  0
  7 39  1  0
  8 40  1  0
  9 41  1  0
 11 42  1  0
 11 43  1  0
 12 44  1  0
 12 45  1  0
 14 46  1  0
 14 47  1  0
 15 48  1  0
 15 49  1  0
 20 50  1  0
 21 51  1  0
 22 52  1  0
 23 53  1  0
 26 54  1  0
 29 55  1  0
 30 56  1  0
 31 57  1  0
 32 58  1  0
 33 59  1  0
 34 60  1  0
 36 61  1  0
 36 62  1  0
 37 63  1  0
 37 64  1  0
M  END
$$$$
