
     RDKit          3D

 43 46  0  0  0  0  0  0  0  0999 V2000
    6.3959    1.9161   -1.3078 C   0  0  0  0  0  0  0  0  0  0  0  0
    5.0287    1.4702   -0.8769 C   0  0  0  0  0  0  0  0  0  0  0  0
    4.1455    2.3715   -0.2761 C   0  0  0  0  0  0  0  0  0  0  0  0
    2.8607    1.9653    0.0973 C   0  0  0  0  0  0  0  0  0  0  0  0
    2.4419    0.6500   -0.1340 C   0  0  0  0  0  0  0  0  0  0  0  0
    0.9968    0.2029    0.2890 C   0  0  0  0  0  0  0  0  0  0  0  0
    0.0101    1.0141    0.8377 C   0  0  0  0  0  0  0  0  0  0  0  0
   -1.1437    0.2554    1.0396 N   0  0  0  0  0  4  0  0  0  0  0  0
   -2.4100    0.7224    1.5978 C   0  0  0  0  0  0  0  0  0  0  0  0
   -3.5089    0.5113    0.5894 C   0  0  0  0  0  0  0  0  0  0  0  0
   -3.4605    1.1336   -0.6688 C   0  0  0  0  0  0  0  0  0  0  0  0
   -4.4780    0.9289   -1.6034 C   0  0  0  0  0  0  0  0  0  0  0  0
   -5.5569    0.1025   -1.2925 C   0  0  0  0  0  0  0  0  0  0  0  0
   -5.6175   -0.5121   -0.0453 C   0  0  0  0  0  0  0  0  0  0  0  0
   -6.9413   -1.5379    0.3421 Cl  0  0  0  0  0  0  0  0  0  0  0  0
   -4.6060   -0.3096    0.8953 C   0  0  0  0  0  0  0  0  0  0  0  0
   -0.8721   -0.9859    0.6487 C   0  0  0  0  0  0  0  0  0  0  0  0
    0.3864   -1.0365    0.2218 N   0  0  0  0  0  0  0  0  0  0  0  0
    0.7633   -2.3788   -0.1984 C   0  0  0  0  0  0  0  0  0  0  0  0
   -0.3926   -3.2655    0.3411 C   0  0  0  0  0  0  0  0  0  0  0  0
   -1.5653   -2.2935    0.5777 C   0  0  0  0  0  0  0  0  0  0  0  0
    3.3139   -0.2470   -0.7515 C   0  0  0  0  0  0  0  0  0  0  0  0
    4.5982    0.1633   -1.1242 C   0  0  0  0  0  0  0  0  0  0  0  0
    6.3582    2.3010   -2.3314 H   0  0  0  0  0  0  0  0  0  0  0  0
    6.7764    2.7022   -0.6471 H   0  0  0  0  0  0  0  0  0  0  0  0
    7.1082    1.0852   -1.2673 H   0  0  0  0  0  0  0  0  0  0  0  0
    4.4567    3.3992   -0.0936 H   0  0  0  0  0  0  0  0  0  0  0  0
    2.2182    2.7029    0.5684 H   0  0  0  0  0  0  0  0  0  0  0  0
   -0.0231    2.0579    1.1004 H   0  0  0  0  0  0  0  0  0  0  0  0
   -2.3379    1.7849    1.8549 H   0  0  0  0  0  0  0  0  0  0  0  0
   -2.5935    0.1632    2.5220 H   0  0  0  0  0  0  0  0  0  0  0  0
   -2.6309    1.7870   -0.9337 H   0  0  0  0  0  0  0  0  0  0  0  0
   -4.4352    1.4178   -2.5750 H   0  0  0  0  0  0  0  0  0  0  0  0
   -6.3481   -0.0520   -2.0229 H   0  0  0  0  0  0  0  0  0  0  0  0
   -4.6842   -0.7954    1.8662 H   0  0  0  0  0  0  0  0  0  0  0  0
    0.8062   -2.4072   -1.2910 H   0  0  0  0  0  0  0  0  0  0  0  0
    1.7196   -2.6737    0.2392 H   0  0  0  0  0  0  0  0  0  0  0  0
   -0.0887   -3.7003    1.3008 H   0  0  0  0  0  0  0  0  0  0  0  0
   -0.6483   -4.0866   -0.3339 H   0  0  0  0  0  0  0  0  0  0  0  0
   -2.2431   -2.2452   -0.2769 H   0  0  0  0  0  0  0  0  0  0  0  0
   -2.0939   -2.4695    1.5151 H   0  0  0  0  0  0  0  0  0  0  0  0
    3.0300   -1.2668   -0.9754 H   0  0  0  0  0  0  0  0  0  0  0  0
    5.2650   -0.5453   -1.6135 H   0  0  0  0  0  0  0  0  0  0  0  0
  1  2  1  0
  2  3  2  0
  3  4  1  0
  4  5  2  0
  5  6  1  0
  6  7  2  0
  7  8  1  0
  8  9  1  0
  9 10  1  0
 10 11  2  0
 11 12  1  0
 12 13  2  0
 13 14  1  0
 14 15  1  0
 14 16  2  0
  8 17  2  0
 17 18  1  0
 18 19  1  0
 19 20  1  0
 20 21  1  0
  5 22  1  0
 22 23  2  0
 23  2  1  0
 18  6  1  0
 16 10  1  0
 21 17  1  0
  1 24  1  0
  1 25  1  0
  1 26  1  0
  3 27  1  0
  4 28  1  0
  7 29  1  0
  9 30  1  0
  9 31  1  0
 11 32  1  0
 12 33  1  0
 13 34  1  0
 16 35  1  0
 19 36  1  0
 19 37  1  0
 20 38  1  0
 20 39  1  0
 21 40  1  0
 21 41  1  0
 22 42  1  0
 23 43  1  0
M  CHG  1   8   1
M  END
$$$$
