
     RDKit          3D

 50 51  0  0  0  0  0  0  0  0999 V2000
   -3.2679   -2.1695    3.5789 C   0  0  0  0  0  0  0  0  0  0  0  0
   -2.3561   -2.2933    2.4969 O   0  0  0  0  0  0  0  0  0  0  0  0
   -2.3134   -1.2729    1.5786 C   0  0  0  0  0  0  0  0  0  0  0  0
   -2.9977   -0.0596    1.7146 C   0  0  0  0  0  0  0  0  0  0  0  0
   -2.8754    0.9311    0.7383 C   0  0  0  0  0  0  0  0  0  0  0  0
   -2.0797    0.7095   -0.3830 C   0  0  0  0  0  0  0  0  0  0  0  0
   -1.9324    1.7617   -1.3363 N   0  0  0  0  0  0  0  0  0  0  0  0
   -0.7463    2.6339   -1.2914 C   0  0  0  0  0  0  0  0  0  0  0  0
    0.5384    1.8553   -1.5420 C   0  0  0  0  0  0  0  0  0  0  0  0
    0.8670    1.5476   -2.6852 O   0  0  0  0  0  0  0  0  0  0  0  0
    1.1981    1.5015   -0.3715 N   0  0  0  0  0  0  0  0  0  0  0  0
    2.3794    0.7309   -0.2291 C   0  0  0  0  0  0  0  0  0  0  0  0
    3.0984    0.2772   -1.3485 C   0  0  0  0  0  0  0  0  0  0  0  0
    4.2513   -0.5034   -1.2140 C   0  0  0  0  0  0  0  0  0  0  0  0
    4.6989   -0.8626    0.0489 C   0  0  0  0  0  0  0  0  0  0  0  0
    3.9849   -0.4266    1.1758 C   0  0  0  0  0  0  0  0  0  0  0  0
    4.4841   -0.8718    2.4721 N   0  0  0  0  0  4  0  0  0  0  0  0
    3.6839   -1.4436    3.2257 O   0  0  0  0  0  0  0  0  0  0  0  0
    5.6796   -0.6580    2.7180 O   0  0  0  0  0  1  0  0  0  0  0  0
    2.8438    0.4066    1.0727 C   0  0  0  0  0  0  0  0  0  0  0  0
    2.1385    0.9126    2.3104 C   0  0  0  0  0  0  0  0  0  0  0  0
   -2.9777    1.8292   -2.6518 S   0  0  0  0  0  6  0  0  0  0  0  0
   -2.0691    0.9866   -3.9305 C   0  0  0  0  0  0  0  0  0  0  0  0
   -3.0935    3.2190   -3.0466 O   0  0  0  0  0  0  0  0  0  0  0  0
   -4.1601    1.0472   -2.3600 O   0  0  0  0  0  0  0  0  0  0  0  0
   -1.4065   -0.5036   -0.5410 C   0  0  0  0  0  0  0  0  0  0  0  0
   -1.5059   -1.4945    0.4423 C   0  0  0  0  0  0  0  0  0  0  0  0
   -0.8525   -2.7010    0.3928 O   0  0  0  0  0  0  0  0  0  0  0  0
   -0.0238   -2.9598   -0.7323 C   0  0  0  0  0  0  0  0  0  0  0  0
   -3.2179   -3.0926    4.1651 H   0  0  0  0  0  0  0  0  0  0  0  0
   -2.9844   -1.3420    4.2380 H   0  0  0  0  0  0  0  0  0  0  0  0
   -4.2965   -2.0574    3.2212 H   0  0  0  0  0  0  0  0  0  0  0  0
   -3.6346    0.1462    2.5702 H   0  0  0  0  0  0  0  0  0  0  0  0
   -3.4161    1.8685    0.8519 H   0  0  0  0  0  0  0  0  0  0  0  0
   -0.7067    3.1434   -0.3221 H   0  0  0  0  0  0  0  0  0  0  0  0
   -0.7960    3.4318   -2.0388 H   0  0  0  0  0  0  0  0  0  0  0  0
    0.7161    1.7402    0.4880 H   0  0  0  0  0  0  0  0  0  0  0  0
    2.7922    0.5200   -2.3641 H   0  0  0  0  0  0  0  0  0  0  0  0
    4.7902   -0.8282   -2.1037 H   0  0  0  0  0  0  0  0  0  0  0  0
    5.5909   -1.4807    0.1503 H   0  0  0  0  0  0  0  0  0  0  0  0
    1.2787    0.2740    2.5430 H   0  0  0  0  0  0  0  0  0  0  0  0
    2.8009    0.9504    3.1826 H   0  0  0  0  0  0  0  0  0  0  0  0
    1.8006    1.9458    2.1795 H   0  0  0  0  0  0  0  0  0  0  0  0
   -1.1887    1.5726   -4.1933 H   0  0  0  0  0  0  0  0  0  0  0  0
   -1.8014   -0.0129   -3.5887 H   0  0  0  0  0  0  0  0  0  0  0  0
   -2.7225    0.9099   -4.8020 H   0  0  0  0  0  0  0  0  0  0  0  0
   -0.7980   -0.6542   -1.4261 H   0  0  0  0  0  0  0  0  0  0  0  0
   -0.6079   -2.9664   -1.6584 H   0  0  0  0  0  0  0  0  0  0  0  0
    0.8008   -2.2426   -0.7882 H   0  0  0  0  0  0  0  0  0  0  0  0
    0.4123   -3.9558   -0.6070 H   0  0  0  0  0  0  0  0  0  0  0  0
  1  2  1  0
  2  3  1  0
  3  4  2  0
  4  5  1  0
  5  6  2  0
  6  7  1  0
  7  8  1  0
  8  9  1  0
  9 10  2  0
  9 11  1  0
 11 12  1  0
 12 13  2  0
 13 14  1  0
 14 15  2  0
 15 16  1  0
 16 17  1  0
 17 18  2  0
 17 19  1  0
 16 20  2  0
 20 21  1  0
  7 22  1  0
 22 23  1  0
 22 24  2  0
 22 25  2  0
  6 26  1  0
 26 27  2  0
 27 28  1  0
 28 29  1  0
 27  3  1  0
 20 12  1  0
  1 30  1  0
  1 31  1  0
  1 32  1  0
  4 33  1  0
  5 34  1  0
  8 35  1  0
  8 36  1  0
 11 37  1  0
 13 38  1  0
 14 39  1  0
 15 40  1  0
 21 41  1  0
 21 42  1  0
 21 43  1  0
 23 44  1  0
 23 45  1  0
 23 46  1  0
 26 47  1  0
 29 48  1  0
 29 49  1  0
 29 50  1  0
M  CHG  2  17   1  19  -1
M  END
$$$$
