
     RDKit          3D

 35 37  0  0  0  0  0  0  0  0999 V2000
   -1.6149   -2.4948    2.1771 C   0  0  0  0  0  0  0  0  0  0  0  0
   -1.7571   -1.3072    1.2278 C   0  0  0  0  0  0  0  0  0  0  0  0
   -2.7550   -0.4479    1.7862 O   0  0  0  0  0  0  0  0  0  0  0  0
   -3.4252    0.2375    0.8110 C   0  0  0  0  0  0  0  0  0  0  0  0
   -4.5160   -0.3521    0.1730 C   0  0  0  0  0  0  0  0  0  0  0  0
   -5.2149    0.3644   -0.7997 C   0  0  0  0  0  0  0  0  0  0  0  0
   -4.8250    1.6680   -1.1110 C   0  0  0  0  0  0  0  0  0  0  0  0
   -5.7720    2.6385   -2.4285 Br  0  0  0  0  0  0  0  0  0  0  0  0
   -3.7492    2.2646   -0.4527 C   0  0  0  0  0  0  0  0  0  0  0  0
   -3.0517    1.5477    0.5204 C   0  0  0  0  0  0  0  0  0  0  0  0
   -0.3788   -0.6212    1.0643 C   0  0  0  0  0  0  0  0  0  0  0  0
   -0.1183    0.4498    1.6039 O   0  0  0  0  0  0  0  0  0  0  0  0
    0.4751   -1.3542    0.2626 N   0  0  0  0  0  0  0  0  0  0  0  0
    1.7643   -1.0329   -0.0824 C   0  0  0  0  0  0  0  0  0  0  0  0
    2.4823   -1.8084   -0.8662 N   0  0  0  0  0  0  0  0  0  0  0  0
    3.7487   -1.2991   -1.0826 N   0  0  0  0  0  0  0  0  0  0  0  0
    3.9194   -0.1576   -0.4538 C   0  0  0  0  0  0  0  0  0  0  0  0
    5.2601    0.6361   -0.5165 C   0  0  0  0  0  0  0  0  0  0  0  0
    6.0042    0.7207   -1.8251 C   0  0  0  0  0  0  0  0  0  0  0  0
    5.3136    1.9359   -1.2787 C   0  0  0  0  0  0  0  0  0  0  0  0
    2.5712    0.3687    0.4527 S   0  0  0  0  0  0  0  0  0  0  0  0
   -0.8985   -3.2331    1.8041 H   0  0  0  0  0  0  0  0  0  0  0  0
   -1.2773   -2.1631    3.1657 H   0  0  0  0  0  0  0  0  0  0  0  0
   -2.5821   -2.9890    2.3197 H   0  0  0  0  0  0  0  0  0  0  0  0
   -2.0718   -1.6908    0.2466 H   0  0  0  0  0  0  0  0  0  0  0  0
   -4.8279   -1.3584    0.4365 H   0  0  0  0  0  0  0  0  0  0  0  0
   -6.0633   -0.0949   -1.2999 H   0  0  0  0  0  0  0  0  0  0  0  0
   -3.4514    3.2842   -0.6822 H   0  0  0  0  0  0  0  0  0  0  0  0
   -2.2225    2.0106    1.0504 H   0  0  0  0  0  0  0  0  0  0  0  0
    0.1622   -2.2208   -0.1534 H   0  0  0  0  0  0  0  0  0  0  0  0
    5.8596    0.5577    0.3841 H   0  0  0  0  0  0  0  0  0  0  0  0
    5.5750    0.2381   -2.6965 H   0  0  0  0  0  0  0  0  0  0  0  0
    7.0870    0.6892   -1.7925 H   0  0  0  0  0  0  0  0  0  0  0  0
    5.9282    2.7328   -0.8759 H   0  0  0  0  0  0  0  0  0  0  0  0
    4.4221    2.2810   -1.7903 H   0  0  0  0  0  0  0  0  0  0  0  0
  1  2  1  0
  2  3  1  0
  3  4  1  0
  4  5  2  0
  5  6  1  0
  6  7  2  0
  7  8  1  0
  7  9  1  0
  9 10  2  0
  2 11  1  0
 11 12  2  0
 11 13  1  0
 13 14  1  0
 14 15  2  0
 15 16  1  0
 16 17  2  0
 17 18  1  0
 18 19  1  0
 19 20  1  0
 17 21  1  0
 10  4  1  0
 21 14  1  0
 20 18  1  0
  1 22  1  0
  1 23  1  0
  1 24  1  0
  2 25  1  0
  5 26  1  0
  6 27  1  0
  9 28  1  0
 10 29  1  0
 13 30  1  0
 18 31  1  0
 19 32  1  0
 19 33  1  0
 20 34  1  0
 20 35  1  0
M  END
$$$$
