
     RDKit          3D

 31 31  0  0  0  0  0  0  0  0999 V2000
    5.3880    0.1424    1.2367 C   0  0  0  0  0  0  0  0  0  0  0  0
    4.3101    0.2968    0.3258 O   0  0  0  0  0  0  0  0  0  0  0  0
    3.0959   -0.2249    0.8601 C   0  0  0  0  0  0  0  0  0  0  0  0
    2.0480   -0.0503   -0.0956 O   0  0  0  0  0  0  0  0  0  0  0  0
    0.8235   -0.4464    0.3858 C   0  0  0  0  0  0  0  0  0  0  0  0
   -0.3277   -0.0372   -0.1710 C   0  0  0  0  0  0  0  0  0  0  0  0
   -0.2846    0.8116   -1.2546 N   0  0  0  0  0  0  0  0  0  0  0  0
   -1.3399    1.3524   -1.9625 C   0  0  0  0  0  0  0  0  0  0  0  0
   -0.8792    2.2371   -3.0937 C   0  0  0  0  0  0  0  0  0  0  0  0
   -2.5340    1.1963   -1.7342 O   0  0  0  0  0  0  0  0  0  0  0  0
   -1.5892   -0.5204    0.4057 C   0  0  0  0  0  0  0  0  0  0  0  0
   -2.1474   -1.7303   -0.0281 C   0  0  0  0  0  0  0  0  0  0  0  0
   -3.3221   -2.2126    0.5525 C   0  0  0  0  0  0  0  0  0  0  0  0
   -3.9438   -1.4918    1.5715 C   0  0  0  0  0  0  0  0  0  0  0  0
   -3.3947   -0.2873    2.0099 C   0  0  0  0  0  0  0  0  0  0  0  0
   -2.2198    0.1968    1.4310 C   0  0  0  0  0  0  0  0  0  0  0  0
    5.1873    0.6858    2.1651 H   0  0  0  0  0  0  0  0  0  0  0  0
    5.5618   -0.9167    1.4502 H   0  0  0  0  0  0  0  0  0  0  0  0
    6.2893    0.5577    0.7778 H   0  0  0  0  0  0  0  0  0  0  0  0
    3.2242   -1.2942    1.0689 H   0  0  0  0  0  0  0  0  0  0  0  0
    2.8482    0.3160    1.7822 H   0  0  0  0  0  0  0  0  0  0  0  0
    0.8562   -1.1236    1.2304 H   0  0  0  0  0  0  0  0  0  0  0  0
    0.6562    1.0546   -1.5514 H   0  0  0  0  0  0  0  0  0  0  0  0
   -0.7354    3.2544   -2.7205 H   0  0  0  0  0  0  0  0  0  0  0  0
   -1.6377    2.2410   -3.8818 H   0  0  0  0  0  0  0  0  0  0  0  0
    0.0557    1.8701   -3.5269 H   0  0  0  0  0  0  0  0  0  0  0  0
   -1.6757   -2.2939   -0.8290 H   0  0  0  0  0  0  0  0  0  0  0  0
   -3.7568   -3.1447    0.2023 H   0  0  0  0  0  0  0  0  0  0  0  0
   -4.8636   -1.8628    2.0159 H   0  0  0  0  0  0  0  0  0  0  0  0
   -3.8866    0.2811    2.7945 H   0  0  0  0  0  0  0  0  0  0  0  0
   -1.8063    1.1429    1.7706 H   0  0  0  0  0  0  0  0  0  0  0  0
  1  2  1  0
  2  3  1  0
  3  4  1  0
  4  5  1  0
  5  6  2  3
  6  7  1  0
  7  8  1  0
  8  9  1  0
  8 10  2  0
  6 11  1  0
 11 12  2  0
 12 13  1  0
 13 14  2  0
 14 15  1  0
 15 16  2  0
 16 11  1  0
  1 17  1  0
  1 18  1  0
  1 19  1  0
  3 20  1  0
  3 21  1  0
  5 22  1  0
  7 23  1  0
  9 24  1  0
  9 25  1  0
  9 26  1  0
 12 27  1  0
 13 28  1  0
 14 29  1  0
 15 30  1  0
 16 31  1  0
M  END
$$$$
