
     RDKit          3D

 23 24  0  0  0  0  0  0  0  0999 V2000
    1.0684   -1.7969   -0.9989 O   0  0  0  0  0  0  0  0  0  0  0  0
    1.7603   -0.8183   -0.8007 C   0  0  0  0  0  0  0  0  0  0  0  0
    3.0152   -0.6405   -1.3092 O   0  0  0  0  0  0  0  0  0  0  0  0
    3.4760    0.6757   -1.0062 C   0  0  0  0  0  0  0  0  0  0  0  0
    2.7281    1.1021    0.2293 C   0  0  0  0  0  0  0  0  0  0  0  0
    1.4517    0.3639    0.0465 C   0  0  0  0  0  0  0  0  0  0  0  0
    0.2640    0.7642    0.5257 C   0  0  0  0  0  0  0  0  0  0  0  0
   -1.0348    0.1086    0.3481 C   0  0  0  0  0  0  0  0  0  0  0  0
   -1.2779   -1.1842    0.8229 C   0  0  0  0  0  0  0  0  0  0  0  0
   -2.5398   -1.7654    0.6771 C   0  0  0  0  0  0  0  0  0  0  0  0
   -3.5711   -1.0534    0.0675 C   0  0  0  0  0  0  0  0  0  0  0  0
   -3.3422    0.2405   -0.3964 C   0  0  0  0  0  0  0  0  0  0  0  0
   -2.0799    0.8213   -0.2527 C   0  0  0  0  0  0  0  0  0  0  0  0
    3.2709    1.3251   -1.8652 H   0  0  0  0  0  0  0  0  0  0  0  0
    4.5570    0.6548   -0.8372 H   0  0  0  0  0  0  0  0  0  0  0  0
    3.2344    0.7409    1.1317 H   0  0  0  0  0  0  0  0  0  0  0  0
    2.6211    2.1885    0.2896 H   0  0  0  0  0  0  0  0  0  0  0  0
    0.2111    1.6881    1.0991 H   0  0  0  0  0  0  0  0  0  0  0  0
   -0.4847   -1.7572    1.2973 H   0  0  0  0  0  0  0  0  0  0  0  0
   -2.7126   -2.7770    1.0345 H   0  0  0  0  0  0  0  0  0  0  0  0
   -4.5507   -1.5091   -0.0490 H   0  0  0  0  0  0  0  0  0  0  0  0
   -4.1452    0.7966   -0.8725 H   0  0  0  0  0  0  0  0  0  0  0  0
   -1.9190    1.8317   -0.6204 H   0  0  0  0  0  0  0  0  0  0  0  0
  1  2  2  0
  2  3  1  0
  3  4  1  0
  4  5  1  0
  5  6  1  0
  6  7  2  3
  7  8  1  0
  8  9  2  0
  9 10  1  0
 10 11  2  0
 11 12  1  0
 12 13  2  0
  6  2  1  0
 13  8  1  0
  4 14  1  0
  4 15  1  0
  5 16  1  0
  5 17  1  0
  7 18  1  0
  9 19  1  0
 10 20  1  0
 11 21  1  0
 12 22  1  0
 13 23  1  0
M  END
$$$$
