
     RDKit          3D

 57 59  0  0  0  0  0  0  0  0999 V2000
    9.0185    0.2752    1.8757 C   0  0  0  0  0  0  0  0  0  0  0  0
    8.5808   -0.8970    1.1960 O   0  0  0  0  0  0  0  0  0  0  0  0
    7.5150   -0.7604    0.3510 C   0  0  0  0  0  0  0  0  0  0  0  0
    6.8171    0.4193    0.0883 C   0  0  0  0  0  0  0  0  0  0  0  0
    5.7395    0.4220   -0.8096 C   0  0  0  0  0  0  0  0  0  0  0  0
    5.3515   -0.7566   -1.4462 C   0  0  0  0  0  0  0  0  0  0  0  0
    4.3183   -0.8902   -2.3272 O   0  0  0  0  0  0  0  0  0  0  0  0
    3.7233    0.3139   -2.8241 C   0  0  0  0  0  0  0  0  0  0  0  0
    2.7076   -0.0503   -3.9083 C   0  0  0  0  0  0  0  0  0  0  0  0
    1.1983   -0.8224   -3.2303 S   0  0  0  0  0  0  0  0  0  0  0  0
    0.3390    0.5723   -2.6784 C   0  0  0  0  0  0  0  0  0  0  0  0
    0.7705    1.8126   -2.6905 N   0  0  0  0  0  0  0  0  0  0  0  0
   -0.2382    2.6080   -2.2084 N   0  0  0  0  0  0  0  0  0  0  0  0
   -1.2715    1.8371   -1.9172 C   0  0  0  0  0  0  0  0  0  0  0  0
   -2.5737    2.3218   -1.3796 C   0  0  0  0  0  0  0  0  0  0  0  0
   -2.5136    2.5727    0.1317 C   0  0  0  0  0  0  0  0  0  0  0  0
   -3.5155    1.8094    0.8633 N   0  0  0  0  0  0  0  0  0  0  0  0
   -3.3019    0.4927    1.2134 C   0  0  0  0  0  0  0  0  0  0  0  0
   -2.2747   -0.1151    0.9319 O   0  0  0  0  0  0  0  0  0  0  0  0
   -4.4122   -0.2024    1.9246 C   0  0  0  0  0  0  0  0  0  0  0  0
   -5.3579    0.4861    2.6999 C   0  0  0  0  0  0  0  0  0  0  0  0
   -6.3921   -0.2142    3.3338 C   0  0  0  0  0  0  0  0  0  0  0  0
   -6.4837   -1.6042    3.2101 C   0  0  0  0  0  0  0  0  0  0  0  0
   -7.4394   -2.4013    3.7738 O   0  0  0  0  0  0  0  0  0  0  0  0
   -8.4755   -1.7522    4.5005 C   0  0  0  0  0  0  0  0  0  0  0  0
   -5.5253   -2.2898    2.4578 C   0  0  0  0  0  0  0  0  0  0  0  0
   -4.4940   -1.5970    1.8188 C   0  0  0  0  0  0  0  0  0  0  0  0
   -0.9405    0.5301   -2.1939 N   0  0  0  0  0  0  0  0  0  0  0  0
   -1.7579   -0.6479   -2.0468 C   0  0  0  0  0  0  0  0  0  0  0  0
    6.0459   -1.9362   -1.1758 C   0  0  0  0  0  0  0  0  0  0  0  0
    7.1242   -1.9365   -0.2880 C   0  0  0  0  0  0  0  0  0  0  0  0
    8.2354    0.6596    2.5409 H   0  0  0  0  0  0  0  0  0  0  0  0
    9.3538    1.0413    1.1680 H   0  0  0  0  0  0  0  0  0  0  0  0
    9.8787    0.0020    2.4984 H   0  0  0  0  0  0  0  0  0  0  0  0
    7.0818    1.3576    0.5641 H   0  0  0  0  0  0  0  0  0  0  0  0
    5.2183    1.3596   -0.9770 H   0  0  0  0  0  0  0  0  0  0  0  0
    4.5036    0.9312   -3.2919 H   0  0  0  0  0  0  0  0  0  0  0  0
    3.2564    0.8834   -2.0101 H   0  0  0  0  0  0  0  0  0  0  0  0
    2.4336    0.8341   -4.4933 H   0  0  0  0  0  0  0  0  0  0  0  0
    3.1527   -0.7759   -4.5986 H   0  0  0  0  0  0  0  0  0  0  0  0
   -3.3960    1.6488   -1.6457 H   0  0  0  0  0  0  0  0  0  0  0  0
   -2.8014    3.2717   -1.8807 H   0  0  0  0  0  0  0  0  0  0  0  0
   -1.5278    2.3452    0.5553 H   0  0  0  0  0  0  0  0  0  0  0  0
   -2.7312    3.6271    0.3397 H   0  0  0  0  0  0  0  0  0  0  0  0
   -4.4386    2.2100    0.9570 H   0  0  0  0  0  0  0  0  0  0  0  0
   -5.2952    1.5642    2.8427 H   0  0  0  0  0  0  0  0  0  0  0  0
   -7.1076    0.3541    3.9209 H   0  0  0  0  0  0  0  0  0  0  0  0
   -9.1800   -2.5219    4.8362 H   0  0  0  0  0  0  0  0  0  0  0  0
   -8.0742   -1.2511    5.3882 H   0  0  0  0  0  0  0  0  0  0  0  0
   -9.0250   -1.0500    3.8616 H   0  0  0  0  0  0  0  0  0  0  0  0
   -5.5816   -3.3732    2.3665 H   0  0  0  0  0  0  0  0  0  0  0  0
   -3.7603   -2.1512    1.2353 H   0  0  0  0  0  0  0  0  0  0  0  0
   -2.7560   -0.3871   -1.6965 H   0  0  0  0  0  0  0  0  0  0  0  0
   -1.8488   -1.1362   -3.0218 H   0  0  0  0  0  0  0  0  0  0  0  0
   -1.2821   -1.3195   -1.3263 H   0  0  0  0  0  0  0  0  0  0  0  0
    5.7504   -2.8617   -1.6656 H   0  0  0  0  0  0  0  0  0  0  0  0
    7.6592   -2.8620   -0.0932 H   0  0  0  0  0  0  0  0  0  0  0  0
  1  2  1  0
  2  3  1  0
  3  4  2  0
  4  5  1  0
  5  6  2  0
  6  7  1  0
  7  8  1  0
  8  9  1  0
  9 10  1  0
 10 11  1  0
 11 12  2  0
 12 13  1  0
 13 14  2  0
 14 15  1  0
 15 16  1  0
 16 17  1  0
 17 18  1  0
 18 19  2  0
 18 20  1  0
 20 21  2  0
 21 22  1  0
 22 23  2  0
 23 24  1  0
 24 25  1  0
 23 26  1  0
 26 27  2  0
 14 28  1  0
 28 29  1  0
  6 30  1  0
 30 31  2  0
 31  3  1  0
 28 11  1  0
 27 20  1  0
  1 32  1  0
  1 33  1  0
  1 34  1  0
  4 35  1  0
  5 36  1  0
  8 37  1  0
  8 38  1  0
  9 39  1  0
  9 40  1  0
 15 41  1  0
 15 42  1  0
 16 43  1  0
 16 44  1  0
 17 45  1  0
 21 46  1  0
 22 47  1  0
 25 48  1  0
 25 49  1  0
 25 50  1  0
 26 51  1  0
 27 52  1  0
 29 53  1  0
 29 54  1  0
 29 55  1  0
 30 56  1  0
 31 57  1  0
M  END
$$$$
