
     RDKit          3D

 36 38  0  0  0  0  0  0  0  0999 V2000
   -3.7293    0.8293   -2.5697 C   0  0  0  0  0  0  0  0  0  0  0  0
   -2.7864    0.4091   -1.4862 C   0  0  0  0  0  0  0  0  0  0  0  0
   -1.4726    0.6524   -1.6717 N   0  0  0  0  0  0  0  0  0  0  0  0
   -0.6433    0.2462   -0.6772 C   0  0  0  0  0  0  0  0  0  0  0  0
    1.0972    0.5714   -0.9429 S   0  0  0  0  0  6  0  0  0  0  0  0
    1.5262   -0.2367   -2.0757 O   0  0  0  0  0  0  0  0  0  0  0  0
    1.2799    2.0159   -0.9290 O   0  0  0  0  0  0  0  0  0  0  0  0
    1.8563   -0.0965    0.5317 C   0  0  0  0  0  0  0  0  0  0  0  0
    3.3520    0.1002    0.4661 C   0  0  0  0  0  0  0  0  0  0  0  0
    4.1741   -0.8763   -0.1166 C   0  0  0  0  0  0  0  0  0  0  0  0
    5.5573   -0.6926   -0.1794 C   0  0  0  0  0  0  0  0  0  0  0  0
    6.1264    0.4689    0.3369 C   0  0  0  0  0  0  0  0  0  0  0  0
    7.8305    0.6935    0.2613 Cl  0  0  0  0  0  0  0  0  0  0  0  0
    5.3234    1.4507    0.9122 C   0  0  0  0  0  0  0  0  0  0  0  0
    3.9400    1.2680    0.9757 C   0  0  0  0  0  0  0  0  0  0  0  0
   -0.9654   -0.3757    0.4779 N   0  0  0  0  0  0  0  0  0  0  0  0
   -2.2807   -0.5750    0.6013 C   0  0  0  0  0  0  0  0  0  0  0  0
   -3.2292   -0.2037   -0.3379 C   0  0  0  0  0  0  0  0  0  0  0  0
   -4.5999   -0.6077    0.0860 C   0  0  0  0  0  0  0  0  0  0  0  0
   -4.3872   -0.8464    1.5894 C   0  0  0  0  0  0  0  0  0  0  0  0
   -2.9255   -1.2809    1.7614 C   0  0  0  0  0  0  0  0  0  0  0  0
   -4.2854   -0.0348   -2.9462 H   0  0  0  0  0  0  0  0  0  0  0  0
   -4.4348    1.5750   -2.1906 H   0  0  0  0  0  0  0  0  0  0  0  0
   -3.1845    1.2733   -3.4091 H   0  0  0  0  0  0  0  0  0  0  0  0
    1.6147   -1.1621    0.5985 H   0  0  0  0  0  0  0  0  0  0  0  0
    1.4421    0.4194    1.4038 H   0  0  0  0  0  0  0  0  0  0  0  0
    3.7433   -1.7828   -0.5390 H   0  0  0  0  0  0  0  0  0  0  0  0
    6.1818   -1.4546   -0.6381 H   0  0  0  0  0  0  0  0  0  0  0  0
    5.7652    2.3621    1.3059 H   0  0  0  0  0  0  0  0  0  0  0  0
    3.3247    2.0518    1.4147 H   0  0  0  0  0  0  0  0  0  0  0  0
   -5.3454    0.1729   -0.0884 H   0  0  0  0  0  0  0  0  0  0  0  0
   -4.8969   -1.5310   -0.4219 H   0  0  0  0  0  0  0  0  0  0  0  0
   -4.5473    0.0976    2.1290 H   0  0  0  0  0  0  0  0  0  0  0  0
   -5.0919   -1.5757    2.0008 H   0  0  0  0  0  0  0  0  0  0  0  0
   -2.8157   -2.3637    1.6445 H   0  0  0  0  0  0  0  0  0  0  0  0
   -2.5136   -0.9616    2.7222 H   0  0  0  0  0  0  0  0  0  0  0  0
  1  2  1  0
  2  3  2  0
  3  4  1  0
  4  5  1  0
  5  6  2  0
  5  7  2  0
  5  8  1  0
  8  9  1  0
  9 10  2  0
 10 11  1  0
 11 12  2  0
 12 13  1  0
 12 14  1  0
 14 15  2  0
  4 16  2  0
 16 17  1  0
 17 18  2  0
 18 19  1  0
 19 20  1  0
 20 21  1  0
 18  2  1  0
 15  9  1  0
 21 17  1  0
  1 22  1  0
  1 23  1  0
  1 24  1  0
  8 25  1  0
  8 26  1  0
 10 27  1  0
 11 28  1  0
 14 29  1  0
 15 30  1  0
 19 31  1  0
 19 32  1  0
 20 33  1  0
 20 34  1  0
 21 35  1  0
 21 36  1  0
M  END
$$$$
