
     RDKit          3D

 53 55  0  0  0  0  0  0  0  0999 V2000
    6.8381    2.2107    2.5317 C   0  0  0  0  0  0  0  0  0  0  0  0
    5.4894    2.6502    2.6391 O   0  0  0  0  0  0  0  0  0  0  0  0
    4.5171    1.7659    2.2630 C   0  0  0  0  0  0  0  0  0  0  0  0
    4.7249    0.4757    1.7708 C   0  0  0  0  0  0  0  0  0  0  0  0
    3.6339   -0.3288    1.4228 C   0  0  0  0  0  0  0  0  0  0  0  0
    2.3336    0.1688    1.5493 C   0  0  0  0  0  0  0  0  0  0  0  0
    0.9414   -0.8710    1.1485 S   0  0  0  0  0  6  0  0  0  0  0  0
   -0.1943   -0.3704    1.8951 O   0  0  0  0  0  0  0  0  0  0  0  0
    1.3913   -2.2395    1.2796 O   0  0  0  0  0  0  0  0  0  0  0  0
    0.6482   -0.5662   -0.4703 N   0  0  0  0  0  0  0  0  0  0  0  0
    0.2581    0.7719   -0.9056 C   0  0  0  0  0  0  0  0  0  0  0  0
    0.4441    0.6874   -2.4024 C   0  0  0  0  0  0  0  0  0  0  0  0
    1.5560   -0.1995   -2.5852 O   0  0  0  0  0  0  0  0  0  0  0  0
    1.5605   -1.1247   -1.4744 C   0  0  0  0  0  0  0  0  0  0  0  0
    1.1081   -2.5240   -1.9728 C   0  0  0  0  0  0  0  0  0  0  0  0
   -0.2792   -2.5551   -2.4162 N   0  0  0  0  0  0  0  0  0  0  0  0
   -1.2945   -2.7930   -1.5162 C   0  0  0  0  0  0  0  0  0  0  0  0
   -1.2000   -3.3747   -0.4450 O   0  0  0  0  0  0  0  0  0  0  0  0
   -2.6418   -2.1648   -1.9267 C   0  0  0  0  0  0  0  0  0  0  0  0
   -2.7243   -1.5183   -2.9620 O   0  0  0  0  0  0  0  0  0  0  0  0
   -3.6309   -2.3524   -0.9901 N   0  0  0  0  0  0  0  0  0  0  0  0
   -4.8323   -1.5520   -0.9812 C   0  0  0  0  0  0  0  0  0  0  0  0
   -4.6839   -0.2341   -0.2477 C   0  0  0  0  0  0  0  0  0  0  0  0
   -3.6279   -0.0050    0.6558 C   0  0  0  0  0  0  0  0  0  0  0  0
   -3.5080    1.2066    1.3423 C   0  0  0  0  0  0  0  0  0  0  0  0
   -4.4481    2.2126    1.1517 C   0  0  0  0  0  0  0  0  0  0  0  0
   -5.5146    2.0023    0.2811 C   0  0  0  0  0  0  0  0  0  0  0  0
   -5.6370    0.7879   -0.4057 C   0  0  0  0  0  0  0  0  0  0  0  0
   -7.0133    0.6001   -1.4361 Cl  0  0  0  0  0  0  0  0  0  0  0  0
    2.1158    1.4470    2.0682 C   0  0  0  0  0  0  0  0  0  0  0  0
    3.2103    2.2425    2.4125 C   0  0  0  0  0  0  0  0  0  0  0  0
    7.0999    1.9923    1.4904 H   0  0  0  0  0  0  0  0  0  0  0  0
    7.4828    3.0258    2.8734 H   0  0  0  0  0  0  0  0  0  0  0  0
    7.0244    1.3460    3.1774 H   0  0  0  0  0  0  0  0  0  0  0  0
    5.7219    0.0615    1.6549 H   0  0  0  0  0  0  0  0  0  0  0  0
    3.8098   -1.3416    1.0664 H   0  0  0  0  0  0  0  0  0  0  0  0
   -0.7715    1.0165   -0.6350 H   0  0  0  0  0  0  0  0  0  0  0  0
    0.9339    1.5295   -0.5013 H   0  0  0  0  0  0  0  0  0  0  0  0
   -0.4326    0.2600   -2.8987 H   0  0  0  0  0  0  0  0  0  0  0  0
    0.6622    1.6574   -2.8571 H   0  0  0  0  0  0  0  0  0  0  0  0
    2.5940   -1.1766   -1.1226 H   0  0  0  0  0  0  0  0  0  0  0  0
    1.2453   -3.2720   -1.1859 H   0  0  0  0  0  0  0  0  0  0  0  0
    1.7094   -2.8128   -2.8413 H   0  0  0  0  0  0  0  0  0  0  0  0
   -0.5362   -1.9759   -3.2110 H   0  0  0  0  0  0  0  0  0  0  0  0
   -3.3467   -2.8341   -0.1404 H   0  0  0  0  0  0  0  0  0  0  0  0
   -5.6075   -2.1482   -0.4875 H   0  0  0  0  0  0  0  0  0  0  0  0
   -5.1203   -1.3780   -2.0236 H   0  0  0  0  0  0  0  0  0  0  0  0
   -2.8729   -0.7652    0.8492 H   0  0  0  0  0  0  0  0  0  0  0  0
   -2.6771    1.3500    2.0308 H   0  0  0  0  0  0  0  0  0  0  0  0
   -4.3577    3.1528    1.6893 H   0  0  0  0  0  0  0  0  0  0  0  0
   -6.2561    2.7862    0.1468 H   0  0  0  0  0  0  0  0  0  0  0  0
    1.1075    1.8291    2.2115 H   0  0  0  0  0  0  0  0  0  0  0  0
    3.0468    3.2412    2.8127 H   0  0  0  0  0  0  0  0  0  0  0  0
  1  2  1  0
  2  3  1  0
  3  4  2  0
  4  5  1  0
  5  6  2  0
  6  7  1  0
  7  8  2  0
  7  9  2  0
  7 10  1  0
 10 11  1  0
 11 12  1  0
 12 13  1  0
 13 14  1  0
 14 15  1  0
 15 16  1  0
 16 17  1  0
 17 18  2  0
 17 19  1  0
 19 20  2  0
 19 21  1  0
 21 22  1  0
 22 23  1  0
 23 24  2  0
 24 25  1  0
 25 26  2  0
 26 27  1  0
 27 28  2  0
 28 29  1  0
  6 30  1  0
 30 31  2  0
 31  3  1  0
 14 10  1  0
 28 23  1  0
  1 32  1  0
  1 33  1  0
  1 34  1  0
  4 35  1  0
  5 36  1  0
 11 37  1  0
 11 38  1  0
 12 39  1  0
 12 40  1  0
 14 41  1  0
 15 42  1  0
 15 43  1  0
 16 44  1  0
 21 45  1  0
 22 46  1  0
 22 47  1  0
 24 48  1  0
 25 49  1  0
 26 50  1  0
 27 51  1  0
 30 52  1  0
 31 53  1  0
M  END
$$$$
