
     RDKit          3D

 48 51  0  0  0  0  0  0  0  0999 V2000
    6.5507    0.3298   -3.1936 C   0  0  0  0  0  0  0  0  0  0  0  0
    5.8475    0.0447   -1.9311 C   0  0  0  0  0  0  0  0  0  0  0  0
    4.5833    0.2898   -1.4567 C   0  0  0  0  0  0  0  0  0  0  0  0
    4.5765   -0.2523   -0.1399 C   0  0  0  0  0  0  0  0  0  0  0  0
    3.4896   -0.2773    0.8487 C   0  0  0  0  0  0  0  0  0  0  0  0
    3.6557   -0.5719    2.0297 O   0  0  0  0  0  0  0  0  0  0  0  0
    2.2385    0.0451    0.3515 N   0  0  0  0  0  0  0  0  0  0  0  0
    1.0595   -0.0606    1.1871 C   0  0  0  0  0  0  0  0  0  0  0  0
    0.6054   -1.5351    1.3129 C   0  0  0  0  0  0  0  0  0  0  0  0
   -0.8741   -1.7028    1.7680 C   0  0  0  0  0  0  0  0  0  0  0  0
   -1.0712   -1.1376    3.1897 C   0  0  0  0  0  0  0  0  0  0  0  0
   -1.2149   -3.2049    1.8033 C   0  0  0  0  0  0  0  0  0  0  0  0
   -1.8362   -0.9955    0.7614 C   0  0  0  0  0  0  0  0  0  0  0  0
   -1.3150    0.3459    0.3607 C   0  0  0  0  0  0  0  0  0  0  0  0
   -0.0141    0.7695    0.5708 C   0  0  0  0  0  0  0  0  0  0  0  0
   -0.0113    2.1121    0.1798 C   0  0  0  0  0  0  0  0  0  0  0  0
   -1.1912    2.5039   -0.2915 N   0  0  0  0  0  0  0  0  0  0  0  0
   -1.9987    1.4041   -0.2261 N   0  0  0  0  0  0  0  0  0  0  0  0
   -3.3301    1.4980   -0.7422 C   0  0  0  0  0  0  0  0  0  0  0  0
   -3.8341    2.7708   -1.0799 C   0  0  0  0  0  0  0  0  0  0  0  0
   -5.1272    2.9178   -1.5886 C   0  0  0  0  0  0  0  0  0  0  0  0
   -5.9198    1.7949   -1.7709 C   0  0  0  0  0  0  0  0  0  0  0  0
   -7.1589    1.9299   -2.2602 F   0  0  0  0  0  0  0  0  0  0  0  0
   -5.4398    0.5292   -1.4604 C   0  0  0  0  0  0  0  0  0  0  0  0
   -4.1445    0.3770   -0.9504 C   0  0  0  0  0  0  0  0  0  0  0  0
    5.7778   -0.7848    0.1435 N   0  0  0  0  0  0  0  0  0  0  0  0
    6.5627   -0.6005   -0.9757 O   0  0  0  0  0  0  0  0  0  0  0  0
    6.9111   -0.5971   -3.6505 H   0  0  0  0  0  0  0  0  0  0  0  0
    5.8875    0.8261   -3.9088 H   0  0  0  0  0  0  0  0  0  0  0  0
    7.4096    0.9840   -3.0149 H   0  0  0  0  0  0  0  0  0  0  0  0
    3.7904    0.8008   -1.9805 H   0  0  0  0  0  0  0  0  0  0  0  0
    2.0994    0.0684   -0.6479 H   0  0  0  0  0  0  0  0  0  0  0  0
    1.2941    0.3357    2.1827 H   0  0  0  0  0  0  0  0  0  0  0  0
    0.7258   -2.0326    0.3388 H   0  0  0  0  0  0  0  0  0  0  0  0
    1.2779   -2.0643    2.0006 H   0  0  0  0  0  0  0  0  0  0  0  0
   -0.3840   -1.6137    3.8984 H   0  0  0  0  0  0  0  0  0  0  0  0
   -0.8998   -0.0579    3.2377 H   0  0  0  0  0  0  0  0  0  0  0  0
   -2.0918   -1.3197    3.5455 H   0  0  0  0  0  0  0  0  0  0  0  0
   -2.2565   -3.3667    2.1030 H   0  0  0  0  0  0  0  0  0  0  0  0
   -1.0761   -3.6669    0.8194 H   0  0  0  0  0  0  0  0  0  0  0  0
   -0.5746   -3.7393    2.5141 H   0  0  0  0  0  0  0  0  0  0  0  0
   -2.8292   -0.9096    1.2165 H   0  0  0  0  0  0  0  0  0  0  0  0
   -1.9216   -1.6107   -0.1432 H   0  0  0  0  0  0  0  0  0  0  0  0
    0.7996    2.8286    0.2252 H   0  0  0  0  0  0  0  0  0  0  0  0
   -3.2299    3.6669   -0.9421 H   0  0  0  0  0  0  0  0  0  0  0  0
   -5.5143    3.8998   -1.8413 H   0  0  0  0  0  0  0  0  0  0  0  0
   -6.0742   -0.3364   -1.6267 H   0  0  0  0  0  0  0  0  0  0  0  0
   -3.8094   -0.6346   -0.7660 H   0  0  0  0  0  0  0  0  0  0  0  0
  1  2  1  0
  2  3  2  0
  3  4  1  0
  4  5  1  0
  5  6  2  0
  5  7  1  0
  7  8  1  0
  8  9  1  0
  9 10  1  0
 10 11  1  0
 10 12  1  0
 10 13  1  0
 13 14  1  0
 14 15  2  0
 15 16  1  0
 16 17  2  0
 17 18  1  0
 18 19  1  0
 19 20  2  0
 20 21  1  0
 21 22  2  0
 22 23  1  0
 22 24  1  0
 24 25  2  0
  4 26  2  0
 26 27  1  0
 27  2  1  0
 15  8  1  0
 25 19  1  0
 18 14  1  0
  1 28  1  0
  1 29  1  0
  1 30  1  0
  3 31  1  0
  7 32  1  0
  8 33  1  0
  9 34  1  0
  9 35  1  0
 11 36  1  0
 11 37  1  0
 11 38  1  0
 12 39  1  0
 12 40  1  0
 12 41  1  0
 13 42  1  0
 13 43  1  0
 16 44  1  0
 20 45  1  0
 21 46  1  0
 24 47  1  0
 25 48  1  0
M  END
$$$$
