
     RDKit          3D

 43 44  0  0  0  0  0  0  0  0999 V2000
   -2.8846   -2.8876    0.0692 C   0  0  0  0  0  0  0  0  0  0  0  0
   -2.7964   -1.6626    0.9588 C   0  0  0  0  0  0  0  0  0  0  0  0
   -3.2957   -0.4716    0.2200 N   0  0  0  0  0  4  0  0  0  0  0  0
   -4.6267   -0.2090    0.2700 C   0  0  0  0  0  0  0  0  0  0  0  0
   -5.1764    0.9076   -0.3558 C   0  0  0  0  0  0  0  0  0  0  0  0
   -6.6556    1.1572   -0.3151 C   0  0  0  0  0  0  0  0  0  0  0  0
   -4.3343    1.7543   -1.0668 C   0  0  0  0  0  0  0  0  0  0  0  0
   -2.9735    1.4813   -1.1154 C   0  0  0  0  0  0  0  0  0  0  0  0
   -2.4544    0.3582   -0.4587 C   0  0  0  0  0  0  0  0  0  0  0  0
   -1.0214    0.0648   -0.5438 C   0  0  0  0  0  0  0  0  0  0  0  0
   -0.0845    0.9047   -0.0751 C   0  0  0  0  0  0  0  0  0  0  0  0
    1.3517    0.6044   -0.1245 C   0  0  0  0  0  0  0  0  0  0  0  0
    1.9611    0.0309   -1.2394 C   0  0  0  0  0  0  0  0  0  0  0  0
    3.3409   -0.2297   -1.2453 C   0  0  0  0  0  0  0  0  0  0  0  0
    4.1730    0.0846   -0.1573 C   0  0  0  0  0  0  0  0  0  0  0  0
    5.5409   -0.2032   -0.1595 N   0  0  0  0  0  0  0  0  0  0  0  0
    6.3990    0.3861    0.8689 C   0  0  0  0  0  0  0  0  0  0  0  0
    6.2048   -0.5115   -1.4265 C   0  0  0  0  0  0  0  0  0  0  0  0
    3.5321    0.6687    0.9484 C   0  0  0  0  0  0  0  0  0  0  0  0
    2.1539    0.9357    0.9658 C   0  0  0  0  0  0  0  0  0  0  0  0
   -2.2888   -2.7663   -0.8403 H   0  0  0  0  0  0  0  0  0  0  0  0
   -3.9183   -3.0784   -0.2366 H   0  0  0  0  0  0  0  0  0  0  0  0
   -2.5193   -3.7704    0.6025 H   0  0  0  0  0  0  0  0  0  0  0  0
   -1.7760   -1.4799    1.3061 H   0  0  0  0  0  0  0  0  0  0  0  0
   -3.4180   -1.7847    1.8534 H   0  0  0  0  0  0  0  0  0  0  0  0
   -5.2481   -0.9105    0.8217 H   0  0  0  0  0  0  0  0  0  0  0  0
   -7.0907    0.7730    0.6135 H   0  0  0  0  0  0  0  0  0  0  0  0
   -6.8715    2.2301   -0.3555 H   0  0  0  0  0  0  0  0  0  0  0  0
   -7.1414    0.6655   -1.1635 H   0  0  0  0  0  0  0  0  0  0  0  0
   -4.7289    2.6266   -1.5878 H   0  0  0  0  0  0  0  0  0  0  0  0
   -2.3175    2.1443   -1.6783 H   0  0  0  0  0  0  0  0  0  0  0  0
   -0.7481   -0.8865   -0.9922 H   0  0  0  0  0  0  0  0  0  0  0  0
   -0.3465    1.8473    0.4033 H   0  0  0  0  0  0  0  0  0  0  0  0
    1.3889   -0.2179   -2.1293 H   0  0  0  0  0  0  0  0  0  0  0  0
    3.7479   -0.6906   -2.1408 H   0  0  0  0  0  0  0  0  0  0  0  0
    6.3780    1.4803    0.8183 H   0  0  0  0  0  0  0  0  0  0  0  0
    6.1005    0.0572    1.8700 H   0  0  0  0  0  0  0  0  0  0  0  0
    7.4410    0.0690    0.7481 H   0  0  0  0  0  0  0  0  0  0  0  0
    5.7942   -1.4213   -1.8774 H   0  0  0  0  0  0  0  0  0  0  0  0
    7.2734   -0.7058   -1.2803 H   0  0  0  0  0  0  0  0  0  0  0  0
    6.1140    0.3227   -2.1309 H   0  0  0  0  0  0  0  0  0  0  0  0
    4.0929    0.9363    1.8394 H   0  0  0  0  0  0  0  0  0  0  0  0
    1.7285    1.3964    1.8544 H   0  0  0  0  0  0  0  0  0  0  0  0
  1  2  1  0
  2  3  1  0
  3  4  2  0
  4  5  1  0
  5  6  1  0
  5  7  2  0
  7  8  1  0
  8  9  2  0
  9 10  1  0
 10 11  2  3
 11 12  1  0
 12 13  2  0
 13 14  1  0
 14 15  2  0
 15 16  1  0
 16 17  1  0
 16 18  1  0
 15 19  1  0
 19 20  2  0
  9  3  1  0
 20 12  1  0
  1 21  1  0
  1 22  1  0
  1 23  1  0
  2 24  1  0
  2 25  1  0
  4 26  1  0
  6 27  1  0
  6 28  1  0
  6 29  1  0
  7 30  1  0
  8 31  1  0
 10 32  1  0
 11 33  1  0
 13 34  1  0
 14 35  1  0
 17 36  1  0
 17 37  1  0
 17 38  1  0
 18 39  1  0
 18 40  1  0
 18 41  1  0
 19 42  1  0
 20 43  1  0
M  CHG  1   3   1
M  END
$$$$
