
     RDKit          3D

 32 33  0  0  0  0  0  0  0  0999 V2000
   -5.2752   -0.4142    0.1038 C   0  0  0  0  0  0  0  0  0  0  0  0
   -4.3623    0.1605   -0.9681 C   0  0  0  0  0  0  0  0  0  0  0  0
   -2.9531    0.4757   -0.4637 C   0  0  0  0  0  0  0  0  0  0  0  0
   -2.1720   -0.7701   -0.0352 C   0  0  0  0  0  0  0  0  0  0  0  0
   -0.7926   -0.4438    0.3271 N   0  0  0  0  0  0  0  0  0  0  0  0
   -0.4875    0.0134    1.5705 C   0  0  0  0  0  0  0  0  0  0  0  0
   -1.2169    0.1910    2.5244 O   0  0  0  0  0  0  0  0  0  0  0  0
    1.0085    0.3059    1.5534 C   0  0  0  0  0  0  0  0  0  0  0  0
    1.6056    0.6970    2.5377 O   0  0  0  0  0  0  0  0  0  0  0  0
    1.4330   -0.0006    0.2837 N   0  0  0  0  0  0  0  0  0  0  0  0
    2.8041    0.1087   -0.1030 C   0  0  0  0  0  0  0  0  0  0  0  0
    3.3936   -0.7674   -1.0258 C   0  0  0  0  0  0  0  0  0  0  0  0
    4.7420   -0.6484   -1.3840 C   0  0  0  0  0  0  0  0  0  0  0  0
    5.5324    0.3443   -0.8166 C   0  0  0  0  0  0  0  0  0  0  0  0
    4.9771    1.2117    0.1162 C   0  0  0  0  0  0  0  0  0  0  0  0
    3.6294    1.0902    0.4727 C   0  0  0  0  0  0  0  0  0  0  0  0
    0.3340   -0.4097   -0.4840 C   0  0  0  0  0  0  0  0  0  0  0  0
    0.2812   -0.7322   -2.1314 S   0  0  0  0  0  0  0  0  0  0  0  0
   -6.2905   -0.5283   -0.2895 H   0  0  0  0  0  0  0  0  0  0  0  0
   -4.9356   -1.4005    0.4334 H   0  0  0  0  0  0  0  0  0  0  0  0
   -5.3218    0.2458    0.9757 H   0  0  0  0  0  0  0  0  0  0  0  0
   -4.3088   -0.5353   -1.8135 H   0  0  0  0  0  0  0  0  0  0  0  0
   -4.8105    1.0864   -1.3478 H   0  0  0  0  0  0  0  0  0  0  0  0
   -2.4094    0.9926   -1.2636 H   0  0  0  0  0  0  0  0  0  0  0  0
   -3.0103    1.1843    0.3719 H   0  0  0  0  0  0  0  0  0  0  0  0
   -2.1745   -1.5184   -0.8337 H   0  0  0  0  0  0  0  0  0  0  0  0
   -2.6472   -1.2235    0.8420 H   0  0  0  0  0  0  0  0  0  0  0  0
    2.8441   -1.5985   -1.4566 H   0  0  0  0  0  0  0  0  0  0  0  0
    5.1746   -1.3434   -2.0999 H   0  0  0  0  0  0  0  0  0  0  0  0
    6.5796    0.4355   -1.0931 H   0  0  0  0  0  0  0  0  0  0  0  0
    5.5889    1.9869    0.5713 H   0  0  0  0  0  0  0  0  0  0  0  0
    3.2401    1.8045    1.1954 H   0  0  0  0  0  0  0  0  0  0  0  0
  1  2  1  0
  2  3  1  0
  3  4  1  0
  4  5  1  0
  5  6  1  0
  6  7  2  0
  6  8  1  0
  8  9  2  0
  8 10  1  0
 10 11  1  0
 11 12  2  0
 12 13  1  0
 13 14  2  0
 14 15  1  0
 15 16  2  0
 10 17  1  0
 17 18  2  0
 17  5  1  0
 16 11  1  0
  1 19  1  0
  1 20  1  0
  1 21  1  0
  2 22  1  0
  2 23  1  0
  3 24  1  0
  3 25  1  0
  4 26  1  0
  4 27  1  0
 12 28  1  0
 13 29  1  0
 14 30  1  0
 15 31  1  0
 16 32  1  0
M  END
$$$$
