
     RDKit          3D

 44 44  0  0  0  0  0  0  0  0999 V2000
   -1.5960    1.1115    2.3094 C   0  0  0  0  0  0  0  0  0  0  0  0
   -2.3146   -0.0457    1.5916 C   0  0  0  0  0  0  0  0  0  0  0  0
   -1.6329   -1.3681    1.9659 C   0  0  0  0  0  0  0  0  0  0  0  0
   -2.4530    0.1765    0.0474 C   0  0  0  0  0  0  0  0  0  0  0  0
   -3.1713    1.4024   -0.1509 O   0  0  0  0  0  0  0  0  0  0  0  0
   -1.1127    0.3202   -0.5718 C   0  0  0  0  0  0  0  0  0  0  0  0
   -0.0208    0.4315   -1.0626 C   0  0  0  0  0  0  0  0  0  0  0  0
    1.3195    0.5555   -1.6582 C   0  0  0  0  0  0  0  0  0  0  0  0
    2.3386   -0.1551   -0.8726 N   0  0  0  0  0  0  0  0  0  0  0  0
    3.6125   -0.2536   -1.6020 C   0  0  0  0  0  0  0  0  0  0  0  0
    4.6579    0.7656   -1.1550 C   0  0  0  0  0  0  0  0  0  0  0  0
    4.9901    0.6082    0.3278 C   0  0  0  0  0  0  0  0  0  0  0  0
    3.8157    0.0465    1.1272 C   0  0  0  0  0  0  0  0  0  0  0  0
    2.4803    0.4104    0.4808 C   0  0  0  0  0  0  0  0  0  0  0  0
   -3.2519   -0.9550   -0.6836 C   0  0  0  0  0  0  0  0  0  0  0  0
   -4.6264   -1.2235   -0.0521 C   0  0  0  0  0  0  0  0  0  0  0  0
   -3.4768   -0.6452   -2.1765 C   0  0  0  0  0  0  0  0  0  0  0  0
   -1.5915    0.9445    3.3924 H   0  0  0  0  0  0  0  0  0  0  0  0
   -0.5543    1.2083    1.9881 H   0  0  0  0  0  0  0  0  0  0  0  0
   -2.1008    2.0665    2.1338 H   0  0  0  0  0  0  0  0  0  0  0  0
   -3.3242   -0.0575    2.0225 H   0  0  0  0  0  0  0  0  0  0  0  0
   -2.1811   -2.2302    1.5762 H   0  0  0  0  0  0  0  0  0  0  0  0
   -0.6063   -1.4163    1.5891 H   0  0  0  0  0  0  0  0  0  0  0  0
   -1.5900   -1.4825    3.0549 H   0  0  0  0  0  0  0  0  0  0  0  0
   -2.5287    2.1269   -0.0688 H   0  0  0  0  0  0  0  0  0  0  0  0
    1.2643    0.1229   -2.6653 H   0  0  0  0  0  0  0  0  0  0  0  0
    1.5847    1.6130   -1.7795 H   0  0  0  0  0  0  0  0  0  0  0  0
    3.4667   -0.1796   -2.6867 H   0  0  0  0  0  0  0  0  0  0  0  0
    4.0138   -1.2615   -1.4337 H   0  0  0  0  0  0  0  0  0  0  0  0
    5.5721    0.6577   -1.7496 H   0  0  0  0  0  0  0  0  0  0  0  0
    4.2829    1.7798   -1.3425 H   0  0  0  0  0  0  0  0  0  0  0  0
    5.8548   -0.0544    0.4525 H   0  0  0  0  0  0  0  0  0  0  0  0
    5.2885    1.5834    0.7308 H   0  0  0  0  0  0  0  0  0  0  0  0
    3.9044   -1.0456    1.1930 H   0  0  0  0  0  0  0  0  0  0  0  0
    3.8556    0.4230    2.1558 H   0  0  0  0  0  0  0  0  0  0  0  0
    1.6722    0.0318    1.1169 H   0  0  0  0  0  0  0  0  0  0  0  0
    2.3947    1.5054    0.4623 H   0  0  0  0  0  0  0  0  0  0  0  0
   -2.6753   -1.8883   -0.6379 H   0  0  0  0  0  0  0  0  0  0  0  0
   -5.1775   -1.9755   -0.6279 H   0  0  0  0  0  0  0  0  0  0  0  0
   -5.2373   -0.3154   -0.0179 H   0  0  0  0  0  0  0  0  0  0  0  0
   -4.5334   -1.6137    0.9653 H   0  0  0  0  0  0  0  0  0  0  0  0
   -2.5301   -0.5177   -2.7100 H   0  0  0  0  0  0  0  0  0  0  0  0
   -4.0731    0.2627   -2.3155 H   0  0  0  0  0  0  0  0  0  0  0  0
   -4.0094   -1.4698   -2.6636 H   0  0  0  0  0  0  0  0  0  0  0  0
  1  2  1  0
  2  3  1  0
  2  4  1  0
  4  5  1  0
  4  6  1  0
  6  7  3  0
  7  8  1  0
  8  9  1  0
  9 10  1  0
 10 11  1  0
 11 12  1  0
 12 13  1  0
 13 14  1  0
  4 15  1  0
 15 16  1  0
 15 17  1  0
 14  9  1  0
  1 18  1  0
  1 19  1  0
  1 20  1  0
  2 21  1  0
  3 22  1  0
  3 23  1  0
  3 24  1  0
  5 25  1  0
  8 26  1  0
  8 27  1  0
 10 28  1  0
 10 29  1  0
 11 30  1  0
 11 31  1  0
 12 32  1  0
 12 33  1  0
 13 34  1  0
 13 35  1  0
 14 36  1  0
 14 37  1  0
 15 38  1  0
 16 39  1  0
 16 40  1  0
 16 41  1  0
 17 42  1  0
 17 43  1  0
 17 44  1  0
M  END
$$$$
