
     RDKit          3D

 36 37  0  0  0  0  0  0  0  0999 V2000
   -2.5651    0.6226    2.3036 C   0  0  0  0  0  0  0  0  0  0  0  0
   -2.4676   -1.1413    1.8851 S   0  0  0  0  0  0  0  0  0  0  0  0
   -3.2082   -1.0888    0.2528 C   0  0  0  0  0  0  0  0  0  0  0  0
   -4.4879   -1.6601    0.1446 C   0  0  0  0  0  0  0  0  0  0  0  0
   -5.1837   -1.6453   -1.0660 C   0  0  0  0  0  0  0  0  0  0  0  0
   -4.6115   -1.0580   -2.1885 C   0  0  0  0  0  0  0  0  0  0  0  0
   -3.3374   -0.4979   -2.1025 C   0  0  0  0  0  0  0  0  0  0  0  0
   -2.6184   -0.5207   -0.8929 C   0  0  0  0  0  0  0  0  0  0  0  0
   -1.2520    0.0822   -0.9409 C   0  0  0  0  0  0  0  0  0  0  0  0
   -1.0925    1.0829   -1.6313 O   0  0  0  0  0  0  0  0  0  0  0  0
   -0.2834   -0.5847   -0.2186 N   0  0  0  0  0  0  0  0  0  0  0  0
    1.0824   -0.2596   -0.0916 C   0  0  0  0  0  0  0  0  0  0  0  0
    1.8515   -1.0651    0.7522 C   0  0  0  0  0  0  0  0  0  0  0  0
    3.2128   -0.8106    0.9351 C   0  0  0  0  0  0  0  0  0  0  0  0
    3.8368    0.2564    0.2763 C   0  0  0  0  0  0  0  0  0  0  0  0
    5.3040    0.5036    0.4941 C   0  0  0  0  0  0  0  0  0  0  0  0
    3.0713    1.0736   -0.5771 C   0  0  0  0  0  0  0  0  0  0  0  0
    3.6876    2.2331   -1.3125 C   0  0  0  0  0  0  0  0  0  0  0  0
    1.6998    0.8039   -0.7509 C   0  0  0  0  0  0  0  0  0  0  0  0
   -2.2023    0.7662    3.3248 H   0  0  0  0  0  0  0  0  0  0  0  0
   -3.6006    0.9700    2.2505 H   0  0  0  0  0  0  0  0  0  0  0  0
   -1.9469    1.2220    1.6311 H   0  0  0  0  0  0  0  0  0  0  0  0
   -4.9635   -2.1160    1.0117 H   0  0  0  0  0  0  0  0  0  0  0  0
   -6.1756   -2.0868   -1.1280 H   0  0  0  0  0  0  0  0  0  0  0  0
   -5.1523   -1.0367   -3.1317 H   0  0  0  0  0  0  0  0  0  0  0  0
   -2.8954   -0.0450   -2.9894 H   0  0  0  0  0  0  0  0  0  0  0  0
   -0.5985   -1.3793    0.3278 H   0  0  0  0  0  0  0  0  0  0  0  0
    1.4043   -1.9017    1.2826 H   0  0  0  0  0  0  0  0  0  0  0  0
    3.7834   -1.4559    1.5994 H   0  0  0  0  0  0  0  0  0  0  0  0
    5.4627    1.4976    0.9241 H   0  0  0  0  0  0  0  0  0  0  0  0
    5.7365   -0.2272    1.1857 H   0  0  0  0  0  0  0  0  0  0  0  0
    5.8481    0.4231   -0.4523 H   0  0  0  0  0  0  0  0  0  0  0  0
    4.4806    1.8812   -1.9799 H   0  0  0  0  0  0  0  0  0  0  0  0
    2.9500    2.7600   -1.9271 H   0  0  0  0  0  0  0  0  0  0  0  0
    4.1009    2.9566   -0.6027 H   0  0  0  0  0  0  0  0  0  0  0  0
    1.1300    1.4456   -1.4164 H   0  0  0  0  0  0  0  0  0  0  0  0
  1  2  1  0
  2  3  1  0
  3  4  2  0
  4  5  1  0
  5  6  2  0
  6  7  1  0
  7  8  2  0
  8  9  1  0
  9 10  2  0
  9 11  1  0
 11 12  1  0
 12 13  2  0
 13 14  1  0
 14 15  2  0
 15 16  1  0
 15 17  1  0
 17 18  1  0
 17 19  2  0
  8  3  1  0
 19 12  1  0
  1 20  1  0
  1 21  1  0
  1 22  1  0
  4 23  1  0
  5 24  1  0
  6 25  1  0
  7 26  1  0
 11 27  1  0
 13 28  1  0
 14 29  1  0
 16 30  1  0
 16 31  1  0
 16 32  1  0
 18 33  1  0
 18 34  1  0
 18 35  1  0
 19 36  1  0
M  END
$$$$
