
     RDKit          3D

 42 44  0  0  0  0  0  0  0  0999 V2000
   -8.5167    0.1490    0.0794 C   0  0  0  0  0  0  0  0  0  0  0  0
   -7.5673   -1.0120    0.2196 C   0  0  0  0  0  0  0  0  0  0  0  0
   -7.9823   -2.1571    0.3885 O   0  0  0  0  0  0  0  0  0  0  0  0
   -6.0978   -0.7581    0.1486 C   0  0  0  0  0  0  0  0  0  0  0  0
   -5.5679    0.5141   -0.0830 C   0  0  0  0  0  0  0  0  0  0  0  0
   -4.1798    0.7029   -0.1422 C   0  0  0  0  0  0  0  0  0  0  0  0
   -3.3051   -0.3711    0.0311 C   0  0  0  0  0  0  0  0  0  0  0  0
   -1.9002   -0.2606   -0.0205 N   0  0  0  0  0  0  0  0  0  0  0  0
   -1.1555    0.8976   -0.1552 C   0  0  0  0  0  0  0  0  0  0  0  0
   -1.5795    2.0458   -0.1892 O   0  0  0  0  0  0  0  0  0  0  0  0
    0.3172    0.6856   -0.2271 C   0  0  0  0  0  0  0  0  0  0  0  0
    0.8723   -0.3888   -0.9289 C   0  0  0  0  0  0  0  0  0  0  0  0
    2.2625   -0.5467   -0.9766 C   0  0  0  0  0  0  0  0  0  0  0  0
    3.1141    0.3622   -0.3312 C   0  0  0  0  0  0  0  0  0  0  0  0
    4.5010    0.1220   -0.4337 N   0  0  0  0  0  0  0  0  0  0  0  0
    5.5375    0.8427    0.1492 C   0  0  0  0  0  0  0  0  0  0  0  0
    5.3716    1.8084    0.8882 O   0  0  0  0  0  0  0  0  0  0  0  0
    6.8673    0.3425   -0.1837 C   0  0  0  0  0  0  0  0  0  0  0  0
    7.3379   -0.6540   -1.0259 C   0  0  0  0  0  0  0  0  0  0  0  0
    8.7516   -0.6583   -0.9164 C   0  0  0  0  0  0  0  0  0  0  0  0
    9.0667    0.3317   -0.0196 C   0  0  0  0  0  0  0  0  0  0  0  0
    7.9416    0.9409    0.4266 O   0  0  0  0  0  0  0  0  0  0  0  0
    2.5502    1.4417    0.3517 C   0  0  0  0  0  0  0  0  0  0  0  0
    1.1603    1.6074    0.3984 C   0  0  0  0  0  0  0  0  0  0  0  0
   -3.8391   -1.6445    0.2589 C   0  0  0  0  0  0  0  0  0  0  0  0
   -5.2235   -1.8374    0.3179 C   0  0  0  0  0  0  0  0  0  0  0  0
   -8.4199    0.5990   -0.9119 H   0  0  0  0  0  0  0  0  0  0  0  0
   -8.3323    0.8873    0.8641 H   0  0  0  0  0  0  0  0  0  0  0  0
   -9.5440   -0.2119    0.1907 H   0  0  0  0  0  0  0  0  0  0  0  0
   -6.2050    1.3825   -0.2241 H   0  0  0  0  0  0  0  0  0  0  0  0
   -3.8144    1.7085   -0.3299 H   0  0  0  0  0  0  0  0  0  0  0  0
   -1.3873   -1.1195    0.1298 H   0  0  0  0  0  0  0  0  0  0  0  0
    0.2426   -1.0909   -1.4687 H   0  0  0  0  0  0  0  0  0  0  0  0
    2.6676   -1.3880   -1.5340 H   0  0  0  0  0  0  0  0  0  0  0  0
    4.7645   -0.6835   -0.9807 H   0  0  0  0  0  0  0  0  0  0  0  0
    6.7492   -1.3045   -1.6559 H   0  0  0  0  0  0  0  0  0  0  0  0
    9.4542   -1.3002   -1.4295 H   0  0  0  0  0  0  0  0  0  0  0  0
    9.9946    0.7109    0.3863 H   0  0  0  0  0  0  0  0  0  0  0  0
    3.1592    2.1865    0.8555 H   0  0  0  0  0  0  0  0  0  0  0  0
    0.7412    2.4616    0.9279 H   0  0  0  0  0  0  0  0  0  0  0  0
   -3.1917   -2.5067    0.3971 H   0  0  0  0  0  0  0  0  0  0  0  0
   -5.6155   -2.8371    0.4985 H   0  0  0  0  0  0  0  0  0  0  0  0
  1  2  1  0
  2  3  2  0
  2  4  1  0
  4  5  2  0
  5  6  1  0
  6  7  2  0
  7  8  1  0
  8  9  1  0
  9 10  2  0
  9 11  1  0
 11 12  2  0
 12 13  1  0
 13 14  2  0
 14 15  1  0
 15 16  1  0
 16 17  2  0
 16 18  1  0
 18 19  2  0
 19 20  1  0
 20 21  2  0
 21 22  1  0
 14 23  1  0
 23 24  2  0
  7 25  1  0
 25 26  2  0
 26  4  1  0
 24 11  1  0
 22 18  1  0
  1 27  1  0
  1 28  1  0
  1 29  1  0
  5 30  1  0
  6 31  1  0
  8 32  1  0
 12 33  1  0
 13 34  1  0
 15 35  1  0
 19 36  1  0
 20 37  1  0
 21 38  1  0
 23 39  1  0
 24 40  1  0
 25 41  1  0
 26 42  1  0
M  END
$$$$
