
     RDKit          3D

 31 32  0  0  0  0  0  0  0  0999 V2000
   -3.4659    1.7490   -1.0280 C   0  0  0  0  0  0  0  0  0  0  0  0
   -3.2740    0.5164   -0.1844 C   0  0  0  0  0  0  0  0  0  0  0  0
   -4.2717   -0.0712    0.2413 O   0  0  0  0  0  0  0  0  0  0  0  0
   -1.9108    0.0395    0.1183 C   0  0  0  0  0  0  0  0  0  0  0  0
   -1.6363   -0.9321    1.0770 C   0  0  0  0  0  0  0  0  0  0  0  0
   -2.5424   -1.6958    1.9791 C   0  0  0  0  0  0  0  0  0  0  0  0
   -0.2832   -1.1296    1.1139 N   0  0  0  0  0  0  0  0  0  0  0  0
    0.3476   -0.3146    0.2099 C   0  0  0  0  0  0  0  0  0  0  0  0
    1.8024   -0.3199    0.0766 C   0  0  0  0  0  0  0  0  0  0  0  0
    2.5386    0.8462    0.3162 C   0  0  0  0  0  0  0  0  0  0  0  0
    3.9303    0.8398    0.2002 C   0  0  0  0  0  0  0  0  0  0  0  0
    4.5950   -0.3325   -0.1563 C   0  0  0  0  0  0  0  0  0  0  0  0
    3.8699   -1.4985   -0.3972 C   0  0  0  0  0  0  0  0  0  0  0  0
    2.4782   -1.4931   -0.2801 C   0  0  0  0  0  0  0  0  0  0  0  0
   -0.6348    0.4177   -0.4494 C   0  0  0  0  0  0  0  0  0  0  0  0
   -0.3810    1.3875   -1.5549 C   0  0  0  0  0  0  0  0  0  0  0  0
   -2.8486    2.5687   -0.6536 H   0  0  0  0  0  0  0  0  0  0  0  0
   -3.2386    1.5295   -2.0729 H   0  0  0  0  0  0  0  0  0  0  0  0
   -4.5111    2.0690   -0.9665 H   0  0  0  0  0  0  0  0  0  0  0  0
   -1.9795   -2.3353    2.6672 H   0  0  0  0  0  0  0  0  0  0  0  0
   -3.2096   -2.3380    1.3958 H   0  0  0  0  0  0  0  0  0  0  0  0
   -3.1493   -1.0127    2.5817 H   0  0  0  0  0  0  0  0  0  0  0  0
    0.1958   -1.7689    1.7344 H   0  0  0  0  0  0  0  0  0  0  0  0
    2.0310    1.7645    0.6019 H   0  0  0  0  0  0  0  0  0  0  0  0
    4.4943    1.7494    0.3893 H   0  0  0  0  0  0  0  0  0  0  0  0
    5.6781   -0.3368   -0.2482 H   0  0  0  0  0  0  0  0  0  0  0  0
    4.3871   -2.4115   -0.6806 H   0  0  0  0  0  0  0  0  0  0  0  0
    1.9241   -2.4062   -0.4845 H   0  0  0  0  0  0  0  0  0  0  0  0
    0.6500    1.3352   -1.9180 H   0  0  0  0  0  0  0  0  0  0  0  0
   -0.5612    2.4117   -1.2157 H   0  0  0  0  0  0  0  0  0  0  0  0
   -1.0245    1.1725   -2.4126 H   0  0  0  0  0  0  0  0  0  0  0  0
  1  2  1  0
  2  3  2  0
  2  4  1  0
  4  5  2  0
  5  6  1  0
  5  7  1  0
  7  8  1  0
  8  9  1  0
  9 10  2  0
 10 11  1  0
 11 12  2  0
 12 13  1  0
 13 14  2  0
  8 15  2  0
 15 16  1  0
 15  4  1  0
 14  9  1  0
  1 17  1  0
  1 18  1  0
  1 19  1  0
  6 20  1  0
  6 21  1  0
  6 22  1  0
  7 23  1  0
 10 24  1  0
 11 25  1  0
 12 26  1  0
 13 27  1  0
 14 28  1  0
 16 29  1  0
 16 30  1  0
 16 31  1  0
M  END
$$$$
