
     RDKit          3D

 51 53  0  0  0  0  0  0  0  0999 V2000
    0.1523    0.2373    2.5693 N   0  0  0  0  0  0  0  0  0  0  0  0
    1.1320    0.4353    1.9772 C   0  0  0  0  0  0  0  0  0  0  0  0
    2.3452    0.6475    1.2643 C   0  0  0  0  0  0  0  0  0  0  0  0
    2.5841    0.2742   -0.0074 C   0  0  0  0  0  0  0  0  0  0  0  0
    1.6720   -0.4609   -0.8166 C   0  0  0  0  0  0  0  0  0  0  0  0
    1.7880   -0.7928   -2.1626 C   0  0  0  0  0  0  0  0  0  0  0  0
    0.6418   -1.5377   -2.5325 C   0  0  0  0  0  0  0  0  0  0  0  0
   -0.1269   -1.6369   -1.3972 C   0  0  0  0  0  0  0  0  0  0  0  0
   -1.4333   -2.2641   -1.0956 C   0  0  0  0  0  0  0  0  0  0  0  0
   -2.4640   -1.2696   -1.2367 N   0  0  0  0  0  0  0  0  0  0  0  0
   -3.7886   -1.6264   -1.2869 C   0  0  0  0  0  0  0  0  0  0  0  0
   -4.2261   -2.7652   -1.3902 O   0  0  0  0  0  0  0  0  0  0  0  0
   -4.7701   -0.4380   -1.1859 C   0  0  0  0  0  0  0  0  0  0  0  0
   -4.3235    0.6965   -1.1030 O   0  0  0  0  0  0  0  0  0  0  0  0
   -6.0838   -0.8593   -1.2044 N   0  0  0  0  0  0  0  0  0  0  0  0
   -7.2452   -0.0711   -1.1277 C   0  0  0  0  0  0  0  0  0  0  0  0
   -8.4748   -0.7396   -1.1633 C   0  0  0  0  0  0  0  0  0  0  0  0
   -9.6692   -0.0204   -1.0905 C   0  0  0  0  0  0  0  0  0  0  0  0
  -11.1714   -0.8599   -1.1352 Cl  0  0  0  0  0  0  0  0  0  0  0  0
   -9.6579    1.3655   -0.9820 C   0  0  0  0  0  0  0  0  0  0  0  0
   -8.4352    2.0289   -0.9472 C   0  0  0  0  0  0  0  0  0  0  0  0
   -8.4083    3.7461   -0.8172 Cl  0  0  0  0  0  0  0  0  0  0  0  0
   -7.2319    1.3210   -1.0188 C   0  0  0  0  0  0  0  0  0  0  0  0
    0.4877   -0.9946   -0.3687 O   0  0  0  0  0  0  0  0  0  0  0  0
    3.4087    1.4160    1.9686 C   0  0  0  0  0  0  0  0  0  0  0  0
    3.1531    2.4311    2.6044 O   0  0  0  0  0  0  0  0  0  0  0  0
    4.6726    0.8754    1.8848 N   0  0  0  0  0  0  0  0  0  0  0  0
    5.7583    1.4437    2.6537 C   0  0  0  0  0  0  0  0  0  0  0  0
    7.0730    0.8692    2.2232 C   0  0  0  0  0  0  0  0  0  0  0  0
    7.6967    1.2823    1.0417 C   0  0  0  0  0  0  0  0  0  0  0  0
    8.9050    0.7065    0.6603 C   0  0  0  0  0  0  0  0  0  0  0  0
    9.4490   -0.2738    1.4732 C   0  0  0  0  0  0  0  0  0  0  0  0
    8.8729   -0.7044    2.6157 N   0  0  0  0  0  0  0  0  0  0  0  0
    7.7040   -0.1229    2.9667 C   0  0  0  0  0  0  0  0  0  0  0  0
    3.5234    0.5510   -0.4815 H   0  0  0  0  0  0  0  0  0  0  0  0
    2.6119   -0.5206   -2.8094 H   0  0  0  0  0  0  0  0  0  0  0  0
    0.4030   -1.9464   -3.5050 H   0  0  0  0  0  0  0  0  0  0  0  0
   -1.6373   -3.1019   -1.7713 H   0  0  0  0  0  0  0  0  0  0  0  0
   -1.4630   -2.6425   -0.0678 H   0  0  0  0  0  0  0  0  0  0  0  0
   -2.2664   -0.3089   -0.9644 H   0  0  0  0  0  0  0  0  0  0  0  0
   -6.1932   -1.8693   -1.2803 H   0  0  0  0  0  0  0  0  0  0  0  0
   -8.5129   -1.8234   -1.2454 H   0  0  0  0  0  0  0  0  0  0  0  0
  -10.5885    1.9224   -0.9253 H   0  0  0  0  0  0  0  0  0  0  0  0
   -6.3012    1.8798   -0.9869 H   0  0  0  0  0  0  0  0  0  0  0  0
    4.7898   -0.0691    1.5387 H   0  0  0  0  0  0  0  0  0  0  0  0
    5.5642    1.2378    3.7130 H   0  0  0  0  0  0  0  0  0  0  0  0
    5.7592    2.5341    2.5348 H   0  0  0  0  0  0  0  0  0  0  0  0
    7.2470    2.0533    0.4198 H   0  0  0  0  0  0  0  0  0  0  0  0
    9.4112    1.0152   -0.2476 H   0  0  0  0  0  0  0  0  0  0  0  0
   10.3904   -0.7534    1.2193 H   0  0  0  0  0  0  0  0  0  0  0  0
    7.2761   -0.4968    3.8938 H   0  0  0  0  0  0  0  0  0  0  0  0
  1  2  3  0
  2  3  1  0
  3  4  2  3
  4  5  1  0
  5  6  2  0
  6  7  1  0
  7  8  2  0
  8  9  1  0
  9 10  1  0
 10 11  1  0
 11 12  2  0
 11 13  1  0
 13 14  2  0
 13 15  1  0
 15 16  1  0
 16 17  2  0
 17 18  1  0
 18 19  1  0
 18 20  2  0
 20 21  1  0
 21 22  1  0
 21 23  2  0
  8 24  1  0
  3 25  1  0
 25 26  2  0
 25 27  1  0
 27 28  1  0
 28 29  1  0
 29 30  2  0
 30 31  1  0
 31 32  2  0
 32 33  1  0
 33 34  2  0
 24  5  1  0
 34 29  1  0
 23 16  1  0
  4 35  1  0
  6 36  1  0
  7 37  1  0
  9 38  1  0
  9 39  1  0
 10 40  1  0
 15 41  1  0
 17 42  1  0
 20 43  1  0
 23 44  1  0
 27 45  1  0
 28 46  1  0
 28 47  1  0
 30 48  1  0
 31 49  1  0
 32 50  1  0
 34 51  1  0
M  END
$$$$
