
     RDKit          3D

 81 84  0  0  0  0  0  0  0  0999 V2000
   -2.1774    7.1747    1.9019 C   0  0  0  0  0  0  0  0  0  0  0  0
   -1.4686    6.0001    2.2828 O   0  0  0  0  0  0  0  0  0  0  0  0
   -1.8559    4.8236    1.7038 C   0  0  0  0  0  0  0  0  0  0  0  0
   -2.7553    4.6925    0.6425 C   0  0  0  0  0  0  0  0  0  0  0  0
   -3.0689    3.4248    0.1395 C   0  0  0  0  0  0  0  0  0  0  0  0
   -2.4667    2.2901    0.6917 C   0  0  0  0  0  0  0  0  0  0  0  0
   -2.9137    0.6782    0.1106 S   0  0  0  0  0  6  0  0  0  0  0  0
   -4.0078    0.8122   -0.8282 O   0  0  0  0  0  0  0  0  0  0  0  0
   -3.0207   -0.1819    1.2677 O   0  0  0  0  0  0  0  0  0  0  0  0
   -1.5228    0.1695   -0.7982 N   0  0  0  0  0  0  0  0  0  0  0  0
   -1.3100    0.9621   -2.0437 C   0  0  0  0  0  0  0  0  0  0  0  0
   -1.6308   -1.3074   -1.1421 C   0  0  0  0  0  0  0  0  0  0  0  0
   -0.9930   -2.1895   -0.0375 C   0  0  0  0  0  0  0  0  0  0  0  0
    0.3813   -2.3688   -0.4576 O   0  0  0  0  0  0  0  0  0  0  0  0
    1.2692   -2.3670    0.5912 C   0  0  0  0  0  0  0  0  0  0  0  0
    1.7865   -1.1554    1.0836 C   0  0  0  0  0  0  0  0  0  0  0  0
    1.3569    0.0609    0.5001 N   0  0  0  0  0  0  0  0  0  0  0  0
    2.1505    1.1939    0.3792 C   0  0  0  0  0  0  0  0  0  0  0  0
    3.3195    1.2737    0.7316 O   0  0  0  0  0  0  0  0  0  0  0  0
    1.4302    2.2228   -0.2042 N   0  0  0  0  0  0  0  0  0  0  0  0
    1.9504    3.4445   -0.6725 C   0  0  0  0  0  0  0  0  0  0  0  0
    1.0524    4.4955   -0.8863 C   0  0  0  0  0  0  0  0  0  0  0  0
    1.5008    5.7342   -1.3552 C   0  0  0  0  0  0  0  0  0  0  0  0
    2.8596    5.9397   -1.6318 C   0  0  0  0  0  0  0  0  0  0  0  0
    3.3623    7.2690   -2.1439 C   0  0  0  0  0  0  0  0  0  0  0  0
    4.4264    7.7402   -1.4349 F   0  0  0  0  0  0  0  0  0  0  0  0
    2.4240    8.2566   -2.1014 F   0  0  0  0  0  0  0  0  0  0  0  0
    3.7756    7.2042   -3.4408 F   0  0  0  0  0  0  0  0  0  0  0  0
    3.7521    4.8742   -1.4443 C   0  0  0  0  0  0  0  0  0  0  0  0
    3.3006    3.6382   -0.9677 C   0  0  0  0  0  0  0  0  0  0  0  0
    2.7312   -1.1825    2.1184 C   0  0  0  0  0  0  0  0  0  0  0  0
    3.2125   -2.3968    2.6156 C   0  0  0  0  0  0  0  0  0  0  0  0
    2.7633   -3.5941    2.0678 C   0  0  0  0  0  0  0  0  0  0  0  0
    1.7952   -3.5792    1.0548 C   0  0  0  0  0  0  0  0  0  0  0  0
    1.4625   -4.8668    0.4091 C   0  0  0  0  0  0  0  0  0  0  0  0
    2.3996   -5.5554    0.0115 O   0  0  0  0  0  0  0  0  0  0  0  0
    0.1264   -5.2382    0.2731 N   0  0  0  0  0  0  0  0  0  0  0  0
   -0.2201   -6.4306   -0.5271 C   0  0  0  0  0  0  0  0  0  0  0  0
    0.1837   -7.7271    0.1801 C   0  0  0  0  0  0  0  0  0  0  0  0
    0.3294   -6.3662   -1.9681 C   0  0  0  0  0  0  0  0  0  0  0  0
   -0.3307   -7.3135   -2.8073 O   0  0  0  0  0  0  0  0  0  0  0  0
   -0.9654   -4.5575    0.9690 C   0  0  0  0  0  0  0  0  0  0  0  0
   -1.7176   -3.5594    0.0682 C   0  0  0  0  0  0  0  0  0  0  0  0
   -3.1419   -3.4131    0.6228 C   0  0  0  0  0  0  0  0  0  0  0  0
   -1.5706    2.4090    1.7576 C   0  0  0  0  0  0  0  0  0  0  0  0
   -1.2610    3.6794    2.2507 C   0  0  0  0  0  0  0  0  0  0  0  0
   -1.8436    7.9939    2.5503 H   0  0  0  0  0  0  0  0  0  0  0  0
   -3.2585    7.0524    2.0440 H   0  0  0  0  0  0  0  0  0  0  0  0
   -1.9440    7.4517    0.8677 H   0  0  0  0  0  0  0  0  0  0  0  0
   -3.2329    5.5569    0.1904 H   0  0  0  0  0  0  0  0  0  0  0  0
   -3.7891    3.3370   -0.6727 H   0  0  0  0  0  0  0  0  0  0  0  0
   -2.1052    0.7749   -2.7756 H   0  0  0  0  0  0  0  0  0  0  0  0
   -0.3462    0.6841   -2.4905 H   0  0  0  0  0  0  0  0  0  0  0  0
   -1.2630    2.0318   -1.8228 H   0  0  0  0  0  0  0  0  0  0  0  0
   -2.6834   -1.5459   -1.3275 H   0  0  0  0  0  0  0  0  0  0  0  0
   -1.1122   -1.4897   -2.0931 H   0  0  0  0  0  0  0  0  0  0  0  0
   -1.0307   -1.6844    0.9358 H   0  0  0  0  0  0  0  0  0  0  0  0
    0.6333   -0.0295   -0.2067 H   0  0  0  0  0  0  0  0  0  0  0  0
    0.4365    2.1807   -0.0430 H   0  0  0  0  0  0  0  0  0  0  0  0
   -0.0069    4.3758   -0.6757 H   0  0  0  0  0  0  0  0  0  0  0  0
    0.7811    6.5416   -1.4910 H   0  0  0  0  0  0  0  0  0  0  0  0
    4.8113    5.0003   -1.6671 H   0  0  0  0  0  0  0  0  0  0  0  0
    4.0270    2.8355   -0.8545 H   0  0  0  0  0  0  0  0  0  0  0  0
    3.1244   -0.2608    2.5426 H   0  0  0  0  0  0  0  0  0  0  0  0
    3.9601   -2.3999    3.4037 H   0  0  0  0  0  0  0  0  0  0  0  0
    3.1846   -4.5379    2.4074 H   0  0  0  0  0  0  0  0  0  0  0  0
   -1.3152   -6.4543   -0.6157 H   0  0  0  0  0  0  0  0  0  0  0  0
    1.2725   -7.8278    0.2707 H   0  0  0  0  0  0  0  0  0  0  0  0
   -0.2317   -7.7593    1.1935 H   0  0  0  0  0  0  0  0  0  0  0  0
   -0.1908   -8.6019   -0.3637 H   0  0  0  0  0  0  0  0  0  0  0  0
    0.1406   -5.3726   -2.3920 H   0  0  0  0  0  0  0  0  0  0  0  0
    1.4072   -6.5527   -2.0241 H   0  0  0  0  0  0  0  0  0  0  0  0
    0.1254   -8.1644   -2.6789 H   0  0  0  0  0  0  0  0  0  0  0  0
   -1.6411   -5.3455    1.3261 H   0  0  0  0  0  0  0  0  0  0  0  0
   -0.5952   -4.0605    1.8715 H   0  0  0  0  0  0  0  0  0  0  0  0
   -1.7876   -3.9870   -0.9407 H   0  0  0  0  0  0  0  0  0  0  0  0
   -3.1284   -3.0202    1.6446 H   0  0  0  0  0  0  0  0  0  0  0  0
   -3.7693   -2.7583    0.0146 H   0  0  0  0  0  0  0  0  0  0  0  0
   -3.6430   -4.3869    0.6552 H   0  0  0  0  0  0  0  0  0  0  0  0
   -1.1229    1.5276    2.2155 H   0  0  0  0  0  0  0  0  0  0  0  0
   -0.5664    3.7818    3.0856 H   0  0  0  0  0  0  0  0  0  0  0  0
  1  2  1  0
  2  3  1  0
  3  4  2  0
  4  5  1  0
  5  6  2  0
  6  7  1  0
  7  8  2  0
  7  9  2  0
  7 10  1  0
 10 11  1  0
 10 12  1  0
 12 13  1  0
 13 14  1  0
 14 15  1  0
 15 16  2  0
 16 17  1  0
 17 18  1  0
 18 19  2  0
 18 20  1  0
 20 21  1  0
 21 22  2  0
 22 23  1  0
 23 24  2  0
 24 25  1  0
 25 26  1  0
 25 27  1  0
 25 28  1  0
 24 29  1  0
 29 30  2  0
 16 31  1  0
 31 32  2  0
 32 33  1  0
 33 34  2  0
 34 35  1  0
 35 36  2  0
 35 37  1  0
 37 38  1  0
 38 39  1  0
 38 40  1  0
 40 41  1  0
 37 42  1  0
 42 43  1  0
 43 44  1  0
  6 45  1  0
 45 46  2  0
 46  3  1  0
 43 13  1  0
 34 15  1  0
 30 21  1  0
  1 47  1  0
  1 48  1  0
  1 49  1  0
  4 50  1  0
  5 51  1  0
 11 52  1  0
 11 53  1  0
 11 54  1  0
 12 55  1  0
 12 56  1  0
 13 57  1  0
 17 58  1  0
 20 59  1  0
 22 60  1  0
 23 61  1  0
 29 62  1  0
 30 63  1  0
 31 64  1  0
 32 65  1  0
 33 66  1  0
 38 67  1  0
 39 68  1  0
 39 69  1  0
 39 70  1  0
 40 71  1  0
 40 72  1  0
 41 73  1  0
 42 74  1  0
 42 75  1  0
 43 76  1  0
 44 77  1  0
 44 78  1  0
 44 79  1  0
 45 80  1  0
 46 81  1  0
M  END
$$$$
