
     RDKit          3D

 36 36  0  0  0  0  0  0  0  0999 V2000
    2.9415   -4.8818    1.9754 C   0  0  0  0  0  0  0  0  0  0  0  0
    1.5470   -4.4708    2.4139 C   0  0  0  0  0  0  0  0  0  0  0  0
    1.3685   -3.0631    2.2772 O   0  0  0  0  0  0  0  0  0  0  0  0
    0.9787   -2.6358    0.9739 C   0  0  0  0  0  0  0  0  0  0  0  0
   -0.5350   -2.7359    0.7974 C   0  0  0  0  0  0  0  0  0  0  0  0
   -0.9936   -2.2272   -0.5664 C   0  0  0  0  0  0  0  0  0  0  0  0
   -0.8566   -0.7895   -0.7087 N   0  0  0  0  0  0  0  0  0  0  0  0
   -1.8149    0.0715   -0.2126 C   0  0  0  0  0  0  0  0  0  0  0  0
   -2.8562   -0.2962    0.3156 O   0  0  0  0  0  0  0  0  0  0  0  0
   -1.4834    1.5136   -0.3504 C   0  0  0  0  0  0  0  0  0  0  0  0
   -1.6030    2.3219    0.8131 C   0  0  0  0  0  0  0  0  0  0  0  0
   -1.6968    2.9904    1.7575 N   0  0  0  0  0  0  0  0  0  0  0  0
   -1.2120    1.9626   -1.5900 C   0  0  0  0  0  0  0  0  0  0  0  0
   -0.8949    3.3161   -1.8928 C   0  0  0  0  0  0  0  0  0  0  0  0
   -1.0850    3.9996   -3.0928 C   0  0  0  0  0  0  0  0  0  0  0  0
   -0.6061    5.3243   -2.9305 C   0  0  0  0  0  0  0  0  0  0  0  0
   -0.1272    5.3727   -1.6473 C   0  0  0  0  0  0  0  0  0  0  0  0
    0.4982    6.4208   -0.9048 N   0  0  0  0  0  4  0  0  0  0  0  0
    0.9674    6.1453    0.2055 O   0  0  0  0  0  0  0  0  0  0  0  0
    0.5387    7.5293   -1.4565 O   0  0  0  0  0  1  0  0  0  0  0  0
   -0.2871    4.1852   -1.0117 O   0  0  0  0  0  0  0  0  0  0  0  0
    3.0956   -4.6926    0.9089 H   0  0  0  0  0  0  0  0  0  0  0  0
    3.1073   -5.9464    2.1641 H   0  0  0  0  0  0  0  0  0  0  0  0
    3.7000   -4.3050    2.5149 H   0  0  0  0  0  0  0  0  0  0  0  0
    0.7808   -5.0276    1.8650 H   0  0  0  0  0  0  0  0  0  0  0  0
    1.4263   -4.7067    3.4763 H   0  0  0  0  0  0  0  0  0  0  0  0
    1.2898   -1.5896    0.8849 H   0  0  0  0  0  0  0  0  0  0  0  0
    1.5100   -3.1989    0.1991 H   0  0  0  0  0  0  0  0  0  0  0  0
   -0.8459   -3.7811    0.9057 H   0  0  0  0  0  0  0  0  0  0  0  0
   -1.0340   -2.1894    1.6071 H   0  0  0  0  0  0  0  0  0  0  0  0
   -0.4151   -2.6924   -1.3714 H   0  0  0  0  0  0  0  0  0  0  0  0
   -2.0467   -2.4905   -0.7161 H   0  0  0  0  0  0  0  0  0  0  0  0
    0.0404   -0.4227   -1.0025 H   0  0  0  0  0  0  0  0  0  0  0  0
   -1.2598    1.2767   -2.4332 H   0  0  0  0  0  0  0  0  0  0  0  0
   -1.5348    3.5840   -3.9859 H   0  0  0  0  0  0  0  0  0  0  0  0
   -0.6021    6.1291   -3.6531 H   0  0  0  0  0  0  0  0  0  0  0  0
  1  2  1  0
  2  3  1  0
  3  4  1  0
  4  5  1  0
  5  6  1  0
  6  7  1  0
  7  8  1  0
  8  9  2  0
  8 10  1  0
 10 11  1  0
 11 12  3  0
 10 13  2  3
 13 14  1  0
 14 15  2  0
 15 16  1  0
 16 17  2  0
 17 18  1  0
 18 19  2  0
 18 20  1  0
 17 21  1  0
 21 14  1  0
  1 22  1  0
  1 23  1  0
  1 24  1  0
  2 25  1  0
  2 26  1  0
  4 27  1  0
  4 28  1  0
  5 29  1  0
  5 30  1  0
  6 31  1  0
  6 32  1  0
  7 33  1  0
 13 34  1  0
 15 35  1  0
 16 36  1  0
M  CHG  2  18   1  20  -1
M  END
$$$$
