
     RDKit          3D

 56 60  0  0  0  0  0  0  0  0999 V2000
   -5.6268   -0.3531    2.2452 C   0  0  0  0  0  0  0  0  0  0  0  0
   -4.1914   -0.4546    1.8140 C   0  0  0  0  0  0  0  0  0  0  0  0
   -3.2105    0.0880    2.6611 C   0  0  0  0  0  0  0  0  0  0  0  0
   -1.8520    0.0208    2.3366 C   0  0  0  0  0  0  0  0  0  0  0  0
   -1.4206   -0.6032    1.1599 C   0  0  0  0  0  0  0  0  0  0  0  0
    0.0109   -0.6746    0.8322 C   0  0  0  0  0  0  0  0  0  0  0  0
    0.5765    0.5316    0.6123 N   0  0  0  0  0  0  0  0  0  0  0  0
    1.8988    0.6221    0.2769 N   0  0  0  0  0  0  0  0  0  0  0  0
    2.6673   -0.4805    0.1619 C   0  0  0  0  0  0  0  0  0  0  0  0
    4.0316   -0.3656   -0.2217 N   0  0  0  0  0  0  0  0  0  0  0  0
    4.8386    0.7951   -0.2794 C   0  0  0  0  0  0  0  0  0  0  0  0
    5.9970    0.7689   -1.0962 C   0  0  0  0  0  0  0  0  0  0  0  0
    6.8833    1.8509   -1.1509 C   0  0  0  0  0  0  0  0  0  0  0  0
    6.6050    2.9414   -0.3611 C   0  0  0  0  0  0  0  0  0  0  0  0
    5.5054    2.9717    0.4612 C   0  0  0  0  0  0  0  0  0  0  0  0
    4.6178    1.9157    0.5343 C   0  0  0  0  0  0  0  0  0  0  0  0
    5.4240    4.1290    1.1726 O   0  0  0  0  0  0  0  0  0  0  0  0
    6.5891    4.8276    0.6891 C   0  0  0  0  0  0  0  0  0  0  0  0
    7.3513    4.0741   -0.2770 O   0  0  0  0  0  0  0  0  0  0  0  0
    2.1257   -1.7644    0.4112 C   0  0  0  0  0  0  0  0  0  0  0  0
    2.8933   -2.9562    0.3510 C   0  0  0  0  0  0  0  0  0  0  0  0
    2.3327   -4.2089    0.6018 C   0  0  0  0  0  0  0  0  0  0  0  0
    0.9907   -4.3068    0.9313 C   0  0  0  0  0  0  0  0  0  0  0  0
    0.2138   -3.1519    1.0126 C   0  0  0  0  0  0  0  0  0  0  0  0
    0.7558   -1.8665    0.7525 C   0  0  0  0  0  0  0  0  0  0  0  0
   -2.3953   -1.1335    0.3028 C   0  0  0  0  0  0  0  0  0  0  0  0
   -3.7665   -1.0628    0.6195 C   0  0  0  0  0  0  0  0  0  0  0  0
   -4.8759   -1.8178   -0.5639 S   0  0  0  0  0  6  0  0  0  0  0  0
   -4.2051   -2.9882   -1.0887 O   0  0  0  0  0  0  0  0  0  0  0  0
   -6.2071   -1.9077   -0.0094 O   0  0  0  0  0  0  0  0  0  0  0  0
   -4.9130   -0.6923   -1.8015 N   0  0  0  0  0  0  0  0  0  0  0  0
   -5.4018    0.6680   -1.5312 C   0  0  0  0  0  0  0  0  0  0  0  0
   -5.5615    1.3990   -2.8656 C   0  0  0  0  0  0  0  0  0  0  0  0
   -4.2962    1.4561   -3.5277 O   0  0  0  0  0  0  0  0  0  0  0  0
   -5.7266    0.2284    3.1690 H   0  0  0  0  0  0  0  0  0  0  0  0
   -6.0367   -1.3467    2.4501 H   0  0  0  0  0  0  0  0  0  0  0  0
   -6.2246    0.1617    1.4878 H   0  0  0  0  0  0  0  0  0  0  0  0
   -3.4955    0.5745    3.5932 H   0  0  0  0  0  0  0  0  0  0  0  0
   -1.1228    0.4612    3.0161 H   0  0  0  0  0  0  0  0  0  0  0  0
    4.1978   -0.9747   -1.0162 H   0  0  0  0  0  0  0  0  0  0  0  0
    6.2165   -0.1064   -1.7026 H   0  0  0  0  0  0  0  0  0  0  0  0
    7.7622    1.8290   -1.7849 H   0  0  0  0  0  0  0  0  0  0  0  0
    3.7789    1.9725    1.2190 H   0  0  0  0  0  0  0  0  0  0  0  0
    6.2680    5.7678    0.2261 H   0  0  0  0  0  0  0  0  0  0  0  0
    7.2369    5.0594    1.5417 H   0  0  0  0  0  0  0  0  0  0  0  0
    3.9575   -2.9180    0.1248 H   0  0  0  0  0  0  0  0  0  0  0  0
    2.9485   -5.1033    0.5489 H   0  0  0  0  0  0  0  0  0  0  0  0
    0.5454   -5.2781    1.1349 H   0  0  0  0  0  0  0  0  0  0  0  0
   -0.8315   -3.2695    1.2943 H   0  0  0  0  0  0  0  0  0  0  0  0
   -2.0814   -1.6090   -0.6268 H   0  0  0  0  0  0  0  0  0  0  0  0
   -4.1229   -0.7440   -2.4482 H   0  0  0  0  0  0  0  0  0  0  0  0
   -4.6632    1.1968   -0.9207 H   0  0  0  0  0  0  0  0  0  0  0  0
   -6.3623    0.6384   -1.0094 H   0  0  0  0  0  0  0  0  0  0  0  0
   -6.2676    0.8737   -3.5171 H   0  0  0  0  0  0  0  0  0  0  0  0
   -5.9146    2.4215   -2.7005 H   0  0  0  0  0  0  0  0  0  0  0  0
   -4.4469    1.8933   -4.3845 H   0  0  0  0  0  0  0  0  0  0  0  0
  1  2  1  0
  2  3  2  0
  3  4  1  0
  4  5  2  0
  5  6  1  0
  6  7  2  0
  7  8  1  0
  8  9  2  0
  9 10  1  0
 10 11  1  0
 11 12  2  0
 12 13  1  0
 13 14  2  0
 14 15  1  0
 15 16  2  0
 15 17  1  0
 17 18  1  0
 18 19  1  0
  9 20  1  0
 20 21  2  0
 21 22  1  0
 22 23  2  0
 23 24  1  0
 24 25  2  0
  5 26  1  0
 26 27  2  0
 27 28  1  0
 28 29  2  0
 28 30  2  0
 28 31  1  0
 31 32  1  0
 32 33  1  0
 33 34  1  0
 27  2  1  0
 25  6  1  0
 16 11  1  0
 25 20  1  0
 19 14  1  0
  1 35  1  0
  1 36  1  0
  1 37  1  0
  3 38  1  0
  4 39  1  0
 10 40  1  0
 12 41  1  0
 13 42  1  0
 16 43  1  0
 18 44  1  0
 18 45  1  0
 21 46  1  0
 22 47  1  0
 23 48  1  0
 24 49  1  0
 26 50  1  0
 31 51  1  0
 32 52  1  0
 32 53  1  0
 33 54  1  0
 33 55  1  0
 34 56  1  0
M  END
$$$$
