
     RDKit          3D

 45 49  0  0  0  0  0  0  0  0999 V2000
    0.9005    0.6619   -1.9039 O   0  0  0  0  0  0  0  0  0  0  0  0
    1.4515    0.1015   -0.9678 C   0  0  0  0  0  0  0  0  0  0  0  0
    0.8588   -0.5915    0.0499 O   0  0  0  0  0  0  0  0  0  0  0  0
   -0.5390   -0.4487    0.0664 C   0  0  0  0  0  0  0  0  0  0  0  0
   -1.1637    0.5907    0.6737 C   0  0  0  0  0  0  0  0  0  0  0  0
   -0.3689    1.6413    1.3344 C   0  0  0  0  0  0  0  0  0  0  0  0
    0.1538    1.4336    2.6178 C   0  0  0  0  0  0  0  0  0  0  0  0
    0.9419    2.4139    3.2232 C   0  0  0  0  0  0  0  0  0  0  0  0
    1.2138    3.6045    2.5503 C   0  0  0  0  0  0  0  0  0  0  0  0
    0.6964    3.8185    1.2734 C   0  0  0  0  0  0  0  0  0  0  0  0
   -0.0931    2.8407    0.6663 C   0  0  0  0  0  0  0  0  0  0  0  0
   -2.6772    0.6879    0.6768 C   0  0  0  0  0  0  0  0  0  0  0  0
   -3.2646    1.6292    1.2038 O   0  0  0  0  0  0  0  0  0  0  0  0
   -3.3336   -0.3483    0.0657 N   0  0  0  0  0  0  0  0  0  0  0  0
   -2.6768   -1.4156   -0.5185 C   0  0  0  0  0  0  0  0  0  0  0  0
   -3.5687   -2.3313   -1.0518 C   0  0  0  0  0  0  0  0  0  0  0  0
   -3.0789   -3.4646   -1.6689 C   0  0  0  0  0  0  0  0  0  0  0  0
   -1.6862   -3.6368   -1.7266 C   0  0  0  0  0  0  0  0  0  0  0  0
   -0.8028   -2.6829   -1.1730 C   0  0  0  0  0  0  0  0  0  0  0  0
   -1.3037   -1.5390   -0.5521 C   0  0  0  0  0  0  0  0  0  0  0  0
   -4.9768   -1.8682   -0.8321 C   0  0  0  0  0  0  0  0  0  0  0  0
   -4.7765   -0.5291   -0.0783 C   0  0  0  0  0  0  0  0  0  0  0  0
    2.9309    0.0617   -0.8069 C   0  0  0  0  0  0  0  0  0  0  0  0
    3.7242    0.4854   -1.8834 C   0  0  0  0  0  0  0  0  0  0  0  0
    5.1181    0.4752   -1.7806 C   0  0  0  0  0  0  0  0  0  0  0  0
    5.7216    0.0463   -0.6000 C   0  0  0  0  0  0  0  0  0  0  0  0
    7.4366    0.0339   -0.4720 Cl  0  0  0  0  0  0  0  0  0  0  0  0
    4.9439   -0.3701    0.4797 C   0  0  0  0  0  0  0  0  0  0  0  0
    3.5488   -0.3616    0.3793 C   0  0  0  0  0  0  0  0  0  0  0  0
   -0.0545    0.5107    3.1538 H   0  0  0  0  0  0  0  0  0  0  0  0
    1.3386    2.2519    4.2220 H   0  0  0  0  0  0  0  0  0  0  0  0
    1.8235    4.3698    3.0236 H   0  0  0  0  0  0  0  0  0  0  0  0
    0.9038    4.7482    0.7498 H   0  0  0  0  0  0  0  0  0  0  0  0
   -0.4881    3.0164   -0.3326 H   0  0  0  0  0  0  0  0  0  0  0  0
   -3.7452   -4.2048   -2.1005 H   0  0  0  0  0  0  0  0  0  0  0  0
   -1.2771   -4.5219   -2.2105 H   0  0  0  0  0  0  0  0  0  0  0  0
    0.2681   -2.8530   -1.2425 H   0  0  0  0  0  0  0  0  0  0  0  0
   -5.4949   -1.7080   -1.7825 H   0  0  0  0  0  0  0  0  0  0  0  0
   -5.5377   -2.5809   -0.2199 H   0  0  0  0  0  0  0  0  0  0  0  0
   -5.2369   -0.5455    0.9156 H   0  0  0  0  0  0  0  0  0  0  0  0
   -5.1897    0.3197   -0.6342 H   0  0  0  0  0  0  0  0  0  0  0  0
    3.2592    0.8274   -2.8070 H   0  0  0  0  0  0  0  0  0  0  0  0
    5.7230    0.8051   -2.6215 H   0  0  0  0  0  0  0  0  0  0  0  0
    5.4158   -0.6974    1.4029 H   0  0  0  0  0  0  0  0  0  0  0  0
    2.9616   -0.6763    1.2389 H   0  0  0  0  0  0  0  0  0  0  0  0
  1  2  2  0
  2  3  1  0
  3  4  1  0
  4  5  2  0
  5  6  1  0
  6  7  2  0
  7  8  1  0
  8  9  2  0
  9 10  1  0
 10 11  2  0
  5 12  1  0
 12 13  2  0
 12 14  1  0
 14 15  1  0
 15 16  2  0
 16 17  1  0
 17 18  2  0
 18 19  1  0
 19 20  2  0
 16 21  1  0
 21 22  1  0
  2 23  1  0
 23 24  2  0
 24 25  1  0
 25 26  2  0
 26 27  1  0
 26 28  1  0
 28 29  2  0
 20  4  1  0
 29 23  1  0
 11  6  1  0
 22 14  1  0
 20 15  1  0
  7 30  1  0
  8 31  1  0
  9 32  1  0
 10 33  1  0
 11 34  1  0
 17 35  1  0
 18 36  1  0
 19 37  1  0
 21 38  1  0
 21 39  1  0
 22 40  1  0
 22 41  1  0
 24 42  1  0
 25 43  1  0
 28 44  1  0
 29 45  1  0
M  END
$$$$
