
     RDKit          3D

 49 52  0  0  0  0  0  0  0  0999 V2000
    4.8328   -0.5379    2.2975 C   0  0  0  0  0  0  0  0  0  0  0  0
    4.0580    0.6682    2.5948 N   0  0  0  0  0  0  0  0  0  0  0  0
    2.6886    0.3197    3.0124 C   0  0  0  0  0  0  0  0  0  0  0  0
    1.7821   -0.2803    1.9029 C   0  0  0  0  0  0  0  0  0  0  0  0
    2.1264    0.1373    0.5251 N   0  0  0  0  0  0  0  0  0  0  0  0
    0.9697    0.0789   -0.3818 C   0  0  0  0  0  0  0  0  0  0  0  0
    0.4709   -1.3555   -0.5938 C   0  0  0  0  0  0  0  0  0  0  0  0
   -0.6139   -1.4521   -1.6785 C   0  0  0  0  0  0  0  0  0  0  0  0
   -1.8776   -0.7633   -1.3105 N   0  0  0  0  0  0  0  0  0  0  0  0
   -2.5427   -1.2508   -0.1523 C   0  0  0  0  0  0  0  0  0  0  0  0
   -2.6527   -2.6349    0.0939 C   0  0  0  0  0  0  0  0  0  0  0  0
   -3.3122   -3.1339    1.2215 C   0  0  0  0  0  0  0  0  0  0  0  0
   -3.8891   -2.2589    2.1309 C   0  0  0  0  0  0  0  0  0  0  0  0
   -3.8127   -0.8875    1.9050 C   0  0  0  0  0  0  0  0  0  0  0  0
   -3.1558   -0.3803    0.7706 C   0  0  0  0  0  0  0  0  0  0  0  0
   -3.0931    1.3928    0.6072 S   0  0  0  0  0  0  0  0  0  0  0  0
   -2.6464    1.5768   -1.1072 C   0  0  0  0  0  0  0  0  0  0  0  0
   -2.8470    2.8460   -1.6778 C   0  0  0  0  0  0  0  0  0  0  0  0
   -2.5194    3.0870   -3.0096 C   0  0  0  0  0  0  0  0  0  0  0  0
   -2.0008    2.0538   -3.7764 C   0  0  0  0  0  0  0  0  0  0  0  0
   -1.6210    2.3280   -5.4325 Cl  0  0  0  0  0  0  0  0  0  0  0  0
   -1.7927    0.7909   -3.2177 C   0  0  0  0  0  0  0  0  0  0  0  0
   -2.0832    0.5282   -1.8638 C   0  0  0  0  0  0  0  0  0  0  0  0
    2.7174    1.4848    0.5479 C   0  0  0  0  0  0  0  0  0  0  0  0
    4.0027    1.5621    1.4163 C   0  0  0  0  0  0  0  0  0  0  0  0
    5.8732   -0.2731    2.0772 H   0  0  0  0  0  0  0  0  0  0  0  0
    4.4417   -1.1086    1.4488 H   0  0  0  0  0  0  0  0  0  0  0  0
    4.8620   -1.1991    3.1709 H   0  0  0  0  0  0  0  0  0  0  0  0
    2.2155    1.2398    3.3823 H   0  0  0  0  0  0  0  0  0  0  0  0
    2.7128   -0.3586    3.8746 H   0  0  0  0  0  0  0  0  0  0  0  0
    0.7456   -0.0154    2.1494 H   0  0  0  0  0  0  0  0  0  0  0  0
    1.8591   -1.3732    1.9490 H   0  0  0  0  0  0  0  0  0  0  0  0
    1.2669    0.4785   -1.3598 H   0  0  0  0  0  0  0  0  0  0  0  0
    0.1643    0.7184   -0.0046 H   0  0  0  0  0  0  0  0  0  0  0  0
    1.3155   -1.9825   -0.9085 H   0  0  0  0  0  0  0  0  0  0  0  0
    0.1069   -1.7782    0.3485 H   0  0  0  0  0  0  0  0  0  0  0  0
   -0.8138   -2.5075   -1.8966 H   0  0  0  0  0  0  0  0  0  0  0  0
   -0.1807   -1.0722   -2.6095 H   0  0  0  0  0  0  0  0  0  0  0  0
   -2.2496   -3.3588   -0.6077 H   0  0  0  0  0  0  0  0  0  0  0  0
   -3.3806   -4.2073    1.3790 H   0  0  0  0  0  0  0  0  0  0  0  0
   -4.4041   -2.6400    3.0086 H   0  0  0  0  0  0  0  0  0  0  0  0
   -4.2723   -0.2102    2.6218 H   0  0  0  0  0  0  0  0  0  0  0  0
   -3.2660    3.6558   -1.0836 H   0  0  0  0  0  0  0  0  0  0  0  0
   -2.6837    4.0711   -3.4394 H   0  0  0  0  0  0  0  0  0  0  0  0
   -1.4375   -0.0021   -3.8693 H   0  0  0  0  0  0  0  0  0  0  0  0
    1.9829    2.2074    0.9294 H   0  0  0  0  0  0  0  0  0  0  0  0
    2.9798    1.8010   -0.4692 H   0  0  0  0  0  0  0  0  0  0  0  0
    4.8801    1.4025    0.7755 H   0  0  0  0  0  0  0  0  0  0  0  0
    4.0936    2.5933    1.7805 H   0  0  0  0  0  0  0  0  0  0  0  0
  1  2  1  0
  2  3  1  0
  3  4  1  0
  4  5  1  0
  5  6  1  0
  6  7  1  0
  7  8  1  0
  8  9  1  0
  9 10  1  0
 10 11  2  0
 11 12  1  0
 12 13  2  0
 13 14  1  0
 14 15  2  0
 15 16  1  0
 16 17  1  0
 17 18  2  0
 18 19  1  0
 19 20  2  0
 20 21  1  0
 20 22  1  0
 22 23  2  0
  5 24  1  0
 24 25  1  0
 25  2  1  0
 23  9  1  0
 15 10  1  0
 23 17  1  0
  1 26  1  0
  1 27  1  0
  1 28  1  0
  3 29  1  0
  3 30  1  0
  4 31  1  0
  4 32  1  0
  6 33  1  0
  6 34  1  0
  7 35  1  0
  7 36  1  0
  8 37  1  0
  8 38  1  0
 11 39  1  0
 12 40  1  0
 13 41  1  0
 14 42  1  0
 18 43  1  0
 19 44  1  0
 22 45  1  0
 24 46  1  0
 24 47  1  0
 25 48  1  0
 25 49  1  0
M  END
$$$$
