
     RDKit          3D

 38 39  0  0  0  0  0  0  0  0999 V2000
    0.2011   -0.4260   -1.8966 C   0  0  0  0  0  0  0  0  0  0  0  0
   -0.2726   -0.3883   -0.5179 N   0  0  0  0  0  0  0  0  0  0  0  0
   -1.6955   -0.6660   -0.3063 C   0  0  0  0  0  0  0  0  0  0  0  0
   -2.5682    0.5821   -0.4437 C   0  0  0  0  0  0  0  0  0  0  0  0
   -4.0074    0.2600   -0.1443 C   0  0  0  0  0  0  0  0  0  0  0  0
   -4.5014    0.3811    1.1523 C   0  0  0  0  0  0  0  0  0  0  0  0
   -5.8306    0.0506    1.3975 C   0  0  0  0  0  0  0  0  0  0  0  0
   -6.6268   -0.3913    0.3484 C   0  0  0  0  0  0  0  0  0  0  0  0
   -6.0550   -0.4904   -0.9087 C   0  0  0  0  0  0  0  0  0  0  0  0
   -4.7667   -0.1827   -1.1769 N   0  0  0  0  0  0  0  0  0  0  0  0
    0.4524    0.1219    0.5581 C   0  0  0  0  0  0  0  0  0  0  0  0
   -0.0667    0.4514    1.6228 O   0  0  0  0  0  0  0  0  0  0  0  0
    1.9208    0.2609    0.4404 C   0  0  0  0  0  0  0  0  0  0  0  0
    2.7159   -0.8320    0.0821 C   0  0  0  0  0  0  0  0  0  0  0  0
    4.1069   -0.6929    0.0110 C   0  0  0  0  0  0  0  0  0  0  0  0
    4.7071    0.5329    0.3102 C   0  0  0  0  0  0  0  0  0  0  0  0
    6.0437    0.8105    0.2819 O   0  0  0  0  0  0  0  0  0  0  0  0
    6.9274   -0.2247   -0.1128 C   0  0  0  0  0  0  0  0  0  0  0  0
    8.1912    0.2540   -0.0989 F   0  0  0  0  0  0  0  0  0  0  0  0
    6.8641   -1.2702    0.7387 F   0  0  0  0  0  0  0  0  0  0  0  0
    6.6534   -0.6472   -1.3658 F   0  0  0  0  0  0  0  0  0  0  0  0
    3.9027    1.6135    0.6938 C   0  0  0  0  0  0  0  0  0  0  0  0
    2.5146    1.4803    0.7685 C   0  0  0  0  0  0  0  0  0  0  0  0
   -0.4749    0.1672   -2.5205 H   0  0  0  0  0  0  0  0  0  0  0  0
    1.2045   -0.0139   -2.0094 H   0  0  0  0  0  0  0  0  0  0  0  0
    0.1900   -1.4647   -2.2395 H   0  0  0  0  0  0  0  0  0  0  0  0
   -2.0041   -1.4460   -1.0125 H   0  0  0  0  0  0  0  0  0  0  0  0
   -1.8130   -1.0911    0.6986 H   0  0  0  0  0  0  0  0  0  0  0  0
   -2.4959    0.9817   -1.4622 H   0  0  0  0  0  0  0  0  0  0  0  0
   -2.2202    1.3828    0.2194 H   0  0  0  0  0  0  0  0  0  0  0  0
   -3.8620    0.7231    1.9609 H   0  0  0  0  0  0  0  0  0  0  0  0
   -6.2385    0.1351    2.4003 H   0  0  0  0  0  0  0  0  0  0  0  0
   -7.6661   -0.6549    0.5063 H   0  0  0  0  0  0  0  0  0  0  0  0
   -6.6353   -0.8322   -1.7610 H   0  0  0  0  0  0  0  0  0  0  0  0
    2.2584   -1.7958   -0.1287 H   0  0  0  0  0  0  0  0  0  0  0  0
    4.6846   -1.5684   -0.2711 H   0  0  0  0  0  0  0  0  0  0  0  0
    4.3602    2.5684    0.9449 H   0  0  0  0  0  0  0  0  0  0  0  0
    1.9017    2.3213    1.0835 H   0  0  0  0  0  0  0  0  0  0  0  0
  1  2  1  0
  2  3  1  0
  3  4  1  0
  4  5  1  0
  5  6  2  0
  6  7  1  0
  7  8  2  0
  8  9  1  0
  9 10  2  0
  2 11  1  0
 11 12  2  0
 11 13  1  0
 13 14  2  0
 14 15  1  0
 15 16  2  0
 16 17  1  0
 17 18  1  0
 18 19  1  0
 18 20  1  0
 18 21  1  0
 16 22  1  0
 22 23  2  0
 10  5  1  0
 23 13  1  0
  1 24  1  0
  1 25  1  0
  1 26  1  0
  3 27  1  0
  3 28  1  0
  4 29  1  0
  4 30  1  0
  6 31  1  0
  7 32  1  0
  8 33  1  0
  9 34  1  0
 14 35  1  0
 15 36  1  0
 22 37  1  0
 23 38  1  0
M  END
$$$$
