
     RDKit          3D

 61 66  0  0  0  0  0  0  0  0999 V2000
    7.9420   -2.6121   -1.8437 C   0  0  0  0  0  0  0  0  0  0  0  0
    6.6405   -3.1069   -1.8838 C   0  0  0  0  0  0  0  0  0  0  0  0
    5.6637   -2.5747   -1.0415 C   0  0  0  0  0  0  0  0  0  0  0  0
    5.9815   -1.5424   -0.1490 C   0  0  0  0  0  0  0  0  0  0  0  0
    4.9170   -0.9503    0.7433 C   0  0  0  0  0  0  0  0  0  0  0  0
    4.1390    0.1678    0.0256 C   0  0  0  0  0  0  0  0  0  0  0  0
    3.1167    0.8087    0.8717 N   0  0  0  0  0  0  0  0  0  0  0  0
    2.5211    1.9855    0.1921 C   0  0  0  0  0  0  0  0  0  0  0  0
    1.1992    1.6956   -0.5509 C   0  0  0  0  0  0  0  0  0  0  0  0
    0.1557    1.2154    0.3847 N   0  0  0  0  0  0  0  0  0  0  0  0
   -0.9847    0.6827   -0.1578 C   0  0  0  0  0  0  0  0  0  0  0  0
   -1.1028   -0.2282   -1.1910 C   0  0  0  0  0  0  0  0  0  0  0  0
   -2.4582   -0.5993   -1.2975 C   0  0  0  0  0  0  0  0  0  0  0  0
   -3.1674    0.1329   -0.3648 C   0  0  0  0  0  0  0  0  0  0  0  0
   -4.5719    0.1463   -0.0119 C   0  0  0  0  0  0  0  0  0  0  0  0
   -5.5481   -0.7126   -0.7311 C   0  0  0  0  0  0  0  0  0  0  0  0
   -5.6176   -0.7170   -2.1290 C   0  0  0  0  0  0  0  0  0  0  0  0
   -6.5518   -1.5274   -2.7758 C   0  0  0  0  0  0  0  0  0  0  0  0
   -7.4270   -2.3175   -2.0283 C   0  0  0  0  0  0  0  0  0  0  0  0
   -7.3782   -2.2925   -0.6339 C   0  0  0  0  0  0  0  0  0  0  0  0
   -6.4438   -1.4857    0.0165 C   0  0  0  0  0  0  0  0  0  0  0  0
   -5.0090    0.8948    0.9569 N   0  0  0  0  0  0  0  0  0  0  0  0
   -4.1132    1.7559    1.6197 C   0  0  0  0  0  0  0  0  0  0  0  0
   -4.6371    2.5914    2.6115 C   0  0  0  0  0  0  0  0  0  0  0  0
   -3.8210    3.5023    3.2833 C   0  0  0  0  0  0  0  0  0  0  0  0
   -2.4701    3.5940    2.9570 C   0  0  0  0  0  0  0  0  0  0  0  0
   -1.9285    2.7661    1.9705 C   0  0  0  0  0  0  0  0  0  0  0  0
   -2.7422    1.8351    1.3175 C   0  0  0  0  0  0  0  0  0  0  0  0
   -2.2715    0.9447    0.3185 N   0  0  0  0  0  0  0  0  0  0  0  0
    0.6945    0.5116    1.5802 C   0  0  0  0  0  0  0  0  0  0  0  0
    2.0579   -0.1500    1.2788 C   0  0  0  0  0  0  0  0  0  0  0  0
    7.2913   -1.0481   -0.1202 C   0  0  0  0  0  0  0  0  0  0  0  0
    8.2673   -1.5829   -0.9626 C   0  0  0  0  0  0  0  0  0  0  0  0
    8.7023   -3.0282   -2.4994 H   0  0  0  0  0  0  0  0  0  0  0  0
    6.3847   -3.9079   -2.5712 H   0  0  0  0  0  0  0  0  0  0  0  0
    4.6522   -2.9717   -1.0857 H   0  0  0  0  0  0  0  0  0  0  0  0
    4.2460   -1.7562    1.0635 H   0  0  0  0  0  0  0  0  0  0  0  0
    5.3808   -0.5587    1.6575 H   0  0  0  0  0  0  0  0  0  0  0  0
    4.8662    0.9303   -0.2813 H   0  0  0  0  0  0  0  0  0  0  0  0
    3.6852   -0.2184   -0.8965 H   0  0  0  0  0  0  0  0  0  0  0  0
    2.3248    2.7403    0.9649 H   0  0  0  0  0  0  0  0  0  0  0  0
    3.2368    2.4508   -0.4958 H   0  0  0  0  0  0  0  0  0  0  0  0
    0.8456    2.6165   -1.0290 H   0  0  0  0  0  0  0  0  0  0  0  0
    1.3939    0.9632   -1.3437 H   0  0  0  0  0  0  0  0  0  0  0  0
   -0.2831   -0.6403   -1.7646 H   0  0  0  0  0  0  0  0  0  0  0  0
   -2.8596   -1.3401   -1.9767 H   0  0  0  0  0  0  0  0  0  0  0  0
   -4.9619   -0.0817   -2.7192 H   0  0  0  0  0  0  0  0  0  0  0  0
   -6.6042   -1.5358   -3.8619 H   0  0  0  0  0  0  0  0  0  0  0  0
   -8.1555   -2.9466   -2.5334 H   0  0  0  0  0  0  0  0  0  0  0  0
   -8.0692   -2.8975   -0.0530 H   0  0  0  0  0  0  0  0  0  0  0  0
   -6.4122   -1.4596    1.1034 H   0  0  0  0  0  0  0  0  0  0  0  0
   -5.6961    2.5330    2.8511 H   0  0  0  0  0  0  0  0  0  0  0  0
   -4.2439    4.1478    4.0488 H   0  0  0  0  0  0  0  0  0  0  0  0
   -1.8362    4.3167    3.4654 H   0  0  0  0  0  0  0  0  0  0  0  0
   -0.8817    2.8894    1.7212 H   0  0  0  0  0  0  0  0  0  0  0  0
   -0.0060   -0.2500    1.9442 H   0  0  0  0  0  0  0  0  0  0  0  0
    0.8149    1.2409    2.3896 H   0  0  0  0  0  0  0  0  0  0  0  0
    1.8966   -0.9008    0.4930 H   0  0  0  0  0  0  0  0  0  0  0  0
    2.3946   -0.6819    2.1756 H   0  0  0  0  0  0  0  0  0  0  0  0
    7.5596   -0.2424    0.5587 H   0  0  0  0  0  0  0  0  0  0  0  0
    9.2821   -1.1942   -0.9315 H   0  0  0  0  0  0  0  0  0  0  0  0
  1  2  2  0
  2  3  1  0
  3  4  2  0
  4  5  1  0
  5  6  1  0
  6  7  1  0
  7  8  1  0
  8  9  1  0
  9 10  1  0
 10 11  1  0
 11 12  2  0
 12 13  1  0
 13 14  2  0
 14 15  1  0
 15 16  1  0
 16 17  2  0
 17 18  1  0
 18 19  2  0
 19 20  1  0
 20 21  2  0
 15 22  2  0
 22 23  1  0
 23 24  2  0
 24 25  1  0
 25 26  2  0
 26 27  1  0
 27 28  2  0
 28 29  1  0
 10 30  1  0
 30 31  1  0
  4 32  1  0
 32 33  2  0
 33  1  1  0
 31  7  1  0
 29 11  1  0
 29 14  1  0
 21 16  1  0
 28 23  1  0
  1 34  1  0
  2 35  1  0
  3 36  1  0
  5 37  1  0
  5 38  1  0
  6 39  1  0
  6 40  1  0
  8 41  1  0
  8 42  1  0
  9 43  1  0
  9 44  1  0
 12 45  1  0
 13 46  1  0
 17 47  1  0
 18 48  1  0
 19 49  1  0
 20 50  1  0
 21 51  1  0
 24 52  1  0
 25 53  1  0
 26 54  1  0
 27 55  1  0
 30 56  1  0
 30 57  1  0
 31 58  1  0
 31 59  1  0
 32 60  1  0
 33 61  1  0
M  END
$$$$
