
     RDKit          3D

 44 45  0  0  0  0  0  0  0  0999 V2000
   -7.7783   -1.1127    1.0233 C   0  0  0  0  0  0  0  0  0  0  0  0
   -7.6724    0.0513    0.0481 C   0  0  0  0  0  0  0  0  0  0  0  0
   -6.4444    0.9172    0.3097 C   0  0  0  0  0  0  0  0  0  0  0  0
   -5.2652    0.1298    0.0990 O   0  0  0  0  0  0  0  0  0  0  0  0
   -4.1029    0.8013    0.2992 C   0  0  0  0  0  0  0  0  0  0  0  0
   -4.0080    1.9732    0.6250 O   0  0  0  0  0  0  0  0  0  0  0  0
   -2.9365   -0.0946    0.0611 C   0  0  0  0  0  0  0  0  0  0  0  0
   -3.0925   -1.4529   -0.2459 C   0  0  0  0  0  0  0  0  0  0  0  0
   -1.9710   -2.2534   -0.4553 C   0  0  0  0  0  0  0  0  0  0  0  0
   -0.6928   -1.7008   -0.3590 C   0  0  0  0  0  0  0  0  0  0  0  0
   -0.5187   -0.3445   -0.0544 C   0  0  0  0  0  0  0  0  0  0  0  0
    0.8058    0.1247    0.0215 N   0  0  0  0  0  0  0  0  0  0  0  0
    1.2475    1.4070    0.2908 C   0  0  0  0  0  0  0  0  0  0  0  0
    0.5481    2.3909    0.5117 O   0  0  0  0  0  0  0  0  0  0  0  0
    2.7751    1.5264    0.2981 C   0  0  0  0  0  0  0  0  0  0  0  0
    3.4014    0.2807   -0.0074 O   0  0  0  0  0  0  0  0  0  0  0  0
    4.7690    0.2617   -0.0196 C   0  0  0  0  0  0  0  0  0  0  0  0
    5.3306   -0.9887   -0.3011 C   0  0  0  0  0  0  0  0  0  0  0  0
    6.7174   -1.1574   -0.3450 C   0  0  0  0  0  0  0  0  0  0  0  0
    7.5491   -0.0584   -0.1059 C   0  0  0  0  0  0  0  0  0  0  0  0
    9.0073   -0.2234   -0.1488 N   0  0  0  0  0  4  0  0  0  0  0  0
    9.7063    0.7859    0.0184 O   0  0  0  0  0  0  0  0  0  0  0  0
    9.4523   -1.3624   -0.3498 O   0  0  0  0  0  1  0  0  0  0  0  0
    6.9983    1.1983    0.1756 C   0  0  0  0  0  0  0  0  0  0  0  0
    5.6073    1.3539    0.2183 C   0  0  0  0  0  0  0  0  0  0  0  0
   -1.6461    0.4535    0.1561 C   0  0  0  0  0  0  0  0  0  0  0  0
   -6.9185   -1.7845    0.9372 H   0  0  0  0  0  0  0  0  0  0  0  0
   -7.8326   -0.7548    2.0565 H   0  0  0  0  0  0  0  0  0  0  0  0
   -8.6817   -1.6958    0.8185 H   0  0  0  0  0  0  0  0  0  0  0  0
   -8.5749    0.6682    0.1220 H   0  0  0  0  0  0  0  0  0  0  0  0
   -7.6259   -0.3531   -0.9699 H   0  0  0  0  0  0  0  0  0  0  0  0
   -6.4595    1.2941    1.3392 H   0  0  0  0  0  0  0  0  0  0  0  0
   -6.4442    1.7636   -0.3870 H   0  0  0  0  0  0  0  0  0  0  0  0
   -4.0805   -1.9004   -0.3231 H   0  0  0  0  0  0  0  0  0  0  0  0
   -2.0925   -3.3074   -0.6936 H   0  0  0  0  0  0  0  0  0  0  0  0
    0.1651   -2.3473   -0.5277 H   0  0  0  0  0  0  0  0  0  0  0  0
    1.5472   -0.5497   -0.1455 H   0  0  0  0  0  0  0  0  0  0  0  0
    3.0634    1.8553    1.3029 H   0  0  0  0  0  0  0  0  0  0  0  0
    3.0401    2.2761   -0.4562 H   0  0  0  0  0  0  0  0  0  0  0  0
    4.6834   -1.8431   -0.4878 H   0  0  0  0  0  0  0  0  0  0  0  0
    7.1262   -2.1419   -0.5638 H   0  0  0  0  0  0  0  0  0  0  0  0
    7.6328    2.0625    0.3645 H   0  0  0  0  0  0  0  0  0  0  0  0
    5.2163    2.3427    0.4398 H   0  0  0  0  0  0  0  0  0  0  0  0
   -1.5512    1.5089    0.3981 H   0  0  0  0  0  0  0  0  0  0  0  0
  1  2  1  0
  2  3  1  0
  3  4  1  0
  4  5  1  0
  5  6  2  0
  5  7  1  0
  7  8  2  0
  8  9  1  0
  9 10  2  0
 10 11  1  0
 11 12  1  0
 12 13  1  0
 13 14  2  0
 13 15  1  0
 15 16  1  0
 16 17  1  0
 17 18  2  0
 18 19  1  0
 19 20  2  0
 20 21  1  0
 21 22  2  0
 21 23  1  0
 20 24  1  0
 24 25  2  0
 11 26  2  0
 26  7  1  0
 25 17  1  0
  1 27  1  0
  1 28  1  0
  1 29  1  0
  2 30  1  0
  2 31  1  0
  3 32  1  0
  3 33  1  0
  8 34  1  0
  9 35  1  0
 10 36  1  0
 12 37  1  0
 15 38  1  0
 15 39  1  0
 18 40  1  0
 19 41  1  0
 24 42  1  0
 25 43  1  0
 26 44  1  0
M  CHG  2  21   1  23  -1
M  END
$$$$
