
     RDKit          3D

 39 40  0  0  0  0  0  0  0  0999 V2000
   -2.2060    1.8822   -3.7381 C   0  0  0  0  0  0  0  0  0  0  0  0
   -2.7220    2.1107   -2.3444 C   0  0  0  0  0  0  0  0  0  0  0  0
   -3.9197    2.2165   -2.1048 O   0  0  0  0  0  0  0  0  0  0  0  0
   -1.7336    2.2505   -1.4110 N   0  0  0  0  0  0  0  0  0  0  0  0
   -1.8238    1.5802   -0.2982 C   0  0  0  0  0  0  0  0  0  0  0  0
   -2.8731    0.5692    0.1156 C   0  0  0  0  0  0  0  0  0  0  0  0
   -2.2635   -0.7471    0.5410 C   0  0  0  0  0  0  0  0  0  0  0  0
   -1.8321   -1.6691   -0.4224 C   0  0  0  0  0  0  0  0  0  0  0  0
   -1.2408   -2.8725   -0.0341 C   0  0  0  0  0  0  0  0  0  0  0  0
   -1.0652   -3.1590    1.3175 C   0  0  0  0  0  0  0  0  0  0  0  0
   -1.4842   -2.2443    2.2831 C   0  0  0  0  0  0  0  0  0  0  0  0
   -2.0841   -1.0456    1.8982 C   0  0  0  0  0  0  0  0  0  0  0  0
   -0.7483    1.8303    0.7410 C   0  0  0  0  0  0  0  0  0  0  0  0
   -0.9794    2.3961    1.7931 O   0  0  0  0  0  0  0  0  0  0  0  0
    0.4064    1.2888    0.3141 O   0  0  0  0  0  0  0  0  0  0  0  0
    1.4652    1.3828    1.2678 C   0  0  0  0  0  0  0  0  0  0  0  0
    2.6237    0.5485    0.7824 C   0  0  0  0  0  0  0  0  0  0  0  0
    3.8998    1.1082    0.6419 C   0  0  0  0  0  0  0  0  0  0  0  0
    4.9709    0.3235    0.2112 C   0  0  0  0  0  0  0  0  0  0  0  0
    4.7795   -1.0268   -0.0795 C   0  0  0  0  0  0  0  0  0  0  0  0
    3.5174   -1.5963    0.0631 C   0  0  0  0  0  0  0  0  0  0  0  0
    2.4458   -0.8136    0.4937 C   0  0  0  0  0  0  0  0  0  0  0  0
   -1.4510    1.0918   -3.7307 H   0  0  0  0  0  0  0  0  0  0  0  0
   -1.7720    2.8081   -4.1240 H   0  0  0  0  0  0  0  0  0  0  0  0
   -3.0275    1.5694   -4.3879 H   0  0  0  0  0  0  0  0  0  0  0  0
   -3.5832    0.3567   -0.6869 H   0  0  0  0  0  0  0  0  0  0  0  0
   -3.4568    1.0045    0.9363 H   0  0  0  0  0  0  0  0  0  0  0  0
   -1.9560   -1.4594   -1.4821 H   0  0  0  0  0  0  0  0  0  0  0  0
   -0.9160   -3.5851   -0.7871 H   0  0  0  0  0  0  0  0  0  0  0  0
   -0.6024   -4.0947    1.6192 H   0  0  0  0  0  0  0  0  0  0  0  0
   -1.3458   -2.4673    3.3376 H   0  0  0  0  0  0  0  0  0  0  0  0
   -2.4018   -0.3450    2.6661 H   0  0  0  0  0  0  0  0  0  0  0  0
    1.7623    2.4336    1.3655 H   0  0  0  0  0  0  0  0  0  0  0  0
    1.1455    1.0049    2.2469 H   0  0  0  0  0  0  0  0  0  0  0  0
    4.0699    2.1585    0.8650 H   0  0  0  0  0  0  0  0  0  0  0  0
    5.9560    0.7657    0.1031 H   0  0  0  0  0  0  0  0  0  0  0  0
    5.6140   -1.6371   -0.4143 H   0  0  0  0  0  0  0  0  0  0  0  0
    3.3667   -2.6484   -0.1600 H   0  0  0  0  0  0  0  0  0  0  0  0
    1.4653   -1.2696    0.6021 H   0  0  0  0  0  0  0  0  0  0  0  0
  1  2  1  0
  2  3  2  0
  2  4  1  0
  4  5  2  3
  5  6  1  0
  6  7  1  0
  7  8  2  0
  8  9  1  0
  9 10  2  0
 10 11  1  0
 11 12  2  0
  5 13  1  0
 13 14  2  0
 13 15  1  0
 15 16  1  0
 16 17  1  0
 17 18  2  0
 18 19  1  0
 19 20  2  0
 20 21  1  0
 21 22  2  0
 12  7  1  0
 22 17  1  0
  1 23  1  0
  1 24  1  0
  1 25  1  0
  6 26  1  0
  6 27  1  0
  8 28  1  0
  9 29  1  0
 10 30  1  0
 11 31  1  0
 12 32  1  0
 16 33  1  0
 16 34  1  0
 18 35  1  0
 19 36  1  0
 20 37  1  0
 21 38  1  0
 22 39  1  0
M  END
$$$$
