
     RDKit          3D

 47 50  0  0  0  0  0  0  0  0999 V2000
   -2.3202   -3.2479    0.8100 C   0  0  0  0  0  0  0  0  0  0  0  0
   -1.4540   -2.0207    0.8161 C   0  0  0  0  0  0  0  0  0  0  0  0
   -0.1625   -2.1756    0.9113 N   0  0  0  0  0  0  0  0  0  0  0  0
    0.6942   -1.0697    0.8986 N   0  0  0  0  0  0  0  0  0  0  0  0
    2.1198   -1.3466    0.9326 C   0  0  0  0  0  0  0  0  0  0  0  0
    2.7249   -1.2383   -0.4697 C   0  0  0  0  0  0  0  0  0  0  0  0
    2.0917   -1.4194   -1.5071 O   0  0  0  0  0  0  0  0  0  0  0  0
    4.0829   -0.9764   -0.4679 N   0  0  0  0  0  0  0  0  0  0  0  0
    4.7620   -0.7230   -1.7179 C   0  0  0  0  0  0  0  0  0  0  0  0
    6.2332   -0.7276   -1.4589 C   0  0  0  0  0  0  0  0  0  0  0  0
    7.1027   -1.8010   -1.4887 C   0  0  0  0  0  0  0  0  0  0  0  0
    8.4421   -1.4232   -1.1837 C   0  0  0  0  0  0  0  0  0  0  0  0
    8.5514   -0.0746   -0.9298 C   0  0  0  0  0  0  0  0  0  0  0  0
    7.0468    0.7271   -1.0574 S   0  0  0  0  0  0  0  0  0  0  0  0
    0.2897    0.2760    0.8120 C   0  0  0  0  0  0  0  0  0  0  0  0
    1.0814    1.2177    0.8192 O   0  0  0  0  0  0  0  0  0  0  0  0
   -1.1562    0.4227    0.7276 C   0  0  0  0  0  0  0  0  0  0  0  0
   -1.8357    1.5702    0.6811 N   0  0  0  0  0  0  0  0  0  0  0  0
   -3.1361    1.2035    0.5152 N   0  0  0  0  0  0  0  0  0  0  0  0
   -4.0960    2.2153    0.1995 C   0  0  0  0  0  0  0  0  0  0  0  0
   -5.3459    1.9173   -0.3564 C   0  0  0  0  0  0  0  0  0  0  0  0
   -6.2492    2.9436   -0.6557 C   0  0  0  0  0  0  0  0  0  0  0  0
   -5.9095    4.2731   -0.4162 C   0  0  0  0  0  0  0  0  0  0  0  0
   -4.6597    4.5837    0.1111 C   0  0  0  0  0  0  0  0  0  0  0  0
   -3.7541    3.5629    0.4103 C   0  0  0  0  0  0  0  0  0  0  0  0
   -3.2918   -0.1769    0.6969 C   0  0  0  0  0  0  0  0  0  0  0  0
   -4.5963   -0.8653    0.8742 C   0  0  0  0  0  0  0  0  0  0  0  0
   -2.0052   -0.6895    0.7305 C   0  0  0  0  0  0  0  0  0  0  0  0
   -1.7095   -4.1430    0.6581 H   0  0  0  0  0  0  0  0  0  0  0  0
   -3.0558   -3.1892    0.0037 H   0  0  0  0  0  0  0  0  0  0  0  0
   -2.8322   -3.3374    1.7717 H   0  0  0  0  0  0  0  0  0  0  0  0
    2.6076   -0.6330    1.6054 H   0  0  0  0  0  0  0  0  0  0  0  0
    2.2896   -2.3602    1.3110 H   0  0  0  0  0  0  0  0  0  0  0  0
    4.4782   -0.5405    0.3556 H   0  0  0  0  0  0  0  0  0  0  0  0
    4.4129    0.2376   -2.1128 H   0  0  0  0  0  0  0  0  0  0  0  0
    4.4917   -1.5004   -2.4416 H   0  0  0  0  0  0  0  0  0  0  0  0
    6.7896   -2.8128   -1.7189 H   0  0  0  0  0  0  0  0  0  0  0  0
    9.2826   -2.1057   -1.1531 H   0  0  0  0  0  0  0  0  0  0  0  0
    9.4433    0.4815   -0.6751 H   0  0  0  0  0  0  0  0  0  0  0  0
   -5.6395    0.9084   -0.6189 H   0  0  0  0  0  0  0  0  0  0  0  0
   -7.2161    2.7045   -1.0922 H   0  0  0  0  0  0  0  0  0  0  0  0
   -6.6121    5.0675   -0.6539 H   0  0  0  0  0  0  0  0  0  0  0  0
   -4.3830    5.6201    0.2873 H   0  0  0  0  0  0  0  0  0  0  0  0
   -2.7822    3.8361    0.8198 H   0  0  0  0  0  0  0  0  0  0  0  0
   -4.4937   -1.7338    1.5306 H   0  0  0  0  0  0  0  0  0  0  0  0
   -4.9845   -1.2155   -0.0867 H   0  0  0  0  0  0  0  0  0  0  0  0
   -5.3373   -0.2218    1.3573 H   0  0  0  0  0  0  0  0  0  0  0  0
  1  2  1  0
  2  3  2  0
  3  4  1  0
  4  5  1  0
  5  6  1  0
  6  7  2  0
  6  8  1  0
  8  9  1  0
  9 10  1  0
 10 11  2  0
 11 12  1  0
 12 13  2  0
 13 14  1  0
  4 15  1  0
 15 16  2  0
 15 17  1  0
 17 18  2  0
 18 19  1  0
 19 20  1  0
 20 21  2  0
 21 22  1  0
 22 23  2  0
 23 24  1  0
 24 25  2  0
 19 26  1  0
 26 27  1  0
 26 28  2  0
 28  2  1  0
 14 10  1  0
 28 17  1  0
 25 20  1  0
  1 29  1  0
  1 30  1  0
  1 31  1  0
  5 32  1  0
  5 33  1  0
  8 34  1  0
  9 35  1  0
  9 36  1  0
 11 37  1  0
 12 38  1  0
 13 39  1  0
 21 40  1  0
 22 41  1  0
 23 42  1  0
 24 43  1  0
 25 44  1  0
 27 45  1  0
 27 46  1  0
 27 47  1  0
M  END
$$$$
