
     RDKit          3D

 39 42  0  0  0  0  0  0  0  0999 V2000
   -5.9433    1.2072   -3.8138 O   0  0  0  0  0  0  0  0  0  0  0  0
   -6.1614    0.7602   -2.6999 C   0  0  0  0  0  0  0  0  0  0  0  0
   -7.2412   -0.0095   -2.4799 O   0  0  0  0  0  0  0  0  0  0  0  0
   -5.3580    1.0577   -1.4677 C   0  0  0  0  0  0  0  0  0  0  0  0
   -5.3395   -0.1152   -0.4923 C   0  0  0  0  0  0  0  0  0  0  0  0
   -4.4391    0.1290    0.6406 N   0  0  0  0  0  0  0  0  0  0  0  0
   -3.0972   -0.1941    0.4975 C   0  0  0  0  0  0  0  0  0  0  0  0
   -2.6067   -0.6535   -0.5233 O   0  0  0  0  0  0  0  0  0  0  0  0
   -2.3410    0.1308    1.7417 C   0  0  0  0  0  0  0  0  0  0  0  0
   -1.0455   -0.0403    2.0392 C   0  0  0  0  0  0  0  0  0  0  0  0
   -0.0498   -0.6386    1.2222 C   0  0  0  0  0  0  0  0  0  0  0  0
   -0.0727   -1.7342    0.3731 C   0  0  0  0  0  0  0  0  0  0  0  0
    1.2280   -1.9001   -0.1621 C   0  0  0  0  0  0  0  0  0  0  0  0
    2.0269   -0.9178    0.3940 C   0  0  0  0  0  0  0  0  0  0  0  0
    3.4271   -0.6382    0.1998 C   0  0  0  0  0  0  0  0  0  0  0  0
    4.0388    0.3322    0.8452 N   0  0  0  0  0  0  0  0  0  0  0  0
    5.3711    0.3855    0.4754 C   0  0  0  0  0  0  0  0  0  0  0  0
    6.3281    1.2990    0.9621 C   0  0  0  0  0  0  0  0  0  0  0  0
    7.6466    1.2385    0.4992 C   0  0  0  0  0  0  0  0  0  0  0  0
    8.0204    0.2818   -0.4393 C   0  0  0  0  0  0  0  0  0  0  0  0
    7.0901   -0.6358   -0.9376 C   0  0  0  0  0  0  0  0  0  0  0  0
    5.7688   -0.5653   -0.4654 C   0  0  0  0  0  0  0  0  0  0  0  0
    4.4128   -1.5397   -0.8799 S   0  0  0  0  0  0  0  0  0  0  0  0
    1.2454   -0.1756    1.2423 O   0  0  0  0  0  0  0  0  0  0  0  0
   -3.4189    0.8766    2.8774 S   0  0  0  0  0  0  0  0  0  0  0  0
   -4.8105    0.7406    1.8176 C   0  0  0  0  0  0  0  0  0  0  0  0
   -6.3179    1.3011    2.2585 S   0  0  0  0  0  0  0  0  0  0  0  0
   -7.6787   -0.0620   -3.3574 H   0  0  0  0  0  0  0  0  0  0  0  0
   -5.7707    1.9559   -0.9972 H   0  0  0  0  0  0  0  0  0  0  0  0
   -4.3349    1.2880   -1.7871 H   0  0  0  0  0  0  0  0  0  0  0  0
   -6.3465   -0.3228   -0.1155 H   0  0  0  0  0  0  0  0  0  0  0  0
   -5.0106   -1.0240   -1.0121 H   0  0  0  0  0  0  0  0  0  0  0  0
   -0.6710    0.3394    2.9882 H   0  0  0  0  0  0  0  0  0  0  0  0
   -0.9330   -2.3526    0.1560 H   0  0  0  0  0  0  0  0  0  0  0  0
    1.5391   -2.6579   -0.8675 H   0  0  0  0  0  0  0  0  0  0  0  0
    6.0309    2.0436    1.6940 H   0  0  0  0  0  0  0  0  0  0  0  0
    8.3813    1.9457    0.8773 H   0  0  0  0  0  0  0  0  0  0  0  0
    9.0495    0.2460   -0.7912 H   0  0  0  0  0  0  0  0  0  0  0  0
    7.3834   -1.3815   -1.6702 H   0  0  0  0  0  0  0  0  0  0  0  0
  1  2  2  0
  2  3  1  0
  2  4  1  0
  4  5  1  0
  5  6  1  0
  6  7  1  0
  7  8  2  0
  7  9  1  0
  9 10  2  3
 10 11  1  0
 11 12  2  0
 12 13  1  0
 13 14  2  0
 14 15  1  0
 15 16  2  0
 16 17  1  0
 17 18  2  0
 18 19  1  0
 19 20  2  0
 20 21  1  0
 21 22  2  0
 22 23  1  0
 14 24  1  0
  9 25  1  0
 25 26  1  0
 26 27  2  0
 26  6  1  0
 24 11  1  0
 23 15  1  0
 22 17  1  0
  3 28  1  0
  4 29  1  0
  4 30  1  0
  5 31  1  0
  5 32  1  0
 10 33  1  0
 12 34  1  0
 13 35  1  0
 18 36  1  0
 19 37  1  0
 20 38  1  0
 21 39  1  0
M  END
$$$$
