
     RDKit          3D

 32 33  0  0  0  0  0  0  0  0999 V2000
   -4.5849    0.6007    0.4411 C   0  0  0  0  0  0  0  0  0  0  0  0
   -3.5281    0.6355   -0.6523 C   0  0  0  0  0  0  0  0  0  0  0  0
   -3.0306   -0.7536   -1.0619 C   0  0  0  0  0  0  0  0  0  0  0  0
   -2.2259   -1.4992    0.0102 C   0  0  0  0  0  0  0  0  0  0  0  0
   -0.9473   -0.8555    0.3164 N   0  0  0  0  0  0  0  0  0  0  0  0
   -0.7891   -0.0906    1.4292 C   0  0  0  0  0  0  0  0  0  0  0  0
   -1.5905    0.1819    2.2991 O   0  0  0  0  0  0  0  0  0  0  0  0
    0.6577    0.3880    1.4079 C   0  0  0  0  0  0  0  0  0  0  0  0
    1.1117    1.1234    2.2631 O   0  0  0  0  0  0  0  0  0  0  0  0
    1.2099   -0.1474    0.2708 N   0  0  0  0  0  0  0  0  0  0  0  0
    2.5575    0.1261   -0.1171 C   0  0  0  0  0  0  0  0  0  0  0  0
    3.5471    0.3476    0.8563 C   0  0  0  0  0  0  0  0  0  0  0  0
    4.8715    0.6259    0.5004 C   0  0  0  0  0  0  0  0  0  0  0  0
    5.2325    0.7011   -0.8393 C   0  0  0  0  0  0  0  0  0  0  0  0
    4.2671    0.5074   -1.8205 C   0  0  0  0  0  0  0  0  0  0  0  0
    2.9426    0.2285   -1.4617 C   0  0  0  0  0  0  0  0  0  0  0  0
    0.2554   -0.9455   -0.3740 C   0  0  0  0  0  0  0  0  0  0  0  0
    0.4752   -1.9526   -1.7005 S   0  0  0  0  0  0  0  0  0  0  0  0
   -4.9552    1.6122    0.6367 H   0  0  0  0  0  0  0  0  0  0  0  0
   -4.1860    0.2065    1.3792 H   0  0  0  0  0  0  0  0  0  0  0  0
   -5.4369   -0.0183    0.1425 H   0  0  0  0  0  0  0  0  0  0  0  0
   -2.6906    1.2678   -0.3386 H   0  0  0  0  0  0  0  0  0  0  0  0
   -3.9663    1.1167   -1.5352 H   0  0  0  0  0  0  0  0  0  0  0  0
   -2.4224   -0.6426   -1.9669 H   0  0  0  0  0  0  0  0  0  0  0  0
   -3.8932   -1.3707   -1.3422 H   0  0  0  0  0  0  0  0  0  0  0  0
   -2.0282   -2.5184   -0.3385 H   0  0  0  0  0  0  0  0  0  0  0  0
   -2.8123   -1.5928    0.9303 H   0  0  0  0  0  0  0  0  0  0  0  0
    3.3205    0.2839    1.9186 H   0  0  0  0  0  0  0  0  0  0  0  0
    5.6178    0.7833    1.2755 H   0  0  0  0  0  0  0  0  0  0  0  0
    6.2602    0.9195   -1.1177 H   0  0  0  0  0  0  0  0  0  0  0  0
    4.5380    0.5844   -2.8710 H   0  0  0  0  0  0  0  0  0  0  0  0
    2.2229    0.1469   -2.2703 H   0  0  0  0  0  0  0  0  0  0  0  0
  1  2  1  0
  2  3  1  0
  3  4  1  0
  4  5  1  0
  5  6  1  0
  6  7  2  0
  6  8  1  0
  8  9  2  0
  8 10  1  0
 10 11  1  0
 11 12  2  0
 12 13  1  0
 13 14  2  0
 14 15  1  0
 15 16  2  0
 10 17  1  0
 17 18  2  0
 17  5  1  0
 16 11  1  0
  1 19  1  0
  1 20  1  0
  1 21  1  0
  2 22  1  0
  2 23  1  0
  3 24  1  0
  3 25  1  0
  4 26  1  0
  4 27  1  0
 12 28  1  0
 13 29  1  0
 14 30  1  0
 15 31  1  0
 16 32  1  0
M  END
$$$$
