
     RDKit          3D

 35 37  0  0  0  0  0  0  0  0999 V2000
    7.3608    1.2651   -1.0618 C   0  0  0  0  0  0  0  0  0  0  0  0
    5.9770    1.1490   -0.7275 O   0  0  0  0  0  0  0  0  0  0  0  0
    5.3623    0.0808   -1.2945 C   0  0  0  0  0  0  0  0  0  0  0  0
    5.8904   -0.7418   -2.0259 O   0  0  0  0  0  0  0  0  0  0  0  0
    3.9261    0.0327   -0.9051 C   0  0  0  0  0  0  0  0  0  0  0  0
    3.3521    0.9615   -0.0271 C   0  0  0  0  0  0  0  0  0  0  0  0
    1.9970    0.8693    0.3084 C   0  0  0  0  0  0  0  0  0  0  0  0
    1.2018   -0.1463   -0.2331 C   0  0  0  0  0  0  0  0  0  0  0  0
   -0.2156   -0.2267    0.1390 C   0  0  0  0  0  0  0  0  0  0  0  0
   -1.2614    0.0177   -0.6815 C   0  0  0  0  0  0  0  0  0  0  0  0
   -1.0532    0.4006   -2.0440 C   0  0  0  0  0  0  0  0  0  0  0  0
   -0.8901    0.7065   -3.1521 N   0  0  0  0  0  0  0  0  0  0  0  0
   -2.5880   -0.1043   -0.1324 C   0  0  0  0  0  0  0  0  0  0  0  0
   -2.8777   -0.4138    1.1213 N   0  0  0  0  0  0  0  0  0  0  0  0
   -4.2448   -0.4532    1.3338 C   0  0  0  0  0  0  0  0  0  0  0  0
   -4.8835   -0.7510    2.5545 C   0  0  0  0  0  0  0  0  0  0  0  0
   -6.2805   -0.7547    2.6251 C   0  0  0  0  0  0  0  0  0  0  0  0
   -7.0429   -0.4662    1.4978 C   0  0  0  0  0  0  0  0  0  0  0  0
   -6.4310   -0.1680    0.2763 C   0  0  0  0  0  0  0  0  0  0  0  0
   -5.0274   -0.1677    0.2187 C   0  0  0  0  0  0  0  0  0  0  0  0
   -3.9981    0.1540   -1.1158 S   0  0  0  0  0  0  0  0  0  0  0  0
    1.7750   -1.0792   -1.1038 C   0  0  0  0  0  0  0  0  0  0  0  0
    3.1293   -0.9885   -1.4395 C   0  0  0  0  0  0  0  0  0  0  0  0
    7.9155    0.3905   -0.7077 H   0  0  0  0  0  0  0  0  0  0  0  0
    7.4853    1.3932   -2.1417 H   0  0  0  0  0  0  0  0  0  0  0  0
    7.7569    2.1524   -0.5602 H   0  0  0  0  0  0  0  0  0  0  0  0
    3.9462    1.7632    0.4050 H   0  0  0  0  0  0  0  0  0  0  0  0
    1.5706    1.6008    0.9923 H   0  0  0  0  0  0  0  0  0  0  0  0
   -0.3805   -0.4947    1.1827 H   0  0  0  0  0  0  0  0  0  0  0  0
   -4.2853   -0.9758    3.4319 H   0  0  0  0  0  0  0  0  0  0  0  0
   -6.7707   -0.9850    3.5683 H   0  0  0  0  0  0  0  0  0  0  0  0
   -8.1290   -0.4724    1.5654 H   0  0  0  0  0  0  0  0  0  0  0  0
   -7.0273    0.0568   -0.6031 H   0  0  0  0  0  0  0  0  0  0  0  0
    1.1804   -1.8852   -1.5290 H   0  0  0  0  0  0  0  0  0  0  0  0
    3.5601   -1.7195   -2.1220 H   0  0  0  0  0  0  0  0  0  0  0  0
  1  2  1  0
  2  3  1  0
  3  4  2  0
  3  5  1  0
  5  6  2  0
  6  7  1  0
  7  8  2  0
  8  9  1  0
  9 10  2  3
 10 11  1  0
 11 12  3  0
 10 13  1  0
 13 14  2  0
 14 15  1  0
 15 16  2  0
 16 17  1  0
 17 18  2  0
 18 19  1  0
 19 20  2  0
 20 21  1  0
  8 22  1  0
 22 23  2  0
 23  5  1  0
 21 13  1  0
 20 15  1  0
  1 24  1  0
  1 25  1  0
  1 26  1  0
  6 27  1  0
  7 28  1  0
  9 29  1  0
 16 30  1  0
 17 31  1  0
 18 32  1  0
 19 33  1  0
 22 34  1  0
 23 35  1  0
M  END
$$$$
