
     RDKit          3D

 61 65  0  0  0  0  0  0  0  0999 V2000
   -8.3378    3.2301   -2.3765 C   0  0  0  0  0  0  0  0  0  0  0  0
   -7.3566    2.2683   -1.7750 C   0  0  0  0  0  0  0  0  0  0  0  0
   -6.2810    1.7941   -2.5312 C   0  0  0  0  0  0  0  0  0  0  0  0
   -5.3782    0.8746   -1.9846 C   0  0  0  0  0  0  0  0  0  0  0  0
   -5.5224    0.3964   -0.6690 C   0  0  0  0  0  0  0  0  0  0  0  0
   -4.5717   -0.5666   -0.0741 C   0  0  0  0  0  0  0  0  0  0  0  0
   -3.2290   -0.6009   -0.4053 C   0  0  0  0  0  0  0  0  0  0  0  0
   -2.4107   -1.5421    0.2211 C   0  0  0  0  0  0  0  0  0  0  0  0
   -0.9715   -1.4778   -0.1215 C   0  0  0  0  0  0  0  0  0  0  0  0
   -0.6576   -1.5764   -1.3003 O   0  0  0  0  0  0  0  0  0  0  0  0
   -0.1449   -1.2474    0.9626 N   0  0  0  0  0  0  0  0  0  0  0  0
    1.2571   -1.1027    0.9527 C   0  0  0  0  0  0  0  0  0  0  0  0
    1.8835   -0.8605    2.1851 C   0  0  0  0  0  0  0  0  0  0  0  0
    3.2698   -0.6950    2.2619 C   0  0  0  0  0  0  0  0  0  0  0  0
    4.0338   -0.7606    1.0938 C   0  0  0  0  0  0  0  0  0  0  0  0
    5.7980   -0.5538    1.1810 S   0  0  0  0  0  6  0  0  0  0  0  0
    6.3605   -1.0977   -0.0356 O   0  0  0  0  0  0  0  0  0  0  0  0
    6.2243   -0.9975    2.4924 O   0  0  0  0  0  0  0  0  0  0  0  0
    5.8990    1.1449    1.1911 N   0  0  0  0  0  0  0  0  0  0  0  0
    7.0018    1.6254    0.3652 C   0  0  0  0  0  0  0  0  0  0  0  0
    8.2414    1.8970    0.8482 O   0  0  0  0  0  0  0  0  0  0  0  0
    9.0423    2.3659   -0.1759 N   0  0  0  0  0  0  0  0  0  0  0  0
    8.2628    2.3809   -1.2672 C   0  0  0  0  0  0  0  0  0  0  0  0
    8.8149    2.8349   -2.5650 C   0  0  0  0  0  0  0  0  0  0  0  0
    6.9423    1.9373   -0.9759 C   0  0  0  0  0  0  0  0  0  0  0  0
    5.7937    1.8231   -1.9013 C   0  0  0  0  0  0  0  0  0  0  0  0
    3.4269   -1.0190   -0.1365 C   0  0  0  0  0  0  0  0  0  0  0  0
    2.0399   -1.1874   -0.2032 C   0  0  0  0  0  0  0  0  0  0  0  0
   -2.9363   -2.4774    1.1381 C   0  0  0  0  0  0  0  0  0  0  0  0
   -2.1983   -3.5191    1.7601 C   0  0  0  0  0  0  0  0  0  0  0  0
   -2.8040   -4.3848    2.6684 C   0  0  0  0  0  0  0  0  0  0  0  0
   -4.1509   -4.2311    2.9621 C   0  0  0  0  0  0  0  0  0  0  0  0
   -4.8847   -3.2203    2.3349 C   0  0  0  0  0  0  0  0  0  0  0  0
   -4.3071   -2.3481    1.4227 C   0  0  0  0  0  0  0  0  0  0  0  0
   -5.0878   -1.4153    0.8501 N   0  0  0  0  0  0  0  0  0  0  0  0
   -6.6248    0.8654    0.0659 C   0  0  0  0  0  0  0  0  0  0  0  0
   -7.5300    1.7861   -0.4753 C   0  0  0  0  0  0  0  0  0  0  0  0
   -8.9081    3.7536   -1.6013 H   0  0  0  0  0  0  0  0  0  0  0  0
   -9.0401    2.6934   -3.0237 H   0  0  0  0  0  0  0  0  0  0  0  0
   -7.8159    3.9909   -2.9676 H   0  0  0  0  0  0  0  0  0  0  0  0
   -6.1389    2.1307   -3.5571 H   0  0  0  0  0  0  0  0  0  0  0  0
   -4.5679    0.5190   -2.6201 H   0  0  0  0  0  0  0  0  0  0  0  0
   -2.8028    0.1000   -1.1164 H   0  0  0  0  0  0  0  0  0  0  0  0
   -0.5962   -1.1421    1.8651 H   0  0  0  0  0  0  0  0  0  0  0  0
    1.3018   -0.7997    3.1030 H   0  0  0  0  0  0  0  0  0  0  0  0
    3.7383   -0.5158    3.2271 H   0  0  0  0  0  0  0  0  0  0  0  0
    6.0757    1.4104    2.1638 H   0  0  0  0  0  0  0  0  0  0  0  0
    9.9111    2.8034   -2.5675 H   0  0  0  0  0  0  0  0  0  0  0  0
    8.5005    3.8633   -2.7687 H   0  0  0  0  0  0  0  0  0  0  0  0
    8.4610    2.1991   -3.3832 H   0  0  0  0  0  0  0  0  0  0  0  0
    4.8398    1.8532   -1.3643 H   0  0  0  0  0  0  0  0  0  0  0  0
    5.8456    0.8802   -2.4550 H   0  0  0  0  0  0  0  0  0  0  0  0
    5.7911    2.6459   -2.6232 H   0  0  0  0  0  0  0  0  0  0  0  0
    4.0170   -1.0931   -1.0490 H   0  0  0  0  0  0  0  0  0  0  0  0
    1.6004   -1.3841   -1.1779 H   0  0  0  0  0  0  0  0  0  0  0  0
   -1.1476   -3.6793    1.5240 H   0  0  0  0  0  0  0  0  0  0  0  0
   -2.2284   -5.1811    3.1354 H   0  0  0  0  0  0  0  0  0  0  0  0
   -4.6410   -4.9003    3.6653 H   0  0  0  0  0  0  0  0  0  0  0  0
   -5.9446   -3.1168    2.5589 H   0  0  0  0  0  0  0  0  0  0  0  0
   -6.7867    0.5092    1.0826 H   0  0  0  0  0  0  0  0  0  0  0  0
   -8.3708    2.1171    0.1292 H   0  0  0  0  0  0  0  0  0  0  0  0
  1  2  1  0
  2  3  2  0
  3  4  1  0
  4  5  2  0
  5  6  1  0
  6  7  2  0
  7  8  1  0
  8  9  1  0
  9 10  2  0
  9 11  1  0
 11 12  1  0
 12 13  2  0
 13 14  1  0
 14 15  2  0
 15 16  1  0
 16 17  2  0
 16 18  2  0
 16 19  1  0
 19 20  1  0
 20 21  1  0
 21 22  1  0
 22 23  2  0
 23 24  1  0
 23 25  1  0
 25 26  1  0
 15 27  1  0
 27 28  2  0
  8 29  2  0
 29 30  1  0
 30 31  2  0
 31 32  1  0
 32 33  2  0
 33 34  1  0
 34 35  2  0
  5 36  1  0
 36 37  2  0
 37  2  1  0
 35  6  1  0
 28 12  1  0
 34 29  1  0
 25 20  2  0
  1 38  1  0
  1 39  1  0
  1 40  1  0
  3 41  1  0
  4 42  1  0
  7 43  1  0
 11 44  1  0
 13 45  1  0
 14 46  1  0
 19 47  1  0
 24 48  1  0
 24 49  1  0
 24 50  1  0
 26 51  1  0
 26 52  1  0
 26 53  1  0
 27 54  1  0
 28 55  1  0
 30 56  1  0
 31 57  1  0
 32 58  1  0
 33 59  1  0
 36 60  1  0
 37 61  1  0
M  END
$$$$
