
     RDKit          3D

 72 77  0  0  0  0  0  0  0  0999 V2000
   -8.5713   -0.5490    3.4199 C   0  0  0  0  0  0  0  0  0  0  0  0
   -7.1129   -0.5210    3.0700 C   0  0  0  0  0  0  0  0  0  0  0  0
   -6.1481   -0.3226    4.0568 C   0  0  0  0  0  0  0  0  0  0  0  0
   -4.7922   -0.3207    3.7260 C   0  0  0  0  0  0  0  0  0  0  0  0
   -4.3658   -0.5330    2.4044 C   0  0  0  0  0  0  0  0  0  0  0  0
   -2.8908   -0.4977    2.1143 C   0  0  0  0  0  0  0  0  0  0  0  0
   -5.3309   -0.7481    1.3985 C   0  0  0  0  0  0  0  0  0  0  0  0
   -4.9724   -0.9780   -0.0543 C   0  0  0  0  0  0  0  0  0  0  0  0
   -5.1331    0.2213   -0.8539 N   0  0  0  0  0  0  0  0  0  0  0  0
   -6.3559    0.5893   -1.3171 N   0  0  0  0  0  0  0  0  0  0  0  0
   -6.1975    1.6760   -2.0720 N   0  0  0  0  0  0  0  0  0  0  0  0
   -4.8675    1.9549   -2.1022 C   0  0  0  0  0  0  0  0  0  0  0  0
   -4.1397    2.9861   -2.7895 C   0  0  0  0  0  0  0  0  0  0  0  0
   -4.6247    3.8683   -3.4887 O   0  0  0  0  0  0  0  0  0  0  0  0
   -2.7695    2.8823   -2.5847 N   0  0  0  0  0  0  0  0  0  0  0  0
   -2.1654    1.9031   -1.7982 C   0  0  0  0  0  0  0  0  0  0  0  0
   -0.6421    1.9750   -1.7622 C   0  0  0  0  0  0  0  0  0  0  0  0
   -0.0403    1.1907   -0.5884 C   0  0  0  0  0  0  0  0  0  0  0  0
    0.1583   -0.2840   -0.9220 C   0  0  0  0  0  0  0  0  0  0  0  0
    0.9959   -0.4612   -2.1312 N   0  0  0  0  0  0  0  0  0  0  0  0
    2.2161   -1.6386   -2.0850 S   0  0  0  0  0  6  0  0  0  0  0  0
    2.7657   -1.7800   -3.4166 O   0  0  0  0  0  0  0  0  0  0  0  0
    1.7173   -2.7827   -1.3520 O   0  0  0  0  0  0  0  0  0  0  0  0
    3.4736   -0.8681   -1.0797 C   0  0  0  0  0  0  0  0  0  0  0  0
    3.4963   -1.0988    0.3009 C   0  0  0  0  0  0  0  0  0  0  0  0
    4.4954   -0.5154    1.0809 C   0  0  0  0  0  0  0  0  0  0  0  0
    5.4797    0.2686    0.4679 C   0  0  0  0  0  0  0  0  0  0  0  0
    6.7483    1.0303    1.4582 S   0  0  0  0  0  6  0  0  0  0  0  0
    6.3236    0.9774    2.8400 O   0  0  0  0  0  0  0  0  0  0  0  0
    7.0993    2.2784    0.8155 O   0  0  0  0  0  0  0  0  0  0  0  0
    8.0566   -0.0076    1.2568 N   0  0  0  0  0  0  0  0  0  0  0  0
    7.8811   -1.4248    1.5444 C   0  0  0  0  0  0  0  0  0  0  0  0
    8.9734   -2.4057    1.2249 C   0  0  0  0  0  0  0  0  0  0  0  0
    7.6912   -2.4306    0.4454 C   0  0  0  0  0  0  0  0  0  0  0  0
    5.4642    0.4925   -0.9139 C   0  0  0  0  0  0  0  0  0  0  0  0
    4.4637   -0.0898   -1.6930 C   0  0  0  0  0  0  0  0  0  0  0  0
    1.2244    0.7358   -2.9622 C   0  0  0  0  0  0  0  0  0  0  0  0
   -0.0829    1.5052   -3.1158 C   0  0  0  0  0  0  0  0  0  0  0  0
   -2.8203    0.9653   -1.1711 N   0  0  0  0  0  0  0  0  0  0  0  0
   -4.1620    1.0438   -1.3529 C   0  0  0  0  0  0  0  0  0  0  0  0
   -6.6964   -0.7439    1.7528 C   0  0  0  0  0  0  0  0  0  0  0  0
   -8.8838   -1.5748    3.6388 H   0  0  0  0  0  0  0  0  0  0  0  0
   -8.7772    0.0771    4.2946 H   0  0  0  0  0  0  0  0  0  0  0  0
   -9.1773   -0.1614    2.5942 H   0  0  0  0  0  0  0  0  0  0  0  0
   -6.4442   -0.1614    5.0907 H   0  0  0  0  0  0  0  0  0  0  0  0
   -4.0648   -0.1505    4.5177 H   0  0  0  0  0  0  0  0  0  0  0  0
   -2.3013   -0.4494    3.0364 H   0  0  0  0  0  0  0  0  0  0  0  0
   -2.5738   -1.4005    1.5831 H   0  0  0  0  0  0  0  0  0  0  0  0
   -2.6481    0.3880    1.5217 H   0  0  0  0  0  0  0  0  0  0  0  0
   -3.9470   -1.3377   -0.1780 H   0  0  0  0  0  0  0  0  0  0  0  0
   -5.6194   -1.7516   -0.4868 H   0  0  0  0  0  0  0  0  0  0  0  0
   -2.2215    3.5884   -3.0535 H   0  0  0  0  0  0  0  0  0  0  0  0
   -0.3796    3.0326   -1.6220 H   0  0  0  0  0  0  0  0  0  0  0  0
   -0.6578    1.2909    0.3113 H   0  0  0  0  0  0  0  0  0  0  0  0
    0.9348    1.6282   -0.3350 H   0  0  0  0  0  0  0  0  0  0  0  0
    0.6034   -0.7765   -0.0528 H   0  0  0  0  0  0  0  0  0  0  0  0
   -0.8019   -0.7777   -1.1052 H   0  0  0  0  0  0  0  0  0  0  0  0
    2.7461   -1.7305    0.7730 H   0  0  0  0  0  0  0  0  0  0  0  0
    4.5072   -0.6826    2.1566 H   0  0  0  0  0  0  0  0  0  0  0  0
    8.7022    0.2736    0.5203 H   0  0  0  0  0  0  0  0  0  0  0  0
    7.3546   -1.5964    2.4824 H   0  0  0  0  0  0  0  0  0  0  0  0
    9.8668   -2.0463    0.7282 H   0  0  0  0  0  0  0  0  0  0  0  0
    9.1548   -3.2060    1.9340 H   0  0  0  0  0  0  0  0  0  0  0  0
    7.7194   -2.0939   -0.5840 H   0  0  0  0  0  0  0  0  0  0  0  0
    7.0040   -3.2506    0.6234 H   0  0  0  0  0  0  0  0  0  0  0  0
    6.2263    1.1104   -1.3852 H   0  0  0  0  0  0  0  0  0  0  0  0
    4.4617    0.0636   -2.7706 H   0  0  0  0  0  0  0  0  0  0  0  0
    1.5675    0.4396   -3.9590 H   0  0  0  0  0  0  0  0  0  0  0  0
    1.9909    1.3760   -2.5132 H   0  0  0  0  0  0  0  0  0  0  0  0
   -0.8115    0.8674   -3.6343 H   0  0  0  0  0  0  0  0  0  0  0  0
    0.0783    2.3748   -3.7647 H   0  0  0  0  0  0  0  0  0  0  0  0
   -7.4510   -0.9056    0.9819 H   0  0  0  0  0  0  0  0  0  0  0  0
  1  2  1  0
  2  3  2  0
  3  4  1  0
  4  5  2  0
  5  6  1  0
  5  7  1  0
  7  8  1  0
  8  9  1  0
  9 10  1  0
 10 11  2  0
 11 12  1  0
 12 13  1  0
 13 14  2  0
 13 15  1  0
 15 16  1  0
 16 17  1  0
 17 18  1  0
 18 19  1  0
 19 20  1  0
 20 21  1  0
 21 22  2  0
 21 23  2  0
 21 24  1  0
 24 25  2  0
 25 26  1  0
 26 27  2  0
 27 28  1  0
 28 29  2  0
 28 30  2  0
 28 31  1  0
 31 32  1  0
 32 33  1  0
 33 34  1  0
 27 35  1  0
 35 36  2  0
 20 37  1  0
 37 38  1  0
 16 39  2  0
 39 40  1  0
  7 41  2  0
 41  2  1  0
 40  9  1  0
 40 12  2  0
 38 17  1  0
 36 24  1  0
 34 32  1  0
  1 42  1  0
  1 43  1  0
  1 44  1  0
  3 45  1  0
  4 46  1  0
  6 47  1  0
  6 48  1  0
  6 49  1  0
  8 50  1  0
  8 51  1  0
 15 52  1  0
 17 53  1  0
 18 54  1  0
 18 55  1  0
 19 56  1  0
 19 57  1  0
 25 58  1  0
 26 59  1  0
 31 60  1  0
 32 61  1  0
 33 62  1  0
 33 63  1  0
 34 64  1  0
 34 65  1  0
 35 66  1  0
 36 67  1  0
 37 68  1  0
 37 69  1  0
 38 70  1  0
 38 71  1  0
 41 72  1  0
M  END
$$$$
