
     RDKit          3D

 46 49  0  0  0  0  0  0  0  0999 V2000
   -6.0740    1.9201   -0.5109 C   0  0  0  0  0  0  0  0  0  0  0  0
   -4.8128    2.1098   -1.3352 C   0  0  0  0  0  0  0  0  0  0  0  0
   -3.6595    1.7226   -0.5876 O   0  0  0  0  0  0  0  0  0  0  0  0
   -3.2140    0.4291   -0.6877 C   0  0  0  0  0  0  0  0  0  0  0  0
   -3.8817   -0.6256   -1.3033 C   0  0  0  0  0  0  0  0  0  0  0  0
   -3.3101   -1.8984   -1.3114 C   0  0  0  0  0  0  0  0  0  0  0  0
   -2.0681   -2.1185   -0.7087 C   0  0  0  0  0  0  0  0  0  0  0  0
   -1.3607   -1.0752   -0.0814 C   0  0  0  0  0  0  0  0  0  0  0  0
   -0.0485   -1.3354    0.5250 C   0  0  0  0  0  0  0  0  0  0  0  0
    0.0901   -2.4903    1.2202 N   0  0  0  0  0  0  0  0  0  0  0  0
    1.3179   -2.7278    1.7474 C   0  0  0  0  0  0  0  0  0  0  0  0
    1.4861   -3.9889    2.5215 C   0  0  0  0  0  0  0  0  0  0  0  0
    0.3639   -4.7638    2.6406 N   0  0  0  0  0  0  0  0  0  0  0  0
    2.5540   -4.3149    3.0245 O   0  0  0  0  0  0  0  0  0  0  0  0
    2.3578   -1.8625    1.5808 C   0  0  0  0  0  0  0  0  0  0  0  0
    3.6800   -1.8863    1.9954 N   0  0  0  0  0  0  0  0  0  0  0  0
    4.3173   -0.7298    1.5243 C   0  0  0  0  0  0  0  0  0  0  0  0
    5.4912   -0.4787    1.7423 O   0  0  0  0  0  0  0  0  0  0  0  0
    3.3312    0.0140    0.8068 N   0  0  0  0  0  0  0  0  0  0  0  0
    3.5037    1.2655    0.1545 C   0  0  0  0  0  0  0  0  0  0  0  0
    4.7916    1.8028   -0.0215 C   0  0  0  0  0  0  0  0  0  0  0  0
    5.0000    3.0333   -0.6582 C   0  0  0  0  0  0  0  0  0  0  0  0
    3.9182    3.7632   -1.1336 C   0  0  0  0  0  0  0  0  0  0  0  0
    2.6357    3.2571   -0.9652 C   0  0  0  0  0  0  0  0  0  0  0  0
    1.2851    4.1610   -1.5385 Cl  0  0  0  0  0  0  0  0  0  0  0  0
    2.4279    2.0275   -0.3301 C   0  0  0  0  0  0  0  0  0  0  0  0
    2.1204   -0.7224    0.8540 C   0  0  0  0  0  0  0  0  0  0  0  0
    0.9409   -0.4473    0.2953 N   0  0  0  0  0  0  0  0  0  0  0  0
   -1.9691    0.1906   -0.0751 C   0  0  0  0  0  0  0  0  0  0  0  0
   -1.3630    1.2451    0.5688 O   0  0  0  0  0  0  0  0  0  0  0  0
   -6.2306    0.8682   -0.2545 H   0  0  0  0  0  0  0  0  0  0  0  0
   -5.9994    2.4683    0.4342 H   0  0  0  0  0  0  0  0  0  0  0  0
   -6.9505    2.2799   -1.0572 H   0  0  0  0  0  0  0  0  0  0  0  0
   -4.8705    1.6137   -2.3103 H   0  0  0  0  0  0  0  0  0  0  0  0
   -4.6973    3.1786   -1.5492 H   0  0  0  0  0  0  0  0  0  0  0  0
   -4.8508   -0.5004   -1.7734 H   0  0  0  0  0  0  0  0  0  0  0  0
   -3.8319   -2.7240   -1.7901 H   0  0  0  0  0  0  0  0  0  0  0  0
   -1.6422   -3.1206   -0.7394 H   0  0  0  0  0  0  0  0  0  0  0  0
   -0.5209   -4.4428    2.2636 H   0  0  0  0  0  0  0  0  0  0  0  0
    0.4004   -5.6077    3.1950 H   0  0  0  0  0  0  0  0  0  0  0  0
    4.1176   -2.6166    2.5448 H   0  0  0  0  0  0  0  0  0  0  0  0
    5.6787    1.2741    0.3175 H   0  0  0  0  0  0  0  0  0  0  0  0
    6.0116    3.4134   -0.7791 H   0  0  0  0  0  0  0  0  0  0  0  0
    4.0793    4.7178   -1.6259 H   0  0  0  0  0  0  0  0  0  0  0  0
    1.3992    1.7073   -0.2082 H   0  0  0  0  0  0  0  0  0  0  0  0
   -1.9445    2.0148    0.4114 H   0  0  0  0  0  0  0  0  0  0  0  0
  1  2  1  0
  2  3  1  0
  3  4  1  0
  4  5  2  0
  5  6  1  0
  6  7  2  0
  7  8  1  0
  8  9  1  0
  9 10  2  0
 10 11  1  0
 11 12  1  0
 12 13  1  0
 12 14  2  0
 11 15  2  0
 15 16  1  0
 16 17  1  0
 17 18  2  0
 17 19  1  0
 19 20  1  0
 20 21  2  0
 21 22  1  0
 22 23  2  0
 23 24  1  0
 24 25  1  0
 24 26  2  0
 19 27  1  0
 27 28  2  0
  8 29  2  0
 29 30  1  0
 29  4  1  0
 28  9  1  0
 27 15  1  0
 26 20  1  0
  1 31  1  0
  1 32  1  0
  1 33  1  0
  2 34  1  0
  2 35  1  0
  5 36  1  0
  6 37  1  0
  7 38  1  0
 13 39  1  0
 13 40  1  0
 16 41  1  0
 21 42  1  0
 22 43  1  0
 23 44  1  0
 26 45  1  0
 30 46  1  0
M  END
$$$$
