
     RDKit          3D

 60 65  0  0  0  0  0  0  0  0999 V2000
    3.6892   -0.4578   -5.0217 O   0  0  0  0  0  0  0  0  0  0  0  0
    3.5713   -0.6299   -3.8133 C   0  0  0  0  0  0  0  0  0  0  0  0
    2.3779   -1.0575   -3.2421 N   0  0  0  0  0  0  0  0  0  0  0  0
    2.2117   -1.3306   -1.8848 C   0  0  0  0  0  0  0  0  0  0  0  0
    0.8083   -1.7623   -1.4915 C   0  0  0  0  0  0  0  0  0  0  0  0
   -0.0486   -0.5078   -1.2364 C   0  0  0  0  0  0  0  0  0  0  0  0
   -0.8640   -0.6035    0.0515 C   0  0  0  0  0  0  0  0  0  0  0  0
   -1.5441   -1.9180    0.0644 N   0  0  0  0  0  0  0  0  0  0  0  0
   -2.8641   -2.0633    1.1464 S   0  0  0  0  0  6  0  0  0  0  0  0
   -2.4087   -1.5977    2.4391 O   0  0  0  0  0  0  0  0  0  0  0  0
   -3.4328   -3.3838    0.9779 O   0  0  0  0  0  0  0  0  0  0  0  0
   -4.0380   -0.9012    0.5005 C   0  0  0  0  0  0  0  0  0  0  0  0
   -4.5986   -1.1325   -0.7609 C   0  0  0  0  0  0  0  0  0  0  0  0
   -5.5205   -0.2223   -1.2800 C   0  0  0  0  0  0  0  0  0  0  0  0
   -5.8750    0.9054   -0.5399 C   0  0  0  0  0  0  0  0  0  0  0  0
   -5.3364    1.1096    0.7365 C   0  0  0  0  0  0  0  0  0  0  0  0
   -4.4060    0.2136    1.2576 C   0  0  0  0  0  0  0  0  0  0  0  0
   -5.6729    2.1756    1.5293 O   0  0  0  0  0  0  0  0  0  0  0  0
   -6.8619    2.8215    1.0606 C   0  0  0  0  0  0  0  0  0  0  0  0
   -6.8006    3.0272   -0.4428 C   0  0  0  0  0  0  0  0  0  0  0  0
   -6.7667    1.7681   -1.1244 O   0  0  0  0  0  0  0  0  0  0  0  0
   -0.6006   -3.0718    0.1495 C   0  0  0  0  0  0  0  0  0  0  0  0
    0.8153   -2.6953   -0.2789 C   0  0  0  0  0  0  0  0  0  0  0  0
    3.1447   -1.1686   -0.9872 N   0  0  0  0  0  0  0  0  0  0  0  0
    4.3061   -0.7091   -1.5141 C   0  0  0  0  0  0  0  0  0  0  0  0
    4.6000   -0.4327   -2.8278 C   0  0  0  0  0  0  0  0  0  0  0  0
    5.8789    0.0158   -2.9480 N   0  0  0  0  0  0  0  0  0  0  0  0
    6.4048    0.0483   -1.7227 N   0  0  0  0  0  0  0  0  0  0  0  0
    5.4519   -0.3681   -0.8541 N   0  0  0  0  0  0  0  0  0  0  0  0
    5.7144   -0.4284    0.5677 C   0  0  0  0  0  0  0  0  0  0  0  0
    5.0792    0.7299    1.2952 C   0  0  0  0  0  0  0  0  0  0  0  0
    5.7057    1.9867    1.3245 C   0  0  0  0  0  0  0  0  0  0  0  0
    5.1065    3.0649    1.9810 C   0  0  0  0  0  0  0  0  0  0  0  0
    3.8739    2.9001    2.6083 C   0  0  0  0  0  0  0  0  0  0  0  0
    3.2482    1.6606    2.5716 C   0  0  0  0  0  0  0  0  0  0  0  0
    2.0578    1.5034    3.1621 F   0  0  0  0  0  0  0  0  0  0  0  0
    3.8357    0.5790    1.9246 C   0  0  0  0  0  0  0  0  0  0  0  0
    1.6282   -1.2122   -3.8999 H   0  0  0  0  0  0  0  0  0  0  0  0
    0.3745   -2.3082   -2.3403 H   0  0  0  0  0  0  0  0  0  0  0  0
   -0.7336   -0.3816   -2.0848 H   0  0  0  0  0  0  0  0  0  0  0  0
    0.5601    0.4036   -1.2033 H   0  0  0  0  0  0  0  0  0  0  0  0
   -1.5865    0.2173    0.0594 H   0  0  0  0  0  0  0  0  0  0  0  0
   -0.2239   -0.4921    0.9331 H   0  0  0  0  0  0  0  0  0  0  0  0
   -4.3213   -2.0135   -1.3351 H   0  0  0  0  0  0  0  0  0  0  0  0
   -5.9599   -0.3872   -2.2606 H   0  0  0  0  0  0  0  0  0  0  0  0
   -3.9874    0.3839    2.2465 H   0  0  0  0  0  0  0  0  0  0  0  0
   -7.7275    2.2118    1.3478 H   0  0  0  0  0  0  0  0  0  0  0  0
   -6.9387    3.7856    1.5728 H   0  0  0  0  0  0  0  0  0  0  0  0
   -7.6866    3.5681   -0.7893 H   0  0  0  0  0  0  0  0  0  0  0  0
   -5.9132    3.6042   -0.7315 H   0  0  0  0  0  0  0  0  0  0  0  0
   -0.9817   -3.8564   -0.5136 H   0  0  0  0  0  0  0  0  0  0  0  0
   -0.5628   -3.4780    1.1665 H   0  0  0  0  0  0  0  0  0  0  0  0
    1.3290   -2.2180    0.5662 H   0  0  0  0  0  0  0  0  0  0  0  0
    1.3874   -3.6050   -0.4982 H   0  0  0  0  0  0  0  0  0  0  0  0
    6.7992   -0.4316    0.7218 H   0  0  0  0  0  0  0  0  0  0  0  0
    5.3350   -1.3886    0.9363 H   0  0  0  0  0  0  0  0  0  0  0  0
    6.6635    2.1376    0.8267 H   0  0  0  0  0  0  0  0  0  0  0  0
    5.5997    4.0339    1.9971 H   0  0  0  0  0  0  0  0  0  0  0  0
    3.3966    3.7286    3.1206 H   0  0  0  0  0  0  0  0  0  0  0  0
    3.3078   -0.3699    1.9096 H   0  0  0  0  0  0  0  0  0  0  0  0
  1  2  2  0
  2  3  1  0
  3  4  1  0
  4  5  1  0
  5  6  1  0
  6  7  1  0
  7  8  1  0
  8  9  1  0
  9 10  2  0
  9 11  2  0
  9 12  1  0
 12 13  2  0
 13 14  1  0
 14 15  2  0
 15 16  1  0
 16 17  2  0
 16 18  1  0
 18 19  1  0
 19 20  1  0
 20 21  1  0
  8 22  1  0
 22 23  1  0
  4 24  2  0
 24 25  1  0
 25 26  2  0
 26 27  1  0
 27 28  2  0
 28 29  1  0
 29 30  1  0
 30 31  1  0
 31 32  2  0
 32 33  1  0
 33 34  2  0
 34 35  1  0
 35 36  1  0
 35 37  2  0
 26  2  1  0
 37 31  1  0
 23  5  1  0
 29 25  1  0
 17 12  1  0
 21 15  1  0
  3 38  1  0
  5 39  1  0
  6 40  1  0
  6 41  1  0
  7 42  1  0
  7 43  1  0
 13 44  1  0
 14 45  1  0
 17 46  1  0
 19 47  1  0
 19 48  1  0
 20 49  1  0
 20 50  1  0
 22 51  1  0
 22 52  1  0
 23 53  1  0
 23 54  1  0
 30 55  1  0
 30 56  1  0
 32 57  1  0
 33 58  1  0
 34 59  1  0
 37 60  1  0
M  END
$$$$
