
     RDKit          3D

 55 58  0  0  0  0  0  0  0  0999 V2000
    2.7845   -2.6881    0.1547 O   0  0  0  0  0  0  0  0  0  0  0  0
    2.3074   -1.8072    0.8760 C   0  0  0  0  0  0  0  0  0  0  0  0
    1.4352   -2.1084    2.0776 C   0  0  0  0  0  0  0  0  0  0  0  0
   -0.2643   -2.4610    1.5405 S   0  0  0  0  0  0  0  0  0  0  0  0
   -0.8160   -0.8661    1.1697 C   0  0  0  0  0  0  0  0  0  0  0  0
   -0.2637    0.2441    1.5968 N   0  0  0  0  0  0  0  0  0  0  0  0
   -0.9562    1.2889    1.0473 N   0  0  0  0  0  0  0  0  0  0  0  0
   -1.8981    0.8003    0.2580 C   0  0  0  0  0  0  0  0  0  0  0  0
   -2.8255    1.6231   -0.5128 C   0  0  0  0  0  0  0  0  0  0  0  0
   -2.9562    1.4573   -1.8998 C   0  0  0  0  0  0  0  0  0  0  0  0
   -3.8528    2.2450   -2.6279 C   0  0  0  0  0  0  0  0  0  0  0  0
   -4.6193    3.2147   -1.9799 C   0  0  0  0  0  0  0  0  0  0  0  0
   -4.4890    3.3996   -0.6057 C   0  0  0  0  0  0  0  0  0  0  0  0
   -3.5850    2.6216    0.1161 C   0  0  0  0  0  0  0  0  0  0  0  0
   -3.4957    2.8765    1.4574 O   0  0  0  0  0  0  0  0  0  0  0  0
   -1.8927   -0.5778    0.3728 N   0  0  0  0  0  0  0  0  0  0  0  0
   -2.8339   -1.5174   -0.2104 C   0  0  0  0  0  0  0  0  0  0  0  0
   -3.9126   -1.9248    0.7638 C   0  0  0  0  0  0  0  0  0  0  0  0
   -3.8947   -3.1975    1.3538 C   0  0  0  0  0  0  0  0  0  0  0  0
   -4.8872   -3.5760    2.2595 C   0  0  0  0  0  0  0  0  0  0  0  0
   -5.9115   -2.6896    2.5837 C   0  0  0  0  0  0  0  0  0  0  0  0
   -5.9466   -1.4260    2.0005 C   0  0  0  0  0  0  0  0  0  0  0  0
   -4.9559   -1.0457    1.0942 C   0  0  0  0  0  0  0  0  0  0  0  0
    2.5133   -0.4656    0.6219 N   0  0  0  0  0  0  0  0  0  0  0  0
    3.5241   -0.1331   -0.3002 N   0  0  0  0  0  0  0  0  0  0  0  0
    4.5260    0.7077    0.1573 C   0  0  0  0  0  0  0  0  0  0  0  0
    4.4525    1.3220    1.2228 O   0  0  0  0  0  0  0  0  0  0  0  0
    5.7603    0.8100   -0.6704 C   0  0  0  0  0  0  0  0  0  0  0  0
    5.7731    0.4314   -2.0231 C   0  0  0  0  0  0  0  0  0  0  0  0
    6.9554    0.5125   -2.7659 C   0  0  0  0  0  0  0  0  0  0  0  0
    8.1281    0.9771   -2.1692 C   0  0  0  0  0  0  0  0  0  0  0  0
    8.1209    1.3760   -0.8334 C   0  0  0  0  0  0  0  0  0  0  0  0
    6.9416    1.3035   -0.0918 C   0  0  0  0  0  0  0  0  0  0  0  0
    7.0209    1.7367    1.2076 O   0  0  0  0  0  0  0  0  0  0  0  0
    1.8424   -2.9960    2.5732 H   0  0  0  0  0  0  0  0  0  0  0  0
    1.4652   -1.2919    2.8063 H   0  0  0  0  0  0  0  0  0  0  0  0
   -2.3469    0.7293   -2.4314 H   0  0  0  0  0  0  0  0  0  0  0  0
   -3.9404    2.1148   -3.7038 H   0  0  0  0  0  0  0  0  0  0  0  0
   -5.3122    3.8316   -2.5472 H   0  0  0  0  0  0  0  0  0  0  0  0
   -5.0751    4.1611   -0.0975 H   0  0  0  0  0  0  0  0  0  0  0  0
   -2.6566    2.4942    1.7878 H   0  0  0  0  0  0  0  0  0  0  0  0
   -2.2715   -2.3856   -0.5726 H   0  0  0  0  0  0  0  0  0  0  0  0
   -3.2930   -1.0748   -1.0979 H   0  0  0  0  0  0  0  0  0  0  0  0
   -3.1068   -3.9097    1.1165 H   0  0  0  0  0  0  0  0  0  0  0  0
   -4.8610   -4.5647    2.7121 H   0  0  0  0  0  0  0  0  0  0  0  0
   -6.6829   -2.9840    3.2899 H   0  0  0  0  0  0  0  0  0  0  0  0
   -6.7470   -0.7342    2.2510 H   0  0  0  0  0  0  0  0  0  0  0  0
   -5.0153   -0.0548    0.6502 H   0  0  0  0  0  0  0  0  0  0  0  0
    2.2307    0.2670    1.2774 H   0  0  0  0  0  0  0  0  0  0  0  0
    3.7620   -0.8957   -0.9350 H   0  0  0  0  0  0  0  0  0  0  0  0
    4.8726    0.0892   -2.5271 H   0  0  0  0  0  0  0  0  0  0  0  0
    6.9616    0.2173   -3.8132 H   0  0  0  0  0  0  0  0  0  0  0  0
    9.0470    1.0390   -2.7470 H   0  0  0  0  0  0  0  0  0  0  0  0
    9.0301    1.7504   -0.3679 H   0  0  0  0  0  0  0  0  0  0  0  0
    6.1104    1.7338    1.5838 H   0  0  0  0  0  0  0  0  0  0  0  0
  1  2  2  0
  2  3  1  0
  3  4  1  0
  4  5  1  0
  5  6  2  0
  6  7  1  0
  7  8  2  0
  8  9  1  0
  9 10  2  0
 10 11  1  0
 11 12  2  0
 12 13  1  0
 13 14  2  0
 14 15  1  0
  8 16  1  0
 16 17  1  0
 17 18  1  0
 18 19  2  0
 19 20  1  0
 20 21  2  0
 21 22  1  0
 22 23  2  0
  2 24  1  0
 24 25  1  0
 25 26  1  0
 26 27  2  0
 26 28  1  0
 28 29  2  0
 29 30  1  0
 30 31  2  0
 31 32  1  0
 32 33  2  0
 33 34  1  0
 16  5  1  0
 23 18  1  0
 33 28  1  0
 14  9  1  0
  3 35  1  0
  3 36  1  0
 10 37  1  0
 11 38  1  0
 12 39  1  0
 13 40  1  0
 15 41  1  0
 17 42  1  0
 17 43  1  0
 19 44  1  0
 20 45  1  0
 21 46  1  0
 22 47  1  0
 23 48  1  0
 24 49  1  0
 25 50  1  0
 29 51  1  0
 30 52  1  0
 31 53  1  0
 32 54  1  0
 34 55  1  0
M  END
$$$$
