
     RDKit          3D

 67 72  0  0  0  0  0  0  0  0999 V2000
   -3.9354    4.9661   -1.4630 C   0  0  0  0  0  0  0  0  0  0  0  0
   -3.2204    3.6856   -1.7546 C   0  0  0  0  0  0  0  0  0  0  0  0
   -3.1545    3.1706   -3.0583 C   0  0  0  0  0  0  0  0  0  0  0  0
   -2.4749    1.9694   -3.3362 C   0  0  0  0  0  0  0  0  0  0  0  0
   -1.8455    1.2509   -2.3181 C   0  0  0  0  0  0  0  0  0  0  0  0
   -1.9127    1.7516   -1.0279 C   0  0  0  0  0  0  0  0  0  0  0  0
   -2.5841    2.9529   -0.7647 C   0  0  0  0  0  0  0  0  0  0  0  0
   -2.4891    3.2685    0.5894 N   0  0  0  0  0  0  0  0  0  0  0  0
   -1.7602    2.3046    1.2902 C   0  0  0  0  0  0  0  0  0  0  0  0
   -1.4972    2.3570    2.4836 O   0  0  0  0  0  0  0  0  0  0  0  0
   -1.3412    1.2299    0.2544 C   0  0  1  0  0  0  0  0  0  0  0  0
   -1.8978   -0.1137    0.5504 C   0  0  0  0  0  0  0  0  0  0  0  0
   -0.8896   -0.9710    1.0226 C   0  0  0  0  0  0  0  0  0  0  0  0
   -1.4443   -2.1901    1.3097 C   0  0  0  0  0  0  0  0  0  0  0  0
   -0.8776   -3.3060    1.7604 O   0  0  0  0  0  0  0  0  0  0  0  0
   -2.8112   -2.1115    0.9685 N   0  0  0  0  0  0  0  0  0  0  0  0
   -3.7525   -3.1907    0.9724 C   0  0  0  0  0  0  0  0  0  0  0  0
   -3.6369   -4.2422    1.8895 C   0  0  0  0  0  0  0  0  0  0  0  0
   -4.5667   -5.2858    1.8854 C   0  0  0  0  0  0  0  0  0  0  0  0
   -5.6098   -5.2933    0.9619 C   0  0  0  0  0  0  0  0  0  0  0  0
   -5.7233   -4.2603    0.0347 C   0  0  0  0  0  0  0  0  0  0  0  0
   -4.7982   -3.2134    0.0355 C   0  0  0  0  0  0  0  0  0  0  0  0
   -3.0926   -0.7776    0.6028 C   0  0  0  0  0  0  0  0  0  0  0  0
   -4.3153   -0.2828    0.4142 O   0  0  0  0  0  0  0  0  0  0  0  0
    0.3979   -0.2453    1.0982 C   0  0  1  0  0  0  0  0  0  0  0  0
    1.6444   -0.9329    0.5453 C   0  0  0  0  0  0  0  0  0  0  0  0
    2.7421    0.0136    0.2876 N   0  0  0  0  0  0  0  0  0  0  0  0
    3.9724   -0.5045   -0.0647 C   0  0  0  0  0  0  0  0  0  0  0  0
    4.1661   -1.6994   -0.2505 O   0  0  0  0  0  0  0  0  0  0  0  0
    4.9252    0.4562   -0.1641 O   0  0  0  0  0  0  0  0  0  0  0  0
    6.2895    0.1232   -0.5266 C   0  0  0  0  0  0  0  0  0  0  0  0
    6.9404   -0.7830    0.5240 C   0  0  0  0  0  0  0  0  0  0  0  0
    6.3622   -0.4822   -1.9327 C   0  0  0  0  0  0  0  0  0  0  0  0
    7.0277    1.4708   -0.5356 C   0  0  0  0  0  0  0  0  0  0  0  0
    2.5236    1.4311    0.6250 C   0  0  0  0  0  0  0  0  0  0  0  0
    1.1046    1.9667    0.2794 C   0  0  0  0  0  0  0  0  0  0  0  0
    0.1038    0.9205    0.2305 N   0  0  0  0  0  0  0  0  0  0  0  0
   -4.4151    5.3713   -2.3600 H   0  0  0  0  0  0  0  0  0  0  0  0
   -4.7175    4.8033   -0.7146 H   0  0  0  0  0  0  0  0  0  0  0  0
   -3.2310    5.7170   -1.0915 H   0  0  0  0  0  0  0  0  0  0  0  0
   -3.6335    3.6998   -3.8801 H   0  0  0  0  0  0  0  0  0  0  0  0
   -2.4414    1.5956   -4.3572 H   0  0  0  0  0  0  0  0  0  0  0  0
   -1.3203    0.3245   -2.5291 H   0  0  0  0  0  0  0  0  0  0  0  0
   -2.8883    4.0801    1.0337 H   0  0  0  0  0  0  0  0  0  0  0  0
    0.0757   -3.1460    1.8652 H   0  0  0  0  0  0  0  0  0  0  0  0
   -2.8517   -4.2587    2.6403 H   0  0  0  0  0  0  0  0  0  0  0  0
   -4.4739   -6.0936    2.6070 H   0  0  0  0  0  0  0  0  0  0  0  0
   -6.3271   -6.1099    0.9587 H   0  0  0  0  0  0  0  0  0  0  0  0
   -6.5232   -4.2772   -0.7014 H   0  0  0  0  0  0  0  0  0  0  0  0
   -4.8826   -2.4540   -0.7395 H   0  0  0  0  0  0  0  0  0  0  0  0
   -4.9578   -0.8636    0.8604 H   0  0  0  0  0  0  0  0  0  0  0  0
    0.5635    0.0854    2.1327 H   0  0  0  0  0  0  0  0  0  0  0  0
    1.9998   -1.6953    1.2493 H   0  0  0  0  0  0  0  0  0  0  0  0
    1.4329   -1.4485   -0.4008 H   0  0  0  0  0  0  0  0  0  0  0  0
    6.7996   -0.3741    1.5309 H   0  0  0  0  0  0  0  0  0  0  0  0
    8.0144   -0.8969    0.3413 H   0  0  0  0  0  0  0  0  0  0  0  0
    6.5020   -1.7854    0.5286 H   0  0  0  0  0  0  0  0  0  0  0  0
    7.3992   -0.5763   -2.2728 H   0  0  0  0  0  0  0  0  0  0  0  0
    5.9139   -1.4794   -1.9732 H   0  0  0  0  0  0  0  0  0  0  0  0
    5.8145    0.1377   -2.6515 H   0  0  0  0  0  0  0  0  0  0  0  0
    8.0844    1.3545   -0.7984 H   0  0  0  0  0  0  0  0  0  0  0  0
    6.9661    1.9553    0.4460 H   0  0  0  0  0  0  0  0  0  0  0  0
    6.5671    2.1626   -1.2506 H   0  0  0  0  0  0  0  0  0  0  0  0
    3.2752    2.0670    0.1467 H   0  0  0  0  0  0  0  0  0  0  0  0
    2.6807    1.5043    1.7086 H   0  0  0  0  0  0  0  0  0  0  0  0
    1.1467    2.4476   -0.7049 H   0  0  0  0  0  0  0  0  0  0  0  0
    0.8587    2.7494    1.0055 H   0  0  0  0  0  0  0  0  0  0  0  0
  1  2  1  0
  2  3  2  0
  3  4  1  0
  4  5  2  0
  5  6  1  0
  6  7  2  0
  7  8  1  0
  8  9  1  0
  9 10  2  0
  9 11  1  0
 11 12  1  0
 12 13  1  0
 13 14  2  0
 14 15  1  0
 14 16  1  0
 16 17  1  0
 17 18  2  0
 18 19  1  0
 19 20  2  0
 20 21  1  0
 21 22  2  0
 16 23  1  0
 23 24  1  0
 13 25  1  0
 25 26  1  0
 26 27  1  0
 27 28  1  0
 28 29  2  0
 28 30  1  0
 30 31  1  0
 31 32  1  0
 31 33  1  0
 31 34  1  0
 27 35  1  0
 35 36  1  0
 36 37  1  0
  7  2  1  0
 11 37  1  6
 11  6  1  0
 23 12  2  0
 37 25  1  0
 22 17  1  0
  1 38  1  0
  1 39  1  0
  1 40  1  0
  3 41  1  0
  4 42  1  0
  5 43  1  0
  8 44  1  0
 15 45  1  0
 18 46  1  0
 19 47  1  0
 20 48  1  0
 21 49  1  0
 22 50  1  0
 24 51  1  0
 25 52  1  1
 26 53  1  0
 26 54  1  0
 32 55  1  0
 32 56  1  0
 32 57  1  0
 33 58  1  0
 33 59  1  0
 33 60  1  0
 34 61  1  0
 34 62  1  0
 34 63  1  0
 35 64  1  0
 35 65  1  0
 36 66  1  0
 36 67  1  0
M  END
$$$$
