
     RDKit          3D

 42 44  0  0  0  0  0  0  0  0999 V2000
   -4.7072   -3.1502    1.3149 C   0  0  0  0  0  0  0  0  0  0  0  0
   -4.1259   -1.9334    0.8668 O   0  0  0  0  0  0  0  0  0  0  0  0
   -4.9724   -0.9543    0.4074 C   0  0  0  0  0  0  0  0  0  0  0  0
   -6.3688   -1.0601    0.3992 C   0  0  0  0  0  0  0  0  0  0  0  0
   -7.1565   -0.0147   -0.0885 C   0  0  0  0  0  0  0  0  0  0  0  0
   -6.5583    1.1425   -0.5755 C   0  0  0  0  0  0  0  0  0  0  0  0
   -5.1686    1.2616   -0.5695 C   0  0  0  0  0  0  0  0  0  0  0  0
   -4.3619    0.2264   -0.0686 C   0  0  0  0  0  0  0  0  0  0  0  0
   -2.8928    0.3515   -0.0965 C   0  0  0  0  0  0  0  0  0  0  0  0
   -2.2342    1.4632    0.2621 C   0  0  0  0  0  0  0  0  0  0  0  0
   -0.7696    1.4827    0.2249 C   0  0  0  0  0  0  0  0  0  0  0  0
    0.0633    0.5942   -0.1973 N   0  0  0  0  0  0  0  0  0  0  0  0
    1.2765    1.1898    0.0280 C   0  0  0  0  0  0  0  0  0  0  0  0
    2.4911    0.6891   -0.2303 C   0  0  0  0  0  0  0  0  0  0  0  0
    2.7193   -0.6161   -0.8181 C   0  0  0  0  0  0  0  0  0  0  0  0
    3.9115   -1.1779   -1.0759 C   0  0  0  0  0  0  0  0  0  0  0  0
    5.2231   -0.5916   -0.7897 C   0  0  0  0  0  0  0  0  0  0  0  0
    5.6860   -0.4779    0.5261 C   0  0  0  0  0  0  0  0  0  0  0  0
    6.9407    0.0772    0.7846 C   0  0  0  0  0  0  0  0  0  0  0  0
    7.7396    0.5168   -0.2701 C   0  0  0  0  0  0  0  0  0  0  0  0
    7.2856    0.4025   -1.5835 C   0  0  0  0  0  0  0  0  0  0  0  0
    6.0312   -0.1529   -1.8438 C   0  0  0  0  0  0  0  0  0  0  0  0
    1.0885    2.5360    0.6298 C   0  0  0  0  0  0  0  0  0  0  0  0
    1.9153    3.3581    0.9682 O   0  0  0  0  0  0  0  0  0  0  0  0
   -0.2660    2.6406    0.7181 O   0  0  0  0  0  0  0  0  0  0  0  0
   -3.8931   -3.8209    1.6070 H   0  0  0  0  0  0  0  0  0  0  0  0
   -5.2686   -3.6410    0.5131 H   0  0  0  0  0  0  0  0  0  0  0  0
   -5.3353   -2.9855    2.1966 H   0  0  0  0  0  0  0  0  0  0  0  0
   -6.8779   -1.9450    0.7661 H   0  0  0  0  0  0  0  0  0  0  0  0
   -8.2398   -0.1086   -0.0923 H   0  0  0  0  0  0  0  0  0  0  0  0
   -7.1718    1.9511   -0.9647 H   0  0  0  0  0  0  0  0  0  0  0  0
   -4.7218    2.1667   -0.9742 H   0  0  0  0  0  0  0  0  0  0  0  0
   -2.3527   -0.5447   -0.3986 H   0  0  0  0  0  0  0  0  0  0  0  0
   -2.7381    2.3591    0.6038 H   0  0  0  0  0  0  0  0  0  0  0  0
    3.3645    1.2946    0.0050 H   0  0  0  0  0  0  0  0  0  0  0  0
    1.8265   -1.1826   -1.0850 H   0  0  0  0  0  0  0  0  0  0  0  0
    3.9445   -2.1581   -1.5468 H   0  0  0  0  0  0  0  0  0  0  0  0
    5.0716   -0.8196    1.3560 H   0  0  0  0  0  0  0  0  0  0  0  0
    7.2934    0.1675    1.8085 H   0  0  0  0  0  0  0  0  0  0  0  0
    8.7154    0.9507   -0.0681 H   0  0  0  0  0  0  0  0  0  0  0  0
    7.9076    0.7467   -2.4056 H   0  0  0  0  0  0  0  0  0  0  0  0
    5.6862   -0.2335   -2.8718 H   0  0  0  0  0  0  0  0  0  0  0  0
  1  2  1  0
  2  3  1  0
  3  4  2  0
  4  5  1  0
  5  6  2  0
  6  7  1  0
  7  8  2  0
  8  9  1  0
  9 10  2  3
 10 11  1  0
 11 12  2  0
 12 13  1  0
 13 14  2  3
 14 15  1  0
 15 16  2  3
 16 17  1  0
 17 18  2  0
 18 19  1  0
 19 20  2  0
 20 21  1  0
 21 22  2  0
 13 23  1  0
 23 24  2  0
 23 25  1  0
  8  3  1  0
 25 11  1  0
 22 17  1  0
  1 26  1  0
  1 27  1  0
  1 28  1  0
  4 29  1  0
  5 30  1  0
  6 31  1  0
  7 32  1  0
  9 33  1  0
 10 34  1  0
 14 35  1  0
 15 36  1  0
 16 37  1  0
 18 38  1  0
 19 39  1  0
 20 40  1  0
 21 41  1  0
 22 42  1  0
M  END
$$$$
