
     RDKit          3D

 54 56  0  0  0  0  0  0  0  0999 V2000
    8.9407   -2.2264    0.2108 C   0  0  0  0  0  0  0  0  0  0  0  0
    8.2322   -1.4899   -0.7779 O   0  0  0  0  0  0  0  0  0  0  0  0
    6.9343   -1.1656   -0.4931 C   0  0  0  0  0  0  0  0  0  0  0  0
    6.2602   -0.4985   -1.5180 C   0  0  0  0  0  0  0  0  0  0  0  0
    4.9275   -0.1104   -1.3620 C   0  0  0  0  0  0  0  0  0  0  0  0
    4.2474   -0.3878   -0.1718 C   0  0  0  0  0  0  0  0  0  0  0  0
    2.8122    0.0411    0.0103 C   0  0  0  0  0  0  0  0  0  0  0  0
    2.7196    1.4714    0.5549 C   0  0  0  0  0  0  0  0  0  0  0  0
    1.3019    1.8639    0.9727 C   0  0  0  0  0  0  0  0  0  0  0  0
    0.3867    2.0706   -0.1743 C   0  0  0  0  0  0  0  0  0  0  0  0
    0.0086    1.2329   -1.1150 N   0  0  0  0  0  0  0  0  0  0  0  0
   -0.8948    1.9146   -1.8994 N   0  0  0  0  0  0  0  0  0  0  0  0
   -1.0318    3.1118   -1.3646 C   0  0  0  0  0  0  0  0  0  0  0  0
   -2.1303    4.3207   -1.9433 S   0  0  0  0  0  0  0  0  0  0  0  0
   -3.3898    3.2612   -2.7103 C   0  0  0  0  0  0  0  0  0  0  0  0
   -4.1278    2.4526   -1.6507 C   0  0  0  0  0  0  0  0  0  0  0  0
   -4.9791    2.9829   -0.9410 O   0  0  0  0  0  0  0  0  0  0  0  0
   -3.7267    1.1298   -1.5917 N   0  0  0  0  0  0  0  0  0  0  0  0
   -4.2183    0.0999   -0.7528 C   0  0  0  0  0  0  0  0  0  0  0  0
   -5.2713    0.2834    0.1482 C   0  0  0  0  0  0  0  0  0  0  0  0
   -5.7308   -0.7661    0.9703 C   0  0  0  0  0  0  0  0  0  0  0  0
   -6.8664   -0.5046    1.9235 C   0  0  0  0  0  0  0  0  0  0  0  0
   -5.1226   -2.0321    0.8884 C   0  0  0  0  0  0  0  0  0  0  0  0
   -5.5769   -3.1809    1.7468 C   0  0  0  0  0  0  0  0  0  0  0  0
   -4.0723   -2.2226   -0.0189 C   0  0  0  0  0  0  0  0  0  0  0  0
   -3.6293   -1.1720   -0.8300 C   0  0  0  0  0  0  0  0  0  0  0  0
   -2.2188   -1.5466   -2.0532 Br  0  0  0  0  0  0  0  0  0  0  0  0
   -0.2249    3.2901   -0.2742 O   0  0  0  0  0  0  0  0  0  0  0  0
    4.9285   -1.0479    0.8585 C   0  0  0  0  0  0  0  0  0  0  0  0
    6.2634   -1.4360    0.6991 C   0  0  0  0  0  0  0  0  0  0  0  0
    8.4601   -3.1910    0.4068 H   0  0  0  0  0  0  0  0  0  0  0  0
    9.9435   -2.4275   -0.1771 H   0  0  0  0  0  0  0  0  0  0  0  0
    9.0508   -1.6456    1.1325 H   0  0  0  0  0  0  0  0  0  0  0  0
    6.7775   -0.2811   -2.4492 H   0  0  0  0  0  0  0  0  0  0  0  0
    4.4257    0.4057   -2.1772 H   0  0  0  0  0  0  0  0  0  0  0  0
    2.3110   -0.6586    0.6918 H   0  0  0  0  0  0  0  0  0  0  0  0
    2.2917   -0.0461   -0.9507 H   0  0  0  0  0  0  0  0  0  0  0  0
    3.1108    2.1821   -0.1859 H   0  0  0  0  0  0  0  0  0  0  0  0
    3.3643    1.5588    1.4404 H   0  0  0  0  0  0  0  0  0  0  0  0
    0.8791    1.1028    1.6394 H   0  0  0  0  0  0  0  0  0  0  0  0
    1.3585    2.7907    1.5569 H   0  0  0  0  0  0  0  0  0  0  0  0
   -4.1229    3.8956   -3.2190 H   0  0  0  0  0  0  0  0  0  0  0  0
   -2.9464    2.6152   -3.4749 H   0  0  0  0  0  0  0  0  0  0  0  0
   -2.9126    0.8632   -2.1452 H   0  0  0  0  0  0  0  0  0  0  0  0
   -5.7637    1.2476    0.2344 H   0  0  0  0  0  0  0  0  0  0  0  0
   -6.5394   -0.6615    2.9566 H   0  0  0  0  0  0  0  0  0  0  0  0
   -7.7092   -1.1670    1.7012 H   0  0  0  0  0  0  0  0  0  0  0  0
   -7.2293    0.5255    1.8455 H   0  0  0  0  0  0  0  0  0  0  0  0
   -6.6285   -3.4125    1.5478 H   0  0  0  0  0  0  0  0  0  0  0  0
   -4.9968   -4.0873    1.5441 H   0  0  0  0  0  0  0  0  0  0  0  0
   -5.4491   -2.9374    2.8064 H   0  0  0  0  0  0  0  0  0  0  0  0
   -3.5974   -3.1982   -0.0981 H   0  0  0  0  0  0  0  0  0  0  0  0
    4.4235   -1.2675    1.7965 H   0  0  0  0  0  0  0  0  0  0  0  0
    6.7474   -1.9453    1.5254 H   0  0  0  0  0  0  0  0  0  0  0  0
  1  2  1  0
  2  3  1  0
  3  4  2  0
  4  5  1  0
  5  6  2  0
  6  7  1  0
  7  8  1  0
  8  9  1  0
  9 10  1  0
 10 11  2  0
 11 12  1  0
 12 13  2  0
 13 14  1  0
 14 15  1  0
 15 16  1  0
 16 17  2  0
 16 18  1  0
 18 19  1  0
 19 20  2  0
 20 21  1  0
 21 22  1  0
 21 23  2  0
 23 24  1  0
 23 25  1  0
 25 26  2  0
 26 27  1  0
 13 28  1  0
  6 29  1  0
 29 30  2  0
 30  3  1  0
 28 10  1  0
 26 19  1  0
  1 31  1  0
  1 32  1  0
  1 33  1  0
  4 34  1  0
  5 35  1  0
  7 36  1  0
  7 37  1  0
  8 38  1  0
  8 39  1  0
  9 40  1  0
  9 41  1  0
 15 42  1  0
 15 43  1  0
 18 44  1  0
 20 45  1  0
 22 46  1  0
 22 47  1  0
 22 48  1  0
 24 49  1  0
 24 50  1  0
 24 51  1  0
 25 52  1  0
 29 53  1  0
 30 54  1  0
M  END
$$$$
