
     RDKit          3D

 74 79  0  0  0  0  0  0  0  0999 V2000
   10.0549   -2.4043   -1.9350 C   0  0  0  0  0  0  0  0  0  0  0  0
    8.8017   -2.9240   -1.5090 O   0  0  0  0  0  0  0  0  0  0  0  0
    7.7689   -2.0343   -1.4088 C   0  0  0  0  0  0  0  0  0  0  0  0
    6.5485   -2.5906   -1.0299 C   0  0  0  0  0  0  0  0  0  0  0  0
    5.4061   -1.7911   -0.8990 C   0  0  0  0  0  0  0  0  0  0  0  0
    5.4498   -0.4098   -1.1502 C   0  0  0  0  0  0  0  0  0  0  0  0
    4.2594    0.4624   -1.0336 C   0  0  0  0  0  0  0  0  0  0  0  0
    2.9604    0.0148   -1.2021 C   0  0  0  0  0  0  0  0  0  0  0  0
    1.9158    0.9315   -1.0634 C   0  0  0  0  0  0  0  0  0  0  0  0
    0.5423    0.3882   -1.1960 C   0  0  0  0  0  0  0  0  0  0  0  0
    0.2438   -0.2007   -2.2249 O   0  0  0  0  0  0  0  0  0  0  0  0
   -0.2401    0.5826   -0.0839 N   0  0  0  0  0  0  0  0  0  0  0  0
   -1.6058    0.2888    0.0986 C   0  0  0  0  0  0  0  0  0  0  0  0
   -2.4213   -0.2941   -0.8712 C   0  0  0  0  0  0  0  0  0  0  0  0
   -3.7824   -0.4995   -0.6013 C   0  0  0  0  0  0  0  0  0  0  0  0
   -4.7848   -1.2264   -1.8846 S   0  0  0  0  0  6  0  0  0  0  0  0
   -5.4820   -0.1376   -2.5367 O   0  0  0  0  0  0  0  0  0  0  0  0
   -3.9205   -2.1226   -2.6261 O   0  0  0  0  0  0  0  0  0  0  0  0
   -5.9223   -2.2086   -1.1275 N   0  0  0  0  0  0  0  0  0  0  0  0
   -5.4558   -3.3685   -0.3289 C   0  0  0  0  0  0  0  0  0  0  0  0
   -6.5709   -4.4207   -0.2564 C   0  0  0  0  0  0  0  0  0  0  0  0
   -7.7901   -3.8563    0.2563 O   0  0  0  0  0  0  0  0  0  0  0  0
   -8.2484   -2.8023   -0.6096 C   0  0  0  0  0  0  0  0  0  0  0  0
   -7.2204   -1.6630   -0.6751 C   0  0  0  0  0  0  0  0  0  0  0  0
   -4.3187   -0.1303    0.6320 C   0  0  0  0  0  0  0  0  0  0  0  0
   -3.4961    0.4346    1.6114 C   0  0  0  0  0  0  0  0  0  0  0  0
   -2.1360    0.6551    1.3585 C   0  0  0  0  0  0  0  0  0  0  0  0
   -1.2673    1.2478    2.3044 N   0  0  0  0  0  0  0  0  0  0  0  0
   -1.0772    0.4561    3.5478 C   0  0  0  0  0  0  0  0  0  0  0  0
   -1.6734    1.1655    4.7759 C   0  0  0  0  0  0  0  0  0  0  0  0
   -1.1721    2.4979    4.9846 O   0  0  0  0  0  0  0  0  0  0  0  0
   -0.7681    3.1553    3.7714 C   0  0  0  0  0  0  0  0  0  0  0  0
   -1.5598    2.6832    2.5451 C   0  0  0  0  0  0  0  0  0  0  0  0
    2.1645    2.2985   -0.8087 C   0  0  0  0  0  0  0  0  0  0  0  0
    1.1739    3.3136   -0.7249 C   0  0  0  0  0  0  0  0  0  0  0  0
    1.5201    4.6373   -0.4636 C   0  0  0  0  0  0  0  0  0  0  0  0
    2.8554    4.9693   -0.2898 C   0  0  0  0  0  0  0  0  0  0  0  0
    3.8327    3.9773   -0.3912 C   0  0  0  0  0  0  0  0  0  0  0  0
    3.5147    2.6523   -0.6530 C   0  0  0  0  0  0  0  0  0  0  0  0
    4.5188    1.7652   -0.7525 N   0  0  0  0  0  0  0  0  0  0  0  0
    6.6957    0.1308   -1.5205 C   0  0  0  0  0  0  0  0  0  0  0  0
    7.8407   -0.6655   -1.6470 C   0  0  0  0  0  0  0  0  0  0  0  0
   10.7557   -3.2413   -2.0140 H   0  0  0  0  0  0  0  0  0  0  0  0
    9.9811   -1.9426   -2.9267 H   0  0  0  0  0  0  0  0  0  0  0  0
   10.4537   -1.6979   -1.1979 H   0  0  0  0  0  0  0  0  0  0  0  0
    6.4813   -3.6584   -0.8359 H   0  0  0  0  0  0  0  0  0  0  0  0
    4.4852   -2.2743   -0.5856 H   0  0  0  0  0  0  0  0  0  0  0  0
    2.7393   -1.0185   -1.4470 H   0  0  0  0  0  0  0  0  0  0  0  0
    0.1721    1.0138    0.7424 H   0  0  0  0  0  0  0  0  0  0  0  0
   -2.0201   -0.5753   -1.8423 H   0  0  0  0  0  0  0  0  0  0  0  0
   -4.5657   -3.8198   -0.7732 H   0  0  0  0  0  0  0  0  0  0  0  0
   -5.2081   -3.0273    0.6818 H   0  0  0  0  0  0  0  0  0  0  0  0
   -6.2745   -5.2300    0.4169 H   0  0  0  0  0  0  0  0  0  0  0  0
   -6.7661   -4.8593   -1.2416 H   0  0  0  0  0  0  0  0  0  0  0  0
   -9.1947   -2.4260   -0.2060 H   0  0  0  0  0  0  0  0  0  0  0  0
   -8.4461   -3.2195   -1.6058 H   0  0  0  0  0  0  0  0  0  0  0  0
   -7.1195   -1.2264    0.3211 H   0  0  0  0  0  0  0  0  0  0  0  0
   -7.5889   -0.8977   -1.3662 H   0  0  0  0  0  0  0  0  0  0  0  0
   -5.3709   -0.2553    0.8507 H   0  0  0  0  0  0  0  0  0  0  0  0
   -3.9284    0.7167    2.5667 H   0  0  0  0  0  0  0  0  0  0  0  0
   -1.4864   -0.5591    3.4604 H   0  0  0  0  0  0  0  0  0  0  0  0
    0.0065    0.3566    3.6943 H   0  0  0  0  0  0  0  0  0  0  0  0
   -2.7649    1.2321    4.6877 H   0  0  0  0  0  0  0  0  0  0  0  0
   -1.4587    0.5895    5.6860 H   0  0  0  0  0  0  0  0  0  0  0  0
    0.2999    2.9635    3.6293 H   0  0  0  0  0  0  0  0  0  0  0  0
   -0.8933    4.2316    3.9227 H   0  0  0  0  0  0  0  0  0  0  0  0
   -2.6307    2.8458    2.7254 H   0  0  0  0  0  0  0  0  0  0  0  0
   -1.2602    3.2665    1.6646 H   0  0  0  0  0  0  0  0  0  0  0  0
    0.1214    3.0827   -0.8834 H   0  0  0  0  0  0  0  0  0  0  0  0
    0.7534    5.4073   -0.4080 H   0  0  0  0  0  0  0  0  0  0  0  0
    3.1442    5.9981   -0.0953 H   0  0  0  0  0  0  0  0  0  0  0  0
    4.8800    4.2474   -0.2717 H   0  0  0  0  0  0  0  0  0  0  0  0
    6.7839    1.1990   -1.7246 H   0  0  0  0  0  0  0  0  0  0  0  0
    8.7654   -0.1798   -1.9393 H   0  0  0  0  0  0  0  0  0  0  0  0
  1  2  1  0
  2  3  1  0
  3  4  2  0
  4  5  1  0
  5  6  2  0
  6  7  1  0
  7  8  2  0
  8  9  1  0
  9 10  1  0
 10 11  2  0
 10 12  1  0
 12 13  1  0
 13 14  2  0
 14 15  1  0
 15 16  1  0
 16 17  2  0
 16 18  2  0
 16 19  1  0
 19 20  1  0
 20 21  1  0
 21 22  1  0
 22 23  1  0
 23 24  1  0
 15 25  2  0
 25 26  1  0
 26 27  2  0
 27 28  1  0
 28 29  1  0
 29 30  1  0
 30 31  1  0
 31 32  1  0
 32 33  1  0
  9 34  2  0
 34 35  1  0
 35 36  2  0
 36 37  1  0
 37 38  2  0
 38 39  1  0
 39 40  2  0
  6 41  1  0
 41 42  2  0
 42  3  1  0
 40  7  1  0
 27 13  1  0
 33 28  1  0
 39 34  1  0
 24 19  1  0
  1 43  1  0
  1 44  1  0
  1 45  1  0
  4 46  1  0
  5 47  1  0
  8 48  1  0
 12 49  1  0
 14 50  1  0
 20 51  1  0
 20 52  1  0
 21 53  1  0
 21 54  1  0
 23 55  1  0
 23 56  1  0
 24 57  1  0
 24 58  1  0
 25 59  1  0
 26 60  1  0
 29 61  1  0
 29 62  1  0
 30 63  1  0
 30 64  1  0
 32 65  1  0
 32 66  1  0
 33 67  1  0
 33 68  1  0
 35 69  1  0
 36 70  1  0
 37 71  1  0
 38 72  1  0
 41 73  1  0
 42 74  1  0
M  END
$$$$
