
     RDKit          3D

 57 59  0  0  0  0  0  0  0  0999 V2000
    1.8736   -2.2656   -3.8196 C   0  0  0  0  0  0  0  0  0  0  0  0
    2.2871   -1.0316   -3.2393 O   0  0  0  0  0  0  0  0  0  0  0  0
    2.8592   -1.1064   -1.9993 C   0  0  0  0  0  0  0  0  0  0  0  0
    2.9667   -2.2529   -1.2164 C   0  0  0  0  0  0  0  0  0  0  0  0
    3.5454   -2.1871    0.0494 C   0  0  0  0  0  0  0  0  0  0  0  0
    4.0333   -0.9744    0.5496 C   0  0  0  0  0  0  0  0  0  0  0  0
    4.5878   -0.8976    1.9488 C   0  0  0  0  0  0  0  0  0  0  0  0
    3.5182   -0.8914    2.9097 N   0  0  0  0  0  0  0  0  0  0  0  0
    2.8582    0.2784    3.2134 C   0  0  0  0  0  0  0  0  0  0  0  0
    3.2617    1.4177    3.0090 O   0  0  0  0  0  0  0  0  0  0  0  0
    1.4300    0.0465    3.7592 C   0  0  0  0  0  0  0  0  0  0  0  0
    1.0455   -1.0913    3.9922 O   0  0  0  0  0  0  0  0  0  0  0  0
    0.6840    1.2017    3.8493 N   0  0  0  0  0  0  0  0  0  0  0  0
   -0.7673    1.1506    3.7260 C   0  0  0  0  0  0  0  0  0  0  0  0
   -1.2335    1.3051    2.2572 C   0  0  0  0  0  0  0  0  0  0  0  0
   -0.7492    2.5701    1.7510 O   0  0  0  0  0  0  0  0  0  0  0  0
   -0.3640    2.3432    0.3900 C   0  0  0  0  0  0  0  0  0  0  0  0
    0.1682    0.9282    0.3820 C   0  0  0  0  0  0  0  0  0  0  0  0
   -0.6566    0.2657    1.3915 N   0  0  0  0  0  0  0  0  0  0  0  0
   -1.6122   -1.0434    0.9789 S   0  0  0  0  0  6  0  0  0  0  0  0
   -0.7917   -1.9909    0.2591 O   0  0  0  0  0  0  0  0  0  0  0  0
   -2.3677   -1.4324    2.1487 O   0  0  0  0  0  0  0  0  0  0  0  0
   -2.7692   -0.3586   -0.1926 C   0  0  0  0  0  0  0  0  0  0  0  0
   -3.9994    0.1335    0.2465 C   0  0  0  0  0  0  0  0  0  0  0  0
   -4.8919    0.6717   -0.6830 C   0  0  0  0  0  0  0  0  0  0  0  0
   -4.5771    0.7034   -2.0440 C   0  0  0  0  0  0  0  0  0  0  0  0
   -5.5329    1.2772   -2.8358 O   0  0  0  0  0  0  0  0  0  0  0  0
   -5.2492    1.3696   -4.2240 C   0  0  0  0  0  0  0  0  0  0  0  0
   -3.3670    0.1592   -2.4818 C   0  0  0  0  0  0  0  0  0  0  0  0
   -2.4652   -0.3787   -1.5574 C   0  0  0  0  0  0  0  0  0  0  0  0
    3.9278    0.1736   -0.2429 C   0  0  0  0  0  0  0  0  0  0  0  0
    3.3422    0.1051   -1.5073 C   0  0  0  0  0  0  0  0  0  0  0  0
    1.1041   -2.7497   -3.2141 H   0  0  0  0  0  0  0  0  0  0  0  0
    2.7265   -2.9281   -3.9796 H   0  0  0  0  0  0  0  0  0  0  0  0
    1.4363   -2.0480   -4.7972 H   0  0  0  0  0  0  0  0  0  0  0  0
    2.5913   -3.2136   -1.5491 H   0  0  0  0  0  0  0  0  0  0  0  0
    3.6005   -3.0910    0.6514 H   0  0  0  0  0  0  0  0  0  0  0  0
    5.2097   -0.0025    2.0800 H   0  0  0  0  0  0  0  0  0  0  0  0
    5.2179   -1.7699    2.1505 H   0  0  0  0  0  0  0  0  0  0  0  0
    2.9438   -1.7274    3.0023 H   0  0  0  0  0  0  0  0  0  0  0  0
    1.1434    2.0330    3.4844 H   0  0  0  0  0  0  0  0  0  0  0  0
   -1.1534    1.9821    4.3216 H   0  0  0  0  0  0  0  0  0  0  0  0
   -1.1353    0.2092    4.1458 H   0  0  0  0  0  0  0  0  0  0  0  0
   -2.3246    1.3348    2.2127 H   0  0  0  0  0  0  0  0  0  0  0  0
   -1.2527    2.4499   -0.2427 H   0  0  0  0  0  0  0  0  0  0  0  0
    0.3838    3.0801    0.0838 H   0  0  0  0  0  0  0  0  0  0  0  0
    0.1393    0.4769   -0.6084 H   0  0  0  0  0  0  0  0  0  0  0  0
    1.2033    0.9119    0.7346 H   0  0  0  0  0  0  0  0  0  0  0  0
   -4.2741    0.1019    1.2944 H   0  0  0  0  0  0  0  0  0  0  0  0
   -5.8504    1.0611   -0.3494 H   0  0  0  0  0  0  0  0  0  0  0  0
   -5.1862    0.3739   -4.6739 H   0  0  0  0  0  0  0  0  0  0  0  0
   -6.0805    1.9002   -4.6954 H   0  0  0  0  0  0  0  0  0  0  0  0
   -4.3403    1.9484   -4.4087 H   0  0  0  0  0  0  0  0  0  0  0  0
   -3.0931    0.1373   -3.5324 H   0  0  0  0  0  0  0  0  0  0  0  0
   -1.5310   -0.8097   -1.9112 H   0  0  0  0  0  0  0  0  0  0  0  0
    4.2743    1.1344    0.1306 H   0  0  0  0  0  0  0  0  0  0  0  0
    3.2528    1.0065   -2.1121 H   0  0  0  0  0  0  0  0  0  0  0  0
  1  2  1  0
  2  3  1  0
  3  4  2  0
  4  5  1  0
  5  6  2  0
  6  7  1  0
  7  8  1  0
  8  9  1  0
  9 10  2  0
  9 11  1  0
 11 12  2  0
 11 13  1  0
 13 14  1  0
 14 15  1  0
 15 16  1  0
 16 17  1  0
 17 18  1  0
 18 19  1  0
 19 20  1  0
 20 21  2  0
 20 22  2  0
 20 23  1  0
 23 24  2  0
 24 25  1  0
 25 26  2  0
 26 27  1  0
 27 28  1  0
 26 29  1  0
 29 30  2  0
  6 31  1  0
 31 32  2  0
 32  3  1  0
 19 15  1  0
 30 23  1  0
  1 33  1  0
  1 34  1  0
  1 35  1  0
  4 36  1  0
  5 37  1  0
  7 38  1  0
  7 39  1  0
  8 40  1  0
 13 41  1  0
 14 42  1  0
 14 43  1  0
 15 44  1  0
 17 45  1  0
 17 46  1  0
 18 47  1  0
 18 48  1  0
 24 49  1  0
 25 50  1  0
 28 51  1  0
 28 52  1  0
 28 53  1  0
 29 54  1  0
 30 55  1  0
 31 56  1  0
 32 57  1  0
M  END
$$$$
