
     RDKit          3D

 51 55  0  0  0  0  0  0  0  0999 V2000
    7.8504    0.9650   -2.5801 Cl  0  0  0  0  0  0  0  0  0  0  0  0
    6.6592    0.6910   -1.3585 C   0  0  0  0  0  0  0  0  0  0  0  0
    6.9343   -0.2753   -0.3876 C   0  0  0  0  0  0  0  0  0  0  0  0
    6.0093   -0.5409    0.6253 C   0  0  0  0  0  0  0  0  0  0  0  0
    4.7984    0.1602    0.6822 C   0  0  0  0  0  0  0  0  0  0  0  0
    3.7949   -0.1253    1.7773 C   0  0  0  0  0  0  0  0  0  0  0  0
    2.6015   -0.9927    1.3243 C   0  0  0  0  0  0  0  0  0  0  0  0
    1.6676   -0.3130    0.4091 N   0  0  0  0  0  0  0  0  0  0  0  0
    0.7709   -1.2772   -0.2728 C   0  0  0  0  0  0  0  0  0  0  0  0
   -0.3382   -1.8851    0.6188 C   0  0  0  0  0  0  0  0  0  0  0  0
   -1.1460   -0.8248    1.2531 N   0  0  0  0  0  0  0  0  0  0  0  0
   -2.2589   -0.3408    0.5637 C   0  0  0  0  0  0  0  0  0  0  0  0
   -2.3076    0.9250    0.2342 N   0  0  0  0  0  0  0  0  0  0  0  0
   -3.4008    1.4372   -0.4920 C   0  0  0  0  0  0  0  0  0  0  0  0
   -3.3898    2.7889   -0.8401 C   0  0  0  0  0  0  0  0  0  0  0  0
   -4.4434    3.3465   -1.5691 C   0  0  0  0  0  0  0  0  0  0  0  0
   -5.5227    2.5526   -1.9589 C   0  0  0  0  0  0  0  0  0  0  0  0
   -5.5550    1.1989   -1.6224 C   0  0  0  0  0  0  0  0  0  0  0  0
   -4.4932    0.6554   -0.8937 C   0  0  0  0  0  0  0  0  0  0  0  0
   -4.4482   -0.6929   -0.5053 N   0  0  0  0  0  0  0  0  0  0  0  0
   -5.3632   -1.6975   -0.7165 C   0  0  0  0  0  0  0  0  0  0  0  0
   -4.9052   -2.8357   -0.0887 C   0  0  0  0  0  0  0  0  0  0  0  0
   -3.6657   -2.5136    0.5110 C   0  0  0  0  0  0  0  0  0  0  0  0
   -3.3839   -1.1925    0.2112 C   0  0  0  0  0  0  0  0  0  0  0  0
   -0.2988    0.1421    1.9807 C   0  0  0  0  0  0  0  0  0  0  0  0
    0.8235    0.7088    1.0798 C   0  0  0  0  0  0  0  0  0  0  0  0
    4.5305    1.1296   -0.2965 C   0  0  0  0  0  0  0  0  0  0  0  0
    5.4530    1.3954   -1.3138 C   0  0  0  0  0  0  0  0  0  0  0  0
    5.0413    2.6016   -2.4802 Cl  0  0  0  0  0  0  0  0  0  0  0  0
    7.8709   -0.8275   -0.4142 H   0  0  0  0  0  0  0  0  0  0  0  0
    6.2449   -1.2975    1.3701 H   0  0  0  0  0  0  0  0  0  0  0  0
    3.4642    0.8208    2.2201 H   0  0  0  0  0  0  0  0  0  0  0  0
    4.3057   -0.6547    2.5926 H   0  0  0  0  0  0  0  0  0  0  0  0
    2.0784   -1.3607    2.2146 H   0  0  0  0  0  0  0  0  0  0  0  0
    3.0157   -1.8785    0.8244 H   0  0  0  0  0  0  0  0  0  0  0  0
    1.3609   -2.0836   -0.7258 H   0  0  0  0  0  0  0  0  0  0  0  0
    0.2967   -0.7540   -1.1141 H   0  0  0  0  0  0  0  0  0  0  0  0
   -0.9529   -2.5515    0.0056 H   0  0  0  0  0  0  0  0  0  0  0  0
    0.1061   -2.5086    1.4038 H   0  0  0  0  0  0  0  0  0  0  0  0
   -2.5489    3.4099   -0.5413 H   0  0  0  0  0  0  0  0  0  0  0  0
   -4.4184    4.4005   -1.8335 H   0  0  0  0  0  0  0  0  0  0  0  0
   -6.3390    2.9912   -2.5269 H   0  0  0  0  0  0  0  0  0  0  0  0
   -6.4045    0.6021   -1.9352 H   0  0  0  0  0  0  0  0  0  0  0  0
   -6.2724   -1.5317   -1.2749 H   0  0  0  0  0  0  0  0  0  0  0  0
   -5.4162   -3.7893   -0.0573 H   0  0  0  0  0  0  0  0  0  0  0  0
   -3.0444   -3.1729    1.1023 H   0  0  0  0  0  0  0  0  0  0  0  0
    0.1395   -0.3658    2.8477 H   0  0  0  0  0  0  0  0  0  0  0  0
   -0.9023    0.9607    2.3906 H   0  0  0  0  0  0  0  0  0  0  0  0
    0.3735    1.3263    0.2921 H   0  0  0  0  0  0  0  0  0  0  0  0
    1.4400    1.4003    1.6634 H   0  0  0  0  0  0  0  0  0  0  0  0
    3.5881    1.6732   -0.2706 H   0  0  0  0  0  0  0  0  0  0  0  0
  1  2  1  0
  2  3  2  0
  3  4  1  0
  4  5  2  0
  5  6  1  0
  6  7  1  0
  7  8  1  0
  8  9  1  0
  9 10  1  0
 10 11  1  0
 11 12  1  0
 12 13  2  0
 13 14  1  0
 14 15  2  0
 15 16  1  0
 16 17  2  0
 17 18  1  0
 18 19  2  0
 19 20  1  0
 20 21  1  0
 21 22  2  0
 22 23  1  0
 23 24  2  0
 11 25  1  0
 25 26  1  0
  5 27  1  0
 27 28  2  0
 28 29  1  0
 28  2  1  0
 26  8  1  0
 24 12  1  0
 19 14  1  0
 24 20  1  0
  3 30  1  0
  4 31  1  0
  6 32  1  0
  6 33  1  0
  7 34  1  0
  7 35  1  0
  9 36  1  0
  9 37  1  0
 10 38  1  0
 10 39  1  0
 15 40  1  0
 16 41  1  0
 17 42  1  0
 18 43  1  0
 21 44  1  0
 22 45  1  0
 23 46  1  0
 25 47  1  0
 25 48  1  0
 26 49  1  0
 26 50  1  0
 27 51  1  0
M  END
$$$$
