
     RDKit          3D

 71 77  0  0  0  0  0  0  0  0999 V2000
    6.5047    1.7907   -1.2473 C   0  0  0  0  0  0  0  0  0  0  0  0
    5.9238    1.3466   -0.0289 O   0  0  0  0  0  0  0  0  0  0  0  0
    4.5284    1.0602   -0.1484 C   0  0  0  0  0  0  0  0  0  0  0  0
    4.1820   -0.2388   -0.9565 C   0  0  0  0  0  0  0  0  0  0  0  0
    5.0671   -1.0289   -1.3030 O   0  0  0  0  0  0  0  0  0  0  0  0
    2.8522   -0.4742   -1.2998 N   0  0  0  0  0  0  0  0  0  0  0  0
    2.5098   -1.7279   -1.9862 C   0  0  0  0  0  0  0  0  0  0  0  0
    1.1125   -2.2416   -1.5860 C   0  0  0  0  0  0  0  0  0  0  0  0
    0.0641   -1.2805   -1.9126 N   0  0  0  0  0  0  0  0  0  0  0  0
    0.4698    0.1573   -1.7974 C   0  0  2  0  0  0  0  0  0  0  0  0
    1.7203    0.3903   -0.9285 C   0  0  0  0  0  0  0  0  0  0  0  0
   -0.7523    0.7897   -1.2653 C   0  0  0  0  0  0  0  0  0  0  0  0
   -1.7674   -0.1380   -1.0339 C   0  0  0  0  0  0  0  0  0  0  0  0
   -2.8596    0.5287   -0.5338 C   0  0  0  0  0  0  0  0  0  0  0  0
   -4.0596    0.0689   -0.1873 O   0  0  0  0  0  0  0  0  0  0  0  0
   -2.5278    1.8988   -0.4907 N   0  0  0  0  0  0  0  0  0  0  0  0
   -3.4049    2.9793   -0.1546 C   0  0  0  0  0  0  0  0  0  0  0  0
   -4.4433    2.8009    0.7665 C   0  0  0  0  0  0  0  0  0  0  0  0
   -5.2854    3.8676    1.0941 C   0  0  0  0  0  0  0  0  0  0  0  0
   -5.1050    5.1140    0.4978 C   0  0  0  0  0  0  0  0  0  0  0  0
   -4.0871    5.2955   -0.4349 C   0  0  0  0  0  0  0  0  0  0  0  0
   -3.2412    4.2332   -0.7644 C   0  0  0  0  0  0  0  0  0  0  0  0
   -1.1704    2.0234   -0.8539 C   0  0  0  0  0  0  0  0  0  0  0  0
   -0.4439    3.1347   -0.7410 O   0  0  0  0  0  0  0  0  0  0  0  0
   -1.3059   -1.5051   -1.3691 C   0  0  1  0  0  0  0  0  0  0  0  0
   -2.2005   -2.2400   -2.4023 C   0  0  0  0  0  0  0  0  0  0  0  0
   -2.4323   -1.9498   -3.5668 O   0  0  0  0  0  0  0  0  0  0  0  0
   -2.7406   -3.3499   -1.7481 N   0  0  0  0  0  0  0  0  0  0  0  0
   -2.3294   -3.4268   -0.4195 C   0  0  0  0  0  0  0  0  0  0  0  0
   -1.4832   -2.3452   -0.1257 C   0  0  0  0  0  0  0  0  0  0  0  0
   -0.9744   -2.1794    1.1548 C   0  0  0  0  0  0  0  0  0  0  0  0
   -1.3181   -3.1194    2.1270 C   0  0  0  0  0  0  0  0  0  0  0  0
   -2.1593   -4.2061    1.8163 C   0  0  0  0  0  0  0  0  0  0  0  0
   -2.5345   -5.3067    3.0985 Cl  0  0  0  0  0  0  0  0  0  0  0  0
   -2.6842   -4.3866    0.5222 C   0  0  0  0  0  0  0  0  0  0  0  0
   -3.5917   -5.5362    0.1965 C   0  0  0  0  0  0  0  0  0  0  0  0
    4.0041    0.9824    1.2797 C   0  0  0  0  0  0  0  0  0  0  0  0
    4.3344   -0.1029    2.1081 C   0  0  0  0  0  0  0  0  0  0  0  0
    3.8398   -0.1801    3.4112 C   0  0  0  0  0  0  0  0  0  0  0  0
    3.0184    0.8300    3.9067 C   0  0  0  0  0  0  0  0  0  0  0  0
    2.6988    1.9234    3.1032 C   0  0  0  0  0  0  0  0  0  0  0  0
    3.1938    2.0045    1.8000 C   0  0  0  0  0  0  0  0  0  0  0  0
    6.4666    1.0125   -2.0122 H   0  0  0  0  0  0  0  0  0  0  0  0
    7.5536    2.0304   -1.0572 H   0  0  0  0  0  0  0  0  0  0  0  0
    6.0057    2.6951   -1.6064 H   0  0  0  0  0  0  0  0  0  0  0  0
    4.0597    1.9067   -0.6639 H   0  0  0  0  0  0  0  0  0  0  0  0
    2.5504   -1.5280   -3.0638 H   0  0  0  0  0  0  0  0  0  0  0  0
    3.2571   -2.4980   -1.7666 H   0  0  0  0  0  0  0  0  0  0  0  0
    0.9148   -3.1883   -2.1013 H   0  0  0  0  0  0  0  0  0  0  0  0
    1.1481   -2.4479   -0.5111 H   0  0  0  0  0  0  0  0  0  0  0  0
    0.6649    0.5223   -2.8138 H   0  0  0  0  0  0  0  0  0  0  0  0
    2.0173    1.4403   -0.9968 H   0  0  0  0  0  0  0  0  0  0  0  0
    1.4928    0.1764    0.1233 H   0  0  0  0  0  0  0  0  0  0  0  0
   -4.1001   -0.8776   -0.4049 H   0  0  0  0  0  0  0  0  0  0  0  0
   -4.6009    1.8501    1.2679 H   0  0  0  0  0  0  0  0  0  0  0  0
   -6.0847    3.7210    1.8162 H   0  0  0  0  0  0  0  0  0  0  0  0
   -5.7668    5.9390    0.7501 H   0  0  0  0  0  0  0  0  0  0  0  0
   -3.9620    6.2600   -0.9208 H   0  0  0  0  0  0  0  0  0  0  0  0
   -2.4977    4.3941   -1.5423 H   0  0  0  0  0  0  0  0  0  0  0  0
   -0.9018    3.7443   -0.1337 H   0  0  0  0  0  0  0  0  0  0  0  0
   -3.3511   -3.9963   -2.2258 H   0  0  0  0  0  0  0  0  0  0  0  0
   -0.3284   -1.3411    1.4021 H   0  0  0  0  0  0  0  0  0  0  0  0
   -0.9292   -3.0040    3.1373 H   0  0  0  0  0  0  0  0  0  0  0  0
   -4.5386   -5.4346    0.7374 H   0  0  0  0  0  0  0  0  0  0  0  0
   -3.1175   -6.4866    0.4640 H   0  0  0  0  0  0  0  0  0  0  0  0
   -3.8271   -5.5947   -0.8703 H   0  0  0  0  0  0  0  0  0  0  0  0
    4.9918   -0.8898    1.7409 H   0  0  0  0  0  0  0  0  0  0  0  0
    4.1079   -1.0240    4.0427 H   0  0  0  0  0  0  0  0  0  0  0  0
    2.6413    0.7734    4.9244 H   0  0  0  0  0  0  0  0  0  0  0  0
    2.0708    2.7183    3.4957 H   0  0  0  0  0  0  0  0  0  0  0  0
    2.9412    2.8712    1.1925 H   0  0  0  0  0  0  0  0  0  0  0  0
  1  2  1  0
  2  3  1  0
  3  4  1  0
  4  5  2  0
  4  6  1  0
  6  7  1  0
  7  8  1  0
  8  9  1  0
  9 10  1  0
 10 11  1  0
 10 12  1  0
 12 13  1  0
 13 14  2  0
 14 15  1  0
 14 16  1  0
 16 17  1  0
 17 18  2  0
 18 19  1  0
 19 20  2  0
 20 21  1  0
 21 22  2  0
 16 23  1  0
 23 24  1  0
 13 25  1  0
 25 26  1  0
 26 27  2  0
 26 28  1  0
 28 29  1  0
 29 30  2  0
 30 31  1  0
 31 32  2  0
 32 33  1  0
 33 34  1  0
 33 35  2  0
 35 36  1  0
  3 37  1  0
 37 38  2  0
 38 39  1  0
 39 40  2  0
 40 41  1  0
 41 42  2  0
 11  6  1  0
 23 12  2  0
 30 25  1  0
 42 37  1  0
 25  9  1  6
 35 29  1  0
 22 17  1  0
  1 43  1  0
  1 44  1  0
  1 45  1  0
  3 46  1  0
  7 47  1  0
  7 48  1  0
  8 49  1  0
  8 50  1  0
 10 51  1  6
 11 52  1  0
 11 53  1  0
 15 54  1  0
 18 55  1  0
 19 56  1  0
 20 57  1  0
 21 58  1  0
 22 59  1  0
 24 60  1  0
 28 61  1  0
 31 62  1  0
 32 63  1  0
 36 64  1  0
 36 65  1  0
 36 66  1  0
 38 67  1  0
 39 68  1  0
 40 69  1  0
 41 70  1  0
 42 71  1  0
M  END
$$$$
