
     RDKit          3D

 54 57  0  0  0  0  0  0  0  0999 V2000
    8.9642    0.7656    0.6718 C   0  0  0  0  0  0  0  0  0  0  0  0
    7.7887    1.5758    0.3556 N   0  0  0  0  0  0  0  0  0  0  0  0
    7.7809    2.9224    0.9256 C   0  0  0  0  0  0  0  0  0  0  0  0
    6.5702    0.9311    0.1107 C   0  0  0  0  0  0  0  0  0  0  0  0
    6.5079   -0.4286   -0.2516 C   0  0  0  0  0  0  0  0  0  0  0  0
    5.2951   -1.0821   -0.5168 C   0  0  0  0  0  0  0  0  0  0  0  0
    4.0986   -0.3780   -0.4342 C   0  0  0  0  0  0  0  0  0  0  0  0
    2.8303   -1.0774   -0.7155 C   0  0  0  0  0  0  0  0  0  0  0  0
    1.6877   -0.4717   -0.6487 N   0  0  0  0  0  0  0  0  0  0  0  0
    0.6016   -1.2441   -0.9337 N   0  0  0  0  0  0  0  0  0  0  0  0
   -0.6788   -0.7122   -0.9000 C   0  0  0  0  0  0  0  0  0  0  0  0
   -0.9602    0.4500   -0.6249 O   0  0  0  0  0  0  0  0  0  0  0  0
   -1.6966   -1.7029   -1.2434 C   0  0  0  0  0  0  0  0  0  0  0  0
   -1.3720   -2.9814   -1.5930 N   0  0  0  0  0  0  0  0  0  0  0  0
   -2.4875   -3.6210   -1.8879 N   0  0  0  0  0  0  0  0  0  0  0  0
   -3.5639   -2.8086   -1.6432 N   0  0  0  0  0  0  0  0  0  0  0  0
   -4.8902   -3.3152   -1.7637 C   0  0  0  0  0  0  0  0  0  0  0  0
   -5.0393   -4.4864   -2.3964 N   0  0  0  0  0  0  0  0  0  0  0  0
   -6.4066   -4.7102   -2.4192 O   0  0  0  0  0  0  0  0  0  0  0  0
   -7.0862   -3.6939   -1.7693 N   0  0  0  0  0  0  0  0  0  0  0  0
   -6.1495   -2.8502   -1.3365 C   0  0  0  0  0  0  0  0  0  0  0  0
   -6.4561   -1.7810   -0.5758 N   0  0  0  0  0  0  0  0  0  0  0  0
   -3.0741   -1.5450   -1.3145 C   0  0  0  0  0  0  0  0  0  0  0  0
   -3.8711   -0.3092   -1.1418 C   0  0  0  0  0  0  0  0  0  0  0  0
   -4.2268   -0.2759    0.2390 O   0  0  0  0  0  0  0  0  0  0  0  0
   -4.7175    0.9107    0.7154 C   0  0  0  0  0  0  0  0  0  0  0  0
   -5.2450    1.9434   -0.0640 C   0  0  0  0  0  0  0  0  0  0  0  0
   -5.7421    3.0961    0.5511 C   0  0  0  0  0  0  0  0  0  0  0  0
   -5.7151    3.2060    1.9365 C   0  0  0  0  0  0  0  0  0  0  0  0
   -6.1954    4.3112    2.5206 F   0  0  0  0  0  0  0  0  0  0  0  0
   -5.2025    2.1827    2.7226 C   0  0  0  0  0  0  0  0  0  0  0  0
   -4.7067    1.0316    2.1093 C   0  0  0  0  0  0  0  0  0  0  0  0
    4.1169    0.9706   -0.0950 C   0  0  0  0  0  0  0  0  0  0  0  0
    5.3378    1.6093    0.1659 C   0  0  0  0  0  0  0  0  0  0  0  0
    8.7847    0.1370    1.5511 H   0  0  0  0  0  0  0  0  0  0  0  0
    9.2527    0.1375   -0.1776 H   0  0  0  0  0  0  0  0  0  0  0  0
    9.8352    1.3942    0.8892 H   0  0  0  0  0  0  0  0  0  0  0  0
    7.2571    3.6278    0.2714 H   0  0  0  0  0  0  0  0  0  0  0  0
    8.7992    3.3134    1.0315 H   0  0  0  0  0  0  0  0  0  0  0  0
    7.3190    2.9267    1.9191 H   0  0  0  0  0  0  0  0  0  0  0  0
    7.4136   -1.0203   -0.3470 H   0  0  0  0  0  0  0  0  0  0  0  0
    5.3106   -2.1334   -0.7897 H   0  0  0  0  0  0  0  0  0  0  0  0
    2.9050   -2.1466   -0.9855 H   0  0  0  0  0  0  0  0  0  0  0  0
    0.7179   -2.2224   -1.1837 H   0  0  0  0  0  0  0  0  0  0  0  0
   -7.4093   -1.7560   -0.2196 H   0  0  0  0  0  0  0  0  0  0  0  0
   -5.8010   -1.4565    0.1357 H   0  0  0  0  0  0  0  0  0  0  0  0
   -4.7562   -0.3139   -1.7855 H   0  0  0  0  0  0  0  0  0  0  0  0
   -3.2746    0.5685   -1.4155 H   0  0  0  0  0  0  0  0  0  0  0  0
   -5.2928    1.8821   -1.1463 H   0  0  0  0  0  0  0  0  0  0  0  0
   -6.1515    3.9081   -0.0419 H   0  0  0  0  0  0  0  0  0  0  0  0
   -5.1882    2.2874    3.8025 H   0  0  0  0  0  0  0  0  0  0  0  0
   -4.2977    0.2310    2.7210 H   0  0  0  0  0  0  0  0  0  0  0  0
    3.1915    1.5393   -0.0334 H   0  0  0  0  0  0  0  0  0  0  0  0
    5.2883    2.6646    0.4171 H   0  0  0  0  0  0  0  0  0  0  0  0
  1  2  1  0
  2  3  1  0
  2  4  1  0
  4  5  2  0
  5  6  1  0
  6  7  2  0
  7  8  1  0
  8  9  2  3
  9 10  1  0
 10 11  1  0
 11 12  2  0
 11 13  1  0
 13 14  1  0
 14 15  2  0
 15 16  1  0
 16 17  1  0
 17 18  2  0
 18 19  1  0
 19 20  1  0
 20 21  2  0
 21 22  1  0
 16 23  1  0
 23 24  1  0
 24 25  1  0
 25 26  1  0
 26 27  2  0
 27 28  1  0
 28 29  2  0
 29 30  1  0
 29 31  1  0
 31 32  2  0
  7 33  1  0
 33 34  2  0
 34  4  1  0
 23 13  2  0
 32 26  1  0
 21 17  1  0
  1 35  1  0
  1 36  1  0
  1 37  1  0
  3 38  1  0
  3 39  1  0
  3 40  1  0
  5 41  1  0
  6 42  1  0
  8 43  1  0
 10 44  1  0
 22 45  1  0
 22 46  1  0
 24 47  1  0
 24 48  1  0
 27 49  1  0
 28 50  1  0
 31 51  1  0
 32 52  1  0
 33 53  1  0
 34 54  1  0
M  END
$$$$
