
     RDKit          3D

 51 53  0  0  0  0  0  0  0  0999 V2000
  -10.2971    0.1799   -0.4047 C   0  0  0  0  0  0  0  0  0  0  0  0
   -8.8020    0.2088   -0.2934 C   0  0  0  0  0  0  0  0  0  0  0  0
   -8.0224    0.7229   -1.3340 C   0  0  0  0  0  0  0  0  0  0  0  0
   -6.6277    0.7813   -1.2226 C   0  0  0  0  0  0  0  0  0  0  0  0
   -5.9904    0.3363   -0.0648 C   0  0  0  0  0  0  0  0  0  0  0  0
   -4.5929    0.3601    0.1302 N   0  0  0  0  0  0  0  0  0  0  0  0
   -3.6194    0.7953   -0.7638 C   0  0  0  0  0  0  0  0  0  0  0  0
   -3.8207    1.2382   -1.8897 O   0  0  0  0  0  0  0  0  0  0  0  0
   -2.2094    0.6686   -0.1678 C   0  0  0  0  0  0  0  0  0  0  0  0
   -1.2081    0.9571   -1.1323 O   0  0  0  0  0  0  0  0  0  0  0  0
    0.0900    0.7479   -0.7615 C   0  0  0  0  0  0  0  0  0  0  0  0
    0.5476    0.5425    0.5402 C   0  0  0  0  0  0  0  0  0  0  0  0
    1.9125    0.3448    0.7823 C   0  0  0  0  0  0  0  0  0  0  0  0
    2.8217    0.3225   -0.2789 C   0  0  0  0  0  0  0  0  0  0  0  0
    4.2448    0.2077   -0.0779 N   0  0  0  0  0  0  0  0  0  0  0  0
    4.9028    1.4927    0.2638 C   0  0  0  0  0  0  0  0  0  0  0  0
    4.7279   -1.1314    0.8798 S   0  0  0  0  0  6  0  0  0  0  0  0
    4.7044   -0.7225    2.2707 O   0  0  0  0  0  0  0  0  0  0  0  0
    4.0292   -2.3202    0.4382 O   0  0  0  0  0  0  0  0  0  0  0  0
    6.4308   -1.3390    0.4005 C   0  0  0  0  0  0  0  0  0  0  0  0
    6.7153   -1.7919   -0.8942 C   0  0  0  0  0  0  0  0  0  0  0  0
    8.0439   -1.9715   -1.2792 C   0  0  0  0  0  0  0  0  0  0  0  0
    9.0645   -1.7045   -0.3704 C   0  0  0  0  0  0  0  0  0  0  0  0
   10.3390   -1.8783   -0.7431 F   0  0  0  0  0  0  0  0  0  0  0  0
    8.7842   -1.2630    0.9205 C   0  0  0  0  0  0  0  0  0  0  0  0
    7.4581   -1.0809    1.3155 C   0  0  0  0  0  0  0  0  0  0  0  0
    2.3694    0.5721   -1.5740 C   0  0  0  0  0  0  0  0  0  0  0  0
    1.0088    0.7761   -1.8130 C   0  0  0  0  0  0  0  0  0  0  0  0
   -6.7731   -0.1649    0.9834 C   0  0  0  0  0  0  0  0  0  0  0  0
   -8.1663   -0.2239    0.8732 C   0  0  0  0  0  0  0  0  0  0  0  0
  -10.6090    0.0466   -1.4463 H   0  0  0  0  0  0  0  0  0  0  0  0
  -10.7184    1.1163   -0.0267 H   0  0  0  0  0  0  0  0  0  0  0  0
  -10.7151   -0.6537    0.1689 H   0  0  0  0  0  0  0  0  0  0  0  0
   -8.4917    1.0837   -2.2470 H   0  0  0  0  0  0  0  0  0  0  0  0
   -6.0723    1.1840   -2.0638 H   0  0  0  0  0  0  0  0  0  0  0  0
   -4.2723    0.0053    1.0219 H   0  0  0  0  0  0  0  0  0  0  0  0
   -2.0937   -0.3588    0.2002 H   0  0  0  0  0  0  0  0  0  0  0  0
   -2.1471    1.3841    0.6611 H   0  0  0  0  0  0  0  0  0  0  0  0
   -0.1231    0.5442    1.3925 H   0  0  0  0  0  0  0  0  0  0  0  0
    2.2482    0.2096    1.8071 H   0  0  0  0  0  0  0  0  0  0  0  0
    4.6149    1.8329    1.2629 H   0  0  0  0  0  0  0  0  0  0  0  0
    4.6199    2.2653   -0.4590 H   0  0  0  0  0  0  0  0  0  0  0  0
    5.9907    1.4000    0.2115 H   0  0  0  0  0  0  0  0  0  0  0  0
    5.9108   -2.0080   -1.5942 H   0  0  0  0  0  0  0  0  0  0  0  0
    8.2909   -2.3229   -2.2767 H   0  0  0  0  0  0  0  0  0  0  0  0
    9.6004   -1.0711    1.6104 H   0  0  0  0  0  0  0  0  0  0  0  0
    7.2375   -0.7460    2.3270 H   0  0  0  0  0  0  0  0  0  0  0  0
    3.0694    0.5986   -2.4040 H   0  0  0  0  0  0  0  0  0  0  0  0
    0.6599    0.9549   -2.8273 H   0  0  0  0  0  0  0  0  0  0  0  0
   -6.3147   -0.5167    1.9039 H   0  0  0  0  0  0  0  0  0  0  0  0
   -8.7507   -0.6113    1.7050 H   0  0  0  0  0  0  0  0  0  0  0  0
  1  2  1  0
  2  3  2  0
  3  4  1  0
  4  5  2  0
  5  6  1  0
  6  7  1  0
  7  8  2  0
  7  9  1  0
  9 10  1  0
 10 11  1  0
 11 12  2  0
 12 13  1  0
 13 14  2  0
 14 15  1  0
 15 16  1  0
 15 17  1  0
 17 18  2  0
 17 19  2  0
 17 20  1  0
 20 21  2  0
 21 22  1  0
 22 23  2  0
 23 24  1  0
 23 25  1  0
 25 26  2  0
 14 27  1  0
 27 28  2  0
  5 29  1  0
 29 30  2  0
 30  2  1  0
 28 11  1  0
 26 20  1  0
  1 31  1  0
  1 32  1  0
  1 33  1  0
  3 34  1  0
  4 35  1  0
  6 36  1  0
  9 37  1  0
  9 38  1  0
 12 39  1  0
 13 40  1  0
 16 41  1  0
 16 42  1  0
 16 43  1  0
 21 44  1  0
 22 45  1  0
 25 46  1  0
 26 47  1  0
 27 48  1  0
 28 49  1  0
 29 50  1  0
 30 51  1  0
M  END
$$$$
