
     RDKit          3D

 67 69  0  0  0  0  0  0  0  0999 V2000
    6.4692   -4.1889   -1.5938 C   0  0  0  0  0  0  0  0  0  0  0  0
    7.1133   -3.2232   -0.6130 C   0  0  0  0  0  0  0  0  0  0  0  0
    6.9726   -1.8691   -1.0389 O   0  0  0  0  0  0  0  0  0  0  0  0
    5.7634   -1.2454   -0.9034 C   0  0  0  0  0  0  0  0  0  0  0  0
    4.7368   -1.6692   -0.0545 C   0  0  0  0  0  0  0  0  0  0  0  0
    3.5203   -0.9756   -0.0050 C   0  0  0  0  0  0  0  0  0  0  0  0
    3.3082    0.1542   -0.8023 C   0  0  0  0  0  0  0  0  0  0  0  0
    1.9902    0.8886   -0.7680 C   0  0  0  0  0  0  0  0  0  0  0  0
    0.9181    0.1708   -1.5935 C   0  0  0  0  0  0  0  0  0  0  0  0
   -0.2658    0.9800   -1.8300 N   0  0  0  0  0  0  0  0  0  0  0  0
   -1.1199    1.3174   -0.7962 C   0  0  0  0  0  0  0  0  0  0  0  0
   -0.8835    1.0607    0.3811 O   0  0  0  0  0  0  0  0  0  0  0  0
   -2.3782    2.0737   -1.2477 C   0  0  0  0  0  0  0  0  0  0  0  0
   -3.5596    1.7547   -0.5213 O   0  0  0  0  0  0  0  0  0  0  0  0
   -3.9898    0.4858   -0.7158 C   0  0  0  0  0  0  0  0  0  0  0  0
   -3.4875   -0.3315   -1.4738 O   0  0  0  0  0  0  0  0  0  0  0  0
   -5.2584    0.2348    0.0112 C   0  0  0  0  0  0  0  0  0  0  0  0
   -6.2567   -0.3884   -0.7646 C   0  0  0  0  0  0  0  0  0  0  0  0
   -7.5228   -0.6067   -0.2221 C   0  0  0  0  0  0  0  0  0  0  0  0
   -8.5752   -1.2230   -1.0374 N   0  0  0  0  0  4  0  0  0  0  0  0
   -8.2820   -1.5736   -2.1884 O   0  0  0  0  0  0  0  0  0  0  0  0
   -9.6963   -1.3517   -0.5266 O   0  0  0  0  0  1  0  0  0  0  0  0
   -7.7986   -0.2144    1.0857 C   0  0  0  0  0  0  0  0  0  0  0  0
   -6.7931    0.3871    1.8535 C   0  0  0  0  0  0  0  0  0  0  0  0
   -5.4928    0.6168    1.3578 C   0  0  0  0  0  0  0  0  0  0  0  0
   -4.5140    1.1963    2.1626 N   0  0  0  0  0  0  0  0  0  0  0  0
   -3.2677    0.4230    2.4002 C   0  0  0  0  0  0  0  0  0  0  0  0
   -3.3502   -0.3324    3.7373 C   0  0  0  0  0  0  0  0  0  0  0  0
   -3.6119    0.5609    4.8343 O   0  0  0  0  0  0  0  0  0  0  0  0
   -4.8508    1.2581    4.6314 C   0  0  0  0  0  0  0  0  0  0  0  0
   -4.8491    2.0553    3.3167 C   0  0  0  0  0  0  0  0  0  0  0  0
    4.3344    0.5810   -1.6503 C   0  0  0  0  0  0  0  0  0  0  0  0
    5.5573   -0.0955   -1.6804 C   0  0  0  0  0  0  0  0  0  0  0  0
    6.4853    0.4004   -2.5637 O   0  0  0  0  0  0  0  0  0  0  0  0
    7.6689    0.8560   -1.9008 C   0  0  0  0  0  0  0  0  0  0  0  0
    8.2880    1.9431   -2.7591 C   0  0  0  0  0  0  0  0  0  0  0  0
    5.3811   -4.0774   -1.6076 H   0  0  0  0  0  0  0  0  0  0  0  0
    6.8248   -3.9963   -2.6120 H   0  0  0  0  0  0  0  0  0  0  0  0
    6.7067   -5.2235   -1.3268 H   0  0  0  0  0  0  0  0  0  0  0  0
    6.7672   -3.3757    0.4148 H   0  0  0  0  0  0  0  0  0  0  0  0
    8.1900   -3.4242   -0.5969 H   0  0  0  0  0  0  0  0  0  0  0  0
    4.8450   -2.5376    0.5866 H   0  0  0  0  0  0  0  0  0  0  0  0
    2.7349   -1.3275    0.6618 H   0  0  0  0  0  0  0  0  0  0  0  0
    1.6693    0.9922    0.2761 H   0  0  0  0  0  0  0  0  0  0  0  0
    2.1281    1.9160   -1.1345 H   0  0  0  0  0  0  0  0  0  0  0  0
    0.6072   -0.7592   -1.0996 H   0  0  0  0  0  0  0  0  0  0  0  0
    1.3103   -0.0947   -2.5813 H   0  0  0  0  0  0  0  0  0  0  0  0
   -0.6860    0.8921   -2.7465 H   0  0  0  0  0  0  0  0  0  0  0  0
   -2.1788    3.1394   -1.0959 H   0  0  0  0  0  0  0  0  0  0  0  0
   -2.5582    1.9361   -2.3207 H   0  0  0  0  0  0  0  0  0  0  0  0
   -6.0335   -0.6747   -1.7917 H   0  0  0  0  0  0  0  0  0  0  0  0
   -8.7811   -0.3666    1.5289 H   0  0  0  0  0  0  0  0  0  0  0  0
   -7.0560    0.6617    2.8711 H   0  0  0  0  0  0  0  0  0  0  0  0
   -3.0466   -0.2874    1.5982 H   0  0  0  0  0  0  0  0  0  0  0  0
   -2.4414    1.1402    2.4552 H   0  0  0  0  0  0  0  0  0  0  0  0
   -4.1325   -1.1006    3.7109 H   0  0  0  0  0  0  0  0  0  0  0  0
   -2.3965   -0.8324    3.9393 H   0  0  0  0  0  0  0  0  0  0  0  0
   -4.9835    1.9438    5.4738 H   0  0  0  0  0  0  0  0  0  0  0  0
   -5.6689    0.5306    4.6673 H   0  0  0  0  0  0  0  0  0  0  0  0
   -4.0655    2.8204    3.3843 H   0  0  0  0  0  0  0  0  0  0  0  0
   -5.7927    2.5922    3.1748 H   0  0  0  0  0  0  0  0  0  0  0  0
    4.1966    1.4475   -2.2913 H   0  0  0  0  0  0  0  0  0  0  0  0
    7.4471    1.2672   -0.9087 H   0  0  0  0  0  0  0  0  0  0  0  0
    8.3824    0.0313   -1.8027 H   0  0  0  0  0  0  0  0  0  0  0  0
    8.5316    1.5532   -3.7523 H   0  0  0  0  0  0  0  0  0  0  0  0
    7.5800    2.7659   -2.9080 H   0  0  0  0  0  0  0  0  0  0  0  0
    9.1971    2.3375   -2.2978 H   0  0  0  0  0  0  0  0  0  0  0  0
  1  2  1  0
  2  3  1  0
  3  4  1  0
  4  5  2  0
  5  6  1  0
  6  7  2  0
  7  8  1  0
  8  9  1  0
  9 10  1  0
 10 11  1  0
 11 12  2  0
 11 13  1  0
 13 14  1  0
 14 15  1  0
 15 16  2  0
 15 17  1  0
 17 18  2  0
 18 19  1  0
 19 20  1  0
 20 21  2  0
 20 22  1  0
 19 23  2  0
 23 24  1  0
 24 25  2  0
 25 26  1  0
 26 27  1  0
 27 28  1  0
 28 29  1  0
 29 30  1  0
 30 31  1  0
  7 32  1  0
 32 33  2  0
 33 34  1  0
 34 35  1  0
 35 36  1  0
 33  4  1  0
 25 17  1  0
 31 26  1  0
  1 37  1  0
  1 38  1  0
  1 39  1  0
  2 40  1  0
  2 41  1  0
  5 42  1  0
  6 43  1  0
  8 44  1  0
  8 45  1  0
  9 46  1  0
  9 47  1  0
 10 48  1  0
 13 49  1  0
 13 50  1  0
 18 51  1  0
 23 52  1  0
 24 53  1  0
 27 54  1  0
 27 55  1  0
 28 56  1  0
 28 57  1  0
 30 58  1  0
 30 59  1  0
 31 60  1  0
 31 61  1  0
 32 62  1  0
 35 63  1  0
 35 64  1  0
 36 65  1  0
 36 66  1  0
 36 67  1  0
M  CHG  2  20   1  22  -1
M  END
$$$$
