
     RDKit          3D

 50 53  0  0  0  0  0  0  0  0999 V2000
   -5.8968    1.8863    2.0377 C   0  0  0  0  0  0  0  0  0  0  0  0
   -4.6318    1.6631    1.3406 N   0  0  0  0  0  0  0  0  0  0  0  0
   -3.7242    0.8311    2.1572 C   0  0  0  0  0  0  0  0  0  0  0  0
   -2.3693    0.6018    1.4563 C   0  0  0  0  0  0  0  0  0  0  0  0
   -2.5186    0.0101    0.1046 N   0  0  0  0  0  0  0  0  0  0  0  0
   -2.4416   -1.3989    0.0957 C   0  0  0  0  0  0  0  0  0  0  0  0
   -3.5580   -2.2343    0.2134 C   0  0  0  0  0  0  0  0  0  0  0  0
   -3.4136   -3.6240    0.2415 C   0  0  0  0  0  0  0  0  0  0  0  0
   -2.1492   -4.1991    0.1515 C   0  0  0  0  0  0  0  0  0  0  0  0
   -1.0201   -3.3904    0.0247 C   0  0  0  0  0  0  0  0  0  0  0  0
   -1.1583   -2.0023   -0.0102 C   0  0  0  0  0  0  0  0  0  0  0  0
   -0.0827   -1.1054   -0.1852 N   0  0  0  0  0  0  0  0  0  0  0  0
    1.2680   -1.3694   -0.2886 C   0  0  0  0  0  0  0  0  0  0  0  0
    1.7618   -2.4903   -0.1994 O   0  0  0  0  0  0  0  0  0  0  0  0
    2.0822   -0.1798   -0.5053 C   0  0  0  0  0  0  0  0  0  0  0  0
    1.7907    1.1628   -0.6772 C   0  0  0  0  0  0  0  0  0  0  0  0
    3.0278    1.8360   -0.8469 C   0  0  0  0  0  0  0  0  0  0  0  0
    4.0165    0.8766   -0.7722 C   0  0  0  0  0  0  0  0  0  0  0  0
    5.4749    0.8932   -0.8639 C   0  0  0  0  0  0  0  0  0  0  0  0
    6.2229   -0.2893   -0.7538 C   0  0  0  0  0  0  0  0  0  0  0  0
    7.6189   -0.2710   -0.8417 C   0  0  0  0  0  0  0  0  0  0  0  0
    8.2925    0.9341   -1.0419 C   0  0  0  0  0  0  0  0  0  0  0  0
   10.0160    0.8889   -1.1413 Cl  0  0  0  0  0  0  0  0  0  0  0  0
    7.5632    2.1211   -1.1539 C   0  0  0  0  0  0  0  0  0  0  0  0
    8.3236    3.6540   -1.4024 Cl  0  0  0  0  0  0  0  0  0  0  0  0
    6.1648    2.0979   -1.0652 C   0  0  0  0  0  0  0  0  0  0  0  0
    3.4417   -0.3431   -0.5657 O   0  0  0  0  0  0  0  0  0  0  0  0
   -3.5574    0.6622   -0.7227 C   0  0  0  0  0  0  0  0  0  0  0  0
   -4.8606    1.0034    0.0390 C   0  0  0  0  0  0  0  0  0  0  0  0
   -6.4246    0.9502    2.2528 H   0  0  0  0  0  0  0  0  0  0  0  0
   -5.7252    2.4102    2.9845 H   0  0  0  0  0  0  0  0  0  0  0  0
   -6.5566    2.5245    1.4397 H   0  0  0  0  0  0  0  0  0  0  0  0
   -3.5293    1.3346    3.1119 H   0  0  0  0  0  0  0  0  0  0  0  0
   -4.1895   -0.1359    2.3877 H   0  0  0  0  0  0  0  0  0  0  0  0
   -1.7215   -0.0107    2.0963 H   0  0  0  0  0  0  0  0  0  0  0  0
   -1.8602    1.5674    1.3407 H   0  0  0  0  0  0  0  0  0  0  0  0
   -4.5567   -1.8280    0.3083 H   0  0  0  0  0  0  0  0  0  0  0  0
   -4.2908   -4.2586    0.3398 H   0  0  0  0  0  0  0  0  0  0  0  0
   -2.0380   -5.2803    0.1742 H   0  0  0  0  0  0  0  0  0  0  0  0
   -0.0509   -3.8711   -0.0574 H   0  0  0  0  0  0  0  0  0  0  0  0
   -0.4090   -0.1479   -0.2528 H   0  0  0  0  0  0  0  0  0  0  0  0
    0.8095    1.6159   -0.6861 H   0  0  0  0  0  0  0  0  0  0  0  0
    3.1715    2.8953   -1.0066 H   0  0  0  0  0  0  0  0  0  0  0  0
    5.7224   -1.2448   -0.5975 H   0  0  0  0  0  0  0  0  0  0  0  0
    8.1701   -1.2043   -0.7526 H   0  0  0  0  0  0  0  0  0  0  0  0
    5.6180    3.0333   -1.1552 H   0  0  0  0  0  0  0  0  0  0  0  0
   -3.1249    1.6009   -1.0925 H   0  0  0  0  0  0  0  0  0  0  0  0
   -3.7860    0.0633   -1.6131 H   0  0  0  0  0  0  0  0  0  0  0  0
   -5.4565    1.6667   -0.6003 H   0  0  0  0  0  0  0  0  0  0  0  0
   -5.4553    0.0941    0.1787 H   0  0  0  0  0  0  0  0  0  0  0  0
  1  2  1  0
  2  3  1  0
  3  4  1  0
  4  5  1  0
  5  6  1  0
  6  7  2  0
  7  8  1  0
  8  9  2  0
  9 10  1  0
 10 11  2  0
 11 12  1  0
 12 13  1  0
 13 14  2  0
 13 15  1  0
 15 16  2  0
 16 17  1  0
 17 18  2  0
 18 19  1  0
 19 20  2  0
 20 21  1  0
 21 22  2  0
 22 23  1  0
 22 24  1  0
 24 25  1  0
 24 26  2  0
 18 27  1  0
  5 28  1  0
 28 29  1  0
 29  2  1  0
 11  6  1  0
 27 15  1  0
 26 19  1  0
  1 30  1  0
  1 31  1  0
  1 32  1  0
  3 33  1  0
  3 34  1  0
  4 35  1  0
  4 36  1  0
  7 37  1  0
  8 38  1  0
  9 39  1  0
 10 40  1  0
 12 41  1  0
 16 42  1  0
 17 43  1  0
 20 44  1  0
 21 45  1  0
 26 46  1  0
 28 47  1  0
 28 48  1  0
 29 49  1  0
 29 50  1  0
M  END
$$$$
