
     RDKit          3D

 44 46  0  0  0  0  0  0  0  0999 V2000
   -4.4207    0.0033    0.9719 C   0  0  0  0  0  0  0  0  0  0  0  0
   -3.0618   -0.6129    1.1691 C   0  0  0  0  0  0  0  0  0  0  0  0
   -2.1880   -0.0586    2.1207 C   0  0  0  0  0  0  0  0  0  0  0  0
   -0.9018   -0.5810    2.3521 C   0  0  0  0  0  0  0  0  0  0  0  0
   -0.0570    0.0749    3.4064 C   0  0  0  0  0  0  0  0  0  0  0  0
   -0.4963   -1.6877    1.5904 C   0  0  0  0  0  0  0  0  0  0  0  0
    1.1155   -2.4580    1.7277 S   0  0  0  0  0  6  0  0  0  0  0  0
    0.9222   -3.8827    1.5449 O   0  0  0  0  0  0  0  0  0  0  0  0
    1.8173   -1.9548    2.8875 O   0  0  0  0  0  0  0  0  0  0  0  0
    1.9064   -1.9175    0.3292 N   0  0  0  0  0  0  0  0  0  0  0  0
    2.0350   -0.5168    0.1174 C   0  0  0  0  0  0  0  0  0  0  0  0
    2.9342    0.2245    0.8815 C   0  0  0  0  0  0  0  0  0  0  0  0
    3.0302    1.6048    0.7025 C   0  0  0  0  0  0  0  0  0  0  0  0
    2.2166    2.2377   -0.2386 C   0  0  0  0  0  0  0  0  0  0  0  0
    2.3081    3.5933   -0.4031 O   0  0  0  0  0  0  0  0  0  0  0  0
    1.3059    1.5011   -1.0098 C   0  0  0  0  0  0  0  0  0  0  0  0
    0.2287    2.2783   -2.2033 S   0  0  0  0  0  0  0  0  0  0  0  0
    1.1719    2.1518   -3.6663 C   0  0  0  0  0  0  0  0  0  0  0  0
    2.2455    1.3108   -3.8246 N   0  0  0  0  0  0  0  0  0  0  0  0
    2.6228    1.5371   -5.0600 C   0  0  0  0  0  0  0  0  0  0  0  0
    1.7999    2.4591   -5.6219 N   0  0  0  0  0  0  0  0  0  0  0  0
    0.8527    2.8548   -4.7600 N   0  0  0  0  0  0  0  0  0  0  0  0
    1.2188    0.1155   -0.8208 C   0  0  0  0  0  0  0  0  0  0  0  0
   -1.3743   -2.2645    0.6532 C   0  0  0  0  0  0  0  0  0  0  0  0
   -2.6529   -1.7353    0.4309 C   0  0  0  0  0  0  0  0  0  0  0  0
   -3.5534   -2.3780   -0.5882 C   0  0  0  0  0  0  0  0  0  0  0  0
   -4.5440    0.3284   -0.0660 H   0  0  0  0  0  0  0  0  0  0  0  0
   -5.2046   -0.7172    1.2254 H   0  0  0  0  0  0  0  0  0  0  0  0
   -4.5611    0.8828    1.6093 H   0  0  0  0  0  0  0  0  0  0  0  0
   -2.5209    0.8050    2.6970 H   0  0  0  0  0  0  0  0  0  0  0  0
    0.1287   -0.6176    4.2327 H   0  0  0  0  0  0  0  0  0  0  0  0
   -0.5581    0.9507    3.8340 H   0  0  0  0  0  0  0  0  0  0  0  0
    0.8858    0.4327    2.9865 H   0  0  0  0  0  0  0  0  0  0  0  0
    1.6718   -2.4922   -0.4785 H   0  0  0  0  0  0  0  0  0  0  0  0
    3.5635   -0.2686    1.6193 H   0  0  0  0  0  0  0  0  0  0  0  0
    3.7364    2.1657    1.3068 H   0  0  0  0  0  0  0  0  0  0  0  0
    3.0045    3.9408    0.1767 H   0  0  0  0  0  0  0  0  0  0  0  0
    3.4518    1.0799   -5.5807 H   0  0  0  0  0  0  0  0  0  0  0  0
    1.8170    2.8512   -6.5566 H   0  0  0  0  0  0  0  0  0  0  0  0
    0.5099   -0.4624   -1.4072 H   0  0  0  0  0  0  0  0  0  0  0  0
   -1.0572   -3.1402    0.0879 H   0  0  0  0  0  0  0  0  0  0  0  0
   -3.0771   -3.2466   -1.0551 H   0  0  0  0  0  0  0  0  0  0  0  0
   -3.7942   -1.6668   -1.3847 H   0  0  0  0  0  0  0  0  0  0  0  0
   -4.4774   -2.7250   -0.1153 H   0  0  0  0  0  0  0  0  0  0  0  0
  1  2  1  0
  2  3  2  0
  3  4  1  0
  4  5  1  0
  4  6  2  0
  6  7  1  0
  7  8  2  0
  7  9  2  0
  7 10  1  0
 10 11  1  0
 11 12  2  0
 12 13  1  0
 13 14  2  0
 14 15  1  0
 14 16  1  0
 16 17  1  0
 17 18  1  0
 18 19  1  0
 19 20  2  0
 20 21  1  0
 21 22  1  0
 16 23  2  0
  6 24  1  0
 24 25  2  0
 25 26  1  0
 25  2  1  0
 23 11  1  0
 22 18  2  0
  1 27  1  0
  1 28  1  0
  1 29  1  0
  3 30  1  0
  5 31  1  0
  5 32  1  0
  5 33  1  0
 10 34  1  0
 12 35  1  0
 13 36  1  0
 15 37  1  0
 20 38  1  0
 21 39  1  0
 23 40  1  0
 24 41  1  0
 26 42  1  0
 26 43  1  0
 26 44  1  0
M  END
$$$$
