
     RDKit          3D

 58 62  0  0  0  0  0  0  0  0999 V2000
    5.3930    5.0005    2.1241 C   0  0  0  0  0  0  0  0  0  0  0  0
    4.8384    4.4265    0.9496 O   0  0  0  0  0  0  0  0  0  0  0  0
    4.1269    3.2606    1.0866 C   0  0  0  0  0  0  0  0  0  0  0  0
    3.7954    2.6773    2.3125 C   0  0  0  0  0  0  0  0  0  0  0  0
    3.0572    1.4898    2.3542 C   0  0  0  0  0  0  0  0  0  0  0  0
    2.6409    0.8627    1.1745 C   0  0  0  0  0  0  0  0  0  0  0  0
    1.8665   -0.3748    1.1886 C   0  0  0  0  0  0  0  0  0  0  0  0
    1.5021   -1.1404    0.1785 N   0  0  0  0  0  0  0  0  0  0  0  0
    0.7403   -2.1367    0.7543 C   0  0  0  0  0  0  0  0  0  0  0  0
    0.1186   -3.1892   -0.0919 C   0  0  0  0  0  0  0  0  0  0  0  0
   -1.3312   -3.1828    0.0234 N   0  0  0  0  0  0  0  0  0  0  0  0
   -2.2078   -2.2846   -0.5380 C   0  0  0  0  0  0  0  0  0  0  0  0
   -1.7057   -0.9693   -1.5463 S   0  0  0  0  0  0  0  0  0  0  0  0
   -3.3018   -0.1717   -1.8746 C   0  0  0  0  0  0  0  0  0  0  0  0
   -3.1365    1.0541   -2.7394 C   0  0  0  0  0  0  0  0  0  0  0  0
   -3.0008    2.3271   -2.1599 C   0  0  0  0  0  0  0  0  0  0  0  0
   -2.8453    3.4623   -2.9606 C   0  0  0  0  0  0  0  0  0  0  0  0
   -2.8164    3.3357   -4.3475 C   0  0  0  0  0  0  0  0  0  0  0  0
   -2.9313    2.0747   -4.9228 C   0  0  0  0  0  0  0  0  0  0  0  0
   -2.8863    1.9512   -6.2570 F   0  0  0  0  0  0  0  0  0  0  0  0
   -3.0902    0.9374   -4.1374 C   0  0  0  0  0  0  0  0  0  0  0  0
   -3.4539   -2.5503   -0.2208 N   0  0  0  0  0  0  0  0  0  0  0  0
   -3.3984   -3.6831    0.5496 C   0  0  0  0  0  0  0  0  0  0  0  0
   -4.4373   -4.3985    1.1437 C   0  0  0  0  0  0  0  0  0  0  0  0
   -4.0601   -5.5207    1.8618 C   0  0  0  0  0  0  0  0  0  0  0  0
   -2.7847   -5.9494    2.0129 N   0  0  0  0  0  0  0  0  0  0  0  0
   -1.7782   -5.2569    1.4329 C   0  0  0  0  0  0  0  0  0  0  0  0
   -2.0853   -4.1155    0.7061 C   0  0  0  0  0  0  0  0  0  0  0  0
    0.7098   -1.9487    2.1225 C   0  0  0  0  0  0  0  0  0  0  0  0
    0.0983   -2.6520    3.2644 C   0  0  0  0  0  0  0  0  0  0  0  0
    1.4264   -0.8208    2.4060 O   0  0  0  0  0  0  0  0  0  0  0  0
    2.9758    1.4523   -0.0544 C   0  0  0  0  0  0  0  0  0  0  0  0
    3.7066    2.6458   -0.1092 C   0  0  0  0  0  0  0  0  0  0  0  0
    4.0677    3.2787   -1.2737 O   0  0  0  0  0  0  0  0  0  0  0  0
    3.5306    2.7763   -2.4879 C   0  0  0  0  0  0  0  0  0  0  0  0
    6.0742    4.3036    2.6208 H   0  0  0  0  0  0  0  0  0  0  0  0
    4.6065    5.3406    2.8045 H   0  0  0  0  0  0  0  0  0  0  0  0
    5.9751    5.8780    1.8261 H   0  0  0  0  0  0  0  0  0  0  0  0
    4.0889    3.1244    3.2564 H   0  0  0  0  0  0  0  0  0  0  0  0
    2.8106    1.0611    3.3231 H   0  0  0  0  0  0  0  0  0  0  0  0
    0.4911   -4.1760    0.2015 H   0  0  0  0  0  0  0  0  0  0  0  0
    0.3692   -3.0571   -1.1498 H   0  0  0  0  0  0  0  0  0  0  0  0
   -3.7812    0.1076   -0.9283 H   0  0  0  0  0  0  0  0  0  0  0  0
   -3.9714   -0.8817   -2.3760 H   0  0  0  0  0  0  0  0  0  0  0  0
   -3.0112    2.4395   -1.0790 H   0  0  0  0  0  0  0  0  0  0  0  0
   -2.7480    4.4429   -2.5019 H   0  0  0  0  0  0  0  0  0  0  0  0
   -2.6947    4.2070   -4.9824 H   0  0  0  0  0  0  0  0  0  0  0  0
   -3.1662   -0.0326   -4.6213 H   0  0  0  0  0  0  0  0  0  0  0  0
   -5.4702   -4.0935    1.0456 H   0  0  0  0  0  0  0  0  0  0  0  0
   -4.8092   -6.1348    2.3558 H   0  0  0  0  0  0  0  0  0  0  0  0
   -0.7758   -5.6396    1.5800 H   0  0  0  0  0  0  0  0  0  0  0  0
    0.4685   -2.2592    4.2164 H   0  0  0  0  0  0  0  0  0  0  0  0
   -0.9894   -2.5324    3.2511 H   0  0  0  0  0  0  0  0  0  0  0  0
    0.3331   -3.7195    3.2297 H   0  0  0  0  0  0  0  0  0  0  0  0
    2.6491    0.9548   -0.9632 H   0  0  0  0  0  0  0  0  0  0  0  0
    3.8507    3.4423   -3.2958 H   0  0  0  0  0  0  0  0  0  0  0  0
    3.9217    1.7775   -2.7061 H   0  0  0  0  0  0  0  0  0  0  0  0
    2.4357    2.7791   -2.4705 H   0  0  0  0  0  0  0  0  0  0  0  0
  1  2  1  0
  2  3  1  0
  3  4  2  0
  4  5  1  0
  5  6  2  0
  6  7  1  0
  7  8  2  0
  8  9  1  0
  9 10  1  0
 10 11  1  0
 11 12  1  0
 12 13  1  0
 13 14  1  0
 14 15  1  0
 15 16  2  0
 16 17  1  0
 17 18  2  0
 18 19  1  0
 19 20  1  0
 19 21  2  0
 12 22  2  0
 22 23  1  0
 23 24  2  0
 24 25  1  0
 25 26  2  0
 26 27  1  0
 27 28  2  0
  9 29  2  0
 29 30  1  0
 29 31  1  0
  6 32  1  0
 32 33  2  0
 33 34  1  0
 34 35  1  0
 33  3  1  0
 31  7  1  0
 28 11  1  0
 21 15  1  0
 28 23  1  0
  1 36  1  0
  1 37  1  0
  1 38  1  0
  4 39  1  0
  5 40  1  0
 10 41  1  0
 10 42  1  0
 14 43  1  0
 14 44  1  0
 16 45  1  0
 17 46  1  0
 18 47  1  0
 21 48  1  0
 24 49  1  0
 25 50  1  0
 27 51  1  0
 30 52  1  0
 30 53  1  0
 30 54  1  0
 32 55  1  0
 35 56  1  0
 35 57  1  0
 35 58  1  0
M  END
$$$$
