
     RDKit          3D

 39 41  0  0  0  0  0  0  0  0999 V2000
   -4.1037   -1.1170   -1.2694 C   0  0  0  0  0  0  0  0  0  0  0  0
   -4.0105    0.3187   -0.7706 C   0  0  0  0  0  0  0  0  0  0  0  0
   -2.7513    0.5700   -0.0743 N   0  0  0  0  0  0  0  0  0  0  0  0
   -2.7121    0.2968    1.2847 C   0  0  0  0  0  0  0  0  0  0  0  0
   -3.6660   -0.1427    1.9237 O   0  0  0  0  0  0  0  0  0  0  0  0
   -1.4401    0.5510    1.9752 C   0  0  0  0  0  0  0  0  0  0  0  0
   -1.3614    0.3441    3.3624 C   0  0  0  0  0  0  0  0  0  0  0  0
   -0.1689    0.5813    4.0374 C   0  0  0  0  0  0  0  0  0  0  0  0
    0.9400    1.0243    3.3269 C   0  0  0  0  0  0  0  0  0  0  0  0
    0.8564    1.2279    1.9441 C   0  0  0  0  0  0  0  0  0  0  0  0
   -0.3378    0.9916    1.2440 C   0  0  0  0  0  0  0  0  0  0  0  0
   -0.4587    1.1772   -0.1628 N   0  0  0  0  0  0  0  0  0  0  0  0
    0.6950    1.5930   -0.9684 C   0  0  0  0  0  0  0  0  0  0  0  0
    1.6841    0.4755   -1.2491 C   0  0  0  0  0  0  0  0  0  0  0  0
    1.2564   -0.7534   -1.7791 C   0  0  0  0  0  0  0  0  0  0  0  0
    2.1722   -1.7728   -2.0535 C   0  0  0  0  0  0  0  0  0  0  0  0
    3.5332   -1.5605   -1.8090 C   0  0  0  0  0  0  0  0  0  0  0  0
    4.5004   -2.6275   -2.0938 N   0  0  0  0  0  4  0  0  0  0  0  0
    4.0662   -3.6940   -2.5519 O   0  0  0  0  0  0  0  0  0  0  0  0
    5.6957   -2.3994   -1.8574 O   0  0  0  0  0  1  0  0  0  0  0  0
    3.9810   -0.3352   -1.3010 C   0  0  0  0  0  0  0  0  0  0  0  0
    3.0570    0.6780   -1.0302 C   0  0  0  0  0  0  0  0  0  0  0  0
   -1.6561    0.9514   -0.8377 C   0  0  0  0  0  0  0  0  0  0  0  0
   -1.7385    1.0712   -2.0631 O   0  0  0  0  0  0  0  0  0  0  0  0
   -5.0548   -1.2782   -1.7859 H   0  0  0  0  0  0  0  0  0  0  0  0
   -3.2921   -1.3467   -1.9675 H   0  0  0  0  0  0  0  0  0  0  0  0
   -4.0403   -1.8281   -0.4394 H   0  0  0  0  0  0  0  0  0  0  0  0
   -4.8502    0.5247   -0.0969 H   0  0  0  0  0  0  0  0  0  0  0  0
   -4.1069    1.0070   -1.6180 H   0  0  0  0  0  0  0  0  0  0  0  0
   -2.2318   -0.0026    3.9169 H   0  0  0  0  0  0  0  0  0  0  0  0
   -0.1066    0.4207    5.1109 H   0  0  0  0  0  0  0  0  0  0  0  0
    1.8771    1.2116    3.8470 H   0  0  0  0  0  0  0  0  0  0  0  0
    1.7566    1.5734    1.4481 H   0  0  0  0  0  0  0  0  0  0  0  0
    0.3680    1.9897   -1.9374 H   0  0  0  0  0  0  0  0  0  0  0  0
    1.1797    2.4421   -0.4714 H   0  0  0  0  0  0  0  0  0  0  0  0
    0.2021   -0.9253   -1.9912 H   0  0  0  0  0  0  0  0  0  0  0  0
    1.8088   -2.7150   -2.4592 H   0  0  0  0  0  0  0  0  0  0  0  0
    5.0378   -0.1528   -1.1161 H   0  0  0  0  0  0  0  0  0  0  0  0
    3.4202    1.6300   -0.6466 H   0  0  0  0  0  0  0  0  0  0  0  0
  1  2  1  0
  2  3  1  0
  3  4  1  0
  4  5  2  0
  4  6  1  0
  6  7  2  0
  7  8  1  0
  8  9  2  0
  9 10  1  0
 10 11  2  0
 11 12  1  0
 12 13  1  0
 13 14  1  0
 14 15  2  0
 15 16  1  0
 16 17  2  0
 17 18  1  0
 18 19  2  0
 18 20  1  0
 17 21  1  0
 21 22  2  0
 12 23  1  0
 23 24  2  0
 23  3  1  0
 11  6  1  0
 22 14  1  0
  1 25  1  0
  1 26  1  0
  1 27  1  0
  2 28  1  0
  2 29  1  0
  7 30  1  0
  8 31  1  0
  9 32  1  0
 10 33  1  0
 13 34  1  0
 13 35  1  0
 15 36  1  0
 16 37  1  0
 21 38  1  0
 22 39  1  0
M  CHG  2  18   1  20  -1
M  END
$$$$
