
     RDKit          3D

 36 37  0  0  0  0  0  0  0  0999 V2000
    0.7584    1.7452    0.2726 O   0  0  0  0  0  0  0  0  0  0  0  0
   -0.1178    0.9279    0.5419 C   0  0  0  0  0  0  0  0  0  0  0  0
    0.1588   -0.4571    1.1248 C   0  0  0  0  0  0  0  0  0  0  0  0
    1.5521   -0.7564    1.0694 O   0  0  0  0  0  0  0  0  0  0  0  0
    1.8940   -1.8936    1.7105 C   0  0  0  0  0  0  0  0  0  0  0  0
    1.1657   -2.6286    2.3536 O   0  0  0  0  0  0  0  0  0  0  0  0
    3.3488   -2.0757    1.6032 C   0  0  0  0  0  0  0  0  0  0  0  0
    4.0776   -2.0560    2.8020 C   0  0  0  0  0  0  0  0  0  0  0  0
    5.4606   -2.2147    2.7775 C   0  0  0  0  0  0  0  0  0  0  0  0
    6.1121   -2.4014    1.5591 C   0  0  0  0  0  0  0  0  0  0  0  0
    5.3828   -2.4415    0.3630 C   0  0  0  0  0  0  0  0  0  0  0  0
    6.2781   -2.7012   -1.0953 Cl  0  0  0  0  0  0  0  0  0  0  0  0
    3.9889   -2.2848    0.3740 C   0  0  0  0  0  0  0  0  0  0  0  0
    3.0738   -2.4018   -1.0954 Cl  0  0  0  0  0  0  0  0  0  0  0  0
   -1.4602    1.1907    0.3579 N   0  0  0  0  0  0  0  0  0  0  0  0
   -1.9034    2.4260   -0.2667 C   0  0  0  0  0  0  0  0  0  0  0  0
   -3.4291    2.5394   -0.3550 C   0  0  0  0  0  0  0  0  0  0  0  0
   -4.0045    1.6204   -1.3270 N   0  0  0  0  0  0  0  0  0  0  0  0
   -4.3599    1.9839   -2.6028 C   0  0  0  0  0  0  0  0  0  0  0  0
   -4.2004    3.2797   -2.9899 O   0  0  0  0  0  0  0  0  0  0  0  0
   -4.8339    0.9833   -3.3545 C   0  0  0  0  0  0  0  0  0  0  0  0
   -4.8478   -0.5147   -2.4729 S   0  0  0  0  0  0  0  0  0  0  0  0
   -4.1497    0.2714   -1.0483 C   0  0  0  0  0  0  0  0  0  0  0  0
   -3.8264   -0.3175   -0.0275 O   0  0  0  0  0  0  0  0  0  0  0  0
   -0.3925   -1.2016    0.5392 H   0  0  0  0  0  0  0  0  0  0  0  0
   -0.1903   -0.4537    2.1641 H   0  0  0  0  0  0  0  0  0  0  0  0
    3.5653   -1.9127    3.7520 H   0  0  0  0  0  0  0  0  0  0  0  0
    6.0301   -2.1934    3.7042 H   0  0  0  0  0  0  0  0  0  0  0  0
    7.1933   -2.5243    1.5459 H   0  0  0  0  0  0  0  0  0  0  0  0
   -2.1324    0.4313    0.4739 H   0  0  0  0  0  0  0  0  0  0  0  0
   -1.4475    2.4851   -1.2617 H   0  0  0  0  0  0  0  0  0  0  0  0
   -1.5060    3.2531    0.3324 H   0  0  0  0  0  0  0  0  0  0  0  0
   -3.7142    3.5669   -0.6054 H   0  0  0  0  0  0  0  0  0  0  0  0
   -3.8698    2.3106    0.6234 H   0  0  0  0  0  0  0  0  0  0  0  0
   -4.4887    3.3622   -3.9152 H   0  0  0  0  0  0  0  0  0  0  0  0
   -5.1658    1.0537   -4.3798 H   0  0  0  0  0  0  0  0  0  0  0  0
  1  2  2  0
  2  3  1  0
  3  4  1  0
  4  5  1  0
  5  6  2  0
  5  7  1  0
  7  8  2  0
  8  9  1  0
  9 10  2  0
 10 11  1  0
 11 12  1  0
 11 13  2  0
 13 14  1  0
  2 15  1  0
 15 16  1  0
 16 17  1  0
 17 18  1  0
 18 19  1  0
 19 20  1  0
 19 21  2  0
 21 22  1  0
 22 23  1  0
 23 24  2  0
 13  7  1  0
 23 18  1  0
  3 25  1  0
  3 26  1  0
  8 27  1  0
  9 28  1  0
 10 29  1  0
 15 30  1  0
 16 31  1  0
 16 32  1  0
 17 33  1  0
 17 34  1  0
 20 35  1  0
 21 36  1  0
M  END
$$$$
