
     RDKit          3D

 38 39  0  0  0  0  0  0  0  0999 V2000
   -0.0456   -2.6394    1.0106 C   0  0  0  0  0  0  0  0  0  0  0  0
    0.5710   -1.6991   -0.0040 C   0  0  0  0  0  0  0  0  0  0  0  0
    1.9447   -1.2073    0.3096 C   0  0  0  0  0  0  0  0  0  0  0  0
    2.3237    0.0175   -0.0833 C   0  0  0  0  0  0  0  0  0  0  0  0
    3.6499    0.5903    0.1803 C   0  0  0  0  0  0  0  0  0  0  0  0
    4.3284    0.3893    1.3897 C   0  0  0  0  0  0  0  0  0  0  0  0
    5.5782    0.9754    1.6093 C   0  0  0  0  0  0  0  0  0  0  0  0
    6.1570    1.7759    0.6267 C   0  0  0  0  0  0  0  0  0  0  0  0
    5.4847    1.9965   -0.5733 C   0  0  0  0  0  0  0  0  0  0  0  0
    4.2351    1.4112   -0.7925 C   0  0  0  0  0  0  0  0  0  0  0  0
   -0.0132   -1.3400   -1.1134 N   0  0  0  0  0  0  0  0  0  0  0  0
   -1.2861   -1.8135   -1.3064 N   0  0  0  0  0  0  0  0  0  0  0  0
   -2.3511   -0.9386   -0.9750 C   0  0  0  0  0  0  0  0  0  0  0  0
   -3.4289   -1.0022   -1.7760 N   0  0  0  0  0  0  0  0  0  0  0  0
   -4.4657   -0.1891   -1.4904 C   0  0  0  0  0  0  0  0  0  0  0  0
   -5.6642   -0.2610   -2.3879 C   0  0  0  0  0  0  0  0  0  0  0  0
   -4.4502    0.6814   -0.4206 C   0  0  0  0  0  0  0  0  0  0  0  0
   -3.3099    0.6806    0.3544 C   0  0  0  0  0  0  0  0  0  0  0  0
   -3.1968    1.5913    1.5389 C   0  0  0  0  0  0  0  0  0  0  0  0
   -2.2625   -0.1234    0.0922 N   0  0  0  0  0  0  0  0  0  0  0  0
   -0.3189   -3.5800    0.5238 H   0  0  0  0  0  0  0  0  0  0  0  0
    0.6562   -2.8633    1.8191 H   0  0  0  0  0  0  0  0  0  0  0  0
   -0.9359   -2.1836    1.4510 H   0  0  0  0  0  0  0  0  0  0  0  0
    2.5888   -1.8736    0.8689 H   0  0  0  0  0  0  0  0  0  0  0  0
    1.6397    0.6428   -0.6551 H   0  0  0  0  0  0  0  0  0  0  0  0
    3.8886   -0.2142    2.1794 H   0  0  0  0  0  0  0  0  0  0  0  0
    6.0961    0.8106    2.5505 H   0  0  0  0  0  0  0  0  0  0  0  0
    7.1285    2.2321    0.7979 H   0  0  0  0  0  0  0  0  0  0  0  0
    5.9305    2.6249   -1.3397 H   0  0  0  0  0  0  0  0  0  0  0  0
    3.7247    1.5945   -1.7359 H   0  0  0  0  0  0  0  0  0  0  0  0
   -1.5038   -2.0444   -2.2760 H   0  0  0  0  0  0  0  0  0  0  0  0
   -5.8540    0.7153   -2.8448 H   0  0  0  0  0  0  0  0  0  0  0  0
   -6.5456   -0.5687   -1.8166 H   0  0  0  0  0  0  0  0  0  0  0  0
   -5.5069   -0.9882   -3.1911 H   0  0  0  0  0  0  0  0  0  0  0  0
   -5.2879    1.3304   -0.2004 H   0  0  0  0  0  0  0  0  0  0  0  0
   -3.2900    2.6350    1.2232 H   0  0  0  0  0  0  0  0  0  0  0  0
   -3.9814    1.3640    2.2673 H   0  0  0  0  0  0  0  0  0  0  0  0
   -2.2272    1.4708    2.0326 H   0  0  0  0  0  0  0  0  0  0  0  0
  1  2  1  0
  2  3  1  0
  3  4  2  3
  4  5  1  0
  5  6  2  0
  6  7  1  0
  7  8  2  0
  8  9  1  0
  9 10  2  0
  2 11  2  3
 11 12  1  0
 12 13  1  0
 13 14  2  0
 14 15  1  0
 15 16  1  0
 15 17  2  0
 17 18  1  0
 18 19  1  0
 18 20  2  0
 10  5  1  0
 20 13  1  0
  1 21  1  0
  1 22  1  0
  1 23  1  0
  3 24  1  0
  4 25  1  0
  6 26  1  0
  7 27  1  0
  8 28  1  0
  9 29  1  0
 10 30  1  0
 12 31  1  0
 16 32  1  0
 16 33  1  0
 16 34  1  0
 17 35  1  0
 19 36  1  0
 19 37  1  0
 19 38  1  0
M  END
$$$$
