
     RDKit          3D

 56 58  0  0  0  0  0  0  0  0999 V2000
    3.7295   -2.0632   -4.3203 C   0  0  0  0  0  0  0  0  0  0  0  0
    3.0062   -0.9799   -3.7505 O   0  0  0  0  0  0  0  0  0  0  0  0
    3.0864   -0.8212   -2.3939 C   0  0  0  0  0  0  0  0  0  0  0  0
    3.7645   -1.6620   -1.5137 C   0  0  0  0  0  0  0  0  0  0  0  0
    3.7719   -1.3883   -0.1417 C   0  0  0  0  0  0  0  0  0  0  0  0
    3.0998   -0.2707    0.3582 C   0  0  0  0  0  0  0  0  0  0  0  0
    3.0527    0.0908    1.6844 O   0  0  0  0  0  0  0  0  0  0  0  0
    3.7660   -0.7282    2.6025 C   0  0  0  0  0  0  0  0  0  0  0  0
    2.4036    0.5780   -0.5267 C   0  0  0  0  0  0  0  0  0  0  0  0
    1.7238    1.6764    0.0479 N   0  0  0  0  0  0  0  0  0  0  0  0
    0.9293    2.6156   -0.5815 C   0  0  0  0  0  0  0  0  0  0  0  0
    0.7035    2.6805   -1.7873 O   0  0  0  0  0  0  0  0  0  0  0  0
    0.2643    3.5820    0.3895 C   0  0  0  0  0  0  0  0  0  0  0  0
   -1.4693    3.0986    0.6508 S   0  0  0  0  0  0  0  0  0  0  0  0
   -1.1864    1.4679    1.2213 C   0  0  0  0  0  0  0  0  0  0  0  0
   -0.5568    1.3621    2.3457 N   0  0  0  0  0  0  0  0  0  0  0  0
   -0.3163    0.0823    2.8529 C   0  0  0  0  0  0  0  0  0  0  0  0
    0.3430   -0.0456    4.0783 C   0  0  0  0  0  0  0  0  0  0  0  0
    0.6007   -1.3083    4.6194 C   0  0  0  0  0  0  0  0  0  0  0  0
    0.2025   -2.4560    3.9345 C   0  0  0  0  0  0  0  0  0  0  0  0
   -0.4608   -2.3394    2.7137 C   0  0  0  0  0  0  0  0  0  0  0  0
   -0.7185   -1.0691    2.1847 C   0  0  0  0  0  0  0  0  0  0  0  0
   -1.4371   -0.9039    0.9103 C   0  0  0  0  0  0  0  0  0  0  0  0
   -1.8521   -1.9003    0.3217 O   0  0  0  0  0  0  0  0  0  0  0  0
   -1.6184    0.4007    0.4553 N   0  0  0  0  0  0  0  0  0  0  0  0
   -2.3112    0.5388   -0.8313 C   0  0  0  0  0  0  0  0  0  0  0  0
   -3.8338    0.5684   -0.6634 C   0  0  0  0  0  0  0  0  0  0  0  0
   -4.5240    0.6312   -1.9408 N   0  0  0  0  0  0  0  0  0  0  0  0
   -5.7941    1.1572   -2.0289 C   0  0  0  0  0  0  0  0  0  0  0  0
   -6.4222    1.0244   -3.3909 C   0  0  0  0  0  0  0  0  0  0  0  0
   -6.3701    1.7134   -1.0999 O   0  0  0  0  0  0  0  0  0  0  0  0
    2.4065    0.2952   -1.8946 C   0  0  0  0  0  0  0  0  0  0  0  0
    4.8033   -1.9652   -4.1275 H   0  0  0  0  0  0  0  0  0  0  0  0
    3.5814   -2.0307   -5.4040 H   0  0  0  0  0  0  0  0  0  0  0  0
    3.3481   -3.0245   -3.9605 H   0  0  0  0  0  0  0  0  0  0  0  0
    4.2983   -2.5403   -1.8606 H   0  0  0  0  0  0  0  0  0  0  0  0
    4.3123   -2.0706    0.5052 H   0  0  0  0  0  0  0  0  0  0  0  0
    3.3518   -1.7412    2.6310 H   0  0  0  0  0  0  0  0  0  0  0  0
    3.6517   -0.2924    3.5994 H   0  0  0  0  0  0  0  0  0  0  0  0
    4.8358   -0.7438    2.3705 H   0  0  0  0  0  0  0  0  0  0  0  0
    1.7909    1.7041    1.0642 H   0  0  0  0  0  0  0  0  0  0  0  0
    0.7977    3.6199    1.3441 H   0  0  0  0  0  0  0  0  0  0  0  0
    0.2998    4.5864   -0.0439 H   0  0  0  0  0  0  0  0  0  0  0  0
    0.6533    0.8470    4.6153 H   0  0  0  0  0  0  0  0  0  0  0  0
    1.1097   -1.3938    5.5764 H   0  0  0  0  0  0  0  0  0  0  0  0
    0.3999   -3.4394    4.3545 H   0  0  0  0  0  0  0  0  0  0  0  0
   -0.7812   -3.2316    2.1811 H   0  0  0  0  0  0  0  0  0  0  0  0
   -2.0358   -0.3060   -1.4765 H   0  0  0  0  0  0  0  0  0  0  0  0
   -1.9719    1.4308   -1.3661 H   0  0  0  0  0  0  0  0  0  0  0  0
   -4.1860   -0.3365   -0.1557 H   0  0  0  0  0  0  0  0  0  0  0  0
   -4.1336    1.4209   -0.0441 H   0  0  0  0  0  0  0  0  0  0  0  0
   -4.2420   -0.0289   -2.6558 H   0  0  0  0  0  0  0  0  0  0  0  0
   -7.4600    0.7000   -3.2754 H   0  0  0  0  0  0  0  0  0  0  0  0
   -5.9007    0.2860   -4.0058 H   0  0  0  0  0  0  0  0  0  0  0  0
   -6.3925    1.9940   -3.8948 H   0  0  0  0  0  0  0  0  0  0  0  0
    1.8865    0.9282   -2.6064 H   0  0  0  0  0  0  0  0  0  0  0  0
  1  2  1  0
  2  3  1  0
  3  4  2  0
  4  5  1  0
  5  6  2  0
  6  7  1  0
  7  8  1  0
  6  9  1  0
  9 10  1  0
 10 11  1  0
 11 12  2  0
 11 13  1  0
 13 14  1  0
 14 15  1  0
 15 16  2  0
 16 17  1  0
 17 18  2  0
 18 19  1  0
 19 20  2  0
 20 21  1  0
 21 22  2  0
 22 23  1  0
 23 24  2  0
 23 25  1  0
 25 26  1  0
 26 27  1  0
 27 28  1  0
 28 29  1  0
 29 30  1  0
 29 31  2  0
  9 32  2  0
 32  3  1  0
 25 15  1  0
 22 17  1  0
  1 33  1  0
  1 34  1  0
  1 35  1  0
  4 36  1  0
  5 37  1  0
  8 38  1  0
  8 39  1  0
  8 40  1  0
 10 41  1  0
 13 42  1  0
 13 43  1  0
 18 44  1  0
 19 45  1  0
 20 46  1  0
 21 47  1  0
 26 48  1  0
 26 49  1  0
 27 50  1  0
 27 51  1  0
 28 52  1  0
 30 53  1  0
 30 54  1  0
 30 55  1  0
 32 56  1  0
M  END
$$$$
