
     RDKit          3D

 31 32  0  0  0  0  0  0  0  0999 V2000
   -2.0518    1.3473   -2.2809 C   0  0  0  0  0  0  0  0  0  0  0  0
   -2.8126    0.7461   -1.1672 N   0  0  0  0  0  4  0  0  0  0  0  0
   -4.1464    0.9744   -1.0937 C   0  0  0  0  0  0  0  0  0  0  0  0
   -4.9091    0.4566   -0.0549 C   0  0  0  0  0  0  0  0  0  0  0  0
   -4.2954   -0.3080    0.9235 C   0  0  0  0  0  0  0  0  0  0  0  0
   -2.9289   -0.5405    0.8411 C   0  0  0  0  0  0  0  0  0  0  0  0
   -2.1846   -0.0021   -0.2177 C   0  0  0  0  0  0  0  0  0  0  0  0
   -0.7462   -0.2750   -0.3204 C   0  0  0  0  0  0  0  0  0  0  0  0
    0.1261    0.1040    0.6282 C   0  0  0  0  0  0  0  0  0  0  0  0
    1.5694   -0.1790    0.5807 C   0  0  0  0  0  0  0  0  0  0  0  0
    2.2456   -0.4173    1.7874 C   0  0  0  0  0  0  0  0  0  0  0  0
    3.6225   -0.6666    1.8021 C   0  0  0  0  0  0  0  0  0  0  0  0
    4.3361   -0.6672    0.5990 C   0  0  0  0  0  0  0  0  0  0  0  0
    5.7817   -0.9271    0.6057 N   0  0  0  0  0  4  0  0  0  0  0  0
    6.3703   -0.9158   -0.4843 O   0  0  0  0  0  0  0  0  0  0  0  0
    6.3216   -1.1414    1.6993 O   0  0  0  0  0  1  0  0  0  0  0  0
    3.6801   -0.4155   -0.6119 C   0  0  0  0  0  0  0  0  0  0  0  0
    2.3023   -0.1676   -0.6155 C   0  0  0  0  0  0  0  0  0  0  0  0
   -1.2545    1.9657   -1.8603 H   0  0  0  0  0  0  0  0  0  0  0  0
   -2.7085    1.9751   -2.8885 H   0  0  0  0  0  0  0  0  0  0  0  0
   -1.6531    0.5365   -2.8960 H   0  0  0  0  0  0  0  0  0  0  0  0
   -4.6021    1.5787   -1.8739 H   0  0  0  0  0  0  0  0  0  0  0  0
   -5.9793    0.6489   -0.0095 H   0  0  0  0  0  0  0  0  0  0  0  0
   -4.8771   -0.7260    1.7441 H   0  0  0  0  0  0  0  0  0  0  0  0
   -2.4461   -1.1530    1.6016 H   0  0  0  0  0  0  0  0  0  0  0  0
   -0.4268   -0.8290   -1.1990 H   0  0  0  0  0  0  0  0  0  0  0  0
   -0.2093    0.6335    1.5201 H   0  0  0  0  0  0  0  0  0  0  0  0
    1.7089   -0.4205    2.7352 H   0  0  0  0  0  0  0  0  0  0  0  0
    4.1184   -0.8554    2.7530 H   0  0  0  0  0  0  0  0  0  0  0  0
    4.2255   -0.4036   -1.5544 H   0  0  0  0  0  0  0  0  0  0  0  0
    1.8234    0.0438   -1.5680 H   0  0  0  0  0  0  0  0  0  0  0  0
  1  2  1  0
  2  3  2  0
  3  4  1  0
  4  5  2  0
  5  6  1  0
  6  7  2  0
  7  8  1  0
  8  9  2  3
  9 10  1  0
 10 11  2  0
 11 12  1  0
 12 13  2  0
 13 14  1  0
 14 15  2  0
 14 16  1  0
 13 17  1  0
 17 18  2  0
  7  2  1  0
 18 10  1  0
  1 19  1  0
  1 20  1  0
  1 21  1  0
  3 22  1  0
  4 23  1  0
  5 24  1  0
  6 25  1  0
  8 26  1  0
  9 27  1  0
 11 28  1  0
 12 29  1  0
 17 30  1  0
 18 31  1  0
M  CHG  3   2   1  14   1  16  -1
M  END
$$$$
