
     RDKit          3D

 22 22  0  0  0  0  0  0  0  0999 V2000
    2.3647   -0.7066   -2.4848 N   0  0  0  0  0  0  0  0  0  0  0  0
    1.8637   -1.1158   -1.3776 C   0  0  0  0  0  0  0  0  0  0  0  0
    0.9152   -2.0708   -1.3101 N   0  0  0  0  0  0  0  0  0  0  0  0
    2.4399   -0.4631    0.1185 S   0  0  0  0  0  0  0  0  0  0  0  0
    1.4598    1.0615    0.1624 C   0  0  0  0  0  0  0  0  0  0  0  0
    0.0319    0.7752    0.5139 C   0  0  0  0  0  0  0  0  0  0  0  0
   -0.9952    0.8585   -0.3487 C   0  0  0  0  0  0  0  0  0  0  0  0
   -2.3597    0.5276    0.1673 C   0  0  0  0  0  0  0  0  0  0  0  0
   -2.0774    0.0982    1.8809 S   0  0  0  0  0  6  0  0  0  0  0  0
   -2.3201   -1.3224    2.0524 O   0  0  0  0  0  0  0  0  0  0  0  0
   -2.7300    1.0834    2.7228 O   0  0  0  0  0  0  0  0  0  0  0  0
   -0.3112    0.3864    1.9259 C   0  0  0  0  0  0  0  0  0  0  0  0
    3.0862   -0.0130   -2.2615 H   0  0  0  0  0  0  0  0  0  0  0  0
    0.9405   -2.6336   -0.4689 H   0  0  0  0  0  0  0  0  0  0  0  0
    0.8644   -2.6171   -2.1625 H   0  0  0  0  0  0  0  0  0  0  0  0
    1.5403    1.5751   -0.8021 H   0  0  0  0  0  0  0  0  0  0  0  0
    1.8927    1.7330    0.9117 H   0  0  0  0  0  0  0  0  0  0  0  0
   -0.8656    1.1272   -1.3924 H   0  0  0  0  0  0  0  0  0  0  0  0
   -3.0273    1.3901    0.1183 H   0  0  0  0  0  0  0  0  0  0  0  0
   -2.7886   -0.3322   -0.3511 H   0  0  0  0  0  0  0  0  0  0  0  0
    0.1794   -0.5382    2.2374 H   0  0  0  0  0  0  0  0  0  0  0  0
   -0.1035    1.1966    2.6287 H   0  0  0  0  0  0  0  0  0  0  0  0
  1  2  2  3
  2  3  1  0
  2  4  1  0
  4  5  1  0
  5  6  1  0
  6  7  2  0
  7  8  1  0
  8  9  1  0
  9 10  2  0
  9 11  2  0
  9 12  1  0
 12  6  1  0
  1 13  1  0
  3 14  1  0
  3 15  1  0
  5 16  1  0
  5 17  1  0
  7 18  1  0
  8 19  1  0
  8 20  1  0
 12 21  1  0
 12 22  1  0
M  END
$$$$
