
     RDKit          3D

 55 58  0  0  0  0  0  0  0  0999 V2000
    8.3178    2.1214   -1.6785 C   0  0  0  0  0  0  0  0  0  0  0  0
    7.8917    1.1429   -0.7411 O   0  0  0  0  0  0  0  0  0  0  0  0
    6.5409    0.9641   -0.5750 C   0  0  0  0  0  0  0  0  0  0  0  0
    5.5588    1.6646   -1.2816 C   0  0  0  0  0  0  0  0  0  0  0  0
    4.2058    1.4103   -1.0466 C   0  0  0  0  0  0  0  0  0  0  0  0
    3.8215    0.4453   -0.1113 C   0  0  0  0  0  0  0  0  0  0  0  0
    2.3658    0.2061    0.1017 C   0  0  0  0  0  0  0  0  0  0  0  0
    1.9449   -1.2071    0.3676 C   0  0  0  0  0  0  0  0  0  0  0  0
    0.6274   -1.4133    0.5621 C   0  0  0  0  0  0  0  0  0  0  0  0
    0.0316   -2.7409    0.8329 C   0  0  0  0  0  0  0  0  0  0  0  0
    0.9888   -3.7112    0.8841 F   0  0  0  0  0  0  0  0  0  0  0  0
   -0.6111   -2.7964    2.0267 F   0  0  0  0  0  0  0  0  0  0  0  0
   -0.8426   -3.1342   -0.1257 F   0  0  0  0  0  0  0  0  0  0  0  0
   -0.2531   -0.3397    0.5021 N   0  0  0  0  0  0  0  0  0  0  0  0
   -1.5958   -0.3454    0.6698 N   0  0  0  0  0  0  0  0  0  0  0  0
   -1.9947    0.9298    0.5213 C   0  0  0  0  0  0  0  0  0  0  0  0
   -3.3992    1.4040    0.5906 C   0  0  0  0  0  0  0  0  0  0  0  0
   -3.6620    2.5378    0.1806 O   0  0  0  0  0  0  0  0  0  0  0  0
   -4.4095    0.5819    1.1125 N   0  0  0  0  0  0  0  0  0  0  0  0
   -4.1954   -0.7553    1.6461 C   0  0  0  0  0  0  0  0  0  0  0  0
   -5.7954    0.9893    0.9028 C   0  0  0  0  0  0  0  0  0  0  0  0
   -6.4269    0.2967   -0.2829 C   0  0  0  0  0  0  0  0  0  0  0  0
   -7.2959   -0.7888   -0.1006 C   0  0  0  0  0  0  0  0  0  0  0  0
   -7.8655   -1.4323   -1.2007 C   0  0  0  0  0  0  0  0  0  0  0  0
   -7.5709   -1.0002   -2.4924 C   0  0  0  0  0  0  0  0  0  0  0  0
   -6.7060    0.0750   -2.6864 C   0  0  0  0  0  0  0  0  0  0  0  0
   -6.1357    0.7198   -1.5881 C   0  0  0  0  0  0  0  0  0  0  0  0
   -0.8823    1.7621    0.2337 C   0  0  0  0  0  0  0  0  0  0  0  0
    0.2194    0.9445    0.2329 C   0  0  0  0  0  0  0  0  0  0  0  0
    1.5410    1.2117    0.0252 N   0  0  0  0  0  0  0  0  0  0  0  0
    4.7983   -0.2466    0.6160 C   0  0  0  0  0  0  0  0  0  0  0  0
    6.1570    0.0054    0.3866 C   0  0  0  0  0  0  0  0  0  0  0  0
    7.1834   -0.6285    1.0433 O   0  0  0  0  0  0  0  0  0  0  0  0
    6.8513   -1.5308    2.0882 C   0  0  0  0  0  0  0  0  0  0  0  0
    7.9718    3.1201   -1.3925 H   0  0  0  0  0  0  0  0  0  0  0  0
    9.4120    2.1353   -1.6734 H   0  0  0  0  0  0  0  0  0  0  0  0
    7.9937    1.8644   -2.6923 H   0  0  0  0  0  0  0  0  0  0  0  0
    5.8108    2.4172   -2.0213 H   0  0  0  0  0  0  0  0  0  0  0  0
    3.4538    1.9682   -1.6020 H   0  0  0  0  0  0  0  0  0  0  0  0
    2.6713   -2.0099    0.3697 H   0  0  0  0  0  0  0  0  0  0  0  0
   -3.3386   -0.7613    2.3239 H   0  0  0  0  0  0  0  0  0  0  0  0
   -4.0406   -1.4549    0.8199 H   0  0  0  0  0  0  0  0  0  0  0  0
   -5.0673   -1.0714    2.2270 H   0  0  0  0  0  0  0  0  0  0  0  0
   -5.8704    2.0735    0.7587 H   0  0  0  0  0  0  0  0  0  0  0  0
   -6.3577    0.7762    1.8203 H   0  0  0  0  0  0  0  0  0  0  0  0
   -7.5342   -1.1412    0.9002 H   0  0  0  0  0  0  0  0  0  0  0  0
   -8.5386   -2.2723   -1.0502 H   0  0  0  0  0  0  0  0  0  0  0  0
   -8.0138   -1.5021   -3.3484 H   0  0  0  0  0  0  0  0  0  0  0  0
   -6.4732    0.4122   -3.6929 H   0  0  0  0  0  0  0  0  0  0  0  0
   -5.4602    1.5575   -1.7531 H   0  0  0  0  0  0  0  0  0  0  0  0
   -0.8928    2.8275    0.0507 H   0  0  0  0  0  0  0  0  0  0  0  0
    4.4925   -0.9590    1.3723 H   0  0  0  0  0  0  0  0  0  0  0  0
    6.2972   -1.0258    2.8863 H   0  0  0  0  0  0  0  0  0  0  0  0
    7.7858   -1.9048    2.5173 H   0  0  0  0  0  0  0  0  0  0  0  0
    6.2949   -2.3912    1.7029 H   0  0  0  0  0  0  0  0  0  0  0  0
  1  2  1  0
  2  3  1  0
  3  4  2  0
  4  5  1  0
  5  6  2  0
  6  7  1  0
  7  8  1  0
  8  9  2  0
  9 10  1  0
 10 11  1  0
 10 12  1  0
 10 13  1  0
  9 14  1  0
 14 15  1  0
 15 16  2  0
 16 17  1  0
 17 18  2  0
 17 19  1  0
 19 20  1  0
 19 21  1  0
 21 22  1  0
 22 23  2  0
 23 24  1  0
 24 25  2  0
 25 26  1  0
 26 27  2  0
 16 28  1  0
 28 29  2  0
 29 30  1  0
  6 31  1  0
 31 32  2  0
 32 33  1  0
 33 34  1  0
 32  3  1  0
 30  7  2  0
 29 14  1  0
 27 22  1  0
  1 35  1  0
  1 36  1  0
  1 37  1  0
  4 38  1  0
  5 39  1  0
  8 40  1  0
 20 41  1  0
 20 42  1  0
 20 43  1  0
 21 44  1  0
 21 45  1  0
 23 46  1  0
 24 47  1  0
 25 48  1  0
 26 49  1  0
 27 50  1  0
 28 51  1  0
 31 52  1  0
 34 53  1  0
 34 54  1  0
 34 55  1  0
M  END
$$$$
