
     RDKit          3D

 32 34  0  0  0  0  0  0  0  0999 V2000
    5.0041    0.8668   -0.5068 C   0  0  0  0  0  0  0  0  0  0  0  0
    4.4154   -0.4734   -0.1080 C   0  0  0  0  0  0  0  0  0  0  0  0
    2.9932   -0.4602   -0.2859 O   0  0  0  0  0  0  0  0  0  0  0  0
    2.2766    0.0069    0.7694 C   0  0  0  0  0  0  0  0  0  0  0  0
    2.7236    0.4348    1.8236 O   0  0  0  0  0  0  0  0  0  0  0  0
    0.8466   -0.0577    0.4396 C   0  0  0  0  0  0  0  0  0  0  0  0
    0.1789    1.0984    0.2314 C   0  0  0  0  0  0  0  0  0  0  0  0
    0.7968    2.3311    0.3079 O   0  0  0  0  0  0  0  0  0  0  0  0
   -1.2568    1.0753   -0.0988 C   0  0  0  0  0  0  0  0  0  0  0  0
   -2.0886    2.1558   -0.3991 C   0  0  0  0  0  0  0  0  0  0  0  0
   -3.4549    1.9457   -0.6978 C   0  0  0  0  0  0  0  0  0  0  0  0
   -4.0127    0.6579   -0.7120 C   0  0  0  0  0  0  0  0  0  0  0  0
   -3.1853   -0.4100   -0.4331 C   0  0  0  0  0  0  0  0  0  0  0  0
   -1.8515   -0.1721   -0.1416 C   0  0  0  0  0  0  0  0  0  0  0  0
   -1.1682   -1.3537    0.0872 N   0  0  0  0  0  0  0  0  0  0  0  0
    0.1734   -1.3939    0.3683 C   0  0  0  0  0  0  0  0  0  0  0  0
    0.7825   -2.4416    0.5637 O   0  0  0  0  0  0  0  0  0  0  0  0
   -2.0851   -2.4833   -0.0551 C   0  0  0  0  0  0  0  0  0  0  0  0
   -3.4724   -1.8803   -0.3881 C   0  0  0  0  0  0  0  0  0  0  0  0
    4.6215    1.6696    0.1313 H   0  0  0  0  0  0  0  0  0  0  0  0
    6.0949    0.8495   -0.4302 H   0  0  0  0  0  0  0  0  0  0  0  0
    4.7259    1.1180   -1.5356 H   0  0  0  0  0  0  0  0  0  0  0  0
    4.6872   -0.7409    0.9196 H   0  0  0  0  0  0  0  0  0  0  0  0
    4.8126   -1.2584   -0.7599 H   0  0  0  0  0  0  0  0  0  0  0  0
    0.1550    2.9845    0.6322 H   0  0  0  0  0  0  0  0  0  0  0  0
   -1.7081    3.1726   -0.4274 H   0  0  0  0  0  0  0  0  0  0  0  0
   -4.0864    2.8021   -0.9293 H   0  0  0  0  0  0  0  0  0  0  0  0
   -5.0626    0.5127   -0.9466 H   0  0  0  0  0  0  0  0  0  0  0  0
   -2.0988   -3.0552    0.8791 H   0  0  0  0  0  0  0  0  0  0  0  0
   -1.7215   -3.1389   -0.8540 H   0  0  0  0  0  0  0  0  0  0  0  0
   -4.1992   -2.1165    0.3952 H   0  0  0  0  0  0  0  0  0  0  0  0
   -3.8360   -2.2456   -1.3532 H   0  0  0  0  0  0  0  0  0  0  0  0
  1  2  1  0
  2  3  1  0
  3  4  1  0
  4  5  2  0
  4  6  1  0
  6  7  2  0
  7  8  1  0
  7  9  1  0
  9 10  2  0
 10 11  1  0
 11 12  2  0
 12 13  1  0
 13 14  2  0
 14 15  1  0
 15 16  1  0
 16 17  2  0
 15 18  1  0
 18 19  1  0
 16  6  1  0
 14  9  1  0
 19 13  1  0
  1 20  1  0
  1 21  1  0
  1 22  1  0
  2 23  1  0
  2 24  1  0
  8 25  1  0
 10 26  1  0
 11 27  1  0
 12 28  1  0
 18 29  1  0
 18 30  1  0
 19 31  1  0
 19 32  1  0
M  END
$$$$
