
     RDKit          3D

 41 44  0  0  0  0  0  0  0  0999 V2000
   -0.9758    2.5500   -3.6933 O   0  0  0  0  0  0  0  0  0  0  0  0
   -0.8887    2.3036   -2.2684 S   0  0  0  0  0  6  0  0  0  0  0  0
   -0.7692    3.3964   -1.3276 O   0  0  0  0  0  0  0  0  0  0  0  0
    0.4125    1.2464   -2.0657 N   0  0  0  0  0  0  0  0  0  0  0  0
    0.6016    0.5954   -0.8062 C   0  0  0  0  0  0  0  0  0  0  0  0
    1.0157    1.3778    0.2766 C   0  0  0  0  0  0  0  0  0  0  0  0
    1.1893    0.8154    1.5422 C   0  0  0  0  0  0  0  0  0  0  0  0
    1.6351    1.9187    2.8770 S   0  0  0  0  0  0  0  0  0  0  0  0
    3.2149    1.3420    3.3188 C   0  0  0  0  0  0  0  0  0  0  0  0
    3.4384    0.0432    3.7020 N   0  0  0  0  0  0  0  0  0  0  0  0
    4.7239    0.0367    3.9709 C   0  0  0  0  0  0  0  0  0  0  0  0
    5.2374    1.2793    3.7688 N   0  0  0  0  0  0  0  0  0  0  0  0
    4.2880    2.1345    3.3599 N   0  0  0  0  0  0  0  0  0  0  0  0
    0.9315   -0.5537    1.7076 C   0  0  0  0  0  0  0  0  0  0  0  0
    1.0889   -1.1572    2.9351 O   0  0  0  0  0  0  0  0  0  0  0  0
    0.4953   -1.3648    0.6339 C   0  0  0  0  0  0  0  0  0  0  0  0
    0.2205   -2.7388    0.8062 C   0  0  0  0  0  0  0  0  0  0  0  0
   -0.2121   -3.5381   -0.2505 C   0  0  0  0  0  0  0  0  0  0  0  0
   -0.3796   -2.9798   -1.5080 C   0  0  0  0  0  0  0  0  0  0  0  0
   -0.1125   -1.6241   -1.7056 C   0  0  0  0  0  0  0  0  0  0  0  0
    0.3285   -0.7879   -0.6496 C   0  0  0  0  0  0  0  0  0  0  0  0
   -2.2996    1.3269   -1.8046 C   0  0  0  0  0  0  0  0  0  0  0  0
   -2.9739    0.5820   -2.7776 C   0  0  0  0  0  0  0  0  0  0  0  0
   -4.0827   -0.1803   -2.4107 C   0  0  0  0  0  0  0  0  0  0  0  0
   -4.5184   -0.1867   -1.0843 C   0  0  0  0  0  0  0  0  0  0  0  0
   -3.8555    0.5763   -0.1215 C   0  0  0  0  0  0  0  0  0  0  0  0
   -2.7483    1.3440   -0.4802 C   0  0  0  0  0  0  0  0  0  0  0  0
    0.6373    0.7341   -2.9152 H   0  0  0  0  0  0  0  0  0  0  0  0
    1.2043    2.4399    0.1260 H   0  0  0  0  0  0  0  0  0  0  0  0
    5.3150   -0.8042    4.3055 H   0  0  0  0  0  0  0  0  0  0  0  0
    6.1890    1.6098    3.8879 H   0  0  0  0  0  0  0  0  0  0  0  0
    1.8013   -0.6814    3.4124 H   0  0  0  0  0  0  0  0  0  0  0  0
    0.3410   -3.1965    1.7875 H   0  0  0  0  0  0  0  0  0  0  0  0
   -0.4195   -4.5918   -0.0846 H   0  0  0  0  0  0  0  0  0  0  0  0
   -0.7220   -3.5949   -2.3360 H   0  0  0  0  0  0  0  0  0  0  0  0
   -0.2664   -1.2282   -2.7053 H   0  0  0  0  0  0  0  0  0  0  0  0
   -2.6467    0.5910   -3.8144 H   0  0  0  0  0  0  0  0  0  0  0  0
   -4.6120   -0.7670   -3.1576 H   0  0  0  0  0  0  0  0  0  0  0  0
   -5.3825   -0.7829   -0.8003 H   0  0  0  0  0  0  0  0  0  0  0  0
   -4.2035    0.5734    0.9088 H   0  0  0  0  0  0  0  0  0  0  0  0
   -2.2405    1.9416    0.2737 H   0  0  0  0  0  0  0  0  0  0  0  0
  1  2  2  0
  2  3  2  0
  2  4  1  0
  4  5  1  0
  5  6  2  0
  6  7  1  0
  7  8  1  0
  8  9  1  0
  9 10  1  0
 10 11  2  0
 11 12  1  0
 12 13  1  0
  7 14  2  0
 14 15  1  0
 14 16  1  0
 16 17  2  0
 17 18  1  0
 18 19  2  0
 19 20  1  0
 20 21  2  0
  2 22  1  0
 22 23  2  0
 23 24  1  0
 24 25  2  0
 25 26  1  0
 26 27  2  0
 21  5  1  0
 27 22  1  0
 13  9  2  0
 21 16  1  0
  4 28  1  0
  6 29  1  0
 11 30  1  0
 12 31  1  0
 15 32  1  0
 17 33  1  0
 18 34  1  0
 19 35  1  0
 20 36  1  0
 23 37  1  0
 24 38  1  0
 25 39  1  0
 26 40  1  0
 27 41  1  0
M  END
$$$$
