
     RDKit          3D

 53 57  0  0  0  0  0  0  0  0999 V2000
    6.5030    1.2419   -1.3741 C   0  0  0  0  0  0  0  0  0  0  0  0
    6.1111    0.1086   -0.6095 O   0  0  0  0  0  0  0  0  0  0  0  0
    4.9090    0.1880    0.0376 C   0  0  0  0  0  0  0  0  0  0  0  0
    4.0268    1.2665    0.0029 C   0  0  0  0  0  0  0  0  0  0  0  0
    2.8215    1.2144    0.7129 C   0  0  0  0  0  0  0  0  0  0  0  0
    2.4755    0.0809    1.4621 C   0  0  0  0  0  0  0  0  0  0  0  0
    1.1709    0.0252    2.2301 C   0  0  0  0  0  0  0  0  0  0  0  0
   -0.0093    0.0979    1.3576 N   0  0  0  0  0  0  0  0  0  0  0  0
   -0.5336   -0.9886    0.6918 C   0  0  0  0  0  0  0  0  0  0  0  0
    0.0826   -2.3187    0.8740 C   0  0  0  0  0  0  0  0  0  0  0  0
   -0.2445   -3.0891    1.9934 C   0  0  0  0  0  0  0  0  0  0  0  0
    0.3256   -4.3530    2.1432 C   0  0  0  0  0  0  0  0  0  0  0  0
    1.2015   -4.8437    1.1720 C   0  0  0  0  0  0  0  0  0  0  0  0
    1.5033   -4.0787    0.0431 C   0  0  0  0  0  0  0  0  0  0  0  0
    0.9365   -2.8144   -0.1140 C   0  0  0  0  0  0  0  0  0  0  0  0
   -1.5532   -0.9209   -0.0965 N   0  0  0  0  0  0  0  0  0  0  0  0
   -2.1800    0.2812   -0.3381 C   0  0  0  0  0  0  0  0  0  0  0  0
   -1.7563    1.4097    0.2700 C   0  0  0  0  0  0  0  0  0  0  0  0
   -2.4302    2.6978   -0.0284 C   0  0  0  0  0  0  0  0  0  0  0  0
   -2.0253    3.7786    0.3879 O   0  0  0  0  0  0  0  0  0  0  0  0
   -3.6396    2.6700   -0.8718 C   0  0  0  0  0  0  0  0  0  0  0  0
   -4.3611    3.8594   -1.0713 C   0  0  0  0  0  0  0  0  0  0  0  0
   -5.5040    3.8576   -1.8626 C   0  0  0  0  0  0  0  0  0  0  0  0
   -5.9221    2.6710   -2.4513 C   0  0  0  0  0  0  0  0  0  0  0  0
   -5.1960    1.4896   -2.2510 C   0  0  0  0  0  0  0  0  0  0  0  0
   -4.0334    1.4603   -1.4581 C   0  0  0  0  0  0  0  0  0  0  0  0
   -3.2677    0.2947   -1.2350 N   0  0  0  0  0  0  0  0  0  0  0  0
   -3.6994   -0.9324   -1.9141 C   0  0  0  0  0  0  0  0  0  0  0  0
   -0.6183    1.3327    1.2189 C   0  0  0  0  0  0  0  0  0  0  0  0
   -0.2461    2.3163    1.8565 O   0  0  0  0  0  0  0  0  0  0  0  0
    3.3758   -0.9911    1.5055 C   0  0  0  0  0  0  0  0  0  0  0  0
    4.5769   -0.9372    0.7937 C   0  0  0  0  0  0  0  0  0  0  0  0
    7.4796    1.0244   -1.8172 H   0  0  0  0  0  0  0  0  0  0  0  0
    5.8001    1.4276   -2.1930 H   0  0  0  0  0  0  0  0  0  0  0  0
    6.6152    2.1272   -0.7396 H   0  0  0  0  0  0  0  0  0  0  0  0
    4.2433    2.1673   -0.5618 H   0  0  0  0  0  0  0  0  0  0  0  0
    2.1576    2.0775    0.6810 H   0  0  0  0  0  0  0  0  0  0  0  0
    1.1688    0.8444    2.9592 H   0  0  0  0  0  0  0  0  0  0  0  0
    1.1230   -0.8909    2.8268 H   0  0  0  0  0  0  0  0  0  0  0  0
   -0.9413   -2.7139    2.7380 H   0  0  0  0  0  0  0  0  0  0  0  0
    0.0818   -4.9613    3.0108 H   0  0  0  0  0  0  0  0  0  0  0  0
    1.6421   -5.8313    1.2891 H   0  0  0  0  0  0  0  0  0  0  0  0
    2.1774   -4.4692   -0.7155 H   0  0  0  0  0  0  0  0  0  0  0  0
    1.1653   -2.2186   -0.9941 H   0  0  0  0  0  0  0  0  0  0  0  0
   -4.0295    4.7864   -0.6069 H   0  0  0  0  0  0  0  0  0  0  0  0
   -6.0636    4.7764   -2.0167 H   0  0  0  0  0  0  0  0  0  0  0  0
   -6.8164    2.6581   -3.0702 H   0  0  0  0  0  0  0  0  0  0  0  0
   -5.5752    0.5934   -2.7334 H   0  0  0  0  0  0  0  0  0  0  0  0
   -2.9994   -1.7648   -1.7865 H   0  0  0  0  0  0  0  0  0  0  0  0
   -4.6677   -1.2677   -1.5253 H   0  0  0  0  0  0  0  0  0  0  0  0
   -3.7744   -0.7754   -2.9966 H   0  0  0  0  0  0  0  0  0  0  0  0
    3.1510   -1.8833    2.0863 H   0  0  0  0  0  0  0  0  0  0  0  0
    5.2623   -1.7806    0.8309 H   0  0  0  0  0  0  0  0  0  0  0  0
  1  2  1  0
  2  3  1  0
  3  4  2  0
  4  5  1  0
  5  6  2  0
  6  7  1  0
  7  8  1  0
  8  9  1  0
  9 10  1  0
 10 11  2  0
 11 12  1  0
 12 13  2  0
 13 14  1  0
 14 15  2  0
  9 16  2  0
 16 17  1  0
 17 18  2  0
 18 19  1  0
 19 20  2  0
 19 21  1  0
 21 22  2  0
 22 23  1  0
 23 24  2  0
 24 25  1  0
 25 26  2  0
 26 27  1  0
 27 28  1  0
 18 29  1  0
 29 30  2  0
  6 31  1  0
 31 32  2  0
 32  3  1  0
 29  8  1  0
 15 10  1  0
 27 17  1  0
 26 21  1  0
  1 33  1  0
  1 34  1  0
  1 35  1  0
  4 36  1  0
  5 37  1  0
  7 38  1  0
  7 39  1  0
 11 40  1  0
 12 41  1  0
 13 42  1  0
 14 43  1  0
 15 44  1  0
 22 45  1  0
 23 46  1  0
 24 47  1  0
 25 48  1  0
 28 49  1  0
 28 50  1  0
 28 51  1  0
 31 52  1  0
 32 53  1  0
M  END
$$$$
