
     RDKit          3D

 71 75  0  0  0  0  0  0  0  0999 V2000
   -6.4128    2.0725    4.0135 C   0  0  0  0  0  0  0  0  0  0  0  0
   -5.1150    1.7294    3.3439 C   0  0  0  0  0  0  0  0  0  0  0  0
   -4.3663    2.7257    2.7177 C   0  0  0  0  0  0  0  0  0  0  0  0
   -3.1702    2.4103    2.0749 C   0  0  0  0  0  0  0  0  0  0  0  0
   -2.6977    1.0893    2.0336 C   0  0  0  0  0  0  0  0  0  0  0  0
   -1.3932    0.8175    1.3426 C   0  0  0  0  0  0  0  0  0  0  0  0
   -3.4449    0.0687    2.6585 C   0  0  0  0  0  0  0  0  0  0  0  0
   -2.9930   -1.3765    2.6878 C   0  0  0  0  0  0  0  0  0  0  0  0
   -3.8132   -2.2314    1.8488 N   0  0  0  0  0  0  0  0  0  0  0  0
   -4.9154   -2.8425    2.3571 N   0  0  0  0  0  0  0  0  0  0  0  0
   -5.4223   -3.6293    1.4083 N   0  0  0  0  0  0  0  0  0  0  0  0
   -4.6067   -3.5297    0.3254 C   0  0  0  0  0  0  0  0  0  0  0  0
   -4.6576   -4.1953   -0.9473 C   0  0  0  0  0  0  0  0  0  0  0  0
   -5.5146   -4.9939   -1.3103 O   0  0  0  0  0  0  0  0  0  0  0  0
   -3.5935   -3.8380   -1.7647 N   0  0  0  0  0  0  0  0  0  0  0  0
   -2.6092   -2.9192   -1.4093 C   0  0  0  0  0  0  0  0  0  0  0  0
   -1.5396   -2.6987   -2.4688 C   0  0  0  0  0  0  0  0  0  0  0  0
   -1.1176   -1.2268   -2.5460 C   0  0  0  0  0  0  0  0  0  0  0  0
    0.1475   -0.9629   -1.7438 C   0  0  0  0  0  0  0  0  0  0  0  0
    1.2890   -1.7591   -2.2626 N   0  0  0  0  0  0  0  0  0  0  0  0
    2.4222   -0.9218   -3.2271 S   0  0  0  0  0  6  0  0  0  0  0  0
    1.6763   -0.2353   -4.2604 O   0  0  0  0  0  0  0  0  0  0  0  0
    3.4979   -1.8301   -3.5559 O   0  0  0  0  0  0  0  0  0  0  0  0
    3.0824    0.2869   -2.1074 C   0  0  0  0  0  0  0  0  0  0  0  0
    3.7123   -0.1511   -0.9362 C   0  0  0  0  0  0  0  0  0  0  0  0
    4.2402    0.7877   -0.0522 C   0  0  0  0  0  0  0  0  0  0  0  0
    4.1405    2.1527   -0.3573 C   0  0  0  0  0  0  0  0  0  0  0  0
    4.8633    3.3331    0.7586 S   0  0  0  0  0  6  0  0  0  0  0  0
    4.2928    3.0794    2.0640 O   0  0  0  0  0  0  0  0  0  0  0  0
    4.7986    4.6413    0.1473 O   0  0  0  0  0  0  0  0  0  0  0  0
    6.5119    2.8679    0.7773 N   0  0  0  0  0  0  0  0  0  0  0  0
    7.2100    2.9715   -0.5282 C   0  0  0  0  0  0  0  0  0  0  0  0
    7.2843    3.5284    1.8565 C   0  0  0  0  0  0  0  0  0  0  0  0
    3.5047    2.5908   -1.5247 C   0  0  0  0  0  0  0  0  0  0  0  0
    2.9732    1.6507   -2.4057 C   0  0  0  0  0  0  0  0  0  0  0  0
    0.9313   -3.0979   -2.8071 C   0  0  0  0  0  0  0  0  0  0  0  0
   -0.3517   -3.6273   -2.1811 C   0  0  0  0  0  0  0  0  0  0  0  0
   -2.5468   -2.3205   -0.2508 N   0  0  0  0  0  0  0  0  0  0  0  0
   -3.5725   -2.6566    0.5717 C   0  0  0  0  0  0  0  0  0  0  0  0
   -4.6539    0.4092    3.3013 C   0  0  0  0  0  0  0  0  0  0  0  0
   -6.7217    1.2853    4.7083 H   0  0  0  0  0  0  0  0  0  0  0  0
   -6.3112    2.9956    4.5903 H   0  0  0  0  0  0  0  0  0  0  0  0
   -7.1980    2.2011    3.2636 H   0  0  0  0  0  0  0  0  0  0  0  0
   -4.7089    3.7579    2.7275 H   0  0  0  0  0  0  0  0  0  0  0  0
   -2.6066    3.2140    1.6052 H   0  0  0  0  0  0  0  0  0  0  0  0
   -0.6277    0.5144    2.0662 H   0  0  0  0  0  0  0  0  0  0  0  0
   -1.5230    0.0285    0.6010 H   0  0  0  0  0  0  0  0  0  0  0  0
   -1.0271    1.6943    0.8038 H   0  0  0  0  0  0  0  0  0  0  0  0
   -3.0526   -1.7637    3.7147 H   0  0  0  0  0  0  0  0  0  0  0  0
   -1.9524   -1.5016    2.3746 H   0  0  0  0  0  0  0  0  0  0  0  0
   -3.6002   -4.2780   -2.6755 H   0  0  0  0  0  0  0  0  0  0  0  0
   -1.9657   -2.9699   -3.4458 H   0  0  0  0  0  0  0  0  0  0  0  0
   -0.9327   -0.9705   -3.5968 H   0  0  0  0  0  0  0  0  0  0  0  0
   -1.9220   -0.5629   -2.2100 H   0  0  0  0  0  0  0  0  0  0  0  0
    0.0121   -1.2284   -0.6903 H   0  0  0  0  0  0  0  0  0  0  0  0
    0.3664    0.1080   -1.7566 H   0  0  0  0  0  0  0  0  0  0  0  0
    3.7951   -1.2147   -0.7200 H   0  0  0  0  0  0  0  0  0  0  0  0
    4.7371    0.4623    0.8616 H   0  0  0  0  0  0  0  0  0  0  0  0
    6.8266    2.2281   -1.2322 H   0  0  0  0  0  0  0  0  0  0  0  0
    8.2749    2.7599   -0.3871 H   0  0  0  0  0  0  0  0  0  0  0  0
    7.1170    3.9761   -0.9565 H   0  0  0  0  0  0  0  0  0  0  0  0
    8.2358    3.0065    1.9925 H   0  0  0  0  0  0  0  0  0  0  0  0
    6.7590    3.4736    2.8137 H   0  0  0  0  0  0  0  0  0  0  0  0
    7.4890    4.5729    1.6100 H   0  0  0  0  0  0  0  0  0  0  0  0
    3.4277    3.6530   -1.7517 H   0  0  0  0  0  0  0  0  0  0  0  0
    2.4832    1.9843   -3.3184 H   0  0  0  0  0  0  0  0  0  0  0  0
    1.7513   -3.7918   -2.5737 H   0  0  0  0  0  0  0  0  0  0  0  0
    0.8224   -3.0602   -3.9007 H   0  0  0  0  0  0  0  0  0  0  0  0
   -0.2033   -3.7405   -1.0992 H   0  0  0  0  0  0  0  0  0  0  0  0
   -0.5668   -4.6317   -2.5680 H   0  0  0  0  0  0  0  0  0  0  0  0
   -5.2483   -0.3712    3.7779 H   0  0  0  0  0  0  0  0  0  0  0  0
  1  2  1  0
  2  3  2  0
  3  4  1  0
  4  5  2  0
  5  6  1  0
  5  7  1  0
  7  8  1  0
  8  9  1  0
  9 10  1  0
 10 11  2  0
 11 12  1  0
 12 13  1  0
 13 14  2  0
 13 15  1  0
 15 16  1  0
 16 17  1  0
 17 18  1  0
 18 19  1  0
 19 20  1  0
 20 21  1  0
 21 22  2  0
 21 23  2  0
 21 24  1  0
 24 25  2  0
 25 26  1  0
 26 27  2  0
 27 28  1  0
 28 29  2  0
 28 30  2  0
 28 31  1  0
 31 32  1  0
 31 33  1  0
 27 34  1  0
 34 35  2  0
 20 36  1  0
 36 37  1  0
 16 38  2  0
 38 39  1  0
  7 40  2  0
 40  2  1  0
 39  9  1  0
 39 12  2  0
 37 17  1  0
 35 24  1  0
  1 41  1  0
  1 42  1  0
  1 43  1  0
  3 44  1  0
  4 45  1  0
  6 46  1  0
  6 47  1  0
  6 48  1  0
  8 49  1  0
  8 50  1  0
 15 51  1  0
 17 52  1  0
 18 53  1  0
 18 54  1  0
 19 55  1  0
 19 56  1  0
 25 57  1  0
 26 58  1  0
 32 59  1  0
 32 60  1  0
 32 61  1  0
 33 62  1  0
 33 63  1  0
 33 64  1  0
 34 65  1  0
 35 66  1  0
 36 67  1  0
 36 68  1  0
 37 69  1  0
 37 70  1  0
 40 71  1  0
M  END
$$$$
