
     RDKit          3D

 62 67  0  0  0  0  0  0  0  0999 V2000
   -3.8752    0.0074    5.0956 C   0  0  0  0  0  0  0  0  0  0  0  0
   -3.6473   -0.2381    3.7152 O   0  0  0  0  0  0  0  0  0  0  0  0
   -3.3044   -1.5148    3.3452 C   0  0  0  0  0  0  0  0  0  0  0  0
   -3.0665   -2.5613    4.2442 C   0  0  0  0  0  0  0  0  0  0  0  0
   -2.7035   -3.8289    3.7790 C   0  0  0  0  0  0  0  0  0  0  0  0
   -2.5722   -4.0645    2.4138 C   0  0  0  0  0  0  0  0  0  0  0  0
   -2.8051   -3.0314    1.5081 C   0  0  0  0  0  0  0  0  0  0  0  0
   -3.1744   -1.7542    1.9614 C   0  0  0  0  0  0  0  0  0  0  0  0
   -3.3970   -0.6933    0.9699 C   0  0  0  0  0  0  0  0  0  0  0  0
   -4.9936   -0.4076    0.4342 S   0  0  0  0  0  0  0  0  0  0  0  0
   -4.5061    0.8461   -0.6378 C   0  0  0  0  0  0  0  0  0  0  0  0
   -5.3523    1.6047   -1.4766 C   0  0  0  0  0  0  0  0  0  0  0  0
   -4.7465    2.5660   -2.2589 C   0  0  0  0  0  0  0  0  0  0  0  0
   -3.3966    2.7850   -2.2333 C   0  0  0  0  0  0  0  0  0  0  0  0
   -2.5506    2.0554   -1.4213 C   0  0  0  0  0  0  0  0  0  0  0  0
   -3.1168    1.0466   -0.5929 C   0  0  0  0  0  0  0  0  0  0  0  0
   -2.4869    0.1416    0.3443 C   0  0  0  0  0  0  0  0  0  0  0  0
   -1.0590    0.0652    0.6301 C   0  0  0  0  0  0  0  0  0  0  0  0
   -0.5526    0.5373    1.8428 C   0  0  0  0  0  0  0  0  0  0  0  0
    0.8180    0.4637    2.1015 C   0  0  0  0  0  0  0  0  0  0  0  0
    1.6970   -0.0758    1.1577 C   0  0  0  0  0  0  0  0  0  0  0  0
    3.0073   -0.0780    1.5456 O   0  0  0  0  0  0  0  0  0  0  0  0
    3.9866   -0.6412    0.6678 C   0  0  0  0  0  0  0  0  0  0  0  0
    4.4744    0.4050   -0.3503 C   0  0  0  0  0  0  0  0  0  0  0  0
    5.5679   -0.0670   -1.2181 N   0  0  0  0  0  0  0  0  0  0  0  0
    6.1174    1.0319   -2.0446 C   0  0  0  0  0  0  0  0  0  0  0  0
    5.5610    1.0579   -3.4768 C   0  0  0  0  0  0  0  0  0  0  0  0
    5.8190   -0.1492   -4.2072 O   0  0  0  0  0  0  0  0  0  0  0  0
    5.9824   -1.2948   -3.3603 C   0  0  0  0  0  0  0  0  0  0  0  0
    5.1462   -1.1981   -2.0752 C   0  0  0  0  0  0  0  0  0  0  0  0
    1.1899   -0.5416   -0.0557 C   0  0  0  0  0  0  0  0  0  0  0  0
   -0.1831   -0.4703   -0.3194 C   0  0  0  0  0  0  0  0  0  0  0  0
   -3.0129    3.7785   -3.0801 O   0  0  0  0  0  0  0  0  0  0  0  0
   -4.2851    4.1645   -3.6388 C   0  0  0  0  0  0  0  0  0  0  0  0
   -5.3911    3.3937   -3.1264 O   0  0  0  0  0  0  0  0  0  0  0  0
   -4.1836    1.0519    5.2024 H   0  0  0  0  0  0  0  0  0  0  0  0
   -2.9567   -0.1281    5.6759 H   0  0  0  0  0  0  0  0  0  0  0  0
   -4.6856   -0.6194    5.4819 H   0  0  0  0  0  0  0  0  0  0  0  0
   -3.1485   -2.4231    5.3170 H   0  0  0  0  0  0  0  0  0  0  0  0
   -2.5193   -4.6330    4.4873 H   0  0  0  0  0  0  0  0  0  0  0  0
   -2.2865   -5.0495    2.0540 H   0  0  0  0  0  0  0  0  0  0  0  0
   -2.6972   -3.2219    0.4427 H   0  0  0  0  0  0  0  0  0  0  0  0
   -6.4232    1.4412   -1.5026 H   0  0  0  0  0  0  0  0  0  0  0  0
   -1.4839    2.2537   -1.4155 H   0  0  0  0  0  0  0  0  0  0  0  0
   -1.2181    0.9604    2.5917 H   0  0  0  0  0  0  0  0  0  0  0  0
    1.2037    0.8297    3.0500 H   0  0  0  0  0  0  0  0  0  0  0  0
    3.6286   -1.5684    0.2073 H   0  0  0  0  0  0  0  0  0  0  0  0
    4.8328   -0.9317    1.3023 H   0  0  0  0  0  0  0  0  0  0  0  0
    3.6343    0.7744   -0.9515 H   0  0  0  0  0  0  0  0  0  0  0  0
    4.8214    1.2712    0.2292 H   0  0  0  0  0  0  0  0  0  0  0  0
    5.9759    2.0086   -1.5672 H   0  0  0  0  0  0  0  0  0  0  0  0
    7.2021    0.8755   -2.1000 H   0  0  0  0  0  0  0  0  0  0  0  0
    4.4777    1.2244   -3.4681 H   0  0  0  0  0  0  0  0  0  0  0  0
    6.0115    1.8817   -4.0396 H   0  0  0  0  0  0  0  0  0  0  0  0
    5.6816   -2.1742   -3.9391 H   0  0  0  0  0  0  0  0  0  0  0  0
    7.0485   -1.4067   -3.1297 H   0  0  0  0  0  0  0  0  0  0  0  0
    5.2423   -2.1316   -1.5106 H   0  0  0  0  0  0  0  0  0  0  0  0
    4.0940   -1.0833   -2.3670 H   0  0  0  0  0  0  0  0  0  0  0  0
    1.8276   -0.9641   -0.8236 H   0  0  0  0  0  0  0  0  0  0  0  0
   -0.5640   -0.8392   -1.2692 H   0  0  0  0  0  0  0  0  0  0  0  0
   -4.4607    5.2229   -3.4141 H   0  0  0  0  0  0  0  0  0  0  0  0
   -4.2434    4.0380   -4.7267 H   0  0  0  0  0  0  0  0  0  0  0  0
  1  2  1  0
  2  3  1  0
  3  4  2  0
  4  5  1  0
  5  6  2  0
  6  7  1  0
  7  8  2  0
  8  9  1  0
  9 10  1  0
 10 11  1  0
 11 12  2  0
 12 13  1  0
 13 14  2  0
 14 15  1  0
 15 16  2  0
 16 17  1  0
 17 18  1  0
 18 19  2  0
 19 20  1  0
 20 21  2  0
 21 22  1  0
 22 23  1  0
 23 24  1  0
 24 25  1  0
 25 26  1  0
 26 27  1  0
 27 28  1  0
 28 29  1  0
 29 30  1  0
 21 31  1  0
 31 32  2  0
 14 33  1  0
 33 34  1  0
 34 35  1  0
  8  3  1  0
 17  9  2  0
 32 18  1  0
 16 11  1  0
 30 25  1  0
 35 13  1  0
  1 36  1  0
  1 37  1  0
  1 38  1  0
  4 39  1  0
  5 40  1  0
  6 41  1  0
  7 42  1  0
 12 43  1  0
 15 44  1  0
 19 45  1  0
 20 46  1  0
 23 47  1  0
 23 48  1  0
 24 49  1  0
 24 50  1  0
 26 51  1  0
 26 52  1  0
 27 53  1  0
 27 54  1  0
 29 55  1  0
 29 56  1  0
 30 57  1  0
 30 58  1  0
 31 59  1  0
 32 60  1  0
 34 61  1  0
 34 62  1  0
M  END
$$$$
