
     RDKit          3D

 56 61  0  0  0  0  0  0  0  0999 V2000
    2.1313    2.7850   -2.2041 O   0  0  0  0  0  0  0  0  0  0  0  0
    1.3223    3.0876   -1.3394 C   0  0  0  0  0  0  0  0  0  0  0  0
    0.6614    4.3142   -1.2518 N   0  0  0  0  0  0  0  0  0  0  0  0
   -0.1065    4.3897   -0.0967 C   0  0  0  0  0  0  0  0  0  0  0  0
   -0.8634    5.4618    0.3266 C   0  0  0  0  0  0  0  0  0  0  0  0
   -1.5548    5.3220    1.5324 C   0  0  0  0  0  0  0  0  0  0  0  0
   -1.4705    4.1316    2.2780 C   0  0  0  0  0  0  0  0  0  0  0  0
   -0.6940    3.0589    1.8304 C   0  0  0  0  0  0  0  0  0  0  0  0
   -0.0153    3.1981    0.6302 C   0  0  0  0  0  0  0  0  0  0  0  0
    0.8730    2.2446   -0.1112 C   0  0  0  0  0  0  0  0  0  0  0  0
    2.0430    1.7262    0.6684 N   0  0  0  0  0  0  0  0  0  0  0  0
    2.1280    0.2270    0.4961 C   0  0  2  0  0  0  0  0  0  0  0  0
    3.3566   -0.1621   -0.3505 C   0  0  0  0  0  0  0  0  0  0  0  0
    3.6204   -1.6504   -0.3888 C   0  0  0  0  0  0  0  0  0  0  0  0
    3.4263   -2.3734   -1.5736 C   0  0  0  0  0  0  0  0  0  0  0  0
    3.6413   -3.7517   -1.6038 C   0  0  0  0  0  0  0  0  0  0  0  0
    4.0579   -4.4189   -0.4538 C   0  0  0  0  0  0  0  0  0  0  0  0
    4.2640   -3.7083    0.7269 C   0  0  0  0  0  0  0  0  0  0  0  0
    4.0489   -2.3300    0.7602 C   0  0  0  0  0  0  0  0  0  0  0  0
    0.8242   -0.1092   -0.1244 C   0  0  0  0  0  0  0  0  0  0  0  0
    0.1058    1.0431   -0.4641 C   0  0  0  0  0  0  0  0  0  0  0  0
   -1.0908    0.6675   -1.0185 C   0  0  0  0  0  0  0  0  0  0  0  0
   -2.1123    1.3676   -1.4965 O   0  0  0  0  0  0  0  0  0  0  0  0
   -1.1139   -0.7176   -0.9910 N   0  0  0  0  0  0  0  0  0  0  0  0
   -2.2073   -1.5437   -1.4866 C   0  0  0  0  0  0  0  0  0  0  0  0
   -3.2327   -1.8226   -0.4140 C   0  0  0  0  0  0  0  0  0  0  0  0
   -3.0859   -2.9217    0.4446 C   0  0  0  0  0  0  0  0  0  0  0  0
   -4.0305   -3.1756    1.4403 C   0  0  0  0  0  0  0  0  0  0  0  0
   -5.1291   -2.3316    1.5916 C   0  0  0  0  0  0  0  0  0  0  0  0
   -5.2817   -1.2307    0.7509 C   0  0  0  0  0  0  0  0  0  0  0  0
   -4.3377   -0.9756   -0.2452 C   0  0  0  0  0  0  0  0  0  0  0  0
    0.0686   -1.2043   -0.4552 C   0  0  0  0  0  0  0  0  0  0  0  0
    0.2837   -2.5088   -0.3405 O   0  0  0  0  0  0  0  0  0  0  0  0
    0.7974    5.0572   -1.9209 H   0  0  0  0  0  0  0  0  0  0  0  0
   -0.9241    6.3815   -0.2438 H   0  0  0  0  0  0  0  0  0  0  0  0
   -2.1639    6.1430    1.9047 H   0  0  0  0  0  0  0  0  0  0  0  0
   -2.0156    4.0446    3.2158 H   0  0  0  0  0  0  0  0  0  0  0  0
   -0.6281    2.1385    2.4039 H   0  0  0  0  0  0  0  0  0  0  0  0
    2.8813    2.1513    0.2748 H   0  0  0  0  0  0  0  0  0  0  0  0
    2.1903   -0.2121    1.4982 H   0  0  0  0  0  0  0  0  0  0  0  0
    4.2563    0.3170    0.0594 H   0  0  0  0  0  0  0  0  0  0  0  0
    3.2532    0.2223   -1.3741 H   0  0  0  0  0  0  0  0  0  0  0  0
    3.0912   -1.8693   -2.4785 H   0  0  0  0  0  0  0  0  0  0  0  0
    3.4815   -4.3046   -2.5262 H   0  0  0  0  0  0  0  0  0  0  0  0
    4.2268   -5.4924   -0.4798 H   0  0  0  0  0  0  0  0  0  0  0  0
    4.5968   -4.2282    1.6219 H   0  0  0  0  0  0  0  0  0  0  0  0
    4.2207   -1.7903    1.6893 H   0  0  0  0  0  0  0  0  0  0  0  0
   -1.9444    2.3055   -1.2949 H   0  0  0  0  0  0  0  0  0  0  0  0
   -1.7863   -2.4775   -1.8773 H   0  0  0  0  0  0  0  0  0  0  0  0
   -2.6629   -1.0316   -2.3424 H   0  0  0  0  0  0  0  0  0  0  0  0
   -2.2257   -3.5811    0.3444 H   0  0  0  0  0  0  0  0  0  0  0  0
   -3.9049   -4.0295    2.1004 H   0  0  0  0  0  0  0  0  0  0  0  0
   -5.8627   -2.5284    2.3686 H   0  0  0  0  0  0  0  0  0  0  0  0
   -6.1332   -0.5668    0.8729 H   0  0  0  0  0  0  0  0  0  0  0  0
   -4.4619   -0.1060   -0.8874 H   0  0  0  0  0  0  0  0  0  0  0  0
    1.1882   -2.6316    0.0039 H   0  0  0  0  0  0  0  0  0  0  0  0
  1  2  2  0
  2  3  1  0
  3  4  1  0
  4  5  2  0
  5  6  1  0
  6  7  2  0
  7  8  1  0
  8  9  2  0
  9 10  1  0
 10 11  1  0
 11 12  1  0
 12 13  1  0
 13 14  1  0
 14 15  2  0
 15 16  1  0
 16 17  2  0
 17 18  1  0
 18 19  2  0
 12 20  1  0
 20 21  1  0
 21 22  2  0
 22 23  1  0
 22 24  1  0
 24 25  1  0
 25 26  1  0
 26 27  2  0
 27 28  1  0
 28 29  2  0
 29 30  1  0
 30 31  2  0
 24 32  1  0
 32 33  1  0
 10  2  1  0
 19 14  1  0
 32 20  2  0
  9  4  1  0
 21 10  1  0
 31 26  1  0
  3 34  1  0
  5 35  1  0
  6 36  1  0
  7 37  1  0
  8 38  1  0
 11 39  1  0
 12 40  1  1
 13 41  1  0
 13 42  1  0
 15 43  1  0
 16 44  1  0
 17 45  1  0
 18 46  1  0
 19 47  1  0
 23 48  1  0
 25 49  1  0
 25 50  1  0
 27 51  1  0
 28 52  1  0
 29 53  1  0
 30 54  1  0
 31 55  1  0
 33 56  1  0
M  END
$$$$
