
     RDKit          3D

 37 39  0  0  0  0  0  0  0  0999 V2000
    7.5211    0.1323   -1.2038 C   0  0  0  0  0  0  0  0  0  0  0  0
    6.1843    0.4963   -0.5775 C   0  0  0  0  0  0  0  0  0  0  0  0
    5.5703   -0.6928    0.1614 C   0  0  0  0  0  0  0  0  0  0  0  0
    4.2690   -0.3257    0.7957 C   0  0  0  0  0  0  0  0  0  0  0  0
    4.1460    0.2255    1.9854 N   0  0  0  0  0  0  0  0  0  0  0  0
    2.8231    0.4577    2.3169 N   0  0  0  0  0  0  0  0  0  0  0  0
    2.0094    0.0717    1.3666 C   0  0  0  0  0  0  0  0  0  0  0  0
    0.6485    0.1196    1.2906 N   0  0  0  0  0  0  0  0  0  0  0  0
   -0.1368    0.6289    2.2981 C   0  0  0  0  0  0  0  0  0  0  0  0
    0.2492    1.0945    3.3658 O   0  0  0  0  0  0  0  0  0  0  0  0
   -1.6312    0.5707    1.9722 C   0  0  0  0  0  0  0  0  0  0  0  0
   -1.8547   -0.0057    0.6851 O   0  0  0  0  0  0  0  0  0  0  0  0
   -3.1573   -0.1132    0.2762 C   0  0  0  0  0  0  0  0  0  0  0  0
   -3.3201   -0.6880   -1.0011 C   0  0  0  0  0  0  0  0  0  0  0  0
   -4.5907   -0.8652   -1.5581 C   0  0  0  0  0  0  0  0  0  0  0  0
   -5.6734   -0.4579   -0.8131 C   0  0  0  0  0  0  0  0  0  0  0  0
   -5.5204    0.1029    0.4324 C   0  0  0  0  0  0  0  0  0  0  0  0
   -4.2784    0.2899    1.0070 C   0  0  0  0  0  0  0  0  0  0  0  0
   -6.7117    0.4355    0.9997 O   0  0  0  0  0  0  0  0  0  0  0  0
   -7.6307    0.0193   -0.0324 C   0  0  0  0  0  0  0  0  0  0  0  0
   -6.9769   -0.5489   -1.1863 O   0  0  0  0  0  0  0  0  0  0  0  0
    2.7709   -0.6032   -0.0048 S   0  0  0  0  0  0  0  0  0  0  0  0
    8.2380   -0.1867   -0.4406 H   0  0  0  0  0  0  0  0  0  0  0  0
    7.4062   -0.6797   -1.9290 H   0  0  0  0  0  0  0  0  0  0  0  0
    7.9430    0.9967   -1.7259 H   0  0  0  0  0  0  0  0  0  0  0  0
    5.5033    0.8462   -1.3630 H   0  0  0  0  0  0  0  0  0  0  0  0
    6.3277    1.3360    0.1138 H   0  0  0  0  0  0  0  0  0  0  0  0
    6.2578   -1.0347    0.9450 H   0  0  0  0  0  0  0  0  0  0  0  0
    5.4382   -1.5364   -0.5271 H   0  0  0  0  0  0  0  0  0  0  0  0
    0.2006   -0.2356    0.4562 H   0  0  0  0  0  0  0  0  0  0  0  0
   -2.1053   -0.0420    2.7476 H   0  0  0  0  0  0  0  0  0  0  0  0
   -2.0051    1.6008    1.9944 H   0  0  0  0  0  0  0  0  0  0  0  0
   -2.4452   -1.0005   -1.5667 H   0  0  0  0  0  0  0  0  0  0  0  0
   -4.7198   -1.3066   -2.5396 H   0  0  0  0  0  0  0  0  0  0  0  0
   -4.2199    0.7369    1.9912 H   0  0  0  0  0  0  0  0  0  0  0  0
   -8.3139   -0.7281    0.3872 H   0  0  0  0  0  0  0  0  0  0  0  0
   -8.2150    0.8895   -0.3532 H   0  0  0  0  0  0  0  0  0  0  0  0
  1  2  1  0
  2  3  1  0
  3  4  1  0
  4  5  2  0
  5  6  1  0
  6  7  2  0
  7  8  1  0
  8  9  1  0
  9 10  2  0
  9 11  1  0
 11 12  1  0
 12 13  1  0
 13 14  2  0
 14 15  1  0
 15 16  2  0
 16 17  1  0
 17 18  2  0
 17 19  1  0
 19 20  1  0
 20 21  1  0
  7 22  1  0
 22  4  1  0
 18 13  1  0
 21 16  1  0
  1 23  1  0
  1 24  1  0
  1 25  1  0
  2 26  1  0
  2 27  1  0
  3 28  1  0
  3 29  1  0
  8 30  1  0
 11 31  1  0
 11 32  1  0
 14 33  1  0
 15 34  1  0
 18 35  1  0
 20 36  1  0
 20 37  1  0
M  END
$$$$
