
     RDKit          3D

 45 49  0  0  0  0  0  0  0  0999 V2000
    6.7570   -0.7616   -3.1000 Cl  0  0  0  0  0  0  0  0  0  0  0  0
    6.0765   -0.0820   -1.6709 C   0  0  0  0  0  0  0  0  0  0  0  0
    6.8881    0.6278   -0.7951 C   0  0  0  0  0  0  0  0  0  0  0  0
    6.3279    1.1716    0.3539 C   0  0  0  0  0  0  0  0  0  0  0  0
    4.9620    1.0025    0.6134 C   0  0  0  0  0  0  0  0  0  0  0  0
    4.1148    0.2941   -0.2580 C   0  0  0  0  0  0  0  0  0  0  0  0
    2.7670    0.1306    0.0216 N   0  0  0  0  0  0  0  0  0  0  0  0
    1.9362   -0.8596   -0.6834 C   0  0  0  0  0  0  0  0  0  0  0  0
    0.6806   -1.2299    0.1374 C   0  0  0  0  0  0  0  0  0  0  0  0
   -0.1390   -0.0602    0.4967 N   0  0  0  0  0  0  0  0  0  0  0  0
   -1.5267   -0.0888    0.3902 C   0  0  0  0  0  0  0  0  0  0  0  0
   -2.1294    0.9820   -0.0672 N   0  0  0  0  0  0  0  0  0  0  0  0
   -3.5259    1.0085   -0.2399 C   0  0  0  0  0  0  0  0  0  0  0  0
   -4.1092    2.1711   -0.7478 C   0  0  0  0  0  0  0  0  0  0  0  0
   -5.4897    2.2473   -0.9507 C   0  0  0  0  0  0  0  0  0  0  0  0
   -6.3030    1.1553   -0.6464 C   0  0  0  0  0  0  0  0  0  0  0  0
   -5.7414   -0.0164   -0.1375 C   0  0  0  0  0  0  0  0  0  0  0  0
   -4.3584   -0.0775    0.0595 C   0  0  0  0  0  0  0  0  0  0  0  0
   -3.7124   -1.2102    0.5800 N   0  0  0  0  0  0  0  0  0  0  0  0
   -4.2495   -2.4070    0.9914 C   0  0  0  0  0  0  0  0  0  0  0  0
   -3.2324   -3.1827    1.5015 C   0  0  0  0  0  0  0  0  0  0  0  0
   -2.0372   -2.4366    1.3799 C   0  0  0  0  0  0  0  0  0  0  0  0
   -2.3462   -1.2332    0.7683 C   0  0  0  0  0  0  0  0  0  0  0  0
    0.5580    1.2372    0.4183 C   0  0  0  0  0  0  0  0  0  0  0  0
    2.0390    1.1261    0.8342 C   0  0  0  0  0  0  0  0  0  0  0  0
    4.7128   -0.2490   -1.4063 C   0  0  0  0  0  0  0  0  0  0  0  0
    7.9469    0.7565   -0.9989 H   0  0  0  0  0  0  0  0  0  0  0  0
    6.9484    1.7223    1.0560 H   0  0  0  0  0  0  0  0  0  0  0  0
    4.5721    1.4206    1.5383 H   0  0  0  0  0  0  0  0  0  0  0  0
    1.6374   -0.4559   -1.6587 H   0  0  0  0  0  0  0  0  0  0  0  0
    2.4979   -1.7859   -0.8539 H   0  0  0  0  0  0  0  0  0  0  0  0
    0.9933   -1.7270    1.0631 H   0  0  0  0  0  0  0  0  0  0  0  0
    0.0994   -1.9472   -0.4531 H   0  0  0  0  0  0  0  0  0  0  0  0
   -3.4779    3.0224   -0.9881 H   0  0  0  0  0  0  0  0  0  0  0  0
   -5.9279    3.1597   -1.3471 H   0  0  0  0  0  0  0  0  0  0  0  0
   -7.3768    1.2190   -0.8053 H   0  0  0  0  0  0  0  0  0  0  0  0
   -6.3946   -0.8509    0.0944 H   0  0  0  0  0  0  0  0  0  0  0  0
   -5.3067   -2.6145    0.9132 H   0  0  0  0  0  0  0  0  0  0  0  0
   -3.3431   -4.1721    1.9265 H   0  0  0  0  0  0  0  0  0  0  0  0
   -1.0575   -2.7511    1.7110 H   0  0  0  0  0  0  0  0  0  0  0  0
    0.0693    1.9615    1.0811 H   0  0  0  0  0  0  0  0  0  0  0  0
    0.4942    1.6227   -0.6072 H   0  0  0  0  0  0  0  0  0  0  0  0
    2.4836    2.1230    0.7277 H   0  0  0  0  0  0  0  0  0  0  0  0
    2.1046    0.8335    1.8891 H   0  0  0  0  0  0  0  0  0  0  0  0
    4.1180   -0.7959   -2.1312 H   0  0  0  0  0  0  0  0  0  0  0  0
  1  2  1  0
  2  3  2  0
  3  4  1  0
  4  5  2  0
  5  6  1  0
  6  7  1  0
  7  8  1  0
  8  9  1  0
  9 10  1  0
 10 11  1  0
 11 12  2  0
 12 13  1  0
 13 14  2  0
 14 15  1  0
 15 16  2  0
 16 17  1  0
 17 18  2  0
 18 19  1  0
 19 20  1  0
 20 21  2  0
 21 22  1  0
 22 23  2  0
 10 24  1  0
 24 25  1  0
  6 26  2  0
 26  2  1  0
 25  7  1  0
 23 11  1  0
 18 13  1  0
 23 19  1  0
  3 27  1  0
  4 28  1  0
  5 29  1  0
  8 30  1  0
  8 31  1  0
  9 32  1  0
  9 33  1  0
 14 34  1  0
 15 35  1  0
 16 36  1  0
 17 37  1  0
 20 38  1  0
 21 39  1  0
 22 40  1  0
 24 41  1  0
 24 42  1  0
 25 43  1  0
 25 44  1  0
 26 45  1  0
M  END
$$$$
