
     RDKit          3D

 43 46  0  0  0  0  0  0  0  0999 V2000
   -8.2358    0.4132   -0.0189 C   0  0  0  0  0  0  0  0  0  0  0  0
   -7.2126   -0.0259    0.8649 O   0  0  0  0  0  0  0  0  0  0  0  0
   -5.9479   -0.1141    0.3525 C   0  0  0  0  0  0  0  0  0  0  0  0
   -5.5760    0.1470   -0.9663 C   0  0  0  0  0  0  0  0  0  0  0  0
   -4.2378    0.0150   -1.3617 C   0  0  0  0  0  0  0  0  0  0  0  0
   -3.2587   -0.3900   -0.4463 C   0  0  0  0  0  0  0  0  0  0  0  0
   -1.8595   -0.5321   -0.8271 C   0  0  0  0  0  0  0  0  0  0  0  0
   -0.8661   -0.0381    0.0047 N   0  0  0  0  0  0  0  0  0  0  0  0
    0.3051   -0.2650   -0.5213 C   0  0  0  0  0  0  0  0  0  0  0  0
    1.5416    0.0535   -0.0533 N   0  0  0  0  0  0  0  0  0  0  0  0
    1.7584    0.6978    1.1453 C   0  0  0  0  0  0  0  0  0  0  0  0
    0.9069    1.0650    1.9459 O   0  0  0  0  0  0  0  0  0  0  0  0
    3.2085    0.9061    1.3782 C   0  0  0  0  0  0  0  0  0  0  0  0
    3.7230    1.5223    2.4926 N   0  0  0  0  0  0  0  0  0  0  0  0
    5.0217    1.5015    2.3079 C   0  0  0  0  0  0  0  0  0  0  0  0
    6.0152    1.9828    3.1119 N   0  0  0  0  0  0  0  0  0  0  0  0
    7.2248    1.8238    2.6743 C   0  0  0  0  0  0  0  0  0  0  0  0
    7.6224    1.1740    1.3950 C   0  0  0  0  0  0  0  0  0  0  0  0
    6.6152    0.7131    0.6319 C   0  0  0  0  0  0  0  0  0  0  0  0
    6.8336    0.0338   -0.6834 C   0  0  0  0  0  0  0  0  0  0  0  0
    5.2988    0.8750    1.0865 N   0  0  0  0  0  0  0  0  0  0  0  0
    4.1394    0.4934    0.4917 N   0  0  0  0  0  0  0  0  0  0  0  0
    0.3185   -1.0846   -2.0147 S   0  0  0  0  0  0  0  0  0  0  0  0
   -1.4007   -1.1798   -1.9663 C   0  0  0  0  0  0  0  0  0  0  0  0
   -2.1326   -1.8929   -3.0490 C   0  0  0  0  0  0  0  0  0  0  0  0
   -3.6349   -0.6295    0.8797 C   0  0  0  0  0  0  0  0  0  0  0  0
   -4.9703   -0.4991    1.2718 C   0  0  0  0  0  0  0  0  0  0  0  0
   -9.1731    0.4462    0.5448 H   0  0  0  0  0  0  0  0  0  0  0  0
   -8.3702   -0.2903   -0.8471 H   0  0  0  0  0  0  0  0  0  0  0  0
   -8.0332    1.4244   -0.3873 H   0  0  0  0  0  0  0  0  0  0  0  0
   -6.2979    0.4635   -1.7114 H   0  0  0  0  0  0  0  0  0  0  0  0
   -3.9713    0.2539   -2.3877 H   0  0  0  0  0  0  0  0  0  0  0  0
    2.3502   -0.1992   -0.6057 H   0  0  0  0  0  0  0  0  0  0  0  0
    8.0634    2.1956    3.2872 H   0  0  0  0  0  0  0  0  0  0  0  0
    8.6722    1.1043    1.1451 H   0  0  0  0  0  0  0  0  0  0  0  0
    7.8982   -0.0346   -0.9323 H   0  0  0  0  0  0  0  0  0  0  0  0
    6.4331   -0.9853   -0.6628 H   0  0  0  0  0  0  0  0  0  0  0  0
    6.3406    0.5866   -1.4900 H   0  0  0  0  0  0  0  0  0  0  0  0
   -1.5055   -2.6474   -3.5359 H   0  0  0  0  0  0  0  0  0  0  0  0
   -3.0107   -2.4130   -2.6529 H   0  0  0  0  0  0  0  0  0  0  0  0
   -2.4644   -1.1841   -3.8143 H   0  0  0  0  0  0  0  0  0  0  0  0
   -2.8863   -0.9130    1.6177 H   0  0  0  0  0  0  0  0  0  0  0  0
   -5.2456   -0.6907    2.3060 H   0  0  0  0  0  0  0  0  0  0  0  0
  1  2  1  0
  2  3  1  0
  3  4  2  0
  4  5  1  0
  5  6  2  0
  6  7  1  0
  7  8  1  0
  8  9  2  0
  9 10  1  0
 10 11  1  0
 11 12  2  0
 11 13  1  0
 13 14  1  0
 14 15  2  0
 15 16  1  0
 16 17  2  0
 17 18  1  0
 18 19  2  0
 19 20  1  0
 19 21  1  0
 21 22  1  0
  9 23  1  0
 23 24  1  0
 24 25  1  0
  6 26  1  0
 26 27  2  0
 27  3  1  0
 24  7  2  0
 22 13  2  0
 21 15  1  0
  1 28  1  0
  1 29  1  0
  1 30  1  0
  4 31  1  0
  5 32  1  0
 10 33  1  0
 17 34  1  0
 18 35  1  0
 20 36  1  0
 20 37  1  0
 20 38  1  0
 25 39  1  0
 25 40  1  0
 25 41  1  0
 26 42  1  0
 27 43  1  0
M  END
$$$$
