
     RDKit          3D

 54 58  0  0  0  0  0  0  0  0999 V2000
    1.7465   -0.1019    2.8359 O   0  0  0  0  0  0  0  0  0  0  0  0
    2.2938    0.3527    1.8344 C   0  0  0  0  0  0  0  0  0  0  0  0
    1.5693    1.2643    0.8637 C   0  0  0  0  0  0  0  0  0  0  0  0
    1.1386    0.3109   -0.6216 S   0  0  0  0  0  0  0  0  0  0  0  0
   -0.2999    1.2029   -1.0870 C   0  0  0  0  0  0  0  0  0  0  0  0
   -0.1290    2.4751   -1.2802 N   0  0  0  0  0  0  0  0  0  0  0  0
   -1.2836    3.1720   -1.6524 C   0  0  0  0  0  0  0  0  0  0  0  0
   -2.4940    2.5605   -1.7662 C   0  0  0  0  0  0  0  0  0  0  0  0
   -3.7189    3.6357   -2.2131 S   0  0  0  0  0  0  0  0  0  0  0  0
   -2.6143    4.9675   -2.2688 C   0  0  0  0  0  0  0  0  0  0  0  0
   -2.9135    6.3048   -2.5949 C   0  0  0  0  0  0  0  0  0  0  0  0
   -1.8833    7.2484   -2.5869 C   0  0  0  0  0  0  0  0  0  0  0  0
   -0.5853    6.8770   -2.2624 C   0  0  0  0  0  0  0  0  0  0  0  0
   -0.2913    5.5493   -1.9387 C   0  0  0  0  0  0  0  0  0  0  0  0
   -1.3124    4.5684   -1.9384 C   0  0  0  0  0  0  0  0  0  0  0  0
   -2.6853    1.1618   -1.5236 C   0  0  0  0  0  0  0  0  0  0  0  0
   -3.7773    0.5976   -1.5617 O   0  0  0  0  0  0  0  0  0  0  0  0
   -1.4941    0.4917   -1.2123 N   0  0  0  0  0  0  0  0  0  0  0  0
   -1.6224   -0.9446   -0.9254 C   0  0  0  0  0  0  0  0  0  0  0  0
   -1.9405   -1.1973    0.5541 C   0  0  0  0  0  0  0  0  0  0  0  0
   -1.8851   -2.6649    0.8918 C   0  0  0  0  0  0  0  0  0  0  0  0
   -2.9750   -3.5002    0.6135 C   0  0  0  0  0  0  0  0  0  0  0  0
   -2.9130   -4.8626    0.9094 C   0  0  0  0  0  0  0  0  0  0  0  0
   -1.7624   -5.4014    1.4828 C   0  0  0  0  0  0  0  0  0  0  0  0
   -0.6723   -4.5787    1.7606 C   0  0  0  0  0  0  0  0  0  0  0  0
   -0.7311   -3.2160    1.4653 C   0  0  0  0  0  0  0  0  0  0  0  0
    3.6014    0.0810    1.4894 N   0  0  0  0  0  0  0  0  0  0  0  0
    4.3511   -0.9391    2.1873 C   0  0  0  0  0  0  0  0  0  0  0  0
    4.1032   -2.2395    1.5169 C   0  0  0  0  0  0  0  0  0  0  0  0
    3.3435   -3.3447    1.8428 C   0  0  0  0  0  0  0  0  0  0  0  0
    3.4898   -4.2599    0.7738 C   0  0  0  0  0  0  0  0  0  0  0  0
    4.3316   -3.6583   -0.1330 C   0  0  0  0  0  0  0  0  0  0  0  0
    4.7105   -2.4311    0.3082 O   0  0  0  0  0  0  0  0  0  0  0  0
    0.6721    1.6469    1.3614 H   0  0  0  0  0  0  0  0  0  0  0  0
    2.2070    2.1138    0.5989 H   0  0  0  0  0  0  0  0  0  0  0  0
   -3.9277    6.5998   -2.8492 H   0  0  0  0  0  0  0  0  0  0  0  0
   -2.1025    8.2837   -2.8384 H   0  0  0  0  0  0  0  0  0  0  0  0
    0.2085    7.6199   -2.2604 H   0  0  0  0  0  0  0  0  0  0  0  0
    0.7273    5.2634   -1.6874 H   0  0  0  0  0  0  0  0  0  0  0  0
   -0.7131   -1.4735   -1.2284 H   0  0  0  0  0  0  0  0  0  0  0  0
   -2.4206   -1.3673   -1.5492 H   0  0  0  0  0  0  0  0  0  0  0  0
   -1.2434   -0.6480    1.1995 H   0  0  0  0  0  0  0  0  0  0  0  0
   -2.9343   -0.8026    0.8024 H   0  0  0  0  0  0  0  0  0  0  0  0
   -3.8808   -3.0938    0.1677 H   0  0  0  0  0  0  0  0  0  0  0  0
   -3.7644   -5.5036    0.6949 H   0  0  0  0  0  0  0  0  0  0  0  0
   -1.7172   -6.4620    1.7162 H   0  0  0  0  0  0  0  0  0  0  0  0
    0.2232   -4.9973    2.2118 H   0  0  0  0  0  0  0  0  0  0  0  0
    0.1277   -2.5857    1.6912 H   0  0  0  0  0  0  0  0  0  0  0  0
    3.8587    0.2268    0.5201 H   0  0  0  0  0  0  0  0  0  0  0  0
    4.0585   -0.9758    3.2429 H   0  0  0  0  0  0  0  0  0  0  0  0
    5.4102   -0.6707    2.1258 H   0  0  0  0  0  0  0  0  0  0  0  0
    2.7470   -3.4634    2.7377 H   0  0  0  0  0  0  0  0  0  0  0  0
    3.0359   -5.2361    0.6710 H   0  0  0  0  0  0  0  0  0  0  0  0
    4.7327   -3.9561   -1.0918 H   0  0  0  0  0  0  0  0  0  0  0  0
  1  2  2  0
  2  3  1  0
  3  4  1  0
  4  5  1  0
  5  6  2  0
  6  7  1  0
  7  8  2  0
  8  9  1  0
  9 10  1  0
 10 11  2  0
 11 12  1  0
 12 13  2  0
 13 14  1  0
 14 15  2  0
  8 16  1  0
 16 17  2  0
 16 18  1  0
 18 19  1  0
 19 20  1  0
 20 21  1  0
 21 22  2  0
 22 23  1  0
 23 24  2  0
 24 25  1  0
 25 26  2  0
  2 27  1  0
 27 28  1  0
 28 29  1  0
 29 30  2  0
 30 31  1  0
 31 32  2  0
 32 33  1  0
 18  5  1  0
 26 21  1  0
 33 29  1  0
 15  7  1  0
 15 10  1  0
  3 34  1  0
  3 35  1  0
 11 36  1  0
 12 37  1  0
 13 38  1  0
 14 39  1  0
 19 40  1  0
 19 41  1  0
 20 42  1  0
 20 43  1  0
 22 44  1  0
 23 45  1  0
 24 46  1  0
 25 47  1  0
 26 48  1  0
 27 49  1  0
 28 50  1  0
 28 51  1  0
 30 52  1  0
 31 53  1  0
 32 54  1  0
M  END
$$$$
