
     RDKit          3D

 36 37  0  0  0  0  0  0  0  0999 V2000
   -0.3112   -1.7834    0.4654 O   0  0  0  0  0  0  0  0  0  0  0  0
   -0.3486   -1.0958   -0.5530 C   0  0  0  0  0  0  0  0  0  0  0  0
    0.8896   -0.7760   -1.3983 C   0  0  0  0  0  0  0  0  0  0  0  0
    2.1084   -1.0721   -0.7202 O   0  0  0  0  0  0  0  0  0  0  0  0
    2.3954   -0.2030    0.2768 C   0  0  0  0  0  0  0  0  0  0  0  0
    1.7883    0.8088    0.5810 O   0  0  0  0  0  0  0  0  0  0  0  0
    3.5341   -0.7313    1.0367 C   0  0  0  0  0  0  0  0  0  0  0  0
    3.2700   -1.1776    2.3398 C   0  0  0  0  0  0  0  0  0  0  0  0
    4.3023   -1.6937    3.1181 C   0  0  0  0  0  0  0  0  0  0  0  0
    5.5942   -1.7569    2.5965 C   0  0  0  0  0  0  0  0  0  0  0  0
    5.8590   -1.2994    1.2983 C   0  0  0  0  0  0  0  0  0  0  0  0
    7.4947   -1.4078    0.7435 Cl  0  0  0  0  0  0  0  0  0  0  0  0
    4.8280   -0.7767    0.5043 C   0  0  0  0  0  0  0  0  0  0  0  0
    5.1511   -0.1684   -1.0872 Cl  0  0  0  0  0  0  0  0  0  0  0  0
   -1.5164   -0.5588   -1.0523 N   0  0  0  0  0  0  0  0  0  0  0  0
   -2.7590   -0.6538   -0.3048 C   0  0  0  0  0  0  0  0  0  0  0  0
   -3.9456   -0.0144   -1.0338 C   0  0  0  0  0  0  0  0  0  0  0  0
   -3.8662    1.4396   -1.0671 N   0  0  0  0  0  0  0  0  0  0  0  0
   -4.5372    2.2598   -0.1935 C   0  0  0  0  0  0  0  0  0  0  0  0
   -5.3517    1.7019    0.7448 O   0  0  0  0  0  0  0  0  0  0  0  0
   -4.2995    3.5658   -0.3628 C   0  0  0  0  0  0  0  0  0  0  0  0
   -3.1780    3.8389   -1.6623 S   0  0  0  0  0  0  0  0  0  0  0  0
   -3.0169    2.0980   -1.9413 C   0  0  0  0  0  0  0  0  0  0  0  0
   -2.2469    1.5995   -2.7489 O   0  0  0  0  0  0  0  0  0  0  0  0
    0.8756    0.2703   -1.7263 H   0  0  0  0  0  0  0  0  0  0  0  0
    0.8513   -1.4066   -2.2928 H   0  0  0  0  0  0  0  0  0  0  0  0
    2.2573   -1.1293    2.7387 H   0  0  0  0  0  0  0  0  0  0  0  0
    4.1011   -2.0474    4.1270 H   0  0  0  0  0  0  0  0  0  0  0  0
    6.3970   -2.1620    3.2094 H   0  0  0  0  0  0  0  0  0  0  0  0
   -1.4496    0.1394   -1.7934 H   0  0  0  0  0  0  0  0  0  0  0  0
   -2.9575   -1.7187   -0.1391 H   0  0  0  0  0  0  0  0  0  0  0  0
   -2.6023   -0.1867    0.6743 H   0  0  0  0  0  0  0  0  0  0  0  0
   -3.9736   -0.3718   -2.0708 H   0  0  0  0  0  0  0  0  0  0  0  0
   -4.8848   -0.3207   -0.5609 H   0  0  0  0  0  0  0  0  0  0  0  0
   -5.7316    2.4161    1.2850 H   0  0  0  0  0  0  0  0  0  0  0  0
   -4.7211    4.3742    0.2160 H   0  0  0  0  0  0  0  0  0  0  0  0
  1  2  2  0
  2  3  1  0
  3  4  1  0
  4  5  1  0
  5  6  2  0
  5  7  1  0
  7  8  2  0
  8  9  1  0
  9 10  2  0
 10 11  1  0
 11 12  1  0
 11 13  2  0
 13 14  1  0
  2 15  1  0
 15 16  1  0
 16 17  1  0
 17 18  1  0
 18 19  1  0
 19 20  1  0
 19 21  2  0
 21 22  1  0
 22 23  1  0
 23 24  2  0
 13  7  1  0
 23 18  1  0
  3 25  1  0
  3 26  1  0
  8 27  1  0
  9 28  1  0
 10 29  1  0
 15 30  1  0
 16 31  1  0
 16 32  1  0
 17 33  1  0
 17 34  1  0
 20 35  1  0
 21 36  1  0
M  END
$$$$
