
     RDKit          3D

 67 72  0  0  0  0  0  0  0  0999 V2000
   -4.2748   -4.6895    1.3656 C   0  0  0  0  0  0  0  0  0  0  0  0
   -3.4560   -3.4698    1.6659 C   0  0  0  0  0  0  0  0  0  0  0  0
   -3.3195   -2.9790    2.9792 C   0  0  0  0  0  0  0  0  0  0  0  0
   -4.0994   -3.7594    4.3122 Cl  0  0  0  0  0  0  0  0  0  0  0  0
   -2.5415   -1.8393    3.2658 C   0  0  0  0  0  0  0  0  0  0  0  0
   -1.8729   -1.1555    2.2506 C   0  0  0  0  0  0  0  0  0  0  0  0
   -2.0013   -1.6287    0.9556 C   0  0  0  0  0  0  0  0  0  0  0  0
   -2.7727   -2.7687    0.6799 C   0  0  0  0  0  0  0  0  0  0  0  0
   -2.7194   -3.0490   -0.6854 N   0  0  0  0  0  0  0  0  0  0  0  0
   -1.9127   -2.1392   -1.3741 C   0  0  0  0  0  0  0  0  0  0  0  0
   -1.6647   -2.1909   -2.5692 O   0  0  0  0  0  0  0  0  0  0  0  0
   -1.4077   -1.1191   -0.3238 C   0  0  1  0  0  0  0  0  0  0  0  0
   -1.8918    0.2643   -0.5811 C   0  0  0  0  0  0  0  0  0  0  0  0
   -0.8356    1.0595   -1.0540 C   0  0  0  0  0  0  0  0  0  0  0  0
   -1.3034    2.3223   -1.2955 C   0  0  0  0  0  0  0  0  0  0  0  0
   -0.6776    3.3742   -1.8173 O   0  0  0  0  0  0  0  0  0  0  0  0
   -2.6749    2.3388   -0.9496 N   0  0  0  0  0  0  0  0  0  0  0  0
   -3.5591    3.4717   -1.0352 C   0  0  0  0  0  0  0  0  0  0  0  0
   -3.0545    4.7818   -0.9808 C   0  0  0  0  0  0  0  0  0  0  0  0
   -3.9146    5.8819   -1.0624 C   0  0  0  0  0  0  0  0  0  0  0  0
   -5.2798    5.6783   -1.2003 C   0  0  0  0  0  0  0  0  0  0  0  0
   -6.1021    6.7327   -1.2790 F   0  0  0  0  0  0  0  0  0  0  0  0
   -5.8029    4.3948   -1.2576 C   0  0  0  0  0  0  0  0  0  0  0  0
   -4.9456    3.2925   -1.1745 C   0  0  0  0  0  0  0  0  0  0  0  0
   -3.0200    1.0409   -0.5040 C   0  0  0  0  0  0  0  0  0  0  0  0
   -4.2330    0.7348   -0.0484 O   0  0  0  0  0  0  0  0  0  0  0  0
    0.3995    0.2534   -1.1781 C   0  0  1  0  0  0  0  0  0  0  0  0
    1.7017    0.8524   -0.6480 C   0  0  0  0  0  0  0  0  0  0  0  0
    2.7356   -0.1686   -0.4135 N   0  0  0  0  0  0  0  0  0  0  0  0
    3.9975    0.2618   -0.0538 C   0  0  0  0  0  0  0  0  0  0  0  0
    4.2659    1.4369    0.1616 O   0  0  0  0  0  0  0  0  0  0  0  0
    4.8875   -0.7595    0.0183 O   0  0  0  0  0  0  0  0  0  0  0  0
    6.2705   -0.5226    0.3857 C   0  0  0  0  0  0  0  0  0  0  0  0
    6.9246   -1.9125    0.3480 C   0  0  0  0  0  0  0  0  0  0  0  0
    6.3817    0.0310    1.8107 C   0  0  0  0  0  0  0  0  0  0  0  0
    6.9746    0.3761   -0.6370 C   0  0  0  0  0  0  0  0  0  0  0  0
    2.4247   -1.5600   -0.7814 C   0  0  0  0  0  0  0  0  0  0  0  0
    0.9816   -2.0121   -0.4161 C   0  0  0  0  0  0  0  0  0  0  0  0
    0.0501   -0.9046   -0.3168 N   0  0  0  0  0  0  0  0  0  0  0  0
   -3.8254   -5.5712    1.8343 H   0  0  0  0  0  0  0  0  0  0  0  0
   -4.3486   -4.8899    0.2932 H   0  0  0  0  0  0  0  0  0  0  0  0
   -5.2986   -4.5636    1.7331 H   0  0  0  0  0  0  0  0  0  0  0  0
   -2.4534   -1.4845    4.2912 H   0  0  0  0  0  0  0  0  0  0  0  0
   -1.2680   -0.2796    2.4698 H   0  0  0  0  0  0  0  0  0  0  0  0
   -3.1636   -3.8248   -1.1539 H   0  0  0  0  0  0  0  0  0  0  0  0
    0.2300    3.1134   -2.0484 H   0  0  0  0  0  0  0  0  0  0  0  0
   -1.9968    4.9818   -0.8382 H   0  0  0  0  0  0  0  0  0  0  0  0
   -3.5233    6.8928   -1.0127 H   0  0  0  0  0  0  0  0  0  0  0  0
   -6.8727    4.2543   -1.3730 H   0  0  0  0  0  0  0  0  0  0  0  0
   -5.3889    2.3050   -1.2593 H   0  0  0  0  0  0  0  0  0  0  0  0
   -4.2055   -0.1647    0.3211 H   0  0  0  0  0  0  0  0  0  0  0  0
    0.5161   -0.0709   -2.2214 H   0  0  0  0  0  0  0  0  0  0  0  0
    2.0961    1.5895   -1.3582 H   0  0  0  0  0  0  0  0  0  0  0  0
    1.5442    1.3791    0.3025 H   0  0  0  0  0  0  0  0  0  0  0  0
    6.8340   -2.3589   -0.6493 H   0  0  0  0  0  0  0  0  0  0  0  0
    7.9864   -1.8703    0.6128 H   0  0  0  0  0  0  0  0  0  0  0  0
    6.4219   -2.5984    1.0398 H   0  0  0  0  0  0  0  0  0  0  0  0
    5.8021   -0.5799    2.5117 H   0  0  0  0  0  0  0  0  0  0  0  0
    5.9907    1.0501    1.8858 H   0  0  0  0  0  0  0  0  0  0  0  0
    7.4234    0.0547    2.1486 H   0  0  0  0  0  0  0  0  0  0  0  0
    6.6026    1.4044   -0.6030 H   0  0  0  0  0  0  0  0  0  0  0  0
    6.8030    0.0134   -1.6567 H   0  0  0  0  0  0  0  0  0  0  0  0
    8.0545    0.4136   -0.4577 H   0  0  0  0  0  0  0  0  0  0  0  0
    2.5544   -1.6149   -1.8696 H   0  0  0  0  0  0  0  0  0  0  0  0
    3.1437   -2.2541   -0.3352 H   0  0  0  0  0  0  0  0  0  0  0  0
    0.6701   -2.7585   -1.1550 H   0  0  0  0  0  0  0  0  0  0  0  0
    1.0133   -2.5199    0.5550 H   0  0  0  0  0  0  0  0  0  0  0  0
  1  2  1  0
  2  3  2  0
  3  4  1  0
  3  5  1  0
  5  6  2  0
  6  7  1  0
  7  8  2  0
  8  9  1  0
  9 10  1  0
 10 11  2  0
 10 12  1  0
 12 13  1  0
 13 14  1  0
 14 15  2  0
 15 16  1  0
 15 17  1  0
 17 18  1  0
 18 19  2  0
 19 20  1  0
 20 21  2  0
 21 22  1  0
 21 23  1  0
 23 24  2  0
 17 25  1  0
 25 26  1  0
 14 27  1  0
 27 28  1  0
 28 29  1  0
 29 30  1  0
 30 31  2  0
 30 32  1  0
 32 33  1  0
 33 34  1  0
 33 35  1  0
 33 36  1  0
 29 37  1  0
 37 38  1  0
 38 39  1  0
  8  2  1  0
 12 39  1  1
 12  7  1  0
 25 13  2  0
 39 27  1  0
 24 18  1  0
  1 40  1  0
  1 41  1  0
  1 42  1  0
  5 43  1  0
  6 44  1  0
  9 45  1  0
 16 46  1  0
 19 47  1  0
 20 48  1  0
 23 49  1  0
 24 50  1  0
 26 51  1  0
 27 52  1  6
 28 53  1  0
 28 54  1  0
 34 55  1  0
 34 56  1  0
 34 57  1  0
 35 58  1  0
 35 59  1  0
 35 60  1  0
 36 61  1  0
 36 62  1  0
 36 63  1  0
 37 64  1  0
 37 65  1  0
 38 66  1  0
 38 67  1  0
M  END
$$$$
