
     RDKit          3D

 57 62  0  0  0  0  0  0  0  0999 V2000
    7.8613   -0.2486    2.0231 C   0  0  0  0  0  0  0  0  0  0  0  0
    6.5813    0.0446    1.3184 C   0  0  0  0  0  0  0  0  0  0  0  0
    5.6293    0.9936    1.6268 C   0  0  0  0  0  0  0  0  0  0  0  0
    4.5348    0.9740    0.7139 C   0  0  0  0  0  0  0  0  0  0  0  0
    4.6743   -0.0053   -0.2513 C   0  0  0  0  0  0  0  0  0  0  0  0
    3.7925   -0.3368   -1.3580 C   0  0  0  0  0  0  0  0  0  0  0  0
    4.2019   -0.4216   -2.5171 O   0  0  0  0  0  0  0  0  0  0  0  0
    2.4304   -0.5238   -1.0758 N   0  0  0  0  0  0  0  0  0  0  0  0
    1.5367   -0.7007   -2.2117 C   0  0  0  0  0  0  0  0  0  0  0  0
    0.0658   -0.7997   -1.8030 C   0  0  0  0  0  0  0  0  0  0  0  0
   -0.2794    0.1951   -0.6689 C   0  0  0  0  0  0  0  0  0  0  0  0
    0.6492   -0.0582    0.5615 C   0  0  0  0  0  0  0  0  0  0  0  0
    1.8924   -0.8835    0.2278 C   0  0  0  0  0  0  0  0  0  0  0  0
    0.0959    1.5307   -1.1071 O   0  0  0  0  0  0  0  0  0  0  0  0
   -0.7830    2.2242   -1.8821 C   0  0  0  0  0  0  0  0  0  0  0  0
   -0.2825    3.3717   -2.4973 C   0  0  0  0  0  0  0  0  0  0  0  0
   -1.1047    4.1388   -3.3263 C   0  0  0  0  0  0  0  0  0  0  0  0
   -2.4292    3.7560   -3.5365 C   0  0  0  0  0  0  0  0  0  0  0  0
   -3.4369    4.6981   -4.5637 Cl  0  0  0  0  0  0  0  0  0  0  0  0
   -2.9401    2.6174   -2.9202 C   0  0  0  0  0  0  0  0  0  0  0  0
   -2.1101    1.8636   -2.0839 C   0  0  0  0  0  0  0  0  0  0  0  0
   -2.6246    0.6691   -1.4036 C   0  0  0  0  0  0  0  0  0  0  0  0
   -3.6789    0.1613   -1.7764 O   0  0  0  0  0  0  0  0  0  0  0  0
   -1.7756    0.1325   -0.2571 C   0  0  0  0  0  0  0  0  0  0  0  0
   -2.2654   -1.2411    0.1844 C   0  0  0  0  0  0  0  0  0  0  0  0
   -3.1634   -0.8134    1.2964 C   0  0  0  0  0  0  0  0  0  0  0  0
   -4.1441   -1.7277    1.9144 C   0  0  0  0  0  0  0  0  0  0  0  0
   -5.0068   -1.2594    2.9073 C   0  0  0  0  0  0  0  0  0  0  0  0
   -5.9249   -2.1313    3.4883 C   0  0  0  0  0  0  0  0  0  0  0  0
   -5.9451   -3.4474    3.0572 C   0  0  0  0  0  0  0  0  0  0  0  0
   -5.1222   -3.9359    2.1033 N   0  0  0  0  0  0  0  0  0  0  0  0
   -4.2436   -3.0640    1.5504 C   0  0  0  0  0  0  0  0  0  0  0  0
   -2.9884    0.4059    1.6961 N   0  0  0  0  0  0  0  0  0  0  0  0
   -1.9963    0.9875    0.8771 O   0  0  0  0  0  0  0  0  0  0  0  0
    6.1467   -0.8565   -0.0704 S   0  0  0  0  0  0  0  0  0  0  0  0
    7.7859   -1.1907    2.5763 H   0  0  0  0  0  0  0  0  0  0  0  0
    8.6952   -0.3241    1.3171 H   0  0  0  0  0  0  0  0  0  0  0  0
    8.1028    0.5449    2.7385 H   0  0  0  0  0  0  0  0  0  0  0  0
    5.7155    1.6772    2.4629 H   0  0  0  0  0  0  0  0  0  0  0  0
    3.6886    1.6491    0.7583 H   0  0  0  0  0  0  0  0  0  0  0  0
    1.6880    0.1432   -2.8962 H   0  0  0  0  0  0  0  0  0  0  0  0
    1.8332   -1.6094   -2.7496 H   0  0  0  0  0  0  0  0  0  0  0  0
   -0.1461   -1.8252   -1.4759 H   0  0  0  0  0  0  0  0  0  0  0  0
   -0.5452   -0.6257   -2.6960 H   0  0  0  0  0  0  0  0  0  0  0  0
    0.9752    0.9055    0.9758 H   0  0  0  0  0  0  0  0  0  0  0  0
    0.1273   -0.5724    1.3753 H   0  0  0  0  0  0  0  0  0  0  0  0
    2.6271   -0.7965    1.0305 H   0  0  0  0  0  0  0  0  0  0  0  0
    1.6342   -1.9496    0.1816 H   0  0  0  0  0  0  0  0  0  0  0  0
    0.7527    3.6668   -2.3389 H   0  0  0  0  0  0  0  0  0  0  0  0
   -0.7057    5.0300   -3.8046 H   0  0  0  0  0  0  0  0  0  0  0  0
   -3.9749    2.3228   -3.0783 H   0  0  0  0  0  0  0  0  0  0  0  0
   -1.4776   -1.8700    0.6085 H   0  0  0  0  0  0  0  0  0  0  0  0
   -2.7885   -1.8010   -0.5941 H   0  0  0  0  0  0  0  0  0  0  0  0
   -4.9728   -0.2207    3.2284 H   0  0  0  0  0  0  0  0  0  0  0  0
   -6.6080   -1.7902    4.2586 H   0  0  0  0  0  0  0  0  0  0  0  0
   -6.6433   -4.1647    3.4799 H   0  0  0  0  0  0  0  0  0  0  0  0
   -3.6109   -3.5088    0.7896 H   0  0  0  0  0  0  0  0  0  0  0  0
  1  2  1  0
  2  3  2  0
  3  4  1  0
  4  5  2  0
  5  6  1  0
  6  7  2  0
  6  8  1  0
  8  9  1  0
  9 10  1  0
 10 11  1  0
 11 12  1  0
 12 13  1  0
 11 14  1  0
 14 15  1  0
 15 16  2  0
 16 17  1  0
 17 18  2  0
 18 19  1  0
 18 20  1  0
 20 21  2  0
 21 22  1  0
 22 23  2  0
 22 24  1  0
 24 25  1  0
 25 26  1  0
 26 27  1  0
 27 28  2  0
 28 29  1  0
 29 30  2  0
 30 31  1  0
 31 32  2  0
 26 33  2  0
 33 34  1  0
  5 35  1  0
 35  2  1  0
 13  8  1  0
 21 15  1  0
 34 24  1  0
 24 11  1  0
 32 27  1  0
  1 36  1  0
  1 37  1  0
  1 38  1  0
  3 39  1  0
  4 40  1  0
  9 41  1  0
  9 42  1  0
 10 43  1  0
 10 44  1  0
 12 45  1  0
 12 46  1  0
 13 47  1  0
 13 48  1  0
 16 49  1  0
 17 50  1  0
 20 51  1  0
 25 52  1  0
 25 53  1  0
 28 54  1  0
 29 55  1  0
 30 56  1  0
 32 57  1  0
M  END
$$$$
