
     RDKit          3D

 45 46  0  0  0  0  0  0  0  0999 V2000
    7.2198    1.2895    1.4132 C   0  0  0  0  0  0  0  0  0  0  0  0
    6.0631    1.6195    0.6528 O   0  0  0  0  0  0  0  0  0  0  0  0
    5.1154    0.6430    0.5176 C   0  0  0  0  0  0  0  0  0  0  0  0
    4.0039    1.0126   -0.2456 C   0  0  0  0  0  0  0  0  0  0  0  0
    2.9526    0.1163   -0.4630 C   0  0  0  0  0  0  0  0  0  0  0  0
    2.9989   -1.1644    0.0990 C   0  0  0  0  0  0  0  0  0  0  0  0
    1.9024   -2.1445   -0.0994 C   0  0  0  0  0  0  0  0  0  0  0  0
    2.1614   -3.3473   -0.0788 O   0  0  0  0  0  0  0  0  0  0  0  0
    0.4986   -1.7089   -0.3050 C   0  0  0  0  0  0  0  0  0  0  0  0
   -0.0599   -0.6827    0.3551 C   0  0  0  0  0  0  0  0  0  0  0  0
   -1.4638   -0.2792    0.1834 C   0  0  0  0  0  0  0  0  0  0  0  0
   -2.5010   -1.2220    0.1097 C   0  0  0  0  0  0  0  0  0  0  0  0
   -3.8287   -0.8107   -0.0334 C   0  0  0  0  0  0  0  0  0  0  0  0
   -4.9054   -1.6551   -0.1210 O   0  0  0  0  0  0  0  0  0  0  0  0
   -4.6801   -3.0340    0.1378 C   0  0  0  0  0  0  0  0  0  0  0  0
   -4.1081    0.5640   -0.1095 C   0  0  0  0  0  0  0  0  0  0  0  0
   -5.4175    0.9821   -0.2096 O   0  0  0  0  0  0  0  0  0  0  0  0
   -5.7800    1.1083   -1.5833 C   0  0  0  0  0  0  0  0  0  0  0  0
   -3.0884    1.5235    0.0034 C   0  0  0  0  0  0  0  0  0  0  0  0
   -3.4794    2.8362   -0.0564 O   0  0  0  0  0  0  0  0  0  0  0  0
   -2.5114    3.8232    0.2714 C   0  0  0  0  0  0  0  0  0  0  0  0
   -1.7679    1.0902    0.1458 C   0  0  0  0  0  0  0  0  0  0  0  0
    4.1336   -1.5416    0.8316 C   0  0  0  0  0  0  0  0  0  0  0  0
    4.2907   -2.7948    1.3659 O   0  0  0  0  0  0  0  0  0  0  0  0
    5.1788   -0.6425    1.0535 C   0  0  0  0  0  0  0  0  0  0  0  0
    7.8716    2.1683    1.4277 H   0  0  0  0  0  0  0  0  0  0  0  0
    7.7767    0.4693    0.9482 H   0  0  0  0  0  0  0  0  0  0  0  0
    6.9566    1.0527    2.4494 H   0  0  0  0  0  0  0  0  0  0  0  0
    3.9620    2.0090   -0.6811 H   0  0  0  0  0  0  0  0  0  0  0  0
    2.1196    0.4335   -1.0842 H   0  0  0  0  0  0  0  0  0  0  0  0
   -0.0695   -2.3462   -0.9752 H   0  0  0  0  0  0  0  0  0  0  0  0
    0.5116   -0.0879    1.0643 H   0  0  0  0  0  0  0  0  0  0  0  0
   -2.2544   -2.2767    0.1755 H   0  0  0  0  0  0  0  0  0  0  0  0
   -4.0520   -3.4809   -0.6395 H   0  0  0  0  0  0  0  0  0  0  0  0
   -4.2488   -3.1872    1.1327 H   0  0  0  0  0  0  0  0  0  0  0  0
   -5.6494   -3.5413    0.1138 H   0  0  0  0  0  0  0  0  0  0  0  0
   -5.7151    0.1468   -2.1043 H   0  0  0  0  0  0  0  0  0  0  0  0
   -6.8205    1.4442   -1.6250 H   0  0  0  0  0  0  0  0  0  0  0  0
   -5.1633    1.8570   -2.0924 H   0  0  0  0  0  0  0  0  0  0  0  0
   -3.0145    4.7949    0.2810 H   0  0  0  0  0  0  0  0  0  0  0  0
   -2.0923    3.6553    1.2692 H   0  0  0  0  0  0  0  0  0  0  0  0
   -1.7232    3.8648   -0.4871 H   0  0  0  0  0  0  0  0  0  0  0  0
   -0.9547    1.8056    0.2172 H   0  0  0  0  0  0  0  0  0  0  0  0
    3.6045   -3.3799    0.9722 H   0  0  0  0  0  0  0  0  0  0  0  0
    6.0273   -0.9821    1.6379 H   0  0  0  0  0  0  0  0  0  0  0  0
  1  2  1  0
  2  3  1  0
  3  4  2  0
  4  5  1  0
  5  6  2  0
  6  7  1  0
  7  8  2  0
  7  9  1  0
  9 10  2  0
 10 11  1  0
 11 12  2  0
 12 13  1  0
 13 14  1  0
 14 15  1  0
 13 16  2  0
 16 17  1  0
 17 18  1  0
 16 19  1  0
 19 20  1  0
 20 21  1  0
 19 22  2  0
  6 23  1  0
 23 24  1  0
 23 25  2  0
 25  3  1  0
 22 11  1  0
  1 26  1  0
  1 27  1  0
  1 28  1  0
  4 29  1  0
  5 30  1  0
  9 31  1  0
 10 32  1  0
 12 33  1  0
 15 34  1  0
 15 35  1  0
 15 36  1  0
 18 37  1  0
 18 38  1  0
 18 39  1  0
 21 40  1  0
 21 41  1  0
 21 42  1  0
 22 43  1  0
 24 44  1  0
 25 45  1  0
M  END
$$$$
