
     RDKit          3D

 70 76  0  0  0  0  0  0  0  0999 V2000
   -4.7664   -4.5981   -0.5342 C   0  0  0  0  0  0  0  0  0  0  0  0
   -3.8751   -3.6916    0.2609 C   0  0  0  0  0  0  0  0  0  0  0  0
   -3.5840   -3.9482    1.6152 C   0  0  0  0  0  0  0  0  0  0  0  0
   -4.2481   -5.3238    2.4284 Cl  0  0  0  0  0  0  0  0  0  0  0  0
   -2.7422   -3.1019    2.3645 C   0  0  0  0  0  0  0  0  0  0  0  0
   -2.1651   -1.9722    1.7852 C   0  0  0  0  0  0  0  0  0  0  0  0
   -2.4508   -1.7061    0.4565 C   0  0  0  0  0  0  0  0  0  0  0  0
   -3.2858   -2.5576   -0.2841 C   0  0  0  0  0  0  0  0  0  0  0  0
   -3.3986   -2.0803   -1.5900 N   0  0  0  0  0  0  0  0  0  0  0  0
   -2.6443   -0.9209   -1.7891 C   0  0  0  0  0  0  0  0  0  0  0  0
   -2.5333   -0.3354   -2.8555 O   0  0  0  0  0  0  0  0  0  0  0  0
   -1.9881   -0.5858   -0.4270 C   0  0  1  0  0  0  0  0  0  0  0  0
   -2.4470    0.7110    0.1382 C   0  0  0  0  0  0  0  0  0  0  0  0
   -1.4297    1.6707    0.0191 C   0  0  0  0  0  0  0  0  0  0  0  0
   -1.8721    2.8543    0.5447 C   0  0  0  0  0  0  0  0  0  0  0  0
   -1.2303    4.0112    0.6866 O   0  0  0  0  0  0  0  0  0  0  0  0
   -3.1957    2.6470    1.0027 N   0  0  0  0  0  0  0  0  0  0  0  0
   -4.0422    3.6267    1.6329 C   0  0  0  0  0  0  0  0  0  0  0  0
   -5.0875    3.2348    2.4825 C   0  0  0  0  0  0  0  0  0  0  0  0
   -5.9082    4.1875    3.0965 C   0  0  0  0  0  0  0  0  0  0  0  0
   -5.6978    5.5438    2.8698 C   0  0  0  0  0  0  0  0  0  0  0  0
   -4.6657    5.9485    2.0293 C   0  0  0  0  0  0  0  0  0  0  0  0
   -3.8426    4.9979    1.4152 C   0  0  0  0  0  0  0  0  0  0  0  0
   -3.5345    1.2994    0.7315 C   0  0  0  0  0  0  0  0  0  0  0  0
   -4.7359    0.7890    0.9944 O   0  0  0  0  0  0  0  0  0  0  0  0
   -0.2460    1.0836   -0.6489 C   0  0  1  0  0  0  0  0  0  0  0  0
    1.1317    1.3616   -0.0491 C   0  0  0  0  0  0  0  0  0  0  0  0
    2.1587    0.4022   -0.5063 N   0  0  0  0  0  0  0  0  0  0  0  0
    3.4703    0.6545   -0.1274 C   0  0  0  0  0  0  0  0  0  0  0  0
    3.7552    1.5945    0.6158 O   0  0  0  0  0  0  0  0  0  0  0  0
    4.5347   -0.2808   -0.6705 C   0  0  0  0  0  0  0  0  0  0  0  0
    5.9344    0.1213   -0.2083 C   0  0  0  0  0  0  0  0  0  0  0  0
    6.9854   -0.7961   -0.7838 C   0  0  0  0  0  0  0  0  0  0  0  0
    7.6114   -0.4843   -1.9979 C   0  0  0  0  0  0  0  0  0  0  0  0
    8.5678   -1.3436   -2.5408 C   0  0  0  0  0  0  0  0  0  0  0  0
    8.9033   -2.5230   -1.8785 C   0  0  0  0  0  0  0  0  0  0  0  0
    8.2833   -2.8445   -0.6725 C   0  0  0  0  0  0  0  0  0  0  0  0
    7.3269   -1.9862   -0.1277 C   0  0  0  0  0  0  0  0  0  0  0  0
    1.7421   -0.6026   -1.5048 C   0  0  0  0  0  0  0  0  0  0  0  0
    0.3410   -1.2288   -1.2459 C   0  0  0  0  0  0  0  0  0  0  0  0
   -0.5319   -0.3634   -0.4781 N   0  0  0  0  0  0  0  0  0  0  0  0
   -4.8912   -4.2623   -1.5673 H   0  0  0  0  0  0  0  0  0  0  0  0
   -4.3439   -5.6076   -0.5735 H   0  0  0  0  0  0  0  0  0  0  0  0
   -5.7651   -4.6380   -0.0866 H   0  0  0  0  0  0  0  0  0  0  0  0
   -2.5344   -3.3267    3.4091 H   0  0  0  0  0  0  0  0  0  0  0  0
   -1.5137   -1.3195    2.3604 H   0  0  0  0  0  0  0  0  0  0  0  0
   -3.9192   -2.5099   -2.3406 H   0  0  0  0  0  0  0  0  0  0  0  0
   -0.3221    3.9075    0.3571 H   0  0  0  0  0  0  0  0  0  0  0  0
   -5.2698    2.1917    2.7207 H   0  0  0  0  0  0  0  0  0  0  0  0
   -6.7080    3.8642    3.7575 H   0  0  0  0  0  0  0  0  0  0  0  0
   -6.3354    6.2830    3.3466 H   0  0  0  0  0  0  0  0  0  0  0  0
   -4.4992    7.0060    1.8425 H   0  0  0  0  0  0  0  0  0  0  0  0
   -3.0748    5.3639    0.7410 H   0  0  0  0  0  0  0  0  0  0  0  0
   -4.7343   -0.1498    0.7418 H   0  0  0  0  0  0  0  0  0  0  0  0
   -0.2662    1.3504   -1.7146 H   0  0  0  0  0  0  0  0  0  0  0  0
    1.1090    1.3126    1.0476 H   0  0  0  0  0  0  0  0  0  0  0  0
    1.4594    2.3738   -0.3160 H   0  0  0  0  0  0  0  0  0  0  0  0
    4.3129   -1.2972   -0.3245 H   0  0  0  0  0  0  0  0  0  0  0  0
    4.4894   -0.2632   -1.7659 H   0  0  0  0  0  0  0  0  0  0  0  0
    6.1520    1.1567   -0.5010 H   0  0  0  0  0  0  0  0  0  0  0  0
    5.9959    0.1041    0.8876 H   0  0  0  0  0  0  0  0  0  0  0  0
    7.3603    0.4327   -2.5260 H   0  0  0  0  0  0  0  0  0  0  0  0
    9.0527   -1.0912   -3.4801 H   0  0  0  0  0  0  0  0  0  0  0  0
    9.6499   -3.1904   -2.3009 H   0  0  0  0  0  0  0  0  0  0  0  0
    8.5460   -3.7632   -0.1546 H   0  0  0  0  0  0  0  0  0  0  0  0
    6.8523   -2.2496    0.8149 H   0  0  0  0  0  0  0  0  0  0  0  0
    1.7281   -0.0742   -2.4665 H   0  0  0  0  0  0  0  0  0  0  0  0
    2.4793   -1.4046   -1.5898 H   0  0  0  0  0  0  0  0  0  0  0  0
   -0.0846   -1.5029   -2.2176 H   0  0  0  0  0  0  0  0  0  0  0  0
    0.4771   -2.1605   -0.6843 H   0  0  0  0  0  0  0  0  0  0  0  0
  1  2  1  0
  2  3  2  0
  3  4  1  0
  3  5  1  0
  5  6  2  0
  6  7  1  0
  7  8  2  0
  8  9  1  0
  9 10  1  0
 10 11  2  0
 10 12  1  0
 12 13  1  0
 13 14  1  0
 14 15  2  0
 15 16  1  0
 15 17  1  0
 17 18  1  0
 18 19  2  0
 19 20  1  0
 20 21  2  0
 21 22  1  0
 22 23  2  0
 17 24  1  0
 24 25  1  0
 14 26  1  0
 26 27  1  0
 27 28  1  0
 28 29  1  0
 29 30  2  0
 29 31  1  0
 31 32  1  0
 32 33  1  0
 33 34  2  0
 34 35  1  0
 35 36  2  0
 36 37  1  0
 37 38  2  0
 28 39  1  0
 39 40  1  0
 40 41  1  0
  8  2  1  0
 12 41  1  6
 12  7  1  0
 24 13  2  0
 41 26  1  0
 23 18  1  0
 38 33  1  0
  1 42  1  0
  1 43  1  0
  1 44  1  0
  5 45  1  0
  6 46  1  0
  9 47  1  0
 16 48  1  0
 19 49  1  0
 20 50  1  0
 21 51  1  0
 22 52  1  0
 23 53  1  0
 25 54  1  0
 26 55  1  6
 27 56  1  0
 27 57  1  0
 31 58  1  0
 31 59  1  0
 32 60  1  0
 32 61  1  0
 34 62  1  0
 35 63  1  0
 36 64  1  0
 37 65  1  0
 38 66  1  0
 39 67  1  0
 39 68  1  0
 40 69  1  0
 40 70  1  0
M  END
$$$$
