
     RDKit          3D

 28 30  0  0  0  0  0  0  0  0999 V2000
   -0.0773    3.5418   -1.1355 O   0  0  0  0  0  0  0  0  0  0  0  0
    0.2042    2.3762   -0.8586 C   0  0  0  0  0  0  0  0  0  0  0  0
   -0.8039    1.2685   -1.0023 C   0  0  0  0  0  0  0  0  0  0  0  0
   -1.4171    0.8812    0.3288 C   0  0  0  0  0  0  0  0  0  0  0  0
   -2.4788   -0.1891    0.1635 C   0  0  0  0  0  0  0  0  0  0  0  0
   -2.2615   -1.5064   -0.3743 C   0  0  0  0  0  0  0  0  0  0  0  0
   -3.4105   -2.2641   -0.4127 C   0  0  0  0  0  0  0  0  0  0  0  0
   -4.7601   -1.4107    0.1904 S   0  0  0  0  0  0  0  0  0  0  0  0
   -3.8103   -0.0252    0.5075 C   0  0  0  0  0  0  0  0  0  0  0  0
   -0.2456    0.3645    1.6439 S   0  0  0  0  0  0  0  0  0  0  0  0
    1.2264   -0.0931    0.7333 C   0  0  0  0  0  0  0  0  0  0  0  0
    1.7876   -1.3381    1.0579 C   0  0  0  0  0  0  0  0  0  0  0  0
    3.0490   -1.7011    0.5838 C   0  0  0  0  0  0  0  0  0  0  0  0
    3.7817   -0.8075   -0.1902 C   0  0  0  0  0  0  0  0  0  0  0  0
    3.2424    0.4382   -0.5126 C   0  0  0  0  0  0  0  0  0  0  0  0
    1.9527    0.7881   -0.0901 C   0  0  0  0  0  0  0  0  0  0  0  0
    1.4808    2.0477   -0.4978 N   0  0  0  0  0  0  0  0  0  0  0  0
   -1.5892    1.6297   -1.6808 H   0  0  0  0  0  0  0  0  0  0  0  0
   -0.3509    0.4191   -1.5284 H   0  0  0  0  0  0  0  0  0  0  0  0
   -1.9044    1.7746    0.7420 H   0  0  0  0  0  0  0  0  0  0  0  0
   -1.3023   -1.8812   -0.7120 H   0  0  0  0  0  0  0  0  0  0  0  0
   -3.5224   -3.2804   -0.7649 H   0  0  0  0  0  0  0  0  0  0  0  0
   -4.2787    0.8506    0.9367 H   0  0  0  0  0  0  0  0  0  0  0  0
    1.2580   -2.0256    1.7154 H   0  0  0  0  0  0  0  0  0  0  0  0
    3.4706   -2.6681    0.8478 H   0  0  0  0  0  0  0  0  0  0  0  0
    4.7747   -1.0784   -0.5410 H   0  0  0  0  0  0  0  0  0  0  0  0
    3.8288    1.1182   -1.1263 H   0  0  0  0  0  0  0  0  0  0  0  0
    2.1559    2.7705   -0.7184 H   0  0  0  0  0  0  0  0  0  0  0  0
  1  2  2  0
  2  3  1  0
  3  4  1  0
  4  5  1  0
  5  6  1  0
  6  7  2  0
  7  8  1  0
  8  9  1  0
  4 10  1  0
 10 11  1  0
 11 12  2  0
 12 13  1  0
 13 14  2  0
 14 15  1  0
 15 16  2  0
 16 17  1  0
 17  2  1  0
  9  5  2  0
 16 11  1  0
  3 18  1  0
  3 19  1  0
  4 20  1  0
  6 21  1  0
  7 22  1  0
  9 23  1  0
 12 24  1  0
 13 25  1  0
 14 26  1  0
 15 27  1  0
 17 28  1  0
M  END
$$$$
