
     RDKit          3D

 74 75  0  0  0  0  0  0  0  0999 V2000
    0.4997    2.3481    6.9855 C   0  0  0  0  0  0  0  0  0  0  0  0
   -0.1753    2.6468    5.7681 O   0  0  0  0  0  0  0  0  0  0  0  0
    0.4549    2.2352    4.6217 C   0  0  0  0  0  0  0  0  0  0  0  0
    1.8391    2.1509    4.4951 C   0  0  0  0  0  0  0  0  0  0  0  0
    2.4004    1.7049    3.3006 C   0  0  0  0  0  0  0  0  0  0  0  0
    1.5838    1.3207    2.2328 C   0  0  0  0  0  0  0  0  0  0  0  0
    0.1829    1.3857    2.3158 C   0  0  0  0  0  0  0  0  0  0  0  0
   -0.7394    0.9569    1.1607 C   0  0  0  0  0  0  0  0  0  0  0  0
   -1.5378   -0.3942    1.3149 C   0  0  0  0  0  0  0  0  0  0  0  0
   -1.8445   -1.0826    0.3362 O   0  0  0  0  0  0  0  0  0  0  0  0
   -2.0319   -0.6692    2.5781 N   0  0  0  0  0  0  0  0  0  0  0  0
   -2.8177   -1.8511    2.9543 C   0  0  0  0  0  0  0  0  0  0  0  0
   -1.9562   -3.1189    2.8769 C   0  0  0  0  0  0  0  0  0  0  0  0
   -3.2781   -1.6545    4.4143 C   0  0  0  0  0  0  0  0  0  0  0  0
   -4.0745   -2.0040    2.0792 C   0  0  0  0  0  0  0  0  0  0  0  0
   -0.1516    1.1203   -0.2140 N   0  0  0  0  0  0  0  0  0  0  0  0
    0.6211    0.0163   -0.6192 C   0  0  0  0  0  0  0  0  0  0  0  0
    1.0352   -0.8152    0.1998 O   0  0  0  0  0  0  0  0  0  0  0  0
    0.9924   -0.1700   -2.0738 C   0  0  0  0  0  0  0  0  0  0  0  0
    1.6278   -1.5395   -2.3137 C   0  0  0  0  0  0  0  0  0  0  0  0
    2.0337   -1.7325   -3.7606 C   0  0  0  0  0  0  0  0  0  0  0  0
    1.7791   -0.9118   -4.6354 O   0  0  0  0  0  0  0  0  0  0  0  0
    2.6988   -2.9259   -3.9408 N   0  0  0  0  0  0  0  0  0  0  0  0
    3.2069   -3.3845   -5.1362 C   0  0  0  0  0  0  0  0  0  0  0  0
    3.1732   -2.7849   -6.4155 C   0  0  0  0  0  0  0  0  0  0  0  0
    3.8222   -3.6791   -7.2315 C   0  0  0  0  0  0  0  0  0  0  0  0
    4.1500   -3.7127   -8.6663 C   0  0  0  0  0  0  0  0  0  0  0  0
    4.2315   -4.7442   -6.4905 O   0  0  0  0  0  0  0  0  0  0  0  0
    3.8510   -4.5582   -5.1745 N   0  0  0  0  0  0  0  0  0  0  0  0
   -0.6944    2.2413   -1.0872 C   0  0  0  0  0  0  0  0  0  0  0  0
   -1.9744    1.7726   -1.8028 C   0  0  0  0  0  0  0  0  0  0  0  0
   -1.0544    3.5154   -0.2579 C   0  0  0  0  0  0  0  0  0  0  0  0
    0.3251    2.7473   -2.1307 C   0  0  0  0  0  0  0  0  0  0  0  0
   -0.3583    1.9047    3.5159 C   0  0  0  0  0  0  0  0  0  0  0  0
   -1.7321    1.9822    3.6060 O   0  0  0  0  0  0  0  0  0  0  0  0
   -2.1852    3.3237    3.8110 C   0  0  0  0  0  0  0  0  0  0  0  0
    0.8600    1.3135    7.0080 H   0  0  0  0  0  0  0  0  0  0  0  0
    1.3228    3.0495    7.1555 H   0  0  0  0  0  0  0  0  0  0  0  0
   -0.2211    2.4719    7.7998 H   0  0  0  0  0  0  0  0  0  0  0  0
    2.5056    2.4363    5.3023 H   0  0  0  0  0  0  0  0  0  0  0  0
    3.4829    1.6452    3.1949 H   0  0  0  0  0  0  0  0  0  0  0  0
    2.0809    0.9721    1.3301 H   0  0  0  0  0  0  0  0  0  0  0  0
   -1.5762    1.6542    1.1991 H   0  0  0  0  0  0  0  0  0  0  0  0
   -1.7114   -0.0811    3.3387 H   0  0  0  0  0  0  0  0  0  0  0  0
   -1.0756   -3.0331    3.5291 H   0  0  0  0  0  0  0  0  0  0  0  0
   -1.5936   -3.3089    1.8574 H   0  0  0  0  0  0  0  0  0  0  0  0
   -2.5247   -3.9968    3.2031 H   0  0  0  0  0  0  0  0  0  0  0  0
   -3.8703   -2.5067    4.7699 H   0  0  0  0  0  0  0  0  0  0  0  0
   -3.8902   -0.7478    4.5175 H   0  0  0  0  0  0  0  0  0  0  0  0
   -2.4183   -1.5386    5.0887 H   0  0  0  0  0  0  0  0  0  0  0  0
   -4.6274   -1.0566    1.9983 H   0  0  0  0  0  0  0  0  0  0  0  0
   -4.7578   -2.7593    2.4870 H   0  0  0  0  0  0  0  0  0  0  0  0
   -3.8258   -2.3214    1.0573 H   0  0  0  0  0  0  0  0  0  0  0  0
    0.0996   -0.0847   -2.6989 H   0  0  0  0  0  0  0  0  0  0  0  0
    1.7252    0.5966   -2.3533 H   0  0  0  0  0  0  0  0  0  0  0  0
    0.9159   -2.3308   -2.0512 H   0  0  0  0  0  0  0  0  0  0  0  0
    2.5210   -1.6567   -1.6909 H   0  0  0  0  0  0  0  0  0  0  0  0
    2.8797   -3.5320   -3.1533 H   0  0  0  0  0  0  0  0  0  0  0  0
    2.7322   -1.8465   -6.7091 H   0  0  0  0  0  0  0  0  0  0  0  0
    5.2364   -3.7329   -8.8114 H   0  0  0  0  0  0  0  0  0  0  0  0
    3.7226   -4.6059   -9.1373 H   0  0  0  0  0  0  0  0  0  0  0  0
    3.7494   -2.8314   -9.1801 H   0  0  0  0  0  0  0  0  0  0  0  0
   -1.7795    0.9538   -2.4997 H   0  0  0  0  0  0  0  0  0  0  0  0
   -2.4346    2.5861   -2.3765 H   0  0  0  0  0  0  0  0  0  0  0  0
   -2.7175    1.4055   -1.0842 H   0  0  0  0  0  0  0  0  0  0  0  0
   -0.2174    3.8198    0.3841 H   0  0  0  0  0  0  0  0  0  0  0  0
   -1.9441    3.3792    0.3657 H   0  0  0  0  0  0  0  0  0  0  0  0
   -1.3026    4.3622   -0.9094 H   0  0  0  0  0  0  0  0  0  0  0  0
    1.3313    2.8009   -1.7046 H   0  0  0  0  0  0  0  0  0  0  0  0
    0.0726    3.7515   -2.4938 H   0  0  0  0  0  0  0  0  0  0  0  0
    0.3524    2.1293   -3.0322 H   0  0  0  0  0  0  0  0  0  0  0  0
   -2.5991    3.4113    4.8186 H   0  0  0  0  0  0  0  0  0  0  0  0
   -1.4125    4.0843    3.6542 H   0  0  0  0  0  0  0  0  0  0  0  0
   -2.9938    3.5078    3.0994 H   0  0  0  0  0  0  0  0  0  0  0  0
  1  2  1  0
  2  3  1  0
  3  4  2  0
  4  5  1  0
  5  6  2  0
  6  7  1  0
  7  8  1  0
  8  9  1  0
  9 10  2  0
  9 11  1  0
 11 12  1  0
 12 13  1  0
 12 14  1  0
 12 15  1  0
  8 16  1  0
 16 17  1  0
 17 18  2  0
 17 19  1  0
 19 20  1  0
 20 21  1  0
 21 22  2  0
 21 23  1  0
 23 24  1  0
 24 25  1  0
 25 26  2  0
 26 27  1  0
 26 28  1  0
 28 29  1  0
 16 30  1  0
 30 31  1  0
 30 32  1  0
 30 33  1  0
  7 34  2  0
 34 35  1  0
 35 36  1  0
 34  3  1  0
 29 24  2  0
  1 37  1  0
  1 38  1  0
  1 39  1  0
  4 40  1  0
  5 41  1  0
  6 42  1  0
  8 43  1  0
 11 44  1  0
 13 45  1  0
 13 46  1  0
 13 47  1  0
 14 48  1  0
 14 49  1  0
 14 50  1  0
 15 51  1  0
 15 52  1  0
 15 53  1  0
 19 54  1  0
 19 55  1  0
 20 56  1  0
 20 57  1  0
 23 58  1  0
 25 59  1  0
 27 60  1  0
 27 61  1  0
 27 62  1  0
 31 63  1  0
 31 64  1  0
 31 65  1  0
 32 66  1  0
 32 67  1  0
 32 68  1  0
 33 69  1  0
 33 70  1  0
 33 71  1  0
 36 72  1  0
 36 73  1  0
 36 74  1  0
M  END
$$$$
