
     RDKit          3D

 59 62  0  0  0  0  0  0  0  0999 V2000
   -8.9679   -1.1282   -0.6160 C   0  0  0  0  0  0  0  0  0  0  0  0
   -7.7488   -0.5501    0.0416 C   0  0  0  0  0  0  0  0  0  0  0  0
   -7.2650    0.7104   -0.3378 C   0  0  0  0  0  0  0  0  0  0  0  0
   -6.1143    1.2340    0.2560 C   0  0  0  0  0  0  0  0  0  0  0  0
   -5.4240    0.4833    1.2137 C   0  0  0  0  0  0  0  0  0  0  0  0
   -4.2057    1.0125    1.8683 C   0  0  0  0  0  0  0  0  0  0  0  0
   -4.1688    1.0143    3.0972 O   0  0  0  0  0  0  0  0  0  0  0  0
   -3.1597    1.4779    1.0790 N   0  0  0  0  0  0  0  0  0  0  0  0
   -3.0066    1.2280   -0.3625 C   0  0  0  0  0  0  0  0  0  0  0  0
   -1.5367    1.0219   -0.7754 C   0  0  0  0  0  0  0  0  0  0  0  0
   -0.6760    2.1607   -0.3684 N   0  0  0  0  0  0  0  0  0  0  0  0
    0.6870    1.8441   -0.4554 C   0  0  0  0  0  0  0  0  0  0  0  0
    1.5121    1.6486    0.6575 C   0  0  0  0  0  0  0  0  0  0  0  0
    2.8695    1.3213    0.5150 C   0  0  0  0  0  0  0  0  0  0  0  0
    3.4360    1.1827   -0.7492 C   0  0  0  0  0  0  0  0  0  0  0  0
    4.7881    0.8663   -0.9800 N   0  0  0  0  0  0  0  0  0  0  0  0
    5.7700    0.5844   -0.0446 C   0  0  0  0  0  0  0  0  0  0  0  0
    5.6336    0.5868    1.1757 O   0  0  0  0  0  0  0  0  0  0  0  0
    7.1383    0.3304   -0.6642 C   0  0  0  0  0  0  0  0  0  0  0  0
    7.0576   -0.8447   -2.0625 S   0  0  0  0  0  0  0  0  0  0  0  0
    6.5516   -2.3158   -1.1899 C   0  0  0  0  0  0  0  0  0  0  0  0
    7.4147   -2.9512   -0.2911 C   0  0  0  0  0  0  0  0  0  0  0  0
    7.0066   -4.1081    0.3786 C   0  0  0  0  0  0  0  0  0  0  0  0
    5.7374   -4.6329    0.1437 C   0  0  0  0  0  0  0  0  0  0  0  0
    5.2374   -6.0601    0.9623 Cl  0  0  0  0  0  0  0  0  0  0  0  0
    4.8740   -4.0122   -0.7560 C   0  0  0  0  0  0  0  0  0  0  0  0
    5.2831   -2.8561   -1.4261 C   0  0  0  0  0  0  0  0  0  0  0  0
    2.6237    1.3712   -1.8698 C   0  0  0  0  0  0  0  0  0  0  0  0
    1.2694    1.6929   -1.7212 C   0  0  0  0  0  0  0  0  0  0  0  0
   -1.1531    2.9318    0.8023 C   0  0  0  0  0  0  0  0  0  0  0  0
   -2.0037    2.0781    1.7536 C   0  0  0  0  0  0  0  0  0  0  0  0
   -5.9059   -0.7688    1.6073 C   0  0  0  0  0  0  0  0  0  0  0  0
   -7.0579   -1.2881    1.0138 C   0  0  0  0  0  0  0  0  0  0  0  0
   -9.5539   -1.7145    0.1001 H   0  0  0  0  0  0  0  0  0  0  0  0
   -9.6207   -0.3376   -1.0002 H   0  0  0  0  0  0  0  0  0  0  0  0
   -8.6725   -1.7749   -1.4473 H   0  0  0  0  0  0  0  0  0  0  0  0
   -7.7882    1.2955   -1.0927 H   0  0  0  0  0  0  0  0  0  0  0  0
   -5.7688    2.2271   -0.0217 H   0  0  0  0  0  0  0  0  0  0  0  0
   -3.5890    0.3512   -0.6591 H   0  0  0  0  0  0  0  0  0  0  0  0
   -3.4143    2.1032   -0.8795 H   0  0  0  0  0  0  0  0  0  0  0  0
   -1.4923    0.8928   -1.8624 H   0  0  0  0  0  0  0  0  0  0  0  0
   -1.1763    0.0950   -0.3098 H   0  0  0  0  0  0  0  0  0  0  0  0
    1.1173    1.7218    1.6669 H   0  0  0  0  0  0  0  0  0  0  0  0
    3.4505    1.1797    1.4205 H   0  0  0  0  0  0  0  0  0  0  0  0
    5.0680    0.7688   -1.9502 H   0  0  0  0  0  0  0  0  0  0  0  0
    7.8229   -0.0457    0.1029 H   0  0  0  0  0  0  0  0  0  0  0  0
    7.5310    1.2855   -1.0290 H   0  0  0  0  0  0  0  0  0  0  0  0
    8.4121   -2.5594   -0.1078 H   0  0  0  0  0  0  0  0  0  0  0  0
    7.6824   -4.5931    1.0785 H   0  0  0  0  0  0  0  0  0  0  0  0
    3.8839   -4.4205   -0.9406 H   0  0  0  0  0  0  0  0  0  0  0  0
    4.5990   -2.3830   -2.1264 H   0  0  0  0  0  0  0  0  0  0  0  0
    3.0259    1.2802   -2.8748 H   0  0  0  0  0  0  0  0  0  0  0  0
    0.6676    1.8583   -2.6107 H   0  0  0  0  0  0  0  0  0  0  0  0
   -0.3376    3.4216    1.3461 H   0  0  0  0  0  0  0  0  0  0  0  0
   -1.7777    3.7467    0.4136 H   0  0  0  0  0  0  0  0  0  0  0  0
   -2.3539    2.6889    2.5931 H   0  0  0  0  0  0  0  0  0  0  0  0
   -1.4087    1.2549    2.1670 H   0  0  0  0  0  0  0  0  0  0  0  0
   -5.3851   -1.3378    2.3731 H   0  0  0  0  0  0  0  0  0  0  0  0
   -7.4176   -2.2698    1.3195 H   0  0  0  0  0  0  0  0  0  0  0  0
  1  2  1  0
  2  3  2  0
  3  4  1  0
  4  5  2  0
  5  6  1  0
  6  7  2  0
  6  8  1  0
  8  9  1  0
  9 10  1  0
 10 11  1  0
 11 12  1  0
 12 13  2  0
 13 14  1  0
 14 15  2  0
 15 16  1  0
 16 17  1  0
 17 18  2  0
 17 19  1  0
 19 20  1  0
 20 21  1  0
 21 22  2  0
 22 23  1  0
 23 24  2  0
 24 25  1  0
 24 26  1  0
 26 27  2  0
 15 28  1  0
 28 29  2  0
 11 30  1  0
 30 31  1  0
  5 32  1  0
 32 33  2  0
 33  2  1  0
 31  8  1  0
 29 12  1  0
 27 21  1  0
  1 34  1  0
  1 35  1  0
  1 36  1  0
  3 37  1  0
  4 38  1  0
  9 39  1  0
  9 40  1  0
 10 41  1  0
 10 42  1  0
 13 43  1  0
 14 44  1  0
 16 45  1  0
 19 46  1  0
 19 47  1  0
 22 48  1  0
 23 49  1  0
 26 50  1  0
 27 51  1  0
 28 52  1  0
 29 53  1  0
 30 54  1  0
 30 55  1  0
 31 56  1  0
 31 57  1  0
 32 58  1  0
 33 59  1  0
M  END
$$$$
