
     RDKit          3D

 51 55  0  0  0  0  0  0  0  0999 V2000
   -2.4341    2.4322    0.4661 O   0  0  0  0  0  0  0  0  0  0  0  0
   -3.0653    1.6067   -0.2043 C   0  0  0  0  0  0  0  0  0  0  0  0
   -4.2856    2.0320   -1.0730 C   0  0  0  0  0  0  0  0  0  0  0  0
   -5.6992    1.8771   -0.4431 C   0  0  0  0  0  0  0  0  0  0  0  0
   -6.1007    3.1698   -1.1760 C   0  0  0  0  0  0  0  0  0  0  0  0
   -4.6100    3.5530   -1.1666 C   0  0  0  0  0  0  0  0  0  0  0  0
   -2.7423    0.2530   -0.2418 N   0  0  0  0  0  0  0  0  0  0  0  0
   -3.4422   -0.7698   -1.0355 C   0  0  0  0  0  0  0  0  0  0  0  0
   -2.7869   -2.1238   -0.7381 C   0  0  0  0  0  0  0  0  0  0  0  0
   -1.6705   -1.7373    0.1761 C   0  0  0  0  0  0  0  0  0  0  0  0
   -0.7191   -2.5784    0.7354 C   0  0  0  0  0  0  0  0  0  0  0  0
    0.2384   -2.0101    1.5814 C   0  0  0  0  0  0  0  0  0  0  0  0
    1.4662   -3.0540    2.3264 S   0  0  0  0  0  6  0  0  0  0  0  0
    2.0918   -2.3443    3.4207 O   0  0  0  0  0  0  0  0  0  0  0  0
    0.8591   -4.3529    2.5344 O   0  0  0  0  0  0  0  0  0  0  0  0
    2.5864   -3.2636    1.0746 N   0  0  0  0  0  0  0  0  0  0  0  0
    3.5169   -2.2153    0.8355 C   0  0  0  0  0  0  0  0  0  0  0  0
    4.7222   -2.1806    1.5389 C   0  0  0  0  0  0  0  0  0  0  0  0
    5.6188   -1.1306    1.3300 C   0  0  0  0  0  0  0  0  0  0  0  0
    5.3047   -0.1200    0.4233 C   0  0  0  0  0  0  0  0  0  0  0  0
    4.0808   -0.1424   -0.2540 C   0  0  0  0  0  0  0  0  0  0  0  0
    3.1907   -1.1964   -0.0583 C   0  0  0  0  0  0  0  0  0  0  0  0
    3.6914    0.8372   -1.1318 O   0  0  0  0  0  0  0  0  0  0  0  0
    4.4860    2.0187   -0.9756 C   0  0  0  0  0  0  0  0  0  0  0  0
    5.9619    1.6629   -0.9040 C   0  0  0  0  0  0  0  0  0  0  0  0
    6.2382    0.8700    0.2566 O   0  0  0  0  0  0  0  0  0  0  0  0
    0.2222   -0.6367    1.8772 C   0  0  0  0  0  0  0  0  0  0  0  0
   -0.7455    0.1941    1.3017 C   0  0  0  0  0  0  0  0  0  0  0  0
   -1.6849   -0.3670    0.4505 C   0  0  0  0  0  0  0  0  0  0  0  0
   -4.2353    1.6027   -2.0842 H   0  0  0  0  0  0  0  0  0  0  0  0
   -6.2574    0.9845   -0.7369 H   0  0  0  0  0  0  0  0  0  0  0  0
   -5.7160    1.9629    0.6497 H   0  0  0  0  0  0  0  0  0  0  0  0
   -6.5061    2.9999   -2.1800 H   0  0  0  0  0  0  0  0  0  0  0  0
   -6.7687    3.8397   -0.6293 H   0  0  0  0  0  0  0  0  0  0  0  0
   -4.3170    4.1413   -0.2893 H   0  0  0  0  0  0  0  0  0  0  0  0
   -4.2502    4.0585   -2.0668 H   0  0  0  0  0  0  0  0  0  0  0  0
   -3.3516   -0.5151   -2.0974 H   0  0  0  0  0  0  0  0  0  0  0  0
   -4.5050   -0.7747   -0.7731 H   0  0  0  0  0  0  0  0  0  0  0  0
   -2.4152   -2.5939   -1.6536 H   0  0  0  0  0  0  0  0  0  0  0  0
   -3.4884   -2.7977   -0.2364 H   0  0  0  0  0  0  0  0  0  0  0  0
   -0.7205   -3.6438    0.5238 H   0  0  0  0  0  0  0  0  0  0  0  0
    2.9465   -4.2173    1.0776 H   0  0  0  0  0  0  0  0  0  0  0  0
    4.9657   -2.9542    2.2622 H   0  0  0  0  0  0  0  0  0  0  0  0
    6.5589   -1.0999    1.8740 H   0  0  0  0  0  0  0  0  0  0  0  0
    2.2506   -1.2110   -0.6011 H   0  0  0  0  0  0  0  0  0  0  0  0
    4.2935    2.6642   -1.8382 H   0  0  0  0  0  0  0  0  0  0  0  0
    4.1546    2.5464   -0.0726 H   0  0  0  0  0  0  0  0  0  0  0  0
    6.2829    1.1034   -1.7913 H   0  0  0  0  0  0  0  0  0  0  0  0
    6.5676    2.5720   -0.8361 H   0  0  0  0  0  0  0  0  0  0  0  0
    0.9627   -0.2053    2.5484 H   0  0  0  0  0  0  0  0  0  0  0  0
   -0.7410    1.2539    1.5339 H   0  0  0  0  0  0  0  0  0  0  0  0
  1  2  2  0
  2  3  1  0
  3  4  1  0
  4  5  1  0
  5  6  1  0
  2  7  1  0
  7  8  1  0
  8  9  1  0
  9 10  1  0
 10 11  2  0
 11 12  1  0
 12 13  1  0
 13 14  2  0
 13 15  2  0
 13 16  1  0
 16 17  1  0
 17 18  2  0
 18 19  1  0
 19 20  2  0
 20 21  1  0
 21 22  2  0
 21 23  1  0
 23 24  1  0
 24 25  1  0
 25 26  1  0
 12 27  2  0
 27 28  1  0
 28 29  2  0
  6  3  1  0
 29  7  1  0
 29 10  1  0
 22 17  1  0
 26 20  1  0
  3 30  1  0
  4 31  1  0
  4 32  1  0
  5 33  1  0
  5 34  1  0
  6 35  1  0
  6 36  1  0
  8 37  1  0
  8 38  1  0
  9 39  1  0
  9 40  1  0
 11 41  1  0
 16 42  1  0
 18 43  1  0
 19 44  1  0
 22 45  1  0
 24 46  1  0
 24 47  1  0
 25 48  1  0
 25 49  1  0
 27 50  1  0
 28 51  1  0
M  END
$$$$
