
     RDKit          3D

 52 55  0  0  0  0  0  0  0  0999 V2000
   -6.3305    3.2456   -0.0304 C   0  0  0  0  0  0  0  0  0  0  0  0
   -5.1779    3.4331    0.9468 C   0  0  0  0  0  0  0  0  0  0  0  0
   -3.9877    2.5359    0.6151 C   0  0  0  0  0  0  0  0  0  0  0  0
   -4.3891    1.1665    0.7471 O   0  0  0  0  0  0  0  0  0  0  0  0
   -3.3409    0.3288    0.4828 C   0  0  0  0  0  0  0  0  0  0  0  0
   -2.9352    0.0883   -0.8284 C   0  0  0  0  0  0  0  0  0  0  0  0
   -1.8837   -0.7966   -1.0753 C   0  0  0  0  0  0  0  0  0  0  0  0
   -1.2529   -1.4546   -0.0112 C   0  0  0  0  0  0  0  0  0  0  0  0
   -0.1463   -2.3670   -0.2668 C   0  0  0  0  0  0  0  0  0  0  0  0
    1.2220   -2.1302   -0.2588 C   0  0  0  0  0  0  0  0  0  0  0  0
    1.9343   -0.8804    0.0093 C   0  0  0  0  0  0  0  0  0  0  0  0
    1.3496    0.1752    0.2253 O   0  0  0  0  0  0  0  0  0  0  0  0
    3.3152   -1.0526   -0.0335 N   0  0  0  0  0  0  0  0  0  0  0  0
    4.2839   -0.0853    0.0400 N   0  0  0  0  0  0  0  0  0  0  0  0
    4.0334    1.0145    0.6749 C   0  0  0  0  0  0  0  0  0  0  0  0
    5.0315    2.1027    0.7536 C   0  0  0  0  0  0  0  0  0  0  0  0
    6.2825    1.9807    0.1411 C   0  0  0  0  0  0  0  0  0  0  0  0
    7.2070    3.0211    0.2360 C   0  0  0  0  0  0  0  0  0  0  0  0
    6.8818    4.1801    0.9403 C   0  0  0  0  0  0  0  0  0  0  0  0
    5.6304    4.3045    1.5455 C   0  0  0  0  0  0  0  0  0  0  0  0
    4.7028    3.2655    1.4540 C   0  0  0  0  0  0  0  0  0  0  0  0
    1.8848   -3.2910   -0.5635 N   0  0  0  0  0  0  0  0  0  0  0  0
    0.9900   -4.2394   -0.7692 N   0  0  0  0  0  0  0  0  0  0  0  0
   -0.2632   -3.7206   -0.5962 N   0  0  0  0  0  0  0  0  0  0  0  0
   -1.4207   -4.5274   -0.7399 C   0  0  0  0  0  0  0  0  0  0  0  0
   -2.6388   -4.0411   -0.5045 N   0  0  0  0  0  0  0  0  0  0  0  0
   -3.4879   -5.1210   -0.7359 O   0  0  0  0  0  0  0  0  0  0  0  0
   -2.7730   -6.2542   -1.1096 N   0  0  0  0  0  0  0  0  0  0  0  0
   -1.4939   -5.8819   -1.1168 C   0  0  0  0  0  0  0  0  0  0  0  0
   -0.4699   -6.6913   -1.4432 N   0  0  0  0  0  0  0  0  0  0  0  0
   -1.6830   -1.2184    1.3016 C   0  0  0  0  0  0  0  0  0  0  0  0
   -2.7360   -0.3348    1.5466 C   0  0  0  0  0  0  0  0  0  0  0  0
   -6.0089    3.4371   -1.0595 H   0  0  0  0  0  0  0  0  0  0  0  0
   -7.1426    3.9392    0.2057 H   0  0  0  0  0  0  0  0  0  0  0  0
   -6.7297    2.2276    0.0211 H   0  0  0  0  0  0  0  0  0  0  0  0
   -5.5372    3.2067    1.9572 H   0  0  0  0  0  0  0  0  0  0  0  0
   -4.8559    4.4797    0.9331 H   0  0  0  0  0  0  0  0  0  0  0  0
   -3.6447    2.7464   -0.4055 H   0  0  0  0  0  0  0  0  0  0  0  0
   -3.1718    2.7518    1.3165 H   0  0  0  0  0  0  0  0  0  0  0  0
   -3.4370    0.5795   -1.6567 H   0  0  0  0  0  0  0  0  0  0  0  0
   -1.5689   -0.9698   -2.1019 H   0  0  0  0  0  0  0  0  0  0  0  0
    3.6517   -1.9456   -0.3863 H   0  0  0  0  0  0  0  0  0  0  0  0
    3.0922    1.2000    1.2170 H   0  0  0  0  0  0  0  0  0  0  0  0
    6.5403    1.0824   -0.4135 H   0  0  0  0  0  0  0  0  0  0  0  0
    8.1808    2.9284   -0.2406 H   0  0  0  0  0  0  0  0  0  0  0  0
    7.6035    4.9899    1.0119 H   0  0  0  0  0  0  0  0  0  0  0  0
    5.3782    5.2119    2.0855 H   0  0  0  0  0  0  0  0  0  0  0  0
    3.7296    3.3755    1.9247 H   0  0  0  0  0  0  0  0  0  0  0  0
   -0.6303   -7.6873   -1.5404 H   0  0  0  0  0  0  0  0  0  0  0  0
    0.4980   -6.4287   -1.2669 H   0  0  0  0  0  0  0  0  0  0  0  0
   -1.2073   -1.7190    2.1411 H   0  0  0  0  0  0  0  0  0  0  0  0
   -3.0788   -0.1603    2.5624 H   0  0  0  0  0  0  0  0  0  0  0  0
  1  2  1  0
  2  3  1  0
  3  4  1  0
  4  5  1  0
  5  6  2  0
  6  7  1  0
  7  8  2  0
  8  9  1  0
  9 10  2  0
 10 11  1  0
 11 12  2  0
 11 13  1  0
 13 14  1  0
 14 15  2  3
 15 16  1  0
 16 17  2  0
 17 18  1  0
 18 19  2  0
 19 20  1  0
 20 21  2  0
 10 22  1  0
 22 23  2  0
 23 24  1  0
 24 25  1  0
 25 26  2  0
 26 27  1  0
 27 28  1  0
 28 29  2  0
 29 30  1  0
  8 31  1  0
 31 32  2  0
 32  5  1  0
 24  9  1  0
 29 25  1  0
 21 16  1  0
  1 33  1  0
  1 34  1  0
  1 35  1  0
  2 36  1  0
  2 37  1  0
  3 38  1  0
  3 39  1  0
  6 40  1  0
  7 41  1  0
 13 42  1  0
 15 43  1  0
 17 44  1  0
 18 45  1  0
 19 46  1  0
 20 47  1  0
 21 48  1  0
 30 49  1  0
 30 50  1  0
 31 51  1  0
 32 52  1  0
M  END
$$$$
