
     RDKit          3D

 40 42  0  0  0  0  0  0  0  0999 V2000
    2.6522    5.1775   -0.5640 C   0  0  0  0  0  0  0  0  0  0  0  0
    2.1665    3.7513   -0.3712 C   0  0  0  0  0  0  0  0  0  0  0  0
    0.5224    3.5515   -1.1313 S   0  0  0  0  0  0  0  0  0  0  0  0
    0.2038    1.8267   -0.7849 C   0  0  0  0  0  0  0  0  0  0  0  0
   -0.9629    1.2668   -1.2556 C   0  0  0  0  0  0  0  0  0  0  0  0
   -1.1861   -0.0658   -0.9698 C   0  0  0  0  0  0  0  0  0  0  0  0
   -2.3671   -0.6834   -1.4292 N   0  0  0  0  0  0  0  0  0  0  0  0
   -2.3796   -2.1614   -1.3266 C   0  0  0  0  0  0  0  0  0  0  0  0
   -3.1261   -2.6097   -0.0627 C   0  0  0  0  0  0  0  0  0  0  0  0
   -4.5050   -2.1952   -0.0411 O   0  0  0  0  0  0  0  0  0  0  0  0
   -4.7601   -1.0328   -0.8457 C   0  0  0  0  0  0  0  0  0  0  0  0
   -3.5833   -0.0444   -0.8652 C   0  0  0  0  0  0  0  0  0  0  0  0
   -0.2874   -0.7772   -0.2717 N   0  0  0  0  0  0  0  0  0  0  0  0
    0.8277   -0.1539    0.1538 C   0  0  0  0  0  0  0  0  0  0  0  0
    1.8059   -0.9453    0.9294 C   0  0  0  0  0  0  0  0  0  0  0  0
    1.5889   -2.3075    1.2168 C   0  0  0  0  0  0  0  0  0  0  0  0
    2.5129   -3.0583    1.9513 C   0  0  0  0  0  0  0  0  0  0  0  0
    3.6804   -2.4626    2.4178 C   0  0  0  0  0  0  0  0  0  0  0  0
    3.9242   -1.1192    2.1506 C   0  0  0  0  0  0  0  0  0  0  0  0
    2.9976   -0.3720    1.4157 C   0  0  0  0  0  0  0  0  0  0  0  0
    1.1076    1.1385   -0.0746 N   0  0  0  0  0  0  0  0  0  0  0  0
    2.7452    5.4310   -1.6255 H   0  0  0  0  0  0  0  0  0  0  0  0
    3.6402    5.2987   -0.1075 H   0  0  0  0  0  0  0  0  0  0  0  0
    1.9785    5.8996   -0.0902 H   0  0  0  0  0  0  0  0  0  0  0  0
    2.8747    3.0587   -0.8375 H   0  0  0  0  0  0  0  0  0  0  0  0
    2.1075    3.5278    0.6989 H   0  0  0  0  0  0  0  0  0  0  0  0
   -1.6667    1.8409   -1.8431 H   0  0  0  0  0  0  0  0  0  0  0  0
   -2.9136   -2.5407   -2.2071 H   0  0  0  0  0  0  0  0  0  0  0  0
   -1.3783   -2.6050   -1.3729 H   0  0  0  0  0  0  0  0  0  0  0  0
   -3.1152   -3.7014    0.0150 H   0  0  0  0  0  0  0  0  0  0  0  0
   -2.6458   -2.2105    0.8377 H   0  0  0  0  0  0  0  0  0  0  0  0
   -5.0026   -1.3689   -1.8606 H   0  0  0  0  0  0  0  0  0  0  0  0
   -5.6535   -0.5457   -0.4420 H   0  0  0  0  0  0  0  0  0  0  0  0
   -3.8540    0.8292   -1.4686 H   0  0  0  0  0  0  0  0  0  0  0  0
   -3.3988    0.2854    0.1664 H   0  0  0  0  0  0  0  0  0  0  0  0
    0.6841   -2.7998    0.8640 H   0  0  0  0  0  0  0  0  0  0  0  0
    2.3169   -4.1075    2.1566 H   0  0  0  0  0  0  0  0  0  0  0  0
    4.3993   -3.0445    2.9885 H   0  0  0  0  0  0  0  0  0  0  0  0
    4.8346   -0.6482    2.5122 H   0  0  0  0  0  0  0  0  0  0  0  0
    3.2150    0.6772    1.2220 H   0  0  0  0  0  0  0  0  0  0  0  0
  1  2  1  0
  2  3  1  0
  3  4  1  0
  4  5  2  0
  5  6  1  0
  6  7  1  0
  7  8  1  0
  8  9  1  0
  9 10  1  0
 10 11  1  0
 11 12  1  0
  6 13  2  0
 13 14  1  0
 14 15  1  0
 15 16  2  0
 16 17  1  0
 17 18  2  0
 18 19  1  0
 19 20  2  0
 14 21  2  0
 21  4  1  0
 12  7  1  0
 20 15  1  0
  1 22  1  0
  1 23  1  0
  1 24  1  0
  2 25  1  0
  2 26  1  0
  5 27  1  0
  8 28  1  0
  8 29  1  0
  9 30  1  0
  9 31  1  0
 11 32  1  0
 11 33  1  0
 12 34  1  0
 12 35  1  0
 16 36  1  0
 17 37  1  0
 18 38  1  0
 19 39  1  0
 20 40  1  0
M  END
$$$$
