
     RDKit          3D

 56 58  0  0  0  0  0  0  0  0999 V2000
    4.9944    2.1432    2.2241 C   0  0  0  0  0  0  0  0  0  0  0  0
    3.7710    1.7431    1.6206 O   0  0  0  0  0  0  0  0  0  0  0  0
    3.8739    0.9270    0.5276 C   0  0  0  0  0  0  0  0  0  0  0  0
    4.9691    0.1207    0.2229 C   0  0  0  0  0  0  0  0  0  0  0  0
    4.9531   -0.6899   -0.9186 C   0  0  0  0  0  0  0  0  0  0  0  0
    3.8376   -0.6993   -1.7609 C   0  0  0  0  0  0  0  0  0  0  0  0
    3.7201   -1.4514   -2.9053 O   0  0  0  0  0  0  0  0  0  0  0  0
    4.8639   -2.2080   -3.3069 C   0  0  0  0  0  0  0  0  0  0  0  0
    2.7217    0.1078   -1.4504 C   0  0  0  0  0  0  0  0  0  0  0  0
    1.6244    0.0359   -2.3321 N   0  0  0  0  0  0  0  0  0  0  0  0
    0.4342    0.7315   -2.2677 C   0  0  0  0  0  0  0  0  0  0  0  0
    0.1469    1.6253   -1.4743 O   0  0  0  0  0  0  0  0  0  0  0  0
   -0.5870    0.2759   -3.2970 C   0  0  0  0  0  0  0  0  0  0  0  0
   -1.6324   -1.0932   -2.7130 S   0  0  0  0  0  0  0  0  0  0  0  0
   -1.5121   -0.8673   -0.9799 C   0  0  0  0  0  0  0  0  0  0  0  0
   -0.5545   -1.5202   -0.4096 N   0  0  0  0  0  0  0  0  0  0  0  0
   -0.3490   -1.3368    0.9589 C   0  0  0  0  0  0  0  0  0  0  0  0
    0.7569   -1.9358    1.5651 C   0  0  0  0  0  0  0  0  0  0  0  0
    0.9971   -1.7653    2.9305 C   0  0  0  0  0  0  0  0  0  0  0  0
    0.1289   -0.9974    3.7026 C   0  0  0  0  0  0  0  0  0  0  0  0
   -0.9808   -0.3988    3.1086 C   0  0  0  0  0  0  0  0  0  0  0  0
   -1.2044   -0.5671    1.7365 C   0  0  0  0  0  0  0  0  0  0  0  0
   -2.3553    0.0591    1.0645 C   0  0  0  0  0  0  0  0  0  0  0  0
   -3.2211    0.5981    1.7521 O   0  0  0  0  0  0  0  0  0  0  0  0
   -2.4102   -0.0446   -0.3249 N   0  0  0  0  0  0  0  0  0  0  0  0
   -3.5098    0.6746   -0.9966 C   0  0  0  0  0  0  0  0  0  0  0  0
   -4.8347   -0.1048   -0.9365 C   0  0  0  0  0  0  0  0  0  0  0  0
   -5.5568    0.1400    0.3009 N   0  0  0  0  0  0  0  0  0  0  0  0
   -6.3928    1.2304    0.4043 C   0  0  0  0  0  0  0  0  0  0  0  0
   -6.8989    1.4757    1.8042 C   0  0  0  0  0  0  0  0  0  0  0  0
   -6.6916    1.9513   -0.5390 O   0  0  0  0  0  0  0  0  0  0  0  0
    2.7487    0.9055   -0.3029 C   0  0  0  0  0  0  0  0  0  0  0  0
    4.7639    2.9415    2.9378 H   0  0  0  0  0  0  0  0  0  0  0  0
    5.6978    2.5466    1.4834 H   0  0  0  0  0  0  0  0  0  0  0  0
    5.4500    1.3116    2.7816 H   0  0  0  0  0  0  0  0  0  0  0  0
    5.8453    0.0875    0.8642 H   0  0  0  0  0  0  0  0  0  0  0  0
    5.8267   -1.3042   -1.1136 H   0  0  0  0  0  0  0  0  0  0  0  0
    5.1005   -2.9842   -2.5772 H   0  0  0  0  0  0  0  0  0  0  0  0
    4.6257   -2.7054   -4.2555 H   0  0  0  0  0  0  0  0  0  0  0  0
    5.7211   -1.5529   -3.4866 H   0  0  0  0  0  0  0  0  0  0  0  0
    1.7350   -0.6672   -3.0571 H   0  0  0  0  0  0  0  0  0  0  0  0
   -0.0829   -0.0265   -4.2226 H   0  0  0  0  0  0  0  0  0  0  0  0
   -1.2250    1.1321   -3.5455 H   0  0  0  0  0  0  0  0  0  0  0  0
    1.4397   -2.5301    0.9650 H   0  0  0  0  0  0  0  0  0  0  0  0
    1.8664   -2.2308    3.3885 H   0  0  0  0  0  0  0  0  0  0  0  0
    0.3156   -0.8607    4.7669 H   0  0  0  0  0  0  0  0  0  0  0  0
   -1.6595    0.2030    3.7082 H   0  0  0  0  0  0  0  0  0  0  0  0
   -3.6191    1.6602   -0.5243 H   0  0  0  0  0  0  0  0  0  0  0  0
   -3.2542    0.8661   -2.0405 H   0  0  0  0  0  0  0  0  0  0  0  0
   -5.4726    0.2000   -1.7753 H   0  0  0  0  0  0  0  0  0  0  0  0
   -4.6695   -1.1847   -1.0116 H   0  0  0  0  0  0  0  0  0  0  0  0
   -5.0692   -0.1074    1.1582 H   0  0  0  0  0  0  0  0  0  0  0  0
   -6.9483    0.5444    2.3740 H   0  0  0  0  0  0  0  0  0  0  0  0
   -6.2332    2.1788    2.3107 H   0  0  0  0  0  0  0  0  0  0  0  0
   -7.9076    1.8970    1.7528 H   0  0  0  0  0  0  0  0  0  0  0  0
    1.9031    1.5202   -0.0188 H   0  0  0  0  0  0  0  0  0  0  0  0
  1  2  1  0
  2  3  1  0
  3  4  2  0
  4  5  1  0
  5  6  2  0
  6  7  1  0
  7  8  1  0
  6  9  1  0
  9 10  1  0
 10 11  1  0
 11 12  2  0
 11 13  1  0
 13 14  1  0
 14 15  1  0
 15 16  2  0
 16 17  1  0
 17 18  2  0
 18 19  1  0
 19 20  2  0
 20 21  1  0
 21 22  2  0
 22 23  1  0
 23 24  2  0
 23 25  1  0
 25 26  1  0
 26 27  1  0
 27 28  1  0
 28 29  1  0
 29 30  1  0
 29 31  2  0
  9 32  2  0
 32  3  1  0
 25 15  1  0
 22 17  1  0
  1 33  1  0
  1 34  1  0
  1 35  1  0
  4 36  1  0
  5 37  1  0
  8 38  1  0
  8 39  1  0
  8 40  1  0
 10 41  1  0
 13 42  1  0
 13 43  1  0
 18 44  1  0
 19 45  1  0
 20 46  1  0
 21 47  1  0
 26 48  1  0
 26 49  1  0
 27 50  1  0
 27 51  1  0
 28 52  1  0
 30 53  1  0
 30 54  1  0
 30 55  1  0
 32 56  1  0
M  END
$$$$
