
     RDKit          3D

 57 60  0  0  0  0  0  0  0  0999 V2000
    5.5127    3.2747   -0.4174 C   0  0  0  0  0  0  0  0  0  0  0  0
    4.4047    2.2933   -0.2277 C   0  0  0  0  0  0  0  0  0  0  0  0
    3.0507    2.5461   -0.3108 C   0  0  0  0  0  0  0  0  0  0  0  0
    2.3638    1.3207   -0.1852 C   0  0  0  0  0  0  0  0  0  0  0  0
    0.9408    1.2044   -0.2411 C   0  0  0  0  0  0  0  0  0  0  0  0
    0.2492    0.1329   -0.6624 C   0  0  0  0  0  0  0  0  0  0  0  0
   -1.2153    0.1267   -0.7351 C   0  0  0  0  0  0  0  0  0  0  0  0
   -1.8336    0.9322   -1.6928 C   0  0  0  0  0  0  0  0  0  0  0  0
   -3.2103    0.9197   -1.8249 C   0  0  0  0  0  0  0  0  0  0  0  0
   -3.9709    0.0879   -1.0096 C   0  0  0  0  0  0  0  0  0  0  0  0
   -5.3738    0.0519   -1.1481 C   0  0  0  0  0  0  0  0  0  0  0  0
   -6.1996   -0.7698   -0.3636 C   0  0  0  0  0  0  0  0  0  0  0  0
   -7.5808   -0.8096   -0.5308 N   0  0  0  0  0  0  0  0  0  0  0  0
   -8.2588    0.2322   -1.3056 C   0  0  0  0  0  0  0  0  0  0  0  0
   -8.4212   -1.5205    0.4353 C   0  0  0  0  0  0  0  0  0  0  0  0
   -5.5373   -1.5803    0.5673 C   0  0  0  0  0  0  0  0  0  0  0  0
   -4.1418   -1.5621    0.7276 C   0  0  0  0  0  0  0  0  0  0  0  0
   -3.3282   -0.7251   -0.0485 C   0  0  0  0  0  0  0  0  0  0  0  0
   -1.9611   -0.6729    0.0806 N   0  0  0  0  0  4  0  0  0  0  0  0
   -1.3039   -1.4798    1.1366 C   0  0  0  0  0  0  0  0  0  0  0  0
    3.3094    0.3324    0.0453 C   0  0  0  0  0  0  0  0  0  0  0  0
    3.1213   -1.1002    0.4297 C   0  0  0  0  0  0  0  0  0  0  0  0
    4.5776    0.9260   -0.0352 N   0  0  0  0  0  0  0  0  0  0  0  0
    5.8271    0.2457    0.0563 C   0  0  0  0  0  0  0  0  0  0  0  0
    6.0344   -0.9354   -0.6684 C   0  0  0  0  0  0  0  0  0  0  0  0
    7.2594   -1.6000   -0.5835 C   0  0  0  0  0  0  0  0  0  0  0  0
    8.2758   -1.0924    0.2243 C   0  0  0  0  0  0  0  0  0  0  0  0
    8.0718    0.0820    0.9474 C   0  0  0  0  0  0  0  0  0  0  0  0
    6.8508    0.7544    0.8641 C   0  0  0  0  0  0  0  0  0  0  0  0
    5.9175    3.5943    0.5472 H   0  0  0  0  0  0  0  0  0  0  0  0
    5.1442    4.1708   -0.9291 H   0  0  0  0  0  0  0  0  0  0  0  0
    6.3187    2.8644   -1.0331 H   0  0  0  0  0  0  0  0  0  0  0  0
    2.6181    3.5245   -0.4852 H   0  0  0  0  0  0  0  0  0  0  0  0
    0.3955    2.1052    0.0446 H   0  0  0  0  0  0  0  0  0  0  0  0
    0.7483   -0.7692   -1.0032 H   0  0  0  0  0  0  0  0  0  0  0  0
   -1.2411    1.5671   -2.3509 H   0  0  0  0  0  0  0  0  0  0  0  0
   -3.6795    1.5523   -2.5781 H   0  0  0  0  0  0  0  0  0  0  0  0
   -5.8234    0.6885   -1.9080 H   0  0  0  0  0  0  0  0  0  0  0  0
   -7.9238    0.2275   -2.3483 H   0  0  0  0  0  0  0  0  0  0  0  0
   -9.3423    0.0722   -1.3355 H   0  0  0  0  0  0  0  0  0  0  0  0
   -8.0839    1.2208   -0.8674 H   0  0  0  0  0  0  0  0  0  0  0  0
   -8.1590   -2.5831    0.4787 H   0  0  0  0  0  0  0  0  0  0  0  0
   -9.4792   -1.4824    0.1530 H   0  0  0  0  0  0  0  0  0  0  0  0
   -8.3287   -1.0775    1.4329 H   0  0  0  0  0  0  0  0  0  0  0  0
   -6.0970   -2.2642    1.2022 H   0  0  0  0  0  0  0  0  0  0  0  0
   -3.7375   -2.2381    1.4753 H   0  0  0  0  0  0  0  0  0  0  0  0
   -1.3974   -2.5327    0.8572 H   0  0  0  0  0  0  0  0  0  0  0  0
   -0.2518   -1.2278    1.2569 H   0  0  0  0  0  0  0  0  0  0  0  0
   -1.7988   -1.2684    2.0887 H   0  0  0  0  0  0  0  0  0  0  0  0
    3.9190   -1.4617    1.0854 H   0  0  0  0  0  0  0  0  0  0  0  0
    3.0741   -1.7352   -0.4600 H   0  0  0  0  0  0  0  0  0  0  0  0
    2.1917   -1.2325    0.9914 H   0  0  0  0  0  0  0  0  0  0  0  0
    5.2738   -1.3287   -1.3368 H   0  0  0  0  0  0  0  0  0  0  0  0
    7.4276   -2.5087   -1.1562 H   0  0  0  0  0  0  0  0  0  0  0  0
    9.2298   -1.6105    0.2884 H   0  0  0  0  0  0  0  0  0  0  0  0
    8.8647    0.4718    1.5816 H   0  0  0  0  0  0  0  0  0  0  0  0
    6.7073    1.6462    1.4673 H   0  0  0  0  0  0  0  0  0  0  0  0
  1  2  1  0
  2  3  2  0
  3  4  1  0
  4  5  1  0
  5  6  2  3
  6  7  1  0
  7  8  2  0
  8  9  1  0
  9 10  2  0
 10 11  1  0
 11 12  2  0
 12 13  1  0
 13 14  1  0
 13 15  1  0
 12 16  1  0
 16 17  2  0
 17 18  1  0
 18 19  2  0
 19 20  1  0
  4 21  2  0
 21 22  1  0
 21 23  1  0
 23 24  1  0
 24 25  2  0
 25 26  1  0
 26 27  2  0
 27 28  1  0
 28 29  2  0
 23  2  1  0
 29 24  1  0
 19  7  1  0
 18 10  1  0
  1 30  1  0
  1 31  1  0
  1 32  1  0
  3 33  1  0
  5 34  1  0
  6 35  1  0
  8 36  1  0
  9 37  1  0
 11 38  1  0
 14 39  1  0
 14 40  1  0
 14 41  1  0
 15 42  1  0
 15 43  1  0
 15 44  1  0
 16 45  1  0
 17 46  1  0
 20 47  1  0
 20 48  1  0
 20 49  1  0
 22 50  1  0
 22 51  1  0
 22 52  1  0
 25 53  1  0
 26 54  1  0
 27 55  1  0
 28 56  1  0
 29 57  1  0
M  CHG  1  19   1
M  END
$$$$
