
     RDKit          3D

 51 54  0  0  0  0  0  0  0  0999 V2000
   -6.9077   -1.2414    0.2272 C   0  0  0  0  0  0  0  0  0  0  0  0
   -6.6186   -0.6063   -1.1271 C   0  0  0  0  0  0  0  0  0  0  0  0
   -5.7109    0.5439   -1.0027 N   0  0  0  0  0  0  0  0  0  0  0  0
   -6.2939    1.8713   -1.2477 C   0  0  0  0  0  0  0  0  0  0  0  0
   -6.9804    2.4158   -0.0031 C   0  0  0  0  0  0  0  0  0  0  0  0
   -4.3660    0.3939   -0.6811 C   0  0  0  0  0  0  0  0  0  0  0  0
   -3.6910   -0.8336   -0.8334 C   0  0  0  0  0  0  0  0  0  0  0  0
   -2.3320   -0.9978   -0.5146 C   0  0  0  0  0  0  0  0  0  0  0  0
   -1.5996    0.0736   -0.0220 C   0  0  0  0  0  0  0  0  0  0  0  0
   -0.1985   -0.0353    0.3434 C   0  0  0  0  0  0  0  0  0  0  0  0
    0.4638    1.0257    0.8325 C   0  0  0  0  0  0  0  0  0  0  0  0
    1.8375    0.8600    1.1853 C   0  0  0  0  0  0  0  0  0  0  0  0
    2.7469    0.2266    0.4632 N   0  0  0  0  0  0  0  0  0  0  0  0
    3.9782    0.2141    1.1008 C   0  0  0  0  0  0  0  0  0  0  0  0
    5.1495   -0.3763    0.4621 C   0  0  0  0  0  0  0  0  0  0  0  0
    5.2530   -0.3616   -0.9340 C   0  0  0  0  0  0  0  0  0  0  0  0
    6.3755   -0.9007   -1.5691 C   0  0  0  0  0  0  0  0  0  0  0  0
    7.4087   -1.4725   -0.8245 C   0  0  0  0  0  0  0  0  0  0  0  0
    8.4517   -1.9521   -1.5687 O   0  0  0  0  0  0  0  0  0  0  0  0
    9.5356   -2.5365   -0.8567 C   0  0  0  0  0  0  0  0  0  0  0  0
    7.3041   -1.5108    0.5648 C   0  0  0  0  0  0  0  0  0  0  0  0
    6.1824   -0.9643    1.2045 C   0  0  0  0  0  0  0  0  0  0  0  0
    3.9908    0.8196    2.3390 C   0  0  0  0  0  0  0  0  0  0  0  0
    2.4292    1.4034    2.7252 S   0  0  0  0  0  0  0  0  0  0  0  0
   -0.1973    2.3525    0.9545 C   0  0  0  0  0  0  0  0  0  0  0  0
    0.3977    3.3682    1.3024 O   0  0  0  0  0  0  0  0  0  0  0  0
   -1.5534    2.4056    0.6375 O   0  0  0  0  0  0  0  0  0  0  0  0
   -2.2449    1.2864    0.1381 C   0  0  0  0  0  0  0  0  0  0  0  0
   -3.5948    1.4560   -0.1845 C   0  0  0  0  0  0  0  0  0  0  0  0
   -7.3073   -0.5051    0.9317 H   0  0  0  0  0  0  0  0  0  0  0  0
   -7.6465   -2.0419    0.1189 H   0  0  0  0  0  0  0  0  0  0  0  0
   -6.0077   -1.6750    0.6742 H   0  0  0  0  0  0  0  0  0  0  0  0
   -6.2276   -1.3466   -1.8329 H   0  0  0  0  0  0  0  0  0  0  0  0
   -7.5764   -0.2833   -1.5550 H   0  0  0  0  0  0  0  0  0  0  0  0
   -5.5436    2.5822   -1.6156 H   0  0  0  0  0  0  0  0  0  0  0  0
   -7.0317    1.8040   -2.0571 H   0  0  0  0  0  0  0  0  0  0  0  0
   -7.3698    3.4220   -0.1933 H   0  0  0  0  0  0  0  0  0  0  0  0
   -7.8230    1.7812    0.2896 H   0  0  0  0  0  0  0  0  0  0  0  0
   -6.2946    2.4719    0.8484 H   0  0  0  0  0  0  0  0  0  0  0  0
   -4.2074   -1.7050   -1.2284 H   0  0  0  0  0  0  0  0  0  0  0  0
   -1.8692   -1.9705   -0.6623 H   0  0  0  0  0  0  0  0  0  0  0  0
    0.2862   -1.0004    0.2261 H   0  0  0  0  0  0  0  0  0  0  0  0
    4.4625    0.0803   -1.5383 H   0  0  0  0  0  0  0  0  0  0  0  0
    6.4436   -0.8702   -2.6537 H   0  0  0  0  0  0  0  0  0  0  0  0
    9.2181   -3.4494   -0.3417 H   0  0  0  0  0  0  0  0  0  0  0  0
   10.3033   -2.8142   -1.5864 H   0  0  0  0  0  0  0  0  0  0  0  0
    9.9862   -1.8225   -0.1573 H   0  0  0  0  0  0  0  0  0  0  0  0
    8.0753   -1.9579    1.1830 H   0  0  0  0  0  0  0  0  0  0  0  0
    6.1276   -1.0196    2.2893 H   0  0  0  0  0  0  0  0  0  0  0  0
    4.8143    0.9573    3.0225 H   0  0  0  0  0  0  0  0  0  0  0  0
   -4.0280    2.4351   -0.0179 H   0  0  0  0  0  0  0  0  0  0  0  0
  1  2  1  0
  2  3  1  0
  3  4  1  0
  4  5  1  0
  3  6  1  0
  6  7  2  0
  7  8  1  0
  8  9  2  0
  9 10  1  0
 10 11  2  0
 11 12  1  0
 12 13  2  0
 13 14  1  0
 14 15  1  0
 15 16  2  0
 16 17  1  0
 17 18  2  0
 18 19  1  0
 19 20  1  0
 18 21  1  0
 21 22  2  0
 14 23  2  0
 23 24  1  0
 11 25  1  0
 25 26  2  0
 25 27  1  0
 27 28  1  0
 28 29  2  0
 29  6  1  0
 28  9  1  0
 24 12  1  0
 22 15  1  0
  1 30  1  0
  1 31  1  0
  1 32  1  0
  2 33  1  0
  2 34  1  0
  4 35  1  0
  4 36  1  0
  5 37  1  0
  5 38  1  0
  5 39  1  0
  7 40  1  0
  8 41  1  0
 10 42  1  0
 16 43  1  0
 17 44  1  0
 20 45  1  0
 20 46  1  0
 20 47  1  0
 21 48  1  0
 22 49  1  0
 23 50  1  0
 29 51  1  0
M  END
$$$$
