
     RDKit          3D

 37 38  0  0  0  0  0  0  0  0999 V2000
    6.0367   -0.1176   -0.7603 C   0  0  0  0  0  0  0  0  0  0  0  0
    4.7154   -0.3928   -1.4550 C   0  0  0  0  0  0  0  0  0  0  0  0
    3.6078   -0.4486   -0.5210 N   0  0  0  0  0  0  0  0  0  0  0  0
    2.7414    0.5599   -0.2191 C   0  0  0  0  0  0  0  0  0  0  0  0
    1.8693    0.0546    0.7250 C   0  0  0  0  0  0  0  0  0  0  0  0
    0.7373    0.7475    1.3871 C   0  0  0  0  0  0  0  0  0  0  0  0
   -0.4693    0.4206    0.6649 N   0  0  0  0  0  0  0  0  0  0  0  0
   -1.6971    0.7719    1.1759 C   0  0  0  0  0  0  0  0  0  0  0  0
   -1.8474    1.3056    2.2681 O   0  0  0  0  0  0  0  0  0  0  0  0
   -2.8769    0.5015    0.3099 C   0  0  0  0  0  0  0  0  0  0  0  0
   -2.8821   -0.5445   -0.6250 C   0  0  0  0  0  0  0  0  0  0  0  0
   -4.0116   -0.7782   -1.4140 C   0  0  0  0  0  0  0  0  0  0  0  0
   -5.1437    0.0250   -1.2705 C   0  0  0  0  0  0  0  0  0  0  0  0
   -5.1421    1.0614   -0.3261 C   0  0  0  0  0  0  0  0  0  0  0  0
   -6.3347    1.9036   -0.1730 N   0  0  0  0  0  4  0  0  0  0  0  0
   -7.3494    1.5836   -0.8086 O   0  0  0  0  0  0  0  0  0  0  0  0
   -6.2547    2.8871    0.5754 O   0  0  0  0  0  1  0  0  0  0  0  0
   -4.0153    1.3020    0.4695 C   0  0  0  0  0  0  0  0  0  0  0  0
    2.2990   -1.2887    0.9137 C   0  0  0  0  0  0  0  0  0  0  0  0
    1.7198   -2.3119    1.8198 C   0  0  0  0  0  0  0  0  0  0  0  0
    3.3486   -1.5890    0.1394 N   0  0  0  0  0  0  0  0  0  0  0  0
    6.8493   -0.0746   -1.4920 H   0  0  0  0  0  0  0  0  0  0  0  0
    6.2726   -0.9022   -0.0335 H   0  0  0  0  0  0  0  0  0  0  0  0
    6.0083    0.8366   -0.2234 H   0  0  0  0  0  0  0  0  0  0  0  0
    4.4962    0.3932   -2.1858 H   0  0  0  0  0  0  0  0  0  0  0  0
    4.7473   -1.3486   -1.9896 H   0  0  0  0  0  0  0  0  0  0  0  0
    2.8193    1.5353   -0.6788 H   0  0  0  0  0  0  0  0  0  0  0  0
    0.6324    0.4418    2.4336 H   0  0  0  0  0  0  0  0  0  0  0  0
    0.8661    1.8353    1.3629 H   0  0  0  0  0  0  0  0  0  0  0  0
   -0.3770    0.2330   -0.3239 H   0  0  0  0  0  0  0  0  0  0  0  0
   -2.0250   -1.2058   -0.7309 H   0  0  0  0  0  0  0  0  0  0  0  0
   -4.0126   -1.5943   -2.1342 H   0  0  0  0  0  0  0  0  0  0  0  0
   -6.0157   -0.1718   -1.8919 H   0  0  0  0  0  0  0  0  0  0  0  0
   -4.0098    2.1008    1.2102 H   0  0  0  0  0  0  0  0  0  0  0  0
    0.6649   -2.4801    1.5804 H   0  0  0  0  0  0  0  0  0  0  0  0
    1.7902   -1.9815    2.8610 H   0  0  0  0  0  0  0  0  0  0  0  0
    2.2427   -3.2699    1.7328 H   0  0  0  0  0  0  0  0  0  0  0  0
  1  2  1  0
  2  3  1  0
  3  4  1  0
  4  5  2  0
  5  6  1  0
  6  7  1  0
  7  8  1  0
  8  9  2  0
  8 10  1  0
 10 11  2  0
 11 12  1  0
 12 13  2  0
 13 14  1  0
 14 15  1  0
 15 16  2  0
 15 17  1  0
 14 18  2  0
  5 19  1  0
 19 20  1  0
 19 21  2  0
 21  3  1  0
 18 10  1  0
  1 22  1  0
  1 23  1  0
  1 24  1  0
  2 25  1  0
  2 26  1  0
  4 27  1  0
  6 28  1  0
  6 29  1  0
  7 30  1  0
 11 31  1  0
 12 32  1  0
 13 33  1  0
 18 34  1  0
 20 35  1  0
 20 36  1  0
 20 37  1  0
M  CHG  2  15   1  17  -1
M  END
$$$$
