
     RDKit          3D

 42 43  0  0  0  0  0  0  0  0999 V2000
   -5.6558    1.1807   -1.1030 C   0  0  0  0  0  0  0  0  0  0  0  0
   -4.4564    0.4148   -0.6455 C   0  0  0  0  0  0  0  0  0  0  0  0
   -3.6699    0.6432    0.4279 C   0  0  0  0  0  0  0  0  0  0  0  0
   -3.9171    1.7398    1.4321 C   0  0  0  0  0  0  0  0  0  0  0  0
   -2.4525   -0.2107    0.7729 C   0  0  0  0  0  0  0  0  0  0  0  0
   -1.9476   -1.0731   -0.3058 N   0  0  0  0  0  0  0  0  0  0  0  0
   -1.1824   -0.3085   -1.3215 C   0  0  0  0  0  0  0  0  0  0  0  0
    0.2108    0.2071   -0.8804 C   0  0  0  0  0  0  0  0  0  0  0  0
    1.0248   -0.8824   -0.2911 N   0  0  0  0  0  0  0  0  0  0  0  0
    2.3642   -0.5341   -0.0501 C   0  0  0  0  0  0  0  0  0  0  0  0
    3.1722   -0.0919   -1.1108 C   0  0  0  0  0  0  0  0  0  0  0  0
    4.5153    0.2583   -0.9249 C   0  0  0  0  0  0  0  0  0  0  0  0
    5.1030    0.1578    0.3359 C   0  0  0  0  0  0  0  0  0  0  0  0
    6.5303    0.5618    0.5494 C   0  0  0  0  0  0  0  0  0  0  0  0
    4.3190   -0.2814    1.4037 C   0  0  0  0  0  0  0  0  0  0  0  0
    2.9756   -0.6318    1.2079 C   0  0  0  0  0  0  0  0  0  0  0  0
    0.3100   -1.6533    0.7445 C   0  0  0  0  0  0  0  0  0  0  0  0
   -1.0621   -2.1373    0.2205 C   0  0  0  0  0  0  0  0  0  0  0  0
   -6.5545    0.5674   -0.9869 H   0  0  0  0  0  0  0  0  0  0  0  0
   -5.5469    1.4250   -2.1648 H   0  0  0  0  0  0  0  0  0  0  0  0
   -5.8079    2.1210   -0.5704 H   0  0  0  0  0  0  0  0  0  0  0  0
   -4.2159   -0.4334   -1.2872 H   0  0  0  0  0  0  0  0  0  0  0  0
   -3.1187    2.4870    1.3756 H   0  0  0  0  0  0  0  0  0  0  0  0
   -3.9288    1.3244    2.4458 H   0  0  0  0  0  0  0  0  0  0  0  0
   -4.8694    2.2554    1.2939 H   0  0  0  0  0  0  0  0  0  0  0  0
   -1.6573    0.4399    1.1560 H   0  0  0  0  0  0  0  0  0  0  0  0
   -2.7658   -0.8399    1.6175 H   0  0  0  0  0  0  0  0  0  0  0  0
   -1.0415   -0.9698   -2.1874 H   0  0  0  0  0  0  0  0  0  0  0  0
   -1.7718    0.5357   -1.6976 H   0  0  0  0  0  0  0  0  0  0  0  0
    0.0988    1.0189   -0.1509 H   0  0  0  0  0  0  0  0  0  0  0  0
    0.6910    0.6334   -1.7682 H   0  0  0  0  0  0  0  0  0  0  0  0
    2.7660   -0.0424   -2.1178 H   0  0  0  0  0  0  0  0  0  0  0  0
    5.0961    0.5981   -1.7790 H   0  0  0  0  0  0  0  0  0  0  0  0
    6.9835   -0.0180    1.3603 H   0  0  0  0  0  0  0  0  0  0  0  0
    6.5846    1.6252    0.8018 H   0  0  0  0  0  0  0  0  0  0  0  0
    7.1268    0.3809   -0.3511 H   0  0  0  0  0  0  0  0  0  0  0  0
    4.7448   -0.3588    2.4015 H   0  0  0  0  0  0  0  0  0  0  0  0
    2.4190   -0.9661    2.0774 H   0  0  0  0  0  0  0  0  0  0  0  0
    0.1623   -1.0436    1.6445 H   0  0  0  0  0  0  0  0  0  0  0  0
    0.8929   -2.5400    1.0227 H   0  0  0  0  0  0  0  0  0  0  0  0
   -0.8909   -2.8603   -0.5885 H   0  0  0  0  0  0  0  0  0  0  0  0
   -1.5782   -2.6989    1.0089 H   0  0  0  0  0  0  0  0  0  0  0  0
  1  2  1  0
  2  3  2  3
  3  4  1  0
  3  5  1  0
  5  6  1  0
  6  7  1  0
  7  8  1  0
  8  9  1  0
  9 10  1  0
 10 11  2  0
 11 12  1  0
 12 13  2  0
 13 14  1  0
 13 15  1  0
 15 16  2  0
  9 17  1  0
 17 18  1  0
 18  6  1  0
 16 10  1  0
  1 19  1  0
  1 20  1  0
  1 21  1  0
  2 22  1  0
  4 23  1  0
  4 24  1  0
  4 25  1  0
  5 26  1  0
  5 27  1  0
  7 28  1  0
  7 29  1  0
  8 30  1  0
  8 31  1  0
 11 32  1  0
 12 33  1  0
 14 34  1  0
 14 35  1  0
 14 36  1  0
 15 37  1  0
 16 38  1  0
 17 39  1  0
 17 40  1  0
 18 41  1  0
 18 42  1  0
M  END
$$$$
