
     RDKit          3D

 24 24  0  0  0  0  0  0  0  0999 V2000
   -4.0876    0.1580   -0.6818 C   0  0  0  0  0  0  0  0  0  0  0  0
   -3.5527   -1.0085   -0.0148 N   0  0  0  0  0  0  0  0  0  0  0  0
   -2.2523   -1.2484    0.3519 C   0  0  0  0  0  0  0  0  0  0  0  0
   -2.0049   -2.5622    1.3511 S   0  0  0  0  0  0  0  0  0  0  0  0
   -1.3361   -0.3815   -0.1902 N   0  0  0  0  0  0  0  0  0  0  0  0
    0.0256   -0.1449    0.1026 C   0  0  0  0  0  0  0  0  0  0  0  0
    0.6517   -0.4859    1.3002 C   0  0  0  0  0  0  0  0  0  0  0  0
    2.0043   -0.1874    1.5099 C   0  0  0  0  0  0  0  0  0  0  0  0
    2.7544    0.4616    0.5254 C   0  0  0  0  0  0  0  0  0  0  0  0
    4.1933    0.8063    0.7673 C   0  0  0  0  0  0  0  0  0  0  0  0
    2.1210    0.8396   -0.6604 C   0  0  0  0  0  0  0  0  0  0  0  0
    0.7702    0.5408   -0.8667 C   0  0  0  0  0  0  0  0  0  0  0  0
   -3.7304    1.0623   -0.1824 H   0  0  0  0  0  0  0  0  0  0  0  0
   -3.7595    0.1560   -1.7244 H   0  0  0  0  0  0  0  0  0  0  0  0
   -5.1784    0.1134   -0.6400 H   0  0  0  0  0  0  0  0  0  0  0  0
   -4.2169   -1.6452    0.4136 H   0  0  0  0  0  0  0  0  0  0  0  0
   -1.6564    0.0559   -1.0417 H   0  0  0  0  0  0  0  0  0  0  0  0
    0.1129   -0.9544    2.1152 H   0  0  0  0  0  0  0  0  0  0  0  0
    2.4627   -0.4632    2.4574 H   0  0  0  0  0  0  0  0  0  0  0  0
    4.2681    1.7895    1.2418 H   0  0  0  0  0  0  0  0  0  0  0  0
    4.7543    0.8234   -0.1731 H   0  0  0  0  0  0  0  0  0  0  0  0
    4.6693    0.0629    1.4154 H   0  0  0  0  0  0  0  0  0  0  0  0
    2.6735    1.3679   -1.4340 H   0  0  0  0  0  0  0  0  0  0  0  0
    0.3140    0.8438   -1.8055 H   0  0  0  0  0  0  0  0  0  0  0  0
  1  2  1  0
  2  3  1  0
  3  4  2  0
  3  5  1  0
  5  6  1  0
  6  7  2  0
  7  8  1  0
  8  9  2  0
  9 10  1  0
  9 11  1  0
 11 12  2  0
 12  6  1  0
  1 13  1  0
  1 14  1  0
  1 15  1  0
  2 16  1  0
  5 17  1  0
  7 18  1  0
  8 19  1  0
 10 20  1  0
 10 21  1  0
 10 22  1  0
 11 23  1  0
 12 24  1  0
M  END
$$$$
