
     RDKit          3D

 35 37  0  0  0  0  0  0  0  0999 V2000
    7.2803   -0.3315    1.0330 C   0  0  0  0  0  0  0  0  0  0  0  0
    6.0210   -0.3508    1.6933 O   0  0  0  0  0  0  0  0  0  0  0  0
    4.9084   -0.2395    0.9069 C   0  0  0  0  0  0  0  0  0  0  0  0
    4.8928   -0.1100   -0.4809 C   0  0  0  0  0  0  0  0  0  0  0  0
    3.6738   -0.0047   -1.1642 C   0  0  0  0  0  0  0  0  0  0  0  0
    2.4527   -0.0269   -0.4745 C   0  0  0  0  0  0  0  0  0  0  0  0
    1.2018    0.0845   -1.2125 C   0  0  0  0  0  0  0  0  0  0  0  0
    0.9847    0.2194   -2.5069 N   0  0  0  0  0  0  0  0  0  0  0  0
   -0.3860    0.2776   -2.6676 N   0  0  0  0  0  0  0  0  0  0  0  0
   -0.9033    0.1761   -1.4629 C   0  0  0  0  0  0  0  0  0  0  0  0
   -2.2334    0.1806   -1.1571 N   0  0  0  0  0  0  0  0  0  0  0  0
   -2.7039    0.1251    0.1320 C   0  0  0  0  0  0  0  0  0  0  0  0
   -2.0306    0.1071    1.1554 O   0  0  0  0  0  0  0  0  0  0  0  0
   -4.1900    0.1250    0.2619 C   0  0  0  0  0  0  0  0  0  0  0  0
   -4.7584    0.7339    1.3914 C   0  0  0  0  0  0  0  0  0  0  0  0
   -6.1449    0.7558    1.5543 C   0  0  0  0  0  0  0  0  0  0  0  0
   -6.9560    0.1609    0.5950 C   0  0  0  0  0  0  0  0  0  0  0  0
   -8.2856    0.1798    0.7512 F   0  0  0  0  0  0  0  0  0  0  0  0
   -6.4075   -0.4619   -0.5216 C   0  0  0  0  0  0  0  0  0  0  0  0
   -5.0204   -0.4862   -0.6905 C   0  0  0  0  0  0  0  0  0  0  0  0
    0.0400    0.0462   -0.4899 O   0  0  0  0  0  0  0  0  0  0  0  0
    2.4798   -0.1571    0.9203 C   0  0  0  0  0  0  0  0  0  0  0  0
    3.6974   -0.2622    1.6011 C   0  0  0  0  0  0  0  0  0  0  0  0
    8.0590   -0.4288    1.7956 H   0  0  0  0  0  0  0  0  0  0  0  0
    7.4394    0.6195    0.5140 H   0  0  0  0  0  0  0  0  0  0  0  0
    7.3789   -1.1788    0.3464 H   0  0  0  0  0  0  0  0  0  0  0  0
    5.8069   -0.0871   -1.0648 H   0  0  0  0  0  0  0  0  0  0  0  0
    3.6857    0.0958   -2.2489 H   0  0  0  0  0  0  0  0  0  0  0  0
   -2.8469    0.3033   -1.9475 H   0  0  0  0  0  0  0  0  0  0  0  0
   -4.1211    1.1924    2.1459 H   0  0  0  0  0  0  0  0  0  0  0  0
   -6.5939    1.2273    2.4230 H   0  0  0  0  0  0  0  0  0  0  0  0
   -7.0649   -0.9338   -1.2460 H   0  0  0  0  0  0  0  0  0  0  0  0
   -4.6100   -1.0109   -1.5489 H   0  0  0  0  0  0  0  0  0  0  0  0
    1.5552   -0.1777    1.4955 H   0  0  0  0  0  0  0  0  0  0  0  0
    3.6991   -0.3624    2.6842 H   0  0  0  0  0  0  0  0  0  0  0  0
  1  2  1  0
  2  3  1  0
  3  4  2  0
  4  5  1  0
  5  6  2  0
  6  7  1  0
  7  8  2  0
  8  9  1  0
  9 10  2  0
 10 11  1  0
 11 12  1  0
 12 13  2  0
 12 14  1  0
 14 15  2  0
 15 16  1  0
 16 17  2  0
 17 18  1  0
 17 19  1  0
 19 20  2  0
 10 21  1  0
  6 22  1  0
 22 23  2  0
 23  3  1  0
 21  7  1  0
 20 14  1  0
  1 24  1  0
  1 25  1  0
  1 26  1  0
  4 27  1  0
  5 28  1  0
 11 29  1  0
 15 30  1  0
 16 31  1  0
 19 32  1  0
 20 33  1  0
 22 34  1  0
 23 35  1  0
M  END
$$$$
