
     RDKit          3D

 57 60  0  0  0  0  0  0  0  0999 V2000
    0.3054    2.3476    5.5591 C   0  0  0  0  0  0  0  0  0  0  0  0
   -0.2547    1.4909    4.5734 O   0  0  0  0  0  0  0  0  0  0  0  0
    0.1800    1.6101    3.2837 C   0  0  0  0  0  0  0  0  0  0  0  0
    1.2342    2.4447    2.8899 C   0  0  0  0  0  0  0  0  0  0  0  0
    1.6470    2.4965    1.5535 C   0  0  0  0  0  0  0  0  0  0  0  0
    1.0165    1.6994    0.5961 C   0  0  0  0  0  0  0  0  0  0  0  0
    1.4097    1.7159   -0.8390 C   0  0  0  0  0  0  0  0  0  0  0  0
    0.5815    1.4232   -1.6945 O   0  0  0  0  0  0  0  0  0  0  0  0
    2.7233    2.0279   -1.1127 N   0  0  0  0  0  0  0  0  0  0  0  0
    3.2588    1.9041   -2.4514 C   0  0  0  0  0  0  0  0  0  0  0  0
    4.0050    0.6024   -2.6046 C   0  0  0  0  0  0  0  0  0  0  0  0
    5.4149    0.5667   -2.5000 C   0  0  0  0  0  0  0  0  0  0  0  0
    6.1133   -0.6402   -2.6108 C   0  0  0  0  0  0  0  0  0  0  0  0
    5.3812   -1.7889   -2.8161 C   0  0  0  0  0  0  0  0  0  0  0  0
    4.0104   -1.7663   -2.9130 C   0  0  0  0  0  0  0  0  0  0  0  0
    3.2948   -0.5927   -2.8125 C   0  0  0  0  0  0  0  0  0  0  0  0
    3.4832   -3.0042   -3.1054 O   0  0  0  0  0  0  0  0  0  0  0  0
    4.6798   -3.8098   -3.1176 C   0  0  0  0  0  0  0  0  0  0  0  0
    5.8897   -3.0440   -2.9388 O   0  0  0  0  0  0  0  0  0  0  0  0
   -0.0446    0.8709    0.9765 C   0  0  0  0  0  0  0  0  0  0  0  0
   -0.4662    0.8290    2.3105 C   0  0  0  0  0  0  0  0  0  0  0  0
   -1.8388   -0.1969    2.8066 S   0  0  0  0  0  6  0  0  0  0  0  0
   -2.8091    0.6642    3.4528 O   0  0  0  0  0  0  0  0  0  0  0  0
   -1.2749   -1.3509    3.4768 O   0  0  0  0  0  0  0  0  0  0  0  0
   -2.5685   -0.7476    1.3895 N   0  0  0  0  0  0  0  0  0  0  0  0
   -2.0123   -1.9077    0.6821 C   0  0  0  0  0  0  0  0  0  0  0  0
   -3.3686    0.1914    0.5839 C   0  0  0  0  0  0  0  0  0  0  0  0
   -4.6953   -0.3959    0.1597 C   0  0  0  0  0  0  0  0  0  0  0  0
   -5.0110   -0.5601   -1.1958 C   0  0  0  0  0  0  0  0  0  0  0  0
   -6.2438   -1.0953   -1.5748 C   0  0  0  0  0  0  0  0  0  0  0  0
   -7.1711   -1.4700   -0.6036 C   0  0  0  0  0  0  0  0  0  0  0  0
   -6.8674   -1.3127    0.7473 C   0  0  0  0  0  0  0  0  0  0  0  0
   -5.6361   -0.7774    1.1275 C   0  0  0  0  0  0  0  0  0  0  0  0
    1.3717    2.1413    5.6980 H   0  0  0  0  0  0  0  0  0  0  0  0
   -0.1992    2.1420    6.5083 H   0  0  0  0  0  0  0  0  0  0  0  0
    0.1335    3.4003    5.3120 H   0  0  0  0  0  0  0  0  0  0  0  0
    1.7580    3.0744    3.6032 H   0  0  0  0  0  0  0  0  0  0  0  0
    2.4457    3.1800    1.2790 H   0  0  0  0  0  0  0  0  0  0  0  0
    3.3949    2.0133   -0.3589 H   0  0  0  0  0  0  0  0  0  0  0  0
    2.4639    1.9777   -3.2019 H   0  0  0  0  0  0  0  0  0  0  0  0
    3.9341    2.7523   -2.6082 H   0  0  0  0  0  0  0  0  0  0  0  0
    5.9745    1.4849   -2.3317 H   0  0  0  0  0  0  0  0  0  0  0  0
    7.1945   -0.6747   -2.5346 H   0  0  0  0  0  0  0  0  0  0  0  0
    2.2110   -0.5991   -2.8862 H   0  0  0  0  0  0  0  0  0  0  0  0
    4.6116   -4.5499   -2.3121 H   0  0  0  0  0  0  0  0  0  0  0  0
    4.7372   -4.3391   -4.0760 H   0  0  0  0  0  0  0  0  0  0  0  0
   -0.5176    0.2633    0.2141 H   0  0  0  0  0  0  0  0  0  0  0  0
   -1.0125   -2.1664    1.0424 H   0  0  0  0  0  0  0  0  0  0  0  0
   -1.9270   -1.7190   -0.3925 H   0  0  0  0  0  0  0  0  0  0  0  0
   -2.6656   -2.7716    0.8353 H   0  0  0  0  0  0  0  0  0  0  0  0
   -2.7931    0.4918   -0.3003 H   0  0  0  0  0  0  0  0  0  0  0  0
   -3.5758    1.1191    1.1295 H   0  0  0  0  0  0  0  0  0  0  0  0
   -4.3006   -0.2723   -1.9679 H   0  0  0  0  0  0  0  0  0  0  0  0
   -6.4819   -1.2187   -2.6274 H   0  0  0  0  0  0  0  0  0  0  0  0
   -8.1307   -1.8867   -0.8986 H   0  0  0  0  0  0  0  0  0  0  0  0
   -7.5875   -1.6059    1.5064 H   0  0  0  0  0  0  0  0  0  0  0  0
   -5.4058   -0.6611    2.1857 H   0  0  0  0  0  0  0  0  0  0  0  0
  1  2  1  0
  2  3  1  0
  3  4  2  0
  4  5  1  0
  5  6  2  0
  6  7  1  0
  7  8  2  0
  7  9  1  0
  9 10  1  0
 10 11  1  0
 11 12  2  0
 12 13  1  0
 13 14  2  0
 14 15  1  0
 15 16  2  0
 15 17  1  0
 17 18  1  0
 18 19  1  0
  6 20  1  0
 20 21  2  0
 21 22  1  0
 22 23  2  0
 22 24  2  0
 22 25  1  0
 25 26  1  0
 25 27  1  0
 27 28  1  0
 28 29  2  0
 29 30  1  0
 30 31  2  0
 31 32  1  0
 32 33  2  0
 21  3  1  0
 33 28  1  0
 16 11  1  0
 19 14  1  0
  1 34  1  0
  1 35  1  0
  1 36  1  0
  4 37  1  0
  5 38  1  0
  9 39  1  0
 10 40  1  0
 10 41  1  0
 12 42  1  0
 13 43  1  0
 16 44  1  0
 18 45  1  0
 18 46  1  0
 20 47  1  0
 26 48  1  0
 26 49  1  0
 26 50  1  0
 27 51  1  0
 27 52  1  0
 29 53  1  0
 30 54  1  0
 31 55  1  0
 32 56  1  0
 33 57  1  0
M  END
$$$$
