
     RDKit          3D

 44 44  0  0  0  0  0  0  0  0999 V2000
   -4.5925   -0.9476   -1.5291 C   0  0  0  0  0  0  0  0  0  0  0  0
   -4.4198   -0.4095   -0.1156 C   0  0  0  0  0  0  0  0  0  0  0  0
   -3.7735    0.9094   -0.1254 N   0  0  0  0  0  0  0  0  0  0  0  0
   -4.6769    2.0645   -0.1969 C   0  0  0  0  0  0  0  0  0  0  0  0
   -5.0102    2.5818    1.1952 C   0  0  0  0  0  0  0  0  0  0  0  0
   -2.3882    1.0521   -0.1212 C   0  0  0  0  0  0  0  0  0  0  0  0
   -1.7630    2.3070   -0.0226 C   0  0  0  0  0  0  0  0  0  0  0  0
   -0.3695    2.4559   -0.0273 C   0  0  0  0  0  0  0  0  0  0  0  0
    0.4560    1.3416   -0.1199 C   0  0  0  0  0  0  0  0  0  0  0  0
   -0.1166    0.0794   -0.1955 C   0  0  0  0  0  0  0  0  0  0  0  0
    0.5730   -1.0991   -0.2959 O   0  0  0  0  0  0  0  0  0  0  0  0
    1.8811   -1.1298    0.2597 C   0  0  0  0  0  0  0  0  0  0  0  0
    3.0226   -0.7649   -0.7068 C   0  0  0  0  0  0  0  0  0  0  0  0
    2.8029   -0.5023   -1.8910 O   0  0  0  0  0  0  0  0  0  0  0  0
    4.3206   -0.7070   -0.1830 N   0  0  0  0  0  0  0  0  0  0  0  0
    5.3896   -0.3107   -1.0926 C   0  0  0  0  0  0  0  0  0  0  0  0
    4.7220   -1.1911    1.1467 C   0  0  0  0  0  0  0  0  0  0  0  0
    5.4990   -2.5111    1.1342 C   0  0  0  0  0  0  0  0  0  0  0  0
    4.6273   -3.6501    0.8321 C   0  0  0  0  0  0  0  0  0  0  0  0
    3.9290   -4.5510    0.6185 N   0  0  0  0  0  0  0  0  0  0  0  0
   -1.5152   -0.0486   -0.2118 C   0  0  0  0  0  0  0  0  0  0  0  0
   -3.6314   -1.0701   -2.0379 H   0  0  0  0  0  0  0  0  0  0  0  0
   -5.2041   -0.2709   -2.1354 H   0  0  0  0  0  0  0  0  0  0  0  0
   -5.0899   -1.9222   -1.5041 H   0  0  0  0  0  0  0  0  0  0  0  0
   -5.4123   -0.3282    0.3465 H   0  0  0  0  0  0  0  0  0  0  0  0
   -3.8780   -1.1243    0.5138 H   0  0  0  0  0  0  0  0  0  0  0  0
   -4.2700    2.8638   -0.8265 H   0  0  0  0  0  0  0  0  0  0  0  0
   -5.6135    1.7721   -0.6891 H   0  0  0  0  0  0  0  0  0  0  0  0
   -5.4983    1.8065    1.7949 H   0  0  0  0  0  0  0  0  0  0  0  0
   -4.1144    2.9033    1.7349 H   0  0  0  0  0  0  0  0  0  0  0  0
   -5.6910    3.4361    1.1276 H   0  0  0  0  0  0  0  0  0  0  0  0
   -2.3467    3.2175    0.0632 H   0  0  0  0  0  0  0  0  0  0  0  0
    0.0649    3.4504    0.0307 H   0  0  0  0  0  0  0  0  0  0  0  0
    1.5285    1.4917   -0.1586 H   0  0  0  0  0  0  0  0  0  0  0  0
    1.9357   -0.5071    1.1610 H   0  0  0  0  0  0  0  0  0  0  0  0
    2.0457   -2.1663    0.5711 H   0  0  0  0  0  0  0  0  0  0  0  0
    5.0155    0.3229   -1.9017 H   0  0  0  0  0  0  0  0  0  0  0  0
    5.8346   -1.2099   -1.5275 H   0  0  0  0  0  0  0  0  0  0  0  0
    6.1500    0.2491   -0.5401 H   0  0  0  0  0  0  0  0  0  0  0  0
    3.8527   -1.2806    1.8031 H   0  0  0  0  0  0  0  0  0  0  0  0
    5.3564   -0.4087    1.5811 H   0  0  0  0  0  0  0  0  0  0  0  0
    6.3295   -2.4727    0.4218 H   0  0  0  0  0  0  0  0  0  0  0  0
    5.9414   -2.6635    2.1260 H   0  0  0  0  0  0  0  0  0  0  0  0
   -1.9027   -1.0578   -0.3069 H   0  0  0  0  0  0  0  0  0  0  0  0
  1  2  1  0
  2  3  1  0
  3  4  1  0
  4  5  1  0
  3  6  1  0
  6  7  2  0
  7  8  1  0
  8  9  2  0
  9 10  1  0
 10 11  1  0
 11 12  1  0
 12 13  1  0
 13 14  2  0
 13 15  1  0
 15 16  1  0
 15 17  1  0
 17 18  1  0
 18 19  1  0
 19 20  3  0
 10 21  2  0
 21  6  1  0
  1 22  1  0
  1 23  1  0
  1 24  1  0
  2 25  1  0
  2 26  1  0
  4 27  1  0
  4 28  1  0
  5 29  1  0
  5 30  1  0
  5 31  1  0
  7 32  1  0
  8 33  1  0
  9 34  1  0
 12 35  1  0
 12 36  1  0
 16 37  1  0
 16 38  1  0
 16 39  1  0
 17 40  1  0
 17 41  1  0
 18 42  1  0
 18 43  1  0
 21 44  1  0
M  END
$$$$
