
     RDKit          3D

 33 35  0  0  0  0  0  0  0  0999 V2000
    5.5904    0.4469   -0.2596 C   0  0  0  0  0  0  0  0  0  0  0  0
    5.0467   -0.6032    0.5299 O   0  0  0  0  0  0  0  0  0  0  0  0
    3.6842   -0.6739    0.6190 C   0  0  0  0  0  0  0  0  0  0  0  0
    3.2074   -1.7168    1.4159 C   0  0  0  0  0  0  0  0  0  0  0  0
    1.8362   -1.9013    1.6011 C   0  0  0  0  0  0  0  0  0  0  0  0
    0.9244   -1.0438    0.9778 C   0  0  0  0  0  0  0  0  0  0  0  0
    1.3896    0.0012    0.1656 C   0  0  0  0  0  0  0  0  0  0  0  0
    2.7740    0.1866    0.0008 C   0  0  0  0  0  0  0  0  0  0  0  0
    0.4187    0.9558   -0.4731 C   0  0  0  0  0  0  0  0  0  0  0  0
   -0.8956    0.2601   -0.8184 C   0  0  0  0  0  0  0  0  0  0  0  0
   -1.4832   -0.4332    0.3781 C   0  0  0  0  0  0  0  0  0  0  0  0
   -2.7583   -0.4066    0.8086 C   0  0  0  0  0  0  0  0  0  0  0  0
   -3.8251    0.2640    0.1517 C   0  0  0  0  0  0  0  0  0  0  0  0
   -4.1753    0.3296   -1.1936 C   0  0  0  0  0  0  0  0  0  0  0  0
   -5.3513    1.1090   -1.3045 C   0  0  0  0  0  0  0  0  0  0  0  0
   -5.6801    1.4696   -0.0241 C   0  0  0  0  0  0  0  0  0  0  0  0
   -4.7838    0.9614    0.8543 O   0  0  0  0  0  0  0  0  0  0  0  0
   -0.5316   -1.2464    1.2074 C   0  0  0  0  0  0  0  0  0  0  0  0
   -0.9198   -2.0631    2.0361 O   0  0  0  0  0  0  0  0  0  0  0  0
    5.3195    1.4270    0.1467 H   0  0  0  0  0  0  0  0  0  0  0  0
    6.6808    0.3618   -0.2242 H   0  0  0  0  0  0  0  0  0  0  0  0
    5.2828    0.3534   -1.3064 H   0  0  0  0  0  0  0  0  0  0  0  0
    3.9104   -2.3882    1.9037 H   0  0  0  0  0  0  0  0  0  0  0  0
    1.4851   -2.7130    2.2353 H   0  0  0  0  0  0  0  0  0  0  0  0
    3.1164    1.0127   -0.6149 H   0  0  0  0  0  0  0  0  0  0  0  0
    0.2409    1.7906    0.2163 H   0  0  0  0  0  0  0  0  0  0  0  0
    0.8468    1.3715   -1.3932 H   0  0  0  0  0  0  0  0  0  0  0  0
   -0.7279   -0.4850   -1.6070 H   0  0  0  0  0  0  0  0  0  0  0  0
   -1.5687    1.0172   -1.2306 H   0  0  0  0  0  0  0  0  0  0  0  0
   -3.0304   -0.9046    1.7380 H   0  0  0  0  0  0  0  0  0  0  0  0
   -3.6435   -0.1496   -2.0040 H   0  0  0  0  0  0  0  0  0  0  0  0
   -5.8967    1.3622   -2.2022 H   0  0  0  0  0  0  0  0  0  0  0  0
   -6.4834    2.0480    0.4105 H   0  0  0  0  0  0  0  0  0  0  0  0
  1  2  1  0
  2  3  1  0
  3  4  2  0
  4  5  1  0
  5  6  2  0
  6  7  1  0
  7  8  2  0
  7  9  1  0
  9 10  1  0
 10 11  1  0
 11 12  2  3
 12 13  1  0
 13 14  2  0
 14 15  1  0
 15 16  2  0
 16 17  1  0
 11 18  1  0
 18 19  2  0
  8  3  1  0
 17 13  1  0
 18  6  1  0
  1 20  1  0
  1 21  1  0
  1 22  1  0
  4 23  1  0
  5 24  1  0
  8 25  1  0
  9 26  1  0
  9 27  1  0
 10 28  1  0
 10 29  1  0
 12 30  1  0
 14 31  1  0
 15 32  1  0
 16 33  1  0
M  END
$$$$
