
     RDKit          3D

 47 48  0  0  0  0  0  0  0  0999 V2000
    3.5291    0.2095    3.9812 C   0  0  0  0  0  0  0  0  0  0  0  0
    2.4216    1.2419    3.8888 C   0  0  0  0  0  0  0  0  0  0  0  0
    1.8841    1.2696    2.5573 O   0  0  0  0  0  0  0  0  0  0  0  0
    2.5192    2.0844    1.6724 C   0  0  0  0  0  0  0  0  0  0  0  0
    3.4878    2.7820    1.9357 O   0  0  0  0  0  0  0  0  0  0  0  0
    1.8732    2.0509    0.3302 C   0  0  0  0  0  0  0  0  0  0  0  0
    2.1387    3.1730   -0.5000 C   0  0  0  0  0  0  0  0  0  0  0  0
    2.3376    4.0813   -1.1958 N   0  0  0  0  0  0  0  0  0  0  0  0
    1.0955    1.0056   -0.0226 C   0  0  0  0  0  0  0  0  0  0  0  0
    0.3502    0.7163   -1.2591 C   0  0  0  0  0  0  0  0  0  0  0  0
   -0.6794   -0.1782   -1.2601 C   0  0  0  0  0  0  0  0  0  0  0  0
   -1.1202   -0.7601   -0.0479 N   0  0  0  0  0  0  0  0  0  0  0  0
   -1.3082   -2.2158    0.1216 C   0  0  0  0  0  0  0  0  0  0  0  0
   -1.1721   -2.5931    1.6059 C   0  0  0  0  0  0  0  0  0  0  0  0
   -2.1001   -1.8639    2.4247 O   0  0  0  0  0  0  0  0  0  0  0  0
   -1.8712   -0.4516    2.2934 C   0  0  0  0  0  0  0  0  0  0  0  0
   -2.0337    0.0101    0.8382 C   0  0  0  0  0  0  0  0  0  0  0  0
   -1.4442   -0.5063   -2.5836 C   0  0  0  0  0  0  0  0  0  0  0  0
   -2.9604   -0.3123   -2.4232 C   0  0  0  0  0  0  0  0  0  0  0  0
   -1.1709   -1.9313   -3.0951 C   0  0  0  0  0  0  0  0  0  0  0  0
   -1.1000    0.4097   -3.6488 O   0  0  0  0  0  0  0  0  0  0  0  0
    0.2964    0.6311   -3.7734 C   0  0  0  0  0  0  0  0  0  0  0  0
    0.7939    1.3724   -2.5457 C   0  0  0  0  0  0  0  0  0  0  0  0
    3.1644   -0.7742    3.6676 H   0  0  0  0  0  0  0  0  0  0  0  0
    3.9068    0.1362    5.0049 H   0  0  0  0  0  0  0  0  0  0  0  0
    4.3616    0.4663    3.3187 H   0  0  0  0  0  0  0  0  0  0  0  0
    1.6011    0.9629    4.5581 H   0  0  0  0  0  0  0  0  0  0  0  0
    2.7686    2.2336    4.2004 H   0  0  0  0  0  0  0  0  0  0  0  0
    0.9695    0.2135    0.7174 H   0  0  0  0  0  0  0  0  0  0  0  0
   -0.5536   -2.7681   -0.4482 H   0  0  0  0  0  0  0  0  0  0  0  0
   -2.3041   -2.4995   -0.2356 H   0  0  0  0  0  0  0  0  0  0  0  0
   -0.1543   -2.4031    1.9677 H   0  0  0  0  0  0  0  0  0  0  0  0
   -1.3802   -3.6594    1.7381 H   0  0  0  0  0  0  0  0  0  0  0  0
   -2.5982    0.0624    2.9299 H   0  0  0  0  0  0  0  0  0  0  0  0
   -0.8695   -0.2171    2.6727 H   0  0  0  0  0  0  0  0  0  0  0  0
   -1.8307    1.0848    0.7733 H   0  0  0  0  0  0  0  0  0  0  0  0
   -3.0672   -0.1598    0.5152 H   0  0  0  0  0  0  0  0  0  0  0  0
   -3.4699   -0.4218   -3.3884 H   0  0  0  0  0  0  0  0  0  0  0  0
   -3.1885    0.7004   -2.0698 H   0  0  0  0  0  0  0  0  0  0  0  0
   -3.4063   -1.0299   -1.7289 H   0  0  0  0  0  0  0  0  0  0  0  0
   -1.7176   -2.6900   -2.5284 H   0  0  0  0  0  0  0  0  0  0  0  0
   -0.1054   -2.1805   -3.0425 H   0  0  0  0  0  0  0  0  0  0  0  0
   -1.4656   -2.0292   -4.1467 H   0  0  0  0  0  0  0  0  0  0  0  0
    0.8318   -0.3120   -3.9279 H   0  0  0  0  0  0  0  0  0  0  0  0
    0.4616    1.2432   -4.6662 H   0  0  0  0  0  0  0  0  0  0  0  0
    1.8865    1.4233   -2.6095 H   0  0  0  0  0  0  0  0  0  0  0  0
    0.3922    2.3927   -2.5662 H   0  0  0  0  0  0  0  0  0  0  0  0
  1  2  1  0
  2  3  1  0
  3  4  1  0
  4  5  2  0
  4  6  1  0
  6  7  1  0
  7  8  3  0
  6  9  2  3
  9 10  1  0
 10 11  2  0
 11 12  1  0
 12 13  1  0
 13 14  1  0
 14 15  1  0
 15 16  1  0
 16 17  1  0
 11 18  1  0
 18 19  1  0
 18 20  1  0
 18 21  1  0
 21 22  1  0
 22 23  1  0
 23 10  1  0
 17 12  1  0
  1 24  1  0
  1 25  1  0
  1 26  1  0
  2 27  1  0
  2 28  1  0
  9 29  1  0
 13 30  1  0
 13 31  1  0
 14 32  1  0
 14 33  1  0
 16 34  1  0
 16 35  1  0
 17 36  1  0
 17 37  1  0
 19 38  1  0
 19 39  1  0
 19 40  1  0
 20 41  1  0
 20 42  1  0
 20 43  1  0
 22 44  1  0
 22 45  1  0
 23 46  1  0
 23 47  1  0
M  END
$$$$
