
     RDKit          3D

 65 70  0  0  0  0  0  0  0  0999 V2000
   -6.0637   -4.4131    0.0842 C   0  0  0  0  0  0  0  0  0  0  0  0
   -4.6554   -4.4800    0.2705 O   0  0  0  0  0  0  0  0  0  0  0  0
   -3.9331   -3.3766   -0.0932 C   0  0  0  0  0  0  0  0  0  0  0  0
   -2.5506   -3.5014    0.0760 C   0  0  0  0  0  0  0  0  0  0  0  0
   -1.6848   -2.4578   -0.2682 C   0  0  0  0  0  0  0  0  0  0  0  0
   -2.1977   -1.2587   -0.7661 C   0  0  0  0  0  0  0  0  0  0  0  0
   -3.5848   -1.1419   -0.9140 C   0  0  0  0  0  0  0  0  0  0  0  0
   -4.4516   -2.1886   -0.6029 C   0  0  0  0  0  0  0  0  0  0  0  0
   -4.1243    0.0122   -1.4249 O   0  0  0  0  0  0  0  0  0  0  0  0
   -3.5528    1.1570   -0.7835 C   0  0  0  0  0  0  0  0  0  0  0  0
   -2.0256    1.2216   -0.8759 C   0  0  0  0  0  0  0  0  0  0  0  0
   -1.3654   -0.1008   -1.2619 C   0  0  0  0  0  0  0  0  0  0  0  0
   -0.0125   -0.0180   -0.7041 N   0  0  0  0  0  0  0  0  0  0  0  0
    1.0118   -0.7074   -1.3183 C   0  0  0  0  0  0  0  0  0  0  0  0
    0.8197   -1.3532   -2.3492 O   0  0  0  0  0  0  0  0  0  0  0  0
    2.3818   -0.7281   -0.7429 C   0  0  0  0  0  0  0  0  0  0  0  0
    3.4116   -1.0475   -1.6550 C   0  0  0  0  0  0  0  0  0  0  0  0
    4.7273   -1.2531   -1.2340 C   0  0  0  0  0  0  0  0  0  0  0  0
    5.7722   -1.5603   -2.0676 O   0  0  0  0  0  0  0  0  0  0  0  0
    5.4834   -1.7657   -3.4439 C   0  0  0  0  0  0  0  0  0  0  0  0
    5.0308   -1.1564    0.1316 C   0  0  0  0  0  0  0  0  0  0  0  0
    6.3397   -1.3793    0.4765 O   0  0  0  0  0  0  0  0  0  0  0  0
    6.6819   -1.3557    1.8545 C   0  0  0  0  0  0  0  0  0  0  0  0
    4.0133   -0.8409    1.0387 C   0  0  0  0  0  0  0  0  0  0  0  0
    2.6920   -0.5971    0.6139 C   0  0  0  0  0  0  0  0  0  0  0  0
    1.8042   -0.2475    1.6410 N   0  0  0  0  0  0  0  0  0  0  0  0
    0.6262    0.4379    1.6115 C   0  0  0  0  0  0  0  0  0  0  0  0
    0.0844    0.6355    2.7030 O   0  0  0  0  0  0  0  0  0  0  0  0
    0.1133    1.0584    0.2985 C   0  0  0  0  0  0  0  0  0  0  0  0
    1.0390    2.1900   -0.1834 C   0  0  0  0  0  0  0  0  0  0  0  0
   -1.3684    1.5525    0.4851 C   0  0  0  0  0  0  0  0  0  0  0  0
   -1.5884    2.9771    0.9758 C   0  0  0  0  0  0  0  0  0  0  0  0
   -1.6320    4.0882    0.1187 C   0  0  0  0  0  0  0  0  0  0  0  0
   -1.8391    5.3762    0.6211 C   0  0  0  0  0  0  0  0  0  0  0  0
   -2.0059    5.5768    1.9878 C   0  0  0  0  0  0  0  0  0  0  0  0
   -1.9650    4.4894    2.8539 C   0  0  0  0  0  0  0  0  0  0  0  0
   -1.7585    3.2027    2.3519 C   0  0  0  0  0  0  0  0  0  0  0  0
   -6.3167   -4.2769   -0.9726 H   0  0  0  0  0  0  0  0  0  0  0  0
   -6.4892   -5.3680    0.4075 H   0  0  0  0  0  0  0  0  0  0  0  0
   -6.5064   -3.6251    0.7023 H   0  0  0  0  0  0  0  0  0  0  0  0
   -2.1400   -4.4317    0.4620 H   0  0  0  0  0  0  0  0  0  0  0  0
   -0.6153   -2.6114   -0.1608 H   0  0  0  0  0  0  0  0  0  0  0  0
   -5.5133   -2.0412   -0.7612 H   0  0  0  0  0  0  0  0  0  0  0  0
   -3.9787    2.0419   -1.2708 H   0  0  0  0  0  0  0  0  0  0  0  0
   -3.9134    1.1876    0.2533 H   0  0  0  0  0  0  0  0  0  0  0  0
   -1.7404    1.9629   -1.6322 H   0  0  0  0  0  0  0  0  0  0  0  0
   -1.3058   -0.1820   -2.3552 H   0  0  0  0  0  0  0  0  0  0  0  0
    3.1504   -1.1515   -2.7053 H   0  0  0  0  0  0  0  0  0  0  0  0
    4.7806   -2.5939   -3.5820 H   0  0  0  0  0  0  0  0  0  0  0  0
    5.1115   -0.8471   -3.9091 H   0  0  0  0  0  0  0  0  0  0  0  0
    6.4180   -2.0365   -3.9446 H   0  0  0  0  0  0  0  0  0  0  0  0
    7.7482   -1.5863    1.9385 H   0  0  0  0  0  0  0  0  0  0  0  0
    6.5224   -0.3607    2.2825 H   0  0  0  0  0  0  0  0  0  0  0  0
    6.1313   -2.1201    2.4124 H   0  0  0  0  0  0  0  0  0  0  0  0
    4.2433   -0.7502    2.0960 H   0  0  0  0  0  0  0  0  0  0  0  0
    2.0964   -0.4194    2.5972 H   0  0  0  0  0  0  0  0  0  0  0  0
    0.6734    2.6319   -1.1166 H   0  0  0  0  0  0  0  0  0  0  0  0
    1.1252    2.9799    0.5707 H   0  0  0  0  0  0  0  0  0  0  0  0
    2.0616    1.8616   -0.3811 H   0  0  0  0  0  0  0  0  0  0  0  0
   -1.8577    0.8937    1.2201 H   0  0  0  0  0  0  0  0  0  0  0  0
   -1.4960    3.9836   -0.9541 H   0  0  0  0  0  0  0  0  0  0  0  0
   -1.8681    6.2251   -0.0577 H   0  0  0  0  0  0  0  0  0  0  0  0
   -2.1666    6.5783    2.3776 H   0  0  0  0  0  0  0  0  0  0  0  0
   -2.0938    4.6384    3.9229 H   0  0  0  0  0  0  0  0  0  0  0  0
   -1.7338    2.3709    3.0552 H   0  0  0  0  0  0  0  0  0  0  0  0
  1  2  1  0
  2  3  1  0
  3  4  2  0
  4  5  1  0
  5  6  2  0
  6  7  1  0
  7  8  2  0
  7  9  1  0
  9 10  1  0
 10 11  1  0
 11 12  1  0
 12 13  1  0
 13 14  1  0
 14 15  2  0
 14 16  1  0
 16 17  2  0
 17 18  1  0
 18 19  1  0
 19 20  1  0
 18 21  2  0
 21 22  1  0
 22 23  1  0
 21 24  1  0
 24 25  2  0
 25 26  1  0
 26 27  1  0
 27 28  2  0
 27 29  1  0
 29 30  1  0
 29 31  1  0
 31 32  1  0
 32 33  2  0
 33 34  1  0
 34 35  2  0
 35 36  1  0
 36 37  2  0
  8  3  1  0
 31 11  1  0
 37 32  1  0
 12  6  1  0
 29 13  1  0
 25 16  1  0
  1 38  1  0
  1 39  1  0
  1 40  1  0
  4 41  1  0
  5 42  1  0
  8 43  1  0
 10 44  1  0
 10 45  1  0
 11 46  1  0
 12 47  1  0
 17 48  1  0
 20 49  1  0
 20 50  1  0
 20 51  1  0
 23 52  1  0
 23 53  1  0
 23 54  1  0
 24 55  1  0
 26 56  1  0
 30 57  1  0
 30 58  1  0
 30 59  1  0
 31 60  1  0
 33 61  1  0
 34 62  1  0
 35 63  1  0
 36 64  1  0
 37 65  1  0
M  END
$$$$
