
     RDKit          3D

 32 34  0  0  0  0  0  0  0  0999 V2000
   -3.7947    1.5657   -2.3575 C   0  0  0  0  0  0  0  0  0  0  0  0
   -2.7450    0.6365   -1.7724 C   0  0  0  0  0  0  0  0  0  0  0  0
   -3.1483   -0.7029   -2.0471 O   0  0  0  0  0  0  0  0  0  0  0  0
   -2.3085   -1.7109   -1.5817 C   0  0  0  0  0  0  0  0  0  0  0  0
   -2.7746   -3.0007   -1.8851 C   0  0  0  0  0  0  0  0  0  0  0  0
   -2.0655   -4.1321   -1.4989 C   0  0  0  0  0  0  0  0  0  0  0  0
   -0.8670   -4.0107   -0.7969 C   0  0  0  0  0  0  0  0  0  0  0  0
   -0.3987   -2.7211   -0.4928 C   0  0  0  0  0  0  0  0  0  0  0  0
    1.0346   -2.2819    0.3537 S   0  0  0  0  0  0  0  0  0  0  0  0
    0.6500   -0.6418    0.1680 C   0  0  0  0  0  0  0  0  0  0  0  0
    1.4313    0.3756    0.6469 N   0  0  0  0  0  0  0  0  0  0  0  0
    2.6197    0.2813    1.3353 C   0  0  0  0  0  0  0  0  0  0  0  0
    3.1790   -0.7681    1.6365 O   0  0  0  0  0  0  0  0  0  0  0  0
    3.2070    1.5713    1.7052 C   0  0  0  0  0  0  0  0  0  0  0  0
    4.3924    1.7699    2.3963 C   0  0  0  0  0  0  0  0  0  0  0  0
    4.6898    3.1503    2.5997 C   0  0  0  0  0  0  0  0  0  0  0  0
    3.7174    3.9473    2.0548 C   0  0  0  0  0  0  0  0  0  0  0  0
    3.7582    5.8565    2.1217 Br  0  0  0  0  0  0  0  0  0  0  0  0
    2.4713    3.0745    1.3136 S   0  0  0  0  0  0  0  0  0  0  0  0
   -0.4613   -0.3795   -0.4732 N   0  0  0  0  0  0  0  0  0  0  0  0
   -1.0882   -1.5613   -0.8668 C   0  0  0  0  0  0  0  0  0  0  0  0
   -3.5351    2.6120   -2.1734 H   0  0  0  0  0  0  0  0  0  0  0  0
   -3.8894    1.4093   -3.4372 H   0  0  0  0  0  0  0  0  0  0  0  0
   -4.7772    1.3625   -1.9186 H   0  0  0  0  0  0  0  0  0  0  0  0
   -2.6915    0.8055   -0.6914 H   0  0  0  0  0  0  0  0  0  0  0  0
   -1.7826    0.8510   -2.2497 H   0  0  0  0  0  0  0  0  0  0  0  0
   -3.7084   -3.1130   -2.4324 H   0  0  0  0  0  0  0  0  0  0  0  0
   -2.4485   -5.1199   -1.7462 H   0  0  0  0  0  0  0  0  0  0  0  0
   -0.3099   -4.8925   -0.4933 H   0  0  0  0  0  0  0  0  0  0  0  0
    1.0605    1.2948    0.4519 H   0  0  0  0  0  0  0  0  0  0  0  0
    5.0164    0.9509    2.7390 H   0  0  0  0  0  0  0  0  0  0  0  0
    5.5669    3.5212    3.1160 H   0  0  0  0  0  0  0  0  0  0  0  0
  1  2  1  0
  2  3  1  0
  3  4  1  0
  4  5  2  0
  5  6  1  0
  6  7  2  0
  7  8  1  0
  8  9  1  0
  9 10  1  0
 10 11  1  0
 11 12  1  0
 12 13  2  0
 12 14  1  0
 14 15  2  0
 15 16  1  0
 16 17  2  0
 17 18  1  0
 17 19  1  0
 10 20  2  0
 20 21  1  0
 21  4  1  0
 21  8  2  0
 19 14  1  0
  1 22  1  0
  1 23  1  0
  1 24  1  0
  2 25  1  0
  2 26  1  0
  5 27  1  0
  6 28  1  0
  7 29  1  0
 11 30  1  0
 15 31  1  0
 16 32  1  0
M  END
$$$$
