
     RDKit          3D

 43 45  0  0  0  0  0  0  0  0999 V2000
    4.4997    5.1094    0.7079 C   0  0  0  0  0  0  0  0  0  0  0  0
    4.6738    3.7508    1.0838 O   0  0  0  0  0  0  0  0  0  0  0  0
    3.6365    2.8825    0.8584 C   0  0  0  0  0  0  0  0  0  0  0  0
    2.4244    3.2359    0.2607 C   0  0  0  0  0  0  0  0  0  0  0  0
    1.4216    2.2791    0.0711 C   0  0  0  0  0  0  0  0  0  0  0  0
    1.6104    0.9566    0.4850 C   0  0  0  0  0  0  0  0  0  0  0  0
    0.5949   -0.0891    0.2797 C   0  0  0  0  0  0  0  0  0  0  0  0
   -0.7284    0.1240    0.3656 C   0  0  0  0  0  0  0  0  0  0  0  0
   -1.7063   -0.9552    0.1837 C   0  0  0  0  0  0  0  0  0  0  0  0
   -1.7706   -1.9577    1.1537 C   0  0  0  0  0  0  0  0  0  0  0  0
   -2.7030   -2.9731    1.0441 C   0  0  0  0  0  0  0  0  0  0  0  0
   -3.5817   -2.9789   -0.0323 C   0  0  0  0  0  0  0  0  0  0  0  0
   -4.5398   -3.9972   -0.1464 C   0  0  0  0  0  0  0  0  0  0  0  0
   -5.4331   -4.0148   -1.2144 C   0  0  0  0  0  0  0  0  0  0  0  0
   -5.3802   -3.0156   -2.1774 C   0  0  0  0  0  0  0  0  0  0  0  0
   -4.4299   -1.9944   -2.0778 C   0  0  0  0  0  0  0  0  0  0  0  0
   -3.5084   -1.9513   -1.0116 C   0  0  0  0  0  0  0  0  0  0  0  0
   -2.5571   -0.9665   -0.8828 N   0  0  0  0  0  4  0  0  0  0  0  0
   -2.4479    0.0722   -1.9355 C   0  0  0  0  0  0  0  0  0  0  0  0
    2.8344    0.5992    1.0699 C   0  0  0  0  0  0  0  0  0  0  0  0
    3.8450    1.5503    1.2647 C   0  0  0  0  0  0  0  0  0  0  0  0
    5.0635    1.2822    1.8366 O   0  0  0  0  0  0  0  0  0  0  0  0
    5.3249   -0.0442    2.2699 C   0  0  0  0  0  0  0  0  0  0  0  0
    4.3581    5.2040   -0.3737 H   0  0  0  0  0  0  0  0  0  0  0  0
    3.6713    5.5683    1.2575 H   0  0  0  0  0  0  0  0  0  0  0  0
    5.4139    5.6498    0.9720 H   0  0  0  0  0  0  0  0  0  0  0  0
    2.2321    4.2500   -0.0746 H   0  0  0  0  0  0  0  0  0  0  0  0
    0.5022    2.5935   -0.4145 H   0  0  0  0  0  0  0  0  0  0  0  0
    0.9925   -1.0826    0.0731 H   0  0  0  0  0  0  0  0  0  0  0  0
   -1.1380    1.1031    0.6014 H   0  0  0  0  0  0  0  0  0  0  0  0
   -1.0966   -1.9452    2.0098 H   0  0  0  0  0  0  0  0  0  0  0  0
   -2.7422   -3.7482    1.8093 H   0  0  0  0  0  0  0  0  0  0  0  0
   -4.6047   -4.7915    0.5976 H   0  0  0  0  0  0  0  0  0  0  0  0
   -6.1736   -4.8100   -1.2924 H   0  0  0  0  0  0  0  0  0  0  0  0
   -6.0837   -3.0317   -3.0092 H   0  0  0  0  0  0  0  0  0  0  0  0
   -4.4479   -1.2425   -2.8613 H   0  0  0  0  0  0  0  0  0  0  0  0
   -1.5938    0.7315   -1.7864 H   0  0  0  0  0  0  0  0  0  0  0  0
   -2.3143   -0.4311   -2.8974 H   0  0  0  0  0  0  0  0  0  0  0  0
   -3.3656    0.6664   -1.9138 H   0  0  0  0  0  0  0  0  0  0  0  0
    2.9855   -0.4301    1.3792 H   0  0  0  0  0  0  0  0  0  0  0  0
    6.3320   -0.0650    2.6972 H   0  0  0  0  0  0  0  0  0  0  0  0
    5.3059   -0.7448    1.4287 H   0  0  0  0  0  0  0  0  0  0  0  0
    4.6242   -0.3483    3.0544 H   0  0  0  0  0  0  0  0  0  0  0  0
  1  2  1  0
  2  3  1  0
  3  4  2  0
  4  5  1  0
  5  6  2  0
  6  7  1  0
  7  8  2  3
  8  9  1  0
  9 10  2  0
 10 11  1  0
 11 12  2  0
 12 13  1  0
 13 14  2  0
 14 15  1  0
 15 16  2  0
 16 17  1  0
 17 18  2  0
 18 19  1  0
  6 20  1  0
 20 21  2  0
 21 22  1  0
 22 23  1  0
 21  3  1  0
 18  9  1  0
 17 12  1  0
  1 24  1  0
  1 25  1  0
  1 26  1  0
  4 27  1  0
  5 28  1  0
  7 29  1  0
  8 30  1  0
 10 31  1  0
 11 32  1  0
 13 33  1  0
 14 34  1  0
 15 35  1  0
 16 36  1  0
 19 37  1  0
 19 38  1  0
 19 39  1  0
 20 40  1  0
 23 41  1  0
 23 42  1  0
 23 43  1  0
M  CHG  1  18   1
M  END
$$$$
