
     RDKit          3D

 45 47  0  0  0  0  0  0  0  0999 V2000
   -6.4346   -0.1183    2.8872 C   0  0  0  0  0  0  0  0  0  0  0  0
   -5.7057    0.4140    1.6665 C   0  0  0  0  0  0  0  0  0  0  0  0
   -4.5651   -0.4089    1.4428 O   0  0  0  0  0  0  0  0  0  0  0  0
   -3.7570   -0.1096    0.3748 C   0  0  0  0  0  0  0  0  0  0  0  0
   -3.9682    0.9558   -0.5053 C   0  0  0  0  0  0  0  0  0  0  0  0
   -3.0862    1.1828   -1.5665 C   0  0  0  0  0  0  0  0  0  0  0  0
   -1.9819    0.3497   -1.7613 C   0  0  0  0  0  0  0  0  0  0  0  0
   -1.1054    0.5843   -2.9138 C   0  0  0  0  0  0  0  0  0  0  0  0
    0.2153    0.8167   -2.8884 C   0  0  0  0  0  0  0  0  0  0  0  0
    1.1326    1.0592   -4.3437 S   0  0  0  0  0  0  0  0  0  0  0  0
    2.6585    1.2394   -3.4848 C   0  0  0  0  0  0  0  0  0  0  0  0
    4.1103    1.5495   -4.2451 S   0  0  0  0  0  0  0  0  0  0  0  0
    2.4138    1.1201   -2.1342 N   0  0  0  0  0  0  0  0  0  0  0  0
    3.4457    1.1439   -1.1739 N   0  0  0  0  0  0  0  0  0  0  0  0
    3.9617   -0.0911   -0.8145 C   0  0  0  0  0  0  0  0  0  0  0  0
    3.7030   -1.1332   -1.4088 O   0  0  0  0  0  0  0  0  0  0  0  0
    4.8374   -0.1093    0.3856 C   0  0  0  0  0  0  0  0  0  0  0  0
    5.5690    1.0105    0.7839 C   0  0  0  0  0  0  0  0  0  0  0  0
    6.3615    0.8943    1.9122 C   0  0  0  0  0  0  0  0  0  0  0  0
    6.4649   -0.2359    2.6424 N   0  0  0  0  0  0  0  0  0  0  0  0
    5.7603   -1.3085    2.2231 C   0  0  0  0  0  0  0  0  0  0  0  0
    4.9429   -1.2975    1.1091 C   0  0  0  0  0  0  0  0  0  0  0  0
    1.1127    0.9266   -1.6998 C   0  0  0  0  0  0  0  0  0  0  0  0
    0.7629    0.8984   -0.5280 O   0  0  0  0  0  0  0  0  0  0  0  0
   -1.7770   -0.7285   -0.8924 C   0  0  0  0  0  0  0  0  0  0  0  0
   -2.6436   -0.9507    0.1856 C   0  0  0  0  0  0  0  0  0  0  0  0
   -2.4989   -1.9845    1.0795 O   0  0  0  0  0  0  0  0  0  0  0  0
   -1.1947   -2.5373    1.2040 C   0  0  0  0  0  0  0  0  0  0  0  0
   -6.7399   -1.1584    2.7309 H   0  0  0  0  0  0  0  0  0  0  0  0
   -5.7781   -0.1072    3.7636 H   0  0  0  0  0  0  0  0  0  0  0  0
   -7.3229    0.4819    3.1035 H   0  0  0  0  0  0  0  0  0  0  0  0
   -5.3975    1.4483    1.8579 H   0  0  0  0  0  0  0  0  0  0  0  0
   -6.3797    0.3744    0.8031 H   0  0  0  0  0  0  0  0  0  0  0  0
   -4.8104    1.6301   -0.3945 H   0  0  0  0  0  0  0  0  0  0  0  0
   -3.2743    2.0180   -2.2378 H   0  0  0  0  0  0  0  0  0  0  0  0
   -1.6283    0.5615   -3.8692 H   0  0  0  0  0  0  0  0  0  0  0  0
    3.3185    1.8391   -0.4444 H   0  0  0  0  0  0  0  0  0  0  0  0
    5.5593    1.9421    0.2310 H   0  0  0  0  0  0  0  0  0  0  0  0
    6.9590    1.7293    2.2685 H   0  0  0  0  0  0  0  0  0  0  0  0
    5.8760   -2.2052    2.8258 H   0  0  0  0  0  0  0  0  0  0  0  0
    4.4013   -2.1907    0.8145 H   0  0  0  0  0  0  0  0  0  0  0  0
   -0.9376   -1.3927   -1.0708 H   0  0  0  0  0  0  0  0  0  0  0  0
   -0.9571   -3.1690    0.3423 H   0  0  0  0  0  0  0  0  0  0  0  0
   -0.4367   -1.7590    1.3446 H   0  0  0  0  0  0  0  0  0  0  0  0
   -1.1860   -3.1743    2.0937 H   0  0  0  0  0  0  0  0  0  0  0  0
  1  2  1  0
  2  3  1  0
  3  4  1  0
  4  5  2  0
  5  6  1  0
  6  7  2  0
  7  8  1  0
  8  9  2  3
  9 10  1  0
 10 11  1  0
 11 12  2  0
 11 13  1  0
 13 14  1  0
 14 15  1  0
 15 16  2  0
 15 17  1  0
 17 18  2  0
 18 19  1  0
 19 20  2  0
 20 21  1  0
 21 22  2  0
 13 23  1  0
 23 24  2  0
  7 25  1  0
 25 26  2  0
 26 27  1  0
 27 28  1  0
 26  4  1  0
 23  9  1  0
 22 17  1  0
  1 29  1  0
  1 30  1  0
  1 31  1  0
  2 32  1  0
  2 33  1  0
  5 34  1  0
  6 35  1  0
  8 36  1  0
 14 37  1  0
 18 38  1  0
 19 39  1  0
 21 40  1  0
 22 41  1  0
 25 42  1  0
 28 43  1  0
 28 44  1  0
 28 45  1  0
M  END
$$$$
