
     RDKit          3D

 46 48  0  0  0  0  0  0  0  0999 V2000
   -3.3629    3.5959    1.0017 C   0  0  0  0  0  0  0  0  0  0  0  0
   -2.6329    2.8201    1.8156 C   0  0  0  0  0  0  0  0  0  0  0  0
   -1.7247    1.6762    1.4481 C   0  0  0  0  0  0  0  0  0  0  0  0
   -1.5996    1.4047    0.0271 N   0  0  0  0  0  0  0  0  0  0  0  0
   -0.7185    1.9784   -0.8509 C   0  0  0  0  0  0  0  0  0  0  0  0
    0.3539    3.2728   -0.4452 S   0  0  0  0  0  0  0  0  0  0  0  0
    1.7869    2.8626   -1.4879 C   0  0  0  0  0  0  0  0  0  0  0  0
    2.5940    1.7151   -0.9250 C   0  0  0  0  0  0  0  0  0  0  0  0
    2.4167    0.4119   -1.4130 C   0  0  0  0  0  0  0  0  0  0  0  0
    3.1436   -0.6549   -0.8775 C   0  0  0  0  0  0  0  0  0  0  0  0
    4.0614   -0.4332    0.1564 C   0  0  0  0  0  0  0  0  0  0  0  0
    4.8607   -1.5297    0.7671 C   0  0  0  0  0  0  0  0  0  0  0  0
    5.6687   -1.3534    1.6654 O   0  0  0  0  0  0  0  0  0  0  0  0
    4.5593   -2.7216    0.1947 O   0  0  0  0  0  0  0  0  0  0  0  0
    5.2965   -3.8222    0.7280 C   0  0  0  0  0  0  0  0  0  0  0  0
    4.2419    0.8670    0.6467 C   0  0  0  0  0  0  0  0  0  0  0  0
    3.5128    1.9321    0.1119 C   0  0  0  0  0  0  0  0  0  0  0  0
   -0.8104    1.3953   -2.0227 N   0  0  0  0  0  0  0  0  0  0  0  0
   -1.7480    0.4001   -1.9189 N   0  0  0  0  0  0  0  0  0  0  0  0
   -2.2328    0.4154   -0.6923 C   0  0  0  0  0  0  0  0  0  0  0  0
   -3.2214   -0.5047   -0.2253 C   0  0  0  0  0  0  0  0  0  0  0  0
   -4.7009    0.0127    0.4720 S   0  0  0  0  0  0  0  0  0  0  0  0
   -5.1712   -1.6185    0.6878 C   0  0  0  0  0  0  0  0  0  0  0  0
   -6.3449   -1.9419    1.2574 N   0  0  0  0  0  0  0  0  0  0  0  0
   -4.3218   -2.5111    0.2504 N   0  0  0  0  0  0  0  0  0  0  0  0
   -3.2086   -1.8889   -0.3024 C   0  0  0  0  0  0  0  0  0  0  0  0
   -2.1456   -2.7622   -0.8686 C   0  0  0  0  0  0  0  0  0  0  0  0
   -3.9769    4.3958    1.4069 H   0  0  0  0  0  0  0  0  0  0  0  0
   -3.3792    3.4716   -0.0765 H   0  0  0  0  0  0  0  0  0  0  0  0
   -2.6837    3.0268    2.8836 H   0  0  0  0  0  0  0  0  0  0  0  0
   -0.7196    1.8659    1.8417 H   0  0  0  0  0  0  0  0  0  0  0  0
   -2.0699    0.7618    1.9428 H   0  0  0  0  0  0  0  0  0  0  0  0
    1.4726    2.6562   -2.5172 H   0  0  0  0  0  0  0  0  0  0  0  0
    2.4266    3.7512   -1.5450 H   0  0  0  0  0  0  0  0  0  0  0  0
    1.7006    0.2174   -2.2116 H   0  0  0  0  0  0  0  0  0  0  0  0
    2.9800   -1.6518   -1.2785 H   0  0  0  0  0  0  0  0  0  0  0  0
    6.3704   -3.6736    0.5757 H   0  0  0  0  0  0  0  0  0  0  0  0
    4.9927   -4.7250    0.1909 H   0  0  0  0  0  0  0  0  0  0  0  0
    5.0695   -3.9571    1.7901 H   0  0  0  0  0  0  0  0  0  0  0  0
    4.9521    1.0560    1.4501 H   0  0  0  0  0  0  0  0  0  0  0  0
    3.6660    2.9335    0.5106 H   0  0  0  0  0  0  0  0  0  0  0  0
   -6.6505   -2.8912    1.0703 H   0  0  0  0  0  0  0  0  0  0  0  0
   -7.0899   -1.2598    1.1847 H   0  0  0  0  0  0  0  0  0  0  0  0
   -2.5927   -3.6070   -1.4022 H   0  0  0  0  0  0  0  0  0  0  0  0
   -1.5210   -3.1585   -0.0622 H   0  0  0  0  0  0  0  0  0  0  0  0
   -1.4992   -2.2302   -1.5710 H   0  0  0  0  0  0  0  0  0  0  0  0
  1  2  2  0
  2  3  1  0
  3  4  1  0
  4  5  1  0
  5  6  1  0
  6  7  1  0
  7  8  1  0
  8  9  2  0
  9 10  1  0
 10 11  2  0
 11 12  1  0
 12 13  2  0
 12 14  1  0
 14 15  1  0
 11 16  1  0
 16 17  2  0
  5 18  2  0
 18 19  1  0
 19 20  2  0
 20 21  1  0
 21 22  1  0
 22 23  1  0
 23 24  1  0
 23 25  2  0
 25 26  1  0
 26 27  1  0
 20  4  1  0
 26 21  2  0
 17  8  1  0
  1 28  1  0
  1 29  1  0
  2 30  1  0
  3 31  1  0
  3 32  1  0
  7 33  1  0
  7 34  1  0
  9 35  1  0
 10 36  1  0
 15 37  1  0
 15 38  1  0
 15 39  1  0
 16 40  1  0
 17 41  1  0
 24 42  1  0
 24 43  1  0
 27 44  1  0
 27 45  1  0
 27 46  1  0
M  END
$$$$
