
     RDKit          3D

 44 46  0  0  0  0  0  0  0  0999 V2000
   -3.2453    2.9480   -1.3290 C   0  0  0  0  0  0  0  0  0  0  0  0
   -4.0355    1.6560   -1.5513 C   0  0  0  0  0  0  0  0  0  0  0  0
   -4.4509    1.5153   -3.0177 C   0  0  0  0  0  0  0  0  0  0  0  0
   -3.2618    0.4397   -1.0705 C   0  0  0  0  0  0  0  0  0  0  0  0
   -2.0300    0.0802   -1.6421 C   0  0  0  0  0  0  0  0  0  0  0  0
   -1.3316   -1.0394   -1.1872 C   0  0  0  0  0  0  0  0  0  0  0  0
   -1.8576   -1.8000   -0.1414 C   0  0  0  0  0  0  0  0  0  0  0  0
   -0.9713   -3.2235    0.4494 S   0  0  0  0  0  6  0  0  0  0  0  0
   -1.9434   -4.1462    0.9985 O   0  0  0  0  0  0  0  0  0  0  0  0
   -0.0426   -3.6391   -0.5792 O   0  0  0  0  0  0  0  0  0  0  0  0
   -0.1108   -2.6147    1.7724 N   0  0  0  0  0  0  0  0  0  0  0  0
    0.7211   -1.4734    1.5980 C   0  0  0  0  0  0  0  0  0  0  0  0
    0.3720   -0.2837    2.2355 C   0  0  0  0  0  0  0  0  0  0  0  0
    1.1493    0.8569    2.0440 C   0  0  0  0  0  0  0  0  0  0  0  0
    2.2763    0.8031    1.2252 C   0  0  0  0  0  0  0  0  0  0  0  0
    2.9781    1.9709    1.1047 O   0  0  0  0  0  0  0  0  0  0  0  0
    2.6400   -0.3846    0.5744 C   0  0  0  0  0  0  0  0  0  0  0  0
    3.9994   -0.5162   -0.5774 S   0  0  0  0  0  0  0  0  0  0  0  0
    5.3786   -0.2038    0.4340 C   0  0  0  0  0  0  0  0  0  0  0  0
    5.5236    0.9674    1.1348 N   0  0  0  0  0  0  0  0  0  0  0  0
    6.6858    0.8108    1.7260 C   0  0  0  0  0  0  0  0  0  0  0  0
    7.2129   -0.3940    1.3812 N   0  0  0  0  0  0  0  0  0  0  0  0
    6.3986   -1.0574    0.5466 N   0  0  0  0  0  0  0  0  0  0  0  0
    1.8454   -1.5239    0.7706 C   0  0  0  0  0  0  0  0  0  0  0  0
   -3.0902   -1.4724    0.4272 C   0  0  0  0  0  0  0  0  0  0  0  0
   -3.7847   -0.3530   -0.0355 C   0  0  0  0  0  0  0  0  0  0  0  0
   -3.8498    3.8202   -1.6009 H   0  0  0  0  0  0  0  0  0  0  0  0
   -2.9572    3.0546   -0.2772 H   0  0  0  0  0  0  0  0  0  0  0  0
   -2.3301    2.9778   -1.9302 H   0  0  0  0  0  0  0  0  0  0  0  0
   -4.9582    1.7379   -0.9616 H   0  0  0  0  0  0  0  0  0  0  0  0
   -5.0266    0.5963   -3.1751 H   0  0  0  0  0  0  0  0  0  0  0  0
   -3.5852    1.4857   -3.6883 H   0  0  0  0  0  0  0  0  0  0  0  0
   -5.0782    2.3600   -3.3225 H   0  0  0  0  0  0  0  0  0  0  0  0
   -1.6029    0.6703   -2.4505 H   0  0  0  0  0  0  0  0  0  0  0  0
   -0.3812   -1.3030   -1.6465 H   0  0  0  0  0  0  0  0  0  0  0  0
   -0.6512   -2.6835    2.6330 H   0  0  0  0  0  0  0  0  0  0  0  0
   -0.5078   -0.2241    2.8694 H   0  0  0  0  0  0  0  0  0  0  0  0
    0.8803    1.7908    2.5307 H   0  0  0  0  0  0  0  0  0  0  0  0
    3.9078    1.7421    0.8914 H   0  0  0  0  0  0  0  0  0  0  0  0
    7.1795    1.5089    2.3873 H   0  0  0  0  0  0  0  0  0  0  0  0
    8.0921   -0.8157    1.6604 H   0  0  0  0  0  0  0  0  0  0  0  0
    2.1045   -2.4573    0.2740 H   0  0  0  0  0  0  0  0  0  0  0  0
   -3.5174   -2.0794    1.2219 H   0  0  0  0  0  0  0  0  0  0  0  0
   -4.7436   -0.1047    0.4156 H   0  0  0  0  0  0  0  0  0  0  0  0
  1  2  1  0
  2  3  1  0
  2  4  1  0
  4  5  2  0
  5  6  1  0
  6  7  2  0
  7  8  1  0
  8  9  2  0
  8 10  2  0
  8 11  1  0
 11 12  1  0
 12 13  2  0
 13 14  1  0
 14 15  2  0
 15 16  1  0
 15 17  1  0
 17 18  1  0
 18 19  1  0
 19 20  1  0
 20 21  2  0
 21 22  1  0
 22 23  1  0
 17 24  2  0
  7 25  1  0
 25 26  2  0
 26  4  1  0
 24 12  1  0
 23 19  2  0
  1 27  1  0
  1 28  1  0
  1 29  1  0
  2 30  1  0
  3 31  1  0
  3 32  1  0
  3 33  1  0
  5 34  1  0
  6 35  1  0
 11 36  1  0
 13 37  1  0
 14 38  1  0
 16 39  1  0
 21 40  1  0
 22 41  1  0
 24 42  1  0
 25 43  1  0
 26 44  1  0
M  END
$$$$
