
     RDKit          3D

 36 37  0  0  0  0  0  0  0  0999 V2000
    0.0468   -3.0631    1.2791 O   0  0  0  0  0  0  0  0  0  0  0  0
    0.1830   -1.9191    1.7026 C   0  0  0  0  0  0  0  0  0  0  0  0
    1.4789   -1.4393    2.3582 C   0  0  0  0  0  0  0  0  0  0  0  0
    2.2869   -0.6425    1.4888 O   0  0  0  0  0  0  0  0  0  0  0  0
    1.9001    0.6505    1.3642 C   0  0  0  0  0  0  0  0  0  0  0  0
    0.9460    1.1661    1.9223 O   0  0  0  0  0  0  0  0  0  0  0  0
    2.8064    1.3350    0.4157 C   0  0  0  0  0  0  0  0  0  0  0  0
    4.1919    1.1492    0.5588 C   0  0  0  0  0  0  0  0  0  0  0  0
    5.0832    1.7977   -0.2974 C   0  0  0  0  0  0  0  0  0  0  0  0
    4.5991    2.6353   -1.2991 C   0  0  0  0  0  0  0  0  0  0  0  0
    3.2243    2.8238   -1.4481 C   0  0  0  0  0  0  0  0  0  0  0  0
    2.3229    2.1763   -0.5940 C   0  0  0  0  0  0  0  0  0  0  0  0
    0.4741    2.4558   -0.9261 Br  0  0  0  0  0  0  0  0  0  0  0  0
   -0.8075   -0.9649    1.6302 N   0  0  0  0  0  0  0  0  0  0  0  0
   -2.0693   -1.2136    0.9577 C   0  0  0  0  0  0  0  0  0  0  0  0
   -1.9389   -1.2324   -0.5702 C   0  0  0  0  0  0  0  0  0  0  0  0
   -3.2311   -1.2297   -1.2348 N   0  0  0  0  0  0  0  0  0  0  0  0
   -3.9593   -0.0882   -1.4636 C   0  0  0  0  0  0  0  0  0  0  0  0
   -3.4419    1.1111   -1.0770 O   0  0  0  0  0  0  0  0  0  0  0  0
   -5.1415   -0.2909   -2.0560 C   0  0  0  0  0  0  0  0  0  0  0  0
   -5.4131   -1.9810   -2.3555 S   0  0  0  0  0  0  0  0  0  0  0  0
   -3.8519   -2.4066   -1.6217 C   0  0  0  0  0  0  0  0  0  0  0  0
   -3.4571   -3.5529   -1.5032 O   0  0  0  0  0  0  0  0  0  0  0  0
    1.2571   -0.9115    3.2938 H   0  0  0  0  0  0  0  0  0  0  0  0
    2.0654   -2.3234    2.6305 H   0  0  0  0  0  0  0  0  0  0  0  0
    4.5852    0.5021    1.3387 H   0  0  0  0  0  0  0  0  0  0  0  0
    6.1545    1.6492   -0.1839 H   0  0  0  0  0  0  0  0  0  0  0  0
    5.2915    3.1408   -1.9675 H   0  0  0  0  0  0  0  0  0  0  0  0
    2.8638    3.4768   -2.2404 H   0  0  0  0  0  0  0  0  0  0  0  0
   -0.5527    0.0022    1.8380 H   0  0  0  0  0  0  0  0  0  0  0  0
   -2.4734   -2.1691    1.3107 H   0  0  0  0  0  0  0  0  0  0  0  0
   -2.7553   -0.4235    1.2811 H   0  0  0  0  0  0  0  0  0  0  0  0
   -1.3570   -0.3729   -0.9225 H   0  0  0  0  0  0  0  0  0  0  0  0
   -1.3858   -2.1265   -0.8796 H   0  0  0  0  0  0  0  0  0  0  0  0
   -4.0609    1.8121   -1.3404 H   0  0  0  0  0  0  0  0  0  0  0  0
   -5.8642    0.4672   -2.3213 H   0  0  0  0  0  0  0  0  0  0  0  0
  1  2  2  0
  2  3  1  0
  3  4  1  0
  4  5  1  0
  5  6  2  0
  5  7  1  0
  7  8  2  0
  8  9  1  0
  9 10  2  0
 10 11  1  0
 11 12  2  0
 12 13  1  0
  2 14  1  0
 14 15  1  0
 15 16  1  0
 16 17  1  0
 17 18  1  0
 18 19  1  0
 18 20  2  0
 20 21  1  0
 21 22  1  0
 22 23  2  0
 12  7  1  0
 22 17  1  0
  3 24  1  0
  3 25  1  0
  8 26  1  0
  9 27  1  0
 10 28  1  0
 11 29  1  0
 14 30  1  0
 15 31  1  0
 15 32  1  0
 16 33  1  0
 16 34  1  0
 19 35  1  0
 20 36  1  0
M  END
$$$$
