
     RDKit          3D

 37 39  0  0  0  0  0  0  0  0999 V2000
    5.9213   -1.0989   -1.4289 C   0  0  0  0  0  0  0  0  0  0  0  0
    6.5337   -0.0810   -0.4741 C   0  0  0  0  0  0  0  0  0  0  0  0
    5.6658    1.1641   -0.2799 C   0  0  0  0  0  0  0  0  0  0  0  0
    4.4099    0.8734    0.4773 C   0  0  0  0  0  0  0  0  0  0  0  0
    4.3673    0.4362    1.7189 N   0  0  0  0  0  0  0  0  0  0  0  0
    3.0706    0.2311    2.1538 N   0  0  0  0  0  0  0  0  0  0  0  0
    2.1936    0.5426    1.2339 C   0  0  0  0  0  0  0  0  0  0  0  0
    0.8312    0.4840    1.2502 N   0  0  0  0  0  0  0  0  0  0  0  0
    0.1212   -0.0022    2.3224 C   0  0  0  0  0  0  0  0  0  0  0  0
    0.5814   -0.4146    3.3834 O   0  0  0  0  0  0  0  0  0  0  0  0
   -1.3924    0.0280    2.0940 C   0  0  0  0  0  0  0  0  0  0  0  0
   -1.6967    0.3339    0.7307 O   0  0  0  0  0  0  0  0  0  0  0  0
   -2.9934    0.0991    0.3562 C   0  0  0  0  0  0  0  0  0  0  0  0
   -3.1773   -0.2185   -1.0060 C   0  0  0  0  0  0  0  0  0  0  0  0
   -4.4533   -0.4742   -1.5172 C   0  0  0  0  0  0  0  0  0  0  0  0
   -5.5164   -0.3946   -0.6473 C   0  0  0  0  0  0  0  0  0  0  0  0
   -5.3408   -0.0721    0.6783 C   0  0  0  0  0  0  0  0  0  0  0  0
   -4.0944    0.1854    1.2133 C   0  0  0  0  0  0  0  0  0  0  0  0
   -6.5157   -0.0444    1.3642 O   0  0  0  0  0  0  0  0  0  0  0  0
   -7.4495   -0.3847    0.3180 C   0  0  0  0  0  0  0  0  0  0  0  0
   -6.8217   -0.5997   -0.9628 O   0  0  0  0  0  0  0  0  0  0  0  0
    2.8599    1.1055   -0.2324 S   0  0  0  0  0  0  0  0  0  0  0  0
    5.7306   -0.6540   -2.4149 H   0  0  0  0  0  0  0  0  0  0  0  0
    4.9787   -1.4966   -1.0407 H   0  0  0  0  0  0  0  0  0  0  0  0
    6.6051   -1.9438   -1.5652 H   0  0  0  0  0  0  0  0  0  0  0  0
    7.5049    0.2306   -0.8755 H   0  0  0  0  0  0  0  0  0  0  0  0
    6.7301   -0.5660    0.4902 H   0  0  0  0  0  0  0  0  0  0  0  0
    5.4504    1.6216   -1.2543 H   0  0  0  0  0  0  0  0  0  0  0  0
    6.2380    1.9059    0.2912 H   0  0  0  0  0  0  0  0  0  0  0  0
    0.3264    0.7695    0.4213 H   0  0  0  0  0  0  0  0  0  0  0  0
   -1.8020    0.7994    2.7539 H   0  0  0  0  0  0  0  0  0  0  0  0
   -1.7805   -0.9624    2.3621 H   0  0  0  0  0  0  0  0  0  0  0  0
   -2.3167   -0.2738   -1.6693 H   0  0  0  0  0  0  0  0  0  0  0  0
   -4.6009   -0.7165   -2.5627 H   0  0  0  0  0  0  0  0  0  0  0  0
   -4.0101    0.4594    2.2574 H   0  0  0  0  0  0  0  0  0  0  0  0
   -7.9802   -1.3006    0.6072 H   0  0  0  0  0  0  0  0  0  0  0  0
   -8.1779    0.4289    0.2196 H   0  0  0  0  0  0  0  0  0  0  0  0
  1  2  1  0
  2  3  1  0
  3  4  1  0
  4  5  2  0
  5  6  1  0
  6  7  2  0
  7  8  1  0
  8  9  1  0
  9 10  2  0
  9 11  1  0
 11 12  1  0
 12 13  1  0
 13 14  2  0
 14 15  1  0
 15 16  2  0
 16 17  1  0
 17 18  2  0
 17 19  1  0
 19 20  1  0
 20 21  1  0
  7 22  1  0
 22  4  1  0
 18 13  1  0
 21 16  1  0
  1 23  1  0
  1 24  1  0
  1 25  1  0
  2 26  1  0
  2 27  1  0
  3 28  1  0
  3 29  1  0
  8 30  1  0
 11 31  1  0
 11 32  1  0
 14 33  1  0
 15 34  1  0
 18 35  1  0
 20 36  1  0
 20 37  1  0
M  END
$$$$
