
     RDKit          3D

 69 74  0  0  0  0  0  0  0  0999 V2000
    5.6210   -4.4103   -0.6095 C   0  0  0  0  0  0  0  0  0  0  0  0
    5.6767   -2.9999   -0.7672 O   0  0  0  0  0  0  0  0  0  0  0  0
    4.5578   -2.2762   -0.4336 C   0  0  0  0  0  0  0  0  0  0  0  0
    3.3918   -2.8290    0.1076 C   0  0  0  0  0  0  0  0  0  0  0  0
    2.3023   -2.0092    0.4235 C   0  0  0  0  0  0  0  0  0  0  0  0
    2.3607   -0.6296    0.1843 C   0  0  0  0  0  0  0  0  0  0  0  0
    3.5268   -0.0767   -0.3643 C   0  0  0  0  0  0  0  0  0  0  0  0
    4.6286   -0.8871   -0.6649 C   0  0  0  0  0  0  0  0  0  0  0  0
    5.8057   -0.4256   -1.2022 O   0  0  0  0  0  0  0  0  0  0  0  0
    5.9412    0.9744   -1.3922 C   0  0  0  0  0  0  0  0  0  0  0  0
    1.1273    0.2234    0.4043 C   0  0  0  0  0  0  0  0  0  0  0  0
    0.2733   -0.2201    1.5268 N   0  0  0  0  0  0  0  0  0  0  0  0
   -1.0769   -0.0024    1.1819 C   0  0  0  0  0  0  0  0  0  0  0  0
   -1.7636   -0.9871    0.5564 N   0  0  0  0  0  0  0  0  0  0  0  0
   -3.0278   -0.7716    0.1398 C   0  0  0  0  0  0  0  0  0  0  0  0
   -3.7174   -1.9064   -0.6094 C   0  0  0  0  0  0  0  0  0  0  0  0
   -3.2865   -2.0760   -2.0181 N   0  0  0  0  0  0  0  0  0  0  0  0
   -3.8837   -3.2997   -2.5901 C   0  0  0  0  0  0  0  0  0  0  0  0
   -3.4989   -3.4666   -4.0675 C   0  0  0  0  0  0  0  0  0  0  0  0
   -3.9174   -2.3343   -4.8392 O   0  0  0  0  0  0  0  0  0  0  0  0
   -3.3142   -1.1396   -4.3239 C   0  0  0  0  0  0  0  0  0  0  0  0
   -3.6848   -0.9178   -2.8485 C   0  0  0  0  0  0  0  0  0  0  0  0
   -3.7203    0.3649    0.2923 N   0  0  0  0  0  0  0  0  0  0  0  0
   -3.0325    1.3136    0.9456 C   0  0  0  0  0  0  0  0  0  0  0  0
   -3.7518    2.8291    1.2437 S   0  0  0  0  0  0  0  0  0  0  0  0
   -2.3687    3.3907    2.0548 C   0  0  0  0  0  0  0  0  0  0  0  0
   -1.3605    2.4441    2.1071 C   0  0  0  0  0  0  0  0  0  0  0  0
   -1.7357    1.2224    1.4283 C   0  0  0  0  0  0  0  0  0  0  0  0
   -0.0572    2.7250    2.7985 C   0  0  0  0  0  0  0  0  0  0  0  0
   -0.1450    3.9582    3.7130 C   0  0  0  0  0  0  0  0  0  0  0  0
   -0.8797    5.1487    3.0602 C   0  0  0  0  0  0  0  0  0  0  0  0
   -0.1064    5.7052    1.8597 C   0  0  0  0  0  0  0  0  0  0  0  0
   -2.3219    4.7571    2.6712 C   0  0  0  0  0  0  0  0  0  0  0  0
    0.5048   -1.5774    2.0566 C   0  0  0  0  0  0  0  0  0  0  0  0
    1.0322   -2.5629    1.0113 C   0  0  0  0  0  0  0  0  0  0  0  0
    4.8291   -4.8486   -1.2269 H   0  0  0  0  0  0  0  0  0  0  0  0
    6.5749   -4.8229   -0.9530 H   0  0  0  0  0  0  0  0  0  0  0  0
    5.5009   -4.6851    0.4439 H   0  0  0  0  0  0  0  0  0  0  0  0
    3.3086   -3.8936    0.2969 H   0  0  0  0  0  0  0  0  0  0  0  0
    3.5464    0.9898   -0.5632 H   0  0  0  0  0  0  0  0  0  0  0  0
    5.8553    1.5140   -0.4431 H   0  0  0  0  0  0  0  0  0  0  0  0
    5.2177    1.3453   -2.1255 H   0  0  0  0  0  0  0  0  0  0  0  0
    6.9429    1.1620   -1.7921 H   0  0  0  0  0  0  0  0  0  0  0  0
    0.5825    0.2296   -0.5506 H   0  0  0  0  0  0  0  0  0  0  0  0
    1.4408    1.2535    0.6061 H   0  0  0  0  0  0  0  0  0  0  0  0
   -4.8052   -1.7674   -0.5479 H   0  0  0  0  0  0  0  0  0  0  0  0
   -3.4876   -2.8256   -0.0542 H   0  0  0  0  0  0  0  0  0  0  0  0
   -4.9775   -3.2553   -2.5108 H   0  0  0  0  0  0  0  0  0  0  0  0
   -3.5402   -4.1797   -2.0349 H   0  0  0  0  0  0  0  0  0  0  0  0
   -3.9952   -4.3503   -4.4813 H   0  0  0  0  0  0  0  0  0  0  0  0
   -2.4181   -3.6063   -4.1857 H   0  0  0  0  0  0  0  0  0  0  0  0
   -2.2268   -1.1979   -4.4551 H   0  0  0  0  0  0  0  0  0  0  0  0
   -3.6765   -0.3008   -4.9262 H   0  0  0  0  0  0  0  0  0  0  0  0
   -3.1831   -0.0060   -2.5063 H   0  0  0  0  0  0  0  0  0  0  0  0
   -4.7691   -0.7598   -2.7749 H   0  0  0  0  0  0  0  0  0  0  0  0
    0.2516    1.8623    3.3995 H   0  0  0  0  0  0  0  0  0  0  0  0
    0.7173    2.8938    2.0425 H   0  0  0  0  0  0  0  0  0  0  0  0
    0.8646    4.2562    4.0198 H   0  0  0  0  0  0  0  0  0  0  0  0
   -0.6807    3.6812    4.6313 H   0  0  0  0  0  0  0  0  0  0  0  0
   -0.9407    5.9571    3.8008 H   0  0  0  0  0  0  0  0  0  0  0  0
   -0.5940    6.6081    1.4764 H   0  0  0  0  0  0  0  0  0  0  0  0
    0.9141    5.9768    2.1501 H   0  0  0  0  0  0  0  0  0  0  0  0
   -0.0440    4.9884    1.0352 H   0  0  0  0  0  0  0  0  0  0  0  0
   -2.9396    4.7421    3.5789 H   0  0  0  0  0  0  0  0  0  0  0  0
   -2.7524    5.5088    1.9987 H   0  0  0  0  0  0  0  0  0  0  0  0
   -0.3917   -1.9850    2.5430 H   0  0  0  0  0  0  0  0  0  0  0  0
    1.2478   -1.4814    2.8604 H   0  0  0  0  0  0  0  0  0  0  0  0
    0.3061   -2.7269    0.2078 H   0  0  0  0  0  0  0  0  0  0  0  0
    1.2225   -3.5275    1.4950 H   0  0  0  0  0  0  0  0  0  0  0  0
  1  2  1  0
  2  3  1  0
  3  4  2  0
  4  5  1  0
  5  6  2  0
  6  7  1  0
  7  8  2  0
  8  9  1  0
  9 10  1  0
  6 11  1  0
 11 12  1  0
 12 13  1  0
 13 14  2  0
 14 15  1  0
 15 16  1  0
 16 17  1  0
 17 18  1  0
 18 19  1  0
 19 20  1  0
 20 21  1  0
 21 22  1  0
 15 23  2  0
 23 24  1  0
 24 25  1  0
 25 26  1  0
 26 27  2  0
 27 28  1  0
 27 29  1  0
 29 30  1  0
 30 31  1  0
 31 32  1  0
 31 33  1  0
 12 34  1  0
 34 35  1  0
  8  3  1  0
 28 13  1  0
 35  5  1  0
 22 17  1  0
 28 24  2  0
 33 26  1  0
  1 36  1  0
  1 37  1  0
  1 38  1  0
  4 39  1  0
  7 40  1  0
 10 41  1  0
 10 42  1  0
 10 43  1  0
 11 44  1  0
 11 45  1  0
 16 46  1  0
 16 47  1  0
 18 48  1  0
 18 49  1  0
 19 50  1  0
 19 51  1  0
 21 52  1  0
 21 53  1  0
 22 54  1  0
 22 55  1  0
 29 56  1  0
 29 57  1  0
 30 58  1  0
 30 59  1  0
 31 60  1  0
 32 61  1  0
 32 62  1  0
 32 63  1  0
 33 64  1  0
 33 65  1  0
 34 66  1  0
 34 67  1  0
 35 68  1  0
 35 69  1  0
M  END
$$$$
