
     RDKit          3D

 38 41  0  0  0  0  0  0  0  0999 V2000
    1.7465   -0.3716    3.1183 O   0  0  0  0  0  0  0  0  0  0  0  0
    1.3582    0.1338    2.0637 C   0  0  0  0  0  0  0  0  0  0  0  0
    0.0009    0.8154    1.9770 C   0  0  0  0  0  0  0  0  0  0  0  0
   -0.8772    0.3591    0.8185 C   0  0  0  0  0  0  0  0  0  0  0  0
   -1.2477   -1.0178    0.7122 C   0  0  0  0  0  0  0  0  0  0  0  0
   -0.9407   -2.0214    1.6692 C   0  0  0  0  0  0  0  0  0  0  0  0
   -1.3186   -3.3521    1.4868 C   0  0  0  0  0  0  0  0  0  0  0  0
   -2.0193   -3.7116    0.3484 C   0  0  0  0  0  0  0  0  0  0  0  0
   -2.3442   -2.7340   -0.5910 C   0  0  0  0  0  0  0  0  0  0  0  0
   -1.9809   -1.4037   -0.4273 C   0  0  0  0  0  0  0  0  0  0  0  0
   -2.3588   -0.5441   -1.3785 N   0  0  0  0  0  0  0  0  0  0  0  0
   -2.0681    0.7542   -1.2524 C   0  0  0  0  0  0  0  0  0  0  0  0
   -2.5227    1.5996   -2.2555 C   0  0  0  0  0  0  0  0  0  0  0  0
   -2.2964    2.9744   -2.2261 C   0  0  0  0  0  0  0  0  0  0  0  0
   -1.6017    3.5236   -1.1628 C   0  0  0  0  0  0  0  0  0  0  0  0
   -1.1315    2.6916   -0.1453 C   0  0  0  0  0  0  0  0  0  0  0  0
   -1.3393    1.2851   -0.1676 C   0  0  0  0  0  0  0  0  0  0  0  0
    2.2497    0.0763    0.8731 C   0  0  0  0  0  0  0  0  0  0  0  0
    2.2802    1.0943   -0.0841 C   0  0  0  0  0  0  0  0  0  0  0  0
    3.1309    0.9891   -1.1872 C   0  0  0  0  0  0  0  0  0  0  0  0
    3.9594   -0.1236   -1.3298 C   0  0  0  0  0  0  0  0  0  0  0  0
    3.9462   -1.1318   -0.3673 C   0  0  0  0  0  0  0  0  0  0  0  0
    3.0965   -1.0310    0.7350 C   0  0  0  0  0  0  0  0  0  0  0  0
    0.1907    1.8898    1.9950 H   0  0  0  0  0  0  0  0  0  0  0  0
   -0.5463    0.6097    2.9067 H   0  0  0  0  0  0  0  0  0  0  0  0
   -0.4100   -1.7827    2.5880 H   0  0  0  0  0  0  0  0  0  0  0  0
   -1.0665   -4.0982    2.2361 H   0  0  0  0  0  0  0  0  0  0  0  0
   -2.3220   -4.7428    0.1892 H   0  0  0  0  0  0  0  0  0  0  0  0
   -2.9045   -3.0174   -1.4795 H   0  0  0  0  0  0  0  0  0  0  0  0
   -3.0785    1.1713   -3.0874 H   0  0  0  0  0  0  0  0  0  0  0  0
   -2.6715    3.6054   -3.0271 H   0  0  0  0  0  0  0  0  0  0  0  0
   -1.4283    4.5959   -1.1178 H   0  0  0  0  0  0  0  0  0  0  0  0
   -0.6088    3.1759    0.6734 H   0  0  0  0  0  0  0  0  0  0  0  0
    1.6663    1.9824    0.0130 H   0  0  0  0  0  0  0  0  0  0  0  0
    3.1500    1.7776   -1.9358 H   0  0  0  0  0  0  0  0  0  0  0  0
    4.6199   -0.2030   -2.1899 H   0  0  0  0  0  0  0  0  0  0  0  0
    4.5963   -1.9965   -0.4744 H   0  0  0  0  0  0  0  0  0  0  0  0
    3.0920   -1.8213    1.4832 H   0  0  0  0  0  0  0  0  0  0  0  0
  1  2  2  0
  2  3  1  0
  3  4  1  0
  4  5  1  0
  5  6  2  0
  6  7  1  0
  7  8  2  0
  8  9  1  0
  9 10  2  0
 10 11  1  0
 11 12  2  0
 12 13  1  0
 13 14  2  0
 14 15  1  0
 15 16  2  0
 16 17  1  0
  2 18  1  0
 18 19  2  0
 19 20  1  0
 20 21  2  0
 21 22  1  0
 22 23  2  0
 17  4  2  0
 23 18  1  0
 10  5  1  0
 17 12  1  0
  3 24  1  0
  3 25  1  0
  6 26  1  0
  7 27  1  0
  8 28  1  0
  9 29  1  0
 13 30  1  0
 14 31  1  0
 15 32  1  0
 16 33  1  0
 19 34  1  0
 20 35  1  0
 21 36  1  0
 22 37  1  0
 23 38  1  0
M  END
$$$$
