
     RDKit          3D

 44 46  0  0  0  0  0  0  0  0999 V2000
   -4.1275   -3.1620    0.9859 C   0  0  0  0  0  0  0  0  0  0  0  0
   -3.4772   -1.8112    1.0407 C   0  0  0  0  0  0  0  0  0  0  0  0
   -3.1892   -1.1159   -0.1339 C   0  0  0  0  0  0  0  0  0  0  0  0
   -2.5559    0.1428   -0.1156 C   0  0  0  0  0  0  0  0  0  0  0  0
   -2.3443    0.8042   -1.4515 C   0  0  0  0  0  0  0  0  0  0  0  0
   -2.1804    0.7021    1.1314 C   0  0  0  0  0  0  0  0  0  0  0  0
   -1.3499    2.3066    1.2244 S   0  0  0  0  0  6  0  0  0  0  0  0
   -1.3343    2.9455   -0.0729 O   0  0  0  0  0  0  0  0  0  0  0  0
   -1.8823    3.0216    2.3662 O   0  0  0  0  0  0  0  0  0  0  0  0
    0.2428    1.8984    1.6270 N   0  0  0  0  0  0  0  0  0  0  0  0
    0.9515    0.9660    0.8227 C   0  0  0  0  0  0  0  0  0  0  0  0
    1.2236   -0.3013    1.3357 C   0  0  0  0  0  0  0  0  0  0  0  0
    1.8829   -1.2400    0.5443 C   0  0  0  0  0  0  0  0  0  0  0  0
    2.2740   -0.9064   -0.7514 C   0  0  0  0  0  0  0  0  0  0  0  0
    2.9189   -1.8897   -1.4509 O   0  0  0  0  0  0  0  0  0  0  0  0
    2.0056    0.3637   -1.2820 C   0  0  0  0  0  0  0  0  0  0  0  0
    2.3826    0.8338   -2.9637 S   0  0  0  0  0  0  0  0  0  0  0  0
    4.1213    0.7839   -2.9778 C   0  0  0  0  0  0  0  0  0  0  0  0
    4.9103    1.8914   -3.1032 N   0  0  0  0  0  0  0  0  0  0  0  0
    6.1240    1.3939   -3.0880 C   0  0  0  0  0  0  0  0  0  0  0  0
    6.0591    0.0422   -2.9660 N   0  0  0  0  0  0  0  0  0  0  0  0
    4.7830   -0.3788   -2.8977 N   0  0  0  0  0  0  0  0  0  0  0  0
    1.3357    1.2967   -0.4780 C   0  0  0  0  0  0  0  0  0  0  0  0
   -2.4639   -0.0002    2.3344 C   0  0  0  0  0  0  0  0  0  0  0  0
   -2.1600    0.5206    3.7152 C   0  0  0  0  0  0  0  0  0  0  0  0
   -3.1081   -1.2500    2.2624 C   0  0  0  0  0  0  0  0  0  0  0  0
   -4.7288   -3.3437    1.8829 H   0  0  0  0  0  0  0  0  0  0  0  0
   -3.3635   -3.9417    0.9082 H   0  0  0  0  0  0  0  0  0  0  0  0
   -4.8000   -3.2377    0.1249 H   0  0  0  0  0  0  0  0  0  0  0  0
   -3.4719   -1.5615   -1.0877 H   0  0  0  0  0  0  0  0  0  0  0  0
   -1.2852    0.9991   -1.6309 H   0  0  0  0  0  0  0  0  0  0  0  0
   -2.9302    1.7256   -1.5197 H   0  0  0  0  0  0  0  0  0  0  0  0
   -2.6787    0.1629   -2.2754 H   0  0  0  0  0  0  0  0  0  0  0  0
    0.4006    1.8874    2.6317 H   0  0  0  0  0  0  0  0  0  0  0  0
    0.9162   -0.5772    2.3399 H   0  0  0  0  0  0  0  0  0  0  0  0
    2.0918   -2.2334    0.9324 H   0  0  0  0  0  0  0  0  0  0  0  0
    3.4223   -1.4622   -2.1776 H   0  0  0  0  0  0  0  0  0  0  0  0
    7.0519    1.9433   -3.1614 H   0  0  0  0  0  0  0  0  0  0  0  0
    6.8138   -0.6345   -2.9261 H   0  0  0  0  0  0  0  0  0  0  0  0
    1.1075    2.2873   -0.8677 H   0  0  0  0  0  0  0  0  0  0  0  0
   -1.1280    0.8668    3.7976 H   0  0  0  0  0  0  0  0  0  0  0  0
   -2.2721   -0.2659    4.4706 H   0  0  0  0  0  0  0  0  0  0  0  0
   -2.8544    1.3228    3.9811 H   0  0  0  0  0  0  0  0  0  0  0  0
   -3.3336   -1.7950    3.1787 H   0  0  0  0  0  0  0  0  0  0  0  0
  1  2  1  0
  2  3  2  0
  3  4  1  0
  4  5  1  0
  4  6  2  0
  6  7  1  0
  7  8  2  0
  7  9  2  0
  7 10  1  0
 10 11  1  0
 11 12  2  0
 12 13  1  0
 13 14  2  0
 14 15  1  0
 14 16  1  0
 16 17  1  0
 17 18  1  0
 18 19  1  0
 19 20  2  0
 20 21  1  0
 21 22  1  0
 16 23  2  0
  6 24  1  0
 24 25  1  0
 24 26  2  0
 26  2  1  0
 23 11  1  0
 22 18  2  0
  1 27  1  0
  1 28  1  0
  1 29  1  0
  3 30  1  0
  5 31  1  0
  5 32  1  0
  5 33  1  0
 10 34  1  0
 12 35  1  0
 13 36  1  0
 15 37  1  0
 20 38  1  0
 21 39  1  0
 23 40  1  0
 25 41  1  0
 25 42  1  0
 25 43  1  0
 26 44  1  0
M  END
$$$$
