
     RDKit          3D

 38 39  0  0  0  0  0  0  0  0999 V2000
   -3.3318   -1.5185    4.1181 C   0  0  0  0  0  0  0  0  0  0  0  0
   -3.8161   -0.8033    3.0940 C   0  0  0  0  0  0  0  0  0  0  0  0
   -3.7476   -1.2294    1.6548 C   0  0  0  0  0  0  0  0  0  0  0  0
   -3.0123   -0.2305    0.7936 C   0  0  0  0  0  0  0  0  0  0  0  0
   -3.7108    0.7380    0.0648 C   0  0  0  0  0  0  0  0  0  0  0  0
   -3.0213    1.6657   -0.7159 C   0  0  0  0  0  0  0  0  0  0  0  0
   -1.6253    1.6327   -0.7685 C   0  0  0  0  0  0  0  0  0  0  0  0
   -0.9671    2.5553   -1.5403 O   0  0  0  0  0  0  0  0  0  0  0  0
   -0.8871    0.6810   -0.0443 C   0  0  0  0  0  0  0  0  0  0  0  0
    0.5888    0.6157   -0.0883 C   0  0  0  0  0  0  0  0  0  0  0  0
    1.2445    0.3850   -1.3132 C   0  0  0  0  0  0  0  0  0  0  0  0
    2.6443    0.3058   -1.4016 C   0  0  0  0  0  0  0  0  0  0  0  0
    3.3151    0.0478   -2.7293 C   0  0  0  0  0  0  0  0  0  0  0  0
    3.6764   -1.3993   -2.9134 C   0  0  0  0  0  0  0  0  0  0  0  0
    4.9209   -1.8488   -3.1227 C   0  0  0  0  0  0  0  0  0  0  0  0
    3.4052    0.4448   -0.2355 C   0  0  0  0  0  0  0  0  0  0  0  0
    2.7815    0.6735    0.9907 C   0  0  0  0  0  0  0  0  0  0  0  0
    1.3886    0.7587    1.0586 C   0  0  0  0  0  0  0  0  0  0  0  0
    0.7946    0.9900    2.2722 O   0  0  0  0  0  0  0  0  0  0  0  0
   -1.6083   -0.2434    0.7356 C   0  0  0  0  0  0  0  0  0  0  0  0
   -2.8422   -2.4751    3.9656 H   0  0  0  0  0  0  0  0  0  0  0  0
   -3.4095   -1.1505    5.1365 H   0  0  0  0  0  0  0  0  0  0  0  0
   -4.2933    0.1529    3.2990 H   0  0  0  0  0  0  0  0  0  0  0  0
   -3.2680   -2.2114    1.5529 H   0  0  0  0  0  0  0  0  0  0  0  0
   -4.7698   -1.3583    1.2774 H   0  0  0  0  0  0  0  0  0  0  0  0
   -4.7970    0.7760    0.1027 H   0  0  0  0  0  0  0  0  0  0  0  0
   -3.5860    2.4046   -1.2757 H   0  0  0  0  0  0  0  0  0  0  0  0
   -1.6081    3.2094   -1.8592 H   0  0  0  0  0  0  0  0  0  0  0  0
    0.6452    0.2687   -2.2152 H   0  0  0  0  0  0  0  0  0  0  0  0
    4.1995    0.6923   -2.8133 H   0  0  0  0  0  0  0  0  0  0  0  0
    2.6485    0.3505   -3.5465 H   0  0  0  0  0  0  0  0  0  0  0  0
    2.8567   -2.1143   -2.8751 H   0  0  0  0  0  0  0  0  0  0  0  0
    5.7712   -1.1760   -3.1708 H   0  0  0  0  0  0  0  0  0  0  0  0
    5.1123   -2.9101   -3.2486 H   0  0  0  0  0  0  0  0  0  0  0  0
    4.4896    0.3726   -0.2793 H   0  0  0  0  0  0  0  0  0  0  0  0
    3.3942    0.7786    1.8803 H   0  0  0  0  0  0  0  0  0  0  0  0
    1.4845    1.1549    2.9332 H   0  0  0  0  0  0  0  0  0  0  0  0
   -1.0600   -0.9853    1.3152 H   0  0  0  0  0  0  0  0  0  0  0  0
  1  2  2  0
  2  3  1  0
  3  4  1  0
  4  5  2  0
  5  6  1  0
  6  7  2  0
  7  8  1  0
  7  9  1  0
  9 10  1  0
 10 11  2  0
 11 12  1  0
 12 13  1  0
 13 14  1  0
 14 15  2  0
 12 16  2  0
 16 17  1  0
 17 18  2  0
 18 19  1  0
  9 20  2  0
 20  4  1  0
 18 10  1  0
  1 21  1  0
  1 22  1  0
  2 23  1  0
  3 24  1  0
  3 25  1  0
  5 26  1  0
  6 27  1  0
  8 28  1  0
 11 29  1  0
 13 30  1  0
 13 31  1  0
 14 32  1  0
 15 33  1  0
 15 34  1  0
 16 35  1  0
 17 36  1  0
 19 37  1  0
 20 38  1  0
M  END
$$$$
