
     RDKit          3D

 35 36  0  0  0  0  0  0  0  0999 V2000
    5.4469    1.0368    1.8764 C   0  0  0  0  0  0  0  0  0  0  0  0
    4.3784    0.3588    1.0692 C   0  0  0  0  0  0  0  0  0  0  0  0
    4.3345    0.5193   -0.3228 C   0  0  0  0  0  0  0  0  0  0  0  0
    3.3269   -0.0874   -1.0744 C   0  0  0  0  0  0  0  0  0  0  0  0
    2.3480   -0.8419   -0.4254 C   0  0  0  0  0  0  0  0  0  0  0  0
    1.0622   -1.6250   -1.3708 S   0  0  0  0  0  6  0  0  0  0  0  0
    1.4943   -1.6515   -2.7564 O   0  0  0  0  0  0  0  0  0  0  0  0
    0.7118   -2.8533   -0.6840 O   0  0  0  0  0  0  0  0  0  0  0  0
   -0.2895   -0.4756   -1.2366 C   0  0  0  0  0  0  0  0  0  0  0  0
   -1.5154   -1.0422   -1.9286 C   0  0  0  0  0  0  0  0  0  0  0  0
   -2.8862    0.1585   -1.9584 S   0  0  0  0  0  0  0  0  0  0  0  0
   -3.4579    0.0632   -0.3269 C   0  0  0  0  0  0  0  0  0  0  0  0
   -2.8530   -0.5605    0.6578 N   0  0  0  0  0  0  0  0  0  0  0  0
   -3.6569   -0.3741    1.7523 C   0  0  0  0  0  0  0  0  0  0  0  0
   -4.7594    0.3803    1.4258 C   0  0  0  0  0  0  0  0  0  0  0  0
   -4.6205    0.6550    0.0904 N   0  0  0  0  0  0  0  0  0  0  0  0
   -5.5492    1.4222   -0.7030 C   0  0  0  0  0  0  0  0  0  0  0  0
    2.3774   -1.0124    0.9604 C   0  0  0  0  0  0  0  0  0  0  0  0
    3.3879   -0.4025    1.7050 C   0  0  0  0  0  0  0  0  0  0  0  0
    5.6829    0.4586    2.7759 H   0  0  0  0  0  0  0  0  0  0  0  0
    6.3725    1.1303    1.2988 H   0  0  0  0  0  0  0  0  0  0  0  0
    5.1129    2.0353    2.1745 H   0  0  0  0  0  0  0  0  0  0  0  0
    5.0924    1.1127   -0.8305 H   0  0  0  0  0  0  0  0  0  0  0  0
    3.3176    0.0318   -2.1555 H   0  0  0  0  0  0  0  0  0  0  0  0
   -0.4592   -0.3053   -0.1704 H   0  0  0  0  0  0  0  0  0  0  0  0
    0.0385    0.4593   -1.7035 H   0  0  0  0  0  0  0  0  0  0  0  0
   -1.2801   -1.2815   -2.9714 H   0  0  0  0  0  0  0  0  0  0  0  0
   -1.8466   -1.9763   -1.4616 H   0  0  0  0  0  0  0  0  0  0  0  0
   -3.4005   -0.7925    2.7172 H   0  0  0  0  0  0  0  0  0  0  0  0
   -5.5992    0.7266    2.0119 H   0  0  0  0  0  0  0  0  0  0  0  0
   -6.3796    1.7526   -0.0731 H   0  0  0  0  0  0  0  0  0  0  0  0
   -5.0291    2.2947   -1.1063 H   0  0  0  0  0  0  0  0  0  0  0  0
   -5.9321    0.7882   -1.5066 H   0  0  0  0  0  0  0  0  0  0  0  0
    1.6256   -1.6159    1.4651 H   0  0  0  0  0  0  0  0  0  0  0  0
    3.4036   -0.5313    2.7855 H   0  0  0  0  0  0  0  0  0  0  0  0
  1  2  1  0
  2  3  2  0
  3  4  1  0
  4  5  2  0
  5  6  1  0
  6  7  2  0
  6  8  2  0
  6  9  1  0
  9 10  1  0
 10 11  1  0
 11 12  1  0
 12 13  2  0
 13 14  1  0
 14 15  2  0
 15 16  1  0
 16 17  1  0
  5 18  1  0
 18 19  2  0
 19  2  1  0
 16 12  1  0
  1 20  1  0
  1 21  1  0
  1 22  1  0
  3 23  1  0
  4 24  1  0
  9 25  1  0
  9 26  1  0
 10 27  1  0
 10 28  1  0
 14 29  1  0
 15 30  1  0
 17 31  1  0
 17 32  1  0
 17 33  1  0
 18 34  1  0
 19 35  1  0
M  END
$$$$
