
     RDKit          3D

 37 39  0  0  0  0  0  0  0  0999 V2000
   -0.4260   -1.5234    2.0753 C   0  0  0  0  0  0  0  0  0  0  0  0
   -0.8424   -0.5934    1.0464 N   0  0  0  0  0  0  0  0  0  0  0  0
   -0.0777    0.0069    0.0371 C   0  0  0  0  0  0  0  0  0  0  0  0
    1.2570    0.1056   -0.1309 C   0  0  0  0  0  0  0  0  0  0  0  0
    2.3029   -0.3179    0.7755 C   0  0  0  0  0  0  0  0  0  0  0  0
    3.6177   -0.3764    0.5166 C   0  0  0  0  0  0  0  0  0  0  0  0
    4.7787   -0.8750    1.7118 S   0  0  0  0  0  0  0  0  0  0  0  0
    6.1246   -0.6885    0.6148 C   0  0  0  0  0  0  0  0  0  0  0  0
    7.7194   -0.9729    0.9540 S   0  0  0  0  0  0  0  0  0  0  0  0
    5.6741   -0.2649   -0.5957 N   0  0  0  0  0  0  0  0  0  0  0  0
    4.3307   -0.0652   -0.7575 C   0  0  0  0  0  0  0  0  0  0  0  0
    3.8259    0.3120   -1.8020 O   0  0  0  0  0  0  0  0  0  0  0  0
   -1.0621    0.6641   -0.9923 C   0  0  0  0  0  0  0  0  0  0  0  0
   -1.0078   -0.0467   -2.3521 C   0  0  0  0  0  0  0  0  0  0  0  0
   -0.8183    2.1730   -1.1490 C   0  0  0  0  0  0  0  0  0  0  0  0
   -2.4047    0.4174   -0.3232 C   0  0  0  0  0  0  0  0  0  0  0  0
   -3.6729    0.8091   -0.7353 C   0  0  0  0  0  0  0  0  0  0  0  0
   -4.7631    0.4631    0.0611 C   0  0  0  0  0  0  0  0  0  0  0  0
   -4.5734   -0.2594    1.2466 C   0  0  0  0  0  0  0  0  0  0  0  0
   -3.2908   -0.6508    1.6493 C   0  0  0  0  0  0  0  0  0  0  0  0
   -2.2031   -0.3175    0.8575 C   0  0  0  0  0  0  0  0  0  0  0  0
   -0.1131   -0.9822    2.9739 H   0  0  0  0  0  0  0  0  0  0  0  0
   -1.2153   -2.2282    2.3576 H   0  0  0  0  0  0  0  0  0  0  0  0
    0.4032   -2.1494    1.7299 H   0  0  0  0  0  0  0  0  0  0  0  0
    1.6014    0.6052   -1.0348 H   0  0  0  0  0  0  0  0  0  0  0  0
    1.9783   -0.5725    1.7795 H   0  0  0  0  0  0  0  0  0  0  0  0
    6.3024   -0.0992   -1.3671 H   0  0  0  0  0  0  0  0  0  0  0  0
   -1.7700    0.3433   -3.0367 H   0  0  0  0  0  0  0  0  0  0  0  0
   -0.0339    0.0884   -2.8358 H   0  0  0  0  0  0  0  0  0  0  0  0
   -1.1816   -1.1249   -2.2515 H   0  0  0  0  0  0  0  0  0  0  0  0
   -0.8398    2.6866   -0.1802 H   0  0  0  0  0  0  0  0  0  0  0  0
    0.1521    2.3797   -1.6136 H   0  0  0  0  0  0  0  0  0  0  0  0
   -1.5836    2.6381   -1.7813 H   0  0  0  0  0  0  0  0  0  0  0  0
   -3.8173    1.3710   -1.6520 H   0  0  0  0  0  0  0  0  0  0  0  0
   -5.7664    0.7582   -0.2362 H   0  0  0  0  0  0  0  0  0  0  0  0
   -5.4320   -0.5165    1.8621 H   0  0  0  0  0  0  0  0  0  0  0  0
   -3.1731   -1.1966    2.5779 H   0  0  0  0  0  0  0  0  0  0  0  0
  1  2  1  0
  2  3  1  0
  3  4  2  3
  4  5  1  0
  5  6  2  3
  6  7  1  0
  7  8  1  0
  8  9  2  0
  8 10  1  0
 10 11  1  0
 11 12  2  0
  3 13  1  0
 13 14  1  0
 13 15  1  0
 13 16  1  0
 16 17  2  0
 17 18  1  0
 18 19  2  0
 19 20  1  0
 20 21  2  0
 21  2  1  0
 11  6  1  0
 21 16  1  0
  1 22  1  0
  1 23  1  0
  1 24  1  0
  4 25  1  0
  5 26  1  0
 10 27  1  0
 14 28  1  0
 14 29  1  0
 14 30  1  0
 15 31  1  0
 15 32  1  0
 15 33  1  0
 17 34  1  0
 18 35  1  0
 19 36  1  0
 20 37  1  0
M  END
$$$$
