
     RDKit          3D

 59 63  0  0  0  0  0  0  0  0999 V2000
   -4.5310   -3.8785    1.4015 C   0  0  0  0  0  0  0  0  0  0  0  0
   -4.4548   -2.3593    1.3188 C   0  0  0  0  0  0  0  0  0  0  0  0
   -3.0555   -1.8460    0.9484 C   0  0  0  0  0  0  0  0  0  0  0  0
   -2.7347   -2.2240   -0.4265 N   0  0  0  0  0  0  0  0  0  0  0  0
   -1.4801   -1.7410   -0.8188 C   0  0  0  0  0  0  0  0  0  0  0  0
   -0.8107   -2.5348   -1.6647 N   0  0  0  0  0  0  0  0  0  0  0  0
    0.3616   -2.0642   -2.0903 C   0  0  0  0  0  0  0  0  0  0  0  0
    0.9396   -0.9203   -1.7070 N   0  0  0  0  0  0  0  0  0  0  0  0
    0.2727   -0.1517   -0.8176 C   0  0  0  0  0  0  0  0  0  0  0  0
    0.9849    0.9353   -0.2554 N   0  0  0  0  0  0  0  0  0  0  0  0
    1.4540    0.5631    1.1187 C   0  0  0  0  0  0  0  0  0  0  0  0
    2.7009    1.3759    1.5240 C   0  0  0  0  0  0  0  0  0  0  0  0
    3.8463    1.1023    0.6238 N   0  0  0  0  0  0  0  0  0  0  0  0
    4.7175    0.0984    1.0970 C   0  0  0  0  0  0  0  0  0  0  0  0
    5.9630   -0.0678    0.4854 C   0  0  0  0  0  0  0  0  0  0  0  0
    6.8346   -1.0574    0.9362 C   0  0  0  0  0  0  0  0  0  0  0  0
    6.4496   -1.8641    1.9948 C   0  0  0  0  0  0  0  0  0  0  0  0
    5.2081   -1.6375    2.5582 C   0  0  0  0  0  0  0  0  0  0  0  0
    4.3476   -0.6834    2.1356 N   0  0  0  0  0  0  0  0  0  0  0  0
    3.4562    0.8527   -0.7921 C   0  0  0  0  0  0  0  0  0  0  0  0
    2.0747    1.4590   -1.1243 C   0  0  0  0  0  0  0  0  0  0  0  0
   -1.0146   -0.4961   -0.3747 C   0  0  0  0  0  0  0  0  0  0  0  0
   -1.8653    0.2940    0.4819 N   0  0  0  0  0  0  0  0  0  0  0  0
   -1.8268    1.7553    0.4396 C   0  0  0  0  0  0  0  0  0  0  0  0
   -2.4816    2.3211   -0.8064 C   0  0  0  0  0  0  0  0  0  0  0  0
   -1.7052    2.7350   -1.8986 C   0  0  0  0  0  0  0  0  0  0  0  0
   -2.3101    3.2370   -3.0531 C   0  0  0  0  0  0  0  0  0  0  0  0
   -3.6984    3.3280   -3.1220 C   0  0  0  0  0  0  0  0  0  0  0  0
   -4.5176    4.0069   -4.6845 Br  0  0  0  0  0  0  0  0  0  0  0  0
   -4.4864    2.9221   -2.0481 C   0  0  0  0  0  0  0  0  0  0  0  0
   -3.8792    2.4195   -0.8951 C   0  0  0  0  0  0  0  0  0  0  0  0
   -2.9749   -0.3059    1.0987 C   0  0  0  0  0  0  0  0  0  0  0  0
   -3.7881    0.3282    1.7747 O   0  0  0  0  0  0  0  0  0  0  0  0
   -3.7932   -4.2702    2.1087 H   0  0  0  0  0  0  0  0  0  0  0  0
   -5.5242   -4.1859    1.7441 H   0  0  0  0  0  0  0  0  0  0  0  0
   -4.3581   -4.3445    0.4272 H   0  0  0  0  0  0  0  0  0  0  0  0
   -4.7514   -1.9547    2.2945 H   0  0  0  0  0  0  0  0  0  0  0  0
   -5.1950   -1.9998    0.5926 H   0  0  0  0  0  0  0  0  0  0  0  0
   -2.3226   -2.2777    1.6443 H   0  0  0  0  0  0  0  0  0  0  0  0
   -2.7784   -3.2090   -0.6676 H   0  0  0  0  0  0  0  0  0  0  0  0
    0.9057   -2.6733   -2.8039 H   0  0  0  0  0  0  0  0  0  0  0  0
    1.6918   -0.5080    1.1761 H   0  0  0  0  0  0  0  0  0  0  0  0
    0.6537    0.7649    1.8392 H   0  0  0  0  0  0  0  0  0  0  0  0
    2.9445    1.2156    2.5813 H   0  0  0  0  0  0  0  0  0  0  0  0
    2.4685    2.4461    1.4448 H   0  0  0  0  0  0  0  0  0  0  0  0
    6.2644    0.5837   -0.3276 H   0  0  0  0  0  0  0  0  0  0  0  0
    7.8051   -1.1872    0.4667 H   0  0  0  0  0  0  0  0  0  0  0  0
    7.1001   -2.6425    2.3758 H   0  0  0  0  0  0  0  0  0  0  0  0
    4.8573   -2.2355    3.3942 H   0  0  0  0  0  0  0  0  0  0  0  0
    4.2055    1.3068   -1.4510 H   0  0  0  0  0  0  0  0  0  0  0  0
    3.4306   -0.2239   -1.0060 H   0  0  0  0  0  0  0  0  0  0  0  0
    2.1202    2.5438   -0.9613 H   0  0  0  0  0  0  0  0  0  0  0  0
    1.8450    1.3384   -2.1906 H   0  0  0  0  0  0  0  0  0  0  0  0
   -2.3610    2.1574    1.3106 H   0  0  0  0  0  0  0  0  0  0  0  0
   -0.8174    2.1483    0.5570 H   0  0  0  0  0  0  0  0  0  0  0  0
   -0.6210    2.6661   -1.8580 H   0  0  0  0  0  0  0  0  0  0  0  0
   -1.6914    3.5496   -3.8897 H   0  0  0  0  0  0  0  0  0  0  0  0
   -5.5699    2.9884   -2.0963 H   0  0  0  0  0  0  0  0  0  0  0  0
   -4.5054    2.1017   -0.0627 H   0  0  0  0  0  0  0  0  0  0  0  0
  1  2  1  0
  2  3  1  0
  3  4  1  0
  4  5  1  0
  5  6  2  0
  6  7  1  0
  7  8  2  0
  8  9  1  0
  9 10  1  0
 10 11  1  0
 11 12  1  0
 12 13  1  0
 13 14  1  0
 14 15  2  0
 15 16  1  0
 16 17  2  0
 17 18  1  0
 18 19  2  0
 13 20  1  0
 20 21  1  0
  9 22  2  0
 22 23  1  0
 23 24  1  0
 24 25  1  0
 25 26  2  0
 26 27  1  0
 27 28  2  0
 28 29  1  0
 28 30  1  0
 30 31  2  0
 23 32  1  0
 32 33  2  0
 32  3  1  0
 22  5  1  0
 31 25  1  0
 21 10  1  0
 19 14  1  0
  1 34  1  0
  1 35  1  0
  1 36  1  0
  2 37  1  0
  2 38  1  0
  3 39  1  0
  4 40  1  0
  7 41  1  0
 11 42  1  0
 11 43  1  0
 12 44  1  0
 12 45  1  0
 15 46  1  0
 16 47  1  0
 17 48  1  0
 18 49  1  0
 20 50  1  0
 20 51  1  0
 21 52  1  0
 21 53  1  0
 24 54  1  0
 24 55  1  0
 26 56  1  0
 27 57  1  0
 30 58  1  0
 31 59  1  0
M  END
$$$$
