
     RDKit          3D

 35 37  0  0  0  0  0  0  0  0999 V2000
    7.0288    1.3802    0.6318 C   0  0  0  0  0  0  0  0  0  0  0  0
    6.6270    0.0774    0.2280 O   0  0  0  0  0  0  0  0  0  0  0  0
    5.2839   -0.1553    0.1302 C   0  0  0  0  0  0  0  0  0  0  0  0
    4.9426   -1.4472   -0.2723 C   0  0  0  0  0  0  0  0  0  0  0  0
    3.6023   -1.8207   -0.4132 C   0  0  0  0  0  0  0  0  0  0  0  0
    2.5735   -0.9059   -0.1531 C   0  0  0  0  0  0  0  0  0  0  0  0
    1.1847   -1.3195   -0.3072 C   0  0  0  0  0  0  0  0  0  0  0  0
    0.6829   -2.4791   -0.6784 N   0  0  0  0  0  0  0  0  0  0  0  0
   -0.6903   -2.3349   -0.6578 N   0  0  0  0  0  0  0  0  0  0  0  0
   -0.9315   -1.1022   -0.2776 C   0  0  0  0  0  0  0  0  0  0  0  0
   -2.0916   -0.4147   -0.0772 N   0  0  0  0  0  0  0  0  0  0  0  0
   -3.3164   -0.9781   -0.3386 C   0  0  0  0  0  0  0  0  0  0  0  0
   -3.5261   -2.0915   -0.8014 O   0  0  0  0  0  0  0  0  0  0  0  0
   -4.4868   -0.0985   -0.0547 C   0  0  0  0  0  0  0  0  0  0  0  0
   -5.6235   -0.2218   -0.8683 C   0  0  0  0  0  0  0  0  0  0  0  0
   -6.7415    0.5821   -0.6384 C   0  0  0  0  0  0  0  0  0  0  0  0
   -6.7232    1.4962    0.4085 C   0  0  0  0  0  0  0  0  0  0  0  0
   -7.7952    2.2669    0.6311 F   0  0  0  0  0  0  0  0  0  0  0  0
   -5.6107    1.6178    1.2355 C   0  0  0  0  0  0  0  0  0  0  0  0
   -4.4882    0.8166    1.0095 C   0  0  0  0  0  0  0  0  0  0  0  0
    0.2115   -0.3915   -0.0326 O   0  0  0  0  0  0  0  0  0  0  0  0
    2.9249    0.3906    0.2510 C   0  0  0  0  0  0  0  0  0  0  0  0
    4.2691    0.7640    0.3918 C   0  0  0  0  0  0  0  0  0  0  0  0
    6.6669    1.6102    1.6394 H   0  0  0  0  0  0  0  0  0  0  0  0
    6.6996    2.1359   -0.0890 H   0  0  0  0  0  0  0  0  0  0  0  0
    8.1226    1.3997    0.6584 H   0  0  0  0  0  0  0  0  0  0  0  0
    5.7266   -2.1724   -0.4791 H   0  0  0  0  0  0  0  0  0  0  0  0
    3.3686   -2.8367   -0.7294 H   0  0  0  0  0  0  0  0  0  0  0  0
   -1.9925    0.5481    0.1993 H   0  0  0  0  0  0  0  0  0  0  0  0
   -5.6384   -0.9456   -1.6820 H   0  0  0  0  0  0  0  0  0  0  0  0
   -7.6245    0.4957   -1.2642 H   0  0  0  0  0  0  0  0  0  0  0  0
   -5.6326    2.3270    2.0576 H   0  0  0  0  0  0  0  0  0  0  0  0
   -3.6451    0.8964    1.6897 H   0  0  0  0  0  0  0  0  0  0  0  0
    2.1567    1.1314    0.4621 H   0  0  0  0  0  0  0  0  0  0  0  0
    4.4860    1.7794    0.7069 H   0  0  0  0  0  0  0  0  0  0  0  0
  1  2  1  0
  2  3  1  0
  3  4  2  0
  4  5  1  0
  5  6  2  0
  6  7  1  0
  7  8  2  0
  8  9  1  0
  9 10  2  0
 10 11  1  0
 11 12  1  0
 12 13  2  0
 12 14  1  0
 14 15  2  0
 15 16  1  0
 16 17  2  0
 17 18  1  0
 17 19  1  0
 19 20  2  0
 10 21  1  0
  6 22  1  0
 22 23  2  0
 23  3  1  0
 21  7  1  0
 20 14  1  0
  1 24  1  0
  1 25  1  0
  1 26  1  0
  4 27  1  0
  5 28  1  0
 11 29  1  0
 15 30  1  0
 16 31  1  0
 19 32  1  0
 20 33  1  0
 22 34  1  0
 23 35  1  0
M  END
$$$$
