
     RDKit          3D

 33 35  0  0  0  0  0  0  0  0999 V2000
    5.4654   -0.3796    0.9638 C   0  0  0  0  0  0  0  0  0  0  0  0
    4.6458   -1.2839    0.2344 O   0  0  0  0  0  0  0  0  0  0  0  0
    3.3486   -0.9112    0.0156 C   0  0  0  0  0  0  0  0  0  0  0  0
    2.5929   -1.8355   -0.7085 C   0  0  0  0  0  0  0  0  0  0  0  0
    1.2499   -1.5871   -0.9971 C   0  0  0  0  0  0  0  0  0  0  0  0
    0.6486   -0.4015   -0.5632 C   0  0  0  0  0  0  0  0  0  0  0  0
    1.4020    0.5462    0.1499 C   0  0  0  0  0  0  0  0  0  0  0  0
    2.7503    0.2753    0.4464 C   0  0  0  0  0  0  0  0  0  0  0  0
    0.7742    1.8272    0.6357 C   0  0  0  0  0  0  0  0  0  0  0  0
   -0.4322    2.2183   -0.2139 C   0  0  0  0  0  0  0  0  0  0  0  0
   -1.4041    1.0696   -0.2980 C   0  0  0  0  0  0  0  0  0  0  0  0
   -2.6864    1.2184    0.0796 C   0  0  0  0  0  0  0  0  0  0  0  0
   -3.7093    0.2311    0.1308 C   0  0  0  0  0  0  0  0  0  0  0  0
   -3.6813   -1.1522    0.2760 C   0  0  0  0  0  0  0  0  0  0  0  0
   -5.0152   -1.6256    0.2994 C   0  0  0  0  0  0  0  0  0  0  0  0
   -5.8055   -0.5130    0.1915 C   0  0  0  0  0  0  0  0  0  0  0  0
   -5.0413    0.6008    0.1074 O   0  0  0  0  0  0  0  0  0  0  0  0
   -0.7929   -0.1733   -0.8661 C   0  0  0  0  0  0  0  0  0  0  0  0
   -1.4075   -0.9497   -1.5852 O   0  0  0  0  0  0  0  0  0  0  0  0
    5.5686    0.5738    0.4352 H   0  0  0  0  0  0  0  0  0  0  0  0
    5.0818   -0.2303    1.9785 H   0  0  0  0  0  0  0  0  0  0  0  0
    6.4619   -0.8238    1.0467 H   0  0  0  0  0  0  0  0  0  0  0  0
    3.0528   -2.7608   -1.0481 H   0  0  0  0  0  0  0  0  0  0  0  0
    0.6767   -2.3234   -1.5570 H   0  0  0  0  0  0  0  0  0  0  0  0
    3.3130    1.0103    1.0141 H   0  0  0  0  0  0  0  0  0  0  0  0
    1.5079    2.6414    0.5981 H   0  0  0  0  0  0  0  0  0  0  0  0
    0.4751    1.6951    1.6830 H   0  0  0  0  0  0  0  0  0  0  0  0
   -0.1100    2.4876   -1.2287 H   0  0  0  0  0  0  0  0  0  0  0  0
   -0.8970    3.1141    0.2148 H   0  0  0  0  0  0  0  0  0  0  0  0
   -3.0157    2.2035    0.4032 H   0  0  0  0  0  0  0  0  0  0  0  0
   -2.7923   -1.7622    0.3521 H   0  0  0  0  0  0  0  0  0  0  0  0
   -5.3510   -2.6487    0.3863 H   0  0  0  0  0  0  0  0  0  0  0  0
   -6.8737   -0.3510    0.1644 H   0  0  0  0  0  0  0  0  0  0  0  0
  1  2  1  0
  2  3  1  0
  3  4  2  0
  4  5  1  0
  5  6  2  0
  6  7  1  0
  7  8  2  0
  7  9  1  0
  9 10  1  0
 10 11  1  0
 11 12  2  3
 12 13  1  0
 13 14  2  0
 14 15  1  0
 15 16  2  0
 16 17  1  0
 11 18  1  0
 18 19  2  0
  8  3  1  0
 17 13  1  0
 18  6  1  0
  1 20  1  0
  1 21  1  0
  1 22  1  0
  4 23  1  0
  5 24  1  0
  8 25  1  0
  9 26  1  0
  9 27  1  0
 10 28  1  0
 10 29  1  0
 12 30  1  0
 14 31  1  0
 15 32  1  0
 16 33  1  0
M  END
$$$$
