
     RDKit          3D

 30 31  0  0  0  0  0  0  0  0999 V2000
    4.3092   -3.4225   -1.8794 C   0  0  0  0  0  0  0  0  0  0  0  0
    3.8869   -2.1650   -2.3919 O   0  0  0  0  0  0  0  0  0  0  0  0
    2.9178   -1.5043   -1.6898 C   0  0  0  0  0  0  0  0  0  0  0  0
    2.2943   -1.9545   -0.5270 C   0  0  0  0  0  0  0  0  0  0  0  0
    1.3111   -1.1727    0.0927 C   0  0  0  0  0  0  0  0  0  0  0  0
    0.9350    0.0685   -0.4428 C   0  0  0  0  0  0  0  0  0  0  0  0
   -0.0982    0.8984    0.2137 C   0  0  0  0  0  0  0  0  0  0  0  0
    0.2450    2.2262    0.6171 C   0  0  0  0  0  0  0  0  0  0  0  0
    0.5100    3.3157    0.9176 N   0  0  0  0  0  0  0  0  0  0  0  0
   -1.3228    0.3700    0.4105 C   0  0  0  0  0  0  0  0  0  0  0  0
   -2.4770    1.0001    1.0586 C   0  0  0  0  0  0  0  0  0  0  0  0
   -2.9478    2.2649    0.7211 C   0  0  0  0  0  0  0  0  0  0  0  0
   -4.0764    2.7554    1.3742 C   0  0  0  0  0  0  0  0  0  0  0  0
   -4.7078    1.9681    2.3283 C   0  0  0  0  0  0  0  0  0  0  0  0
   -4.1857    0.7125    2.5854 C   0  0  0  0  0  0  0  0  0  0  0  0
   -3.0944    0.2099    1.9661 N   0  0  0  0  0  0  0  0  0  0  0  0
    1.5703    0.5161   -1.6079 C   0  0  0  0  0  0  0  0  0  0  0  0
    2.5507   -0.2675   -2.2239 C   0  0  0  0  0  0  0  0  0  0  0  0
    5.0846   -3.8119   -2.5461 H   0  0  0  0  0  0  0  0  0  0  0  0
    3.4842   -4.1425   -1.8717 H   0  0  0  0  0  0  0  0  0  0  0  0
    4.7501   -3.3149   -0.8828 H   0  0  0  0  0  0  0  0  0  0  0  0
    2.5491   -2.9063   -0.0727 H   0  0  0  0  0  0  0  0  0  0  0  0
    0.8475   -1.5430    1.0059 H   0  0  0  0  0  0  0  0  0  0  0  0
   -1.5277   -0.6575    0.1149 H   0  0  0  0  0  0  0  0  0  0  0  0
   -2.4630    2.8700   -0.0377 H   0  0  0  0  0  0  0  0  0  0  0  0
   -4.4587    3.7444    1.1370 H   0  0  0  0  0  0  0  0  0  0  0  0
   -5.5867    2.3220    2.8553 H   0  0  0  0  0  0  0  0  0  0  0  0
   -4.6454    0.0552    3.3180 H   0  0  0  0  0  0  0  0  0  0  0  0
    1.3109    1.4738   -2.0547 H   0  0  0  0  0  0  0  0  0  0  0  0
    3.0350    0.0912   -3.1294 H   0  0  0  0  0  0  0  0  0  0  0  0
  1  2  1  0
  2  3  1  0
  3  4  2  0
  4  5  1  0
  5  6  2  0
  6  7  1  0
  7  8  1  0
  8  9  3  0
  7 10  2  3
 10 11  1  0
 11 12  2  0
 12 13  1  0
 13 14  2  0
 14 15  1  0
 15 16  2  0
  6 17  1  0
 17 18  2  0
 18  3  1  0
 16 11  1  0
  1 19  1  0
  1 20  1  0
  1 21  1  0
  4 22  1  0
  5 23  1  0
 10 24  1  0
 12 25  1  0
 13 26  1  0
 14 27  1  0
 15 28  1  0
 17 29  1  0
 18 30  1  0
M  END
$$$$
