
     RDKit          3D

 50 53  0  0  0  0  0  0  0  0999 V2000
   -6.7015   -2.8062   -2.0160 C   0  0  0  0  0  0  0  0  0  0  0  0
   -5.6597   -1.7035   -2.0801 C   0  0  0  0  0  0  0  0  0  0  0  0
   -5.0596   -1.5889   -0.7903 O   0  0  0  0  0  0  0  0  0  0  0  0
   -4.0326   -0.6962   -0.6608 C   0  0  0  0  0  0  0  0  0  0  0  0
   -3.6125    0.2168   -1.6274 C   0  0  0  0  0  0  0  0  0  0  0  0
   -2.5465    1.0851   -1.3609 C   0  0  0  0  0  0  0  0  0  0  0  0
   -1.8975    1.0589   -0.1196 C   0  0  0  0  0  0  0  0  0  0  0  0
   -0.7908    1.9685    0.1553 C   0  0  0  0  0  0  0  0  0  0  0  0
    0.5565    1.6767    0.3567 C   0  0  0  0  0  0  0  0  0  0  0  0
    1.2233    0.3793    0.4655 C   0  0  0  0  0  0  0  0  0  0  0  0
    0.6171   -0.6874    0.4749 O   0  0  0  0  0  0  0  0  0  0  0  0
    2.6024    0.5115    0.5656 N   0  0  0  0  0  0  0  0  0  0  0  0
    3.4042   -0.5849    0.6758 N   0  0  0  0  0  0  0  0  0  0  0  0
    4.6728   -0.3393    0.7528 C   0  0  0  0  0  0  0  0  0  0  0  0
    5.6678   -1.4237    0.8734 C   0  0  0  0  0  0  0  0  0  0  0  0
    5.2671   -2.7633    0.8998 C   0  0  0  0  0  0  0  0  0  0  0  0
    6.2264   -3.7703    1.0133 C   0  0  0  0  0  0  0  0  0  0  0  0
    7.5734   -3.4330    1.1006 C   0  0  0  0  0  0  0  0  0  0  0  0
    8.4744   -4.4500    1.2101 O   0  0  0  0  0  0  0  0  0  0  0  0
    7.9822   -2.1017    1.0754 C   0  0  0  0  0  0  0  0  0  0  0  0
    7.0243   -1.0904    0.9606 C   0  0  0  0  0  0  0  0  0  0  0  0
    1.2736    2.8409    0.3956 N   0  0  0  0  0  0  0  0  0  0  0  0
    0.4415    3.8451    0.2092 N   0  0  0  0  0  0  0  0  0  0  0  0
   -0.8416    3.3709    0.1426 N   0  0  0  0  0  0  0  0  0  0  0  0
   -1.9413    4.2754    0.0788 C   0  0  0  0  0  0  0  0  0  0  0  0
   -1.6628    5.5475   -0.2335 N   0  0  0  0  0  0  0  0  0  0  0  0
   -2.8924    6.1847   -0.2708 O   0  0  0  0  0  0  0  0  0  0  0  0
   -3.9136    5.3108    0.0572 N   0  0  0  0  0  0  0  0  0  0  0  0
   -3.3269    4.1386    0.3026 C   0  0  0  0  0  0  0  0  0  0  0  0
   -4.0307    3.0805    0.7447 N   0  0  0  0  0  0  0  0  0  0  0  0
   -2.3094    0.1268    0.8396 C   0  0  0  0  0  0  0  0  0  0  0  0
   -3.3747   -0.7367    0.5705 C   0  0  0  0  0  0  0  0  0  0  0  0
   -7.1834   -2.9439   -2.9884 H   0  0  0  0  0  0  0  0  0  0  0  0
   -7.4693   -2.5671   -1.2719 H   0  0  0  0  0  0  0  0  0  0  0  0
   -6.2430   -3.7530   -1.7092 H   0  0  0  0  0  0  0  0  0  0  0  0
   -6.1511   -0.7628   -2.3547 H   0  0  0  0  0  0  0  0  0  0  0  0
   -4.9049   -1.9684   -2.8300 H   0  0  0  0  0  0  0  0  0  0  0  0
   -4.0909    0.2817   -2.5992 H   0  0  0  0  0  0  0  0  0  0  0  0
   -2.2332    1.7779   -2.1395 H   0  0  0  0  0  0  0  0  0  0  0  0
    3.0060    1.4440    0.5462 H   0  0  0  0  0  0  0  0  0  0  0  0
    5.0662    0.6934    0.7314 H   0  0  0  0  0  0  0  0  0  0  0  0
    4.2142   -3.0289    0.8320 H   0  0  0  0  0  0  0  0  0  0  0  0
    5.9226   -4.8134    1.0335 H   0  0  0  0  0  0  0  0  0  0  0  0
    9.3684   -4.0745    1.2720 H   0  0  0  0  0  0  0  0  0  0  0  0
    9.0328   -1.8357    1.1434 H   0  0  0  0  0  0  0  0  0  0  0  0
    7.3467   -0.0523    0.9409 H   0  0  0  0  0  0  0  0  0  0  0  0
   -4.9989    3.2455    1.0061 H   0  0  0  0  0  0  0  0  0  0  0  0
   -3.6139    2.3298    1.2830 H   0  0  0  0  0  0  0  0  0  0  0  0
   -1.7990    0.0469    1.7975 H   0  0  0  0  0  0  0  0  0  0  0  0
   -3.6822   -1.4616    1.3212 H   0  0  0  0  0  0  0  0  0  0  0  0
  1  2  1  0
  2  3  1  0
  3  4  1  0
  4  5  2  0
  5  6  1  0
  6  7  2  0
  7  8  1  0
  8  9  2  0
  9 10  1  0
 10 11  2  0
 10 12  1  0
 12 13  1  0
 13 14  2  3
 14 15  1  0
 15 16  2  0
 16 17  1  0
 17 18  2  0
 18 19  1  0
 18 20  1  0
 20 21  2  0
  9 22  1  0
 22 23  2  0
 23 24  1  0
 24 25  1  0
 25 26  2  0
 26 27  1  0
 27 28  1  0
 28 29  2  0
 29 30  1  0
  7 31  1  0
 31 32  2  0
 32  4  1  0
 24  8  1  0
 29 25  1  0
 21 15  1  0
  1 33  1  0
  1 34  1  0
  1 35  1  0
  2 36  1  0
  2 37  1  0
  5 38  1  0
  6 39  1  0
 12 40  1  0
 14 41  1  0
 16 42  1  0
 17 43  1  0
 19 44  1  0
 20 45  1  0
 21 46  1  0
 30 47  1  0
 30 48  1  0
 31 49  1  0
 32 50  1  0
M  END
$$$$
