
     RDKit          3D

 56 59  0  0  0  0  0  0  0  0999 V2000
    9.0486   -0.4911    1.3318 C   0  0  0  0  0  0  0  0  0  0  0  0
    8.2336   -1.2397    0.4378 O   0  0  0  0  0  0  0  0  0  0  0  0
    6.8878   -1.2401    0.6776 C   0  0  0  0  0  0  0  0  0  0  0  0
    6.1406   -2.0285   -0.2038 C   0  0  0  0  0  0  0  0  0  0  0  0
    4.7533   -2.1203   -0.0784 C   0  0  0  0  0  0  0  0  0  0  0  0
    4.1058   -1.3969    0.9252 C   0  0  0  0  0  0  0  0  0  0  0  0
    2.3341   -1.5240    1.1048 S   0  0  0  0  0  6  0  0  0  0  0  0
    1.9404   -2.7914    0.5278 O   0  0  0  0  0  0  0  0  0  0  0  0
    2.0247   -1.1830    2.4766 O   0  0  0  0  0  0  0  0  0  0  0  0
    1.7481   -0.3039    0.1216 N   0  0  0  0  0  0  0  0  0  0  0  0
    1.9574   -0.3417   -1.3249 C   0  0  0  0  0  0  0  0  0  0  0  0
    2.6904    0.9543   -1.5890 C   0  0  0  0  0  0  0  0  0  0  0  0
    2.1572    1.8650   -0.6218 O   0  0  0  0  0  0  0  0  0  0  0  0
    1.9062    1.0861    0.5687 C   0  0  0  0  0  0  0  0  0  0  0  0
    0.6285    1.6230    1.2502 C   0  0  0  0  0  0  0  0  0  0  0  0
   -0.5491    1.5033    0.4016 N   0  0  0  0  0  0  0  0  0  0  0  0
   -1.3835    0.4116    0.4767 C   0  0  0  0  0  0  0  0  0  0  0  0
   -1.4429   -0.3994    1.3894 O   0  0  0  0  0  0  0  0  0  0  0  0
   -2.2998    0.2502   -0.7568 C   0  0  0  0  0  0  0  0  0  0  0  0
   -2.1966    1.0195   -1.7026 O   0  0  0  0  0  0  0  0  0  0  0  0
   -3.1732   -0.8043   -0.6528 N   0  0  0  0  0  0  0  0  0  0  0  0
   -4.2062   -1.0581   -1.6202 C   0  0  0  0  0  0  0  0  0  0  0  0
   -5.5290   -0.5143   -1.1455 C   0  0  0  0  0  0  0  0  0  0  0  0
   -6.4283   -1.3414   -0.4328 C   0  0  0  0  0  0  0  0  0  0  0  0
   -7.6485   -0.8424    0.0344 C   0  0  0  0  0  0  0  0  0  0  0  0
   -7.9385    0.4808   -0.2167 C   0  0  0  0  0  0  0  0  0  0  0  0
   -7.0677    1.2960   -0.8999 C   0  0  0  0  0  0  0  0  0  0  0  0
   -5.8583    0.8331   -1.3731 C   0  0  0  0  0  0  0  0  0  0  0  0
   -7.5413    2.5636   -1.0349 O   0  0  0  0  0  0  0  0  0  0  0  0
   -8.8099    2.4523   -0.3578 C   0  0  0  0  0  0  0  0  0  0  0  0
   -9.0701    1.1322    0.1633 O   0  0  0  0  0  0  0  0  0  0  0  0
    4.8454   -0.6318    1.8316 C   0  0  0  0  0  0  0  0  0  0  0  0
    6.2358   -0.5471    1.6997 C   0  0  0  0  0  0  0  0  0  0  0  0
    8.9671   -0.8732    2.3553 H   0  0  0  0  0  0  0  0  0  0  0  0
    8.8049    0.5757    1.2867 H   0  0  0  0  0  0  0  0  0  0  0  0
   10.0891   -0.6088    1.0140 H   0  0  0  0  0  0  0  0  0  0  0  0
    6.6492   -2.5859   -0.9876 H   0  0  0  0  0  0  0  0  0  0  0  0
    4.1951   -2.7615   -0.7567 H   0  0  0  0  0  0  0  0  0  0  0  0
    0.9742   -0.3362   -1.8082 H   0  0  0  0  0  0  0  0  0  0  0  0
    2.5076   -1.2103   -1.6894 H   0  0  0  0  0  0  0  0  0  0  0  0
    3.7673    0.8559   -1.4139 H   0  0  0  0  0  0  0  0  0  0  0  0
    2.5258    1.3378   -2.5992 H   0  0  0  0  0  0  0  0  0  0  0  0
    2.7678    1.2231    1.2272 H   0  0  0  0  0  0  0  0  0  0  0  0
    0.7454    2.6925    1.4542 H   0  0  0  0  0  0  0  0  0  0  0  0
    0.4483    1.1004    2.1948 H   0  0  0  0  0  0  0  0  0  0  0  0
   -0.5517    1.9997   -0.4860 H   0  0  0  0  0  0  0  0  0  0  0  0
   -3.1759   -1.2986    0.2354 H   0  0  0  0  0  0  0  0  0  0  0  0
   -3.9412   -0.6191   -2.5888 H   0  0  0  0  0  0  0  0  0  0  0  0
   -4.2672   -2.1427   -1.7609 H   0  0  0  0  0  0  0  0  0  0  0  0
   -6.1755   -2.3822   -0.2382 H   0  0  0  0  0  0  0  0  0  0  0  0
   -8.3422   -1.4718    0.5800 H   0  0  0  0  0  0  0  0  0  0  0  0
   -5.1820    1.4988   -1.9008 H   0  0  0  0  0  0  0  0  0  0  0  0
   -9.6072    2.7134   -1.0631 H   0  0  0  0  0  0  0  0  0  0  0  0
   -8.8281    3.1670    0.4732 H   0  0  0  0  0  0  0  0  0  0  0  0
    4.3544   -0.1064    2.6481 H   0  0  0  0  0  0  0  0  0  0  0  0
    6.7800    0.0603    2.4161 H   0  0  0  0  0  0  0  0  0  0  0  0
  1  2  1  0
  2  3  1  0
  3  4  2  0
  4  5  1  0
  5  6  2  0
  6  7  1  0
  7  8  2  0
  7  9  2  0
  7 10  1  0
 10 11  1  0
 11 12  1  0
 12 13  1  0
 13 14  1  0
 14 15  1  0
 15 16  1  0
 16 17  1  0
 17 18  2  0
 17 19  1  0
 19 20  2  0
 19 21  1  0
 21 22  1  0
 22 23  1  0
 23 24  2  0
 24 25  1  0
 25 26  2  0
 26 27  1  0
 27 28  2  0
 27 29  1  0
 29 30  1  0
 30 31  1  0
  6 32  1  0
 32 33  2  0
 33  3  1  0
 14 10  1  0
 28 23  1  0
 31 26  1  0
  1 34  1  0
  1 35  1  0
  1 36  1  0
  4 37  1  0
  5 38  1  0
 11 39  1  0
 11 40  1  0
 12 41  1  0
 12 42  1  0
 14 43  1  0
 15 44  1  0
 15 45  1  0
 16 46  1  0
 21 47  1  0
 22 48  1  0
 22 49  1  0
 24 50  1  0
 25 51  1  0
 28 52  1  0
 30 53  1  0
 30 54  1  0
 32 55  1  0
 33 56  1  0
M  END
$$$$
