
     RDKit          3D

 53 56  0  0  0  0  0  0  0  0999 V2000
   -8.0560    1.7907   -1.5509 C   0  0  0  0  0  0  0  0  0  0  0  0
   -6.6737    1.4584   -1.0732 C   0  0  0  0  0  0  0  0  0  0  0  0
   -5.9062    2.4173   -0.4076 C   0  0  0  0  0  0  0  0  0  0  0  0
   -4.6287    2.1001    0.0633 C   0  0  0  0  0  0  0  0  0  0  0  0
   -4.1029    0.8073   -0.0994 C   0  0  0  0  0  0  0  0  0  0  0  0
   -2.7895    0.5313    0.3939 N   0  0  0  0  0  0  0  0  0  0  0  0
   -1.9735    1.5797    0.6891 N   0  0  0  0  0  0  0  0  0  0  0  0
   -0.7752    1.0396    0.9139 C   0  0  0  0  0  0  0  0  0  0  0  0
    0.4560    1.7615    1.2088 C   0  0  0  0  0  0  0  0  0  0  0  0
    0.5381    2.9862    1.2437 O   0  0  0  0  0  0  0  0  0  0  0  0
    1.5445    0.8984    1.4516 N   0  0  0  0  0  0  0  0  0  0  0  0
    2.8432    1.4881    1.7825 C   0  0  0  0  0  0  0  0  0  0  0  0
    3.7428    1.6734    0.5588 C   0  0  0  0  0  0  0  0  0  0  0  0
    4.7396    2.3912    0.5912 O   0  0  0  0  0  0  0  0  0  0  0  0
    3.4120    0.8869   -0.5236 N   0  0  0  0  0  0  0  0  0  0  0  0
    4.2332    0.7840   -1.7152 C   0  0  0  0  0  0  0  0  0  0  0  0
    4.6766   -0.6561   -1.9934 C   0  0  0  0  0  0  0  0  0  0  0  0
    5.5993   -1.1982   -0.9387 C   0  0  0  0  0  0  0  0  0  0  0  0
    5.2700   -1.8613    0.2277 C   0  0  0  0  0  0  0  0  0  0  0  0
    6.4187   -2.2214    0.9890 C   0  0  0  0  0  0  0  0  0  0  0  0
    7.5864   -1.8262    0.3765 C   0  0  0  0  0  0  0  0  0  0  0  0
    7.2959   -1.0298   -1.1078 S   0  0  0  0  0  0  0  0  0  0  0  0
    1.5002   -0.5022    1.3638 N   0  0  0  0  0  0  0  0  0  0  0  0
    0.3841   -1.1241    1.0978 C   0  0  0  0  0  0  0  0  0  0  0  0
    0.4039   -2.6246    1.0287 C   0  0  0  0  0  0  0  0  0  0  0  0
   -0.8157   -0.3578    0.8708 C   0  0  0  0  0  0  0  0  0  0  0  0
   -2.1409   -0.6869    0.6372 C   0  0  0  0  0  0  0  0  0  0  0  0
   -2.8164   -2.0096    0.6865 C   0  0  0  0  0  0  0  0  0  0  0  0
   -4.8690   -0.1476   -0.7759 C   0  0  0  0  0  0  0  0  0  0  0  0
   -6.1483    0.1743   -1.2474 C   0  0  0  0  0  0  0  0  0  0  0  0
   -8.7800    1.6212   -0.7479 H   0  0  0  0  0  0  0  0  0  0  0  0
   -8.1169    2.8368   -1.8693 H   0  0  0  0  0  0  0  0  0  0  0  0
   -8.3327    1.1729   -2.4118 H   0  0  0  0  0  0  0  0  0  0  0  0
   -6.2924    3.4226   -0.2522 H   0  0  0  0  0  0  0  0  0  0  0  0
   -4.0581    2.8771    0.5711 H   0  0  0  0  0  0  0  0  0  0  0  0
    3.3545    0.8280    2.4914 H   0  0  0  0  0  0  0  0  0  0  0  0
    2.6986    2.4663    2.2522 H   0  0  0  0  0  0  0  0  0  0  0  0
    2.6256    0.2574   -0.3987 H   0  0  0  0  0  0  0  0  0  0  0  0
    5.0977    1.4523   -1.6411 H   0  0  0  0  0  0  0  0  0  0  0  0
    3.6109    1.1333   -2.5462 H   0  0  0  0  0  0  0  0  0  0  0  0
    5.1625   -0.6974   -2.9762 H   0  0  0  0  0  0  0  0  0  0  0  0
    3.7935   -1.3052   -2.0587 H   0  0  0  0  0  0  0  0  0  0  0  0
    4.2506   -2.0680    0.5296 H   0  0  0  0  0  0  0  0  0  0  0  0
    6.3907   -2.7386    1.9399 H   0  0  0  0  0  0  0  0  0  0  0  0
    8.5996   -1.9627    0.7290 H   0  0  0  0  0  0  0  0  0  0  0  0
   -0.0853   -3.0368    1.9150 H   0  0  0  0  0  0  0  0  0  0  0  0
   -0.1103   -2.9699    0.1282 H   0  0  0  0  0  0  0  0  0  0  0  0
    1.4352   -2.9893    1.0010 H   0  0  0  0  0  0  0  0  0  0  0  0
   -3.8474   -1.9298    1.0432 H   0  0  0  0  0  0  0  0  0  0  0  0
   -2.8027   -2.4897   -0.2964 H   0  0  0  0  0  0  0  0  0  0  0  0
   -2.3158   -2.6780    1.3924 H   0  0  0  0  0  0  0  0  0  0  0  0
   -4.4980   -1.1397   -1.0005 H   0  0  0  0  0  0  0  0  0  0  0  0
   -6.7283   -0.5854   -1.7680 H   0  0  0  0  0  0  0  0  0  0  0  0
  1  2  1  0
  2  3  2  0
  3  4  1  0
  4  5  2  0
  5  6  1  0
  6  7  1  0
  7  8  2  0
  8  9  1  0
  9 10  2  0
  9 11  1  0
 11 12  1  0
 12 13  1  0
 13 14  2  0
 13 15  1  0
 15 16  1  0
 16 17  1  0
 17 18  1  0
 18 19  2  0
 19 20  1  0
 20 21  2  0
 21 22  1  0
 11 23  1  0
 23 24  2  0
 24 25  1  0
 24 26  1  0
 26 27  2  0
 27 28  1  0
  5 29  1  0
 29 30  2  0
 30  2  1  0
 27  6  1  0
 26  8  1  0
 22 18  1  0
  1 31  1  0
  1 32  1  0
  1 33  1  0
  3 34  1  0
  4 35  1  0
 12 36  1  0
 12 37  1  0
 15 38  1  0
 16 39  1  0
 16 40  1  0
 17 41  1  0
 17 42  1  0
 19 43  1  0
 20 44  1  0
 21 45  1  0
 25 46  1  0
 25 47  1  0
 25 48  1  0
 28 49  1  0
 28 50  1  0
 28 51  1  0
 29 52  1  0
 30 53  1  0
M  END
$$$$
