
     RDKit          3D

 46 48  0  0  0  0  0  0  0  0999 V2000
   -2.1195   -2.0506   -1.9263 C   0  0  0  0  0  0  0  0  0  0  0  0
   -2.1247   -0.5710   -1.5898 C   0  0  0  0  0  0  0  0  0  0  0  0
   -2.6307   -0.3653   -0.1989 N   0  0  0  0  0  4  0  0  0  0  0  0
   -1.7334   -0.2680    0.8287 C   0  0  0  0  0  0  0  0  0  0  0  0
   -0.2953   -0.4651    0.6034 C   0  0  0  0  0  0  0  0  0  0  0  0
    0.5915    0.5355    0.7310 C   0  0  0  0  0  0  0  0  0  0  0  0
    2.0424    0.3746    0.5432 C   0  0  0  0  0  0  0  0  0  0  0  0
    2.5846   -0.4794   -0.4226 C   0  0  0  0  0  0  0  0  0  0  0  0
    3.9700   -0.5817   -0.5872 C   0  0  0  0  0  0  0  0  0  0  0  0
    4.8351    0.1765    0.2053 C   0  0  0  0  0  0  0  0  0  0  0  0
    6.2032    0.1418    0.1143 O   0  0  0  0  0  0  0  0  0  0  0  0
    6.7863   -0.7433   -0.8311 C   0  0  0  0  0  0  0  0  0  0  0  0
    4.3010    1.0523    1.1702 C   0  0  0  0  0  0  0  0  0  0  0  0
    5.2158    1.7666    1.9025 O   0  0  0  0  0  0  0  0  0  0  0  0
    4.7321    2.6595    2.8947 C   0  0  0  0  0  0  0  0  0  0  0  0
    2.9117    1.1479    1.3269 C   0  0  0  0  0  0  0  0  0  0  0  0
   -2.1641   -0.0105    2.1307 C   0  0  0  0  0  0  0  0  0  0  0  0
   -3.5102    0.1496    2.3980 C   0  0  0  0  0  0  0  0  0  0  0  0
   -4.4289    0.0372    1.3625 C   0  0  0  0  0  0  0  0  0  0  0  0
   -5.7970    0.1865    1.6343 C   0  0  0  0  0  0  0  0  0  0  0  0
   -6.7400    0.0684    0.6177 C   0  0  0  0  0  0  0  0  0  0  0  0
   -6.3258   -0.2036   -0.6786 C   0  0  0  0  0  0  0  0  0  0  0  0
   -4.9644   -0.3535   -0.9649 C   0  0  0  0  0  0  0  0  0  0  0  0
   -3.9815   -0.2317    0.0385 C   0  0  0  0  0  0  0  0  0  0  0  0
   -1.4790   -2.6129   -1.2403 H   0  0  0  0  0  0  0  0  0  0  0  0
   -3.1227   -2.4824   -1.8647 H   0  0  0  0  0  0  0  0  0  0  0  0
   -1.7459   -2.2048   -2.9431 H   0  0  0  0  0  0  0  0  0  0  0  0
   -1.1224   -0.1442   -1.6838 H   0  0  0  0  0  0  0  0  0  0  0  0
   -2.7406    0.0092   -2.2824 H   0  0  0  0  0  0  0  0  0  0  0  0
    0.0156   -1.4766    0.3557 H   0  0  0  0  0  0  0  0  0  0  0  0
    0.2716    1.5388    1.0121 H   0  0  0  0  0  0  0  0  0  0  0  0
    1.9487   -1.0734   -1.0728 H   0  0  0  0  0  0  0  0  0  0  0  0
    4.3449   -1.2590   -1.3478 H   0  0  0  0  0  0  0  0  0  0  0  0
    7.8736   -0.6470   -0.7538 H   0  0  0  0  0  0  0  0  0  0  0  0
    6.5002   -0.4727   -1.8527 H   0  0  0  0  0  0  0  0  0  0  0  0
    6.5278   -1.7840   -0.6098 H   0  0  0  0  0  0  0  0  0  0  0  0
    4.1246    3.4535    2.4482 H   0  0  0  0  0  0  0  0  0  0  0  0
    4.1751    2.1235    3.6701 H   0  0  0  0  0  0  0  0  0  0  0  0
    5.5967    3.1307    3.3718 H   0  0  0  0  0  0  0  0  0  0  0  0
    2.4901    1.8203    2.0673 H   0  0  0  0  0  0  0  0  0  0  0  0
   -1.4477    0.0588    2.9488 H   0  0  0  0  0  0  0  0  0  0  0  0
   -3.8318    0.3508    3.4198 H   0  0  0  0  0  0  0  0  0  0  0  0
   -6.1484    0.3950    2.6452 H   0  0  0  0  0  0  0  0  0  0  0  0
   -7.7999    0.1847    0.8403 H   0  0  0  0  0  0  0  0  0  0  0  0
   -7.0671   -0.3024   -1.4710 H   0  0  0  0  0  0  0  0  0  0  0  0
   -4.7215   -0.5783   -1.9987 H   0  0  0  0  0  0  0  0  0  0  0  0
  1  2  1  0
  2  3  1  0
  3  4  2  0
  4  5  1  0
  5  6  2  3
  6  7  1  0
  7  8  2  0
  8  9  1  0
  9 10  2  0
 10 11  1  0
 11 12  1  0
 10 13  1  0
 13 14  1  0
 14 15  1  0
 13 16  2  0
  4 17  1  0
 17 18  2  0
 18 19  1  0
 19 20  2  0
 20 21  1  0
 21 22  2  0
 22 23  1  0
 23 24  2  0
 24  3  1  0
 16  7  1  0
 24 19  1  0
  1 25  1  0
  1 26  1  0
  1 27  1  0
  2 28  1  0
  2 29  1  0
  5 30  1  0
  6 31  1  0
  8 32  1  0
  9 33  1  0
 12 34  1  0
 12 35  1  0
 12 36  1  0
 15 37  1  0
 15 38  1  0
 15 39  1  0
 16 40  1  0
 17 41  1  0
 18 42  1  0
 20 43  1  0
 21 44  1  0
 22 45  1  0
 23 46  1  0
M  CHG  1   3   1
M  END
$$$$
