
     RDKit          3D

 84 89  0  0  0  0  0  0  0  0999 V2000
    9.9519   -4.3776   -0.8588 C   0  0  0  0  0  0  0  0  0  0  0  0
    9.1127   -3.2832   -1.2302 O   0  0  0  0  0  0  0  0  0  0  0  0
    9.5721   -2.0682   -0.8137 C   0  0  0  0  0  0  0  0  0  0  0  0
   10.6051   -1.8884   -0.1839 O   0  0  0  0  0  0  0  0  0  0  0  0
    8.6129   -0.9861   -1.2562 C   0  0  0  0  0  0  0  0  0  0  0  0
    8.9986    0.3779   -0.6839 C   0  0  0  0  0  0  0  0  0  0  0  0
    8.1154    1.5276   -1.1748 C   0  0  0  0  0  0  0  0  0  0  0  0
    6.6437    1.3850   -0.7749 C   0  0  0  0  0  0  0  0  0  0  0  0
    5.8682    2.6730   -1.0658 C   0  0  0  0  0  0  0  0  0  0  0  0
    4.3549    2.5470   -0.8591 C   0  0  0  0  0  0  0  0  0  0  0  0
    3.9643    2.1059    0.5568 C   0  0  0  0  0  0  0  0  0  0  0  0
    2.4646    2.2364    0.8413 C   0  0  0  0  0  0  0  0  0  0  0  0
    1.6001    1.2092    0.1180 C   0  0  0  0  0  0  0  0  0  0  0  0
    2.0827    0.4015   -0.6742 O   0  0  0  0  0  0  0  0  0  0  0  0
    0.2418    1.2387    0.4014 N   0  0  0  0  0  0  0  0  0  0  0  0
   -0.3784    2.1388    1.3832 C   0  0  0  0  0  0  0  0  0  0  0  0
   -1.9189    2.0452    1.4041 C   0  0  0  0  0  0  0  0  0  0  0  0
   -2.3664    0.6768    1.6413 N   0  0  0  0  0  0  0  0  0  0  0  0
   -1.6458   -0.3446    0.7882 C   0  0  2  0  0  0  0  0  0  0  0  0
   -0.6493    0.2521   -0.2246 C   0  0  0  0  0  0  0  0  0  0  0  0
   -2.7582   -1.0934    0.1697 C   0  0  0  0  0  0  0  0  0  0  0  0
   -3.9948   -0.6918    0.6668 C   0  0  0  0  0  0  0  0  0  0  0  0
   -4.9726   -1.4503    0.0768 C   0  0  0  0  0  0  0  0  0  0  0  0
   -6.2923   -1.3322    0.2059 O   0  0  0  0  0  0  0  0  0  0  0  0
   -4.3254   -2.3640   -0.7764 N   0  0  0  0  0  0  0  0  0  0  0  0
   -4.9624   -3.3610   -1.5708 C   0  0  0  0  0  0  0  0  0  0  0  0
   -4.5016   -3.6255   -2.8686 C   0  0  0  0  0  0  0  0  0  0  0  0
   -5.1262   -4.6054   -3.6418 C   0  0  0  0  0  0  0  0  0  0  0  0
   -6.2056   -5.3228   -3.1238 C   0  0  0  0  0  0  0  0  0  0  0  0
   -6.6649   -5.0634   -1.8326 C   0  0  0  0  0  0  0  0  0  0  0  0
   -6.0476   -4.0834   -1.0540 C   0  0  0  0  0  0  0  0  0  0  0  0
   -2.9411   -2.1267   -0.7062 C   0  0  0  0  0  0  0  0  0  0  0  0
   -2.0097   -2.8501   -1.3250 O   0  0  0  0  0  0  0  0  0  0  0  0
   -3.8435    0.4096    1.6377 C   0  0  1  0  0  0  0  0  0  0  0  0
   -4.3113    0.0223    3.0724 C   0  0  0  0  0  0  0  0  0  0  0  0
   -3.8811   -0.8564    3.8089 O   0  0  0  0  0  0  0  0  0  0  0  0
   -5.3485    0.8932    3.4076 N   0  0  0  0  0  0  0  0  0  0  0  0
   -5.6651    1.7538    2.3592 C   0  0  0  0  0  0  0  0  0  0  0  0
   -4.8111    1.5097    1.2699 C   0  0  0  0  0  0  0  0  0  0  0  0
   -4.9783    2.2081    0.0821 C   0  0  0  0  0  0  0  0  0  0  0  0
   -5.9957    3.1609    0.0126 C   0  0  0  0  0  0  0  0  0  0  0  0
   -6.8344    3.4037    1.1183 C   0  0  0  0  0  0  0  0  0  0  0  0
   -8.0819    4.5867    0.9168 Cl  0  0  0  0  0  0  0  0  0  0  0  0
   -6.6821    2.7026    2.3294 C   0  0  0  0  0  0  0  0  0  0  0  0
   -7.5981    2.9310    3.4947 C   0  0  0  0  0  0  0  0  0  0  0  0
    9.5094   -5.2957   -1.2554 H   0  0  0  0  0  0  0  0  0  0  0  0
   10.0080   -4.4618    0.2322 H   0  0  0  0  0  0  0  0  0  0  0  0
   10.9520   -4.2628   -1.2932 H   0  0  0  0  0  0  0  0  0  0  0  0
    7.6122   -1.2652   -0.9112 H   0  0  0  0  0  0  0  0  0  0  0  0
    8.6189   -0.9489   -2.3506 H   0  0  0  0  0  0  0  0  0  0  0  0
    8.9721    0.3367    0.4131 H   0  0  0  0  0  0  0  0  0  0  0  0
   10.0385    0.6070   -0.9534 H   0  0  0  0  0  0  0  0  0  0  0  0
    8.1929    1.6134   -2.2654 H   0  0  0  0  0  0  0  0  0  0  0  0
    8.5136    2.4603   -0.7565 H   0  0  0  0  0  0  0  0  0  0  0  0
    6.5824    1.1534    0.2942 H   0  0  0  0  0  0  0  0  0  0  0  0
    6.1867    0.5525   -1.3213 H   0  0  0  0  0  0  0  0  0  0  0  0
    6.2514    3.4793   -0.4290 H   0  0  0  0  0  0  0  0  0  0  0  0
    6.0493    2.9792   -2.1045 H   0  0  0  0  0  0  0  0  0  0  0  0
    3.9560    1.8419   -1.5971 H   0  0  0  0  0  0  0  0  0  0  0  0
    3.8983    3.5216   -1.0778 H   0  0  0  0  0  0  0  0  0  0  0  0
    4.5037    2.7266    1.2821 H   0  0  0  0  0  0  0  0  0  0  0  0
    4.2777    1.0688    0.7250 H   0  0  0  0  0  0  0  0  0  0  0  0
    2.1274    3.2431    0.5759 H   0  0  0  0  0  0  0  0  0  0  0  0
    2.3186    2.0930    1.9188 H   0  0  0  0  0  0  0  0  0  0  0  0
   -0.0756    3.1668    1.1571 H   0  0  0  0  0  0  0  0  0  0  0  0
    0.0254    1.8791    2.3707 H   0  0  0  0  0  0  0  0  0  0  0  0
   -2.2862    2.4262    0.4448 H   0  0  0  0  0  0  0  0  0  0  0  0
   -2.2968    2.7036    2.1938 H   0  0  0  0  0  0  0  0  0  0  0  0
   -1.1009   -1.0023    1.4773 H   0  0  0  0  0  0  0  0  0  0  0  0
   -0.0760   -0.5523   -0.6977 H   0  0  0  0  0  0  0  0  0  0  0  0
   -1.1781    0.7774   -1.0312 H   0  0  0  0  0  0  0  0  0  0  0  0
   -6.7279   -1.7249   -0.5717 H   0  0  0  0  0  0  0  0  0  0  0  0
   -3.6876   -3.0521   -3.3112 H   0  0  0  0  0  0  0  0  0  0  0  0
   -4.7777   -4.8054   -4.6528 H   0  0  0  0  0  0  0  0  0  0  0  0
   -6.6865   -6.0893   -3.7267 H   0  0  0  0  0  0  0  0  0  0  0  0
   -7.4959   -5.6373   -1.4255 H   0  0  0  0  0  0  0  0  0  0  0  0
   -6.3921   -3.9358   -0.0316 H   0  0  0  0  0  0  0  0  0  0  0  0
   -2.3712   -3.7327   -1.5269 H   0  0  0  0  0  0  0  0  0  0  0  0
   -5.8333    0.8189    4.2883 H   0  0  0  0  0  0  0  0  0  0  0  0
   -4.3501    2.0063   -0.7806 H   0  0  0  0  0  0  0  0  0  0  0  0
   -6.1475    3.7096   -0.9160 H   0  0  0  0  0  0  0  0  0  0  0  0
   -7.2298    2.4589    4.4115 H   0  0  0  0  0  0  0  0  0  0  0  0
   -8.5916    2.5212    3.2824 H   0  0  0  0  0  0  0  0  0  0  0  0
   -7.6861    3.9997    3.7185 H   0  0  0  0  0  0  0  0  0  0  0  0
  1  2  1  0
  2  3  1  0
  3  4  2  0
  3  5  1  0
  5  6  1  0
  6  7  1  0
  7  8  1  0
  8  9  1  0
  9 10  1  0
 10 11  1  0
 11 12  1  0
 12 13  1  0
 13 14  2  0
 13 15  1  0
 15 16  1  0
 16 17  1  0
 17 18  1  0
 18 19  1  0
 19 20  1  0
 19 21  1  0
 21 22  1  0
 22 23  2  0
 23 24  1  0
 23 25  1  0
 25 26  1  0
 26 27  2  0
 27 28  1  0
 28 29  2  0
 29 30  1  0
 30 31  2  0
 25 32  1  0
 32 33  1  0
 22 34  1  0
 34 35  1  0
 35 36  2  0
 35 37  1  0
 37 38  1  0
 38 39  2  0
 39 40  1  0
 40 41  2  0
 41 42  1  0
 42 43  1  0
 42 44  2  0
 44 45  1  0
 20 15  1  0
 32 21  2  0
 39 34  1  0
 34 18  1  1
 44 38  1  0
 31 26  1  0
  1 46  1  0
  1 47  1  0
  1 48  1  0
  5 49  1  0
  5 50  1  0
  6 51  1  0
  6 52  1  0
  7 53  1  0
  7 54  1  0
  8 55  1  0
  8 56  1  0
  9 57  1  0
  9 58  1  0
 10 59  1  0
 10 60  1  0
 11 61  1  0
 11 62  1  0
 12 63  1  0
 12 64  1  0
 16 65  1  0
 16 66  1  0
 17 67  1  0
 17 68  1  0
 19 69  1  1
 20 70  1  0
 20 71  1  0
 24 72  1  0
 27 73  1  0
 28 74  1  0
 29 75  1  0
 30 76  1  0
 31 77  1  0
 33 78  1  0
 37 79  1  0
 40 80  1  0
 41 81  1  0
 45 82  1  0
 45 83  1  0
 45 84  1  0
M  END
$$$$
