
     RDKit          3D

 36 38  0  0  0  0  0  0  0  0999 V2000
   -2.0795    3.4427    0.9588 C   0  0  0  0  0  0  0  0  0  0  0  0
   -2.2794    2.1759    0.3325 O   0  0  0  0  0  0  0  0  0  0  0  0
   -1.1524    1.4086    0.2538 C   0  0  0  0  0  0  0  0  0  0  0  0
   -0.0559    1.7597    0.6770 O   0  0  0  0  0  0  0  0  0  0  0  0
   -1.3876    0.1206   -0.3935 C   0  0  0  0  0  0  0  0  0  0  0  0
   -0.3807   -0.8246   -0.6133 C   0  0  0  0  0  0  0  0  0  0  0  0
    0.9520   -0.7020   -0.2610 N   0  0  0  0  0  0  0  0  0  0  0  0
    1.9797   -1.6047   -0.4572 C   0  0  0  0  0  0  0  0  0  0  0  0
    1.9207   -2.7074   -0.9884 O   0  0  0  0  0  0  0  0  0  0  0  0
    3.2582   -1.0872    0.0697 C   0  0  0  0  0  0  0  0  0  0  0  0
    4.5206   -1.7355    0.0454 C   0  0  0  0  0  0  0  0  0  0  0  0
    5.3927   -0.8621    0.6493 C   0  0  0  0  0  0  0  0  0  0  0  0
    4.6506    0.2261    0.9957 N   0  0  0  0  0  0  0  0  0  0  0  0
    5.1176    1.4190    1.6600 C   0  0  0  0  0  0  0  0  0  0  0  0
    3.3518    0.1237    0.6590 N   0  0  0  0  0  0  0  0  0  0  0  0
   -0.9543   -2.2352   -1.4060 S   0  0  0  0  0  0  0  0  0  0  0  0
   -2.5002   -1.6201   -1.4566 C   0  0  0  0  0  0  0  0  0  0  0  0
   -2.6241   -0.3810   -0.8957 C   0  0  0  0  0  0  0  0  0  0  0  0
   -4.0298    0.0964   -0.9811 C   0  0  0  0  0  0  0  0  0  0  0  0
   -4.8027   -1.2007   -1.3779 C   0  0  0  0  0  0  0  0  0  0  0  0
   -3.7592   -2.1745   -2.0028 C   0  0  0  0  0  0  0  0  0  0  0  0
   -1.7457    3.3115    1.9929 H   0  0  0  0  0  0  0  0  0  0  0  0
   -1.3612    4.0426    0.3912 H   0  0  0  0  0  0  0  0  0  0  0  0
   -3.0375    3.9698    0.9694 H   0  0  0  0  0  0  0  0  0  0  0  0
    1.2343    0.1622    0.2089 H   0  0  0  0  0  0  0  0  0  0  0  0
    4.7432   -2.7117   -0.3637 H   0  0  0  0  0  0  0  0  0  0  0  0
    6.4521   -0.9274    0.8539 H   0  0  0  0  0  0  0  0  0  0  0  0
    4.9270    2.2740    1.0065 H   0  0  0  0  0  0  0  0  0  0  0  0
    4.5728    1.5246    2.6014 H   0  0  0  0  0  0  0  0  0  0  0  0
    6.1890    1.3306    1.8563 H   0  0  0  0  0  0  0  0  0  0  0  0
   -4.4032    0.4963   -0.0345 H   0  0  0  0  0  0  0  0  0  0  0  0
   -4.1291    0.8558   -1.7637 H   0  0  0  0  0  0  0  0  0  0  0  0
   -5.2187   -1.6583   -0.4704 H   0  0  0  0  0  0  0  0  0  0  0  0
   -5.6385   -0.9958   -2.0541 H   0  0  0  0  0  0  0  0  0  0  0  0
   -3.7744   -2.1043   -3.0952 H   0  0  0  0  0  0  0  0  0  0  0  0
   -3.9481   -3.2072   -1.6974 H   0  0  0  0  0  0  0  0  0  0  0  0
  1  2  1  0
  2  3  1  0
  3  4  2  0
  3  5  1  0
  5  6  2  0
  6  7  1  0
  7  8  1  0
  8  9  2  0
  8 10  1  0
 10 11  1  0
 11 12  2  0
 12 13  1  0
 13 14  1  0
 13 15  1  0
  6 16  1  0
 16 17  1  0
 17 18  2  0
 18 19  1  0
 19 20  1  0
 20 21  1  0
 18  5  1  0
 15 10  2  0
 21 17  1  0
  1 22  1  0
  1 23  1  0
  1 24  1  0
  7 25  1  0
 11 26  1  0
 12 27  1  0
 14 28  1  0
 14 29  1  0
 14 30  1  0
 19 31  1  0
 19 32  1  0
 20 33  1  0
 20 34  1  0
 21 35  1  0
 21 36  1  0
M  END
$$$$
