
     RDKit          3D

 42 43  0  0  0  0  0  0  0  0999 V2000
   -4.6616    0.4605   -2.6454 C   0  0  0  0  0  0  0  0  0  0  0  0
   -3.6250    0.6868   -1.5913 C   0  0  0  0  0  0  0  0  0  0  0  0
   -3.6761    0.3390   -0.2886 C   0  0  0  0  0  0  0  0  0  0  0  0
   -4.8579   -0.3172    0.3766 C   0  0  0  0  0  0  0  0  0  0  0  0
   -2.5062    0.6328    0.6357 C   0  0  0  0  0  0  0  0  0  0  0  0
   -1.9667   -0.5718    1.2821 N   0  0  0  0  0  0  0  0  0  0  0  0
   -1.2988   -1.4860    0.3250 C   0  0  0  0  0  0  0  0  0  0  0  0
    0.0367   -0.9703   -0.2605 C   0  0  0  0  0  0  0  0  0  0  0  0
    0.9730   -0.5873    0.8163 N   0  0  0  0  0  0  0  0  0  0  0  0
    2.2952   -0.2724    0.4620 C   0  0  0  0  0  0  0  0  0  0  0  0
    2.7088   -0.0393   -0.8574 C   0  0  0  0  0  0  0  0  0  0  0  0
    4.0416    0.2643   -1.1697 C   0  0  0  0  0  0  0  0  0  0  0  0
    5.0121    0.3208   -0.1685 C   0  0  0  0  0  0  0  0  0  0  0  0
    6.4309    0.6750   -0.4967 C   0  0  0  0  0  0  0  0  0  0  0  0
    4.6230    0.0874    1.1503 C   0  0  0  0  0  0  0  0  0  0  0  0
    3.2892   -0.2131    1.4532 C   0  0  0  0  0  0  0  0  0  0  0  0
    0.3767    0.3260    1.8190 C   0  0  0  0  0  0  0  0  0  0  0  0
   -0.9813   -0.2171    2.3297 C   0  0  0  0  0  0  0  0  0  0  0  0
   -5.0822    1.4189   -2.9645 H   0  0  0  0  0  0  0  0  0  0  0  0
   -5.4796   -0.1871   -2.3247 H   0  0  0  0  0  0  0  0  0  0  0  0
   -4.1966   -0.0130   -3.5163 H   0  0  0  0  0  0  0  0  0  0  0  0
   -2.7271    1.1812   -1.9610 H   0  0  0  0  0  0  0  0  0  0  0  0
   -5.1006    0.1999    1.3114 H   0  0  0  0  0  0  0  0  0  0  0  0
   -4.6353   -1.3635    0.6084 H   0  0  0  0  0  0  0  0  0  0  0  0
   -5.7634   -0.2935   -0.2338 H   0  0  0  0  0  0  0  0  0  0  0  0
   -1.7260    1.1928    0.1066 H   0  0  0  0  0  0  0  0  0  0  0  0
   -2.8849    1.3148    1.4094 H   0  0  0  0  0  0  0  0  0  0  0  0
   -1.9763   -1.7550   -0.4935 H   0  0  0  0  0  0  0  0  0  0  0  0
   -1.1018   -2.4289    0.8533 H   0  0  0  0  0  0  0  0  0  0  0  0
    0.4705   -1.7779   -0.8633 H   0  0  0  0  0  0  0  0  0  0  0  0
   -0.1581   -0.1177   -0.9222 H   0  0  0  0  0  0  0  0  0  0  0  0
    2.0018   -0.0690   -1.6801 H   0  0  0  0  0  0  0  0  0  0  0  0
    4.3109    0.4531   -2.2063 H   0  0  0  0  0  0  0  0  0  0  0  0
    6.6981    0.3282   -1.5005 H   0  0  0  0  0  0  0  0  0  0  0  0
    7.1247    0.2008    0.2055 H   0  0  0  0  0  0  0  0  0  0  0  0
    6.5664    1.7599   -0.4495 H   0  0  0  0  0  0  0  0  0  0  0  0
    5.3527    0.1240    1.9555 H   0  0  0  0  0  0  0  0  0  0  0  0
    3.0379   -0.4339    2.4873 H   0  0  0  0  0  0  0  0  0  0  0  0
    1.0249    0.4449    2.6941 H   0  0  0  0  0  0  0  0  0  0  0  0
    0.2410    1.3209    1.3765 H   0  0  0  0  0  0  0  0  0  0  0  0
   -1.4219    0.5027    3.0307 H   0  0  0  0  0  0  0  0  0  0  0  0
   -0.7888   -1.1211    2.9232 H   0  0  0  0  0  0  0  0  0  0  0  0
  1  2  1  0
  2  3  2  3
  3  4  1  0
  3  5  1  0
  5  6  1  0
  6  7  1  0
  7  8  1  0
  8  9  1  0
  9 10  1  0
 10 11  2  0
 11 12  1  0
 12 13  2  0
 13 14  1  0
 13 15  1  0
 15 16  2  0
  9 17  1  0
 17 18  1  0
 18  6  1  0
 16 10  1  0
  1 19  1  0
  1 20  1  0
  1 21  1  0
  2 22  1  0
  4 23  1  0
  4 24  1  0
  4 25  1  0
  5 26  1  0
  5 27  1  0
  7 28  1  0
  7 29  1  0
  8 30  1  0
  8 31  1  0
 11 32  1  0
 12 33  1  0
 14 34  1  0
 14 35  1  0
 14 36  1  0
 15 37  1  0
 16 38  1  0
 17 39  1  0
 17 40  1  0
 18 41  1  0
 18 42  1  0
M  END
$$$$
