
     RDKit          3D

 52 55  0  0  0  0  0  0  0  0999 V2000
   -0.9049   -2.6093   -2.1576 C   0  0  0  0  0  0  0  0  0  0  0  0
   -1.5141   -1.2256   -2.2927 C   0  0  0  0  0  0  0  0  0  0  0  0
   -1.6782   -0.6560   -0.9846 O   0  0  0  0  0  0  0  0  0  0  0  0
   -2.9169   -0.7713   -0.4142 C   0  0  0  0  0  0  0  0  0  0  0  0
   -3.8729   -1.2837   -0.9813 O   0  0  0  0  0  0  0  0  0  0  0  0
   -2.9736   -0.2116    0.9441 C   0  0  0  0  0  0  0  0  0  0  0  0
   -4.1764   -0.1037    1.7465 C   0  0  0  0  0  0  0  0  0  0  0  0
   -5.5364   -0.4849    1.3956 C   0  0  0  0  0  0  0  0  0  0  0  0
   -6.0911   -1.6622    1.9114 C   0  0  0  0  0  0  0  0  0  0  0  0
   -7.4001   -2.0205    1.5840 C   0  0  0  0  0  0  0  0  0  0  0  0
   -8.1572   -1.2044    0.7435 C   0  0  0  0  0  0  0  0  0  0  0  0
   -7.6080   -0.0299    0.2285 C   0  0  0  0  0  0  0  0  0  0  0  0
   -6.2994    0.3319    0.5538 C   0  0  0  0  0  0  0  0  0  0  0  0
   -3.9311    0.4513    2.9861 C   0  0  0  0  0  0  0  0  0  0  0  0
   -2.2899    0.8315    3.2030 S   0  0  0  0  0  0  0  0  0  0  0  0
   -1.8756    0.2718    1.6534 C   0  0  0  0  0  0  0  0  0  0  0  0
   -0.5628    0.3305    1.2155 N   0  0  0  0  0  0  0  0  0  0  0  0
    0.5624    0.7528    1.8996 C   0  0  0  0  0  0  0  0  0  0  0  0
    0.6276    1.1522    3.0562 O   0  0  0  0  0  0  0  0  0  0  0  0
    1.7729    0.6689    1.0711 C   0  0  0  0  0  0  0  0  0  0  0  0
    3.0885    1.0473    1.4304 C   0  0  0  0  0  0  0  0  0  0  0  0
    3.8523    0.7858    0.3182 C   0  0  0  0  0  0  0  0  0  0  0  0
    5.2734    0.9154    0.0025 C   0  0  0  0  0  0  0  0  0  0  0  0
    6.2056    0.7140    1.0359 C   0  0  0  0  0  0  0  0  0  0  0  0
    7.5762    0.8351    0.8054 C   0  0  0  0  0  0  0  0  0  0  0  0
    8.0361    1.1617   -0.4638 C   0  0  0  0  0  0  0  0  0  0  0  0
    7.1285    1.3687   -1.5040 C   0  0  0  0  0  0  0  0  0  0  0  0
    5.7479    1.2502   -1.2851 C   0  0  0  0  0  0  0  0  0  0  0  0
    4.8034    1.4793   -2.2540 O   0  0  0  0  0  0  0  0  0  0  0  0
    5.2515    1.6852   -3.5867 C   0  0  0  0  0  0  0  0  0  0  0  0
    3.0451    0.2617   -0.6477 O   0  0  0  0  0  0  0  0  0  0  0  0
    1.7419    0.1881   -0.1860 N   0  0  0  0  0  0  0  0  0  0  0  0
   -1.5510   -3.2662   -1.5668 H   0  0  0  0  0  0  0  0  0  0  0  0
   -0.7433   -3.0633   -3.1393 H   0  0  0  0  0  0  0  0  0  0  0  0
    0.0561   -2.5493   -1.6351 H   0  0  0  0  0  0  0  0  0  0  0  0
   -2.4561   -1.2576   -2.8535 H   0  0  0  0  0  0  0  0  0  0  0  0
   -0.8295   -0.5709   -2.8458 H   0  0  0  0  0  0  0  0  0  0  0  0
   -5.5084   -2.3076    2.5643 H   0  0  0  0  0  0  0  0  0  0  0  0
   -7.8274   -2.9379    1.9813 H   0  0  0  0  0  0  0  0  0  0  0  0
   -9.1749   -1.4865    0.4851 H   0  0  0  0  0  0  0  0  0  0  0  0
   -8.1973    0.6031   -0.4306 H   0  0  0  0  0  0  0  0  0  0  0  0
   -5.8814    1.2488    0.1450 H   0  0  0  0  0  0  0  0  0  0  0  0
   -4.6423    0.6530    3.7768 H   0  0  0  0  0  0  0  0  0  0  0  0
   -0.3915    0.0109    0.2619 H   0  0  0  0  0  0  0  0  0  0  0  0
    3.4155    1.4575    2.3740 H   0  0  0  0  0  0  0  0  0  0  0  0
    5.8704    0.4505    2.0379 H   0  0  0  0  0  0  0  0  0  0  0  0
    8.2809    0.6764    1.6169 H   0  0  0  0  0  0  0  0  0  0  0  0
    9.1028    1.2612   -0.6477 H   0  0  0  0  0  0  0  0  0  0  0  0
    7.5323    1.6341   -2.4746 H   0  0  0  0  0  0  0  0  0  0  0  0
    5.8364    0.8313   -3.9455 H   0  0  0  0  0  0  0  0  0  0  0  0
    5.8171    2.6194   -3.6715 H   0  0  0  0  0  0  0  0  0  0  0  0
    4.3671    1.7732   -4.2265 H   0  0  0  0  0  0  0  0  0  0  0  0
  1  2  1  0
  2  3  1  0
  3  4  1  0
  4  5  2  0
  4  6  1  0
  6  7  1  0
  7  8  1  0
  8  9  2  0
  9 10  1  0
 10 11  2  0
 11 12  1  0
 12 13  2  0
  7 14  2  0
 14 15  1  0
 15 16  1  0
 16 17  1  0
 17 18  1  0
 18 19  2  0
 18 20  1  0
 20 21  1  0
 21 22  2  0
 22 23  1  0
 23 24  2  0
 24 25  1  0
 25 26  2  0
 26 27  1  0
 27 28  2  0
 28 29  1  0
 29 30  1  0
 22 31  1  0
 31 32  1  0
 16  6  2  0
 32 20  2  0
 13  8  1  0
 28 23  1  0
  1 33  1  0
  1 34  1  0
  1 35  1  0
  2 36  1  0
  2 37  1  0
  9 38  1  0
 10 39  1  0
 11 40  1  0
 12 41  1  0
 13 42  1  0
 14 43  1  0
 17 44  1  0
 21 45  1  0
 24 46  1  0
 25 47  1  0
 26 48  1  0
 27 49  1  0
 30 50  1  0
 30 51  1  0
 30 52  1  0
M  END
$$$$
