
     RDKit          3D

 58 62  0  0  0  0  0  0  0  0999 V2000
    6.0718    3.0878   -1.0408 C   0  0  0  0  0  0  0  0  0  0  0  0
    6.1354    1.5861   -0.9849 C   0  0  0  0  0  0  0  0  0  0  0  0
    7.1411    0.9795   -1.9246 C   0  0  0  0  0  0  0  0  0  0  0  0
    5.3572    0.8502   -0.1714 C   0  0  0  0  0  0  0  0  0  0  0  0
    5.2452   -0.6732    0.0220 C   0  0  0  0  0  0  0  0  0  0  0  0
    5.6107   -0.6794    1.5274 C   0  0  0  0  0  0  0  0  0  0  0  0
    4.9497    0.6326    2.0809 C   0  0  0  0  0  0  0  0  0  0  0  0
    4.2689    1.2589    0.8378 C   0  0  0  0  0  0  0  0  0  0  0  0
    3.1707    0.3424    0.4041 C   0  0  0  0  0  0  0  0  0  0  0  0
    3.7618   -0.8318   -0.0927 C   0  0  0  0  0  0  0  0  0  0  0  0
    2.7865   -1.6942   -0.5003 C   0  0  0  0  0  0  0  0  0  0  0  0
    2.9477   -2.9072   -1.0264 O   0  0  0  0  0  0  0  0  0  0  0  0
    1.5442   -1.0485   -0.2515 N   0  0  0  0  0  0  0  0  0  0  0  0
    0.2308   -1.5076   -0.4776 C   0  0  0  0  0  0  0  0  0  0  0  0
   -0.8216   -0.7734   -0.1797 N   0  0  0  0  0  0  0  0  0  0  0  0
   -1.9781   -1.4670   -0.5091 C   0  0  0  0  0  0  0  0  0  0  0  0
   -3.2796   -0.8575   -0.2744 C   0  0  0  0  0  0  0  0  0  0  0  0
   -3.5222   -0.2048    0.9394 C   0  0  0  0  0  0  0  0  0  0  0  0
   -4.7576    0.4009    1.1874 C   0  0  0  0  0  0  0  0  0  0  0  0
   -5.7764    0.3697    0.2250 C   0  0  0  0  0  0  0  0  0  0  0  0
   -7.1227    1.0305    0.4652 C   0  0  0  0  0  0  0  0  0  0  0  0
   -7.8110    0.4943    1.7240 C   0  0  0  0  0  0  0  0  0  0  0  0
   -6.9861    2.5538    0.5234 C   0  0  0  0  0  0  0  0  0  0  0  0
   -5.5213   -0.2679   -0.9977 C   0  0  0  0  0  0  0  0  0  0  0  0
   -4.2843   -0.8717   -1.2474 C   0  0  0  0  0  0  0  0  0  0  0  0
   -1.7729   -2.7436   -1.0139 C   0  0  0  0  0  0  0  0  0  0  0  0
   -2.7426   -3.8004   -1.4167 C   0  0  0  0  0  0  0  0  0  0  0  0
   -0.0820   -3.0382   -1.1386 S   0  0  0  0  0  0  0  0  0  0  0  0
    1.8182    0.2267    0.3138 C   0  0  0  0  0  0  0  0  0  0  0  0
    0.8751    1.1008    0.6718 O   0  0  0  0  0  0  0  0  0  0  0  0
    5.3353    3.5141   -0.3546 H   0  0  0  0  0  0  0  0  0  0  0  0
    5.8081    3.4161   -2.0518 H   0  0  0  0  0  0  0  0  0  0  0  0
    7.0465    3.5152   -0.7822 H   0  0  0  0  0  0  0  0  0  0  0  0
    6.9042    1.2536   -2.9581 H   0  0  0  0  0  0  0  0  0  0  0  0
    8.1455    1.3486   -1.6903 H   0  0  0  0  0  0  0  0  0  0  0  0
    7.1737   -0.1122   -1.8754 H   0  0  0  0  0  0  0  0  0  0  0  0
    5.8430   -1.3202   -0.6170 H   0  0  0  0  0  0  0  0  0  0  0  0
    6.6967   -0.6410    1.6748 H   0  0  0  0  0  0  0  0  0  0  0  0
    5.2234   -1.5633    2.0481 H   0  0  0  0  0  0  0  0  0  0  0  0
    4.2347    0.4048    2.8794 H   0  0  0  0  0  0  0  0  0  0  0  0
    5.7221    1.2960    2.4886 H   0  0  0  0  0  0  0  0  0  0  0  0
    4.0073    2.3119    0.9160 H   0  0  0  0  0  0  0  0  0  0  0  0
    2.0832   -3.2823   -1.2671 H   0  0  0  0  0  0  0  0  0  0  0  0
   -2.7469   -0.1600    1.7022 H   0  0  0  0  0  0  0  0  0  0  0  0
   -4.9099    0.9054    2.1391 H   0  0  0  0  0  0  0  0  0  0  0  0
   -7.7817    0.7941   -0.3809 H   0  0  0  0  0  0  0  0  0  0  0  0
   -7.2575    0.7458    2.6352 H   0  0  0  0  0  0  0  0  0  0  0  0
   -8.8167    0.9173    1.8216 H   0  0  0  0  0  0  0  0  0  0  0  0
   -7.9087   -0.5959    1.6822 H   0  0  0  0  0  0  0  0  0  0  0  0
   -7.9698    3.0266    0.6200 H   0  0  0  0  0  0  0  0  0  0  0  0
   -6.5182    2.9379   -0.3903 H   0  0  0  0  0  0  0  0  0  0  0  0
   -6.3744    2.8784    1.3730 H   0  0  0  0  0  0  0  0  0  0  0  0
   -6.2826   -0.2900   -1.7746 H   0  0  0  0  0  0  0  0  0  0  0  0
   -4.1130   -1.3283   -2.2181 H   0  0  0  0  0  0  0  0  0  0  0  0
   -3.0958   -3.6217   -2.4378 H   0  0  0  0  0  0  0  0  0  0  0  0
   -3.6082   -3.8128   -0.7469 H   0  0  0  0  0  0  0  0  0  0  0  0
   -2.2947   -4.7988   -1.3853 H   0  0  0  0  0  0  0  0  0  0  0  0
   -0.0025    0.7128    0.4559 H   0  0  0  0  0  0  0  0  0  0  0  0
  1  2  1  0
  2  3  1  0
  2  4  2  3
  4  5  1  0
  5  6  1  0
  6  7  1  0
  7  8  1  0
  8  9  1  0
  9 10  1  0
 10 11  2  0
 11 12  1  0
 11 13  1  0
 13 14  1  0
 14 15  2  0
 15 16  1  0
 16 17  1  0
 17 18  2  0
 18 19  1  0
 19 20  2  0
 20 21  1  0
 21 22  1  0
 21 23  1  0
 20 24  1  0
 24 25  2  0
 16 26  2  0
 26 27  1  0
 26 28  1  0
 13 29  1  0
 29 30  1  0
  8  4  1  0
 29  9  2  0
 10  5  1  0
 28 14  1  0
 25 17  1  0
  1 31  1  0
  1 32  1  0
  1 33  1  0
  3 34  1  0
  3 35  1  0
  3 36  1  0
  5 37  1  0
  6 38  1  0
  6 39  1  0
  7 40  1  0
  7 41  1  0
  8 42  1  0
 12 43  1  0
 18 44  1  0
 19 45  1  0
 21 46  1  0
 22 47  1  0
 22 48  1  0
 22 49  1  0
 23 50  1  0
 23 51  1  0
 23 52  1  0
 24 53  1  0
 25 54  1  0
 27 55  1  0
 27 56  1  0
 27 57  1  0
 30 58  1  0
M  END
$$$$
