
     RDKit          3D

 56 58  0  0  0  0  0  0  0  0999 V2000
   -5.4290   -2.1859   -3.7449 C   0  0  0  0  0  0  0  0  0  0  0  0
   -5.5769   -2.3879   -2.2447 C   0  0  0  0  0  0  0  0  0  0  0  0
   -5.4758   -1.1136   -1.5181 N   0  0  0  0  0  0  0  0  0  0  0  0
   -6.7264   -0.3514   -1.3696 C   0  0  0  0  0  0  0  0  0  0  0  0
   -6.7309    0.9012   -2.2358 C   0  0  0  0  0  0  0  0  0  0  0  0
   -4.2717   -0.6704   -0.9836 C   0  0  0  0  0  0  0  0  0  0  0  0
   -3.0358   -1.2254   -1.3535 C   0  0  0  0  0  0  0  0  0  0  0  0
   -1.8143   -0.7812   -0.8196 C   0  0  0  0  0  0  0  0  0  0  0  0
   -1.7796    0.2559    0.1114 C   0  0  0  0  0  0  0  0  0  0  0  0
   -0.5364    0.7428    0.7263 C   0  0  0  0  0  0  0  0  0  0  0  0
    0.6481    0.7789    0.0947 C   0  0  0  0  0  0  0  0  0  0  0  0
    1.8608    1.2942    0.7422 C   0  0  0  0  0  0  0  0  0  0  0  0
    1.9370    2.6638    0.9939 C   0  0  0  0  0  0  0  0  0  0  0  0
    3.0705    3.2004    1.5720 C   0  0  0  0  0  0  0  0  0  0  0  0
    4.1357    2.3659    1.8840 C   0  0  0  0  0  0  0  0  0  0  0  0
    5.2893    2.9121    2.4566 C   0  0  0  0  0  0  0  0  0  0  0  0
    6.3737    2.0974    2.7670 C   0  0  0  0  0  0  0  0  0  0  0  0
    6.3285    0.7312    2.5090 C   0  0  0  0  0  0  0  0  0  0  0  0
    7.4645    0.0580    2.8550 O   0  0  0  0  0  0  0  0  0  0  0  0
    7.5123   -1.3460    2.6339 C   0  0  0  0  0  0  0  0  0  0  0  0
    5.1795    0.1748    1.9386 C   0  0  0  0  0  0  0  0  0  0  0  0
    4.0554    0.9695    1.6193 C   0  0  0  0  0  0  0  0  0  0  0  0
    2.8990    0.4629    1.0626 N   0  0  0  0  0  4  0  0  0  0  0  0
    2.7412   -1.0080    0.8458 C   0  0  0  0  0  0  0  0  0  0  0  0
    3.3140   -1.3977   -0.5041 C   0  0  0  0  0  0  0  0  0  0  0  0
   -2.9931    0.8143    0.5095 C   0  0  0  0  0  0  0  0  0  0  0  0
   -4.2063    0.3614   -0.0339 C   0  0  0  0  0  0  0  0  0  0  0  0
   -4.4848   -1.6941   -3.9976 H   0  0  0  0  0  0  0  0  0  0  0  0
   -6.2426   -1.5706   -4.1413 H   0  0  0  0  0  0  0  0  0  0  0  0
   -5.4593   -3.1512   -4.2599 H   0  0  0  0  0  0  0  0  0  0  0  0
   -4.8460   -3.1198   -1.8817 H   0  0  0  0  0  0  0  0  0  0  0  0
   -6.5511   -2.8524   -2.0463 H   0  0  0  0  0  0  0  0  0  0  0  0
   -7.5821   -0.9680   -1.6720 H   0  0  0  0  0  0  0  0  0  0  0  0
   -6.9158   -0.1024   -0.3196 H   0  0  0  0  0  0  0  0  0  0  0  0
   -5.9420    1.6022   -1.9484 H   0  0  0  0  0  0  0  0  0  0  0  0
   -7.6900    1.4202   -2.1399 H   0  0  0  0  0  0  0  0  0  0  0  0
   -6.5852    0.6535   -3.2917 H   0  0  0  0  0  0  0  0  0  0  0  0
   -2.9860   -2.0209   -2.0914 H   0  0  0  0  0  0  0  0  0  0  0  0
   -0.9071   -1.2757   -1.1528 H   0  0  0  0  0  0  0  0  0  0  0  0
   -0.6404    1.1047    1.7489 H   0  0  0  0  0  0  0  0  0  0  0  0
    0.7575    0.4520   -0.9358 H   0  0  0  0  0  0  0  0  0  0  0  0
    1.1097    3.3230    0.7318 H   0  0  0  0  0  0  0  0  0  0  0  0
    3.1158    4.2724    1.7640 H   0  0  0  0  0  0  0  0  0  0  0  0
    5.3650    3.9787    2.6679 H   0  0  0  0  0  0  0  0  0  0  0  0
    7.2676    2.5346    3.2114 H   0  0  0  0  0  0  0  0  0  0  0  0
    6.7413   -1.8614    3.2157 H   0  0  0  0  0  0  0  0  0  0  0  0
    8.4873   -1.7068    2.9748 H   0  0  0  0  0  0  0  0  0  0  0  0
    7.4225   -1.5781    1.5677 H   0  0  0  0  0  0  0  0  0  0  0  0
    5.1825   -0.8877    1.7362 H   0  0  0  0  0  0  0  0  0  0  0  0
    1.6847   -1.2807    0.9167 H   0  0  0  0  0  0  0  0  0  0  0  0
    3.2212   -1.5424    1.6702 H   0  0  0  0  0  0  0  0  0  0  0  0
    2.8044   -0.8750   -1.3190 H   0  0  0  0  0  0  0  0  0  0  0  0
    4.3785   -1.1564   -0.5765 H   0  0  0  0  0  0  0  0  0  0  0  0
    3.1986   -2.4737   -0.6663 H   0  0  0  0  0  0  0  0  0  0  0  0
   -3.0271    1.6163    1.2437 H   0  0  0  0  0  0  0  0  0  0  0  0
   -5.1108    0.8427    0.3267 H   0  0  0  0  0  0  0  0  0  0  0  0
  1  2  1  0
  2  3  1  0
  3  4  1  0
  4  5  1  0
  3  6  1  0
  6  7  2  0
  7  8  1  0
  8  9  2  0
  9 10  1  0
 10 11  2  3
 11 12  1  0
 12 13  2  0
 13 14  1  0
 14 15  2  0
 15 16  1  0
 16 17  2  0
 17 18  1  0
 18 19  1  0
 19 20  1  0
 18 21  2  0
 21 22  1  0
 22 23  2  0
 23 24  1  0
 24 25  1  0
  9 26  1  0
 26 27  2  0
 27  6  1  0
 23 12  1  0
 22 15  1  0
  1 28  1  0
  1 29  1  0
  1 30  1  0
  2 31  1  0
  2 32  1  0
  4 33  1  0
  4 34  1  0
  5 35  1  0
  5 36  1  0
  5 37  1  0
  7 38  1  0
  8 39  1  0
 10 40  1  0
 11 41  1  0
 13 42  1  0
 14 43  1  0
 16 44  1  0
 17 45  1  0
 20 46  1  0
 20 47  1  0
 20 48  1  0
 21 49  1  0
 24 50  1  0
 24 51  1  0
 25 52  1  0
 25 53  1  0
 25 54  1  0
 26 55  1  0
 27 56  1  0
M  CHG  1  23   1
M  END
$$$$
