
     RDKit          3D

 51 55  0  0  0  0  0  0  0  0999 V2000
   -5.4744    0.2282    0.2571 O   0  0  0  0  0  0  0  0  0  0  0  0
   -4.4843    0.7801   -0.2523 C   0  0  0  0  0  0  0  0  0  0  0  0
   -4.5862    1.4927   -1.6249 C   0  0  0  0  0  0  0  0  0  0  0  0
   -6.0120    1.7210   -2.2106 C   0  0  0  0  0  0  0  0  0  0  0  0
   -5.8289    0.4308   -3.0268 C   0  0  0  0  0  0  0  0  0  0  0  0
   -4.3107    0.6376   -2.8947 C   0  0  0  0  0  0  0  0  0  0  0  0
   -3.2811    0.7870    0.4479 N   0  0  0  0  0  0  0  0  0  0  0  0
   -3.2456    0.2183    1.8043 C   0  0  0  0  0  0  0  0  0  0  0  0
   -1.8803    0.5467    2.4052 C   0  0  0  0  0  0  0  0  0  0  0  0
   -1.1309    1.0241    1.2020 C   0  0  0  0  0  0  0  0  0  0  0  0
    0.2223    1.3301    1.1466 C   0  0  0  0  0  0  0  0  0  0  0  0
    0.7376    1.7796   -0.0694 C   0  0  0  0  0  0  0  0  0  0  0  0
    2.4606    2.1888   -0.1990 S   0  0  0  0  0  6  0  0  0  0  0  0
    3.0306    2.2403    1.1294 O   0  0  0  0  0  0  0  0  0  0  0  0
    2.5657    3.3172   -1.1005 O   0  0  0  0  0  0  0  0  0  0  0  0
    3.0932    0.8612   -1.0371 N   0  0  0  0  0  0  0  0  0  0  0  0
    3.3760   -0.3183   -0.2943 C   0  0  0  0  0  0  0  0  0  0  0  0
    2.3767   -1.2768   -0.1179 C   0  0  0  0  0  0  0  0  0  0  0  0
    2.6315   -2.4151    0.6488 C   0  0  0  0  0  0  0  0  0  0  0  0
    3.8807   -2.5848    1.2424 C   0  0  0  0  0  0  0  0  0  0  0  0
    4.8863   -1.6319    1.0459 C   0  0  0  0  0  0  0  0  0  0  0  0
    4.6294   -0.4873    0.2931 C   0  0  0  0  0  0  0  0  0  0  0  0
    6.1468   -1.7514    1.5736 O   0  0  0  0  0  0  0  0  0  0  0  0
    6.3982   -3.0840    2.0348 C   0  0  0  0  0  0  0  0  0  0  0  0
    5.2158   -3.6092    2.8321 C   0  0  0  0  0  0  0  0  0  0  0  0
    4.0533   -3.7135    2.0014 O   0  0  0  0  0  0  0  0  0  0  0  0
   -0.0937    1.9412   -1.1885 C   0  0  0  0  0  0  0  0  0  0  0  0
   -1.4591    1.6335   -1.1073 C   0  0  0  0  0  0  0  0  0  0  0  0
   -1.9772    1.1794    0.0947 C   0  0  0  0  0  0  0  0  0  0  0  0
   -4.0545    2.4523   -1.6055 H   0  0  0  0  0  0  0  0  0  0  0  0
   -6.0906    2.6244   -2.8275 H   0  0  0  0  0  0  0  0  0  0  0  0
   -6.8430    1.7145   -1.5003 H   0  0  0  0  0  0  0  0  0  0  0  0
   -6.2246    0.4525   -4.0452 H   0  0  0  0  0  0  0  0  0  0  0  0
   -6.1975   -0.4687   -2.5209 H   0  0  0  0  0  0  0  0  0  0  0  0
   -3.8687    1.2077   -3.7202 H   0  0  0  0  0  0  0  0  0  0  0  0
   -3.7292   -0.2765   -2.7465 H   0  0  0  0  0  0  0  0  0  0  0  0
   -4.0653    0.6218    2.4093 H   0  0  0  0  0  0  0  0  0  0  0  0
   -3.3905   -0.8660    1.7185 H   0  0  0  0  0  0  0  0  0  0  0  0
   -1.9595    1.3505    3.1443 H   0  0  0  0  0  0  0  0  0  0  0  0
   -1.4201   -0.3336    2.8628 H   0  0  0  0  0  0  0  0  0  0  0  0
    0.8558    1.2171    2.0224 H   0  0  0  0  0  0  0  0  0  0  0  0
    3.7980    1.1703   -1.7064 H   0  0  0  0  0  0  0  0  0  0  0  0
    1.4010   -1.1522   -0.5794 H   0  0  0  0  0  0  0  0  0  0  0  0
    1.8559   -3.1625    0.7914 H   0  0  0  0  0  0  0  0  0  0  0  0
    5.4061    0.2625    0.1768 H   0  0  0  0  0  0  0  0  0  0  0  0
    7.2946   -3.0542    2.6620 H   0  0  0  0  0  0  0  0  0  0  0  0
    6.6098   -3.7189    1.1655 H   0  0  0  0  0  0  0  0  0  0  0  0
    4.9807   -2.9550    3.6809 H   0  0  0  0  0  0  0  0  0  0  0  0
    5.4355   -4.6081    3.2216 H   0  0  0  0  0  0  0  0  0  0  0  0
    0.3185    2.3036   -2.1288 H   0  0  0  0  0  0  0  0  0  0  0  0
   -2.0526    1.7532   -2.0012 H   0  0  0  0  0  0  0  0  0  0  0  0
  1  2  2  0
  2  3  1  0
  3  4  1  0
  4  5  1  0
  5  6  1  0
  2  7  1  0
  7  8  1  0
  8  9  1  0
  9 10  1  0
 10 11  2  0
 11 12  1  0
 12 13  1  0
 13 14  2  0
 13 15  2  0
 13 16  1  0
 16 17  1  0
 17 18  2  0
 18 19  1  0
 19 20  2  0
 20 21  1  0
 21 22  2  0
 21 23  1  0
 23 24  1  0
 24 25  1  0
 25 26  1  0
 12 27  2  0
 27 28  1  0
 28 29  2  0
  6  3  1  0
 29  7  1  0
 29 10  1  0
 22 17  1  0
 26 20  1  0
  3 30  1  0
  4 31  1  0
  4 32  1  0
  5 33  1  0
  5 34  1  0
  6 35  1  0
  6 36  1  0
  8 37  1  0
  8 38  1  0
  9 39  1  0
  9 40  1  0
 11 41  1  0
 16 42  1  0
 18 43  1  0
 19 44  1  0
 22 45  1  0
 24 46  1  0
 24 47  1  0
 25 48  1  0
 25 49  1  0
 27 50  1  0
 28 51  1  0
M  END
$$$$
