
     RDKit          3D

 34 35  0  0  0  0  0  0  0  0999 V2000
   -3.0876    1.2064    1.5581 C   0  0  0  0  0  0  0  0  0  0  0  0
   -3.5479    0.3181    0.4332 C   0  0  0  0  0  0  0  0  0  0  0  0
   -4.9236    0.2745    0.1414 C   0  0  0  0  0  0  0  0  0  0  0  0
   -5.4115   -0.5300   -0.8853 C   0  0  0  0  0  0  0  0  0  0  0  0
   -4.5289   -1.2906   -1.6412 C   0  0  0  0  0  0  0  0  0  0  0  0
   -3.1596   -1.2552   -1.3652 C   0  0  0  0  0  0  0  0  0  0  0  0
   -2.6530   -0.4746   -0.3197 C   0  0  0  0  0  0  0  0  0  0  0  0
   -1.2662   -0.3899   -0.0452 N   0  0  0  0  0  0  0  0  0  0  0  0
   -0.2302   -1.2848   -0.2835 C   0  0  0  0  0  0  0  0  0  0  0  0
   -0.3515   -2.9228   -0.5955 S   0  0  0  0  0  0  0  0  0  0  0  0
    0.9797   -0.6155   -0.1431 N   0  0  0  0  0  0  0  0  0  0  0  0
    2.2962   -1.1983   -0.3568 C   0  0  0  0  0  0  0  0  0  0  0  0
    3.3710   -0.1950   -0.0314 C   0  0  0  0  0  0  0  0  0  0  0  0
    3.7520    0.0273    1.2998 C   0  0  0  0  0  0  0  0  0  0  0  0
    4.7280    0.9761    1.6076 C   0  0  0  0  0  0  0  0  0  0  0  0
    5.3267    1.7163    0.5898 C   0  0  0  0  0  0  0  0  0  0  0  0
    4.9487    1.5108   -0.7360 C   0  0  0  0  0  0  0  0  0  0  0  0
    3.9727    0.5623   -1.0462 C   0  0  0  0  0  0  0  0  0  0  0  0
   -2.4454    2.0045    1.1721 H   0  0  0  0  0  0  0  0  0  0  0  0
   -3.9315    1.6810    2.0703 H   0  0  0  0  0  0  0  0  0  0  0  0
   -2.5413    0.6226    2.3061 H   0  0  0  0  0  0  0  0  0  0  0  0
   -5.6280    0.8702    0.7184 H   0  0  0  0  0  0  0  0  0  0  0  0
   -6.4765   -0.5563   -1.0998 H   0  0  0  0  0  0  0  0  0  0  0  0
   -4.8992   -1.9076   -2.4559 H   0  0  0  0  0  0  0  0  0  0  0  0
   -2.5046   -1.8245   -2.0161 H   0  0  0  0  0  0  0  0  0  0  0  0
   -0.9980    0.3438    0.5952 H   0  0  0  0  0  0  0  0  0  0  0  0
    0.9341    0.3824   -0.2999 H   0  0  0  0  0  0  0  0  0  0  0  0
    2.4094   -2.0894    0.2711 H   0  0  0  0  0  0  0  0  0  0  0  0
    2.3692   -1.5190   -1.4025 H   0  0  0  0  0  0  0  0  0  0  0  0
    3.2869   -0.5406    2.1032 H   0  0  0  0  0  0  0  0  0  0  0  0
    5.0209    1.1378    2.6418 H   0  0  0  0  0  0  0  0  0  0  0  0
    6.0878    2.4540    0.8300 H   0  0  0  0  0  0  0  0  0  0  0  0
    5.4149    2.0899   -1.5291 H   0  0  0  0  0  0  0  0  0  0  0  0
    3.6862    0.4162   -2.0856 H   0  0  0  0  0  0  0  0  0  0  0  0
  1  2  1  0
  2  3  2  0
  3  4  1  0
  4  5  2  0
  5  6  1  0
  6  7  2  0
  7  8  1  0
  8  9  1  0
  9 10  2  0
  9 11  1  0
 11 12  1  0
 12 13  1  0
 13 14  2  0
 14 15  1  0
 15 16  2  0
 16 17  1  0
 17 18  2  0
  7  2  1  0
 18 13  1  0
  1 19  1  0
  1 20  1  0
  1 21  1  0
  3 22  1  0
  4 23  1  0
  5 24  1  0
  6 25  1  0
  8 26  1  0
 11 27  1  0
 12 28  1  0
 12 29  1  0
 14 30  1  0
 15 31  1  0
 16 32  1  0
 17 33  1  0
 18 34  1  0
M  END
$$$$
