
     RDKit          3D

 23 23  0  0  0  0  0  0  0  0999 V2000
   -2.2111    1.8317    0.3594 C   0  0  0  0  0  0  0  0  0  0  0  0
   -1.8344    0.3733    0.2117 C   0  0  0  0  0  0  0  0  0  0  0  0
   -0.4114    0.0593    0.0857 C   0  0  0  0  0  0  0  0  0  0  0  0
    0.5890    0.9511   -0.0162 C   0  0  0  0  0  0  0  0  0  0  0  0
    1.9579    0.5728   -0.1309 C   0  0  0  0  0  0  0  0  0  0  0  0
    2.5754   -0.6732   -0.2026 C   0  0  0  0  0  0  0  0  0  0  0  0
    3.9720   -0.4689   -0.3097 C   0  0  0  0  0  0  0  0  0  0  0  0
    4.1510    0.8891   -0.3002 C   0  0  0  0  0  0  0  0  0  0  0  0
    2.9586    1.5213   -0.1949 O   0  0  0  0  0  0  0  0  0  0  0  0
   -2.8251   -0.5435    0.2359 C   0  0  0  0  0  0  0  0  0  0  0  0
   -2.8128   -2.0097    0.1084 C   0  0  0  0  0  0  0  0  0  0  0  0
   -3.7294   -2.7256    0.4750 O   0  0  0  0  0  0  0  0  0  0  0  0
   -1.7437   -2.5227   -0.5110 O   0  0  0  0  0  0  0  0  0  0  0  0
   -1.9237    2.3982   -0.5331 H   0  0  0  0  0  0  0  0  0  0  0  0
   -3.2897    1.9726    0.4925 H   0  0  0  0  0  0  0  0  0  0  0  0
   -1.7222    2.2726    1.2352 H   0  0  0  0  0  0  0  0  0  0  0  0
   -0.1559   -0.9954    0.0871 H   0  0  0  0  0  0  0  0  0  0  0  0
    0.4001    2.0194   -0.0171 H   0  0  0  0  0  0  0  0  0  0  0  0
    2.0711   -1.6293   -0.1821 H   0  0  0  0  0  0  0  0  0  0  0  0
    4.7469   -1.2182   -0.3852 H   0  0  0  0  0  0  0  0  0  0  0  0
    5.0176    1.5325   -0.3582 H   0  0  0  0  0  0  0  0  0  0  0  0
   -3.8457   -0.1978    0.3922 H   0  0  0  0  0  0  0  0  0  0  0  0
   -1.9344   -3.4830   -0.5421 H   0  0  0  0  0  0  0  0  0  0  0  0
  1  2  1  0
  2  3  1  0
  3  4  2  3
  4  5  1  0
  5  6  2  0
  6  7  1  0
  7  8  2  0
  8  9  1  0
  2 10  2  3
 10 11  1  0
 11 12  2  0
 11 13  1  0
  9  5  1  0
  1 14  1  0
  1 15  1  0
  1 16  1  0
  3 17  1  0
  4 18  1  0
  6 19  1  0
  7 20  1  0
  8 21  1  0
 10 22  1  0
 13 23  1  0
M  END
$$$$
