
     RDKit          3D

 37 40  0  0  0  0  0  0  0  0999 V2000
   -1.3211   -3.0096    0.6348 C   0  0  0  0  0  0  0  0  0  0  0  0
   -0.5342   -1.7737    0.2993 C   0  0  0  0  0  0  0  0  0  0  0  0
    0.8711   -1.8154    0.3178 C   0  0  0  0  0  0  0  0  0  0  0  0
    1.6218   -0.6626    0.0016 C   0  0  0  0  0  0  0  0  0  0  0  0
    0.9414    0.5108   -0.3294 C   0  0  0  0  0  0  0  0  0  0  0  0
    1.9041    1.4610   -0.5895 N   0  0  0  0  0  0  0  0  0  0  0  0
    3.1699    0.9473   -0.4394 C   0  0  0  0  0  0  0  0  0  0  0  0
    4.4185    1.5589   -0.6033 C   0  0  0  0  0  0  0  0  0  0  0  0
    5.5557    0.7773   -0.3795 C   0  0  0  0  0  0  0  0  0  0  0  0
    5.4454   -0.5603   -0.0074 C   0  0  0  0  0  0  0  0  0  0  0  0
    4.1881   -1.1545    0.1517 C   0  0  0  0  0  0  0  0  0  0  0  0
    3.0252   -0.3872   -0.0681 C   0  0  0  0  0  0  0  0  0  0  0  0
   -0.4618    0.5767   -0.3545 C   0  0  0  0  0  0  0  0  0  0  0  0
   -1.1863   -0.5783   -0.0321 C   0  0  0  0  0  0  0  0  0  0  0  0
   -2.5565   -0.6104   -0.0414 O   0  0  0  0  0  0  0  0  0  0  0  0
   -3.2891    0.6171   -0.2269 C   0  0  0  0  0  0  0  0  0  0  0  0
   -4.3371    0.3215   -1.3068 C   0  0  0  0  0  0  0  0  0  0  0  0
   -3.9904    0.9192    1.1026 C   0  0  0  0  0  0  0  0  0  0  0  0
   -2.4705    1.8171   -0.6475 C   0  0  0  0  0  0  0  0  0  0  0  0
   -1.1362    1.8092   -0.7145 C   0  0  0  0  0  0  0  0  0  0  0  0
   -0.6638   -3.8512    0.8778 H   0  0  0  0  0  0  0  0  0  0  0  0
   -1.9612   -2.8273    1.5042 H   0  0  0  0  0  0  0  0  0  0  0  0
   -1.9406   -3.3074   -0.2173 H   0  0  0  0  0  0  0  0  0  0  0  0
    1.3906   -2.7347    0.5743 H   0  0  0  0  0  0  0  0  0  0  0  0
    1.7090    2.4140   -0.8547 H   0  0  0  0  0  0  0  0  0  0  0  0
    4.5085    2.6006   -0.8933 H   0  0  0  0  0  0  0  0  0  0  0  0
    6.5415    1.2215   -0.4982 H   0  0  0  0  0  0  0  0  0  0  0  0
    6.3426   -1.1505    0.1617 H   0  0  0  0  0  0  0  0  0  0  0  0
    4.1111   -2.1979    0.4421 H   0  0  0  0  0  0  0  0  0  0  0  0
   -4.9525   -0.5421   -1.0279 H   0  0  0  0  0  0  0  0  0  0  0  0
   -5.0017    1.1751   -1.4802 H   0  0  0  0  0  0  0  0  0  0  0  0
   -3.8553    0.0617   -2.2572 H   0  0  0  0  0  0  0  0  0  0  0  0
   -4.6365    1.8014    1.0349 H   0  0  0  0  0  0  0  0  0  0  0  0
   -3.2582    1.0899    1.9010 H   0  0  0  0  0  0  0  0  0  0  0  0
   -4.6021    0.0677    1.4235 H   0  0  0  0  0  0  0  0  0  0  0  0
   -3.0082    2.7284   -0.8954 H   0  0  0  0  0  0  0  0  0  0  0  0
   -0.5813    2.6866   -1.0170 H   0  0  0  0  0  0  0  0  0  0  0  0
  1  2  1  0
  2  3  2  0
  3  4  1  0
  4  5  2  0
  5  6  1  0
  6  7  1  0
  7  8  2  0
  8  9  1  0
  9 10  2  0
 10 11  1  0
 11 12  2  0
  5 13  1  0
 13 14  2  0
 14 15  1  0
 15 16  1  0
 16 17  1  0
 16 18  1  0
 16 19  1  0
 19 20  2  0
 14  2  1  0
 12  4  1  0
 20 13  1  0
 12  7  1  0
  1 21  1  0
  1 22  1  0
  1 23  1  0
  3 24  1  0
  6 25  1  0
  8 26  1  0
  9 27  1  0
 10 28  1  0
 11 29  1  0
 17 30  1  0
 17 31  1  0
 17 32  1  0
 18 33  1  0
 18 34  1  0
 18 35  1  0
 19 36  1  0
 20 37  1  0
M  END
$$$$
