
     RDKit          3D

 37 39  0  0  0  0  0  0  0  0999 V2000
   -6.1263    4.2260    0.4452 C   0  0  0  0  0  0  0  0  0  0  0  0
   -5.5097    3.1664    1.1665 O   0  0  0  0  0  0  0  0  0  0  0  0
   -4.4994    2.4951    0.5369 C   0  0  0  0  0  0  0  0  0  0  0  0
   -4.0423    2.7233   -0.7592 C   0  0  0  0  0  0  0  0  0  0  0  0
   -2.9927    1.9553   -1.2873 C   0  0  0  0  0  0  0  0  0  0  0  0
   -2.3780    0.9445   -0.5307 C   0  0  0  0  0  0  0  0  0  0  0  0
   -1.2752    0.1079   -1.0319 C   0  0  0  0  0  0  0  0  0  0  0  0
   -0.7299   -0.9071   -0.3841 N   0  0  0  0  0  0  0  0  0  0  0  0
    0.2914   -1.4456   -1.1518 C   0  0  0  0  0  0  0  0  0  0  0  0
    0.9482   -2.5004   -0.5728 N   0  0  0  0  0  0  0  0  0  0  0  0
    2.0481   -3.1368   -1.0946 C   0  0  0  0  0  0  0  0  0  0  0  0
    2.5941   -2.8970   -2.1686 O   0  0  0  0  0  0  0  0  0  0  0  0
    2.5519   -4.2880   -0.2384 C   0  0  0  0  0  0  0  0  0  0  0  0
    2.8022   -3.8338    1.5001 S   0  0  0  0  0  0  0  0  0  0  0  0
    3.8176   -2.4231    1.3158 C   0  0  0  0  0  0  0  0  0  0  0  0
    3.3660   -1.2267    1.6161 N   0  0  0  0  0  0  0  0  0  0  0  0
    4.3093   -0.2451    1.3820 N   0  0  0  0  0  0  0  0  0  0  0  0
    5.4358   -0.7431    0.9167 C   0  0  0  0  0  0  0  0  0  0  0  0
    6.6337    0.0551    0.5569 C   0  0  0  0  0  0  0  0  0  0  0  0
    5.4329   -2.4543    0.7517 S   0  0  0  0  0  0  0  0  0  0  0  0
    0.5337   -0.9313   -2.3537 N   0  0  0  0  0  0  0  0  0  0  0  0
   -0.5203    0.3356   -2.5616 S   0  0  0  0  0  0  0  0  0  0  0  0
   -2.8525    0.7285    0.7730 C   0  0  0  0  0  0  0  0  0  0  0  0
   -3.8997    1.4931    1.2983 C   0  0  0  0  0  0  0  0  0  0  0  0
   -6.8943    4.6653    1.0890 H   0  0  0  0  0  0  0  0  0  0  0  0
   -5.4036    5.0132    0.2041 H   0  0  0  0  0  0  0  0  0  0  0  0
   -6.6214    3.8530   -0.4579 H   0  0  0  0  0  0  0  0  0  0  0  0
   -4.4787    3.4904   -1.3912 H   0  0  0  0  0  0  0  0  0  0  0  0
   -2.6768    2.1730   -2.3049 H   0  0  0  0  0  0  0  0  0  0  0  0
    0.6373   -2.6996    0.3673 H   0  0  0  0  0  0  0  0  0  0  0  0
    1.8241   -5.1039   -0.2936 H   0  0  0  0  0  0  0  0  0  0  0  0
    3.4965   -4.6549   -0.6526 H   0  0  0  0  0  0  0  0  0  0  0  0
    6.4337    1.1232    0.6868 H   0  0  0  0  0  0  0  0  0  0  0  0
    7.4827   -0.2097    1.1945 H   0  0  0  0  0  0  0  0  0  0  0  0
    6.9136   -0.1097   -0.4885 H   0  0  0  0  0  0  0  0  0  0  0  0
   -2.4057   -0.0434    1.3986 H   0  0  0  0  0  0  0  0  0  0  0  0
   -4.2465    1.3045    2.3119 H   0  0  0  0  0  0  0  0  0  0  0  0
  1  2  1  0
  2  3  1  0
  3  4  2  0
  4  5  1  0
  5  6  2  0
  6  7  1  0
  7  8  2  0
  8  9  1  0
  9 10  1  0
 10 11  1  0
 11 12  2  0
 11 13  1  0
 13 14  1  0
 14 15  1  0
 15 16  2  0
 16 17  1  0
 17 18  2  0
 18 19  1  0
 18 20  1  0
  9 21  2  0
 21 22  1  0
  6 23  1  0
 23 24  2  0
 24  3  1  0
 22  7  1  0
 20 15  1  0
  1 25  1  0
  1 26  1  0
  1 27  1  0
  4 28  1  0
  5 29  1  0
 10 30  1  0
 13 31  1  0
 13 32  1  0
 19 33  1  0
 19 34  1  0
 19 35  1  0
 23 36  1  0
 24 37  1  0
M  END
$$$$
