
     RDKit          3D

 51 53  0  0  0  0  0  0  0  0999 V2000
   10.4134   -1.6582   -0.8924 C   0  0  0  0  0  0  0  0  0  0  0  0
    9.0120   -1.9005   -0.9036 O   0  0  0  0  0  0  0  0  0  0  0  0
    8.1999   -0.8507   -0.5715 C   0  0  0  0  0  0  0  0  0  0  0  0
    8.6192    0.4309   -0.2215 C   0  0  0  0  0  0  0  0  0  0  0  0
    7.6749    1.4094    0.0956 C   0  0  0  0  0  0  0  0  0  0  0  0
    6.3095    1.1136    0.0649 C   0  0  0  0  0  0  0  0  0  0  0  0
    5.8771   -0.1652   -0.2836 C   0  0  0  0  0  0  0  0  0  0  0  0
    4.5255   -0.5442   -0.3380 N   0  0  0  0  0  0  0  0  0  0  0  0
    3.4156    0.2282   -0.0724 C   0  0  0  0  0  0  0  0  0  0  0  0
    3.3472    1.4026    0.2658 O   0  0  0  0  0  0  0  0  0  0  0  0
    2.1061   -0.5612   -0.2451 C   0  0  0  0  0  0  0  0  0  0  0  0
    2.1564   -1.7354   -0.5871 O   0  0  0  0  0  0  0  0  0  0  0  0
    0.9959    0.2146    0.0262 N   0  0  0  0  0  0  0  0  0  0  0  0
   -0.2601   -0.3058   -0.0705 N   0  0  0  0  0  0  0  0  0  0  0  0
   -1.2237    0.5125    0.2057 C   0  0  0  0  0  0  0  0  0  0  0  0
   -2.5932    0.0404    0.1246 C   0  0  0  0  0  0  0  0  0  0  0  0
   -3.0294   -1.2541   -0.2434 C   0  0  0  0  0  0  0  0  0  0  0  0
   -4.4085   -1.2827   -0.2066 C   0  0  0  0  0  0  0  0  0  0  0  0
   -5.2873   -2.4163   -0.6159 C   0  0  0  0  0  0  0  0  0  0  0  0
   -4.8529   -0.0249    0.1873 N   0  0  0  0  0  0  0  0  0  0  0  0
   -6.2155    0.3747    0.3193 C   0  0  0  0  0  0  0  0  0  0  0  0
   -6.6432    1.5960   -0.2148 C   0  0  0  0  0  0  0  0  0  0  0  0
   -7.9803    1.9829   -0.0905 C   0  0  0  0  0  0  0  0  0  0  0  0
   -8.8954    1.1564    0.5676 C   0  0  0  0  0  0  0  0  0  0  0  0
  -10.5308    1.7006    0.6831 Cl  0  0  0  0  0  0  0  0  0  0  0  0
   -8.4694   -0.0640    1.1032 C   0  0  0  0  0  0  0  0  0  0  0  0
   -9.5414   -1.1316    1.9385 Cl  0  0  0  0  0  0  0  0  0  0  0  0
   -7.1314   -0.4551    0.9779 C   0  0  0  0  0  0  0  0  0  0  0  0
   -3.7339    0.7808    0.4177 C   0  0  0  0  0  0  0  0  0  0  0  0
   -3.8134    2.1682    0.9708 C   0  0  0  0  0  0  0  0  0  0  0  0
    6.8309   -1.1403   -0.6001 C   0  0  0  0  0  0  0  0  0  0  0  0
   10.6873   -0.8921   -1.6254 H   0  0  0  0  0  0  0  0  0  0  0  0
   10.7592   -1.3882    0.1108 H   0  0  0  0  0  0  0  0  0  0  0  0
   10.9155   -2.5873   -1.1788 H   0  0  0  0  0  0  0  0  0  0  0  0
    9.6687    0.7025   -0.1850 H   0  0  0  0  0  0  0  0  0  0  0  0
    8.0019    2.4098    0.3691 H   0  0  0  0  0  0  0  0  0  0  0  0
    5.6112    1.9047    0.3187 H   0  0  0  0  0  0  0  0  0  0  0  0
    4.3130   -1.5048   -0.6041 H   0  0  0  0  0  0  0  0  0  0  0  0
    1.1496    1.1838    0.2999 H   0  0  0  0  0  0  0  0  0  0  0  0
   -1.0460    1.5615    0.4968 H   0  0  0  0  0  0  0  0  0  0  0  0
   -2.3904   -2.0810   -0.5342 H   0  0  0  0  0  0  0  0  0  0  0  0
   -4.7338   -3.1184   -1.2495 H   0  0  0  0  0  0  0  0  0  0  0  0
   -6.1489   -2.0740   -1.1969 H   0  0  0  0  0  0  0  0  0  0  0  0
   -5.6362   -2.9723    0.2591 H   0  0  0  0  0  0  0  0  0  0  0  0
   -5.9633    2.2394   -0.7683 H   0  0  0  0  0  0  0  0  0  0  0  0
   -8.3051    2.9286   -0.5192 H   0  0  0  0  0  0  0  0  0  0  0  0
   -6.8087   -1.3872    1.4347 H   0  0  0  0  0  0  0  0  0  0  0  0
   -3.8888    2.8998    0.1608 H   0  0  0  0  0  0  0  0  0  0  0  0
   -4.6620    2.2923    1.6501 H   0  0  0  0  0  0  0  0  0  0  0  0
   -2.9184    2.4076    1.5541 H   0  0  0  0  0  0  0  0  0  0  0  0
    6.5217   -2.1460   -0.8752 H   0  0  0  0  0  0  0  0  0  0  0  0
  1  2  1  0
  2  3  1  0
  3  4  2  0
  4  5  1  0
  5  6  2  0
  6  7  1  0
  7  8  1  0
  8  9  1  0
  9 10  2  0
  9 11  1  0
 11 12  2  0
 11 13  1  0
 13 14  1  0
 14 15  2  3
 15 16  1  0
 16 17  1  0
 17 18  2  0
 18 19  1  0
 18 20  1  0
 20 21  1  0
 21 22  2  0
 22 23  1  0
 23 24  2  0
 24 25  1  0
 24 26  1  0
 26 27  1  0
 26 28  2  0
 20 29  1  0
 29 30  1  0
  7 31  2  0
 31  3  1  0
 29 16  2  0
 28 21  1  0
  1 32  1  0
  1 33  1  0
  1 34  1  0
  4 35  1  0
  5 36  1  0
  6 37  1  0
  8 38  1  0
 13 39  1  0
 15 40  1  0
 17 41  1  0
 19 42  1  0
 19 43  1  0
 19 44  1  0
 22 45  1  0
 23 46  1  0
 28 47  1  0
 30 48  1  0
 30 49  1  0
 30 50  1  0
 31 51  1  0
M  END
$$$$
