
     RDKit          3D

 69 71  0  0  0  0  0  0  0  0999 V2000
   -4.4155   -0.4874   -4.9224 C   0  0  0  0  0  0  0  0  0  0  0  0
   -3.7151   -1.1080   -3.8522 O   0  0  0  0  0  0  0  0  0  0  0  0
   -3.2756   -0.3102   -2.8276 C   0  0  0  0  0  0  0  0  0  0  0  0
   -3.4616    1.0741   -2.7802 C   0  0  0  0  0  0  0  0  0  0  0  0
   -3.0285    1.8071   -1.6765 C   0  0  0  0  0  0  0  0  0  0  0  0
   -2.4163    1.1639   -0.6033 C   0  0  0  0  0  0  0  0  0  0  0  0
   -2.2095   -0.2260   -0.6138 C   0  0  0  0  0  0  0  0  0  0  0  0
   -1.5440   -0.9390    0.5679 C   0  0  0  0  0  0  0  0  0  0  0  0
   -1.9594   -0.4455    1.9864 C   0  0  0  0  0  0  0  0  0  0  0  0
   -1.1683   -0.3654    2.9252 O   0  0  0  0  0  0  0  0  0  0  0  0
   -3.3212   -0.2172    2.1422 N   0  0  0  0  0  0  0  0  0  0  0  0
   -3.9551    0.2931    3.3667 C   0  0  0  0  0  0  0  0  0  0  0  0
   -3.4114    1.6858    3.7208 C   0  0  0  0  0  0  0  0  0  0  0  0
   -3.7508   -0.6728    4.5447 C   0  0  0  0  0  0  0  0  0  0  0  0
   -5.4682    0.4144    3.1024 C   0  0  0  0  0  0  0  0  0  0  0  0
   -0.0750   -1.0589    0.4299 N   0  0  0  0  0  0  0  0  0  0  0  0
    0.7098    0.0947    0.4236 C   0  0  0  0  0  0  0  0  0  0  0  0
    0.2602    1.2223    0.6292 O   0  0  0  0  0  0  0  0  0  0  0  0
    2.1887   -0.0992    0.1329 C   0  0  0  0  0  0  0  0  0  0  0  0
    2.9100    1.2403    0.0185 C   0  0  0  0  0  0  0  0  0  0  0  0
    4.3666    1.0688   -0.3603 C   0  0  0  0  0  0  0  0  0  0  0  0
    4.8569   -0.0255   -0.6174 O   0  0  0  0  0  0  0  0  0  0  0  0
    5.0286    2.2755   -0.3886 N   0  0  0  0  0  0  0  0  0  0  0  0
    6.3561    2.4494   -0.7090 C   0  0  0  0  0  0  0  0  0  0  0  0
    7.3274    1.4900   -1.0689 C   0  0  0  0  0  0  0  0  0  0  0  0
    8.4716    2.2186   -1.2787 C   0  0  0  0  0  0  0  0  0  0  0  0
    9.8489    1.8803   -1.6749 C   0  0  0  0  0  0  0  0  0  0  0  0
    8.2067    3.5336   -1.0630 O   0  0  0  0  0  0  0  0  0  0  0  0
    6.8801    3.6803   -0.7029 N   0  0  0  0  0  0  0  0  0  0  0  0
    0.4652   -2.3817    0.2066 C   0  0  0  0  0  0  0  0  0  0  0  0
    1.3956   -3.0307    1.2026 C   0  0  0  0  0  0  0  0  0  0  0  0
    0.0236   -3.5869    1.0036 C   0  0  0  0  0  0  0  0  0  0  0  0
   -2.6186   -0.9504   -1.7541 C   0  0  0  0  0  0  0  0  0  0  0  0
   -2.4189   -2.3126   -1.7235 O   0  0  0  0  0  0  0  0  0  0  0  0
   -1.6798   -2.7964   -2.8446 C   0  0  0  0  0  0  0  0  0  0  0  0
   -4.7026   -1.2691   -5.6327 H   0  0  0  0  0  0  0  0  0  0  0  0
   -5.3341   -0.0091   -4.5687 H   0  0  0  0  0  0  0  0  0  0  0  0
   -3.7739    0.2244   -5.4519 H   0  0  0  0  0  0  0  0  0  0  0  0
   -3.9463    1.6170   -3.5847 H   0  0  0  0  0  0  0  0  0  0  0  0
   -3.1704    2.8853   -1.6487 H   0  0  0  0  0  0  0  0  0  0  0  0
   -2.0927    1.7666    0.2453 H   0  0  0  0  0  0  0  0  0  0  0  0
   -1.9493   -1.9595    0.5734 H   0  0  0  0  0  0  0  0  0  0  0  0
   -3.8897   -0.2408    1.3041 H   0  0  0  0  0  0  0  0  0  0  0  0
   -3.5250    2.3786    2.8793 H   0  0  0  0  0  0  0  0  0  0  0  0
   -2.3478    1.6562    3.9767 H   0  0  0  0  0  0  0  0  0  0  0  0
   -3.9420    2.1108    4.5800 H   0  0  0  0  0  0  0  0  0  0  0  0
   -4.0976   -1.6800    4.2893 H   0  0  0  0  0  0  0  0  0  0  0  0
   -4.3052   -0.3407    5.4306 H   0  0  0  0  0  0  0  0  0  0  0  0
   -2.6995   -0.7513    4.8363 H   0  0  0  0  0  0  0  0  0  0  0  0
   -5.6711    1.0968    2.2684 H   0  0  0  0  0  0  0  0  0  0  0  0
   -5.9001   -0.5578    2.8385 H   0  0  0  0  0  0  0  0  0  0  0  0
   -6.0017    0.7922    3.9823 H   0  0  0  0  0  0  0  0  0  0  0  0
    2.2970   -0.6575   -0.8032 H   0  0  0  0  0  0  0  0  0  0  0  0
    2.6406   -0.6757    0.9450 H   0  0  0  0  0  0  0  0  0  0  0  0
    2.4325    1.8644   -0.7475 H   0  0  0  0  0  0  0  0  0  0  0  0
    2.8569    1.7769    0.9738 H   0  0  0  0  0  0  0  0  0  0  0  0
    4.5432    3.1332   -0.1619 H   0  0  0  0  0  0  0  0  0  0  0  0
    7.2151    0.4206   -1.1632 H   0  0  0  0  0  0  0  0  0  0  0  0
   10.0610    0.8227   -1.4884 H   0  0  0  0  0  0  0  0  0  0  0  0
    9.9978    2.0773   -2.7411 H   0  0  0  0  0  0  0  0  0  0  0  0
   10.5744    2.4747   -1.1105 H   0  0  0  0  0  0  0  0  0  0  0  0
    0.6771   -2.5610   -0.8457 H   0  0  0  0  0  0  0  0  0  0  0  0
    2.2370   -3.5931    0.8154 H   0  0  0  0  0  0  0  0  0  0  0  0
    1.5916   -2.5240    2.1422 H   0  0  0  0  0  0  0  0  0  0  0  0
   -0.0731   -4.5299    0.4780 H   0  0  0  0  0  0  0  0  0  0  0  0
   -0.6728   -3.4652    1.8252 H   0  0  0  0  0  0  0  0  0  0  0  0
   -2.3601   -3.1608   -3.6200 H   0  0  0  0  0  0  0  0  0  0  0  0
   -0.9880   -2.0498   -3.2515 H   0  0  0  0  0  0  0  0  0  0  0  0
   -1.0844   -3.6504   -2.5055 H   0  0  0  0  0  0  0  0  0  0  0  0
  1  2  1  0
  2  3  1  0
  3  4  2  0
  4  5  1  0
  5  6  2  0
  6  7  1  0
  7  8  1  0
  8  9  1  0
  9 10  2  0
  9 11  1  0
 11 12  1  0
 12 13  1  0
 12 14  1  0
 12 15  1  0
  8 16  1  0
 16 17  1  0
 17 18  2  0
 17 19  1  0
 19 20  1  0
 20 21  1  0
 21 22  2  0
 21 23  1  0
 23 24  1  0
 24 25  1  0
 25 26  2  0
 26 27  1  0
 26 28  1  0
 28 29  1  0
 16 30  1  0
 30 31  1  0
 31 32  1  0
  7 33  2  0
 33 34  1  0
 34 35  1  0
 33  3  1  0
 29 24  2  0
 32 30  1  0
  1 36  1  0
  1 37  1  0
  1 38  1  0
  4 39  1  0
  5 40  1  0
  6 41  1  0
  8 42  1  0
 11 43  1  0
 13 44  1  0
 13 45  1  0
 13 46  1  0
 14 47  1  0
 14 48  1  0
 14 49  1  0
 15 50  1  0
 15 51  1  0
 15 52  1  0
 19 53  1  0
 19 54  1  0
 20 55  1  0
 20 56  1  0
 23 57  1  0
 25 58  1  0
 27 59  1  0
 27 60  1  0
 27 61  1  0
 30 62  1  0
 31 63  1  0
 31 64  1  0
 32 65  1  0
 32 66  1  0
 35 67  1  0
 35 68  1  0
 35 69  1  0
M  END
$$$$
