
     RDKit          3D

 41 42  0  0  0  0  0  0  0  0999 V2000
   -2.9680   -2.8013    0.2326 C   0  0  0  0  0  0  0  0  0  0  0  0
   -3.4863   -1.4354    0.6618 C   0  0  0  0  0  0  0  0  0  0  0  0
   -2.7321   -0.3536    0.0160 N   0  0  0  0  0  0  0  0  0  0  0  0
   -3.2814    0.1289   -1.2598 C   0  0  0  0  0  0  0  0  0  0  0  0
   -4.1883    1.3352   -1.0407 C   0  0  0  0  0  0  0  0  0  0  0  0
   -1.5449    0.1467    0.5477 C   0  0  0  0  0  0  0  0  0  0  0  0
   -0.9481   -0.3918    1.7009 C   0  0  0  0  0  0  0  0  0  0  0  0
    0.2427    0.1138    2.2464 C   0  0  0  0  0  0  0  0  0  0  0  0
    0.8955    1.1863    1.6472 C   0  0  0  0  0  0  0  0  0  0  0  0
    2.1098    1.7345    2.2567 C   0  0  0  0  0  0  0  0  0  0  0  0
    3.2553    2.0321    1.6304 C   0  0  0  0  0  0  0  0  0  0  0  0
    3.5091    1.8146    0.1858 C   0  0  0  0  0  0  0  0  0  0  0  0
    3.6567    2.7868   -0.5513 O   0  0  0  0  0  0  0  0  0  0  0  0
    3.6028    0.4353   -0.3516 C   0  0  0  0  0  0  0  0  0  0  0  0
    3.6874    0.2502   -1.7352 C   0  0  0  0  0  0  0  0  0  0  0  0
    3.7938   -1.0378   -2.2562 C   0  0  0  0  0  0  0  0  0  0  0  0
    3.8212   -2.1060   -1.3716 C   0  0  0  0  0  0  0  0  0  0  0  0
    3.7550   -1.9662   -0.0285 N   0  0  0  0  0  0  0  0  0  0  0  0
    3.6462   -0.6980    0.4503 C   0  0  0  0  0  0  0  0  0  0  0  0
    0.3219    1.7544    0.5132 C   0  0  0  0  0  0  0  0  0  0  0  0
   -0.8685    1.2390   -0.0210 C   0  0  0  0  0  0  0  0  0  0  0  0
   -1.9404   -2.9693    0.5727 H   0  0  0  0  0  0  0  0  0  0  0  0
   -2.9789   -2.9056   -0.8576 H   0  0  0  0  0  0  0  0  0  0  0  0
   -3.5984   -3.5906    0.6528 H   0  0  0  0  0  0  0  0  0  0  0  0
   -3.4856   -1.3384    1.7538 H   0  0  0  0  0  0  0  0  0  0  0  0
   -4.5448   -1.3632    0.3765 H   0  0  0  0  0  0  0  0  0  0  0  0
   -2.4902    0.3579   -1.9823 H   0  0  0  0  0  0  0  0  0  0  0  0
   -3.8708   -0.6700   -1.7330 H   0  0  0  0  0  0  0  0  0  0  0  0
   -4.6028    1.6785   -1.9977 H   0  0  0  0  0  0  0  0  0  0  0  0
   -5.0237    1.0827   -0.3797 H   0  0  0  0  0  0  0  0  0  0  0  0
   -3.6460    2.1690   -0.5849 H   0  0  0  0  0  0  0  0  0  0  0  0
   -1.4015   -1.2299    2.2219 H   0  0  0  0  0  0  0  0  0  0  0  0
    0.6439   -0.3493    3.1447 H   0  0  0  0  0  0  0  0  0  0  0  0
    2.0317    1.9406    3.3230 H   0  0  0  0  0  0  0  0  0  0  0  0
    4.0634    2.5261    2.1634 H   0  0  0  0  0  0  0  0  0  0  0  0
    3.6725    1.1040   -2.4076 H   0  0  0  0  0  0  0  0  0  0  0  0
    3.8654   -1.2000   -3.3262 H   0  0  0  0  0  0  0  0  0  0  0  0
    3.9035   -3.1282   -1.7296 H   0  0  0  0  0  0  0  0  0  0  0  0
    3.6044   -0.6458    1.5337 H   0  0  0  0  0  0  0  0  0  0  0  0
    0.7763    2.6192    0.0312 H   0  0  0  0  0  0  0  0  0  0  0  0
   -1.2580    1.7445   -0.8966 H   0  0  0  0  0  0  0  0  0  0  0  0
  1  2  1  0
  2  3  1  0
  3  4  1  0
  4  5  1  0
  3  6  1  0
  6  7  2  0
  7  8  1  0
  8  9  2  0
  9 10  1  0
 10 11  2  3
 11 12  1  0
 12 13  2  0
 12 14  1  0
 14 15  2  0
 15 16  1  0
 16 17  2  0
 17 18  1  0
 18 19  2  0
  9 20  1  0
 20 21  2  0
 21  6  1  0
 19 14  1  0
  1 22  1  0
  1 23  1  0
  1 24  1  0
  2 25  1  0
  2 26  1  0
  4 27  1  0
  4 28  1  0
  5 29  1  0
  5 30  1  0
  5 31  1  0
  7 32  1  0
  8 33  1  0
 10 34  1  0
 11 35  1  0
 15 36  1  0
 16 37  1  0
 17 38  1  0
 19 39  1  0
 20 40  1  0
 21 41  1  0
M  END
$$$$
