
     RDKit          3D

 38 40  0  0  0  0  0  0  0  0999 V2000
   -2.2837   -2.0504   -0.5654 C   0  0  0  0  0  0  0  0  0  0  0  0
   -1.4990   -0.8029   -0.1481 C   0  0  0  0  0  0  0  0  0  0  0  0
   -1.7560   -0.4613    1.3401 C   0  0  0  0  0  0  0  0  0  0  0  0
   -1.5229    1.0489    1.4424 C   0  0  0  0  0  0  0  0  0  0  0  0
   -1.1779    1.4867    0.0121 C   0  0  0  0  0  0  0  0  0  0  0  0
    0.3294    1.3851   -0.1602 C   0  0  0  0  0  0  0  0  0  0  0  0
    0.9753    2.4229   -0.3139 O   0  0  0  0  0  0  0  0  0  0  0  0
    0.8545    0.0781   -0.1651 N   0  0  0  0  0  0  0  0  0  0  0  0
    2.2958   -0.0763   -0.1937 C   0  0  0  0  0  0  0  0  0  0  0  0
    2.9224   -1.1107   -0.9100 C   0  0  0  0  0  0  0  0  0  0  0  0
    4.3152   -1.2537   -0.9218 C   0  0  0  0  0  0  0  0  0  0  0  0
    5.1143   -0.3633   -0.2133 C   0  0  0  0  0  0  0  0  0  0  0  0
    4.5151    0.6669    0.5018 C   0  0  0  0  0  0  0  0  0  0  0  0
    5.4969    1.7655    1.3929 Cl  0  0  0  0  0  0  0  0  0  0  0  0
    3.1252    0.8128    0.5135 C   0  0  0  0  0  0  0  0  0  0  0  0
    0.0250   -1.0609   -0.2731 C   0  0  0  0  0  0  0  0  0  0  0  0
    0.4292   -2.2216   -0.3701 O   0  0  0  0  0  0  0  0  0  0  0  0
   -1.8963    0.4857   -0.9046 C   0  0  0  0  0  0  0  0  0  0  0  0
   -1.4413    0.5363   -2.3752 C   0  0  0  0  0  0  0  0  0  0  0  0
   -3.4190    0.7635   -0.9091 C   0  0  0  0  0  0  0  0  0  0  0  0
   -2.0994   -2.2999   -1.6159 H   0  0  0  0  0  0  0  0  0  0  0  0
   -1.9921   -2.9212    0.0333 H   0  0  0  0  0  0  0  0  0  0  0  0
   -3.3623   -1.9213   -0.4314 H   0  0  0  0  0  0  0  0  0  0  0  0
   -2.7827   -0.6994    1.6422 H   0  0  0  0  0  0  0  0  0  0  0  0
   -1.0869   -1.0060    2.0165 H   0  0  0  0  0  0  0  0  0  0  0  0
   -2.4354    1.5455    1.7914 H   0  0  0  0  0  0  0  0  0  0  0  0
   -0.7289    1.2813    2.1607 H   0  0  0  0  0  0  0  0  0  0  0  0
   -1.4835    2.5222   -0.1748 H   0  0  0  0  0  0  0  0  0  0  0  0
    2.3493   -1.8156   -1.5077 H   0  0  0  0  0  0  0  0  0  0  0  0
    4.7705   -2.0615   -1.4901 H   0  0  0  0  0  0  0  0  0  0  0  0
    6.1947   -0.4768   -0.2225 H   0  0  0  0  0  0  0  0  0  0  0  0
    2.7021    1.6195    1.1071 H   0  0  0  0  0  0  0  0  0  0  0  0
   -1.6347    1.5268   -2.8031 H   0  0  0  0  0  0  0  0  0  0  0  0
   -0.3773    0.3293   -2.5166 H   0  0  0  0  0  0  0  0  0  0  0  0
   -1.9882   -0.1976   -2.9779 H   0  0  0  0  0  0  0  0  0  0  0  0
   -3.9481    0.0614   -1.5632 H   0  0  0  0  0  0  0  0  0  0  0  0
   -3.6239    1.7735   -1.2833 H   0  0  0  0  0  0  0  0  0  0  0  0
   -3.8754    0.6887    0.0820 H   0  0  0  0  0  0  0  0  0  0  0  0
  1  2  1  0
  2  3  1  0
  3  4  1  0
  4  5  1  0
  5  6  1  0
  6  7  2  0
  6  8  1  0
  8  9  1  0
  9 10  2  0
 10 11  1  0
 11 12  2  0
 12 13  1  0
 13 14  1  0
 13 15  2  0
  8 16  1  0
 16 17  2  0
  5 18  1  0
 18 19  1  0
 18 20  1  0
 16  2  1  0
 18  2  1  0
 15  9  1  0
  1 21  1  0
  1 22  1  0
  1 23  1  0
  3 24  1  0
  3 25  1  0
  4 26  1  0
  4 27  1  0
  5 28  1  0
 10 29  1  0
 11 30  1  0
 12 31  1  0
 15 32  1  0
 19 33  1  0
 19 34  1  0
 19 35  1  0
 20 36  1  0
 20 37  1  0
 20 38  1  0
M  END
$$$$
