
     RDKit          3D

 34 35  0  0  0  0  0  0  0  0999 V2000
    1.5464    2.6503   -1.0576 C   0  0  0  0  0  0  0  0  0  0  0  0
    0.3411    1.8471   -1.1667 N   0  0  0  0  0  0  0  0  0  0  0  0
    0.2098    0.7337   -0.5261 C   0  0  0  0  0  0  0  0  0  0  0  0
    1.2588    0.0661    0.2979 C   0  0  0  0  0  0  0  0  0  0  0  0
    0.9767   -0.3107    1.6154 C   0  0  0  0  0  0  0  0  0  0  0  0
    1.9523   -0.9547    2.3783 C   0  0  0  0  0  0  0  0  0  0  0  0
    3.2040   -1.2284    1.8260 C   0  0  0  0  0  0  0  0  0  0  0  0
    3.4838   -0.8626    0.5093 C   0  0  0  0  0  0  0  0  0  0  0  0
    2.5119   -0.2181   -0.2569 C   0  0  0  0  0  0  0  0  0  0  0  0
   -1.1231    0.0550   -0.5965 C   0  0  0  0  0  0  0  0  0  0  0  0
   -1.2585   -1.1863   -1.2547 C   0  0  0  0  0  0  0  0  0  0  0  0
   -0.1116   -1.8713   -1.9430 C   0  0  0  0  0  0  0  0  0  0  0  0
   -2.5142   -1.8132   -1.2603 C   0  0  0  0  0  0  0  0  0  0  0  0
   -3.6176   -1.2067   -0.6633 C   0  0  0  0  0  0  0  0  0  0  0  0
   -3.4848    0.0353   -0.0466 C   0  0  0  0  0  0  0  0  0  0  0  0
   -2.2402    0.6798    0.0032 C   0  0  0  0  0  0  0  0  0  0  0  0
   -2.1465    2.0299    0.6607 C   0  0  0  0  0  0  0  0  0  0  0  0
    1.9817    2.6384   -0.0534 H   0  0  0  0  0  0  0  0  0  0  0  0
    1.2936    3.6932   -1.2750 H   0  0  0  0  0  0  0  0  0  0  0  0
    2.2928    2.3375   -1.7933 H   0  0  0  0  0  0  0  0  0  0  0  0
    0.0068   -0.1018    2.0584 H   0  0  0  0  0  0  0  0  0  0  0  0
    1.7361   -1.2436    3.4038 H   0  0  0  0  0  0  0  0  0  0  0  0
    3.9619   -1.7307    2.4224 H   0  0  0  0  0  0  0  0  0  0  0  0
    4.4572   -1.0834    0.0785 H   0  0  0  0  0  0  0  0  0  0  0  0
    2.7284    0.0450   -1.2888 H   0  0  0  0  0  0  0  0  0  0  0  0
   -0.4719   -2.6054   -2.6723 H   0  0  0  0  0  0  0  0  0  0  0  0
    0.5089   -2.3991   -1.2129 H   0  0  0  0  0  0  0  0  0  0  0  0
    0.4988   -1.1545   -2.5011 H   0  0  0  0  0  0  0  0  0  0  0  0
   -2.6443   -2.7775   -1.7475 H   0  0  0  0  0  0  0  0  0  0  0  0
   -4.5871   -1.6980   -0.6899 H   0  0  0  0  0  0  0  0  0  0  0  0
   -4.3628    0.5003    0.3967 H   0  0  0  0  0  0  0  0  0  0  0  0
   -2.0710    2.8155   -0.0973 H   0  0  0  0  0  0  0  0  0  0  0  0
   -3.0332    2.2356    1.2703 H   0  0  0  0  0  0  0  0  0  0  0  0
   -1.2846    2.0832    1.3329 H   0  0  0  0  0  0  0  0  0  0  0  0
  1  2  1  0
  2  3  2  3
  3  4  1  0
  4  5  2  0
  5  6  1  0
  6  7  2  0
  7  8  1  0
  8  9  2  0
  3 10  1  0
 10 11  2  0
 11 12  1  0
 11 13  1  0
 13 14  2  0
 14 15  1  0
 15 16  2  0
 16 17  1  0
  9  4  1  0
 16 10  1  0
  1 18  1  0
  1 19  1  0
  1 20  1  0
  5 21  1  0
  6 22  1  0
  7 23  1  0
  8 24  1  0
  9 25  1  0
 12 26  1  0
 12 27  1  0
 12 28  1  0
 13 29  1  0
 14 30  1  0
 15 31  1  0
 17 32  1  0
 17 33  1  0
 17 34  1  0
M  END
$$$$
