
     RDKit          3D

 40 42  0  0  0  0  0  0  0  0999 V2000
   -5.3854   -0.0916    0.6633 C   0  0  0  0  0  0  0  0  0  0  0  0
   -3.9628   -0.3373    0.2546 C   0  0  0  0  0  0  0  0  0  0  0  0
   -3.5118    0.0470   -1.0094 C   0  0  0  0  0  0  0  0  0  0  0  0
   -2.1764   -0.1515   -1.4124 C   0  0  0  0  0  0  0  0  0  0  0  0
   -1.8242    0.2737   -2.8124 C   0  0  0  0  0  0  0  0  0  0  0  0
   -1.2675   -0.7347   -0.4961 C   0  0  0  0  0  0  0  0  0  0  0  0
    0.4701   -1.0023   -0.9288 S   0  0  0  0  0  6  0  0  0  0  0  0
    0.7891   -2.3675   -0.5624 O   0  0  0  0  0  0  0  0  0  0  0  0
    0.7239   -0.5449   -2.2795 O   0  0  0  0  0  0  0  0  0  0  0  0
    1.2608    0.0847    0.1231 N   0  0  0  0  0  0  0  0  0  0  0  0
    0.8863    1.5313   -0.0239 C   0  0  0  0  0  0  0  0  0  0  0  0
    2.1067    2.3382    0.4464 C   0  0  0  0  0  0  0  0  0  0  0  0
    3.2062    1.3339    0.3391 C   0  0  0  0  0  0  0  0  0  0  0  0
    4.5691    1.5564    0.4657 C   0  0  0  0  0  0  0  0  0  0  0  0
    5.4260    0.4563    0.4129 C   0  0  0  0  0  0  0  0  0  0  0  0
    4.9113   -0.8395    0.2604 C   0  0  0  0  0  0  0  0  0  0  0  0
    3.5337   -1.0509    0.1455 C   0  0  0  0  0  0  0  0  0  0  0  0
    2.6950    0.0497    0.1510 C   0  0  0  0  0  0  0  0  0  0  0  0
   -1.7123   -1.1218    0.7964 C   0  0  0  0  0  0  0  0  0  0  0  0
   -0.8345   -1.7927    1.8229 C   0  0  0  0  0  0  0  0  0  0  0  0
   -3.0583   -0.9116    1.1477 C   0  0  0  0  0  0  0  0  0  0  0  0
   -6.0559   -0.1483   -0.2007 H   0  0  0  0  0  0  0  0  0  0  0  0
   -5.4777    0.8991    1.1187 H   0  0  0  0  0  0  0  0  0  0  0  0
   -5.7214   -0.8451    1.3835 H   0  0  0  0  0  0  0  0  0  0  0  0
   -4.2209    0.5021   -1.7009 H   0  0  0  0  0  0  0  0  0  0  0  0
   -1.4766   -0.5819   -3.3990 H   0  0  0  0  0  0  0  0  0  0  0  0
   -1.0771    1.0723   -2.7978 H   0  0  0  0  0  0  0  0  0  0  0  0
   -2.6956    0.6757   -3.3421 H   0  0  0  0  0  0  0  0  0  0  0  0
    0.6759    1.7749   -1.0716 H   0  0  0  0  0  0  0  0  0  0  0  0
    0.0035    1.7690    0.5771 H   0  0  0  0  0  0  0  0  0  0  0  0
    1.9873    2.6510    1.4892 H   0  0  0  0  0  0  0  0  0  0  0  0
    2.2734    3.2155   -0.1851 H   0  0  0  0  0  0  0  0  0  0  0  0
    4.9640    2.5563    0.6141 H   0  0  0  0  0  0  0  0  0  0  0  0
    6.4998    0.6006    0.5077 H   0  0  0  0  0  0  0  0  0  0  0  0
    5.5884   -1.6904    0.2414 H   0  0  0  0  0  0  0  0  0  0  0  0
    3.1529   -2.0623    0.0576 H   0  0  0  0  0  0  0  0  0  0  0  0
   -1.3354   -1.8499    2.7963 H   0  0  0  0  0  0  0  0  0  0  0  0
   -0.6085   -2.8188    1.5193 H   0  0  0  0  0  0  0  0  0  0  0  0
    0.0889   -1.2360    1.9933 H   0  0  0  0  0  0  0  0  0  0  0  0
   -3.4101   -1.2088    2.1353 H   0  0  0  0  0  0  0  0  0  0  0  0
  1  2  1  0
  2  3  2  0
  3  4  1  0
  4  5  1  0
  4  6  2  0
  6  7  1  0
  7  8  2  0
  7  9  2  0
  7 10  1  0
 10 11  1  0
 11 12  1  0
 12 13  1  0
 13 14  2  0
 14 15  1  0
 15 16  2  0
 16 17  1  0
 17 18  2  0
  6 19  1  0
 19 20  1  0
 19 21  2  0
 21  2  1  0
 18 10  1  0
 18 13  1  0
  1 22  1  0
  1 23  1  0
  1 24  1  0
  3 25  1  0
  5 26  1  0
  5 27  1  0
  5 28  1  0
 11 29  1  0
 11 30  1  0
 12 31  1  0
 12 32  1  0
 14 33  1  0
 15 34  1  0
 16 35  1  0
 17 36  1  0
 20 37  1  0
 20 38  1  0
 20 39  1  0
 21 40  1  0
M  END
$$$$
