
     RDKit          3D

 33 34  0  0  0  0  0  0  0  0999 V2000
   -6.1443    0.9081   -1.2083 C   0  0  0  0  0  0  0  0  0  0  0  0
   -4.6510    0.9733   -0.9420 C   0  0  0  0  0  0  0  0  0  0  0  0
   -4.2643   -0.2427   -0.3047 O   0  0  0  0  0  0  0  0  0  0  0  0
   -2.9448   -0.3845    0.0232 C   0  0  0  0  0  0  0  0  0  0  0  0
   -2.6280   -1.5899    0.6547 C   0  0  0  0  0  0  0  0  0  0  0  0
   -1.3154   -1.8670    1.0450 C   0  0  0  0  0  0  0  0  0  0  0  0
   -0.2996   -0.9391    0.7961 C   0  0  0  0  0  0  0  0  0  0  0  0
    1.0873   -1.2707    1.2272 C   0  0  0  0  0  0  0  0  0  0  0  0
    1.2812   -2.0776    2.1293 O   0  0  0  0  0  0  0  0  0  0  0  0
    2.1057   -0.6520    0.5381 N   0  0  0  0  0  0  0  0  0  0  0  0
    3.4779   -1.0347    0.7752 C   0  0  0  0  0  0  0  0  0  0  0  0
    4.3637   -0.0533    0.1046 C   0  0  0  0  0  0  0  0  0  0  0  0
    5.3311    0.8178    0.5613 C   0  0  0  0  0  0  0  0  0  0  0  0
    5.8264    1.4985   -0.5769 C   0  0  0  0  0  0  0  0  0  0  0  0
    5.1304    1.0026   -1.6539 C   0  0  0  0  0  0  0  0  0  0  0  0
    4.2370    0.0625   -1.2516 O   0  0  0  0  0  0  0  0  0  0  0  0
   -0.6161    0.2763    0.1764 C   0  0  0  0  0  0  0  0  0  0  0  0
   -1.9346    0.5496   -0.2112 C   0  0  0  0  0  0  0  0  0  0  0  0
   -6.4932    1.8213   -1.6984 H   0  0  0  0  0  0  0  0  0  0  0  0
   -6.3852    0.0505   -1.8452 H   0  0  0  0  0  0  0  0  0  0  0  0
   -6.6973    0.7755   -0.2725 H   0  0  0  0  0  0  0  0  0  0  0  0
   -4.1224    1.0881   -1.8953 H   0  0  0  0  0  0  0  0  0  0  0  0
   -4.4411    1.8284   -0.2891 H   0  0  0  0  0  0  0  0  0  0  0  0
   -3.4111   -2.3195    0.8482 H   0  0  0  0  0  0  0  0  0  0  0  0
   -1.0894   -2.8089    1.5408 H   0  0  0  0  0  0  0  0  0  0  0  0
    1.9093   -0.2468   -0.3675 H   0  0  0  0  0  0  0  0  0  0  0  0
    3.6309   -2.0386    0.3654 H   0  0  0  0  0  0  0  0  0  0  0  0
    3.6651   -1.0699    1.8536 H   0  0  0  0  0  0  0  0  0  0  0  0
    5.6386    0.9439    1.5904 H   0  0  0  0  0  0  0  0  0  0  0  0
    6.5963    2.2565   -0.6095 H   0  0  0  0  0  0  0  0  0  0  0  0
    5.1515    1.2034   -2.7160 H   0  0  0  0  0  0  0  0  0  0  0  0
    0.1440    1.0347    0.0100 H   0  0  0  0  0  0  0  0  0  0  0  0
   -2.1386    1.5040   -0.6856 H   0  0  0  0  0  0  0  0  0  0  0  0
  1  2  1  0
  2  3  1  0
  3  4  1  0
  4  5  2  0
  5  6  1  0
  6  7  2  0
  7  8  1  0
  8  9  2  0
  8 10  1  0
 10 11  1  0
 11 12  1  0
 12 13  2  0
 13 14  1  0
 14 15  2  0
 15 16  1  0
  7 17  1  0
 17 18  2  0
 18  4  1  0
 16 12  1  0
  1 19  1  0
  1 20  1  0
  1 21  1  0
  2 22  1  0
  2 23  1  0
  5 24  1  0
  6 25  1  0
 10 26  1  0
 11 27  1  0
 11 28  1  0
 13 29  1  0
 14 30  1  0
 15 31  1  0
 17 32  1  0
 18 33  1  0
M  END
$$$$
