
     RDKit          3D

 84 87  0  0  0  0  0  0  0  0999 V2000
    6.9371    4.4233   -1.1895 C   0  0  0  0  0  0  0  0  0  0  0  0
    6.6849    3.0720   -0.8231 O   0  0  0  0  0  0  0  0  0  0  0  0
    5.4115    2.7636   -0.4306 C   0  0  0  0  0  0  0  0  0  0  0  0
    5.2497    1.4547    0.0347 C   0  0  0  0  0  0  0  0  0  0  0  0
    4.0049    1.0039    0.4760 C   0  0  0  0  0  0  0  0  0  0  0  0
    2.9068    1.8648    0.4276 C   0  0  0  0  0  0  0  0  0  0  0  0
    1.3280    1.3088    1.0211 S   0  0  0  0  0  6  0  0  0  0  0  0
    0.5143    2.4697    1.3248 O   0  0  0  0  0  0  0  0  0  0  0  0
    1.5569    0.2914    2.0209 O   0  0  0  0  0  0  0  0  0  0  0  0
    0.6191    0.5728   -0.3451 N   0  0  0  0  0  0  0  0  0  0  0  0
    0.3361    1.4531   -1.5025 C   0  0  0  0  0  0  0  0  0  0  0  0
    1.1508   -0.7639   -0.7512 C   0  0  0  0  0  0  0  0  0  0  0  0
    0.0094   -1.8149   -0.7516 C   0  0  0  0  0  0  0  0  0  0  0  0
   -0.3136   -2.0309    0.6383 O   0  0  0  0  0  0  0  0  0  0  0  0
   -1.6391   -2.3198    0.8597 C   0  0  0  0  0  0  0  0  0  0  0  0
   -2.6248   -1.3159    0.8638 C   0  0  0  0  0  0  0  0  0  0  0  0
   -2.2328    0.0254    0.6518 N   0  0  0  0  0  0  0  0  0  0  0  0
   -3.0483    1.1142    0.4421 C   0  0  0  0  0  0  0  0  0  0  0  0
   -4.2597    1.0892    0.2649 O   0  0  0  0  0  0  0  0  0  0  0  0
   -2.3216    2.2890    0.4080 N   0  0  0  0  0  0  0  0  0  0  0  0
   -2.9986    3.5744    0.2991 C   0  0  0  0  0  0  0  0  0  0  0  0
   -3.5671    4.0256    1.6469 C   0  0  0  0  0  0  0  0  0  0  0  0
   -4.3737    5.3208    1.5215 C   0  0  0  0  0  0  0  0  0  0  0  0
   -3.9709    6.1816    0.3231 C   0  0  0  0  0  0  0  0  0  0  0  0
   -2.4817    6.0749    0.0270 C   0  0  0  0  0  0  0  0  0  0  0  0
   -2.0494    4.6376   -0.2748 C   0  0  0  0  0  0  0  0  0  0  0  0
   -3.9520   -1.6779    1.1348 C   0  0  0  0  0  0  0  0  0  0  0  0
   -4.2936   -3.0011    1.4324 C   0  0  0  0  0  0  0  0  0  0  0  0
   -3.3092   -3.9820    1.4720 C   0  0  0  0  0  0  0  0  0  0  0  0
   -1.9866   -3.6402    1.1815 C   0  0  0  0  0  0  0  0  0  0  0  0
   -0.9650   -4.7023    1.2629 C   0  0  0  0  0  0  0  0  0  0  0  0
   -0.8809   -5.3337    2.3130 O   0  0  0  0  0  0  0  0  0  0  0  0
   -0.1598   -4.9405    0.1489 N   0  0  0  0  0  0  0  0  0  0  0  0
    0.9923   -5.8558    0.2687 C   0  0  0  0  0  0  0  0  0  0  0  0
    0.5522   -7.3144    0.4140 C   0  0  0  0  0  0  0  0  0  0  0  0
    1.9782   -5.4350    1.3796 C   0  0  0  0  0  0  0  0  0  0  0  0
    3.2396   -6.0837    1.2088 O   0  0  0  0  0  0  0  0  0  0  0  0
   -0.4060   -4.3390   -1.1652 C   0  0  0  0  0  0  0  0  0  0  0  0
    0.4948   -3.1224   -1.4420 C   0  0  0  0  0  0  0  0  0  0  0  0
    0.5909   -2.9279   -2.9629 C   0  0  0  0  0  0  0  0  0  0  0  0
    3.0590    3.1802   -0.0202 C   0  0  0  0  0  0  0  0  0  0  0  0
    4.3124    3.6252   -0.4552 C   0  0  0  0  0  0  0  0  0  0  0  0
    6.7252    5.1061   -0.3587 H   0  0  0  0  0  0  0  0  0  0  0  0
    6.3693    4.6991   -2.0842 H   0  0  0  0  0  0  0  0  0  0  0  0
    8.0011    4.5117   -1.4292 H   0  0  0  0  0  0  0  0  0  0  0  0
    6.1089    0.7879    0.0702 H   0  0  0  0  0  0  0  0  0  0  0  0
    3.9099   -0.0070    0.8669 H   0  0  0  0  0  0  0  0  0  0  0  0
    1.2343    1.5988   -2.1115 H   0  0  0  0  0  0  0  0  0  0  0  0
   -0.4417    0.9962   -2.1238 H   0  0  0  0  0  0  0  0  0  0  0  0
   -0.0360    2.4293   -1.1853 H   0  0  0  0  0  0  0  0  0  0  0  0
    1.9320   -1.0936   -0.0581 H   0  0  0  0  0  0  0  0  0  0  0  0
    1.6243   -0.6726   -1.7329 H   0  0  0  0  0  0  0  0  0  0  0  0
   -0.8539   -1.4116   -1.3000 H   0  0  0  0  0  0  0  0  0  0  0  0
   -1.2367    0.1856    0.5533 H   0  0  0  0  0  0  0  0  0  0  0  0
   -1.4649    2.2897    0.9561 H   0  0  0  0  0  0  0  0  0  0  0  0
   -3.8346    3.4445   -0.4009 H   0  0  0  0  0  0  0  0  0  0  0  0
   -2.7418    4.1786    2.3552 H   0  0  0  0  0  0  0  0  0  0  0  0
   -4.2011    3.2482    2.0903 H   0  0  0  0  0  0  0  0  0  0  0  0
   -4.2622    5.8970    2.4484 H   0  0  0  0  0  0  0  0  0  0  0  0
   -5.4408    5.0827    1.4377 H   0  0  0  0  0  0  0  0  0  0  0  0
   -4.5386    5.8630   -0.5621 H   0  0  0  0  0  0  0  0  0  0  0  0
   -4.2474    7.2259    0.5087 H   0  0  0  0  0  0  0  0  0  0  0  0
   -2.2174    6.7210   -0.8188 H   0  0  0  0  0  0  0  0  0  0  0  0
   -1.9176    6.4478    0.8924 H   0  0  0  0  0  0  0  0  0  0  0  0
   -1.9844    4.4963   -1.3616 H   0  0  0  0  0  0  0  0  0  0  0  0
   -1.0280    4.4985    0.1004 H   0  0  0  0  0  0  0  0  0  0  0  0
   -4.7467   -0.9373    1.1601 H   0  0  0  0  0  0  0  0  0  0  0  0
   -5.3267   -3.2539    1.6585 H   0  0  0  0  0  0  0  0  0  0  0  0
   -3.5655   -5.0052    1.7367 H   0  0  0  0  0  0  0  0  0  0  0  0
    1.5465   -5.7996   -0.6781 H   0  0  0  0  0  0  0  0  0  0  0  0
    0.0480   -7.4998    1.3665 H   0  0  0  0  0  0  0  0  0  0  0  0
   -0.1424   -7.5883   -0.3881 H   0  0  0  0  0  0  0  0  0  0  0  0
    1.4117   -7.9902    0.3573 H   0  0  0  0  0  0  0  0  0  0  0  0
    1.6070   -5.6616    2.3841 H   0  0  0  0  0  0  0  0  0  0  0  0
    2.1618   -4.3569    1.3282 H   0  0  0  0  0  0  0  0  0  0  0  0
    3.1691   -6.9542    1.6376 H   0  0  0  0  0  0  0  0  0  0  0  0
   -1.4627   -4.0736   -1.2799 H   0  0  0  0  0  0  0  0  0  0  0  0
   -0.2261   -5.1304   -1.9054 H   0  0  0  0  0  0  0  0  0  0  0  0
    1.5019   -3.3551   -1.0725 H   0  0  0  0  0  0  0  0  0  0  0  0
    0.9260   -3.8483   -3.4532 H   0  0  0  0  0  0  0  0  0  0  0  0
   -0.3804   -2.6529   -3.3893 H   0  0  0  0  0  0  0  0  0  0  0  0
    1.3095   -2.1495   -3.2322 H   0  0  0  0  0  0  0  0  0  0  0  0
    2.2157    3.8677   -0.0268 H   0  0  0  0  0  0  0  0  0  0  0  0
    4.4010    4.6508   -0.7990 H   0  0  0  0  0  0  0  0  0  0  0  0
  1  2  1  0
  2  3  1  0
  3  4  2  0
  4  5  1  0
  5  6  2  0
  6  7  1  0
  7  8  2  0
  7  9  2  0
  7 10  1  0
 10 11  1  0
 10 12  1  0
 12 13  1  0
 13 14  1  0
 14 15  1  0
 15 16  2  0
 16 17  1  0
 17 18  1  0
 18 19  2  0
 18 20  1  0
 20 21  1  0
 21 22  1  0
 22 23  1  0
 23 24  1  0
 24 25  1  0
 25 26  1  0
 16 27  1  0
 27 28  2  0
 28 29  1  0
 29 30  2  0
 30 31  1  0
 31 32  2  0
 31 33  1  0
 33 34  1  0
 34 35  1  0
 34 36  1  0
 36 37  1  0
 33 38  1  0
 38 39  1  0
 39 40  1  0
  6 41  1  0
 41 42  2  0
 42  3  1  0
 39 13  1  0
 30 15  1  0
 26 21  1  0
  1 43  1  0
  1 44  1  0
  1 45  1  0
  4 46  1  0
  5 47  1  0
 11 48  1  0
 11 49  1  0
 11 50  1  0
 12 51  1  0
 12 52  1  0
 13 53  1  0
 17 54  1  0
 20 55  1  0
 21 56  1  0
 22 57  1  0
 22 58  1  0
 23 59  1  0
 23 60  1  0
 24 61  1  0
 24 62  1  0
 25 63  1  0
 25 64  1  0
 26 65  1  0
 26 66  1  0
 27 67  1  0
 28 68  1  0
 29 69  1  0
 34 70  1  0
 35 71  1  0
 35 72  1  0
 35 73  1  0
 36 74  1  0
 36 75  1  0
 37 76  1  0
 38 77  1  0
 38 78  1  0
 39 79  1  0
 40 80  1  0
 40 81  1  0
 40 82  1  0
 41 83  1  0
 42 84  1  0
M  END
$$$$
