
     RDKit          3D

 33 34  0  0  0  0  0  0  0  0999 V2000
   -6.1489    0.9510   -1.1473 C   0  0  0  0  0  0  0  0  0  0  0  0
   -4.6543    1.0036   -0.8855 C   0  0  0  0  0  0  0  0  0  0  0  0
   -4.2581   -0.2546   -0.3419 O   0  0  0  0  0  0  0  0  0  0  0  0
   -2.9395   -0.4075   -0.0164 C   0  0  0  0  0  0  0  0  0  0  0  0
   -1.9324    0.5413   -0.1986 C   0  0  0  0  0  0  0  0  0  0  0  0
   -0.6141    0.2529    0.1778 C   0  0  0  0  0  0  0  0  0  0  0  0
   -0.2949   -0.9913    0.7341 C   0  0  0  0  0  0  0  0  0  0  0  0
    1.0921   -1.3385    1.1518 C   0  0  0  0  0  0  0  0  0  0  0  0
    1.2873   -2.1861    2.0156 O   0  0  0  0  0  0  0  0  0  0  0  0
    2.1089   -0.6840    0.4945 N   0  0  0  0  0  0  0  0  0  0  0  0
    3.4827   -1.0670    0.7218 C   0  0  0  0  0  0  0  0  0  0  0  0
    4.3634   -0.0431    0.1099 C   0  0  0  0  0  0  0  0  0  0  0  0
    5.3080    0.8238    0.6200 C   0  0  0  0  0  0  0  0  0  0  0  0
    5.8101    1.5611   -0.4788 C   0  0  0  0  0  0  0  0  0  0  0  0
    5.1397    1.1015   -1.5871 C   0  0  0  0  0  0  0  0  0  0  0  0
    4.2567    0.1298   -1.2412 O   0  0  0  0  0  0  0  0  0  0  0  0
   -1.3076   -1.9343    0.9316 C   0  0  0  0  0  0  0  0  0  0  0  0
   -2.6204   -1.6432    0.5527 C   0  0  0  0  0  0  0  0  0  0  0  0
   -6.3910    0.1373   -1.8395 H   0  0  0  0  0  0  0  0  0  0  0  0
   -6.6949    0.7530   -0.2182 H   0  0  0  0  0  0  0  0  0  0  0  0
   -6.5049    1.8958   -1.5719 H   0  0  0  0  0  0  0  0  0  0  0  0
   -4.4443    1.8092   -0.1733 H   0  0  0  0  0  0  0  0  0  0  0  0
   -4.1317    1.1911   -1.8310 H   0  0  0  0  0  0  0  0  0  0  0  0
   -2.1388    1.5185   -0.6219 H   0  0  0  0  0  0  0  0  0  0  0  0
    0.1441    1.0210    0.0529 H   0  0  0  0  0  0  0  0  0  0  0  0
    1.9128   -0.2465   -0.3958 H   0  0  0  0  0  0  0  0  0  0  0  0
    3.6633   -1.1551    1.7977 H   0  0  0  0  0  0  0  0  0  0  0  0
    3.6479   -2.0465    0.2603 H   0  0  0  0  0  0  0  0  0  0  0  0
    5.5952    0.9127    1.6582 H   0  0  0  0  0  0  0  0  0  0  0  0
    6.5677    2.3319   -0.4652 H   0  0  0  0  0  0  0  0  0  0  0  0
    5.1768    1.3461   -2.6388 H   0  0  0  0  0  0  0  0  0  0  0  0
   -1.0793   -2.8999    1.3788 H   0  0  0  0  0  0  0  0  0  0  0  0
   -3.4014   -2.3840    0.7065 H   0  0  0  0  0  0  0  0  0  0  0  0
  1  2  1  0
  2  3  1  0
  3  4  1  0
  4  5  2  0
  5  6  1  0
  6  7  2  0
  7  8  1  0
  8  9  2  0
  8 10  1  0
 10 11  1  0
 11 12  1  0
 12 13  2  0
 13 14  1  0
 14 15  2  0
 15 16  1  0
  7 17  1  0
 17 18  2  0
 18  4  1  0
 16 12  1  0
  1 19  1  0
  1 20  1  0
  1 21  1  0
  2 22  1  0
  2 23  1  0
  5 24  1  0
  6 25  1  0
 10 26  1  0
 11 27  1  0
 11 28  1  0
 13 29  1  0
 14 30  1  0
 15 31  1  0
 17 32  1  0
 18 33  1  0
M  END
$$$$
