
     RDKit          3D

 37 38  0  0  0  0  0  0  0  0999 V2000
    0.2649    0.9259   -0.7015 O   0  0  0  0  0  0  0  0  0  0  0  0
    0.7658    0.3752    0.2710 C   0  0  0  0  0  0  0  0  0  0  0  0
   -0.0487   -0.0084    1.4996 C   0  0  0  0  0  0  0  0  0  0  0  0
   -1.5468    0.2523    1.3483 C   0  0  0  0  0  0  0  0  0  0  0  0
   -2.2220   -0.7549    0.4115 C   0  0  0  0  0  0  0  0  0  0  0  0
   -3.7028   -0.4928    0.2934 C   0  0  0  0  0  0  0  0  0  0  0  0
   -4.6161   -1.1630    1.1175 C   0  0  0  0  0  0  0  0  0  0  0  0
   -5.9837   -0.9032    1.0134 C   0  0  0  0  0  0  0  0  0  0  0  0
   -6.4492    0.0308    0.0894 C   0  0  0  0  0  0  0  0  0  0  0  0
   -5.5480    0.7073   -0.7305 C   0  0  0  0  0  0  0  0  0  0  0  0
   -4.1805    0.4487   -0.6281 C   0  0  0  0  0  0  0  0  0  0  0  0
    2.1010    0.0320    0.4244 N   0  0  0  0  0  0  0  0  0  0  0  0
    3.1503    0.2275   -0.4985 C   0  0  0  0  0  0  0  0  0  0  0  0
    2.9858    0.8126   -1.7574 C   0  0  0  0  0  0  0  0  0  0  0  0
    4.0745    0.9738   -2.6229 C   0  0  0  0  0  0  0  0  0  0  0  0
    5.3452    0.5508   -2.2407 C   0  0  0  0  0  0  0  0  0  0  0  0
    5.5158   -0.0354   -0.9829 C   0  0  0  0  0  0  0  0  0  0  0  0
    6.8485   -0.4872   -0.5663 N   0  0  0  0  0  4  0  0  0  0  0  0
    6.9574   -0.9941    0.5597 O   0  0  0  0  0  0  0  0  0  0  0  0
    7.7854   -0.3364   -1.3627 O   0  0  0  0  0  1  0  0  0  0  0  0
    4.4267   -0.1988   -0.1121 C   0  0  0  0  0  0  0  0  0  0  0  0
    0.3284    0.5908    2.3374 H   0  0  0  0  0  0  0  0  0  0  0  0
    0.1291   -1.0646    1.7333 H   0  0  0  0  0  0  0  0  0  0  0  0
   -2.0117    0.1862    2.3404 H   0  0  0  0  0  0  0  0  0  0  0  0
   -1.7176    1.2762    0.9928 H   0  0  0  0  0  0  0  0  0  0  0  0
   -1.7744   -0.7248   -0.5888 H   0  0  0  0  0  0  0  0  0  0  0  0
   -2.0606   -1.7758    0.7805 H   0  0  0  0  0  0  0  0  0  0  0  0
   -4.2682   -1.8917    1.8455 H   0  0  0  0  0  0  0  0  0  0  0  0
   -6.6864   -1.4291    1.6542 H   0  0  0  0  0  0  0  0  0  0  0  0
   -7.5139    0.2325    0.0090 H   0  0  0  0  0  0  0  0  0  0  0  0
   -5.9087    1.4379   -1.4495 H   0  0  0  0  0  0  0  0  0  0  0  0
   -3.4855    0.9863   -1.2705 H   0  0  0  0  0  0  0  0  0  0  0  0
    2.3540   -0.4044    1.3030 H   0  0  0  0  0  0  0  0  0  0  0  0
    2.0156    1.1584   -2.1032 H   0  0  0  0  0  0  0  0  0  0  0  0
    3.9218    1.4323   -3.5980 H   0  0  0  0  0  0  0  0  0  0  0  0
    6.1796    0.6838   -2.9261 H   0  0  0  0  0  0  0  0  0  0  0  0
    4.5749   -0.6568    0.8633 H   0  0  0  0  0  0  0  0  0  0  0  0
  1  2  2  0
  2  3  1  0
  3  4  1  0
  4  5  1  0
  5  6  1  0
  6  7  2  0
  7  8  1  0
  8  9  2  0
  9 10  1  0
 10 11  2  0
  2 12  1  0
 12 13  1  0
 13 14  2  0
 14 15  1  0
 15 16  2  0
 16 17  1  0
 17 18  1  0
 18 19  2  0
 18 20  1  0
 17 21  2  0
 11  6  1  0
 21 13  1  0
  3 22  1  0
  3 23  1  0
  4 24  1  0
  4 25  1  0
  5 26  1  0
  5 27  1  0
  7 28  1  0
  8 29  1  0
  9 30  1  0
 10 31  1  0
 11 32  1  0
 12 33  1  0
 14 34  1  0
 15 35  1  0
 16 36  1  0
 21 37  1  0
M  CHG  2  18   1  20  -1
M  END
$$$$
