
     RDKit          3D

 40 42  0  0  0  0  0  0  0  0999 V2000
   -5.2619   -1.2485   -0.6444 C   0  0  0  0  0  0  0  0  0  0  0  0
   -3.9319   -0.7038   -0.2138 C   0  0  0  0  0  0  0  0  0  0  0  0
   -3.1798    0.0941   -1.0766 C   0  0  0  0  0  0  0  0  0  0  0  0
   -1.9183    0.5945   -0.7040 C   0  0  0  0  0  0  0  0  0  0  0  0
   -1.2077    1.4595   -1.7136 C   0  0  0  0  0  0  0  0  0  0  0  0
   -1.3838    0.2369    0.5613 C   0  0  0  0  0  0  0  0  0  0  0  0
    0.2812    0.7892    1.0014 S   0  0  0  0  0  6  0  0  0  0  0  0
    0.7677    0.0263    2.1340 O   0  0  0  0  0  0  0  0  0  0  0  0
    0.2326    2.2359    1.0550 O   0  0  0  0  0  0  0  0  0  0  0  0
    1.2084    0.2762   -0.3453 N   0  0  0  0  0  0  0  0  0  0  0  0
    1.2828   -1.2153   -0.5404 C   0  0  0  0  0  0  0  0  0  0  0  0
    2.7504   -1.6239   -0.3354 C   0  0  0  0  0  0  0  0  0  0  0  0
    3.4620   -0.3160   -0.4190 C   0  0  0  0  0  0  0  0  0  0  0  0
    4.8282   -0.0897   -0.4726 C   0  0  0  0  0  0  0  0  0  0  0  0
    5.2802    1.2319   -0.4912 C   0  0  0  0  0  0  0  0  0  0  0  0
    4.3695    2.2994   -0.4511 C   0  0  0  0  0  0  0  0  0  0  0  0
    2.9947    2.0583   -0.3900 C   0  0  0  0  0  0  0  0  0  0  0  0
    2.5625    0.7446   -0.3634 C   0  0  0  0  0  0  0  0  0  0  0  0
   -2.1482   -0.5501    1.4565 C   0  0  0  0  0  0  0  0  0  0  0  0
   -1.7076   -0.9261    2.8457 C   0  0  0  0  0  0  0  0  0  0  0  0
   -3.4073   -1.0231    1.0397 C   0  0  0  0  0  0  0  0  0  0  0  0
   -5.7589   -0.5635   -1.3394 H   0  0  0  0  0  0  0  0  0  0  0  0
   -5.1277   -2.2165   -1.1368 H   0  0  0  0  0  0  0  0  0  0  0  0
   -5.9285   -1.3775    0.2149 H   0  0  0  0  0  0  0  0  0  0  0  0
   -3.5867    0.3387   -2.0575 H   0  0  0  0  0  0  0  0  0  0  0  0
   -1.9196    1.8885   -2.4286 H   0  0  0  0  0  0  0  0  0  0  0  0
   -0.7094    2.3121   -1.2480 H   0  0  0  0  0  0  0  0  0  0  0  0
   -0.4874    0.8677   -2.2850 H   0  0  0  0  0  0  0  0  0  0  0  0
    0.6205   -1.7800    0.1224 H   0  0  0  0  0  0  0  0  0  0  0  0
    0.9677   -1.4281   -1.5697 H   0  0  0  0  0  0  0  0  0  0  0  0
    3.0779   -2.3300   -1.1037 H   0  0  0  0  0  0  0  0  0  0  0  0
    2.8941   -2.0652    0.6564 H   0  0  0  0  0  0  0  0  0  0  0  0
    5.5341   -0.9140   -0.4916 H   0  0  0  0  0  0  0  0  0  0  0  0
    6.3474    1.4380   -0.5322 H   0  0  0  0  0  0  0  0  0  0  0  0
    4.7362    3.3230   -0.4668 H   0  0  0  0  0  0  0  0  0  0  0  0
    2.2928    2.8851   -0.3703 H   0  0  0  0  0  0  0  0  0  0  0  0
   -2.5334   -1.3574    3.4234 H   0  0  0  0  0  0  0  0  0  0  0  0
   -1.3802   -0.0430    3.4027 H   0  0  0  0  0  0  0  0  0  0  0  0
   -0.9165   -1.6805    2.8064 H   0  0  0  0  0  0  0  0  0  0  0  0
   -3.9962   -1.6477    1.7113 H   0  0  0  0  0  0  0  0  0  0  0  0
  1  2  1  0
  2  3  2  0
  3  4  1  0
  4  5  1  0
  4  6  2  0
  6  7  1  0
  7  8  2  0
  7  9  2  0
  7 10  1  0
 10 11  1  0
 11 12  1  0
 12 13  1  0
 13 14  2  0
 14 15  1  0
 15 16  2  0
 16 17  1  0
 17 18  2  0
  6 19  1  0
 19 20  1  0
 19 21  2  0
 21  2  1  0
 18 10  1  0
 18 13  1  0
  1 22  1  0
  1 23  1  0
  1 24  1  0
  3 25  1  0
  5 26  1  0
  5 27  1  0
  5 28  1  0
 11 29  1  0
 11 30  1  0
 12 31  1  0
 12 32  1  0
 14 33  1  0
 15 34  1  0
 16 35  1  0
 17 36  1  0
 20 37  1  0
 20 38  1  0
 20 39  1  0
 21 40  1  0
M  END
$$$$
