
     RDKit          3D

 38 40  0  0  0  0  0  0  0  0999 V2000
   -1.9932   -0.7930   -2.4704 C   0  0  0  0  0  0  0  0  0  0  0  0
   -1.3767   -0.5525   -1.0887 C   0  0  0  0  0  0  0  0  0  0  0  0
   -1.6671   -1.7450   -0.1446 C   0  0  0  0  0  0  0  0  0  0  0  0
   -1.6989   -1.1397    1.2621 C   0  0  0  0  0  0  0  0  0  0  0  0
   -1.3727    0.3453    1.0480 C   0  0  0  0  0  0  0  0  0  0  0  0
    0.1452    0.4741    1.0963 C   0  0  0  0  0  0  0  0  0  0  0  0
    0.6553    0.9139    2.1278 O   0  0  0  0  0  0  0  0  0  0  0  0
    0.8346   -0.0284   -0.0241 N   0  0  0  0  0  0  0  0  0  0  0  0
    2.2845   -0.0240   -0.0306 C   0  0  0  0  0  0  0  0  0  0  0  0
    3.0002   -1.0152   -0.7287 C   0  0  0  0  0  0  0  0  0  0  0  0
    4.3994   -1.0388   -0.7411 C   0  0  0  0  0  0  0  0  0  0  0  0
    5.1170   -0.0677   -0.0525 C   0  0  0  0  0  0  0  0  0  0  0  0
    4.4299    0.9207    0.6430 C   0  0  0  0  0  0  0  0  0  0  0  0
    5.3146    2.1354    1.4846 Cl  0  0  0  0  0  0  0  0  0  0  0  0
    3.0318    0.9453    0.6582 C   0  0  0  0  0  0  0  0  0  0  0  0
    0.1603   -0.4218   -1.2026 C   0  0  0  0  0  0  0  0  0  0  0  0
    0.7098   -0.6208   -2.2884 O   0  0  0  0  0  0  0  0  0  0  0  0
   -1.9373    0.6793   -0.3395 C   0  0  0  0  0  0  0  0  0  0  0  0
   -1.4764    2.0435   -0.8862 C   0  0  0  0  0  0  0  0  0  0  0  0
   -3.4840    0.7256   -0.2987 C   0  0  0  0  0  0  0  0  0  0  0  0
   -1.5634   -1.6833   -2.9442 H   0  0  0  0  0  0  0  0  0  0  0  0
   -3.0749   -0.9518   -2.4152 H   0  0  0  0  0  0  0  0  0  0  0  0
   -1.8100    0.0544   -3.1398 H   0  0  0  0  0  0  0  0  0  0  0  0
   -0.9012   -2.5262   -0.2160 H   0  0  0  0  0  0  0  0  0  0  0  0
   -2.6319   -2.2170   -0.3641 H   0  0  0  0  0  0  0  0  0  0  0  0
   -0.9885   -1.6431    1.9273 H   0  0  0  0  0  0  0  0  0  0  0  0
   -2.6960   -1.2592    1.7008 H   0  0  0  0  0  0  0  0  0  0  0  0
   -1.8035    0.9743    1.8350 H   0  0  0  0  0  0  0  0  0  0  0  0
    2.4833   -1.8099   -1.2632 H   0  0  0  0  0  0  0  0  0  0  0  0
    4.9230   -1.8186   -1.2890 H   0  0  0  0  0  0  0  0  0  0  0  0
    6.2033   -0.0842   -0.0639 H   0  0  0  0  0  0  0  0  0  0  0  0
    2.5475    1.7590    1.1907 H   0  0  0  0  0  0  0  0  0  0  0  0
   -1.8784    2.2169   -1.8907 H   0  0  0  0  0  0  0  0  0  0  0  0
   -0.3907    2.1491   -0.9557 H   0  0  0  0  0  0  0  0  0  0  0  0
   -1.8329    2.8553   -0.2416 H   0  0  0  0  0  0  0  0  0  0  0  0
   -3.8973    0.9871   -1.2793 H   0  0  0  0  0  0  0  0  0  0  0  0
   -3.9372   -0.2246   -0.0018 H   0  0  0  0  0  0  0  0  0  0  0  0
   -3.8277    1.4855    0.4128 H   0  0  0  0  0  0  0  0  0  0  0  0
  1  2  1  0
  2  3  1  0
  3  4  1  0
  4  5  1  0
  5  6  1  0
  6  7  2  0
  6  8  1  0
  8  9  1  0
  9 10  2  0
 10 11  1  0
 11 12  2  0
 12 13  1  0
 13 14  1  0
 13 15  2  0
  8 16  1  0
 16 17  2  0
  5 18  1  0
 18 19  1  0
 18 20  1  0
 16  2  1  0
 18  2  1  0
 15  9  1  0
  1 21  1  0
  1 22  1  0
  1 23  1  0
  3 24  1  0
  3 25  1  0
  4 26  1  0
  4 27  1  0
  5 28  1  0
 10 29  1  0
 11 30  1  0
 12 31  1  0
 15 32  1  0
 19 33  1  0
 19 34  1  0
 19 35  1  0
 20 36  1  0
 20 37  1  0
 20 38  1  0
M  END
$$$$
