
     RDKit          3D

 40 42  0  0  0  0  0  0  0  0999 V2000
   -5.9766    0.0823   -0.4842 C   0  0  0  0  0  0  0  0  0  0  0  0
   -4.7465    0.3905    0.3968 C   0  0  0  0  0  0  0  0  0  0  0  0
   -5.1097    0.0507    1.8541 C   0  0  0  0  0  0  0  0  0  0  0  0
   -4.4398    1.8945    0.2752 C   0  0  0  0  0  0  0  0  0  0  0  0
   -3.5582   -0.4380   -0.0687 C   0  0  0  0  0  0  0  0  0  0  0  0
   -3.5802   -1.2825   -1.0832 N   0  0  0  0  0  0  0  0  0  0  0  0
   -2.3629   -1.8977   -1.2852 N   0  0  0  0  0  0  0  0  0  0  0  0
   -1.4582   -1.5031   -0.4190 C   0  0  0  0  0  0  0  0  0  0  0  0
   -0.1751   -1.9894   -0.4451 N   0  0  0  0  0  0  0  0  0  0  0  0
    0.8531   -1.6638    0.4182 C   0  0  0  0  0  0  0  0  0  0  0  0
    0.7880   -0.8932    1.3691 O   0  0  0  0  0  0  0  0  0  0  0  0
    2.1507   -2.4055    0.0515 C   0  0  0  0  0  0  0  0  0  0  0  0
    3.3149   -2.0239    0.7628 O   0  0  0  0  0  0  0  0  0  0  0  0
    3.9693   -0.8882    0.3695 C   0  0  0  0  0  0  0  0  0  0  0  0
    5.1731   -0.6481    1.0643 C   0  0  0  0  0  0  0  0  0  0  0  0
    5.9645    0.4695    0.7809 C   0  0  0  0  0  0  0  0  0  0  0  0
    5.5223    1.3274   -0.1993 C   0  0  0  0  0  0  0  0  0  0  0  0
    4.3477    1.1015   -0.8769 C   0  0  0  0  0  0  0  0  0  0  0  0
    3.5469    0.0062   -0.6173 C   0  0  0  0  0  0  0  0  0  0  0  0
    4.0903    2.0662   -1.8021 O   0  0  0  0  0  0  0  0  0  0  0  0
    5.2298    2.9320   -1.6152 C   0  0  0  0  0  0  0  0  0  0  0  0
    6.1510    2.4598   -0.6108 O   0  0  0  0  0  0  0  0  0  0  0  0
   -2.0156   -0.3538    0.7016 S   0  0  0  0  0  0  0  0  0  0  0  0
   -6.2535   -0.9773   -0.4278 H   0  0  0  0  0  0  0  0  0  0  0  0
   -6.8477    0.6686   -0.1694 H   0  0  0  0  0  0  0  0  0  0  0  0
   -5.7834    0.3176   -1.5378 H   0  0  0  0  0  0  0  0  0  0  0  0
   -4.3066    0.3193    2.5496 H   0  0  0  0  0  0  0  0  0  0  0  0
   -6.0079    0.5918    2.1735 H   0  0  0  0  0  0  0  0  0  0  0  0
   -5.3051   -1.0214    1.9751 H   0  0  0  0  0  0  0  0  0  0  0  0
   -5.3148    2.4986    0.5420 H   0  0  0  0  0  0  0  0  0  0  0  0
   -3.6219    2.2002    0.9373 H   0  0  0  0  0  0  0  0  0  0  0  0
   -4.1508    2.1593   -0.7488 H   0  0  0  0  0  0  0  0  0  0  0  0
   -0.0247   -2.6620   -1.1849 H   0  0  0  0  0  0  0  0  0  0  0  0
    2.3209   -2.3718   -1.0320 H   0  0  0  0  0  0  0  0  0  0  0  0
    1.9752   -3.4600    0.2986 H   0  0  0  0  0  0  0  0  0  0  0  0
    5.4902   -1.3445    1.8379 H   0  0  0  0  0  0  0  0  0  0  0  0
    6.8887    0.6550    1.3155 H   0  0  0  0  0  0  0  0  0  0  0  0
    2.6274   -0.1077   -1.1742 H   0  0  0  0  0  0  0  0  0  0  0  0
    4.8710    3.9257   -1.3232 H   0  0  0  0  0  0  0  0  0  0  0  0
    5.7642    3.0173   -2.5683 H   0  0  0  0  0  0  0  0  0  0  0  0
  1  2  1  0
  2  3  1  0
  2  4  1  0
  2  5  1  0
  5  6  2  0
  6  7  1  0
  7  8  2  0
  8  9  1  0
  9 10  1  0
 10 11  2  0
 10 12  1  0
 12 13  1  0
 13 14  1  0
 14 15  2  0
 15 16  1  0
 16 17  2  0
 17 18  1  0
 18 19  2  0
 18 20  1  0
 20 21  1  0
 21 22  1  0
  8 23  1  0
 23  5  1  0
 19 14  1  0
 22 17  1  0
  1 24  1  0
  1 25  1  0
  1 26  1  0
  3 27  1  0
  3 28  1  0
  3 29  1  0
  4 30  1  0
  4 31  1  0
  4 32  1  0
  9 33  1  0
 12 34  1  0
 12 35  1  0
 15 36  1  0
 16 37  1  0
 19 38  1  0
 21 39  1  0
 21 40  1  0
M  END
$$$$
