
     RDKit          3D

 35 36  0  0  0  0  0  0  0  0999 V2000
   -5.2766   -0.4666   -1.3486 C   0  0  0  0  0  0  0  0  0  0  0  0
   -3.9241   -0.1739   -1.9430 C   0  0  0  0  0  0  0  0  0  0  0  0
   -3.7251   -0.2637   -3.1527 O   0  0  0  0  0  0  0  0  0  0  0  0
   -2.8051    0.2226   -1.0381 C   0  0  0  0  0  0  0  0  0  0  0  0
   -1.5926    0.6249   -1.6115 C   0  0  0  0  0  0  0  0  0  0  0  0
   -0.5170    1.0029   -0.8019 C   0  0  0  0  0  0  0  0  0  0  0  0
   -0.6281    0.9545    0.5893 C   0  0  0  0  0  0  0  0  0  0  0  0
    0.4910    1.3758    1.3643 N   0  0  0  0  0  0  0  0  0  0  0  0
    1.0288    0.5034    2.6986 S   0  0  0  0  0  6  0  0  0  0  0  0
    2.2077    1.2026    3.1710 O   0  0  0  0  0  0  0  0  0  0  0  0
   -0.0782    0.2692    3.6024 O   0  0  0  0  0  0  0  0  0  0  0  0
    1.5421   -1.0889    2.0241 C   0  0  0  0  0  0  0  0  0  0  0  0
    2.4375   -0.9338    0.8186 C   0  0  0  0  0  0  0  0  0  0  0  0
    3.7270   -0.3919    0.9317 C   0  0  0  0  0  0  0  0  0  0  0  0
    4.5465   -0.2634   -0.1927 C   0  0  0  0  0  0  0  0  0  0  0  0
    4.0898   -0.6901   -1.4365 C   0  0  0  0  0  0  0  0  0  0  0  0
    5.0973   -0.5288   -2.8206 Cl  0  0  0  0  0  0  0  0  0  0  0  0
    2.8220   -1.2506   -1.5643 C   0  0  0  0  0  0  0  0  0  0  0  0
    2.0021   -1.3783   -0.4403 C   0  0  0  0  0  0  0  0  0  0  0  0
   -1.8457    0.5870    1.1613 C   0  0  0  0  0  0  0  0  0  0  0  0
   -2.9283    0.2120    0.3546 C   0  0  0  0  0  0  0  0  0  0  0  0
   -5.2313   -1.3711   -0.7368 H   0  0  0  0  0  0  0  0  0  0  0  0
   -5.9954   -0.6334   -2.1570 H   0  0  0  0  0  0  0  0  0  0  0  0
   -5.6274    0.3855   -0.7606 H   0  0  0  0  0  0  0  0  0  0  0  0
   -1.4812    0.6553   -2.6946 H   0  0  0  0  0  0  0  0  0  0  0  0
    0.4070    1.3236   -1.2773 H   0  0  0  0  0  0  0  0  0  0  0  0
    1.2698    1.8020    0.8599 H   0  0  0  0  0  0  0  0  0  0  0  0
    0.6302   -1.6446    1.7820 H   0  0  0  0  0  0  0  0  0  0  0  0
    2.0649   -1.6282    2.8207 H   0  0  0  0  0  0  0  0  0  0  0  0
    4.1114   -0.0630    1.8972 H   0  0  0  0  0  0  0  0  0  0  0  0
    5.5404    0.1651   -0.0880 H   0  0  0  0  0  0  0  0  0  0  0  0
    2.4680   -1.5950   -2.5329 H   0  0  0  0  0  0  0  0  0  0  0  0
    1.0179   -1.8291   -0.5609 H   0  0  0  0  0  0  0  0  0  0  0  0
   -1.9902    0.6087    2.2385 H   0  0  0  0  0  0  0  0  0  0  0  0
   -3.8550   -0.0745    0.8442 H   0  0  0  0  0  0  0  0  0  0  0  0
  1  2  1  0
  2  3  2  0
  2  4  1  0
  4  5  2  0
  5  6  1  0
  6  7  2  0
  7  8  1  0
  8  9  1  0
  9 10  2  0
  9 11  2  0
  9 12  1  0
 12 13  1  0
 13 14  2  0
 14 15  1  0
 15 16  2  0
 16 17  1  0
 16 18  1  0
 18 19  2  0
  7 20  1  0
 20 21  2  0
 21  4  1  0
 19 13  1  0
  1 22  1  0
  1 23  1  0
  1 24  1  0
  5 25  1  0
  6 26  1  0
  8 27  1  0
 12 28  1  0
 12 29  1  0
 14 30  1  0
 15 31  1  0
 18 32  1  0
 19 33  1  0
 20 34  1  0
 21 35  1  0
M  END
$$$$
