
     RDKit          3D

 46 49  0  0  0  0  0  0  0  0999 V2000
   -4.3832    3.3408    2.6586 C   0  0  0  0  0  0  0  0  0  0  0  0
   -4.5563    1.9363    2.7974 O   0  0  0  0  0  0  0  0  0  0  0  0
   -3.7663    1.1359    2.0203 C   0  0  0  0  0  0  0  0  0  0  0  0
   -2.8765    1.5660    1.0371 C   0  0  0  0  0  0  0  0  0  0  0  0
   -2.1235    0.6361    0.3079 C   0  0  0  0  0  0  0  0  0  0  0  0
   -2.2567   -0.7345    0.5588 C   0  0  0  0  0  0  0  0  0  0  0  0
   -1.4995   -1.6893   -0.1811 N   0  0  0  0  0  0  0  0  0  0  0  0
   -0.1606   -1.6341   -0.5566 C   0  0  0  0  0  0  0  0  0  0  0  0
    0.9658   -0.4105   -0.0390 S   0  0  0  0  0  0  0  0  0  0  0  0
    2.5412   -1.1817   -0.5337 C   0  0  0  0  0  0  0  0  0  0  0  0
    3.7181   -0.2674   -0.2229 C   0  0  0  0  0  0  0  0  0  0  0  0
    4.7124   -0.7075    0.3476 O   0  0  0  0  0  0  0  0  0  0  0  0
    3.5488    1.0170   -0.7036 N   0  0  0  0  0  0  0  0  0  0  0  0
    4.4683    2.0726   -0.6048 C   0  0  0  0  0  0  0  0  0  0  0  0
    5.6943    1.8560   -0.0873 N   0  0  0  0  0  0  0  0  0  0  0  0
    6.5478    2.9056   -0.0122 C   0  0  0  0  0  0  0  0  0  0  0  0
    6.2314    4.1847   -0.4389 C   0  0  0  0  0  0  0  0  0  0  0  0
    7.3656    5.4648   -0.3101 Cl  0  0  0  0  0  0  0  0  0  0  0  0
    4.9708    4.4091   -0.9750 C   0  0  0  0  0  0  0  0  0  0  0  0
    4.0776    3.3412   -1.0609 C   0  0  0  0  0  0  0  0  0  0  0  0
    2.5070    3.6272   -1.7257 Cl  0  0  0  0  0  0  0  0  0  0  0  0
    0.2167   -2.6847   -1.2474 N   0  0  0  0  0  0  0  0  0  0  0  0
   -0.8893   -3.4818   -1.3233 C   0  0  0  0  0  0  0  0  0  0  0  0
   -1.0274   -4.7313   -1.9491 C   0  0  0  0  0  0  0  0  0  0  0  0
   -2.2732   -5.3656   -1.9335 C   0  0  0  0  0  0  0  0  0  0  0  0
   -3.3670   -4.7599   -1.3196 C   0  0  0  0  0  0  0  0  0  0  0  0
   -3.2478   -3.5144   -0.6911 C   0  0  0  0  0  0  0  0  0  0  0  0
   -1.9813   -2.9017   -0.6793 C   0  0  0  0  0  0  0  0  0  0  0  0
   -3.1547   -1.1662    1.5412 C   0  0  0  0  0  0  0  0  0  0  0  0
   -3.9022   -0.2321    2.2638 C   0  0  0  0  0  0  0  0  0  0  0  0
   -5.0480    3.8314    3.3759 H   0  0  0  0  0  0  0  0  0  0  0  0
   -3.3574    3.6383    2.8987 H   0  0  0  0  0  0  0  0  0  0  0  0
   -4.6683    3.6760    1.6565 H   0  0  0  0  0  0  0  0  0  0  0  0
   -2.7506    2.6182    0.8028 H   0  0  0  0  0  0  0  0  0  0  0  0
   -1.4747    1.0115   -0.4789 H   0  0  0  0  0  0  0  0  0  0  0  0
    2.6720   -2.1185    0.0177 H   0  0  0  0  0  0  0  0  0  0  0  0
    2.5495   -1.3926   -1.6083 H   0  0  0  0  0  0  0  0  0  0  0  0
    2.6413    1.2512   -1.0893 H   0  0  0  0  0  0  0  0  0  0  0  0
    7.5191    2.6722    0.4164 H   0  0  0  0  0  0  0  0  0  0  0  0
    4.6855    5.3990   -1.3181 H   0  0  0  0  0  0  0  0  0  0  0  0
   -0.1753   -5.1883   -2.4411 H   0  0  0  0  0  0  0  0  0  0  0  0
   -2.3893   -6.3332   -2.4166 H   0  0  0  0  0  0  0  0  0  0  0  0
   -4.3342   -5.2587   -1.3362 H   0  0  0  0  0  0  0  0  0  0  0  0
   -4.1205   -3.0458   -0.2478 H   0  0  0  0  0  0  0  0  0  0  0  0
   -3.2597   -2.2177    1.7965 H   0  0  0  0  0  0  0  0  0  0  0  0
   -4.5897   -0.5737    3.0343 H   0  0  0  0  0  0  0  0  0  0  0  0
  1  2  1  0
  2  3  1  0
  3  4  2  0
  4  5  1  0
  5  6  2  0
  6  7  1  0
  7  8  1  0
  8  9  1  0
  9 10  1  0
 10 11  1  0
 11 12  2  0
 11 13  1  0
 13 14  1  0
 14 15  2  0
 15 16  1  0
 16 17  2  0
 17 18  1  0
 17 19  1  0
 19 20  2  0
 20 21  1  0
  8 22  2  0
 22 23  1  0
 23 24  2  0
 24 25  1  0
 25 26  2  0
 26 27  1  0
 27 28  2  0
  6 29  1  0
 29 30  2  0
 30  3  1  0
 28  7  1  0
 20 14  1  0
 28 23  1  0
  1 31  1  0
  1 32  1  0
  1 33  1  0
  4 34  1  0
  5 35  1  0
 10 36  1  0
 10 37  1  0
 13 38  1  0
 16 39  1  0
 19 40  1  0
 24 41  1  0
 25 42  1  0
 26 43  1  0
 27 44  1  0
 29 45  1  0
 30 46  1  0
M  END
$$$$
