
     RDKit          3D

 60 65  0  0  0  0  0  0  0  0999 V2000
    4.4906    1.6669    0.4687 C   0  0  0  0  0  0  0  0  0  0  0  0
    5.1442    0.5622   -0.2736 C   0  0  0  0  0  0  0  0  0  0  0  0
    6.4102    0.2330    0.0147 N   0  0  0  0  0  0  0  0  0  0  0  0
    6.7571   -0.7541   -0.8871 O   0  0  0  0  0  0  0  0  0  0  0  0
    5.6985   -1.0251   -1.6940 C   0  0  0  0  0  0  0  0  0  0  0  0
    5.9143   -2.0417   -2.7409 C   0  0  0  0  0  0  0  0  0  0  0  0
    4.6235   -0.2468   -1.3210 C   0  0  0  0  0  0  0  0  0  0  0  0
    3.3238   -0.2505   -1.9600 C   0  0  0  0  0  0  0  0  0  0  0  0
    3.2297   -0.3182   -3.1848 O   0  0  0  0  0  0  0  0  0  0  0  0
    2.1938   -0.1571   -1.1290 N   0  0  0  0  0  0  0  0  0  0  0  0
    2.1362   -0.9194    0.1167 C   0  0  0  0  0  0  0  0  0  0  0  0
    1.0751   -0.3703    1.0661 C   0  0  0  0  0  0  0  0  0  0  0  0
   -0.3286   -0.3030    0.4013 C   0  0  0  0  0  0  0  0  0  0  0  0
   -0.1665    0.5420   -0.8882 C   0  0  0  0  0  0  0  0  0  0  0  0
    0.9157   -0.0128   -1.8126 C   0  0  0  0  0  0  0  0  0  0  0  0
   -0.7348   -1.6195   -0.0453 O   0  0  0  0  0  0  0  0  0  0  0  0
   -1.1551   -2.4824    0.9273 C   0  0  0  0  0  0  0  0  0  0  0  0
   -1.1846   -3.8335    0.5781 C   0  0  0  0  0  0  0  0  0  0  0  0
   -1.5818   -4.7859    1.5178 C   0  0  0  0  0  0  0  0  0  0  0  0
   -1.9512   -4.3796    2.7965 C   0  0  0  0  0  0  0  0  0  0  0  0
   -2.3292   -5.2976    3.6940 F   0  0  0  0  0  0  0  0  0  0  0  0
   -1.9404   -3.0377    3.1538 C   0  0  0  0  0  0  0  0  0  0  0  0
   -1.5504   -2.0886    2.2063 C   0  0  0  0  0  0  0  0  0  0  0  0
   -1.5687   -0.6511    2.5369 C   0  0  0  0  0  0  0  0  0  0  0  0
   -1.7565   -0.2976    3.6959 O   0  0  0  0  0  0  0  0  0  0  0  0
   -1.4007    0.2969    1.3551 C   0  0  0  0  0  0  0  0  0  0  0  0
   -2.7810    0.5226    0.7479 C   0  0  0  0  0  0  0  0  0  0  0  0
   -2.7319    2.0012    0.5800 C   0  0  0  0  0  0  0  0  0  0  0  0
   -3.7532    2.7426   -0.1988 C   0  0  0  0  0  0  0  0  0  0  0  0
   -3.6418    4.1370   -0.3082 C   0  0  0  0  0  0  0  0  0  0  0  0
   -4.5774    4.8646   -1.0480 C   0  0  0  0  0  0  0  0  0  0  0  0
   -5.6271    4.2003   -1.6783 C   0  0  0  0  0  0  0  0  0  0  0  0
   -6.7726    5.0902   -2.6000 Cl  0  0  0  0  0  0  0  0  0  0  0  0
   -5.7522    2.8154   -1.5685 C   0  0  0  0  0  0  0  0  0  0  0  0
   -4.8168    2.0850   -0.8279 C   0  0  0  0  0  0  0  0  0  0  0  0
   -1.7353    2.5801    1.1683 N   0  0  0  0  0  0  0  0  0  0  0  0
   -0.9884    1.5813    1.8322 O   0  0  0  0  0  0  0  0  0  0  0  0
    5.2056    2.4675    0.6878 H   0  0  0  0  0  0  0  0  0  0  0  0
    3.6734    2.1070   -0.1109 H   0  0  0  0  0  0  0  0  0  0  0  0
    4.0846    1.3026    1.4179 H   0  0  0  0  0  0  0  0  0  0  0  0
    6.1276   -1.5595   -3.6994 H   0  0  0  0  0  0  0  0  0  0  0  0
    5.0275   -2.6717   -2.8614 H   0  0  0  0  0  0  0  0  0  0  0  0
    6.7569   -2.6939   -2.4908 H   0  0  0  0  0  0  0  0  0  0  0  0
    1.9223   -1.9624   -0.1475 H   0  0  0  0  0  0  0  0  0  0  0  0
    3.1022   -0.9291    0.6249 H   0  0  0  0  0  0  0  0  0  0  0  0
    1.0665   -1.0080    1.9574 H   0  0  0  0  0  0  0  0  0  0  0  0
    1.3782    0.6328    1.3932 H   0  0  0  0  0  0  0  0  0  0  0  0
    0.0932    1.5763   -0.6320 H   0  0  0  0  0  0  0  0  0  0  0  0
   -1.1018    0.5646   -1.4588 H   0  0  0  0  0  0  0  0  0  0  0  0
    1.0348    0.6635   -2.6669 H   0  0  0  0  0  0  0  0  0  0  0  0
    0.6308   -0.9927   -2.2137 H   0  0  0  0  0  0  0  0  0  0  0  0
   -0.8883   -4.1480   -0.4200 H   0  0  0  0  0  0  0  0  0  0  0  0
   -1.6029   -5.8420    1.2635 H   0  0  0  0  0  0  0  0  0  0  0  0
   -2.2415   -2.7457    4.1560 H   0  0  0  0  0  0  0  0  0  0  0  0
   -3.5998    0.2788    1.4342 H   0  0  0  0  0  0  0  0  0  0  0  0
   -2.9340   -0.0076   -0.1946 H   0  0  0  0  0  0  0  0  0  0  0  0
   -2.8259    4.6667    0.1817 H   0  0  0  0  0  0  0  0  0  0  0  0
   -4.4798    5.9450   -1.1264 H   0  0  0  0  0  0  0  0  0  0  0  0
   -6.5742    2.2994   -2.0598 H   0  0  0  0  0  0  0  0  0  0  0  0
   -4.9421    1.0071   -0.7628 H   0  0  0  0  0  0  0  0  0  0  0  0
  1  2  1  0
  2  3  2  0
  3  4  1  0
  4  5  1  0
  5  6  1  0
  5  7  2  0
  7  8  1  0
  8  9  2  0
  8 10  1  0
 10 11  1  0
 11 12  1  0
 12 13  1  0
 13 14  1  0
 14 15  1  0
 13 16  1  0
 16 17  1  0
 17 18  2  0
 18 19  1  0
 19 20  2  0
 20 21  1  0
 20 22  1  0
 22 23  2  0
 23 24  1  0
 24 25  2  0
 24 26  1  0
 26 27  1  0
 27 28  1  0
 28 29  1  0
 29 30  2  0
 30 31  1  0
 31 32  2  0
 32 33  1  0
 32 34  1  0
 34 35  2  0
 28 36  2  0
 36 37  1  0
  7  2  1  0
 15 10  1  0
 23 17  1  0
 37 26  1  0
 26 13  1  0
 35 29  1  0
  1 38  1  0
  1 39  1  0
  1 40  1  0
  6 41  1  0
  6 42  1  0
  6 43  1  0
 11 44  1  0
 11 45  1  0
 12 46  1  0
 12 47  1  0
 14 48  1  0
 14 49  1  0
 15 50  1  0
 15 51  1  0
 18 52  1  0
 19 53  1  0
 22 54  1  0
 27 55  1  0
 27 56  1  0
 30 57  1  0
 31 58  1  0
 34 59  1  0
 35 60  1  0
M  END
$$$$
