
     RDKit          3D

 49 51  0  0  0  0  0  0  0  0999 V2000
    0.8299    3.2751    0.0843 C   0  0  0  0  0  0  0  0  0  0  0  0
    0.2775    1.8974   -0.1621 C   0  0  0  0  0  0  0  0  0  0  0  0
   -1.0037    1.5723    0.3081 C   0  0  0  0  0  0  0  0  0  0  0  0
   -1.5244    0.2956    0.0864 C   0  0  0  0  0  0  0  0  0  0  0  0
   -3.1445   -0.0910    0.7001 S   0  0  0  0  0  6  0  0  0  0  0  0
   -3.2003    0.3508    2.0765 O   0  0  0  0  0  0  0  0  0  0  0  0
   -3.4679   -1.4529    0.3290 O   0  0  0  0  0  0  0  0  0  0  0  0
   -4.1442    0.9335   -0.2271 N   0  0  0  0  0  0  0  0  0  0  0  0
   -4.2145    0.6230   -1.6938 C   0  0  0  0  0  0  0  0  0  0  0  0
   -5.5499   -0.0358   -2.0527 C   0  0  0  0  0  0  0  0  0  0  0  0
   -6.6781    0.8088   -1.7835 O   0  0  0  0  0  0  0  0  0  0  0  0
   -6.4761    1.6864   -0.6659 C   0  0  0  0  0  0  0  0  0  0  0  0
   -5.5060    1.1207    0.3751 C   0  0  0  0  0  0  0  0  0  0  0  0
   -0.7784   -0.6691   -0.5888 C   0  0  0  0  0  0  0  0  0  0  0  0
    0.4960   -0.3479   -1.0648 C   0  0  0  0  0  0  0  0  0  0  0  0
    1.0287    0.9312   -0.8609 C   0  0  0  0  0  0  0  0  0  0  0  0
    2.2713    1.3409   -1.2711 O   0  0  0  0  0  0  0  0  0  0  0  0
    3.0520    0.4561   -2.0647 C   0  0  0  0  0  0  0  0  0  0  0  0
    3.7683   -0.6513   -1.2820 C   0  0  0  0  0  0  0  0  0  0  0  0
    4.1191   -1.6873   -1.8392 O   0  0  0  0  0  0  0  0  0  0  0  0
    3.9753   -0.3210    0.0433 N   0  0  0  0  0  0  0  0  0  0  0  0
    4.5955   -1.0915    1.0461 C   0  0  0  0  0  0  0  0  0  0  0  0
    5.1536   -2.3534    0.8373 C   0  0  0  0  0  0  0  0  0  0  0  0
    5.7453   -3.0457    1.9021 C   0  0  0  0  0  0  0  0  0  0  0  0
    5.7818   -2.4755    3.1749 C   0  0  0  0  0  0  0  0  0  0  0  0
    6.5853   -3.4179    4.6027 Br  0  0  0  0  0  0  0  0  0  0  0  0
    5.2341   -1.2178    3.3993 C   0  0  0  0  0  0  0  0  0  0  0  0
    4.6473   -0.5411    2.3348 C   0  0  0  0  0  0  0  0  0  0  0  0
    4.1194    0.6743    2.5539 F   0  0  0  0  0  0  0  0  0  0  0  0
    1.0035    3.7879   -0.8669 H   0  0  0  0  0  0  0  0  0  0  0  0
    1.7698    3.2134    0.6426 H   0  0  0  0  0  0  0  0  0  0  0  0
    0.1372    3.8863    0.6718 H   0  0  0  0  0  0  0  0  0  0  0  0
   -1.5952    2.3082    0.8508 H   0  0  0  0  0  0  0  0  0  0  0  0
   -3.3871   -0.0186   -2.0101 H   0  0  0  0  0  0  0  0  0  0  0  0
   -4.1072    1.5740   -2.2296 H   0  0  0  0  0  0  0  0  0  0  0  0
   -5.6883   -0.9709   -1.4988 H   0  0  0  0  0  0  0  0  0  0  0  0
   -5.5743   -0.2814   -3.1194 H   0  0  0  0  0  0  0  0  0  0  0  0
   -7.4554    1.8682   -0.2118 H   0  0  0  0  0  0  0  0  0  0  0  0
   -6.1117    2.6446   -1.0546 H   0  0  0  0  0  0  0  0  0  0  0  0
   -5.4257    1.8153    1.2173 H   0  0  0  0  0  0  0  0  0  0  0  0
   -5.8855    0.1583    0.7379 H   0  0  0  0  0  0  0  0  0  0  0  0
   -1.1735   -1.6705   -0.7460 H   0  0  0  0  0  0  0  0  0  0  0  0
    1.0449   -1.1307   -1.5802 H   0  0  0  0  0  0  0  0  0  0  0  0
    3.8377    1.0602   -2.5329 H   0  0  0  0  0  0  0  0  0  0  0  0
    2.4610    0.0241   -2.8807 H   0  0  0  0  0  0  0  0  0  0  0  0
    3.5845    0.5689    0.3500 H   0  0  0  0  0  0  0  0  0  0  0  0
    5.1465   -2.8279   -0.1391 H   0  0  0  0  0  0  0  0  0  0  0  0
    6.1738   -4.0292    1.7220 H   0  0  0  0  0  0  0  0  0  0  0  0
    5.2525   -0.7563    4.3805 H   0  0  0  0  0  0  0  0  0  0  0  0
  1  2  1  0
  2  3  2  0
  3  4  1  0
  4  5  1  0
  5  6  2  0
  5  7  2  0
  5  8  1  0
  8  9  1  0
  9 10  1  0
 10 11  1  0
 11 12  1  0
 12 13  1  0
  4 14  2  0
 14 15  1  0
 15 16  2  0
 16 17  1  0
 17 18  1  0
 18 19  1  0
 19 20  2  0
 19 21  1  0
 21 22  1  0
 22 23  2  0
 23 24  1  0
 24 25  2  0
 25 26  1  0
 25 27  1  0
 27 28  2  0
 28 29  1  0
 16  2  1  0
 28 22  1  0
 13  8  1  0
  1 30  1  0
  1 31  1  0
  1 32  1  0
  3 33  1  0
  9 34  1  0
  9 35  1  0
 10 36  1  0
 10 37  1  0
 12 38  1  0
 12 39  1  0
 13 40  1  0
 13 41  1  0
 14 42  1  0
 15 43  1  0
 18 44  1  0
 18 45  1  0
 21 46  1  0
 23 47  1  0
 24 48  1  0
 27 49  1  0
M  END
$$$$
