
     RDKit          3D

 61 66  0  0  0  0  0  0  0  0999 V2000
    8.4693   -1.0091   -0.1183 C   0  0  0  0  0  0  0  0  0  0  0  0
    8.4299   -0.0036    0.8454 C   0  0  0  0  0  0  0  0  0  0  0  0
    7.2469    0.2526    1.5415 C   0  0  0  0  0  0  0  0  0  0  0  0
    6.0910   -0.4976    1.2822 C   0  0  0  0  0  0  0  0  0  0  0  0
    4.8110   -0.2157    2.0345 C   0  0  0  0  0  0  0  0  0  0  0  0
    3.7980    0.6336    1.2404 C   0  0  0  0  0  0  0  0  0  0  0  0
    3.0795   -0.0881    0.1727 N   0  0  0  0  0  0  0  0  0  0  0  0
    2.2033   -1.1538    0.7184 C   0  0  0  0  0  0  0  0  0  0  0  0
    1.0186   -1.5223   -0.2016 C   0  0  0  0  0  0  0  0  0  0  0  0
    0.1247   -0.3636   -0.4431 N   0  0  0  0  0  0  0  0  0  0  0  0
   -1.1369   -0.4053    0.0905 C   0  0  0  0  0  0  0  0  0  0  0  0
   -1.5181   -0.7512    1.3732 C   0  0  0  0  0  0  0  0  0  0  0  0
   -2.8995   -0.5015    1.5023 C   0  0  0  0  0  0  0  0  0  0  0  0
   -3.3599   -0.0532    0.2793 C   0  0  0  0  0  0  0  0  0  0  0  0
   -4.6692    0.3797   -0.1609 C   0  0  0  0  0  0  0  0  0  0  0  0
   -5.8275    0.3609    0.7673 C   0  0  0  0  0  0  0  0  0  0  0  0
   -6.1727   -0.8011    1.4659 C   0  0  0  0  0  0  0  0  0  0  0  0
   -7.2784   -0.7954    2.3179 C   0  0  0  0  0  0  0  0  0  0  0  0
   -8.0439    0.3627    2.4614 C   0  0  0  0  0  0  0  0  0  0  0  0
   -7.7132    1.5153    1.7476 C   0  0  0  0  0  0  0  0  0  0  0  0
   -6.6092    1.5144    0.8943 C   0  0  0  0  0  0  0  0  0  0  0  0
   -4.8578    0.8135   -1.3715 N   0  0  0  0  0  0  0  0  0  0  0  0
   -3.7864    0.7885   -2.2852 C   0  0  0  0  0  0  0  0  0  0  0  0
   -4.0480    1.1947   -3.5974 C   0  0  0  0  0  0  0  0  0  0  0  0
   -3.0484    1.1580   -4.5701 C   0  0  0  0  0  0  0  0  0  0  0  0
   -1.7754    0.7014   -4.2381 C   0  0  0  0  0  0  0  0  0  0  0  0
   -1.4941    0.2937   -2.9321 C   0  0  0  0  0  0  0  0  0  0  0  0
   -2.4909    0.3544   -1.9533 C   0  0  0  0  0  0  0  0  0  0  0  0
   -2.2881   -0.0264   -0.6021 N   0  0  0  0  0  0  0  0  0  0  0  0
    0.8078    0.9534   -0.3300 C   0  0  0  0  0  0  0  0  0  0  0  0
    2.3056    0.8402   -0.6858 C   0  0  0  0  0  0  0  0  0  0  0  0
    6.1427   -1.5032    0.3082 C   0  0  0  0  0  0  0  0  0  0  0  0
    7.3256   -1.7578   -0.3878 C   0  0  0  0  0  0  0  0  0  0  0  0
    9.3892   -1.2070   -0.6617 H   0  0  0  0  0  0  0  0  0  0  0  0
    9.3204    0.5832    1.0543 H   0  0  0  0  0  0  0  0  0  0  0  0
    7.2347    1.0431    2.2881 H   0  0  0  0  0  0  0  0  0  0  0  0
    5.0599    0.3283    2.9555 H   0  0  0  0  0  0  0  0  0  0  0  0
    4.3709   -1.1599    2.3761 H   0  0  0  0  0  0  0  0  0  0  0  0
    4.3447    1.4795    0.8030 H   0  0  0  0  0  0  0  0  0  0  0  0
    3.0721    1.0630    1.9436 H   0  0  0  0  0  0  0  0  0  0  0  0
    1.7920   -0.8522    1.6909 H   0  0  0  0  0  0  0  0  0  0  0  0
    2.8049   -2.0542    0.8842 H   0  0  0  0  0  0  0  0  0  0  0  0
    0.4716   -2.3727    0.2241 H   0  0  0  0  0  0  0  0  0  0  0  0
    1.4023   -1.8618   -1.1720 H   0  0  0  0  0  0  0  0  0  0  0  0
   -0.8525   -1.0866    2.1566 H   0  0  0  0  0  0  0  0  0  0  0  0
   -3.4839   -0.6201    2.4052 H   0  0  0  0  0  0  0  0  0  0  0  0
   -5.6001   -1.7157    1.3372 H   0  0  0  0  0  0  0  0  0  0  0  0
   -7.5503   -1.6966    2.8618 H   0  0  0  0  0  0  0  0  0  0  0  0
   -8.9076    0.3638    3.1219 H   0  0  0  0  0  0  0  0  0  0  0  0
   -8.3189    2.4121    1.8499 H   0  0  0  0  0  0  0  0  0  0  0  0
   -6.3589    2.4090    0.3287 H   0  0  0  0  0  0  0  0  0  0  0  0
   -5.0471    1.5327   -3.8597 H   0  0  0  0  0  0  0  0  0  0  0  0
   -3.2690    1.4725   -5.5865 H   0  0  0  0  0  0  0  0  0  0  0  0
   -0.9996    0.6539   -4.9983 H   0  0  0  0  0  0  0  0  0  0  0  0
   -0.5010   -0.0835   -2.7182 H   0  0  0  0  0  0  0  0  0  0  0  0
    0.7077    1.3492    0.6896 H   0  0  0  0  0  0  0  0  0  0  0  0
    0.3331    1.6710   -1.0089 H   0  0  0  0  0  0  0  0  0  0  0  0
    2.7560    1.8400   -0.7014 H   0  0  0  0  0  0  0  0  0  0  0  0
    2.3865    0.4677   -1.7156 H   0  0  0  0  0  0  0  0  0  0  0  0
    5.2556   -2.0886    0.0787 H   0  0  0  0  0  0  0  0  0  0  0  0
    7.3514   -2.5381   -1.1437 H   0  0  0  0  0  0  0  0  0  0  0  0
  1  2  2  0
  2  3  1  0
  3  4  2  0
  4  5  1  0
  5  6  1  0
  6  7  1  0
  7  8  1  0
  8  9  1  0
  9 10  1  0
 10 11  1  0
 11 12  2  0
 12 13  1  0
 13 14  2  0
 14 15  1  0
 15 16  1  0
 16 17  2  0
 17 18  1  0
 18 19  2  0
 19 20  1  0
 20 21  2  0
 15 22  2  0
 22 23  1  0
 23 24  2  0
 24 25  1  0
 25 26  2  0
 26 27  1  0
 27 28  2  0
 28 29  1  0
 10 30  1  0
 30 31  1  0
  4 32  1  0
 32 33  2  0
 33  1  1  0
 31  7  1  0
 29 11  1  0
 29 14  1  0
 21 16  1  0
 28 23  1  0
  1 34  1  0
  2 35  1  0
  3 36  1  0
  5 37  1  0
  5 38  1  0
  6 39  1  0
  6 40  1  0
  8 41  1  0
  8 42  1  0
  9 43  1  0
  9 44  1  0
 12 45  1  0
 13 46  1  0
 17 47  1  0
 18 48  1  0
 19 49  1  0
 20 50  1  0
 21 51  1  0
 24 52  1  0
 25 53  1  0
 26 54  1  0
 27 55  1  0
 30 56  1  0
 30 57  1  0
 31 58  1  0
 31 59  1  0
 32 60  1  0
 33 61  1  0
M  END
$$$$
