
     RDKit          3D

 44 45  0  0  0  0  0  0  0  0999 V2000
    7.8999    1.8779   -1.3014 C   0  0  0  0  0  0  0  0  0  0  0  0
    7.8489    0.5242   -0.6202 C   0  0  0  0  0  0  0  0  0  0  0  0
    6.4882    0.0888   -0.4760 O   0  0  0  0  0  0  0  0  0  0  0  0
    5.8409    0.5285    0.6298 C   0  0  0  0  0  0  0  0  0  0  0  0
    6.2975    1.2724    1.4821 O   0  0  0  0  0  0  0  0  0  0  0  0
    4.4577   -0.0217    0.6777 C   0  0  0  0  0  0  0  0  0  0  0  0
    3.9765   -0.9298   -0.2768 C   0  0  0  0  0  0  0  0  0  0  0  0
    2.6753   -1.4309   -0.1811 C   0  0  0  0  0  0  0  0  0  0  0  0
    1.8495   -1.0138    0.8677 C   0  0  0  0  0  0  0  0  0  0  0  0
    0.2142   -1.6866    1.0128 S   0  0  0  0  0  6  0  0  0  0  0  0
    0.1689   -2.9386    0.2943 O   0  0  0  0  0  0  0  0  0  0  0  0
   -0.2125   -1.5648    2.3927 O   0  0  0  0  0  0  0  0  0  0  0  0
   -0.6972   -0.5323    0.0988 N   0  0  0  0  0  0  0  0  0  0  0  0
   -1.9982   -0.3133    0.6923 N   0  0  0  0  0  0  0  0  0  0  0  0
   -3.1211   -1.5334    0.1871 S   0  0  0  0  0  6  0  0  0  0  0  0
   -3.2812   -2.4475    1.2938 O   0  0  0  0  0  0  0  0  0  0  0  0
   -2.6961   -1.9736   -1.1280 O   0  0  0  0  0  0  0  0  0  0  0  0
   -4.6020   -0.5798    0.0092 C   0  0  0  0  0  0  0  0  0  0  0  0
   -5.5282   -0.5386    1.0519 C   0  0  0  0  0  0  0  0  0  0  0  0
   -6.7117    0.1850    0.8918 C   0  0  0  0  0  0  0  0  0  0  0  0
   -6.9725    0.8670   -0.3044 C   0  0  0  0  0  0  0  0  0  0  0  0
   -8.2669    1.6035   -0.4882 C   0  0  0  0  0  0  0  0  0  0  0  0
   -6.0422    0.7987   -1.3498 C   0  0  0  0  0  0  0  0  0  0  0  0
   -4.8565    0.0780   -1.1963 C   0  0  0  0  0  0  0  0  0  0  0  0
    2.3182   -0.1166    1.8307 C   0  0  0  0  0  0  0  0  0  0  0  0
    3.6202    0.3802    1.7316 C   0  0  0  0  0  0  0  0  0  0  0  0
    7.3515    1.8550   -2.2470 H   0  0  0  0  0  0  0  0  0  0  0  0
    7.4307    2.6469   -0.6810 H   0  0  0  0  0  0  0  0  0  0  0  0
    8.9336    2.1767   -1.4974 H   0  0  0  0  0  0  0  0  0  0  0  0
    8.3659    0.5385    0.3451 H   0  0  0  0  0  0  0  0  0  0  0  0
    8.3564   -0.2173   -1.2453 H   0  0  0  0  0  0  0  0  0  0  0  0
    4.6090   -1.2647   -1.0970 H   0  0  0  0  0  0  0  0  0  0  0  0
    2.3220   -2.1489   -0.9202 H   0  0  0  0  0  0  0  0  0  0  0  0
   -0.7906   -0.9185   -0.8593 H   0  0  0  0  0  0  0  0  0  0  0  0
   -1.9526   -0.3599    1.7267 H   0  0  0  0  0  0  0  0  0  0  0  0
   -5.3495   -1.0734    1.9817 H   0  0  0  0  0  0  0  0  0  0  0  0
   -7.4388    0.2032    1.7018 H   0  0  0  0  0  0  0  0  0  0  0  0
   -9.0448    0.9103   -0.8231 H   0  0  0  0  0  0  0  0  0  0  0  0
   -8.5842    2.0705    0.4505 H   0  0  0  0  0  0  0  0  0  0  0  0
   -8.1631    2.4020   -1.2326 H   0  0  0  0  0  0  0  0  0  0  0  0
   -6.2399    1.3032   -2.2937 H   0  0  0  0  0  0  0  0  0  0  0  0
   -4.1487    0.0266   -2.0190 H   0  0  0  0  0  0  0  0  0  0  0  0
    1.6859    0.1932    2.6614 H   0  0  0  0  0  0  0  0  0  0  0  0
    3.9870    1.0737    2.4856 H   0  0  0  0  0  0  0  0  0  0  0  0
  1  2  1  0
  2  3  1  0
  3  4  1  0
  4  5  2  0
  4  6  1  0
  6  7  2  0
  7  8  1  0
  8  9  2  0
  9 10  1  0
 10 11  2  0
 10 12  2  0
 10 13  1  0
 13 14  1  0
 14 15  1  0
 15 16  2  0
 15 17  2  0
 15 18  1  0
 18 19  2  0
 19 20  1  0
 20 21  2  0
 21 22  1  0
 21 23  1  0
 23 24  2  0
  9 25  1  0
 25 26  2  0
 26  6  1  0
 24 18  1  0
  1 27  1  0
  1 28  1  0
  1 29  1  0
  2 30  1  0
  2 31  1  0
  7 32  1  0
  8 33  1  0
 13 34  1  0
 14 35  1  0
 19 36  1  0
 20 37  1  0
 22 38  1  0
 22 39  1  0
 22 40  1  0
 23 41  1  0
 24 42  1  0
 25 43  1  0
 26 44  1  0
M  END
$$$$
