
     RDKit          3D

 42 44  0  0  0  0  0  0  0  0999 V2000
   -1.9479    3.8638    0.7992 C   0  0  0  0  0  0  0  0  0  0  0  0
   -2.2919    3.1212   -0.4783 C   0  0  0  0  0  0  0  0  0  0  0  0
   -2.5043    1.7305   -0.2000 O   0  0  0  0  0  0  0  0  0  0  0  0
   -1.3890    0.9430   -0.2031 C   0  0  0  0  0  0  0  0  0  0  0  0
   -0.2557    1.3579   -0.4208 O   0  0  0  0  0  0  0  0  0  0  0  0
   -1.6861   -0.4568    0.0901 C   0  0  0  0  0  0  0  0  0  0  0  0
   -0.7054   -1.4504    0.1705 C   0  0  0  0  0  0  0  0  0  0  0  0
    0.6551   -1.2778   -0.0144 N   0  0  0  0  0  0  0  0  0  0  0  0
    1.6596   -2.2240    0.0563 C   0  0  0  0  0  0  0  0  0  0  0  0
    1.5504   -3.4199    0.2998 O   0  0  0  0  0  0  0  0  0  0  0  0
    2.9826   -1.6237   -0.2068 C   0  0  0  0  0  0  0  0  0  0  0  0
    4.2379   -2.2856   -0.2169 C   0  0  0  0  0  0  0  0  0  0  0  0
    5.1631   -1.3123   -0.5076 C   0  0  0  0  0  0  0  0  0  0  0  0
    4.4561   -0.1559   -0.6517 N   0  0  0  0  0  0  0  0  0  0  0  0
    4.9924    1.1543   -0.9678 C   0  0  0  0  0  0  0  0  0  0  0  0
    5.1726    2.0131    0.2710 C   0  0  0  0  0  0  0  0  0  0  0  0
    3.1299   -0.3099   -0.4791 N   0  0  0  0  0  0  0  0  0  0  0  0
   -1.3531   -2.9959    0.5429 S   0  0  0  0  0  0  0  0  0  0  0  0
   -2.8966   -2.3747    0.5942 C   0  0  0  0  0  0  0  0  0  0  0  0
   -2.9655   -1.0349    0.3385 C   0  0  0  0  0  0  0  0  0  0  0  0
   -4.3726   -0.5588    0.4041 C   0  0  0  0  0  0  0  0  0  0  0  0
   -5.1807   -1.8945    0.4035 C   0  0  0  0  0  0  0  0  0  0  0  0
   -4.2027   -3.0141    0.8704 C   0  0  0  0  0  0  0  0  0  0  0  0
   -1.0129    3.4927    1.2303 H   0  0  0  0  0  0  0  0  0  0  0  0
   -1.8432    4.9356    0.6085 H   0  0  0  0  0  0  0  0  0  0  0  0
   -2.7278    3.7134    1.5529 H   0  0  0  0  0  0  0  0  0  0  0  0
   -3.2292    3.5113   -0.8886 H   0  0  0  0  0  0  0  0  0  0  0  0
   -1.5226    3.2629   -1.2460 H   0  0  0  0  0  0  0  0  0  0  0  0
    0.9813   -0.3328   -0.2340 H   0  0  0  0  0  0  0  0  0  0  0  0
    4.4217   -3.3355   -0.0334 H   0  0  0  0  0  0  0  0  0  0  0  0
    6.2377   -1.3480   -0.6183 H   0  0  0  0  0  0  0  0  0  0  0  0
    5.9519    1.0088   -1.4758 H   0  0  0  0  0  0  0  0  0  0  0  0
    4.3058    1.6305   -1.6763 H   0  0  0  0  0  0  0  0  0  0  0  0
    5.5858    2.9894   -0.0003 H   0  0  0  0  0  0  0  0  0  0  0  0
    5.8553    1.5381    0.9836 H   0  0  0  0  0  0  0  0  0  0  0  0
    4.2178    2.1763    0.7818 H   0  0  0  0  0  0  0  0  0  0  0  0
   -4.6527    0.0645   -0.4494 H   0  0  0  0  0  0  0  0  0  0  0  0
   -4.5467   -0.0062    1.3333 H   0  0  0  0  0  0  0  0  0  0  0  0
   -5.5078   -2.1117   -0.6221 H   0  0  0  0  0  0  0  0  0  0  0  0
   -6.0775   -1.8378    1.0282 H   0  0  0  0  0  0  0  0  0  0  0  0
   -4.3616   -3.9387    0.3089 H   0  0  0  0  0  0  0  0  0  0  0  0
   -4.3233   -3.2075    1.9412 H   0  0  0  0  0  0  0  0  0  0  0  0
  1  2  1  0
  2  3  1  0
  3  4  1  0
  4  5  2  0
  4  6  1  0
  6  7  2  0
  7  8  1  0
  8  9  1  0
  9 10  2  0
  9 11  1  0
 11 12  1  0
 12 13  2  0
 13 14  1  0
 14 15  1  0
 15 16  1  0
 14 17  1  0
  7 18  1  0
 18 19  1  0
 19 20  2  0
 20 21  1  0
 21 22  1  0
 22 23  1  0
 20  6  1  0
 17 11  2  0
 23 19  1  0
  1 24  1  0
  1 25  1  0
  1 26  1  0
  2 27  1  0
  2 28  1  0
  8 29  1  0
 12 30  1  0
 13 31  1  0
 15 32  1  0
 15 33  1  0
 16 34  1  0
 16 35  1  0
 16 36  1  0
 21 37  1  0
 21 38  1  0
 22 39  1  0
 22 40  1  0
 23 41  1  0
 23 42  1  0
M  END
$$$$
