
     RDKit          3D

 56 58  0  0  0  0  0  0  0  0999 V2000
    6.8420   -2.3020   -3.6687 C   0  0  0  0  0  0  0  0  0  0  0  0
    6.9778   -0.9492   -3.2526 O   0  0  0  0  0  0  0  0  0  0  0  0
    6.5706   -0.6511   -1.9814 C   0  0  0  0  0  0  0  0  0  0  0  0
    6.7195    0.6897   -1.6199 C   0  0  0  0  0  0  0  0  0  0  0  0
    6.3429    1.1340   -0.3498 C   0  0  0  0  0  0  0  0  0  0  0  0
    5.8171    0.2350    0.5853 C   0  0  0  0  0  0  0  0  0  0  0  0
    5.3856    0.7055    1.9494 C   0  0  0  0  0  0  0  0  0  0  0  0
    3.9882    1.0495    1.9567 N   0  0  0  0  0  0  0  0  0  0  0  0
    3.0125    0.1561    2.3285 C   0  0  0  0  0  0  0  0  0  0  0  0
    3.1875   -0.9536    2.8121 O   0  0  0  0  0  0  0  0  0  0  0  0
    1.5787    0.6696    2.0632 C   0  0  0  0  0  0  0  0  0  0  0  0
    1.4021    1.7409    1.5011 O   0  0  0  0  0  0  0  0  0  0  0  0
    0.5927   -0.1895    2.4867 N   0  0  0  0  0  0  0  0  0  0  0  0
   -0.8048    0.0308    2.1545 C   0  0  0  0  0  0  0  0  0  0  0  0
   -1.1245   -0.1794    0.6616 C   0  0  0  0  0  0  0  0  0  0  0  0
   -0.7237   -1.5132    0.2788 O   0  0  0  0  0  0  0  0  0  0  0  0
   -1.5532   -1.8306   -0.8398 C   0  0  0  0  0  0  0  0  0  0  0  0
   -2.9066   -1.2913   -0.4360 C   0  0  0  0  0  0  0  0  0  0  0  0
   -2.5855   -0.1244    0.4139 N   0  0  0  0  0  0  0  0  0  0  0  0
   -3.1198    1.3879   -0.1170 S   0  0  0  0  0  6  0  0  0  0  0  0
   -2.7201    1.5190   -1.5022 O   0  0  0  0  0  0  0  0  0  0  0  0
   -2.7476    2.3701    0.8761 O   0  0  0  0  0  0  0  0  0  0  0  0
   -4.8842    1.2107   -0.0511 C   0  0  0  0  0  0  0  0  0  0  0  0
   -5.6409    1.2695   -1.2229 C   0  0  0  0  0  0  0  0  0  0  0  0
   -7.0273    1.1243   -1.1509 C   0  0  0  0  0  0  0  0  0  0  0  0
   -7.6578    0.9155    0.0841 C   0  0  0  0  0  0  0  0  0  0  0  0
   -9.1524    0.7983    0.1604 C   0  0  0  0  0  0  0  0  0  0  0  0
   -6.8857    0.8815    1.2538 C   0  0  0  0  0  0  0  0  0  0  0  0
   -5.4994    1.0259    1.1896 C   0  0  0  0  0  0  0  0  0  0  0  0
    5.6597   -1.1077    0.2154 C   0  0  0  0  0  0  0  0  0  0  0  0
    6.0366   -1.5491   -1.0580 C   0  0  0  0  0  0  0  0  0  0  0  0
    7.2088   -2.3737   -4.6973 H   0  0  0  0  0  0  0  0  0  0  0  0
    5.7917   -2.6117   -3.6677 H   0  0  0  0  0  0  0  0  0  0  0  0
    7.4525   -2.9686   -3.0504 H   0  0  0  0  0  0  0  0  0  0  0  0
    7.1299    1.3965   -2.3373 H   0  0  0  0  0  0  0  0  0  0  0  0
    6.4634    2.1857   -0.1001 H   0  0  0  0  0  0  0  0  0  0  0  0
    5.5918   -0.0658    2.7003 H   0  0  0  0  0  0  0  0  0  0  0  0
    5.9470    1.6003    2.2399 H   0  0  0  0  0  0  0  0  0  0  0  0
    3.6719    1.8721    1.4509 H   0  0  0  0  0  0  0  0  0  0  0  0
    0.9002   -1.1206    2.7569 H   0  0  0  0  0  0  0  0  0  0  0  0
   -1.3767   -0.6751    2.7672 H   0  0  0  0  0  0  0  0  0  0  0  0
   -1.0735    1.0455    2.4651 H   0  0  0  0  0  0  0  0  0  0  0  0
   -0.5688    0.5214    0.0276 H   0  0  0  0  0  0  0  0  0  0  0  0
   -1.5598   -2.9097   -1.0141 H   0  0  0  0  0  0  0  0  0  0  0  0
   -1.1592   -1.3244   -1.7283 H   0  0  0  0  0  0  0  0  0  0  0  0
   -3.5286   -1.0682   -1.3058 H   0  0  0  0  0  0  0  0  0  0  0  0
   -3.4420   -2.0149    0.1888 H   0  0  0  0  0  0  0  0  0  0  0  0
   -5.1665    1.4341   -2.1877 H   0  0  0  0  0  0  0  0  0  0  0  0
   -7.6162    1.1801   -2.0644 H   0  0  0  0  0  0  0  0  0  0  0  0
   -9.5992    1.7894    0.2857 H   0  0  0  0  0  0  0  0  0  0  0  0
   -9.4518    0.1652    1.0023 H   0  0  0  0  0  0  0  0  0  0  0  0
   -9.5547    0.3402   -0.7492 H   0  0  0  0  0  0  0  0  0  0  0  0
   -7.3627    0.7471    2.2226 H   0  0  0  0  0  0  0  0  0  0  0  0
   -4.9076    1.0011    2.1019 H   0  0  0  0  0  0  0  0  0  0  0  0
    5.2348   -1.8204    0.9211 H   0  0  0  0  0  0  0  0  0  0  0  0
    5.8952   -2.5982   -1.2940 H   0  0  0  0  0  0  0  0  0  0  0  0
  1  2  1  0
  2  3  1  0
  3  4  2  0
  4  5  1  0
  5  6  2  0
  6  7  1  0
  7  8  1  0
  8  9  1  0
  9 10  2  0
  9 11  1  0
 11 12  2  0
 11 13  1  0
 13 14  1  0
 14 15  1  0
 15 16  1  0
 16 17  1  0
 17 18  1  0
 18 19  1  0
 19 20  1  0
 20 21  2  0
 20 22  2  0
 20 23  1  0
 23 24  2  0
 24 25  1  0
 25 26  2  0
 26 27  1  0
 26 28  1  0
 28 29  2  0
  6 30  1  0
 30 31  2  0
 31  3  1  0
 19 15  1  0
 29 23  1  0
  1 32  1  0
  1 33  1  0
  1 34  1  0
  4 35  1  0
  5 36  1  0
  7 37  1  0
  7 38  1  0
  8 39  1  0
 13 40  1  0
 14 41  1  0
 14 42  1  0
 15 43  1  0
 17 44  1  0
 17 45  1  0
 18 46  1  0
 18 47  1  0
 24 48  1  0
 25 49  1  0
 27 50  1  0
 27 51  1  0
 27 52  1  0
 28 53  1  0
 29 54  1  0
 30 55  1  0
 31 56  1  0
M  END
$$$$
