
     RDKit          3D

 26 28  0  0  0  0  0  0  0  0999 V2000
   -4.0351    0.9552   -0.0762 C   0  0  0  0  0  0  0  0  0  0  0  0
   -2.6043    0.5878   -0.0150 C   0  0  0  0  0  0  0  0  0  0  0  0
   -1.7188    1.5961   -0.2444 O   0  0  0  0  0  0  0  0  0  0  0  0
   -0.4708    1.0671   -0.1481 C   0  0  0  0  0  0  0  0  0  0  0  0
    0.7158    1.7725   -0.3193 C   0  0  0  0  0  0  0  0  0  0  0  0
    1.8842    1.0221   -0.1752 C   0  0  0  0  0  0  0  0  0  0  0  0
    3.1034    1.7162   -0.3447 O   0  0  0  0  0  0  0  0  0  0  0  0
    4.3264    1.0719   -0.2246 C   0  0  0  0  0  0  0  0  0  0  0  0
    5.3946    1.6551   -0.3677 O   0  0  0  0  0  0  0  0  0  0  0  0
    4.2918   -0.3672    0.0874 C   0  0  0  0  0  0  0  0  0  0  0  0
    3.1487   -1.0396    0.2510 C   0  0  0  0  0  0  0  0  0  0  0  0
    1.8779   -0.3428    0.1203 C   0  0  0  0  0  0  0  0  0  0  0  0
    0.6574   -1.0154    0.2852 C   0  0  0  0  0  0  0  0  0  0  0  0
   -0.5446   -0.2895    0.1474 C   0  0  0  0  0  0  0  0  0  0  0  0
   -1.9376   -0.5996    0.2376 C   0  0  0  0  0  0  0  0  0  0  0  0
   -2.5379   -1.9236    0.5333 C   0  0  0  0  0  0  0  0  0  0  0  0
   -4.5860    0.2503   -0.7064 H   0  0  0  0  0  0  0  0  0  0  0  0
   -4.1718    1.9580   -0.4928 H   0  0  0  0  0  0  0  0  0  0  0  0
   -4.4740    0.9390    0.9260 H   0  0  0  0  0  0  0  0  0  0  0  0
    0.7241    2.8298   -0.5488 H   0  0  0  0  0  0  0  0  0  0  0  0
    5.2568   -0.8512    0.1769 H   0  0  0  0  0  0  0  0  0  0  0  0
    3.1507   -2.0995    0.4804 H   0  0  0  0  0  0  0  0  0  0  0  0
    0.6271   -2.0760    0.5153 H   0  0  0  0  0  0  0  0  0  0  0  0
   -2.0320   -2.3967    1.3810 H   0  0  0  0  0  0  0  0  0  0  0  0
   -3.5995   -1.8365    0.7852 H   0  0  0  0  0  0  0  0  0  0  0  0
   -2.4465   -2.5833   -0.3355 H   0  0  0  0  0  0  0  0  0  0  0  0
  1  2  1  0
  2  3  1  0
  3  4  1  0
  4  5  2  0
  5  6  1  0
  6  7  1  0
  7  8  1  0
  8  9  2  0
  8 10  1  0
 10 11  2  0
 11 12  1  0
 12 13  1  0
 13 14  2  0
 14 15  1  0
 15 16  1  0
 15  2  2  0
 14  4  1  0
 12  6  2  0
  1 17  1  0
  1 18  1  0
  1 19  1  0
  5 20  1  0
 10 21  1  0
 11 22  1  0
 13 23  1  0
 16 24  1  0
 16 25  1  0
 16 26  1  0
M  END
$$$$
