
     RDKit          3D

 38 41  0  0  0  0  0  0  0  0999 V2000
    0.7519    0.5846    1.7088 O   0  0  0  0  0  0  0  0  0  0  0  0
    1.3300    0.2651    0.6720 C   0  0  0  0  0  0  0  0  0  0  0  0
    0.5947   -0.1711   -0.5848 C   0  0  0  0  0  0  0  0  0  0  0  0
   -0.9219   -0.1783   -0.4490 C   0  0  0  0  0  0  0  0  0  0  0  0
   -1.5982   -1.3506    0.0009 C   0  0  0  0  0  0  0  0  0  0  0  0
   -0.9596   -2.5452    0.4265 C   0  0  0  0  0  0  0  0  0  0  0  0
   -1.6903   -3.6597    0.8398 C   0  0  0  0  0  0  0  0  0  0  0  0
   -3.0741   -3.6054    0.8410 C   0  0  0  0  0  0  0  0  0  0  0  0
   -3.7135   -2.4334    0.4379 C   0  0  0  0  0  0  0  0  0  0  0  0
   -3.0070   -1.3106    0.0274 C   0  0  0  0  0  0  0  0  0  0  0  0
   -3.7173   -0.2336   -0.3273 N   0  0  0  0  0  0  0  0  0  0  0  0
   -3.0817    0.8861   -0.6912 C   0  0  0  0  0  0  0  0  0  0  0  0
   -3.8640    1.9886   -1.0089 C   0  0  0  0  0  0  0  0  0  0  0  0
   -3.3060    3.2090   -1.3886 C   0  0  0  0  0  0  0  0  0  0  0  0
   -1.9285    3.3370   -1.4493 C   0  0  0  0  0  0  0  0  0  0  0  0
   -1.1225    2.2410   -1.1394 C   0  0  0  0  0  0  0  0  0  0  0  0
   -1.6779    0.9891   -0.7645 C   0  0  0  0  0  0  0  0  0  0  0  0
    2.8263    0.3063    0.6419 C   0  0  0  0  0  0  0  0  0  0  0  0
    3.5687   -0.0403   -0.4947 C   0  0  0  0  0  0  0  0  0  0  0  0
    4.9656    0.0166   -0.4660 C   0  0  0  0  0  0  0  0  0  0  0  0
    5.6283    0.4183    0.6925 C   0  0  0  0  0  0  0  0  0  0  0  0
    4.8983    0.7647    1.8270 C   0  0  0  0  0  0  0  0  0  0  0  0
    3.5034    0.7091    1.8024 C   0  0  0  0  0  0  0  0  0  0  0  0
    0.9409   -1.1686   -0.8757 H   0  0  0  0  0  0  0  0  0  0  0  0
    0.8847    0.4810   -1.4155 H   0  0  0  0  0  0  0  0  0  0  0  0
    0.1231   -2.6211    0.4636 H   0  0  0  0  0  0  0  0  0  0  0  0
   -1.1769   -4.5603    1.1659 H   0  0  0  0  0  0  0  0  0  0  0  0
   -3.6600   -4.4621    1.1621 H   0  0  0  0  0  0  0  0  0  0  0  0
   -4.8005   -2.3902    0.4505 H   0  0  0  0  0  0  0  0  0  0  0  0
   -4.9463    1.8945   -0.9513 H   0  0  0  0  0  0  0  0  0  0  0  0
   -3.9498    4.0520   -1.6235 H   0  0  0  0  0  0  0  0  0  0  0  0
   -1.4780    4.2859   -1.7283 H   0  0  0  0  0  0  0  0  0  0  0  0
   -0.0474    2.3905   -1.1760 H   0  0  0  0  0  0  0  0  0  0  0  0
    3.0936   -0.3585   -1.4174 H   0  0  0  0  0  0  0  0  0  0  0  0
    5.5392   -0.2531   -1.3500 H   0  0  0  0  0  0  0  0  0  0  0  0
    6.7148    0.4617    0.7117 H   0  0  0  0  0  0  0  0  0  0  0  0
    5.4121    1.0785    2.7324 H   0  0  0  0  0  0  0  0  0  0  0  0
    2.9461    0.9829    2.6972 H   0  0  0  0  0  0  0  0  0  0  0  0
  1  2  2  0
  2  3  1  0
  3  4  1  0
  4  5  1  0
  5  6  2  0
  6  7  1  0
  7  8  2  0
  8  9  1  0
  9 10  2  0
 10 11  1  0
 11 12  2  0
 12 13  1  0
 13 14  2  0
 14 15  1  0
 15 16  2  0
 16 17  1  0
  2 18  1  0
 18 19  2  0
 19 20  1  0
 20 21  2  0
 21 22  1  0
 22 23  2  0
 17  4  2  0
 23 18  1  0
 10  5  1  0
 17 12  1  0
  3 24  1  0
  3 25  1  0
  6 26  1  0
  7 27  1  0
  8 28  1  0
  9 29  1  0
 13 30  1  0
 14 31  1  0
 15 32  1  0
 16 33  1  0
 19 34  1  0
 20 35  1  0
 21 36  1  0
 22 37  1  0
 23 38  1  0
M  END
$$$$
