
     RDKit          3D

 68 69  0  0  0  0  0  0  0  0999 V2000
    1.5361   -4.3651    2.6630 C   0  0  0  0  0  0  0  0  0  0  0  0
    0.1742   -3.9688    2.5988 O   0  0  0  0  0  0  0  0  0  0  0  0
   -0.1610   -3.2938    1.3808 C   0  0  0  0  0  0  0  0  0  0  0  0
    0.1484   -1.7933    1.4680 C   0  0  0  0  0  0  0  0  0  0  0  0
    0.2365   -1.0993    0.1704 N   0  0  0  0  0  0  0  0  0  0  0  0
    1.3164   -1.2183   -0.6961 C   0  0  0  0  0  0  0  0  0  0  0  0
    1.2875   -0.7582   -1.8400 O   0  0  0  0  0  0  0  0  0  0  0  0
    2.5572   -1.9550   -0.2097 C   0  0  0  0  0  0  0  0  0  0  0  0
    3.7855   -1.5528   -1.0269 C   0  0  0  0  0  0  0  0  0  0  0  0
    4.1860   -0.1137   -0.7408 C   0  0  0  0  0  0  0  0  0  0  0  0
    3.7288    0.5134    0.2121 O   0  0  0  0  0  0  0  0  0  0  0  0
    5.1274    0.3526   -1.6301 N   0  0  0  0  0  0  0  0  0  0  0  0
    5.6739    1.6179   -1.6108 C   0  0  0  0  0  0  0  0  0  0  0  0
    5.4298    2.6864   -0.7201 C   0  0  0  0  0  0  0  0  0  0  0  0
    6.2431    3.6988   -1.1636 C   0  0  0  0  0  0  0  0  0  0  0  0
    6.4949    5.0819   -0.7240 C   0  0  0  0  0  0  0  0  0  0  0  0
    6.9414    3.2664   -2.2480 O   0  0  0  0  0  0  0  0  0  0  0  0
    6.5772    1.9633   -2.5369 N   0  0  0  0  0  0  0  0  0  0  0  0
   -0.9325   -0.3343   -0.3231 C   0  0  0  0  0  0  0  0  0  0  0  0
   -2.0612   -1.2221   -0.9224 C   0  0  0  0  0  0  0  0  0  0  0  0
   -2.1219   -2.4379   -0.7564 O   0  0  0  0  0  0  0  0  0  0  0  0
   -3.0098   -0.5102   -1.6460 N   0  0  0  0  0  0  0  0  0  0  0  0
   -4.2444   -1.0774   -2.2073 C   0  0  0  0  0  0  0  0  0  0  0  0
   -3.9462   -2.2310   -3.1788 C   0  0  0  0  0  0  0  0  0  0  0  0
   -4.9636    0.0350   -2.9910 C   0  0  0  0  0  0  0  0  0  0  0  0
   -5.1712   -1.5611   -1.0815 C   0  0  0  0  0  0  0  0  0  0  0  0
   -1.4236    0.7010    0.6904 C   0  0  0  0  0  0  0  0  0  0  0  0
   -0.6921    1.8883    0.8519 C   0  0  0  0  0  0  0  0  0  0  0  0
   -1.1101    2.8627    1.7610 C   0  0  0  0  0  0  0  0  0  0  0  0
   -2.2534    2.6671    2.5375 C   0  0  0  0  0  0  0  0  0  0  0  0
   -2.5522    3.6991    3.3830 O   0  0  0  0  0  0  0  0  0  0  0  0
   -3.6861    3.5344    4.2273 C   0  0  0  0  0  0  0  0  0  0  0  0
   -2.9759    1.4826    2.4005 C   0  0  0  0  0  0  0  0  0  0  0  0
   -2.5639    0.5054    1.4855 C   0  0  0  0  0  0  0  0  0  0  0  0
    1.7946   -5.0108    1.8162 H   0  0  0  0  0  0  0  0  0  0  0  0
    1.6824   -4.9343    3.5867 H   0  0  0  0  0  0  0  0  0  0  0  0
    2.1955   -3.4926    2.6892 H   0  0  0  0  0  0  0  0  0  0  0  0
   -1.2376   -3.4337    1.2473 H   0  0  0  0  0  0  0  0  0  0  0  0
    0.3329   -3.7767    0.5294 H   0  0  0  0  0  0  0  0  0  0  0  0
    1.0870   -1.6295    2.0029 H   0  0  0  0  0  0  0  0  0  0  0  0
   -0.6014   -1.3193    2.1058 H   0  0  0  0  0  0  0  0  0  0  0  0
    2.7517   -1.7495    0.8451 H   0  0  0  0  0  0  0  0  0  0  0  0
    2.3801   -3.0280   -0.3332 H   0  0  0  0  0  0  0  0  0  0  0  0
    3.6075   -1.6784   -2.1015 H   0  0  0  0  0  0  0  0  0  0  0  0
    4.6321   -2.1916   -0.7462 H   0  0  0  0  0  0  0  0  0  0  0  0
    5.4552   -0.2275   -2.3911 H   0  0  0  0  0  0  0  0  0  0  0  0
    4.7565    2.7229    0.1234 H   0  0  0  0  0  0  0  0  0  0  0  0
    5.7620    5.3927    0.0285 H   0  0  0  0  0  0  0  0  0  0  0  0
    7.4950    5.1667   -0.2857 H   0  0  0  0  0  0  0  0  0  0  0  0
    6.4262    5.7752   -1.5679 H   0  0  0  0  0  0  0  0  0  0  0  0
   -0.6043    0.2604   -1.1882 H   0  0  0  0  0  0  0  0  0  0  0  0
   -2.9346    0.5030   -1.6198 H   0  0  0  0  0  0  0  0  0  0  0  0
   -3.5231   -3.1012   -2.6690 H   0  0  0  0  0  0  0  0  0  0  0  0
   -3.2310   -1.9218   -3.9490 H   0  0  0  0  0  0  0  0  0  0  0  0
   -4.8591   -2.5696   -3.6821 H   0  0  0  0  0  0  0  0  0  0  0  0
   -5.2064    0.8845   -2.3418 H   0  0  0  0  0  0  0  0  0  0  0  0
   -4.3301    0.4153   -3.8016 H   0  0  0  0  0  0  0  0  0  0  0  0
   -5.8984   -0.3270   -3.4341 H   0  0  0  0  0  0  0  0  0  0  0  0
   -4.7220   -2.3835   -0.5139 H   0  0  0  0  0  0  0  0  0  0  0  0
   -5.3843   -0.7529   -0.3702 H   0  0  0  0  0  0  0  0  0  0  0  0
   -6.1277   -1.9200   -1.4809 H   0  0  0  0  0  0  0  0  0  0  0  0
    0.2134    2.0586    0.2711 H   0  0  0  0  0  0  0  0  0  0  0  0
   -0.5374    3.7804    1.8675 H   0  0  0  0  0  0  0  0  0  0  0  0
   -4.6062    3.4425    3.6368 H   0  0  0  0  0  0  0  0  0  0  0  0
   -3.7781    4.4337    4.8439 H   0  0  0  0  0  0  0  0  0  0  0  0
   -3.5596    2.6788    4.8993 H   0  0  0  0  0  0  0  0  0  0  0  0
   -3.8641    1.2840    2.9914 H   0  0  0  0  0  0  0  0  0  0  0  0
   -3.1417   -0.4147    1.4153 H   0  0  0  0  0  0  0  0  0  0  0  0
  1  2  1  0
  2  3  1  0
  3  4  1  0
  4  5  1  0
  5  6  1  0
  6  7  2  0
  6  8  1  0
  8  9  1  0
  9 10  1  0
 10 11  2  0
 10 12  1  0
 12 13  1  0
 13 14  1  0
 14 15  2  0
 15 16  1  0
 15 17  1  0
 17 18  1  0
  5 19  1  0
 19 20  1  0
 20 21  2  0
 20 22  1  0
 22 23  1  0
 23 24  1  0
 23 25  1  0
 23 26  1  0
 19 27  1  0
 27 28  2  0
 28 29  1  0
 29 30  2  0
 30 31  1  0
 31 32  1  0
 30 33  1  0
 33 34  2  0
 18 13  2  0
 34 27  1  0
  1 35  1  0
  1 36  1  0
  1 37  1  0
  3 38  1  0
  3 39  1  0
  4 40  1  0
  4 41  1  0
  8 42  1  0
  8 43  1  0
  9 44  1  0
  9 45  1  0
 12 46  1  0
 14 47  1  0
 16 48  1  0
 16 49  1  0
 16 50  1  0
 19 51  1  0
 22 52  1  0
 24 53  1  0
 24 54  1  0
 24 55  1  0
 25 56  1  0
 25 57  1  0
 25 58  1  0
 26 59  1  0
 26 60  1  0
 26 61  1  0
 28 62  1  0
 29 63  1  0
 32 64  1  0
 32 65  1  0
 32 66  1  0
 33 67  1  0
 34 68  1  0
M  END
$$$$
