
     RDKit          3D

 40 42  0  0  0  0  0  0  0  0999 V2000
    2.2352    4.2178    0.4853 C   0  0  0  0  0  0  0  0  0  0  0  0
    2.3005    3.7806   -0.9683 C   0  0  0  0  0  0  0  0  0  0  0  0
    0.6418    3.4447   -1.6507 S   0  0  0  0  0  0  0  0  0  0  0  0
    0.2669    1.8533   -0.9253 C   0  0  0  0  0  0  0  0  0  0  0  0
   -1.0242    1.3796   -1.0173 C   0  0  0  0  0  0  0  0  0  0  0  0
   -1.2916    0.1432   -0.4655 C   0  0  0  0  0  0  0  0  0  0  0  0
   -2.5739   -0.3950   -0.4986 N   0  0  0  0  0  0  0  0  0  0  0  0
   -2.7790   -1.6463    0.2509 C   0  0  0  0  0  0  0  0  0  0  0  0
   -4.2592   -2.0504    0.1697 C   0  0  0  0  0  0  0  0  0  0  0  0
   -4.7287   -2.2804   -1.1686 O   0  0  0  0  0  0  0  0  0  0  0  0
   -3.9392   -1.6225   -2.1684 C   0  0  0  0  0  0  0  0  0  0  0  0
   -3.3862   -0.2579   -1.7216 C   0  0  0  0  0  0  0  0  0  0  0  0
   -0.3202   -0.5420    0.1597 N   0  0  0  0  0  0  0  0  0  0  0  0
    0.9176   -0.0142    0.2005 C   0  0  0  0  0  0  0  0  0  0  0  0
    1.9759   -0.7892    0.8816 C   0  0  0  0  0  0  0  0  0  0  0  0
    3.2964   -0.3069    0.9778 C   0  0  0  0  0  0  0  0  0  0  0  0
    4.2991   -1.0388    1.6227 C   0  0  0  0  0  0  0  0  0  0  0  0
    4.0043   -2.2750    2.1889 C   0  0  0  0  0  0  0  0  0  0  0  0
    2.7098   -2.7788    2.1107 C   0  0  0  0  0  0  0  0  0  0  0  0
    1.7100   -2.0437    1.4650 C   0  0  0  0  0  0  0  0  0  0  0  0
    1.2537    1.1686   -0.3345 N   0  0  0  0  0  0  0  0  0  0  0  0
    3.2418    4.4551    0.8457 H   0  0  0  0  0  0  0  0  0  0  0  0
    1.8308    3.4353    1.1345 H   0  0  0  0  0  0  0  0  0  0  0  0
    1.6221    5.1176    0.6044 H   0  0  0  0  0  0  0  0  0  0  0  0
    2.9582    2.9150   -1.0942 H   0  0  0  0  0  0  0  0  0  0  0  0
    2.7328    4.5932   -1.5618 H   0  0  0  0  0  0  0  0  0  0  0  0
   -1.8002    1.9718   -1.4830 H   0  0  0  0  0  0  0  0  0  0  0  0
   -2.1597   -2.4468   -0.1737 H   0  0  0  0  0  0  0  0  0  0  0  0
   -2.5077   -1.5106    1.3046 H   0  0  0  0  0  0  0  0  0  0  0  0
   -4.8904   -1.2678    0.6068 H   0  0  0  0  0  0  0  0  0  0  0  0
   -4.4327   -2.9681    0.7406 H   0  0  0  0  0  0  0  0  0  0  0  0
   -4.5700   -1.4983   -3.0546 H   0  0  0  0  0  0  0  0  0  0  0  0
   -3.1191   -2.2953   -2.4462 H   0  0  0  0  0  0  0  0  0  0  0  0
   -4.2199    0.4170   -1.4957 H   0  0  0  0  0  0  0  0  0  0  0  0
   -2.8200    0.1683   -2.5575 H   0  0  0  0  0  0  0  0  0  0  0  0
    3.5560    0.6574    0.5437 H   0  0  0  0  0  0  0  0  0  0  0  0
    5.3085   -0.6397    1.6803 H   0  0  0  0  0  0  0  0  0  0  0  0
    4.7821   -2.8448    2.6903 H   0  0  0  0  0  0  0  0  0  0  0  0
    2.4731   -3.7439    2.5511 H   0  0  0  0  0  0  0  0  0  0  0  0
    0.7057   -2.4621    1.4187 H   0  0  0  0  0  0  0  0  0  0  0  0
  1  2  1  0
  2  3  1  0
  3  4  1  0
  4  5  2  0
  5  6  1  0
  6  7  1  0
  7  8  1  0
  8  9  1  0
  9 10  1  0
 10 11  1  0
 11 12  1  0
  6 13  2  0
 13 14  1  0
 14 15  1  0
 15 16  2  0
 16 17  1  0
 17 18  2  0
 18 19  1  0
 19 20  2  0
 14 21  2  0
 21  4  1  0
 12  7  1  0
 20 15  1  0
  1 22  1  0
  1 23  1  0
  1 24  1  0
  2 25  1  0
  2 26  1  0
  5 27  1  0
  8 28  1  0
  8 29  1  0
  9 30  1  0
  9 31  1  0
 11 32  1  0
 11 33  1  0
 12 34  1  0
 12 35  1  0
 16 36  1  0
 17 37  1  0
 18 38  1  0
 19 39  1  0
 20 40  1  0
M  END
$$$$
