
     RDKit          3D

 59 62  0  0  0  0  0  0  0  0999 V2000
   -8.1870    2.1331   -2.3416 C   0  0  0  0  0  0  0  0  0  0  0  0
   -7.0287    1.6895   -3.0404 O   0  0  0  0  0  0  0  0  0  0  0  0
   -5.9261    1.3868   -2.2883 C   0  0  0  0  0  0  0  0  0  0  0  0
   -4.8037    0.9979   -3.0284 C   0  0  0  0  0  0  0  0  0  0  0  0
   -3.6107    0.6500   -2.3904 C   0  0  0  0  0  0  0  0  0  0  0  0
   -3.5318    0.6809   -0.9946 C   0  0  0  0  0  0  0  0  0  0  0  0
   -2.3060    0.2945   -0.3172 C   0  0  0  0  0  0  0  0  0  0  0  0
   -1.2048    1.0544    0.0227 C   0  0  0  0  0  0  0  0  0  0  0  0
   -0.2575    0.3019    0.6654 N   0  0  0  0  0  0  0  0  0  0  0  0
   -0.7711   -0.9062    0.7348 C   0  0  0  0  0  0  0  0  0  0  0  0
    0.0431   -2.2672    1.4336 S   0  0  0  0  0  0  0  0  0  0  0  0
    1.1788   -1.4478    2.5903 C   0  0  0  0  0  0  0  0  0  0  0  0
    2.5016   -1.1064    1.9253 C   0  0  0  0  0  0  0  0  0  0  0  0
    3.5178   -1.7319    2.2162 O   0  0  0  0  0  0  0  0  0  0  0  0
    2.4072   -0.0466    1.0536 N   0  0  0  0  0  0  0  0  0  0  0  0
    3.4762    0.4512    0.3633 C   0  0  0  0  0  0  0  0  0  0  0  0
    4.7436    0.1304    0.4328 N   0  0  0  0  0  0  0  0  0  0  0  0
    5.4863    0.8949   -0.4561 C   0  0  0  0  0  0  0  0  0  0  0  0
    6.9917    0.6932   -0.5392 C   0  0  0  0  0  0  0  0  0  0  0  0
    7.7168    1.9808   -0.0981 C   0  0  0  0  0  0  0  0  0  0  0  0
    7.4592   -0.4559    0.3768 C   0  0  0  0  0  0  0  0  0  0  0  0
    7.4028    0.3517   -1.9871 C   0  0  0  0  0  0  0  0  0  0  0  0
    4.7304    1.8053   -1.1815 C   0  0  0  0  0  0  0  0  0  0  0  0
    3.0721    1.6823   -0.7458 S   0  0  0  0  0  0  0  0  0  0  0  0
   -2.0180   -0.9723    0.1637 N   0  0  0  0  0  0  0  0  0  0  0  0
   -2.8702   -2.1470    0.0509 C   0  0  0  0  0  0  0  0  0  0  0  0
   -3.5554   -2.4492    1.3333 C   0  0  0  0  0  0  0  0  0  0  0  0
   -3.4252   -3.4643    2.2621 C   0  0  0  0  0  0  0  0  0  0  0  0
   -4.3751   -3.2005    3.2779 C   0  0  0  0  0  0  0  0  0  0  0  0
   -5.0319   -2.0507    2.9039 C   0  0  0  0  0  0  0  0  0  0  0  0
   -4.5464   -1.5909    1.7234 O   0  0  0  0  0  0  0  0  0  0  0  0
   -4.6497    1.0789   -0.2517 C   0  0  0  0  0  0  0  0  0  0  0  0
   -5.8422    1.4291   -0.8952 C   0  0  0  0  0  0  0  0  0  0  0  0
   -8.9583    2.3665   -3.0895 H   0  0  0  0  0  0  0  0  0  0  0  0
   -7.9793    3.0458   -1.7763 H   0  0  0  0  0  0  0  0  0  0  0  0
   -8.5837    1.3465   -1.6881 H   0  0  0  0  0  0  0  0  0  0  0  0
   -4.8628    0.9647   -4.1144 H   0  0  0  0  0  0  0  0  0  0  0  0
   -2.7518    0.3515   -2.9903 H   0  0  0  0  0  0  0  0  0  0  0  0
   -1.0518    2.1101   -0.1707 H   0  0  0  0  0  0  0  0  0  0  0  0
    0.7347   -0.5516    3.0356 H   0  0  0  0  0  0  0  0  0  0  0  0
    1.3856   -2.1482    3.4105 H   0  0  0  0  0  0  0  0  0  0  0  0
    1.4902    0.3316    0.8210 H   0  0  0  0  0  0  0  0  0  0  0  0
    7.4336    2.2642    0.9210 H   0  0  0  0  0  0  0  0  0  0  0  0
    7.4752    2.8261   -0.7511 H   0  0  0  0  0  0  0  0  0  0  0  0
    8.8032    1.8544   -0.1197 H   0  0  0  0  0  0  0  0  0  0  0  0
    7.2131   -0.2558    1.4253 H   0  0  0  0  0  0  0  0  0  0  0  0
    8.5451   -0.5930    0.3195 H   0  0  0  0  0  0  0  0  0  0  0  0
    6.9870   -1.4056    0.0999 H   0  0  0  0  0  0  0  0  0  0  0  0
    7.1626    1.1674   -2.6781 H   0  0  0  0  0  0  0  0  0  0  0  0
    8.4812    0.1671   -2.0639 H   0  0  0  0  0  0  0  0  0  0  0  0
    6.8834   -0.5430   -2.3466 H   0  0  0  0  0  0  0  0  0  0  0  0
    5.0635    2.5123   -1.9274 H   0  0  0  0  0  0  0  0  0  0  0  0
   -2.2502   -2.9848   -0.2773 H   0  0  0  0  0  0  0  0  0  0  0  0
   -3.6060   -1.9750   -0.7371 H   0  0  0  0  0  0  0  0  0  0  0  0
   -2.7264   -4.2908    2.2166 H   0  0  0  0  0  0  0  0  0  0  0  0
   -4.5621   -3.7765    4.1730 H   0  0  0  0  0  0  0  0  0  0  0  0
   -5.8257   -1.4623    3.3461 H   0  0  0  0  0  0  0  0  0  0  0  0
   -4.6001    1.1069    0.8357 H   0  0  0  0  0  0  0  0  0  0  0  0
   -6.6866    1.7214   -0.2778 H   0  0  0  0  0  0  0  0  0  0  0  0
  1  2  1  0
  2  3  1  0
  3  4  2  0
  4  5  1  0
  5  6  2  0
  6  7  1  0
  7  8  2  0
  8  9  1  0
  9 10  2  0
 10 11  1  0
 11 12  1  0
 12 13  1  0
 13 14  2  0
 13 15  1  0
 15 16  1  0
 16 17  2  0
 17 18  1  0
 18 19  1  0
 19 20  1  0
 19 21  1  0
 19 22  1  0
 18 23  2  0
 23 24  1  0
 10 25  1  0
 25 26  1  0
 26 27  1  0
 27 28  2  0
 28 29  1  0
 29 30  2  0
 30 31  1  0
  6 32  1  0
 32 33  2  0
 33  3  1  0
 25  7  1  0
 31 27  1  0
 24 16  1  0
  1 34  1  0
  1 35  1  0
  1 36  1  0
  4 37  1  0
  5 38  1  0
  8 39  1  0
 12 40  1  0
 12 41  1  0
 15 42  1  0
 20 43  1  0
 20 44  1  0
 20 45  1  0
 21 46  1  0
 21 47  1  0
 21 48  1  0
 22 49  1  0
 22 50  1  0
 22 51  1  0
 23 52  1  0
 26 53  1  0
 26 54  1  0
 28 55  1  0
 29 56  1  0
 30 57  1  0
 32 58  1  0
 33 59  1  0
M  END
$$$$
