
     RDKit          3D

 64 69  0  0  0  0  0  0  0  0999 V2000
   -2.5650   -3.7300   -0.7466 C   0  0  0  0  0  0  0  0  0  0  0  0
   -3.1621   -2.8224    0.1750 O   0  0  0  0  0  0  0  0  0  0  0  0
   -2.8924   -3.0870    1.4928 C   0  0  0  0  0  0  0  0  0  0  0  0
   -2.8316   -4.3873    2.0078 C   0  0  0  0  0  0  0  0  0  0  0  0
   -2.5959   -4.6000    3.3670 C   0  0  0  0  0  0  0  0  0  0  0  0
   -2.4329   -3.5161    4.2234 C   0  0  0  0  0  0  0  0  0  0  0  0
   -2.5088   -2.2174    3.7211 C   0  0  0  0  0  0  0  0  0  0  0  0
   -2.7404   -1.9855    2.3518 C   0  0  0  0  0  0  0  0  0  0  0  0
   -2.8061   -0.5585    1.8432 C   0  0  0  0  0  0  0  0  0  0  0  0
   -1.6355   -0.1064    1.0524 N   0  0  0  0  0  0  0  0  0  0  0  0
   -0.3866   -0.2149    1.8337 C   0  0  0  0  0  0  0  0  0  0  0  0
    0.9023    0.1041    1.1197 C   0  0  0  0  0  0  0  0  0  0  0  0
    1.6911    1.1340    1.4800 C   0  0  0  0  0  0  0  0  0  0  0  0
    2.9420    1.4137    0.7767 C   0  0  0  0  0  0  0  0  0  0  0  0
    3.7446    2.5049    1.1191 C   0  0  0  0  0  0  0  0  0  0  0  0
    4.9250    2.7431    0.4150 C   0  0  0  0  0  0  0  0  0  0  0  0
    5.3228    1.8774   -0.6113 C   0  0  0  0  0  0  0  0  0  0  0  0
    4.5200    0.7953   -0.9663 C   0  0  0  0  0  0  0  0  0  0  0  0
    3.3342    0.5692   -0.2687 C   0  0  0  0  0  0  0  0  0  0  0  0
    2.5212   -0.5167   -0.6085 N   0  0  0  0  0  0  0  0  0  0  0  0
    1.3305   -0.8020    0.0063 C   0  0  0  0  0  0  0  0  0  0  0  0
    0.6572   -1.7601   -0.3645 O   0  0  0  0  0  0  0  0  0  0  0  0
    6.4873    2.0363   -1.3193 O   0  0  0  0  0  0  0  0  0  0  0  0
    7.3709    2.9624   -0.6768 C   0  0  0  0  0  0  0  0  0  0  0  0
    6.6144    4.1952   -0.2112 C   0  0  0  0  0  0  0  0  0  0  0  0
    5.6518    3.8450    0.7898 O   0  0  0  0  0  0  0  0  0  0  0  0
   -1.9076    1.2606    0.5645 C   0  0  0  0  0  0  0  0  0  0  0  0
   -1.0869    1.6675   -0.6083 C   0  0  0  0  0  0  0  0  0  0  0  0
   -0.3230    2.7396   -0.7073 N   0  0  0  0  0  0  0  0  0  0  0  0
    0.2356    2.7030   -1.9599 N   0  0  0  0  0  0  0  0  0  0  0  0
   -0.1808    1.6429   -2.6359 N   0  0  0  0  0  0  0  0  0  0  0  0
   -1.0182    0.9951   -1.7996 N   0  0  0  0  0  0  0  0  0  0  0  0
   -1.6754   -0.2218   -2.2184 C   0  0  0  0  0  0  0  0  0  0  0  0
   -3.0096    0.0886   -2.7889 C   0  0  0  0  0  0  0  0  0  0  0  0
   -3.4342    0.5287   -4.0264 C   0  0  0  0  0  0  0  0  0  0  0  0
   -4.8437    0.6349   -3.9505 C   0  0  0  0  0  0  0  0  0  0  0  0
   -5.1891    0.2530   -2.6758 C   0  0  0  0  0  0  0  0  0  0  0  0
   -4.0829   -0.0771   -1.9625 O   0  0  0  0  0  0  0  0  0  0  0  0
   -3.1412   -4.6586   -0.8039 H   0  0  0  0  0  0  0  0  0  0  0  0
   -2.5909   -3.2664   -1.7373 H   0  0  0  0  0  0  0  0  0  0  0  0
   -1.5172   -3.9324   -0.4984 H   0  0  0  0  0  0  0  0  0  0  0  0
   -2.9838   -5.2516    1.3698 H   0  0  0  0  0  0  0  0  0  0  0  0
   -2.5483   -5.6135    3.7566 H   0  0  0  0  0  0  0  0  0  0  0  0
   -2.2519   -3.6813    5.2822 H   0  0  0  0  0  0  0  0  0  0  0  0
   -2.3823   -1.3815    4.4053 H   0  0  0  0  0  0  0  0  0  0  0  0
   -3.7160   -0.4836    1.2318 H   0  0  0  0  0  0  0  0  0  0  0  0
   -2.9671    0.1219    2.6913 H   0  0  0  0  0  0  0  0  0  0  0  0
   -0.4720    0.4044    2.7378 H   0  0  0  0  0  0  0  0  0  0  0  0
   -0.2639   -1.2441    2.1931 H   0  0  0  0  0  0  0  0  0  0  0  0
    1.4088    1.8022    2.2866 H   0  0  0  0  0  0  0  0  0  0  0  0
    3.4533    3.1836    1.9154 H   0  0  0  0  0  0  0  0  0  0  0  0
    4.8293    0.1410   -1.7747 H   0  0  0  0  0  0  0  0  0  0  0  0
    2.7825   -1.1265   -1.3703 H   0  0  0  0  0  0  0  0  0  0  0  0
    8.1414    3.2425   -1.4019 H   0  0  0  0  0  0  0  0  0  0  0  0
    7.8599    2.4513    0.1618 H   0  0  0  0  0  0  0  0  0  0  0  0
    6.0927    4.6858   -1.0424 H   0  0  0  0  0  0  0  0  0  0  0  0
    7.3057    4.9185    0.2324 H   0  0  0  0  0  0  0  0  0  0  0  0
   -1.7833    1.9891    1.3765 H   0  0  0  0  0  0  0  0  0  0  0  0
   -2.9541    1.3456    0.2422 H   0  0  0  0  0  0  0  0  0  0  0  0
   -1.7510   -0.9001   -1.3694 H   0  0  0  0  0  0  0  0  0  0  0  0
   -1.0393   -0.7078   -2.9668 H   0  0  0  0  0  0  0  0  0  0  0  0
   -2.8006    0.7515   -4.8748 H   0  0  0  0  0  0  0  0  0  0  0  0
   -5.5245    0.9517   -4.7279 H   0  0  0  0  0  0  0  0  0  0  0  0
   -6.1285    0.1666   -2.1476 H   0  0  0  0  0  0  0  0  0  0  0  0
  1  2  1  0
  2  3  1  0
  3  4  2  0
  4  5  1  0
  5  6  2  0
  6  7  1  0
  7  8  2  0
  8  9  1  0
  9 10  1  0
 10 11  1  0
 11 12  1  0
 12 13  2  0
 13 14  1  0
 14 15  2  0
 15 16  1  0
 16 17  2  0
 17 18  1  0
 18 19  2  0
 19 20  1  0
 20 21  1  0
 21 22  2  0
 17 23  1  0
 23 24  1  0
 24 25  1  0
 25 26  1  0
 10 27  1  0
 27 28  1  0
 28 29  2  0
 29 30  1  0
 30 31  2  0
 31 32  1  0
 32 33  1  0
 33 34  1  0
 34 35  2  0
 35 36  1  0
 36 37  2  0
 37 38  1  0
  8  3  1  0
 21 12  1  0
 32 28  1  0
 38 34  1  0
 19 14  1  0
 26 16  1  0
  1 39  1  0
  1 40  1  0
  1 41  1  0
  4 42  1  0
  5 43  1  0
  6 44  1  0
  7 45  1  0
  9 46  1  0
  9 47  1  0
 11 48  1  0
 11 49  1  0
 13 50  1  0
 15 51  1  0
 18 52  1  0
 20 53  1  0
 24 54  1  0
 24 55  1  0
 25 56  1  0
 25 57  1  0
 27 58  1  0
 27 59  1  0
 33 60  1  0
 33 61  1  0
 35 62  1  0
 36 63  1  0
 37 64  1  0
M  END
$$$$
