
     RDKit          3D

 57 62  0  0  0  0  0  0  0  0999 V2000
    7.0493    3.9066    0.4833 C   0  0  0  0  0  0  0  0  0  0  0  0
    6.9277    2.5754    0.9709 O   0  0  0  0  0  0  0  0  0  0  0  0
    5.7791    1.9022    0.6684 C   0  0  0  0  0  0  0  0  0  0  0  0
    4.7115    2.3895   -0.0819 C   0  0  0  0  0  0  0  0  0  0  0  0
    3.5875    1.5852   -0.3152 C   0  0  0  0  0  0  0  0  0  0  0  0
    3.5256    0.2841    0.1988 C   0  0  0  0  0  0  0  0  0  0  0  0
    2.2593   -0.6071   -0.0676 C   0  0  0  0  0  0  0  0  0  0  0  0
    1.1062   -0.2216   -0.7411 C   0  0  0  0  0  0  0  0  0  0  0  0
    0.2050   -1.2858   -0.7434 N   0  0  0  0  0  4  0  0  0  0  0  0
   -1.1620   -1.2837   -1.2982 C   0  0  0  0  0  0  0  0  0  0  0  0
   -2.2041   -1.1489   -0.1665 C   0  0  0  0  0  0  0  0  0  0  0  0
   -2.0134   -1.7881    0.8722 O   0  0  0  0  0  0  0  0  0  0  0  0
   -3.2172   -0.1982   -0.3818 N   0  0  0  0  0  0  0  0  0  0  0  0
   -3.7594    0.0444   -1.6946 C   0  0  0  0  0  0  0  0  0  0  0  0
   -3.8889   -1.0303   -2.5984 C   0  0  0  0  0  0  0  0  0  0  0  0
   -4.3973   -0.8396   -3.8857 C   0  0  0  0  0  0  0  0  0  0  0  0
   -4.8009    0.4262   -4.2903 C   0  0  0  0  0  0  0  0  0  0  0  0
   -4.7170    1.4941   -3.3999 C   0  0  0  0  0  0  0  0  0  0  0  0
   -4.2163    1.3065   -2.1032 C   0  0  0  0  0  0  0  0  0  0  0  0
   -4.1406    2.7132   -1.0317 S   0  0  0  0  0  0  0  0  0  0  0  0
   -4.2755    1.8661    0.5267 C   0  0  0  0  0  0  0  0  0  0  0  0
   -4.8145    2.5937    1.6004 C   0  0  0  0  0  0  0  0  0  0  0  0
   -4.8904    2.0307    2.8698 C   0  0  0  0  0  0  0  0  0  0  0  0
   -4.4234    0.7401    3.0719 C   0  0  0  0  0  0  0  0  0  0  0  0
   -3.8795    0.0135    2.0062 C   0  0  0  0  0  0  0  0  0  0  0  0
   -3.7943    0.5536    0.7102 C   0  0  0  0  0  0  0  0  0  0  0  0
    0.7681   -2.2859   -0.0714 C   0  0  0  0  0  0  0  0  0  0  0  0
    1.9949   -1.9172    0.2889 N   0  0  0  0  0  0  0  0  0  0  0  0
    2.6962   -2.9846    0.9885 C   0  0  0  0  0  0  0  0  0  0  0  0
    1.8188   -4.2356    0.7103 C   0  0  0  0  0  0  0  0  0  0  0  0
    0.4344   -3.6721    0.3337 C   0  0  0  0  0  0  0  0  0  0  0  0
    4.5926   -0.2012    0.9527 C   0  0  0  0  0  0  0  0  0  0  0  0
    5.7111    0.6064    1.1823 C   0  0  0  0  0  0  0  0  0  0  0  0
    8.0151    4.2981    0.8170 H   0  0  0  0  0  0  0  0  0  0  0  0
    7.0404    3.9268   -0.6115 H   0  0  0  0  0  0  0  0  0  0  0  0
    6.2667    4.5505    0.8975 H   0  0  0  0  0  0  0  0  0  0  0  0
    4.7223    3.3921   -0.4994 H   0  0  0  0  0  0  0  0  0  0  0  0
    2.7813    2.0099   -0.9062 H   0  0  0  0  0  0  0  0  0  0  0  0
    0.8019    0.6968   -1.2140 H   0  0  0  0  0  0  0  0  0  0  0  0
   -1.2173   -0.4590   -2.0137 H   0  0  0  0  0  0  0  0  0  0  0  0
   -1.3163   -2.2322   -1.8214 H   0  0  0  0  0  0  0  0  0  0  0  0
   -3.6603   -2.0511   -2.3010 H   0  0  0  0  0  0  0  0  0  0  0  0
   -4.5043   -1.6830   -4.5654 H   0  0  0  0  0  0  0  0  0  0  0  0
   -5.2063    0.5807   -5.2883 H   0  0  0  0  0  0  0  0  0  0  0  0
   -5.0590    2.4766   -3.7229 H   0  0  0  0  0  0  0  0  0  0  0  0
   -5.1754    3.6104    1.4546 H   0  0  0  0  0  0  0  0  0  0  0  0
   -5.3139    2.5973    3.6958 H   0  0  0  0  0  0  0  0  0  0  0  0
   -4.4889    0.2874    4.0593 H   0  0  0  0  0  0  0  0  0  0  0  0
   -3.5740   -1.0048    2.2260 H   0  0  0  0  0  0  0  0  0  0  0  0
    2.7222   -2.7490    2.0564 H   0  0  0  0  0  0  0  0  0  0  0  0
    3.7048   -3.1184    0.5916 H   0  0  0  0  0  0  0  0  0  0  0  0
    2.2318   -4.7751   -0.1504 H   0  0  0  0  0  0  0  0  0  0  0  0
    1.7838   -4.9269    1.5565 H   0  0  0  0  0  0  0  0  0  0  0  0
   -0.2268   -3.6046    1.1989 H   0  0  0  0  0  0  0  0  0  0  0  0
   -0.0339   -4.1878   -0.5051 H   0  0  0  0  0  0  0  0  0  0  0  0
    4.5922   -1.1909    1.3893 H   0  0  0  0  0  0  0  0  0  0  0  0
    6.5418    0.2244    1.7736 H   0  0  0  0  0  0  0  0  0  0  0  0
  1  2  1  0
  2  3  1  0
  3  4  2  0
  4  5  1  0
  5  6  2  0
  6  7  1  0
  7  8  2  0
  8  9  1  0
  9 10  1  0
 10 11  1  0
 11 12  2  0
 11 13  1  0
 13 14  1  0
 14 15  2  0
 15 16  1  0
 16 17  2  0
 17 18  1  0
 18 19  2  0
 19 20  1  0
 20 21  1  0
 21 22  2  0
 22 23  1  0
 23 24  2  0
 24 25  1  0
 25 26  2  0
  9 27  2  0
 27 28  1  0
 28 29  1  0
 29 30  1  0
 30 31  1  0
  6 32  1  0
 32 33  2  0
 33  3  1  0
 28  7  1  0
 26 13  1  0
 31 27  1  0
 19 14  1  0
 26 21  1  0
  1 34  1  0
  1 35  1  0
  1 36  1  0
  4 37  1  0
  5 38  1  0
  8 39  1  0
 10 40  1  0
 10 41  1  0
 15 42  1  0
 16 43  1  0
 17 44  1  0
 18 45  1  0
 22 46  1  0
 23 47  1  0
 24 48  1  0
 25 49  1  0
 29 50  1  0
 29 51  1  0
 30 52  1  0
 30 53  1  0
 31 54  1  0
 31 55  1  0
 32 56  1  0
 33 57  1  0
M  CHG  1   9   1
M  END
$$$$
