
     RDKit          3D

 37 39  0  0  0  0  0  0  0  0999 V2000
   -3.9155   -1.8281    1.9129 C   0  0  0  0  0  0  0  0  0  0  0  0
   -4.4432   -1.6214    0.5025 C   0  0  0  0  0  0  0  0  0  0  0  0
   -4.2115   -0.2703    0.0176 N   0  0  0  0  0  0  0  0  0  0  0  0
   -5.2500    0.5966    0.0323 N   0  0  0  0  0  0  0  0  0  0  0  0
   -4.7279    1.7268   -0.4455 C   0  0  0  0  0  0  0  0  0  0  0  0
   -3.3663    1.5889   -0.7313 C   0  0  0  0  0  0  0  0  0  0  0  0
   -2.3320    2.9655   -1.4662 Br  0  0  0  0  0  0  0  0  0  0  0  0
   -3.0244    0.2892   -0.4114 C   0  0  0  0  0  0  0  0  0  0  0  0
   -1.7676   -0.4279   -0.4934 C   0  0  0  0  0  0  0  0  0  0  0  0
   -1.7477   -1.6362   -0.6899 O   0  0  0  0  0  0  0  0  0  0  0  0
   -0.6607    0.3703   -0.2723 N   0  0  0  0  0  0  0  0  0  0  0  0
    0.6783    0.0057   -0.3199 C   0  0  0  0  0  0  0  0  0  0  0  0
    1.1585   -1.5321   -0.8995 S   0  0  0  0  0  0  0  0  0  0  0  0
    2.7612   -1.1593   -0.6601 C   0  0  0  0  0  0  0  0  0  0  0  0
    2.9762    0.0940   -0.1573 C   0  0  0  0  0  0  0  0  0  0  0  0
    1.7619    0.8230    0.0324 C   0  0  0  0  0  0  0  0  0  0  0  0
    1.5715    2.1904    0.5122 C   0  0  0  0  0  0  0  0  0  0  0  0
    2.6882    2.9534    0.6846 N   0  0  0  0  0  0  0  0  0  0  0  0
    0.4633    2.6715    0.7357 O   0  0  0  0  0  0  0  0  0  0  0  0
    4.4317    0.3255    0.0285 C   0  0  0  0  0  0  0  0  0  0  0  0
    5.0389   -1.1031   -0.1390 C   0  0  0  0  0  0  0  0  0  0  0  0
    3.9888   -1.9495   -0.9115 C   0  0  0  0  0  0  0  0  0  0  0  0
   -2.8333   -1.6750    1.9627 H   0  0  0  0  0  0  0  0  0  0  0  0
   -4.3819   -1.1264    2.6132 H   0  0  0  0  0  0  0  0  0  0  0  0
   -4.1296   -2.8447    2.2543 H   0  0  0  0  0  0  0  0  0  0  0  0
   -5.5248   -1.7962    0.4835 H   0  0  0  0  0  0  0  0  0  0  0  0
   -3.9990   -2.3236   -0.2087 H   0  0  0  0  0  0  0  0  0  0  0  0
   -5.3677    2.5922   -0.5651 H   0  0  0  0  0  0  0  0  0  0  0  0
   -0.8255    1.3303    0.0339 H   0  0  0  0  0  0  0  0  0  0  0  0
    2.5398    3.9257    0.9205 H   0  0  0  0  0  0  0  0  0  0  0  0
    3.5945    2.6849    0.3361 H   0  0  0  0  0  0  0  0  0  0  0  0
    4.6709    0.7318    1.0153 H   0  0  0  0  0  0  0  0  0  0  0  0
    4.8153    0.9951   -0.7474 H   0  0  0  0  0  0  0  0  0  0  0  0
    6.0097   -1.0838   -0.6395 H   0  0  0  0  0  0  0  0  0  0  0  0
    5.1931   -1.5422    0.8528 H   0  0  0  0  0  0  0  0  0  0  0  0
    3.9399   -2.9709   -0.5263 H   0  0  0  0  0  0  0  0  0  0  0  0
    4.2266   -1.9699   -1.9800 H   0  0  0  0  0  0  0  0  0  0  0  0
  1  2  1  0
  2  3  1  0
  3  4  1  0
  4  5  2  0
  5  6  1  0
  6  7  1  0
  6  8  2  0
  8  9  1  0
  9 10  2  0
  9 11  1  0
 11 12  1  0
 12 13  1  0
 13 14  1  0
 14 15  2  0
 15 16  1  0
 16 17  1  0
 17 18  1  0
 17 19  2  0
 15 20  1  0
 20 21  1  0
 21 22  1  0
  8  3  1  0
 16 12  2  0
 22 14  1  0
  1 23  1  0
  1 24  1  0
  1 25  1  0
  2 26  1  0
  2 27  1  0
  5 28  1  0
 11 29  1  0
 18 30  1  0
 18 31  1  0
 20 32  1  0
 20 33  1  0
 21 34  1  0
 21 35  1  0
 22 36  1  0
 22 37  1  0
M  END
$$$$
