
     RDKit          3D

 55 57  0  0  0  0  0  0  0  0999 V2000
   -5.6183   -1.9697   -0.9652 C   0  0  0  0  0  0  0  0  0  0  0  0
   -4.6712   -0.9368   -1.2060 O   0  0  0  0  0  0  0  0  0  0  0  0
   -4.3336   -0.1303   -0.1456 C   0  0  0  0  0  0  0  0  0  0  0  0
   -4.5785   -0.4514    1.1958 C   0  0  0  0  0  0  0  0  0  0  0  0
   -4.1601    0.4140    2.2138 C   0  0  0  0  0  0  0  0  0  0  0  0
   -4.3954    0.1184    3.6593 C   0  0  0  0  0  0  0  0  0  0  0  0
   -5.2393   -1.0709    4.0364 C   0  0  0  0  0  0  0  0  0  0  0  0
   -3.8959    0.8414    4.5188 O   0  0  0  0  0  0  0  0  0  0  0  0
   -3.4866    1.5946    1.8798 C   0  0  0  0  0  0  0  0  0  0  0  0
   -3.2356    1.9188    0.5440 C   0  0  0  0  0  0  0  0  0  0  0  0
   -3.6565    1.0623   -0.4745 C   0  0  0  0  0  0  0  0  0  0  0  0
   -3.4717    1.2898   -1.8159 O   0  0  0  0  0  0  0  0  0  0  0  0
   -2.5430    2.2885   -2.2175 C   0  0  0  0  0  0  0  0  0  0  0  0
   -1.0757    1.8932   -2.0168 C   0  0  0  0  0  0  0  0  0  0  0  0
   -0.2102    2.7443   -1.8401 O   0  0  0  0  0  0  0  0  0  0  0  0
   -0.8843    0.5234   -2.0931 N   0  0  0  0  0  0  0  0  0  0  0  0
    0.3227   -0.1899   -1.9954 C   0  0  0  0  0  0  0  0  0  0  0  0
    0.2334   -1.5848   -1.9668 C   0  0  0  0  0  0  0  0  0  0  0  0
    1.3853   -2.3697   -1.8650 C   0  0  0  0  0  0  0  0  0  0  0  0
    2.6477   -1.7741   -1.7963 C   0  0  0  0  0  0  0  0  0  0  0  0
    3.9953   -2.8419   -1.6489 Cl  0  0  0  0  0  0  0  0  0  0  0  0
    2.7421   -0.3822   -1.8341 C   0  0  0  0  0  0  0  0  0  0  0  0
    4.3129    0.4342   -1.7850 S   0  0  0  0  0  6  0  0  0  0  0  0
    5.1441   -0.1414   -2.8193 O   0  0  0  0  0  0  0  0  0  0  0  0
    4.0934    1.8650   -1.7333 O   0  0  0  0  0  0  0  0  0  0  0  0
    4.9374   -0.0057   -0.2632 N   0  0  0  0  0  0  0  0  0  0  0  0
    4.2104    0.5376    0.9299 C   0  0  0  0  0  0  0  0  0  0  0  0
    5.0194    1.6459    1.6099 C   0  0  0  0  0  0  0  0  0  0  0  0
    6.2903    1.1916    2.0984 O   0  0  0  0  0  0  0  0  0  0  0  0
    6.8582    0.1371    1.3074 C   0  0  0  0  0  0  0  0  0  0  0  0
    6.4204    0.1814   -0.1590 C   0  0  0  0  0  0  0  0  0  0  0  0
    1.5822    0.4084   -1.9361 C   0  0  0  0  0  0  0  0  0  0  0  0
   -5.1780   -2.7677   -0.3587 H   0  0  0  0  0  0  0  0  0  0  0  0
   -5.8948   -2.4017   -1.9320 H   0  0  0  0  0  0  0  0  0  0  0  0
   -6.5298   -1.5769   -0.5019 H   0  0  0  0  0  0  0  0  0  0  0  0
   -5.0756   -1.3793    1.4507 H   0  0  0  0  0  0  0  0  0  0  0  0
   -4.7197   -1.9972    3.7795 H   0  0  0  0  0  0  0  0  0  0  0  0
   -5.4117   -1.0604    5.1173 H   0  0  0  0  0  0  0  0  0  0  0  0
   -6.2138   -1.0195    3.5437 H   0  0  0  0  0  0  0  0  0  0  0  0
   -3.1518    2.2750    2.6623 H   0  0  0  0  0  0  0  0  0  0  0  0
   -2.7150    2.8504    0.3459 H   0  0  0  0  0  0  0  0  0  0  0  0
   -2.6789    2.4340   -3.2955 H   0  0  0  0  0  0  0  0  0  0  0  0
   -2.7538    3.2540   -1.7463 H   0  0  0  0  0  0  0  0  0  0  0  0
   -1.7413   -0.0225   -2.1544 H   0  0  0  0  0  0  0  0  0  0  0  0
   -0.7330   -2.0820   -2.0168 H   0  0  0  0  0  0  0  0  0  0  0  0
    1.2878   -3.4533   -1.8394 H   0  0  0  0  0  0  0  0  0  0  0  0
    3.2187    0.9127    0.6604 H   0  0  0  0  0  0  0  0  0  0  0  0
    4.0604   -0.2998    1.6219 H   0  0  0  0  0  0  0  0  0  0  0  0
    5.2002    2.4781    0.9201 H   0  0  0  0  0  0  0  0  0  0  0  0
    4.4661    2.0452    2.4659 H   0  0  0  0  0  0  0  0  0  0  0  0
    6.5727   -0.8162    1.7672 H   0  0  0  0  0  0  0  0  0  0  0  0
    7.9470    0.2232    1.3808 H   0  0  0  0  0  0  0  0  0  0  0  0
    6.7028    1.1474   -0.5938 H   0  0  0  0  0  0  0  0  0  0  0  0
    6.9168   -0.6215   -0.7134 H   0  0  0  0  0  0  0  0  0  0  0  0
    1.6854    1.4895   -1.9796 H   0  0  0  0  0  0  0  0  0  0  0  0
  1  2  1  0
  2  3  1  0
  3  4  2  0
  4  5  1  0
  5  6  1  0
  6  7  1  0
  6  8  2  0
  5  9  2  0
  9 10  1  0
 10 11  2  0
 11 12  1  0
 12 13  1  0
 13 14  1  0
 14 15  2  0
 14 16  1  0
 16 17  1  0
 17 18  2  0
 18 19  1  0
 19 20  2  0
 20 21  1  0
 20 22  1  0
 22 23  1  0
 23 24  2  0
 23 25  2  0
 23 26  1  0
 26 27  1  0
 27 28  1  0
 28 29  1  0
 29 30  1  0
 30 31  1  0
 22 32  2  0
 11  3  1  0
 32 17  1  0
 31 26  1  0
  1 33  1  0
  1 34  1  0
  1 35  1  0
  4 36  1  0
  7 37  1  0
  7 38  1  0
  7 39  1  0
  9 40  1  0
 10 41  1  0
 13 42  1  0
 13 43  1  0
 16 44  1  0
 18 45  1  0
 19 46  1  0
 27 47  1  0
 27 48  1  0
 28 49  1  0
 28 50  1  0
 30 51  1  0
 30 52  1  0
 31 53  1  0
 31 54  1  0
 32 55  1  0
M  END
$$$$
