
     RDKit          3D

 33 33  0  0  0  0  0  0  0  0999 V2000
   -3.3195   -0.7255    1.6630 C   0  0  0  0  0  0  0  0  0  0  0  0
   -3.7479   -1.0836    0.2395 C   0  0  0  0  0  0  0  0  0  0  0  0
   -5.2332   -0.7675    0.0501 C   0  0  0  0  0  0  0  0  0  0  0  0
   -2.9982   -0.3484   -0.7835 N   0  0  0  0  0  0  0  0  0  0  0  0
   -1.5874   -0.7174   -0.8833 C   0  0  0  0  0  0  0  0  0  0  0  0
   -0.6667    0.3671   -0.3257 C   0  0  0  0  0  0  0  0  0  0  0  0
    0.8007   -0.0317   -0.4625 C   0  0  0  0  0  0  0  0  0  0  0  0
    1.5904    1.0229    0.0857 O   0  0  0  0  0  0  0  0  0  0  0  0
    2.9520    0.8799    0.0794 C   0  0  0  0  0  0  0  0  0  0  0  0
    3.6303   -0.2253   -0.4457 C   0  0  0  0  0  0  0  0  0  0  0  0
    5.0280   -0.2825   -0.4077 C   0  0  0  0  0  0  0  0  0  0  0  0
    5.7539    0.7643    0.1549 C   0  0  0  0  0  0  0  0  0  0  0  0
    7.4717    0.6852    0.1974 Cl  0  0  0  0  0  0  0  0  0  0  0  0
    5.0986    1.8719    0.6818 C   0  0  0  0  0  0  0  0  0  0  0  0
    3.7024    1.9269    0.6426 C   0  0  0  0  0  0  0  0  0  0  0  0
    2.8603    3.4653    1.3785 Br  0  0  0  0  0  0  0  0  0  0  0  0
   -3.3931    0.3524    1.8452 H   0  0  0  0  0  0  0  0  0  0  0  0
   -3.9566   -1.2322    2.3963 H   0  0  0  0  0  0  0  0  0  0  0  0
   -2.2888   -1.0363    1.8608 H   0  0  0  0  0  0  0  0  0  0  0  0
   -3.6186   -2.1619    0.0849 H   0  0  0  0  0  0  0  0  0  0  0  0
   -5.4420    0.2980    0.1994 H   0  0  0  0  0  0  0  0  0  0  0  0
   -5.5677   -1.0407   -0.9571 H   0  0  0  0  0  0  0  0  0  0  0  0
   -5.8427   -1.3323    0.7640 H   0  0  0  0  0  0  0  0  0  0  0  0
   -3.1053    0.6569   -0.6494 H   0  0  0  0  0  0  0  0  0  0  0  0
   -1.3815   -1.6826   -0.4049 H   0  0  0  0  0  0  0  0  0  0  0  0
   -1.3608   -0.8510   -1.9478 H   0  0  0  0  0  0  0  0  0  0  0  0
   -0.8877    0.5677    0.7293 H   0  0  0  0  0  0  0  0  0  0  0  0
   -0.8314    1.3170   -0.8509 H   0  0  0  0  0  0  0  0  0  0  0  0
    1.0441   -0.1716   -1.5224 H   0  0  0  0  0  0  0  0  0  0  0  0
    0.9799   -0.9610    0.0914 H   0  0  0  0  0  0  0  0  0  0  0  0
    3.1040   -1.0619   -0.8940 H   0  0  0  0  0  0  0  0  0  0  0  0
    5.5421   -1.1475   -0.8198 H   0  0  0  0  0  0  0  0  0  0  0  0
    5.6706    2.6855    1.1191 H   0  0  0  0  0  0  0  0  0  0  0  0
  1  2  1  0
  2  3  1  0
  2  4  1  0
  4  5  1  0
  5  6  1  0
  6  7  1  0
  7  8  1  0
  8  9  1  0
  9 10  2  0
 10 11  1  0
 11 12  2  0
 12 13  1  0
 12 14  1  0
 14 15  2  0
 15 16  1  0
 15  9  1  0
  1 17  1  0
  1 18  1  0
  1 19  1  0
  2 20  1  0
  3 21  1  0
  3 22  1  0
  3 23  1  0
  4 24  1  0
  5 25  1  0
  5 26  1  0
  6 27  1  0
  6 28  1  0
  7 29  1  0
  7 30  1  0
 10 31  1  0
 11 32  1  0
 14 33  1  0
M  END
$$$$
