
     RDKit          3D

 40 42  0  0  0  0  0  0  0  0999 V2000
    1.7409    1.3259    2.2624 O   0  0  0  0  0  0  0  0  0  0  0  0
    1.8139    0.6829    1.2179 C   0  0  0  0  0  0  0  0  0  0  0  0
    3.0321    0.7708    0.3115 C   0  0  0  0  0  0  0  0  0  0  0  0
    3.4397   -0.5358   -0.3293 C   0  0  0  0  0  0  0  0  0  0  0  0
    3.9789   -1.5680    0.4519 C   0  0  0  0  0  0  0  0  0  0  0  0
    4.3370   -2.7829   -0.1339 C   0  0  0  0  0  0  0  0  0  0  0  0
    4.1593   -2.9777   -1.5031 C   0  0  0  0  0  0  0  0  0  0  0  0
    3.6244   -1.9579   -2.2889 C   0  0  0  0  0  0  0  0  0  0  0  0
    3.2666   -0.7411   -1.7060 C   0  0  0  0  0  0  0  0  0  0  0  0
    0.7755   -0.0892    0.7486 N   0  0  0  0  0  0  0  0  0  0  0  0
   -0.4415   -0.2932    1.5184 C   0  0  0  0  0  0  0  0  0  0  0  0
   -1.4172    0.9138    1.5604 C   0  0  0  0  0  0  0  0  0  0  0  0
   -2.3815    0.7156    2.6188 O   0  0  0  0  0  0  0  0  0  0  0  0
   -3.4245   -0.1904    2.2639 C   0  0  0  0  0  0  0  0  0  0  0  0
   -4.2897    0.4145    1.1678 C   0  0  0  0  0  0  0  0  0  0  0  0
   -3.4478    0.8994    0.0173 C   0  0  0  0  0  0  0  0  0  0  0  0
   -4.0428    1.1477   -1.2285 C   0  0  0  0  0  0  0  0  0  0  0  0
   -3.2899    1.6742   -2.2768 C   0  0  0  0  0  0  0  0  0  0  0  0
   -1.9439    1.9722   -2.0838 C   0  0  0  0  0  0  0  0  0  0  0  0
   -1.3469    1.7360   -0.8444 C   0  0  0  0  0  0  0  0  0  0  0  0
   -2.0851    1.1873    0.2169 C   0  0  0  0  0  0  0  0  0  0  0  0
    2.8222    1.5288   -0.4526 H   0  0  0  0  0  0  0  0  0  0  0  0
    3.8764    1.1426    0.9046 H   0  0  0  0  0  0  0  0  0  0  0  0
    4.1235   -1.4302    1.5226 H   0  0  0  0  0  0  0  0  0  0  0  0
    4.7551   -3.5784    0.4779 H   0  0  0  0  0  0  0  0  0  0  0  0
    4.4418   -3.9241   -1.9576 H   0  0  0  0  0  0  0  0  0  0  0  0
    3.4903   -2.1092   -3.3575 H   0  0  0  0  0  0  0  0  0  0  0  0
    2.8547    0.0451   -2.3356 H   0  0  0  0  0  0  0  0  0  0  0  0
    0.9401   -0.6987   -0.0436 H   0  0  0  0  0  0  0  0  0  0  0  0
   -0.1502   -0.5604    2.5425 H   0  0  0  0  0  0  0  0  0  0  0  0
   -0.9332   -1.1745    1.0899 H   0  0  0  0  0  0  0  0  0  0  0  0
   -0.8652    1.8168    1.8470 H   0  0  0  0  0  0  0  0  0  0  0  0
   -4.0331   -0.3660    3.1575 H   0  0  0  0  0  0  0  0  0  0  0  0
   -3.0063   -1.1581    1.9647 H   0  0  0  0  0  0  0  0  0  0  0  0
   -5.0217   -0.3265    0.8277 H   0  0  0  0  0  0  0  0  0  0  0  0
   -4.8326    1.2796    1.5679 H   0  0  0  0  0  0  0  0  0  0  0  0
   -5.1002    0.9445   -1.3824 H   0  0  0  0  0  0  0  0  0  0  0  0
   -3.7580    1.8690   -3.2383 H   0  0  0  0  0  0  0  0  0  0  0  0
   -1.3612    2.4001   -2.8956 H   0  0  0  0  0  0  0  0  0  0  0  0
   -0.3001    1.9954   -0.7064 H   0  0  0  0  0  0  0  0  0  0  0  0
  1  2  2  0
  2  3  1  0
  3  4  1  0
  4  5  2  0
  5  6  1  0
  6  7  2  0
  7  8  1  0
  8  9  2  0
  2 10  1  0
 10 11  1  0
 11 12  1  0
 12 13  1  0
 13 14  1  0
 14 15  1  0
 15 16  1  0
 16 17  2  0
 17 18  1  0
 18 19  2  0
 19 20  1  0
 20 21  2  0
  9  4  1  0
 21 12  1  0
 21 16  1  0
  3 22  1  0
  3 23  1  0
  5 24  1  0
  6 25  1  0
  7 26  1  0
  8 27  1  0
  9 28  1  0
 10 29  1  0
 11 30  1  0
 11 31  1  0
 12 32  1  0
 14 33  1  0
 14 34  1  0
 15 35  1  0
 15 36  1  0
 17 37  1  0
 18 38  1  0
 19 39  1  0
 20 40  1  0
M  END
$$$$
