
     RDKit          3D

 56 60  0  0  0  0  0  0  0  0999 V2000
   -4.9732   -4.1507   -0.0658 C   0  0  0  0  0  0  0  0  0  0  0  0
   -3.7339   -3.3030   -0.1453 C   0  0  0  0  0  0  0  0  0  0  0  0
   -2.6712   -3.7453   -0.9506 C   0  0  0  0  0  0  0  0  0  0  0  0
   -1.4887   -3.0070   -1.0543 C   0  0  0  0  0  0  0  0  0  0  0  0
   -1.3317   -1.8022   -0.3561 C   0  0  0  0  0  0  0  0  0  0  0  0
   -0.0979   -1.0183   -0.4731 C   0  0  0  0  0  0  0  0  0  0  0  0
    0.8711   -1.3822    0.3923 N   0  0  0  0  0  0  0  0  0  0  0  0
    2.0678   -0.7223    0.3989 N   0  0  0  0  0  0  0  0  0  0  0  0
    2.3086    0.2964   -0.4527 C   0  0  0  0  0  0  0  0  0  0  0  0
    3.5749    0.9415   -0.4597 N   0  0  0  0  0  0  0  0  0  0  0  0
    4.5847    0.9241    0.5307 C   0  0  0  0  0  0  0  0  0  0  0  0
    4.3045    0.7123    1.8993 C   0  0  0  0  0  0  0  0  0  0  0  0
    5.3046    0.8059    2.8784 C   0  0  0  0  0  0  0  0  0  0  0  0
    6.5749    1.1371    2.4672 C   0  0  0  0  0  0  0  0  0  0  0  0
    6.8611    1.3699    1.1440 C   0  0  0  0  0  0  0  0  0  0  0  0
    5.8928    1.2849    0.1618 C   0  0  0  0  0  0  0  0  0  0  0  0
    8.1660    1.7031    0.9459 O   0  0  0  0  0  0  0  0  0  0  0  0
    8.6659    1.6533    2.3000 C   0  0  0  0  0  0  0  0  0  0  0  0
    7.6603    1.2954    3.2710 O   0  0  0  0  0  0  0  0  0  0  0  0
    1.3168    0.7185   -1.3708 C   0  0  0  0  0  0  0  0  0  0  0  0
    1.4944    1.8051   -2.2651 C   0  0  0  0  0  0  0  0  0  0  0  0
    0.4950    2.1963   -3.1581 C   0  0  0  0  0  0  0  0  0  0  0  0
   -0.7120    1.5157   -3.1797 C   0  0  0  0  0  0  0  0  0  0  0  0
   -0.9196    0.4505   -2.3036 C   0  0  0  0  0  0  0  0  0  0  0  0
    0.0778    0.0375   -1.3850 C   0  0  0  0  0  0  0  0  0  0  0  0
   -2.3863   -1.3585    0.4544 C   0  0  0  0  0  0  0  0  0  0  0  0
   -3.5856   -2.0842    0.5418 C   0  0  0  0  0  0  0  0  0  0  0  0
   -4.9066   -1.4033    1.5241 S   0  0  0  0  0  6  0  0  0  0  0  0
   -6.1746   -1.6576    0.8752 O   0  0  0  0  0  0  0  0  0  0  0  0
   -4.6534   -1.7721    2.8977 O   0  0  0  0  0  0  0  0  0  0  0  0
   -4.6532    0.2717    1.4427 N   0  0  0  0  0  0  0  0  0  0  0  0
   -5.3306    0.9873    0.3384 C   0  0  0  0  0  0  0  0  0  0  0  0
   -4.8129    2.4254    0.2764 C   0  0  0  0  0  0  0  0  0  0  0  0
   -3.4217    2.4392   -0.0293 O   0  0  0  0  0  0  0  0  0  0  0  0
   -4.7804   -5.1690   -0.4206 H   0  0  0  0  0  0  0  0  0  0  0  0
   -5.3183   -4.2453    0.9685 H   0  0  0  0  0  0  0  0  0  0  0  0
   -5.7650   -3.7259   -0.6885 H   0  0  0  0  0  0  0  0  0  0  0  0
   -2.7529   -4.6818   -1.5020 H   0  0  0  0  0  0  0  0  0  0  0  0
   -0.6805   -3.3848   -1.6807 H   0  0  0  0  0  0  0  0  0  0  0  0
    3.9707    0.8622   -1.3944 H   0  0  0  0  0  0  0  0  0  0  0  0
    3.2923    0.4821    2.2250 H   0  0  0  0  0  0  0  0  0  0  0  0
    5.0803    0.6369    3.9258 H   0  0  0  0  0  0  0  0  0  0  0  0
    6.1550    1.5029   -0.8681 H   0  0  0  0  0  0  0  0  0  0  0  0
    9.4796    0.9185    2.3499 H   0  0  0  0  0  0  0  0  0  0  0  0
    9.0671    2.6403    2.5607 H   0  0  0  0  0  0  0  0  0  0  0  0
    2.4192    2.3801   -2.2580 H   0  0  0  0  0  0  0  0  0  0  0  0
    0.6582    3.0388   -3.8260 H   0  0  0  0  0  0  0  0  0  0  0  0
   -1.4970    1.8148   -3.8720 H   0  0  0  0  0  0  0  0  0  0  0  0
   -1.8836   -0.0539   -2.3415 H   0  0  0  0  0  0  0  0  0  0  0  0
   -2.2575   -0.4426    1.0272 H   0  0  0  0  0  0  0  0  0  0  0  0
   -4.7321    0.6744    2.3787 H   0  0  0  0  0  0  0  0  0  0  0  0
   -5.1102    0.4832   -0.6092 H   0  0  0  0  0  0  0  0  0  0  0  0
   -6.4113    0.9995    0.5132 H   0  0  0  0  0  0  0  0  0  0  0  0
   -4.9588    2.9413    1.2312 H   0  0  0  0  0  0  0  0  0  0  0  0
   -5.3369    2.9843   -0.5034 H   0  0  0  0  0  0  0  0  0  0  0  0
   -3.0060    1.7803    0.5542 H   0  0  0  0  0  0  0  0  0  0  0  0
  1  2  1  0
  2  3  2  0
  3  4  1  0
  4  5  2  0
  5  6  1  0
  6  7  2  0
  7  8  1  0
  8  9  2  0
  9 10  1  0
 10 11  1  0
 11 12  2  0
 12 13  1  0
 13 14  2  0
 14 15  1  0
 15 16  2  0
 15 17  1  0
 17 18  1  0
 18 19  1  0
  9 20  1  0
 20 21  2  0
 21 22  1  0
 22 23  2  0
 23 24  1  0
 24 25  2  0
  5 26  1  0
 26 27  2  0
 27 28  1  0
 28 29  2  0
 28 30  2  0
 28 31  1  0
 31 32  1  0
 32 33  1  0
 33 34  1  0
 27  2  1  0
 25  6  1  0
 16 11  1  0
 25 20  1  0
 19 14  1  0
  1 35  1  0
  1 36  1  0
  1 37  1  0
  3 38  1  0
  4 39  1  0
 10 40  1  0
 12 41  1  0
 13 42  1  0
 16 43  1  0
 18 44  1  0
 18 45  1  0
 21 46  1  0
 22 47  1  0
 23 48  1  0
 24 49  1  0
 26 50  1  0
 31 51  1  0
 32 52  1  0
 32 53  1  0
 33 54  1  0
 33 55  1  0
 34 56  1  0
M  END
$$$$
