
     RDKit          3D

 39 41  0  0  0  0  0  0  0  0999 V2000
    5.4237   -0.2826    0.5343 C   0  0  0  0  0  0  0  0  0  0  0  0
    4.4887    0.8656    0.8704 C   0  0  0  0  0  0  0  0  0  0  0  0
    3.7821    1.3611   -0.3003 N   0  0  0  0  0  0  0  0  0  0  0  0
    4.3635    2.3484   -1.0211 N   0  0  0  0  0  0  0  0  0  0  0  0
    3.4991    2.5756   -2.0086 C   0  0  0  0  0  0  0  0  0  0  0  0
    2.3631    1.7669   -1.8973 C   0  0  0  0  0  0  0  0  0  0  0  0
    0.9694    1.7881   -3.1480 Br  0  0  0  0  0  0  0  0  0  0  0  0
    2.5352    0.9915   -0.7670 C   0  0  0  0  0  0  0  0  0  0  0  0
    1.7042   -0.0289   -0.1562 C   0  0  0  0  0  0  0  0  0  0  0  0
    2.2057   -0.9482    0.4788 O   0  0  0  0  0  0  0  0  0  0  0  0
    0.3493    0.1906   -0.3234 N   0  0  0  0  0  0  0  0  0  0  0  0
   -0.7056   -0.6088    0.0977 C   0  0  0  0  0  0  0  0  0  0  0  0
   -0.4110   -2.1746    0.7464 S   0  0  0  0  0  0  0  0  0  0  0  0
   -2.0409   -2.4470    0.9334 C   0  0  0  0  0  0  0  0  0  0  0  0
   -2.8236   -1.4060    0.5279 C   0  0  0  0  0  0  0  0  0  0  0  0
   -2.0702   -0.3040    0.0279 C   0  0  0  0  0  0  0  0  0  0  0  0
   -2.6630    0.9378   -0.4673 C   0  0  0  0  0  0  0  0  0  0  0  0
   -3.8731    1.1136   -0.5532 O   0  0  0  0  0  0  0  0  0  0  0  0
   -1.7344    1.8818   -0.8146 O   0  0  0  0  0  0  0  0  0  0  0  0
   -2.3041    3.1084   -1.2772 C   0  0  0  0  0  0  0  0  0  0  0  0
   -4.2646   -1.7182    0.7209 C   0  0  0  0  0  0  0  0  0  0  0  0
   -4.2116   -2.9856    1.6312 C   0  0  0  0  0  0  0  0  0  0  0  0
   -2.7941   -3.6102    1.4540 C   0  0  0  0  0  0  0  0  0  0  0  0
    5.9368   -0.6304    1.4361 H   0  0  0  0  0  0  0  0  0  0  0  0
    6.1833    0.0288   -0.1908 H   0  0  0  0  0  0  0  0  0  0  0  0
    4.8811   -1.1289    0.1016 H   0  0  0  0  0  0  0  0  0  0  0  0
    5.0587    1.7049    1.2864 H   0  0  0  0  0  0  0  0  0  0  0  0
    3.7544    0.5782    1.6282 H   0  0  0  0  0  0  0  0  0  0  0  0
    3.7434    3.3150   -2.7605 H   0  0  0  0  0  0  0  0  0  0  0  0
    0.0738    1.0638   -0.7615 H   0  0  0  0  0  0  0  0  0  0  0  0
   -1.4858    3.8016   -1.4907 H   0  0  0  0  0  0  0  0  0  0  0  0
   -2.9399    3.5539   -0.5056 H   0  0  0  0  0  0  0  0  0  0  0  0
   -2.8679    2.9427   -2.2004 H   0  0  0  0  0  0  0  0  0  0  0  0
   -4.8143   -0.9084    1.2084 H   0  0  0  0  0  0  0  0  0  0  0  0
   -4.7364   -1.9548   -0.2384 H   0  0  0  0  0  0  0  0  0  0  0  0
   -4.3368   -2.6771    2.6777 H   0  0  0  0  0  0  0  0  0  0  0  0
   -5.0115   -3.6962    1.4010 H   0  0  0  0  0  0  0  0  0  0  0  0
   -2.8204   -4.4191    0.7167 H   0  0  0  0  0  0  0  0  0  0  0  0
   -2.4065   -3.9895    2.4034 H   0  0  0  0  0  0  0  0  0  0  0  0
  1  2  1  0
  2  3  1  0
  3  4  1  0
  4  5  2  0
  5  6  1  0
  6  7  1  0
  6  8  2  0
  8  9  1  0
  9 10  2  0
  9 11  1  0
 11 12  1  0
 12 13  1  0
 13 14  1  0
 14 15  2  0
 15 16  1  0
 16 17  1  0
 17 18  2  0
 17 19  1  0
 19 20  1  0
 15 21  1  0
 21 22  1  0
 22 23  1  0
  8  3  1  0
 16 12  2  0
 23 14  1  0
  1 24  1  0
  1 25  1  0
  1 26  1  0
  2 27  1  0
  2 28  1  0
  5 29  1  0
 11 30  1  0
 20 31  1  0
 20 32  1  0
 20 33  1  0
 21 34  1  0
 21 35  1  0
 22 36  1  0
 22 37  1  0
 23 38  1  0
 23 39  1  0
M  END
$$$$
