
     RDKit          3D

 29 30  0  0  0  0  0  0  0  0999 V2000
    6.0208   -0.1171    0.4272 O   0  0  0  0  0  0  0  0  0  0  0  0
    5.0280    0.3777   -0.0911 C   0  0  0  0  0  0  0  0  0  0  0  0
    3.6778    0.2039    0.4799 C   0  0  0  0  0  0  0  0  0  0  0  0
    3.5045   -0.5101    1.6695 C   0  0  0  0  0  0  0  0  0  0  0  0
    2.2269   -0.6565    2.2110 C   0  0  0  0  0  0  0  0  0  0  0  0
    1.1243   -0.1003    1.5597 C   0  0  0  0  0  0  0  0  0  0  0  0
    1.3014    0.5888    0.3555 C   0  0  0  0  0  0  0  0  0  0  0  0
    0.2656    1.1881   -0.3260 O   0  0  0  0  0  0  0  0  0  0  0  0
   -0.8989    0.4722   -0.4693 C   0  0  0  0  0  0  0  0  0  0  0  0
   -0.8934   -0.8156   -1.0192 C   0  0  0  0  0  0  0  0  0  0  0  0
   -2.0935   -1.5195   -1.1750 C   0  0  0  0  0  0  0  0  0  0  0  0
   -3.3079   -0.9275   -0.7910 C   0  0  0  0  0  0  0  0  0  0  0  0
   -4.5635   -1.6727   -0.9557 N   0  0  0  0  0  4  0  0  0  0  0  0
   -5.6159   -1.0905   -0.6619 O   0  0  0  0  0  0  0  0  0  0  0  0
   -4.4910   -2.8344   -1.3776 O   0  0  0  0  0  1  0  0  0  0  0  0
   -3.3350    0.3675   -0.2603 C   0  0  0  0  0  0  0  0  0  0  0  0
   -2.1221    1.0538   -0.1221 C   0  0  0  0  0  0  0  0  0  0  0  0
   -2.1528    2.3953    0.4226 N   0  0  0  0  0  4  0  0  0  0  0  0
   -2.6417    2.5231    1.5525 O   0  0  0  0  0  0  0  0  0  0  0  0
   -1.7226    3.3097   -0.2907 O   0  0  0  0  0  1  0  0  0  0  0  0
    2.5796    0.7619   -0.1779 C   0  0  0  0  0  0  0  0  0  0  0  0
    5.1005    0.9753   -1.0153 H   0  0  0  0  0  0  0  0  0  0  0  0
    4.3632   -0.9413    2.1813 H   0  0  0  0  0  0  0  0  0  0  0  0
    2.0939   -1.1952    3.1466 H   0  0  0  0  0  0  0  0  0  0  0  0
    0.1409   -0.2007    2.0108 H   0  0  0  0  0  0  0  0  0  0  0  0
    0.0406   -1.2791   -1.3321 H   0  0  0  0  0  0  0  0  0  0  0  0
   -2.0646   -2.5229   -1.5991 H   0  0  0  0  0  0  0  0  0  0  0  0
   -4.2701    0.8398    0.0369 H   0  0  0  0  0  0  0  0  0  0  0  0
    2.7050    1.3266   -1.0978 H   0  0  0  0  0  0  0  0  0  0  0  0
  1  2  2  0
  2  3  1  0
  3  4  2  0
  4  5  1  0
  5  6  2  0
  6  7  1  0
  7  8  1  0
  8  9  1  0
  9 10  2  0
 10 11  1  0
 11 12  2  0
 12 13  1  0
 13 14  2  0
 13 15  1  0
 12 16  1  0
 16 17  2  0
 17 18  1  0
 18 19  2  0
 18 20  1  0
  7 21  2  0
 21  3  1  0
 17  9  1  0
  2 22  1  0
  4 23  1  0
  5 24  1  0
  6 25  1  0
 10 26  1  0
 11 27  1  0
 16 28  1  0
 21 29  1  0
M  CHG  4  13   1  15  -1  18   1  20  -1
M  END
$$$$
