
     RDKit          3D

 36 37  0  0  0  0  0  0  0  0999 V2000
   -2.1291   -0.3255    1.4108 O   0  0  0  0  0  0  0  0  0  0  0  0
   -1.2309    0.3888    0.9670 C   0  0  0  0  0  0  0  0  0  0  0  0
   -0.4830    1.4158    1.8195 C   0  0  0  0  0  0  0  0  0  0  0  0
    0.8185    1.7513    1.3280 O   0  0  0  0  0  0  0  0  0  0  0  0
    1.7742    0.8280    1.5982 C   0  0  0  0  0  0  0  0  0  0  0  0
    1.5901   -0.2477    2.1404 O   0  0  0  0  0  0  0  0  0  0  0  0
    3.1032    1.2861    1.1151 C   0  0  0  0  0  0  0  0  0  0  0  0
    4.1846    0.4018    1.2267 C   0  0  0  0  0  0  0  0  0  0  0  0
    5.4484    0.7905    0.7848 C   0  0  0  0  0  0  0  0  0  0  0  0
    6.7714   -0.3002    0.9223 Cl  0  0  0  0  0  0  0  0  0  0  0  0
    5.6508    2.0523    0.2324 C   0  0  0  0  0  0  0  0  0  0  0  0
    4.5747    2.9295    0.1256 C   0  0  0  0  0  0  0  0  0  0  0  0
    4.8144    4.4918   -0.5544 Cl  0  0  0  0  0  0  0  0  0  0  0  0
    3.3028    2.5579    0.5626 C   0  0  0  0  0  0  0  0  0  0  0  0
   -0.8827    0.3828   -0.3700 N   0  0  0  0  0  0  0  0  0  0  0  0
   -1.3937   -0.6509   -1.2519 C   0  0  0  0  0  0  0  0  0  0  0  0
   -2.9039   -0.5336   -1.5101 C   0  0  0  0  0  0  0  0  0  0  0  0
   -3.5431   -1.8316   -1.5646 N   0  0  0  0  0  0  0  0  0  0  0  0
   -4.1510   -2.4617   -0.5046 C   0  0  0  0  0  0  0  0  0  0  0  0
   -4.1987   -1.9065    0.7391 O   0  0  0  0  0  0  0  0  0  0  0  0
   -4.6849   -3.6503   -0.8005 C   0  0  0  0  0  0  0  0  0  0  0  0
   -4.4194   -4.0736   -2.4630 S   0  0  0  0  0  0  0  0  0  0  0  0
   -3.5428   -2.5612   -2.7458 C   0  0  0  0  0  0  0  0  0  0  0  0
   -3.0285   -2.2567   -3.8100 O   0  0  0  0  0  0  0  0  0  0  0  0
   -0.4227    1.0570    2.8537 H   0  0  0  0  0  0  0  0  0  0  0  0
   -1.0774    2.3355    1.8216 H   0  0  0  0  0  0  0  0  0  0  0  0
    4.0417   -0.5881    1.6580 H   0  0  0  0  0  0  0  0  0  0  0  0
    6.6386    2.3496   -0.1102 H   0  0  0  0  0  0  0  0  0  0  0  0
    2.4820    3.2653    0.4728 H   0  0  0  0  0  0  0  0  0  0  0  0
   -0.0297    0.8634   -0.6317 H   0  0  0  0  0  0  0  0  0  0  0  0
   -0.8441   -0.5776   -2.1965 H   0  0  0  0  0  0  0  0  0  0  0  0
   -1.1415   -1.6161   -0.7963 H   0  0  0  0  0  0  0  0  0  0  0  0
   -3.0522   -0.0323   -2.4752 H   0  0  0  0  0  0  0  0  0  0  0  0
   -3.4194    0.0909   -0.7725 H   0  0  0  0  0  0  0  0  0  0  0  0
   -3.4118   -1.3365    0.8794 H   0  0  0  0  0  0  0  0  0  0  0  0
   -5.2055   -4.2884   -0.1008 H   0  0  0  0  0  0  0  0  0  0  0  0
  1  2  2  0
  2  3  1  0
  3  4  1  0
  4  5  1  0
  5  6  2  0
  5  7  1  0
  7  8  2  0
  8  9  1  0
  9 10  1  0
  9 11  2  0
 11 12  1  0
 12 13  1  0
 12 14  2  0
  2 15  1  0
 15 16  1  0
 16 17  1  0
 17 18  1  0
 18 19  1  0
 19 20  1  0
 19 21  2  0
 21 22  1  0
 22 23  1  0
 23 24  2  0
 14  7  1  0
 23 18  1  0
  3 25  1  0
  3 26  1  0
  8 27  1  0
 11 28  1  0
 14 29  1  0
 15 30  1  0
 16 31  1  0
 16 32  1  0
 17 33  1  0
 17 34  1  0
 20 35  1  0
 21 36  1  0
M  END
$$$$
