
     RDKit          3D

 53 58  0  0  0  0  0  0  0  0999 V2000
   -1.1275    1.5784    0.9410 O   0  0  0  0  0  0  0  0  0  0  0  0
   -1.3897    0.9741   -0.0993 C   0  0  0  0  0  0  0  0  0  0  0  0
   -0.2663    0.6114   -1.0920 C   0  0  0  0  0  0  0  0  0  0  0  0
    1.0085    0.3532   -0.3987 N   0  0  0  0  0  4  0  0  0  0  0  0
    1.6584   -0.8715   -0.2621 C   0  0  0  0  0  0  0  0  0  0  0  0
    2.8114   -0.6879    0.4922 C   0  0  0  0  0  0  0  0  0  0  0  0
    3.8252   -1.8042    0.9414 C   0  0  0  0  0  0  0  0  0  0  0  0
    3.6418   -3.1300    0.5291 C   0  0  0  0  0  0  0  0  0  0  0  0
    4.5373   -4.1249    0.9374 C   0  0  0  0  0  0  0  0  0  0  0  0
    5.6201   -3.8073    1.7581 C   0  0  0  0  0  0  0  0  0  0  0  0
    6.6835   -5.0825    2.2174 Cl  0  0  0  0  0  0  0  0  0  0  0  0
    5.8021   -2.4850    2.1739 C   0  0  0  0  0  0  0  0  0  0  0  0
    7.1097   -2.0044    3.1913 Cl  0  0  0  0  0  0  0  0  0  0  0  0
    4.9044   -1.4885    1.7681 C   0  0  0  0  0  0  0  0  0  0  0  0
    2.8210    0.6743    0.7314 N   0  0  0  0  0  0  0  0  0  0  0  0
    1.7356    1.2668    0.2407 C   0  0  0  0  0  0  0  0  0  0  0  0
    1.7019    2.7268    0.4987 C   0  0  0  0  0  0  0  0  0  0  0  0
    3.1519    3.0075    0.9325 C   0  0  0  0  0  0  0  0  0  0  0  0
    3.7017    1.6310    1.3916 C   0  0  0  0  0  0  0  0  0  0  0  0
   -2.6709    0.6503   -0.5584 N   0  0  0  0  0  0  0  0  0  0  0  0
   -3.7129    1.6454   -0.6299 C   0  0  0  0  0  0  0  0  0  0  0  0
   -3.5838    2.8763    0.0454 C   0  0  0  0  0  0  0  0  0  0  0  0
   -4.5740    3.8617   -0.0117 C   0  0  0  0  0  0  0  0  0  0  0  0
   -5.7181    3.6507   -0.7629 C   0  0  0  0  0  0  0  0  0  0  0  0
   -5.8616    2.4588   -1.4641 C   0  0  0  0  0  0  0  0  0  0  0  0
   -4.8718    1.4627   -1.4056 C   0  0  0  0  0  0  0  0  0  0  0  0
   -5.1230    0.0492   -2.4500 S   0  0  0  0  0  0  0  0  0  0  0  0
   -4.0681   -1.1148   -1.6459 C   0  0  0  0  0  0  0  0  0  0  0  0
   -4.3185   -2.4755   -1.8868 C   0  0  0  0  0  0  0  0  0  0  0  0
   -3.5337   -3.4642   -1.2989 C   0  0  0  0  0  0  0  0  0  0  0  0
   -2.5010   -3.0993   -0.4506 C   0  0  0  0  0  0  0  0  0  0  0  0
   -2.2398   -1.7473   -0.2145 C   0  0  0  0  0  0  0  0  0  0  0  0
   -2.9994   -0.7270   -0.8286 C   0  0  0  0  0  0  0  0  0  0  0  0
   -0.5139   -0.2515   -1.7137 H   0  0  0  0  0  0  0  0  0  0  0  0
   -0.1162    1.4685   -1.7581 H   0  0  0  0  0  0  0  0  0  0  0  0
    1.2028   -1.7359   -0.7132 H   0  0  0  0  0  0  0  0  0  0  0  0
    2.8189   -3.4278   -0.1156 H   0  0  0  0  0  0  0  0  0  0  0  0
    4.3860   -5.1535    0.6109 H   0  0  0  0  0  0  0  0  0  0  0  0
    5.0684   -0.4790    2.1241 H   0  0  0  0  0  0  0  0  0  0  0  0
    0.9981    2.8958    1.3145 H   0  0  0  0  0  0  0  0  0  0  0  0
    1.4090    3.2447   -0.4143 H   0  0  0  0  0  0  0  0  0  0  0  0
    3.7254    3.3483    0.0631 H   0  0  0  0  0  0  0  0  0  0  0  0
    3.2248    3.7753    1.7078 H   0  0  0  0  0  0  0  0  0  0  0  0
    4.7357    1.4957    1.0699 H   0  0  0  0  0  0  0  0  0  0  0  0
    3.6067    1.5093    2.4746 H   0  0  0  0  0  0  0  0  0  0  0  0
   -2.7303    3.1056    0.6733 H   0  0  0  0  0  0  0  0  0  0  0  0
   -4.4518    4.7902    0.5419 H   0  0  0  0  0  0  0  0  0  0  0  0
   -6.4918    4.4119   -0.8106 H   0  0  0  0  0  0  0  0  0  0  0  0
   -6.7541    2.3154   -2.0704 H   0  0  0  0  0  0  0  0  0  0  0  0
   -5.1395   -2.7793   -2.5337 H   0  0  0  0  0  0  0  0  0  0  0  0
   -3.7516   -4.5139   -1.4854 H   0  0  0  0  0  0  0  0  0  0  0  0
   -1.9163   -3.8695    0.0470 H   0  0  0  0  0  0  0  0  0  0  0  0
   -1.4649   -1.5144    0.5114 H   0  0  0  0  0  0  0  0  0  0  0  0
  1  2  2  0
  2  3  1  0
  3  4  1  0
  4  5  1  0
  5  6  2  0
  6  7  1  0
  7  8  2  0
  8  9  1  0
  9 10  2  0
 10 11  1  0
 10 12  1  0
 12 13  1  0
 12 14  2  0
  6 15  1  0
 15 16  1  0
 16 17  1  0
 17 18  1  0
 18 19  1  0
  2 20  1  0
 20 21  1  0
 21 22  2  0
 22 23  1  0
 23 24  2  0
 24 25  1  0
 25 26  2  0
 26 27  1  0
 27 28  1  0
 28 29  2  0
 29 30  1  0
 30 31  2  0
 31 32  1  0
 32 33  2  0
 16  4  2  0
 33 20  1  0
 14  7  1  0
 19 15  1  0
 26 21  1  0
 33 28  1  0
  3 34  1  0
  3 35  1  0
  5 36  1  0
  8 37  1  0
  9 38  1  0
 14 39  1  0
 17 40  1  0
 17 41  1  0
 18 42  1  0
 18 43  1  0
 19 44  1  0
 19 45  1  0
 22 46  1  0
 23 47  1  0
 24 48  1  0
 25 49  1  0
 29 50  1  0
 30 51  1  0
 31 52  1  0
 32 53  1  0
M  CHG  1   4   1
M  END
$$$$
