
     RDKit          3D

 46 48  0  0  0  0  0  0  0  0999 V2000
   -4.7855   -1.7946   -2.8878 C   0  0  0  0  0  0  0  0  0  0  0  0
   -5.6574   -0.9494   -2.1517 O   0  0  0  0  0  0  0  0  0  0  0  0
   -5.2759   -0.5977   -0.8835 C   0  0  0  0  0  0  0  0  0  0  0  0
   -4.0451   -0.9133   -0.2992 C   0  0  0  0  0  0  0  0  0  0  0  0
   -3.7463   -0.4959    1.0071 C   0  0  0  0  0  0  0  0  0  0  0  0
   -2.4625   -0.8231    1.6318 C   0  0  0  0  0  0  0  0  0  0  0  0
   -1.2761   -0.4087    1.1657 C   0  0  0  0  0  0  0  0  0  0  0  0
   -0.9474    0.4576   -0.0108 C   0  0  0  0  0  0  0  0  0  0  0  0
    0.4479    1.0102    0.2783 C   0  0  0  0  0  0  0  0  0  0  0  0
    1.0669    0.0312    1.2277 C   0  0  0  0  0  0  0  0  0  0  0  0
    2.3552   -0.2113    1.5065 C   0  0  0  0  0  0  0  0  0  0  0  0
    3.4780    0.5091    0.9002 C   0  0  0  0  0  0  0  0  0  0  0  0
    3.6206    1.8942    1.0592 C   0  0  0  0  0  0  0  0  0  0  0  0
    4.7004    2.5592    0.4808 C   0  0  0  0  0  0  0  0  0  0  0  0
    5.6346    1.8324   -0.2452 C   0  0  0  0  0  0  0  0  0  0  0  0
    6.6849    2.5085   -0.8045 O   0  0  0  0  0  0  0  0  0  0  0  0
    5.5228    0.4469   -0.4074 C   0  0  0  0  0  0  0  0  0  0  0  0
    6.5238   -0.1313   -1.1454 O   0  0  0  0  0  0  0  0  0  0  0  0
    6.4495   -1.5409   -1.3268 C   0  0  0  0  0  0  0  0  0  0  0  0
    4.4391   -0.2131    0.1739 C   0  0  0  0  0  0  0  0  0  0  0  0
   -0.0142   -0.7639    1.8614 C   0  0  0  0  0  0  0  0  0  0  0  0
    0.1110   -1.5587    2.7732 O   0  0  0  0  0  0  0  0  0  0  0  0
   -4.6959    0.2243    1.7384 C   0  0  0  0  0  0  0  0  0  0  0  0
   -5.9262    0.5473    1.1658 C   0  0  0  0  0  0  0  0  0  0  0  0
   -6.2070    0.1396   -0.1381 C   0  0  0  0  0  0  0  0  0  0  0  0
   -7.4138    0.4575   -0.7026 O   0  0  0  0  0  0  0  0  0  0  0  0
   -5.2652   -2.0179   -3.8458 H   0  0  0  0  0  0  0  0  0  0  0  0
   -4.6218   -2.7451   -2.3690 H   0  0  0  0  0  0  0  0  0  0  0  0
   -3.8367   -1.2912   -3.1010 H   0  0  0  0  0  0  0  0  0  0  0  0
   -3.3016   -1.4884   -0.8409 H   0  0  0  0  0  0  0  0  0  0  0  0
   -2.5177   -1.4276    2.5363 H   0  0  0  0  0  0  0  0  0  0  0  0
   -0.9268   -0.1512   -0.9226 H   0  0  0  0  0  0  0  0  0  0  0  0
   -1.6642    1.2726   -0.1533 H   0  0  0  0  0  0  0  0  0  0  0  0
    0.3685    1.9916    0.7610 H   0  0  0  0  0  0  0  0  0  0  0  0
    1.0184    1.1241   -0.6490 H   0  0  0  0  0  0  0  0  0  0  0  0
    2.6248   -0.9992    2.2087 H   0  0  0  0  0  0  0  0  0  0  0  0
    2.8990    2.4632    1.6406 H   0  0  0  0  0  0  0  0  0  0  0  0
    4.8169    3.6324    0.5983 H   0  0  0  0  0  0  0  0  0  0  0  0
    7.2168    1.8218   -1.2517 H   0  0  0  0  0  0  0  0  0  0  0  0
    7.3112   -1.8458   -1.9281 H   0  0  0  0  0  0  0  0  0  0  0  0
    5.5445   -1.8204   -1.8765 H   0  0  0  0  0  0  0  0  0  0  0  0
    6.5098   -2.0663   -0.3677 H   0  0  0  0  0  0  0  0  0  0  0  0
    4.3137   -1.2864    0.0735 H   0  0  0  0  0  0  0  0  0  0  0  0
   -4.4810    0.5443    2.7558 H   0  0  0  0  0  0  0  0  0  0  0  0
   -6.6485    1.1122    1.7465 H   0  0  0  0  0  0  0  0  0  0  0  0
   -7.9416    0.9611   -0.0642 H   0  0  0  0  0  0  0  0  0  0  0  0
  1  2  1  0
  2  3  1  0
  3  4  2  0
  4  5  1  0
  5  6  1  0
  6  7  2  3
  7  8  1  0
  8  9  1  0
  9 10  1  0
 10 11  2  3
 11 12  1  0
 12 13  2  0
 13 14  1  0
 14 15  2  0
 15 16  1  0
 15 17  1  0
 17 18  1  0
 18 19  1  0
 17 20  2  0
 10 21  1  0
 21 22  2  0
  5 23  2  0
 23 24  1  0
 24 25  2  0
 25 26  1  0
 25  3  1  0
 21  7  1  0
 20 12  1  0
  1 27  1  0
  1 28  1  0
  1 29  1  0
  4 30  1  0
  6 31  1  0
  8 32  1  0
  8 33  1  0
  9 34  1  0
  9 35  1  0
 11 36  1  0
 13 37  1  0
 14 38  1  0
 16 39  1  0
 19 40  1  0
 19 41  1  0
 19 42  1  0
 20 43  1  0
 23 44  1  0
 24 45  1  0
 26 46  1  0
M  END
$$$$
