
     RDKit          3D

 46 48  0  0  0  0  0  0  0  0999 V2000
    1.8672    2.5049    2.8328 O   0  0  0  0  0  0  0  0  0  0  0  0
    1.2957    2.1929    1.7877 C   0  0  0  0  0  0  0  0  0  0  0  0
   -0.2134    2.0078    1.6855 C   0  0  0  0  0  0  0  0  0  0  0  0
   -0.5123    1.0686    0.6583 O   0  0  0  0  0  0  0  0  0  0  0  0
   -1.8189    0.6891    0.5354 C   0  0  0  0  0  0  0  0  0  0  0  0
   -2.9162    1.3491    1.0875 C   0  0  0  0  0  0  0  0  0  0  0  0
   -4.2113    0.8615    0.8682 C   0  0  0  0  0  0  0  0  0  0  0  0
   -4.4339   -0.2932    0.0995 C   0  0  0  0  0  0  0  0  0  0  0  0
   -5.7936   -0.8004   -0.1322 C   0  0  0  0  0  0  0  0  0  0  0  0
   -6.7628   -0.0042   -0.7654 C   0  0  0  0  0  0  0  0  0  0  0  0
   -8.0513   -0.4918   -0.9995 C   0  0  0  0  0  0  0  0  0  0  0  0
   -8.3918   -1.7814   -0.5993 C   0  0  0  0  0  0  0  0  0  0  0  0
   -7.4464   -2.5846    0.0354 C   0  0  0  0  0  0  0  0  0  0  0  0
   -6.1572   -2.0975    0.2657 C   0  0  0  0  0  0  0  0  0  0  0  0
   -3.3198   -0.9435   -0.4504 C   0  0  0  0  0  0  0  0  0  0  0  0
   -2.0275   -0.4537   -0.2392 C   0  0  0  0  0  0  0  0  0  0  0  0
    1.9685    2.0433    0.5894 N   0  0  0  0  0  0  0  0  0  0  0  0
    3.3821    1.9903    0.6531 N   0  0  0  0  0  0  0  0  0  0  0  0
    3.9879    1.0060   -0.1195 C   0  0  0  0  0  0  0  0  0  0  0  0
    3.3510    0.3377   -0.9252 O   0  0  0  0  0  0  0  0  0  0  0  0
    5.3480    0.9707    0.1099 N   0  0  0  0  0  0  0  0  0  0  0  0
    6.2609    0.0385   -0.4277 C   0  0  0  0  0  0  0  0  0  0  0  0
    7.6018    0.4415   -0.5141 C   0  0  0  0  0  0  0  0  0  0  0  0
    8.5683   -0.4192   -1.0418 C   0  0  0  0  0  0  0  0  0  0  0  0
    8.1988   -1.6896   -1.4659 C   0  0  0  0  0  0  0  0  0  0  0  0
    9.1294   -2.5127   -1.9649 F   0  0  0  0  0  0  0  0  0  0  0  0
    6.8853   -2.1198   -1.3668 C   0  0  0  0  0  0  0  0  0  0  0  0
    5.9250   -1.2607   -0.8383 C   0  0  0  0  0  0  0  0  0  0  0  0
    4.6912   -1.7535   -0.6699 F   0  0  0  0  0  0  0  0  0  0  0  0
   -0.5679    1.6368    2.6531 H   0  0  0  0  0  0  0  0  0  0  0  0
   -0.6474    2.9873    1.4551 H   0  0  0  0  0  0  0  0  0  0  0  0
   -2.8068    2.2519    1.6802 H   0  0  0  0  0  0  0  0  0  0  0  0
   -5.0543    1.3899    1.3092 H   0  0  0  0  0  0  0  0  0  0  0  0
   -6.5132    1.0036   -1.0954 H   0  0  0  0  0  0  0  0  0  0  0  0
   -8.7858    0.1354   -1.4994 H   0  0  0  0  0  0  0  0  0  0  0  0
   -9.3929   -2.1622   -0.7827 H   0  0  0  0  0  0  0  0  0  0  0  0
   -7.7112   -3.5893    0.3538 H   0  0  0  0  0  0  0  0  0  0  0  0
   -5.4335   -2.7373    0.7678 H   0  0  0  0  0  0  0  0  0  0  0  0
   -3.4529   -1.8357   -1.0591 H   0  0  0  0  0  0  0  0  0  0  0  0
   -1.1797   -0.9724   -0.6813 H   0  0  0  0  0  0  0  0  0  0  0  0
    1.5444    1.4379   -0.1207 H   0  0  0  0  0  0  0  0  0  0  0  0
    3.7431    2.1147    1.5984 H   0  0  0  0  0  0  0  0  0  0  0  0
    5.7293    1.8409    0.4533 H   0  0  0  0  0  0  0  0  0  0  0  0
    7.9089    1.4329   -0.1911 H   0  0  0  0  0  0  0  0  0  0  0  0
    9.6052   -0.1079   -1.1262 H   0  0  0  0  0  0  0  0  0  0  0  0
    6.6101   -3.1229   -1.6703 H   0  0  0  0  0  0  0  0  0  0  0  0
  1  2  2  0
  2  3  1  0
  3  4  1  0
  4  5  1  0
  5  6  2  0
  6  7  1  0
  7  8  2  0
  8  9  1  0
  9 10  2  0
 10 11  1  0
 11 12  2  0
 12 13  1  0
 13 14  2  0
  8 15  1  0
 15 16  2  0
  2 17  1  0
 17 18  1  0
 18 19  1  0
 19 20  2  0
 19 21  1  0
 21 22  1  0
 22 23  2  0
 23 24  1  0
 24 25  2  0
 25 26  1  0
 25 27  1  0
 27 28  2  0
 28 29  1  0
 16  5  1  0
 28 22  1  0
 14  9  1  0
  3 30  1  0
  3 31  1  0
  6 32  1  0
  7 33  1  0
 10 34  1  0
 11 35  1  0
 12 36  1  0
 13 37  1  0
 14 38  1  0
 15 39  1  0
 16 40  1  0
 17 41  1  0
 18 42  1  0
 21 43  1  0
 23 44  1  0
 24 45  1  0
 27 46  1  0
M  END
$$$$
