
     RDKit          3D

 67 72  0  0  0  0  0  0  0  0999 V2000
    4.0775   -1.1473    0.0183 O   0  0  0  0  0  0  0  0  0  0  0  0
    2.9840   -1.1286    0.5887 C   0  0  0  0  0  0  0  0  0  0  0  0
    2.8980   -1.2054    2.1251 C   0  0  0  0  0  0  0  0  0  0  0  0
    2.8260    0.2061    2.7435 C   0  0  0  0  0  0  0  0  0  0  0  0
    4.1884    0.8385    2.9175 C   0  0  0  0  0  0  0  0  0  0  0  0
    4.7976    1.5216    1.8564 C   0  0  0  0  0  0  0  0  0  0  0  0
    6.0702    2.0763    2.0092 C   0  0  0  0  0  0  0  0  0  0  0  0
    6.7423    1.9605    3.2241 C   0  0  0  0  0  0  0  0  0  0  0  0
    6.1460    1.2844    4.2873 C   0  0  0  0  0  0  0  0  0  0  0  0
    4.8739    0.7258    4.1357 C   0  0  0  0  0  0  0  0  0  0  0  0
    1.7438   -2.0192    2.5204 N   0  0  0  0  0  0  0  0  0  0  0  0
    0.5442   -1.6616    1.9108 C   0  0  0  0  0  0  0  0  0  0  0  0
   -0.5469   -1.9129    2.6469 N   0  0  0  0  0  0  0  0  0  0  0  0
   -1.7106   -1.6476    2.0605 C   0  0  0  0  0  0  0  0  0  0  0  0
   -1.8722   -1.1089    0.8486 N   0  0  0  0  0  0  0  0  0  0  0  0
   -0.7653   -0.8204    0.1318 C   0  0  0  0  0  0  0  0  0  0  0  0
   -0.9548   -0.1064   -1.0653 N   0  0  0  0  0  0  0  0  0  0  0  0
   -0.9029    1.3631   -0.8498 C   0  0  0  0  0  0  0  0  0  0  0  0
   -2.2302    1.9494   -0.3145 C   0  0  0  0  0  0  0  0  0  0  0  0
   -3.3522    1.5986   -1.2142 N   0  0  0  0  0  0  0  0  0  0  0  0
   -4.5927    2.2234   -0.9855 C   0  0  0  0  0  0  0  0  0  0  0  0
   -5.5648    2.2025   -2.0013 C   0  0  0  0  0  0  0  0  0  0  0  0
   -6.8241    2.7870   -1.8290 C   0  0  0  0  0  0  0  0  0  0  0  0
   -7.1382    3.4163   -0.6303 C   0  0  0  0  0  0  0  0  0  0  0  0
   -6.1859    3.4780    0.3839 C   0  0  0  0  0  0  0  0  0  0  0  0
   -4.9261    2.8915    0.2039 C   0  0  0  0  0  0  0  0  0  0  0  0
   -3.4854    0.1254   -1.3821 C   0  0  0  0  0  0  0  0  0  0  0  0
   -2.1540   -0.5157   -1.8416 C   0  0  0  0  0  0  0  0  0  0  0  0
    0.5170   -1.1274    0.6139 C   0  0  0  0  0  0  0  0  0  0  0  0
    1.7691   -0.9647   -0.0915 N   0  0  0  0  0  0  0  0  0  0  0  0
    1.8213   -0.8634   -1.5491 C   0  0  0  0  0  0  0  0  0  0  0  0
    1.3478   -2.0951   -2.2981 C   0  0  0  0  0  0  0  0  0  0  0  0
    0.6418   -1.9406   -3.5034 C   0  0  0  0  0  0  0  0  0  0  0  0
    0.2155   -3.0556   -4.2301 C   0  0  0  0  0  0  0  0  0  0  0  0
    0.5089   -4.3353   -3.7643 C   0  0  0  0  0  0  0  0  0  0  0  0
   -0.0711   -5.8462   -4.7440 Br  0  0  0  0  0  0  0  0  0  0  0  0
    1.2325   -4.5097   -2.5876 C   0  0  0  0  0  0  0  0  0  0  0  0
    1.6566   -3.3935   -1.8605 C   0  0  0  0  0  0  0  0  0  0  0  0
    3.7913   -1.7404    2.4729 H   0  0  0  0  0  0  0  0  0  0  0  0
    2.3341    0.1698    3.7242 H   0  0  0  0  0  0  0  0  0  0  0  0
    2.2051    0.8750    2.1343 H   0  0  0  0  0  0  0  0  0  0  0  0
    4.2962    1.6153    0.8944 H   0  0  0  0  0  0  0  0  0  0  0  0
    6.5381    2.5972    1.1760 H   0  0  0  0  0  0  0  0  0  0  0  0
    7.7361    2.3879    3.3368 H   0  0  0  0  0  0  0  0  0  0  0  0
    6.6700    1.1921    5.2362 H   0  0  0  0  0  0  0  0  0  0  0  0
    4.4299    0.1976    4.9755 H   0  0  0  0  0  0  0  0  0  0  0  0
    1.5969   -2.1902    3.5097 H   0  0  0  0  0  0  0  0  0  0  0  0
   -2.6097   -1.8763    2.6216 H   0  0  0  0  0  0  0  0  0  0  0  0
   -0.6792    1.8242   -1.8203 H   0  0  0  0  0  0  0  0  0  0  0  0
   -0.0748    1.6359   -0.1822 H   0  0  0  0  0  0  0  0  0  0  0  0
   -2.4167    1.5762    0.6998 H   0  0  0  0  0  0  0  0  0  0  0  0
   -2.1183    3.0387   -0.2629 H   0  0  0  0  0  0  0  0  0  0  0  0
   -5.3351    1.7414   -2.9580 H   0  0  0  0  0  0  0  0  0  0  0  0
   -7.5552    2.7413   -2.6337 H   0  0  0  0  0  0  0  0  0  0  0  0
   -8.1174    3.8679   -0.4885 H   0  0  0  0  0  0  0  0  0  0  0  0
   -6.4233    3.9714    1.3223 H   0  0  0  0  0  0  0  0  0  0  0  0
   -4.2245    2.9550    1.0312 H   0  0  0  0  0  0  0  0  0  0  0  0
   -4.2376   -0.1216   -2.1408 H   0  0  0  0  0  0  0  0  0  0  0  0
   -3.8325   -0.3179   -0.4425 H   0  0  0  0  0  0  0  0  0  0  0  0
   -2.2479   -1.6084   -1.8620 H   0  0  0  0  0  0  0  0  0  0  0  0
   -1.9788   -0.2084   -2.8811 H   0  0  0  0  0  0  0  0  0  0  0  0
    2.8548   -0.6909   -1.8741 H   0  0  0  0  0  0  0  0  0  0  0  0
    1.2947    0.0406   -1.8646 H   0  0  0  0  0  0  0  0  0  0  0  0
    0.4099   -0.9446   -3.8773 H   0  0  0  0  0  0  0  0  0  0  0  0
   -0.3398   -2.9158   -5.1530 H   0  0  0  0  0  0  0  0  0  0  0  0
    1.4760   -5.5063   -2.2284 H   0  0  0  0  0  0  0  0  0  0  0  0
    2.2329   -3.5497   -0.9499 H   0  0  0  0  0  0  0  0  0  0  0  0
  1  2  2  0
  2  3  1  0
  3  4  1  0
  4  5  1  0
  5  6  2  0
  6  7  1  0
  7  8  2  0
  8  9  1  0
  9 10  2  0
  3 11  1  0
 11 12  1  0
 12 13  2  0
 13 14  1  0
 14 15  2  0
 15 16  1  0
 16 17  1  0
 17 18  1  0
 18 19  1  0
 19 20  1  0
 20 21  1  0
 21 22  2  0
 22 23  1  0
 23 24  2  0
 24 25  1  0
 25 26  2  0
 20 27  1  0
 27 28  1  0
 16 29  2  0
 29 30  1  0
 30 31  1  0
 31 32  1  0
 32 33  2  0
 33 34  1  0
 34 35  2  0
 35 36  1  0
 35 37  1  0
 37 38  2  0
 30  2  1  0
 38 32  1  0
 10  5  1  0
 29 12  1  0
 28 17  1  0
 26 21  1  0
  3 39  1  0
  4 40  1  0
  4 41  1  0
  6 42  1  0
  7 43  1  0
  8 44  1  0
  9 45  1  0
 10 46  1  0
 11 47  1  0
 14 48  1  0
 18 49  1  0
 18 50  1  0
 19 51  1  0
 19 52  1  0
 22 53  1  0
 23 54  1  0
 24 55  1  0
 25 56  1  0
 26 57  1  0
 27 58  1  0
 27 59  1  0
 28 60  1  0
 28 61  1  0
 31 62  1  0
 31 63  1  0
 33 64  1  0
 34 65  1  0
 37 66  1  0
 38 67  1  0
M  END
$$$$
