
     RDKit          3D

 40 42  0  0  0  0  0  0  0  0999 V2000
    4.5831   -1.0500    0.3525 N   0  0  0  0  0  0  0  0  0  0  0  0
    3.4728   -0.5689    1.1667 C   0  0  0  0  0  0  0  0  0  0  0  0
    2.1175   -0.8114    0.4986 C   0  0  0  0  0  0  0  0  0  0  0  0
    1.9342   -0.0340   -0.8078 C   0  0  0  0  0  0  0  0  0  0  0  0
    0.5634   -0.2360   -1.4780 C   0  0  0  0  0  0  0  0  0  0  0  0
   -0.5485    0.4076   -0.7329 N   0  0  0  0  0  0  0  0  0  0  0  0
   -0.7356    1.8120   -0.9545 C   0  0  0  0  0  0  0  0  0  0  0  0
    0.1271    2.5770   -1.7778 C   0  0  0  0  0  0  0  0  0  0  0  0
   -0.0455    3.9503   -1.9988 C   0  0  0  0  0  0  0  0  0  0  0  0
   -1.0964    4.6196   -1.4007 C   0  0  0  0  0  0  0  0  0  0  0  0
   -1.9668    3.9086   -0.5857 C   0  0  0  0  0  0  0  0  0  0  0  0
   -1.7965    2.5254   -0.3607 C   0  0  0  0  0  0  0  0  0  0  0  0
   -3.0129    1.7948    0.7011 S   0  0  0  0  0  0  0  0  0  0  0  0
   -2.5049    0.0973    0.7607 C   0  0  0  0  0  0  0  0  0  0  0  0
   -3.3221   -0.7273    1.5627 C   0  0  0  0  0  0  0  0  0  0  0  0
   -3.0521   -2.0807    1.7186 C   0  0  0  0  0  0  0  0  0  0  0  0
   -1.9551   -2.6349    1.0696 C   0  0  0  0  0  0  0  0  0  0  0  0
   -1.6094   -4.0940    1.2394 C   0  0  0  0  0  0  0  0  0  0  0  0
   -2.6693   -4.8593    1.6221 F   0  0  0  0  0  0  0  0  0  0  0  0
   -1.1358   -4.6620    0.0952 F   0  0  0  0  0  0  0  0  0  0  0  0
   -0.6460   -4.2901    2.1808 F   0  0  0  0  0  0  0  0  0  0  0  0
   -1.1395   -1.8005    0.2748 C   0  0  0  0  0  0  0  0  0  0  0  0
   -1.3823   -0.4188    0.0816 C   0  0  0  0  0  0  0  0  0  0  0  0
    5.4494   -0.9553    0.8827 H   0  0  0  0  0  0  0  0  0  0  0  0
    4.6954   -0.4530   -0.4653 H   0  0  0  0  0  0  0  0  0  0  0  0
    3.4908   -1.0976    2.1261 H   0  0  0  0  0  0  0  0  0  0  0  0
    3.6077    0.4972    1.3802 H   0  0  0  0  0  0  0  0  0  0  0  0
    1.9939   -1.8846    0.3105 H   0  0  0  0  0  0  0  0  0  0  0  0
    1.3418   -0.5156    1.2135 H   0  0  0  0  0  0  0  0  0  0  0  0
    2.1194    1.0273   -0.6111 H   0  0  0  0  0  0  0  0  0  0  0  0
    2.6965   -0.3552   -1.5276 H   0  0  0  0  0  0  0  0  0  0  0  0
    0.3989   -1.2991   -1.6739 H   0  0  0  0  0  0  0  0  0  0  0  0
    0.5996    0.1525   -2.5039 H   0  0  0  0  0  0  0  0  0  0  0  0
    0.9805    2.1377   -2.2827 H   0  0  0  0  0  0  0  0  0  0  0  0
    0.6485    4.4874   -2.6405 H   0  0  0  0  0  0  0  0  0  0  0  0
   -1.2412    5.6834   -1.5643 H   0  0  0  0  0  0  0  0  0  0  0  0
   -2.7932    4.4417   -0.1188 H   0  0  0  0  0  0  0  0  0  0  0  0
   -4.1845   -0.3070    2.0786 H   0  0  0  0  0  0  0  0  0  0  0  0
   -3.6978   -2.6907    2.3473 H   0  0  0  0  0  0  0  0  0  0  0  0
   -0.2854   -2.2938   -0.1778 H   0  0  0  0  0  0  0  0  0  0  0  0
  1  2  1  0
  2  3  1  0
  3  4  1  0
  4  5  1  0
  5  6  1  0
  6  7  1  0
  7  8  2  0
  8  9  1  0
  9 10  2  0
 10 11  1  0
 11 12  2  0
 12 13  1  0
 13 14  1  0
 14 15  2  0
 15 16  1  0
 16 17  2  0
 17 18  1  0
 18 19  1  0
 18 20  1  0
 18 21  1  0
 17 22  1  0
 22 23  2  0
 23  6  1  0
 12  7  1  0
 23 14  1  0
  1 24  1  0
  1 25  1  0
  2 26  1  0
  2 27  1  0
  3 28  1  0
  3 29  1  0
  4 30  1  0
  4 31  1  0
  5 32  1  0
  5 33  1  0
  8 34  1  0
  9 35  1  0
 10 36  1  0
 11 37  1  0
 15 38  1  0
 16 39  1  0
 22 40  1  0
M  END
$$$$
