
     RDKit          3D

 98102  0  0  0  0  0  0  0  0999 V2000
    8.3142   -0.6910    2.0425 C   0  0  0  0  0  0  0  0  0  0  0  0
    9.0062   -0.2616    0.7740 C   0  0  0  0  0  0  0  0  0  0  0  0
   10.2326    0.5856    0.9943 C   0  0  0  0  0  0  0  0  0  0  0  0
    8.6264   -0.6016   -0.4743 C   0  0  0  0  0  0  0  0  0  0  0  0
    7.4484   -1.4086   -0.8547 C   0  0  0  0  0  0  0  0  0  0  0  0
    7.4982   -2.2912   -1.6962 O   0  0  0  0  0  0  0  0  0  0  0  0
    6.3431   -0.9557   -0.2189 O   0  0  0  0  0  0  0  0  0  0  0  0
    5.1295   -1.6450   -0.5420 C   0  0  0  0  0  0  0  0  0  0  0  0
    4.0113   -0.6502   -0.3830 C   0  0  0  0  0  0  0  0  0  0  0  0
    3.1378   -0.6920    0.6376 C   0  0  0  0  0  0  0  0  0  0  0  0
    2.0117    0.2995    0.7784 C   0  0  0  0  0  0  0  0  0  0  0  0
    0.7254   -0.2867    0.1998 C   0  0  0  0  0  0  0  0  0  0  0  0
    0.3491   -0.1786   -0.9587 O   0  0  0  0  0  0  0  0  0  0  0  0
    0.0622   -0.9511    1.1915 O   0  0  0  0  0  0  0  0  0  0  0  0
   -1.2937   -1.4172    1.0044 C   0  0  1  0  0  0  0  0  0  0  0  0
   -2.2708   -0.2451    0.9352 C   0  0  0  0  0  0  0  0  0  0  0  0
   -3.6913   -0.7903    0.8219 C   0  0  1  0  0  0  0  0  0  0  0  0
   -4.7821    0.2993    0.7658 C   0  0  0  0  0  0  0  0  0  0  0  0
   -4.4939    1.4415   -0.1750 C   0  0  0  0  0  0  0  0  0  0  0  0
   -4.6065    2.7582    0.1025 C   0  0  0  0  0  0  0  0  0  0  0  0
   -5.1633    3.2863    1.3945 C   0  0  0  0  0  0  0  0  0  0  0  0
   -4.2189    3.7958   -0.9397 C   0  0  0  0  0  0  0  0  0  0  0  0
   -2.9395    4.6288   -0.6641 C   0  0  1  0  0  0  0  0  0  0  0  0
   -3.1851    5.7378    0.3671 C   0  0  0  0  0  0  0  0  0  0  0  0
   -1.7343    3.7461   -0.3921 C   0  0  0  0  0  0  0  0  0  0  0  0
   -0.8180    3.9026    0.5768 C   0  0  0  0  0  0  0  0  0  0  0  0
    0.3113    3.0308    0.8151 C   0  0  0  0  0  0  0  0  0  0  0  0
    1.2104    2.5907   -0.0870 C   0  0  0  0  0  0  0  0  0  0  0  0
    1.2165    2.8728   -1.5550 C   0  0  0  0  0  0  0  0  0  0  0  0
    2.2102    2.0165   -2.1373 O   0  0  0  0  0  0  0  0  0  0  0  0
    3.1873    1.7047   -1.1088 C   0  0  2  0  0  0  0  0  0  0  0  0
    4.2541    2.8231   -1.1564 C   0  0  0  0  0  0  0  0  0  0  0  0
    3.8651    0.3533   -1.4940 C   0  0  2  0  0  0  0  0  0  0  0  0
    3.1232   -0.3281   -2.5148 O   0  0  0  0  0  0  0  0  0  0  0  0
    2.3891    1.6953    0.2283 C   0  0  2  0  0  0  0  0  0  0  0  0
    3.1342    2.3668    1.2726 O   0  0  0  0  0  0  0  0  0  0  0  0
   -3.8028   -1.6358   -0.3315 O   0  0  0  0  0  0  0  0  0  0  0  0
   -2.9705   -2.8023   -0.2682 C   0  0  2  0  0  0  0  0  0  0  0  0
   -3.1612   -3.6106   -1.5597 C   0  0  0  0  0  0  0  0  0  0  0  0
   -4.5663   -4.1963   -1.6553 C   0  0  0  0  0  0  0  0  0  0  0  0
   -4.9003   -4.9947   -0.3907 C   0  0  2  0  0  0  0  0  0  0  0  0
   -6.3318   -5.5194   -0.4738 C   0  0  0  0  0  0  0  0  0  0  0  0
   -4.6445   -4.1220    0.8506 C   0  0  1  0  0  0  0  0  0  0  0  0
   -4.8225   -4.8850    2.1614 C   0  0  0  0  0  0  0  0  0  0  0  0
   -3.2951   -3.6305    0.8541 O   0  0  0  0  0  0  0  0  0  0  0  0
   -1.4925   -2.3912   -0.1552 C   0  0  0  0  0  0  0  0  0  0  0  0
    9.0427   -1.1367    2.7279 H   0  0  0  0  0  0  0  0  0  0  0  0
    7.8630    0.1732    2.5371 H   0  0  0  0  0  0  0  0  0  0  0  0
    7.5362   -1.4409    1.8797 H   0  0  0  0  0  0  0  0  0  0  0  0
   10.6838    0.9186    0.0520 H   0  0  0  0  0  0  0  0  0  0  0  0
    9.9725    1.4811    1.5698 H   0  0  0  0  0  0  0  0  0  0  0  0
   10.9903    0.0191    1.5475 H   0  0  0  0  0  0  0  0  0  0  0  0
    9.2305   -0.3221   -1.3331 H   0  0  0  0  0  0  0  0  0  0  0  0
    5.0227   -2.4798    0.1580 H   0  0  0  0  0  0  0  0  0  0  0  0
    5.1301   -2.0453   -1.5625 H   0  0  0  0  0  0  0  0  0  0  0  0
    3.2104   -1.4670    1.3981 H   0  0  0  0  0  0  0  0  0  0  0  0
    1.8412    0.4273    1.8582 H   0  0  0  0  0  0  0  0  0  0  0  0
   -1.5092   -1.9658    1.9302 H   0  0  0  0  0  0  0  0  0  0  0  0
   -2.1617    0.3916    1.8213 H   0  0  0  0  0  0  0  0  0  0  0  0
   -2.0183    0.3730    0.0658 H   0  0  0  0  0  0  0  0  0  0  0  0
   -3.9163   -1.3948    1.7106 H   0  0  0  0  0  0  0  0  0  0  0  0
   -4.9168    0.6701    1.7850 H   0  0  0  0  0  0  0  0  0  0  0  0
   -5.7296   -0.1543    0.4544 H   0  0  0  0  0  0  0  0  0  0  0  0
   -4.1324    1.1347   -1.1577 H   0  0  0  0  0  0  0  0  0  0  0  0
   -4.3669    3.4341    2.1255 H   0  0  0  0  0  0  0  0  0  0  0  0
   -5.9110    2.6123    1.8221 H   0  0  0  0  0  0  0  0  0  0  0  0
   -5.6777    4.2410    1.2379 H   0  0  0  0  0  0  0  0  0  0  0  0
   -5.0702    4.4719   -1.0969 H   0  0  0  0  0  0  0  0  0  0  0  0
   -4.0859    3.2941   -1.9098 H   0  0  0  0  0  0  0  0  0  0  0  0
   -2.7164    5.1457   -1.6075 H   0  0  0  0  0  0  0  0  0  0  0  0
   -3.3082    5.3410    1.3796 H   0  0  0  0  0  0  0  0  0  0  0  0
   -2.3455    6.4422    0.3849 H   0  0  0  0  0  0  0  0  0  0  0  0
   -4.0840    6.3096    0.1169 H   0  0  0  0  0  0  0  0  0  0  0  0
   -1.6370    2.9062   -1.0770 H   0  0  0  0  0  0  0  0  0  0  0  0
   -0.9151    4.7054    1.3056 H   0  0  0  0  0  0  0  0  0  0  0  0
    0.4626    2.7814    1.8659 H   0  0  0  0  0  0  0  0  0  0  0  0
    1.4937    3.9110   -1.7624 H   0  0  0  0  0  0  0  0  0  0  0  0
    0.2727    2.6333   -2.0468 H   0  0  0  0  0  0  0  0  0  0  0  0
    5.0768    2.6265   -0.4576 H   0  0  0  0  0  0  0  0  0  0  0  0
    3.8267    3.8044   -0.9189 H   0  0  0  0  0  0  0  0  0  0  0  0
    4.6758    2.9132   -2.1661 H   0  0  0  0  0  0  0  0  0  0  0  0
    4.8499    0.5582   -1.9291 H   0  0  0  0  0  0  0  0  0  0  0  0
    2.3936    0.2795   -2.7614 H   0  0  0  0  0  0  0  0  0  0  0  0
    3.9177    1.8246    1.4743 H   0  0  0  0  0  0  0  0  0  0  0  0
   -2.4441   -4.4406   -1.5889 H   0  0  0  0  0  0  0  0  0  0  0  0
   -2.9803   -2.9818   -2.4385 H   0  0  0  0  0  0  0  0  0  0  0  0
   -4.6328   -4.8386   -2.5424 H   0  0  0  0  0  0  0  0  0  0  0  0
   -5.2931   -3.3856   -1.7962 H   0  0  0  0  0  0  0  0  0  0  0  0
   -4.2204   -5.8574   -0.3587 H   0  0  0  0  0  0  0  0  0  0  0  0
   -6.4725   -6.1174   -1.3788 H   0  0  0  0  0  0  0  0  0  0  0  0
   -6.5804   -6.1604    0.3754 H   0  0  0  0  0  0  0  0  0  0  0  0
   -7.0550   -4.6987   -0.5021 H   0  0  0  0  0  0  0  0  0  0  0  0
   -5.3353   -3.2698    0.8619 H   0  0  0  0  0  0  0  0  0  0  0  0
   -4.1717   -5.7659    2.1950 H   0  0  0  0  0  0  0  0  0  0  0  0
   -5.8552   -5.2045    2.3186 H   0  0  0  0  0  0  0  0  0  0  0  0
   -4.5341   -4.2524    3.0115 H   0  0  0  0  0  0  0  0  0  0  0  0
   -1.1796   -1.9334   -1.0974 H   0  0  0  0  0  0  0  0  0  0  0  0
   -0.8483   -3.2648    0.0029 H   0  0  0  0  0  0  0  0  0  0  0  0
  1  2  1  0
  2  3  1  0
  2  4  2  3
  4  5  1  0
  5  6  2  0
  5  7  1  0
  7  8  1  0
  8  9  1  0
  9 10  2  0
 10 11  1  0
 11 12  1  0
 12 13  2  0
 12 14  1  0
 14 15  1  0
 15 16  1  0
 16 17  1  0
 17 18  1  0
 18 19  1  0
 19 20  2  0
 20 21  1  0
 20 22  1  0
 22 23  1  0
 23 24  1  0
 23 25  1  0
 25 26  2  0
 26 27  1  0
 27 28  2  0
 28 29  1  0
 29 30  1  0
 30 31  1  0
 31 32  1  1
 31 33  1  0
 33 34  1  0
 31 35  1  0
 35 36  1  1
 17 37  1  0
 38 37  1  6
 38 39  1  0
 39 40  1  0
 40 41  1  0
 41 42  1  0
 41 43  1  0
 43 44  1  0
 43 45  1  0
 38 46  1  0
 33  9  1  0
 45 38  1  0
 35 11  1  0
 46 15  1  0
 35 28  1  0
  1 47  1  0
  1 48  1  0
  1 49  1  0
  3 50  1  0
  3 51  1  0
  3 52  1  0
  4 53  1  0
  8 54  1  0
  8 55  1  0
 10 56  1  0
 11 57  1  0
 15 58  1  1
 16 59  1  0
 16 60  1  0
 17 61  1  1
 18 62  1  0
 18 63  1  0
 19 64  1  0
 21 65  1  0
 21 66  1  0
 21 67  1  0
 22 68  1  0
 22 69  1  0
 23 70  1  6
 24 71  1  0
 24 72  1  0
 24 73  1  0
 25 74  1  0
 26 75  1  0
 27 76  1  0
 29 77  1  0
 29 78  1  0
 32 79  1  0
 32 80  1  0
 32 81  1  0
 33 82  1  6
 34 83  1  0
 36 84  1  0
 39 85  1  0
 39 86  1  0
 40 87  1  0
 40 88  1  0
 41 89  1  1
 42 90  1  0
 42 91  1  0
 42 92  1  0
 43 93  1  1
 44 94  1  0
 44 95  1  0
 44 96  1  0
 46 97  1  0
 46 98  1  0
M  END
$$$$
