
     RDKit          3D

 45 49  0  0  0  0  0  0  0  0999 V2000
    1.1926    0.5329    1.8120 O   0  0  0  0  0  0  0  0  0  0  0  0
    1.6039    0.1876    0.7140 C   0  0  0  0  0  0  0  0  0  0  0  0
    0.9106    0.1684   -0.4634 O   0  0  0  0  0  0  0  0  0  0  0  0
   -0.4634    0.4076   -0.2923 C   0  0  0  0  0  0  0  0  0  0  0  0
   -1.3471   -0.5746    0.0143 C   0  0  0  0  0  0  0  0  0  0  0  0
   -0.8733   -1.9572    0.2028 C   0  0  0  0  0  0  0  0  0  0  0  0
   -0.6334   -2.4499    1.4915 C   0  0  0  0  0  0  0  0  0  0  0  0
   -0.1431   -3.7445    1.6696 C   0  0  0  0  0  0  0  0  0  0  0  0
    0.1092   -4.5538    0.5627 C   0  0  0  0  0  0  0  0  0  0  0  0
   -0.1292   -4.0717   -0.7237 C   0  0  0  0  0  0  0  0  0  0  0  0
   -0.6181   -2.7766   -0.9048 C   0  0  0  0  0  0  0  0  0  0  0  0
   -2.8236   -0.2647    0.1708 C   0  0  0  0  0  0  0  0  0  0  0  0
   -3.6399   -1.1336    0.4662 O   0  0  0  0  0  0  0  0  0  0  0  0
   -3.1767    1.0404   -0.0523 N   0  0  0  0  0  0  0  0  0  0  0  0
   -2.2630    2.0193   -0.3967 C   0  0  0  0  0  0  0  0  0  0  0  0
   -2.8777    3.2470   -0.5798 C   0  0  0  0  0  0  0  0  0  0  0  0
   -2.1087    4.3367   -0.9350 C   0  0  0  0  0  0  0  0  0  0  0  0
   -0.7265    4.1466   -1.0959 C   0  0  0  0  0  0  0  0  0  0  0  0
   -0.1299    2.8805   -0.9010 C   0  0  0  0  0  0  0  0  0  0  0  0
   -0.9120    1.7835   -0.5405 C   0  0  0  0  0  0  0  0  0  0  0  0
   -4.3516    3.1273   -0.3371 C   0  0  0  0  0  0  0  0  0  0  0  0
   -4.5132    1.6273    0.0170 C   0  0  0  0  0  0  0  0  0  0  0  0
    3.0055   -0.2556    0.4782 C   0  0  0  0  0  0  0  0  0  0  0  0
    3.9433   -0.0530    1.5033 C   0  0  0  0  0  0  0  0  0  0  0  0
    5.2692   -0.4576    1.3339 C   0  0  0  0  0  0  0  0  0  0  0  0
    5.6529   -1.0670    0.1450 C   0  0  0  0  0  0  0  0  0  0  0  0
    6.9240   -1.4555   -0.0170 F   0  0  0  0  0  0  0  0  0  0  0  0
    4.7359   -1.2825   -0.8781 C   0  0  0  0  0  0  0  0  0  0  0  0
    3.4081   -0.8789   -0.7138 C   0  0  0  0  0  0  0  0  0  0  0  0
   -0.8225   -1.8250    2.3624 H   0  0  0  0  0  0  0  0  0  0  0  0
    0.0380   -4.1209    2.6730 H   0  0  0  0  0  0  0  0  0  0  0  0
    0.4855   -5.5638    0.7039 H   0  0  0  0  0  0  0  0  0  0  0  0
    0.0598   -4.7065   -1.5853 H   0  0  0  0  0  0  0  0  0  0  0  0
   -0.8036   -2.4128   -1.9126 H   0  0  0  0  0  0  0  0  0  0  0  0
   -2.5527    5.3155   -1.0860 H   0  0  0  0  0  0  0  0  0  0  0  0
   -0.0998    4.9922   -1.3736 H   0  0  0  0  0  0  0  0  0  0  0  0
    0.9439    2.7777   -1.0322 H   0  0  0  0  0  0  0  0  0  0  0  0
   -4.9232    3.3803   -1.2351 H   0  0  0  0  0  0  0  0  0  0  0  0
   -4.6697    3.7619    0.4957 H   0  0  0  0  0  0  0  0  0  0  0  0
   -5.1701    1.1079   -0.6893 H   0  0  0  0  0  0  0  0  0  0  0  0
   -4.9142    1.4857    1.0266 H   0  0  0  0  0  0  0  0  0  0  0  0
    3.6431    0.4192    2.4375 H   0  0  0  0  0  0  0  0  0  0  0  0
    6.0010   -0.3041    2.1211 H   0  0  0  0  0  0  0  0  0  0  0  0
    5.0591   -1.7675   -1.7942 H   0  0  0  0  0  0  0  0  0  0  0  0
    2.7006   -1.0683   -1.5176 H   0  0  0  0  0  0  0  0  0  0  0  0
  1  2  2  0
  2  3  1  0
  3  4  1  0
  4  5  2  0
  5  6  1  0
  6  7  2  0
  7  8  1  0
  8  9  2  0
  9 10  1  0
 10 11  2  0
  5 12  1  0
 12 13  2  0
 12 14  1  0
 14 15  1  0
 15 16  2  0
 16 17  1  0
 17 18  2  0
 18 19  1  0
 19 20  2  0
 16 21  1  0
 21 22  1  0
  2 23  1  0
 23 24  2  0
 24 25  1  0
 25 26  2  0
 26 27  1  0
 26 28  1  0
 28 29  2  0
 20  4  1  0
 29 23  1  0
 11  6  1  0
 22 14  1  0
 20 15  1  0
  7 30  1  0
  8 31  1  0
  9 32  1  0
 10 33  1  0
 11 34  1  0
 17 35  1  0
 18 36  1  0
 19 37  1  0
 21 38  1  0
 21 39  1  0
 22 40  1  0
 22 41  1  0
 24 42  1  0
 25 43  1  0
 28 44  1  0
 29 45  1  0
M  END
$$$$
