
     RDKit          3D

 51 55  0  0  0  0  0  0  0  0999 V2000
   -8.0935    0.2030   -2.0899 F   0  0  0  0  0  0  0  0  0  0  0  0
   -7.4700    0.2892   -0.9039 C   0  0  0  0  0  0  0  0  0  0  0  0
   -8.1883    0.0558    0.2623 C   0  0  0  0  0  0  0  0  0  0  0  0
   -7.5413    0.1412    1.4944 C   0  0  0  0  0  0  0  0  0  0  0  0
   -6.1827    0.4608    1.5455 C   0  0  0  0  0  0  0  0  0  0  0  0
   -5.4582    0.6980    0.3683 C   0  0  0  0  0  0  0  0  0  0  0  0
   -3.9785    1.0229    0.4271 C   0  0  0  0  0  0  0  0  0  0  0  0
   -3.1068   -0.2449    0.4250 C   0  0  0  0  0  0  0  0  0  0  0  0
   -1.6637    0.0307    0.5888 N   0  0  0  0  0  0  0  0  0  0  0  0
   -1.0782    0.6492   -0.6173 C   0  0  0  0  0  0  0  0  0  0  0  0
    0.4291    0.9191   -0.4741 C   0  0  0  0  0  0  0  0  0  0  0  0
    1.1683   -0.2978   -0.1283 N   0  0  0  0  0  0  0  0  0  0  0  0
    2.5671   -0.2816   -0.2066 C   0  0  0  0  0  0  0  0  0  0  0  0
    3.1260   -1.1370   -1.0277 N   0  0  0  0  0  0  0  0  0  0  0  0
    4.5250   -1.1766   -1.1700 C   0  0  0  0  0  0  0  0  0  0  0  0
    5.0805   -2.0972   -2.0593 C   0  0  0  0  0  0  0  0  0  0  0  0
    6.4639   -2.1758   -2.2370 C   0  0  0  0  0  0  0  0  0  0  0  0
    7.3184   -1.3326   -1.5238 C   0  0  0  0  0  0  0  0  0  0  0  0
    6.7906   -0.4034   -0.6288 C   0  0  0  0  0  0  0  0  0  0  0  0
    5.3952   -0.3311   -0.4616 C   0  0  0  0  0  0  0  0  0  0  0  0
    4.7844    0.5637    0.4278 N   0  0  0  0  0  0  0  0  0  0  0  0
    5.3541    1.4910    1.2667 C   0  0  0  0  0  0  0  0  0  0  0  0
    4.3453    2.1122    1.9750 C   0  0  0  0  0  0  0  0  0  0  0  0
    3.1231    1.5332    1.5514 C   0  0  0  0  0  0  0  0  0  0  0  0
    3.4139    0.5963    0.5746 C   0  0  0  0  0  0  0  0  0  0  0  0
    0.5871   -1.0714    0.9746 C   0  0  0  0  0  0  0  0  0  0  0  0
   -0.9391   -1.2367    0.8364 C   0  0  0  0  0  0  0  0  0  0  0  0
   -6.1165    0.6063   -0.8635 C   0  0  0  0  0  0  0  0  0  0  0  0
   -9.2440   -0.1935    0.2027 H   0  0  0  0  0  0  0  0  0  0  0  0
   -8.0956   -0.0451    2.4133 H   0  0  0  0  0  0  0  0  0  0  0  0
   -5.6896    0.5209    2.5156 H   0  0  0  0  0  0  0  0  0  0  0  0
   -3.7260    1.6727   -0.4174 H   0  0  0  0  0  0  0  0  0  0  0  0
   -3.7782    1.6133    1.3330 H   0  0  0  0  0  0  0  0  0  0  0  0
   -3.4434   -0.8797    1.2609 H   0  0  0  0  0  0  0  0  0  0  0  0
   -3.2905   -0.8289   -0.4907 H   0  0  0  0  0  0  0  0  0  0  0  0
   -1.5609    1.6168   -0.8226 H   0  0  0  0  0  0  0  0  0  0  0  0
   -1.2545    0.0106   -1.5019 H   0  0  0  0  0  0  0  0  0  0  0  0
    0.5927    1.7179    0.2647 H   0  0  0  0  0  0  0  0  0  0  0  0
    0.8068    1.2903   -1.4418 H   0  0  0  0  0  0  0  0  0  0  0  0
    4.4201   -2.7577   -2.6161 H   0  0  0  0  0  0  0  0  0  0  0  0
    6.8782   -2.9056   -2.9324 H   0  0  0  0  0  0  0  0  0  0  0  0
    8.3948   -1.4039   -1.6661 H   0  0  0  0  0  0  0  0  0  0  0  0
    7.4744    0.2441   -0.0827 H   0  0  0  0  0  0  0  0  0  0  0  0
    6.4251    1.6416    1.3093 H   0  0  0  0  0  0  0  0  0  0  0  0
    4.4771    2.8845    2.7226 H   0  0  0  0  0  0  0  0  0  0  0  0
    2.1382    1.7792    1.9255 H   0  0  0  0  0  0  0  0  0  0  0  0
    1.0279   -2.0811    0.9568 H   0  0  0  0  0  0  0  0  0  0  0  0
    0.8354   -0.6134    1.9398 H   0  0  0  0  0  0  0  0  0  0  0  0
   -1.1512   -1.9672    0.0413 H   0  0  0  0  0  0  0  0  0  0  0  0
   -1.2986   -1.6823    1.7745 H   0  0  0  0  0  0  0  0  0  0  0  0
   -5.5934    0.7802   -1.8025 H   0  0  0  0  0  0  0  0  0  0  0  0
  1  2  1  0
  2  3  2  0
  3  4  1  0
  4  5  2  0
  5  6  1  0
  6  7  1  0
  7  8  1  0
  8  9  1  0
  9 10  1  0
 10 11  1  0
 11 12  1  0
 12 13  1  0
 13 14  2  0
 14 15  1  0
 15 16  2  0
 16 17  1  0
 17 18  2  0
 18 19  1  0
 19 20  2  0
 20 21  1  0
 21 22  1  0
 22 23  2  0
 23 24  1  0
 24 25  2  0
 12 26  1  0
 26 27  1  0
  6 28  2  0
 28  2  1  0
 27  9  1  0
 25 13  1  0
 20 15  1  0
 25 21  1  0
  3 29  1  0
  4 30  1  0
  5 31  1  0
  7 32  1  0
  7 33  1  0
  8 34  1  0
  8 35  1  0
 10 36  1  0
 10 37  1  0
 11 38  1  0
 11 39  1  0
 16 40  1  0
 17 41  1  0
 18 42  1  0
 19 43  1  0
 22 44  1  0
 23 45  1  0
 24 46  1  0
 26 47  1  0
 26 48  1  0
 27 49  1  0
 27 50  1  0
 28 51  1  0
M  END
$$$$
