
     RDKit          3D

 54 57  0  0  0  0  0  0  0  0999 V2000
   -4.9313    2.9445    2.6844 C   0  0  0  0  0  0  0  0  0  0  0  0
   -3.9848    1.9277    2.9886 O   0  0  0  0  0  0  0  0  0  0  0  0
   -3.1187    1.5731    1.9923 C   0  0  0  0  0  0  0  0  0  0  0  0
   -3.1405    2.0416    0.6780 C   0  0  0  0  0  0  0  0  0  0  0  0
   -2.1904    1.5945   -0.2479 C   0  0  0  0  0  0  0  0  0  0  0  0
   -1.2219    0.6631    0.1388 C   0  0  0  0  0  0  0  0  0  0  0  0
   -0.2508    0.2141   -0.7881 N   0  0  0  0  0  0  0  0  0  0  0  0
    0.1414   -1.0964   -1.0367 C   0  0  0  0  0  0  0  0  0  0  0  0
   -0.5818   -2.3229   -0.5741 C   0  0  0  0  0  0  0  0  0  0  0  0
   -1.8479   -2.5587   -1.3502 C   0  0  0  0  0  0  0  0  0  0  0  0
   -2.0205   -2.6180   -2.7257 C   0  0  0  0  0  0  0  0  0  0  0  0
   -3.3860   -2.8630   -2.9881 C   0  0  0  0  0  0  0  0  0  0  0  0
   -4.0193   -2.9634   -1.7722 C   0  0  0  0  0  0  0  0  0  0  0  0
   -3.0848   -2.7854   -0.7822 N   0  0  0  0  0  0  0  0  0  0  0  0
   -3.3900   -2.8584    0.6306 C   0  0  0  0  0  0  0  0  0  0  0  0
    1.1622   -1.0990   -1.8767 N   0  0  0  0  0  0  0  0  0  0  0  0
    1.4043    0.1882   -2.2594 N   0  0  0  0  0  0  0  0  0  0  0  0
    0.5605    0.9664   -1.6181 C   0  0  0  0  0  0  0  0  0  0  0  0
    0.6464    2.6996   -1.6386 S   0  0  0  0  0  0  0  0  0  0  0  0
    2.3822    2.9507   -2.1184 C   0  0  0  0  0  0  0  0  0  0  0  0
    3.3174    2.5782   -0.9753 C   0  0  0  0  0  0  0  0  0  0  0  0
    3.6714    3.4210   -0.1545 O   0  0  0  0  0  0  0  0  0  0  0  0
    3.6845    1.2419   -0.9816 N   0  0  0  0  0  0  0  0  0  0  0  0
    4.5342    0.5743   -0.0776 C   0  0  0  0  0  0  0  0  0  0  0  0
    4.6446   -0.8179   -0.2221 C   0  0  0  0  0  0  0  0  0  0  0  0
    5.4681   -1.5641    0.6263 C   0  0  0  0  0  0  0  0  0  0  0  0
    6.1887   -0.9214    1.6278 C   0  0  0  0  0  0  0  0  0  0  0  0
    6.0790    0.4573    1.7681 C   0  0  0  0  0  0  0  0  0  0  0  0
    6.7762    1.0731    2.7329 F   0  0  0  0  0  0  0  0  0  0  0  0
    5.2623    1.2097    0.9274 C   0  0  0  0  0  0  0  0  0  0  0  0
   -1.1939    0.1918    1.4549 C   0  0  0  0  0  0  0  0  0  0  0  0
   -2.1413    0.6505    2.3731 C   0  0  0  0  0  0  0  0  0  0  0  0
   -5.6291    2.6129    1.9088 H   0  0  0  0  0  0  0  0  0  0  0  0
   -4.4338    3.8764    2.3965 H   0  0  0  0  0  0  0  0  0  0  0  0
   -5.5113    3.1432    3.5913 H   0  0  0  0  0  0  0  0  0  0  0  0
   -3.8851    2.7544    0.3382 H   0  0  0  0  0  0  0  0  0  0  0  0
   -2.2482    1.9623   -1.2705 H   0  0  0  0  0  0  0  0  0  0  0  0
    0.0733   -3.1894   -0.7345 H   0  0  0  0  0  0  0  0  0  0  0  0
   -0.7614   -2.2906    0.5019 H   0  0  0  0  0  0  0  0  0  0  0  0
   -1.2350   -2.4921   -3.4629 H   0  0  0  0  0  0  0  0  0  0  0  0
   -3.8544   -2.9646   -3.9589 H   0  0  0  0  0  0  0  0  0  0  0  0
   -5.0579   -3.1535   -1.5358 H   0  0  0  0  0  0  0  0  0  0  0  0
   -2.6723   -3.5263    1.1128 H   0  0  0  0  0  0  0  0  0  0  0  0
   -3.3313   -1.8506    1.0430 H   0  0  0  0  0  0  0  0  0  0  0  0
   -4.4002   -3.2547    0.7665 H   0  0  0  0  0  0  0  0  0  0  0  0
    2.6320    2.3924   -3.0263 H   0  0  0  0  0  0  0  0  0  0  0  0
    2.5327    4.0111   -2.3473 H   0  0  0  0  0  0  0  0  0  0  0  0
    3.1963    0.6423   -1.6495 H   0  0  0  0  0  0  0  0  0  0  0  0
    4.0852   -1.3394   -0.9976 H   0  0  0  0  0  0  0  0  0  0  0  0
    5.5459   -2.6411    0.5019 H   0  0  0  0  0  0  0  0  0  0  0  0
    6.8370   -1.4800    2.2956 H   0  0  0  0  0  0  0  0  0  0  0  0
    5.2265    2.2811    1.0844 H   0  0  0  0  0  0  0  0  0  0  0  0
   -0.4190   -0.4847    1.8050 H   0  0  0  0  0  0  0  0  0  0  0  0
   -2.1097    0.2984    3.4020 H   0  0  0  0  0  0  0  0  0  0  0  0
  1  2  1  0
  2  3  1  0
  3  4  2  0
  4  5  1  0
  5  6  2  0
  6  7  1  0
  7  8  1  0
  8  9  1  0
  9 10  1  0
 10 11  2  0
 11 12  1  0
 12 13  2  0
 13 14  1  0
 14 15  1  0
  8 16  2  0
 16 17  1  0
 17 18  2  0
 18 19  1  0
 19 20  1  0
 20 21  1  0
 21 22  2  0
 21 23  1  0
 23 24  1  0
 24 25  2  0
 25 26  1  0
 26 27  2  0
 27 28  1  0
 28 29  1  0
 28 30  2  0
  6 31  1  0
 31 32  2  0
 32  3  1  0
 18  7  1  0
 30 24  1  0
 14 10  1  0
  1 33  1  0
  1 34  1  0
  1 35  1  0
  4 36  1  0
  5 37  1  0
  9 38  1  0
  9 39  1  0
 11 40  1  0
 12 41  1  0
 13 42  1  0
 15 43  1  0
 15 44  1  0
 15 45  1  0
 20 46  1  0
 20 47  1  0
 23 48  1  0
 25 49  1  0
 26 50  1  0
 27 51  1  0
 30 52  1  0
 31 53  1  0
 32 54  1  0
M  END
$$$$
