
     RDKit          3D

 33 34  0  0  0  0  0  0  0  0999 V2000
   -4.7970   -1.0495   -1.0762 C   0  0  0  0  0  0  0  0  0  0  0  0
   -3.4742   -0.3496   -0.9732 C   0  0  0  0  0  0  0  0  0  0  0  0
   -3.3539    0.8671   -0.2934 C   0  0  0  0  0  0  0  0  0  0  0  0
   -2.1144    1.5037   -0.1926 C   0  0  0  0  0  0  0  0  0  0  0  0
   -0.9810    0.9190   -0.7599 C   0  0  0  0  0  0  0  0  0  0  0  0
    0.2149    1.5767   -0.6837 O   0  0  0  0  0  0  0  0  0  0  0  0
   -1.0777   -0.3114   -1.4159 C   0  0  0  0  0  0  0  0  0  0  0  0
    0.0864   -0.9982   -2.0370 C   0  0  0  0  0  0  0  0  0  0  0  0
   -0.0727   -1.5655   -3.1197 O   0  0  0  0  0  0  0  0  0  0  0  0
    1.4374   -0.9642   -1.3640 C   0  0  0  0  0  0  0  0  0  0  0  0
    1.3997   -1.2086    0.1246 C   0  0  0  0  0  0  0  0  0  0  0  0
    0.6481   -2.0334    0.6424 O   0  0  0  0  0  0  0  0  0  0  0  0
    2.2581   -0.3874    1.0126 C   0  0  0  0  0  0  0  0  0  0  0  0
    1.6288    0.1749    2.1365 C   0  0  0  0  0  0  0  0  0  0  0  0
    2.3460    0.9832    3.0188 C   0  0  0  0  0  0  0  0  0  0  0  0
    3.6981    1.2265    2.7912 C   0  0  0  0  0  0  0  0  0  0  0  0
    4.3352    0.6507    1.6898 C   0  0  0  0  0  0  0  0  0  0  0  0
    3.6226   -0.1636    0.8011 C   0  0  0  0  0  0  0  0  0  0  0  0
    4.5187   -0.8994   -0.4768 Cl  0  0  0  0  0  0  0  0  0  0  0  0
   -2.3290   -0.9346   -1.5299 C   0  0  0  0  0  0  0  0  0  0  0  0
   -4.9669   -1.3936   -2.1021 H   0  0  0  0  0  0  0  0  0  0  0  0
   -5.6242   -0.3819   -0.8122 H   0  0  0  0  0  0  0  0  0  0  0  0
   -4.8191   -1.9107   -0.4006 H   0  0  0  0  0  0  0  0  0  0  0  0
   -4.2285    1.3313    0.1579 H   0  0  0  0  0  0  0  0  0  0  0  0
   -2.0570    2.4540    0.3302 H   0  0  0  0  0  0  0  0  0  0  0  0
    0.0638    2.4651   -0.3164 H   0  0  0  0  0  0  0  0  0  0  0  0
    1.9198   -0.0147   -1.6126 H   0  0  0  0  0  0  0  0  0  0  0  0
    2.0371   -1.7728   -1.7991 H   0  0  0  0  0  0  0  0  0  0  0  0
    0.5736   -0.0200    2.3232 H   0  0  0  0  0  0  0  0  0  0  0  0
    1.8516    1.4145    3.8861 H   0  0  0  0  0  0  0  0  0  0  0  0
    4.2627    1.8513    3.4798 H   0  0  0  0  0  0  0  0  0  0  0  0
    5.3977    0.8298    1.5385 H   0  0  0  0  0  0  0  0  0  0  0  0
   -2.4047   -1.8887   -2.0508 H   0  0  0  0  0  0  0  0  0  0  0  0
  1  2  1  0
  2  3  2  0
  3  4  1  0
  4  5  2  0
  5  6  1  0
  5  7  1  0
  7  8  1  0
  8  9  2  0
  8 10  1  0
 10 11  1  0
 11 12  2  0
 11 13  1  0
 13 14  2  0
 14 15  1  0
 15 16  2  0
 16 17  1  0
 17 18  2  0
 18 19  1  0
  7 20  2  0
 20  2  1  0
 18 13  1  0
  1 21  1  0
  1 22  1  0
  1 23  1  0
  3 24  1  0
  4 25  1  0
  6 26  1  0
 10 27  1  0
 10 28  1  0
 14 29  1  0
 15 30  1  0
 16 31  1  0
 17 32  1  0
 20 33  1  0
M  END
$$$$
