
     RDKit          3D

 47 50  0  0  0  0  0  0  0  0999 V2000
   -4.0914    4.5655    1.9219 N   0  0  0  0  0  0  0  0  0  0  0  0
   -4.5598    3.5357    1.1914 C   0  0  0  0  0  0  0  0  0  0  0  0
   -5.8478    3.3354    0.9159 N   0  0  0  0  0  0  0  0  0  0  0  0
   -5.8900    2.1695    0.1592 O   0  0  0  0  0  0  0  0  0  0  0  0
   -4.6112    1.6578   -0.0526 N   0  0  0  0  0  0  0  0  0  0  0  0
   -3.8098    2.5030    0.5961 C   0  0  0  0  0  0  0  0  0  0  0  0
   -2.4016    2.3285    0.6022 N   0  0  0  0  0  0  0  0  0  0  0  0
   -1.5765    3.2659    1.1576 N   0  0  0  0  0  0  0  0  0  0  0  0
   -0.3210    2.8911    0.9977 N   0  0  0  0  0  0  0  0  0  0  0  0
   -0.3100    1.6903    0.3394 C   0  0  0  0  0  0  0  0  0  0  0  0
    0.9366    0.9962    0.0152 C   0  0  0  0  0  0  0  0  0  0  0  0
    0.9492   -0.0592   -0.6101 O   0  0  0  0  0  0  0  0  0  0  0  0
    2.0537    1.6720    0.4978 N   0  0  0  0  0  0  0  0  0  0  0  0
    3.3492    1.2210    0.5104 N   0  0  0  0  0  0  0  0  0  0  0  0
    3.7467    0.4330   -0.4382 C   0  0  0  0  0  0  0  0  0  0  0  0
    5.1157   -0.1253   -0.4541 C   0  0  0  0  0  0  0  0  0  0  0  0
    5.4731   -0.9994   -1.4854 C   0  0  0  0  0  0  0  0  0  0  0  0
    6.7604   -1.5382   -1.5188 C   0  0  0  0  0  0  0  0  0  0  0  0
    7.6761   -1.2016   -0.5266 C   0  0  0  0  0  0  0  0  0  0  0  0
    8.9204   -1.7535   -0.6006 O   0  0  0  0  0  0  0  0  0  0  0  0
    7.3291   -0.3330    0.5046 C   0  0  0  0  0  0  0  0  0  0  0  0
    6.0417    0.2076    0.5412 C   0  0  0  0  0  0  0  0  0  0  0  0
   -1.6161    1.3038    0.0789 C   0  0  0  0  0  0  0  0  0  0  0  0
   -2.1523    0.0764   -0.5602 C   0  0  0  0  0  0  0  0  0  0  0  0
   -2.7147   -0.6924    0.4992 O   0  0  0  0  0  0  0  0  0  0  0  0
   -3.3755   -1.8382    0.1515 C   0  0  0  0  0  0  0  0  0  0  0  0
   -3.3631   -2.4426   -1.1085 C   0  0  0  0  0  0  0  0  0  0  0  0
   -4.0823   -3.6224   -1.3243 C   0  0  0  0  0  0  0  0  0  0  0  0
   -4.8059   -4.1907   -0.2826 C   0  0  0  0  0  0  0  0  0  0  0  0
   -5.4935   -5.3201   -0.4956 F   0  0  0  0  0  0  0  0  0  0  0  0
   -4.8235   -3.6040    0.9754 C   0  0  0  0  0  0  0  0  0  0  0  0
   -4.1040   -2.4278    1.1914 C   0  0  0  0  0  0  0  0  0  0  0  0
   -4.7077    5.3454    2.1262 H   0  0  0  0  0  0  0  0  0  0  0  0
   -3.0987    4.7949    1.9346 H   0  0  0  0  0  0  0  0  0  0  0  0
    1.8751    2.4355    1.1475 H   0  0  0  0  0  0  0  0  0  0  0  0
    3.1118    0.1552   -1.2956 H   0  0  0  0  0  0  0  0  0  0  0  0
    4.7620   -1.2704   -2.2611 H   0  0  0  0  0  0  0  0  0  0  0  0
    7.0486   -2.2202   -2.3137 H   0  0  0  0  0  0  0  0  0  0  0  0
    9.4450   -1.4440    0.1564 H   0  0  0  0  0  0  0  0  0  0  0  0
    8.0388   -0.0650    1.2808 H   0  0  0  0  0  0  0  0  0  0  0  0
    5.7665    0.8868    1.3438 H   0  0  0  0  0  0  0  0  0  0  0  0
   -1.3555   -0.4924   -1.0468 H   0  0  0  0  0  0  0  0  0  0  0  0
   -2.8981    0.3269   -1.3223 H   0  0  0  0  0  0  0  0  0  0  0  0
   -2.8018   -2.0303   -1.9406 H   0  0  0  0  0  0  0  0  0  0  0  0
   -4.0797   -4.1022   -2.2979 H   0  0  0  0  0  0  0  0  0  0  0  0
   -5.3936   -4.0613    1.7771 H   0  0  0  0  0  0  0  0  0  0  0  0
   -4.1145   -1.9631    2.1747 H   0  0  0  0  0  0  0  0  0  0  0  0
  1  2  1  0
  2  3  2  0
  3  4  1  0
  4  5  1  0
  5  6  2  0
  6  7  1  0
  7  8  1  0
  8  9  2  0
  9 10  1  0
 10 11  1  0
 11 12  2  0
 11 13  1  0
 13 14  1  0
 14 15  2  3
 15 16  1  0
 16 17  2  0
 17 18  1  0
 18 19  2  0
 19 20  1  0
 19 21  1  0
 21 22  2  0
 10 23  2  0
 23 24  1  0
 24 25  1  0
 25 26  1  0
 26 27  2  0
 27 28  1  0
 28 29  2  0
 29 30  1  0
 29 31  1  0
 31 32  2  0
  6  2  1  0
 23  7  1  0
 32 26  1  0
 22 16  1  0
  1 33  1  0
  1 34  1  0
 13 35  1  0
 15 36  1  0
 17 37  1  0
 18 38  1  0
 20 39  1  0
 21 40  1  0
 22 41  1  0
 24 42  1  0
 24 43  1  0
 27 44  1  0
 28 45  1  0
 31 46  1  0
 32 47  1  0
M  END
$$$$
