
     RDKit          3D

 36 38  0  0  0  0  0  0  0  0999 V2000
   -2.1075    3.3796    1.0956 C   0  0  0  0  0  0  0  0  0  0  0  0
   -2.3083    2.1108    0.4738 O   0  0  0  0  0  0  0  0  0  0  0  0
   -1.1669    1.3761    0.3243 C   0  0  0  0  0  0  0  0  0  0  0  0
   -0.0580    1.7552    0.6868 O   0  0  0  0  0  0  0  0  0  0  0  0
   -1.4043    0.0830   -0.3120 C   0  0  0  0  0  0  0  0  0  0  0  0
   -0.3942   -0.8552   -0.5469 C   0  0  0  0  0  0  0  0  0  0  0  0
    0.9463   -0.7149   -0.2330 N   0  0  0  0  0  0  0  0  0  0  0  0
    1.9771   -1.6107   -0.4440 C   0  0  0  0  0  0  0  0  0  0  0  0
    1.9142   -2.7222   -0.9560 O   0  0  0  0  0  0  0  0  0  0  0  0
    3.2647   -1.0726    0.0383 C   0  0  0  0  0  0  0  0  0  0  0  0
    4.5324   -1.7088   -0.0121 C   0  0  0  0  0  0  0  0  0  0  0  0
    5.4123   -0.8175    0.5531 C   0  0  0  0  0  0  0  0  0  0  0  0
    4.6693    0.2686    0.9039 N   0  0  0  0  0  0  0  0  0  0  0  0
    5.1428    1.4765    1.5358 C   0  0  0  0  0  0  0  0  0  0  0  0
    3.3625    0.1481    0.6064 N   0  0  0  0  0  0  0  0  0  0  0  0
   -0.9764   -2.2855   -1.2969 S   0  0  0  0  0  0  0  0  0  0  0  0
   -2.5283   -1.6838   -1.3186 C   0  0  0  0  0  0  0  0  0  0  0  0
   -2.6470   -0.4328   -0.7835 C   0  0  0  0  0  0  0  0  0  0  0  0
   -4.0587    0.0311   -0.8398 C   0  0  0  0  0  0  0  0  0  0  0  0
   -4.7150   -1.0034   -1.8073 C   0  0  0  0  0  0  0  0  0  0  0  0
   -3.7984   -2.2634   -1.8101 C   0  0  0  0  0  0  0  0  0  0  0  0
   -1.7115    3.2528    2.1080 H   0  0  0  0  0  0  0  0  0  0  0  0
   -3.0773    3.8800    1.1644 H   0  0  0  0  0  0  0  0  0  0  0  0
   -1.4397    4.0019    0.4916 H   0  0  0  0  0  0  0  0  0  0  0  0
    1.2334    0.1603    0.2133 H   0  0  0  0  0  0  0  0  0  0  0  0
    4.7533   -2.6889   -0.4125 H   0  0  0  0  0  0  0  0  0  0  0  0
    6.4778   -0.8692    0.7282 H   0  0  0  0  0  0  0  0  0  0  0  0
    4.6241    1.5915    2.4908 H   0  0  0  0  0  0  0  0  0  0  0  0
    6.2202    1.4017    1.7026 H   0  0  0  0  0  0  0  0  0  0  0  0
    4.9248    2.3191    0.8749 H   0  0  0  0  0  0  0  0  0  0  0  0
   -4.5199   -0.0257    0.1517 H   0  0  0  0  0  0  0  0  0  0  0  0
   -4.1590    1.0468   -1.2319 H   0  0  0  0  0  0  0  0  0  0  0  0
   -4.7394   -0.5780   -2.8194 H   0  0  0  0  0  0  0  0  0  0  0  0
   -5.7461   -1.2391   -1.5261 H   0  0  0  0  0  0  0  0  0  0  0  0
   -3.7207   -2.6949   -2.8116 H   0  0  0  0  0  0  0  0  0  0  0  0
   -4.1788   -3.0166   -1.1125 H   0  0  0  0  0  0  0  0  0  0  0  0
  1  2  1  0
  2  3  1  0
  3  4  2  0
  3  5  1  0
  5  6  2  0
  6  7  1  0
  7  8  1  0
  8  9  2  0
  8 10  1  0
 10 11  1  0
 11 12  2  0
 12 13  1  0
 13 14  1  0
 13 15  1  0
  6 16  1  0
 16 17  1  0
 17 18  2  0
 18 19  1  0
 19 20  1  0
 20 21  1  0
 18  5  1  0
 15 10  2  0
 21 17  1  0
  1 22  1  0
  1 23  1  0
  1 24  1  0
  7 25  1  0
 11 26  1  0
 12 27  1  0
 14 28  1  0
 14 29  1  0
 14 30  1  0
 19 31  1  0
 19 32  1  0
 20 33  1  0
 20 34  1  0
 21 35  1  0
 21 36  1  0
M  END
$$$$
