
     RDKit          3D

 60 63  0  0  0  0  0  0  0  0999 V2000
    8.7273    2.6926   -1.5676 C   0  0  0  0  0  0  0  0  0  0  0  0
    7.5658    2.0725   -2.3234 C   0  0  0  0  0  0  0  0  0  0  0  0
    6.3416    2.2702   -1.6187 O   0  0  0  0  0  0  0  0  0  0  0  0
    5.9313    1.3178   -0.7293 C   0  0  0  0  0  0  0  0  0  0  0  0
    4.6403    1.5080   -0.2307 C   0  0  0  0  0  0  0  0  0  0  0  0
    4.0908    0.6149    0.6920 C   0  0  0  0  0  0  0  0  0  0  0  0
    4.8313   -0.4865    1.1390 C   0  0  0  0  0  0  0  0  0  0  0  0
    4.2314   -1.4580    2.1219 C   0  0  0  0  0  0  0  0  0  0  0  0
    3.2449   -2.2952    1.4751 N   0  0  0  0  0  0  0  0  0  0  0  0
    1.8898   -2.0903    1.6663 C   0  0  0  0  0  0  0  0  0  0  0  0
    1.4484   -1.2974    2.4945 O   0  0  0  0  0  0  0  0  0  0  0  0
    1.0124   -2.9856    0.7868 C   0  0  0  0  0  0  0  0  0  0  0  0
   -0.3616   -2.5143    0.7752 N   0  0  0  0  0  0  0  0  0  0  0  0
   -1.2509   -3.1524    1.6473 N   0  0  0  0  0  0  0  0  0  0  0  0
   -2.4820   -2.7383    1.7656 C   0  0  0  0  0  0  0  0  0  0  0  0
   -3.3864   -3.4589    2.7246 C   0  0  0  0  0  0  0  0  0  0  0  0
   -2.9329   -1.6153    0.9788 C   0  0  0  0  0  0  0  0  0  0  0  0
   -4.1171   -0.9002    0.9052 C   0  0  0  0  0  0  0  0  0  0  0  0
   -5.3287   -0.9770    1.7616 C   0  0  0  0  0  0  0  0  0  0  0  0
   -3.9356    0.0137   -0.1414 N   0  0  0  0  0  0  0  0  0  0  0  0
   -4.8693    0.8726   -0.8020 C   0  0  0  0  0  0  0  0  0  0  0  0
   -4.3783    1.9296   -1.5867 C   0  0  0  0  0  0  0  0  0  0  0  0
   -5.2534    2.7933   -2.2523 C   0  0  0  0  0  0  0  0  0  0  0  0
   -6.6353    2.6166   -2.1518 C   0  0  0  0  0  0  0  0  0  0  0  0
   -7.5747    3.5212   -2.8926 C   0  0  0  0  0  0  0  0  0  0  0  0
   -7.1260    1.5394   -1.4068 C   0  0  0  0  0  0  0  0  0  0  0  0
   -6.2524    0.6724   -0.7376 C   0  0  0  0  0  0  0  0  0  0  0  0
   -2.6384    0.0288   -0.5531 N   0  0  0  0  0  0  0  0  0  0  0  0
   -2.0569   -0.9863    0.0879 C   0  0  0  0  0  0  0  0  0  0  0  0
   -0.6747   -1.4210   -0.0551 C   0  0  0  0  0  0  0  0  0  0  0  0
    0.1357   -0.9024   -0.8214 O   0  0  0  0  0  0  0  0  0  0  0  0
    6.1260   -0.6743    0.6385 C   0  0  0  0  0  0  0  0  0  0  0  0
    6.6737    0.2240   -0.2861 C   0  0  0  0  0  0  0  0  0  0  0  0
    8.8671    2.2207   -0.5907 H   0  0  0  0  0  0  0  0  0  0  0  0
    8.5377    3.7545   -1.3811 H   0  0  0  0  0  0  0  0  0  0  0  0
    9.6547    2.5969   -2.1381 H   0  0  0  0  0  0  0  0  0  0  0  0
    7.7436    1.0213   -2.5745 H   0  0  0  0  0  0  0  0  0  0  0  0
    7.4591    2.5943   -3.2810 H   0  0  0  0  0  0  0  0  0  0  0  0
    4.0512    2.3583   -0.5674 H   0  0  0  0  0  0  0  0  0  0  0  0
    3.0779    0.7818    1.0572 H   0  0  0  0  0  0  0  0  0  0  0  0
    3.8024   -0.9166    2.9718 H   0  0  0  0  0  0  0  0  0  0  0  0
    5.0033   -2.1264    2.5182 H   0  0  0  0  0  0  0  0  0  0  0  0
    3.5463   -2.7935    0.6487 H   0  0  0  0  0  0  0  0  0  0  0  0
    1.4038   -2.9860   -0.2363 H   0  0  0  0  0  0  0  0  0  0  0  0
    1.0447   -4.0078    1.1785 H   0  0  0  0  0  0  0  0  0  0  0  0
   -2.9269   -4.3982    3.0472 H   0  0  0  0  0  0  0  0  0  0  0  0
   -3.5533   -2.8348    3.6068 H   0  0  0  0  0  0  0  0  0  0  0  0
   -4.3425   -3.6869    2.2465 H   0  0  0  0  0  0  0  0  0  0  0  0
   -5.0717   -1.2980    2.7749 H   0  0  0  0  0  0  0  0  0  0  0  0
   -6.0470   -1.6944    1.3544 H   0  0  0  0  0  0  0  0  0  0  0  0
   -5.8097   -0.0015    1.8797 H   0  0  0  0  0  0  0  0  0  0  0  0
   -3.3072    2.1024   -1.6852 H   0  0  0  0  0  0  0  0  0  0  0  0
   -4.8422    3.6033   -2.8505 H   0  0  0  0  0  0  0  0  0  0  0  0
   -7.7960    3.1043   -3.8795 H   0  0  0  0  0  0  0  0  0  0  0  0
   -7.1400    4.5177   -3.0200 H   0  0  0  0  0  0  0  0  0  0  0  0
   -8.5120    3.6448   -2.3408 H   0  0  0  0  0  0  0  0  0  0  0  0
   -8.1977    1.3585   -1.3520 H   0  0  0  0  0  0  0  0  0  0  0  0
   -6.6940   -0.1718   -0.2228 H   0  0  0  0  0  0  0  0  0  0  0  0
    6.7257   -1.5201    0.9678 H   0  0  0  0  0  0  0  0  0  0  0  0
    7.6866    0.0430   -0.6291 H   0  0  0  0  0  0  0  0  0  0  0  0
  1  2  1  0
  2  3  1  0
  3  4  1  0
  4  5  2  0
  5  6  1  0
  6  7  2  0
  7  8  1  0
  8  9  1  0
  9 10  1  0
 10 11  2  0
 10 12  1  0
 12 13  1  0
 13 14  1  0
 14 15  2  0
 15 16  1  0
 15 17  1  0
 17 18  2  0
 18 19  1  0
 18 20  1  0
 20 21  1  0
 21 22  2  0
 22 23  1  0
 23 24  2  0
 24 25  1  0
 24 26  1  0
 26 27  2  0
 20 28  1  0
 28 29  2  0
 29 30  1  0
 30 31  2  0
  7 32  1  0
 32 33  2  0
 33  4  1  0
 30 13  1  0
 29 17  1  0
 27 21  1  0
  1 34  1  0
  1 35  1  0
  1 36  1  0
  2 37  1  0
  2 38  1  0
  5 39  1  0
  6 40  1  0
  8 41  1  0
  8 42  1  0
  9 43  1  0
 12 44  1  0
 12 45  1  0
 16 46  1  0
 16 47  1  0
 16 48  1  0
 19 49  1  0
 19 50  1  0
 19 51  1  0
 22 52  1  0
 23 53  1  0
 25 54  1  0
 25 55  1  0
 25 56  1  0
 26 57  1  0
 27 58  1  0
 32 59  1  0
 33 60  1  0
M  END
$$$$
