
     RDKit          3D

 42 44  0  0  0  0  0  0  0  0999 V2000
   -3.3713   -2.4230    0.0404 C   0  0  0  0  0  0  0  0  0  0  0  0
   -3.5633   -0.9797   -0.3514 C   0  0  0  0  0  0  0  0  0  0  0  0
   -4.7913   -0.6125   -0.9330 C   0  0  0  0  0  0  0  0  0  0  0  0
   -5.0439    0.7094   -1.2880 C   0  0  0  0  0  0  0  0  0  0  0  0
   -4.0673    1.6692   -1.0652 C   0  0  0  0  0  0  0  0  0  0  0  0
   -4.3624    3.3085   -1.4999 Cl  0  0  0  0  0  0  0  0  0  0  0  0
   -2.8380    1.3178   -0.5030 C   0  0  0  0  0  0  0  0  0  0  0  0
   -2.5516   -0.0098   -0.1501 C   0  0  0  0  0  0  0  0  0  0  0  0
   -1.3116   -0.3878    0.3763 N   0  0  0  0  0  0  0  0  0  0  0  0
   -0.6464    0.4793    1.3637 C   0  0  0  0  0  0  0  0  0  0  0  0
    0.4612    1.3752    0.7649 C   0  0  0  0  0  0  0  0  0  0  0  0
    1.3400    0.7053   -0.2283 N   0  0  0  0  0  0  0  0  0  0  0  0
    2.5177    0.1510    0.2523 C   0  0  0  0  0  0  0  0  0  0  0  0
    2.5623   -0.8816    1.2014 C   0  0  0  0  0  0  0  0  0  0  0  0
    3.7788   -1.3952    1.6376 C   0  0  0  0  0  0  0  0  0  0  0  0
    4.9537   -0.8750    1.1253 C   0  0  0  0  0  0  0  0  0  0  0  0
    4.8865    0.1472    0.1909 C   0  0  0  0  0  0  0  0  0  0  0  0
    3.6971    0.6381   -0.2245 N   0  0  0  0  0  4  0  0  0  0  0  0
    3.6794    1.7380   -1.2073 C   0  0  0  0  0  0  0  0  0  0  0  0
    0.5959   -0.1227   -1.2134 C   0  0  0  0  0  0  0  0  0  0  0  0
   -0.4225   -1.0854   -0.5707 C   0  0  0  0  0  0  0  0  0  0  0  0
   -4.3349   -2.9111    0.2236 H   0  0  0  0  0  0  0  0  0  0  0  0
   -2.8577   -2.9665   -0.7580 H   0  0  0  0  0  0  0  0  0  0  0  0
   -2.7964   -2.5096    0.9680 H   0  0  0  0  0  0  0  0  0  0  0  0
   -5.5656   -1.3598   -1.0989 H   0  0  0  0  0  0  0  0  0  0  0  0
   -5.9999    0.9801   -1.7282 H   0  0  0  0  0  0  0  0  0  0  0  0
   -2.1029    2.1008   -0.3665 H   0  0  0  0  0  0  0  0  0  0  0  0
   -1.3710    1.0965    1.9097 H   0  0  0  0  0  0  0  0  0  0  0  0
   -0.2005   -0.1756    2.1204 H   0  0  0  0  0  0  0  0  0  0  0  0
    1.0566    1.8175    1.5741 H   0  0  0  0  0  0  0  0  0  0  0  0
   -0.0035    2.2221    0.2485 H   0  0  0  0  0  0  0  0  0  0  0  0
    1.6506   -1.3065    1.6099 H   0  0  0  0  0  0  0  0  0  0  0  0
    3.8048   -2.1983    2.3728 H   0  0  0  0  0  0  0  0  0  0  0  0
    5.9165   -1.2615    1.4523 H   0  0  0  0  0  0  0  0  0  0  0  0
    5.7883    0.5821   -0.2309 H   0  0  0  0  0  0  0  0  0  0  0  0
    3.1606    2.5908   -0.7613 H   0  0  0  0  0  0  0  0  0  0  0  0
    3.1739    1.3837   -2.1095 H   0  0  0  0  0  0  0  0  0  0  0  0
    4.7018    2.0319   -1.4587 H   0  0  0  0  0  0  0  0  0  0  0  0
    1.2912   -0.6845   -1.8498 H   0  0  0  0  0  0  0  0  0  0  0  0
    0.0602    0.5669   -1.8780 H   0  0  0  0  0  0  0  0  0  0  0  0
    0.1048   -1.8741   -0.0235 H   0  0  0  0  0  0  0  0  0  0  0  0
   -0.9799   -1.5912   -1.3682 H   0  0  0  0  0  0  0  0  0  0  0  0
  1  2  1  0
  2  3  2  0
  3  4  1  0
  4  5  2  0
  5  6  1  0
  5  7  1  0
  7  8  2  0
  8  9  1  0
  9 10  1  0
 10 11  1  0
 11 12  1  0
 12 13  1  0
 13 14  2  0
 14 15  1  0
 15 16  2  0
 16 17  1  0
 17 18  2  0
 18 19  1  0
 12 20  1  0
 20 21  1  0
  8  2  1  0
 21  9  1  0
 18 13  1  0
  1 22  1  0
  1 23  1  0
  1 24  1  0
  3 25  1  0
  4 26  1  0
  7 27  1  0
 10 28  1  0
 10 29  1  0
 11 30  1  0
 11 31  1  0
 14 32  1  0
 15 33  1  0
 16 34  1  0
 17 35  1  0
 19 36  1  0
 19 37  1  0
 19 38  1  0
 20 39  1  0
 20 40  1  0
 21 41  1  0
 21 42  1  0
M  CHG  1  18   1
M  END
$$$$
