
     RDKit          3D

 34 35  0  0  0  0  0  0  0  0999 V2000
    5.3041    0.4550    1.8940 C   0  0  0  0  0  0  0  0  0  0  0  0
    4.8128    1.1037    0.6122 C   0  0  0  0  0  0  0  0  0  0  0  0
    3.3714    1.0035    0.4647 N   0  0  0  0  0  0  0  0  0  0  0  0
    2.5997    1.9517    1.0306 N   0  0  0  0  0  0  0  0  0  0  0  0
    1.3600    1.5921    0.6980 C   0  0  0  0  0  0  0  0  0  0  0  0
    1.3267    0.4115   -0.0727 C   0  0  0  0  0  0  0  0  0  0  0  0
    0.2040   -0.2802   -0.6181 C   0  0  0  0  0  0  0  0  0  0  0  0
   -1.0834    0.0493   -0.4250 C   0  0  0  0  0  0  0  0  0  0  0  0
   -2.1536   -0.7603   -1.0695 C   0  0  0  0  0  0  0  0  0  0  0  0
   -1.9023   -1.6009   -1.9269 O   0  0  0  0  0  0  0  0  0  0  0  0
   -3.5630   -0.4955   -0.6738 C   0  0  0  0  0  0  0  0  0  0  0  0
   -4.5683   -0.7343   -1.6204 C   0  0  0  0  0  0  0  0  0  0  0  0
   -5.9072   -0.5060   -1.2984 C   0  0  0  0  0  0  0  0  0  0  0  0
   -6.2492   -0.0486   -0.0269 C   0  0  0  0  0  0  0  0  0  0  0  0
   -5.2557    0.1736    0.9264 C   0  0  0  0  0  0  0  0  0  0  0  0
   -3.9140   -0.0530    0.6083 C   0  0  0  0  0  0  0  0  0  0  0  0
    2.6535    0.0395   -0.2065 C   0  0  0  0  0  0  0  0  0  0  0  0
    3.2990   -1.1079   -0.8978 C   0  0  0  0  0  0  0  0  0  0  0  0
    6.3915    0.5480    1.9740 H   0  0  0  0  0  0  0  0  0  0  0  0
    4.8554    0.9288    2.7735 H   0  0  0  0  0  0  0  0  0  0  0  0
    5.0489   -0.6094    1.9230 H   0  0  0  0  0  0  0  0  0  0  0  0
    5.2805    0.6402   -0.2621 H   0  0  0  0  0  0  0  0  0  0  0  0
    5.0729    2.1682    0.5958 H   0  0  0  0  0  0  0  0  0  0  0  0
    0.5391    2.2118    1.0325 H   0  0  0  0  0  0  0  0  0  0  0  0
    0.4172   -1.1472   -1.2422 H   0  0  0  0  0  0  0  0  0  0  0  0
   -1.3738    0.9027    0.1721 H   0  0  0  0  0  0  0  0  0  0  0  0
   -4.3098   -1.0983   -2.6133 H   0  0  0  0  0  0  0  0  0  0  0  0
   -6.6820   -0.6898   -2.0387 H   0  0  0  0  0  0  0  0  0  0  0  0
   -7.2928    0.1255    0.2245 H   0  0  0  0  0  0  0  0  0  0  0  0
   -5.5285    0.5148    1.9224 H   0  0  0  0  0  0  0  0  0  0  0  0
   -3.1658    0.0975    1.3813 H   0  0  0  0  0  0  0  0  0  0  0  0
    3.7720   -0.7734   -1.8265 H   0  0  0  0  0  0  0  0  0  0  0  0
    4.0635   -1.5696   -0.2648 H   0  0  0  0  0  0  0  0  0  0  0  0
    2.5770   -1.8896   -1.1497 H   0  0  0  0  0  0  0  0  0  0  0  0
  1  2  1  0
  2  3  1  0
  3  4  1  0
  4  5  2  0
  5  6  1  0
  6  7  1  0
  7  8  2  3
  8  9  1  0
  9 10  2  0
  9 11  1  0
 11 12  2  0
 12 13  1  0
 13 14  2  0
 14 15  1  0
 15 16  2  0
  6 17  2  0
 17 18  1  0
 17  3  1  0
 16 11  1  0
  1 19  1  0
  1 20  1  0
  1 21  1  0
  2 22  1  0
  2 23  1  0
  5 24  1  0
  7 25  1  0
  8 26  1  0
 12 27  1  0
 13 28  1  0
 14 29  1  0
 15 30  1  0
 16 31  1  0
 18 32  1  0
 18 33  1  0
 18 34  1  0
M  END
$$$$
