
     RDKit          3D

 54 57  0  0  0  0  0  0  0  0999 V2000
   -4.1152   -5.3315    1.5712 C   0  0  0  0  0  0  0  0  0  0  0  0
   -3.0808   -5.3974    0.5970 O   0  0  0  0  0  0  0  0  0  0  0  0
   -2.4703   -4.2206    0.2614 C   0  0  0  0  0  0  0  0  0  0  0  0
   -1.4919   -4.3360   -0.7322 C   0  0  0  0  0  0  0  0  0  0  0  0
   -0.7850   -3.2149   -1.1708 C   0  0  0  0  0  0  0  0  0  0  0  0
   -1.0414   -1.9720   -0.5902 C   0  0  0  0  0  0  0  0  0  0  0  0
   -0.3262   -0.7595   -1.0551 C   0  0  0  0  0  0  0  0  0  0  0  0
   -1.0456    0.1579   -1.6211 N   0  0  0  0  0  0  0  0  0  0  0  0
   -0.4154    1.3158   -2.0848 C   0  0  0  0  0  0  0  0  0  0  0  0
   -1.1972    2.3351   -2.6336 C   0  0  0  0  0  0  0  0  0  0  0  0
   -0.6058    3.5055   -3.1173 C   0  0  0  0  0  0  0  0  0  0  0  0
    0.7781    3.6643   -3.0581 C   0  0  0  0  0  0  0  0  0  0  0  0
    1.5680    2.6525   -2.5147 C   0  0  0  0  0  0  0  0  0  0  0  0
    0.9633    1.4854   -2.0317 C   0  0  0  0  0  0  0  0  0  0  0  0
    1.7630    0.4060   -1.4317 C   0  0  0  0  0  0  0  0  0  0  0  0
    2.9895    0.4801   -1.4696 O   0  0  0  0  0  0  0  0  0  0  0  0
    1.0528   -0.6578   -0.8687 N   0  0  0  0  0  0  0  0  0  0  0  0
    1.8323   -1.5908   -0.0357 C   0  0  0  0  0  0  0  0  0  0  0  0
    1.5896   -1.4289    1.4763 C   0  0  0  0  0  0  0  0  0  0  0  0
    2.2678   -0.3009    2.0392 O   0  0  0  0  0  0  0  0  0  0  0  0
    1.6987    0.9333    1.8717 C   0  0  0  0  0  0  0  0  0  0  0  0
    0.3202    1.1659    1.9007 C   0  0  0  0  0  0  0  0  0  0  0  0
   -0.1957    2.4483    1.6690 C   0  0  0  0  0  0  0  0  0  0  0  0
   -1.6748    2.6942    1.6573 C   0  0  0  0  0  0  0  0  0  0  0  0
    0.6875    3.5069    1.4437 C   0  0  0  0  0  0  0  0  0  0  0  0
    2.0653    3.2912    1.4642 C   0  0  0  0  0  0  0  0  0  0  0  0
    2.5835    2.0094    1.6951 C   0  0  0  0  0  0  0  0  0  0  0  0
    4.0714    1.7966    1.6841 C   0  0  0  0  0  0  0  0  0  0  0  0
   -2.0426   -1.8398    0.3759 C   0  0  0  0  0  0  0  0  0  0  0  0
   -2.7483   -2.9665    0.8096 C   0  0  0  0  0  0  0  0  0  0  0  0
   -4.9472   -4.7109    1.2212 H   0  0  0  0  0  0  0  0  0  0  0  0
   -4.4968   -6.3461    1.7226 H   0  0  0  0  0  0  0  0  0  0  0  0
   -3.7307   -4.9739    2.5325 H   0  0  0  0  0  0  0  0  0  0  0  0
   -1.2913   -5.3082   -1.1772 H   0  0  0  0  0  0  0  0  0  0  0  0
   -0.0533   -3.3158   -1.9680 H   0  0  0  0  0  0  0  0  0  0  0  0
   -2.2757    2.2110   -2.6843 H   0  0  0  0  0  0  0  0  0  0  0  0
   -1.2266    4.2903   -3.5413 H   0  0  0  0  0  0  0  0  0  0  0  0
    1.2408    4.5737   -3.4330 H   0  0  0  0  0  0  0  0  0  0  0  0
    2.6472    2.7729   -2.4588 H   0  0  0  0  0  0  0  0  0  0  0  0
    2.9028   -1.4652   -0.2322 H   0  0  0  0  0  0  0  0  0  0  0  0
    1.5842   -2.6137   -0.3275 H   0  0  0  0  0  0  0  0  0  0  0  0
    0.5334   -1.4633    1.7508 H   0  0  0  0  0  0  0  0  0  0  0  0
    2.0399   -2.3007    1.9668 H   0  0  0  0  0  0  0  0  0  0  0  0
   -0.3726    0.3617    2.1142 H   0  0  0  0  0  0  0  0  0  0  0  0
   -1.9799    3.1150    0.6938 H   0  0  0  0  0  0  0  0  0  0  0  0
   -2.2385    1.7676    1.8095 H   0  0  0  0  0  0  0  0  0  0  0  0
   -1.9472    3.3898    2.4573 H   0  0  0  0  0  0  0  0  0  0  0  0
    0.3075    4.5083    1.2542 H   0  0  0  0  0  0  0  0  0  0  0  0
    2.7351    4.1302    1.2915 H   0  0  0  0  0  0  0  0  0  0  0  0
    4.3805    1.3256    0.7462 H   0  0  0  0  0  0  0  0  0  0  0  0
    4.6091    2.7457    1.7871 H   0  0  0  0  0  0  0  0  0  0  0  0
    4.3777    1.1638    2.5236 H   0  0  0  0  0  0  0  0  0  0  0  0
   -2.2795   -0.8609    0.7858 H   0  0  0  0  0  0  0  0  0  0  0  0
   -3.5139   -2.8287    1.5661 H   0  0  0  0  0  0  0  0  0  0  0  0
  1  2  1  0
  2  3  1  0
  3  4  2  0
  4  5  1  0
  5  6  2  0
  6  7  1  0
  7  8  2  0
  8  9  1  0
  9 10  2  0
 10 11  1  0
 11 12  2  0
 12 13  1  0
 13 14  2  0
 14 15  1  0
 15 16  2  0
 15 17  1  0
 17 18  1  0
 18 19  1  0
 19 20  1  0
 20 21  1  0
 21 22  2  0
 22 23  1  0
 23 24  1  0
 23 25  2  0
 25 26  1  0
 26 27  2  0
 27 28  1  0
  6 29  1  0
 29 30  2  0
 30  3  1  0
 17  7  1  0
 27 21  1  0
 14  9  1  0
  1 31  1  0
  1 32  1  0
  1 33  1  0
  4 34  1  0
  5 35  1  0
 10 36  1  0
 11 37  1  0
 12 38  1  0
 13 39  1  0
 18 40  1  0
 18 41  1  0
 19 42  1  0
 19 43  1  0
 22 44  1  0
 24 45  1  0
 24 46  1  0
 24 47  1  0
 25 48  1  0
 26 49  1  0
 28 50  1  0
 28 51  1  0
 28 52  1  0
 29 53  1  0
 30 54  1  0
M  END
$$$$
