
     RDKit          3D

 64 67  0  0  0  0  0  0  0  0999 V2000
    9.4736   -1.2493    0.0219 C   0  0  0  0  0  0  0  0  0  0  0  0
    8.2656   -1.6553   -0.6151 O   0  0  0  0  0  0  0  0  0  0  0  0
    7.0977   -1.2453   -0.0314 C   0  0  0  0  0  0  0  0  0  0  0  0
    6.9834   -0.2915    0.9806 C   0  0  0  0  0  0  0  0  0  0  0  0
    5.7285    0.0276    1.5128 C   0  0  0  0  0  0  0  0  0  0  0  0
    4.5755   -0.5938    1.0285 C   0  0  0  0  0  0  0  0  0  0  0  0
    3.2786   -0.3449    1.5321 N   0  0  0  0  0  0  0  0  0  0  0  0
    2.8943    0.5608    2.4985 C   0  0  0  0  0  0  0  0  0  0  0  0
    3.6178    1.3967    3.0376 O   0  0  0  0  0  0  0  0  0  0  0  0
    1.4404    0.4150    2.9131 C   0  0  0  0  0  0  0  0  0  0  0  0
    0.3546    1.4644    1.9094 S   0  0  0  0  0  0  0  0  0  0  0  0
   -0.0794    0.3499    0.6646 C   0  0  0  0  0  0  0  0  0  0  0  0
    0.6922   -0.5931    0.1815 N   0  0  0  0  0  0  0  0  0  0  0  0
   -0.0326   -1.2881   -0.7511 N   0  0  0  0  0  0  0  0  0  0  0  0
   -1.2446   -0.7658   -0.8065 C   0  0  0  0  0  0  0  0  0  0  0  0
   -2.3766   -1.2631   -1.6480 C   0  0  0  0  0  0  0  0  0  0  0  0
   -3.3980   -2.0259   -0.8487 C   0  0  0  0  0  0  0  0  0  0  0  0
   -3.2057   -2.9266    0.1891 C   0  0  0  0  0  0  0  0  0  0  0  0
   -4.4743   -3.3539    0.6415 C   0  0  0  0  0  0  0  0  0  0  0  0
   -5.4159   -2.7232   -0.1382 C   0  0  0  0  0  0  0  0  0  0  0  0
   -4.7609   -1.9317   -1.0463 N   0  0  0  0  0  0  0  0  0  0  0  0
   -5.4378   -1.1008   -2.0201 C   0  0  0  0  0  0  0  0  0  0  0  0
   -1.3070    0.3032    0.0621 N   0  0  0  0  0  0  0  0  0  0  0  0
   -2.4501    1.1581    0.3080 C   0  0  0  0  0  0  0  0  0  0  0  0
   -2.4213    2.4202   -0.5546 C   0  0  0  0  0  0  0  0  0  0  0  0
   -3.6571    3.2607   -0.3439 C   0  0  0  0  0  0  0  0  0  0  0  0
   -3.7949    4.0348    0.8162 C   0  0  0  0  0  0  0  0  0  0  0  0
   -4.9449    4.7977    1.0242 C   0  0  0  0  0  0  0  0  0  0  0  0
   -5.9654    4.7954    0.0765 C   0  0  0  0  0  0  0  0  0  0  0  0
   -5.8386    4.0283   -1.0804 C   0  0  0  0  0  0  0  0  0  0  0  0
   -4.6906    3.2636   -1.2910 C   0  0  0  0  0  0  0  0  0  0  0  0
    4.6885   -1.5451   -0.0052 C   0  0  0  0  0  0  0  0  0  0  0  0
    3.5165   -2.1502   -0.3895 O   0  0  0  0  0  0  0  0  0  0  0  0
    3.4793   -2.6705   -1.7126 C   0  0  0  0  0  0  0  0  0  0  0  0
    5.9447   -1.8615   -0.5284 C   0  0  0  0  0  0  0  0  0  0  0  0
    9.6465   -0.1755   -0.1243 H   0  0  0  0  0  0  0  0  0  0  0  0
   10.3034   -1.7899   -0.4490 H   0  0  0  0  0  0  0  0  0  0  0  0
    9.4748   -1.5130    1.0883 H   0  0  0  0  0  0  0  0  0  0  0  0
    7.8501    0.2230    1.3862 H   0  0  0  0  0  0  0  0  0  0  0  0
    5.6858    0.7581    2.3129 H   0  0  0  0  0  0  0  0  0  0  0  0
    2.5400   -0.8518    1.0322 H   0  0  0  0  0  0  0  0  0  0  0  0
    1.1282   -0.6355    2.8820 H   0  0  0  0  0  0  0  0  0  0  0  0
    1.3590    0.7288    3.9586 H   0  0  0  0  0  0  0  0  0  0  0  0
   -1.9791   -1.9290   -2.4240 H   0  0  0  0  0  0  0  0  0  0  0  0
   -2.8342   -0.4143   -2.1685 H   0  0  0  0  0  0  0  0  0  0  0  0
   -2.2437   -3.2308    0.5864 H   0  0  0  0  0  0  0  0  0  0  0  0
   -4.6798   -4.0460    1.4477 H   0  0  0  0  0  0  0  0  0  0  0  0
   -6.4984   -2.7777   -0.1097 H   0  0  0  0  0  0  0  0  0  0  0  0
   -4.9632   -1.2357   -2.9955 H   0  0  0  0  0  0  0  0  0  0  0  0
   -5.3642   -0.0607   -1.6884 H   0  0  0  0  0  0  0  0  0  0  0  0
   -6.4871   -1.3991   -2.0846 H   0  0  0  0  0  0  0  0  0  0  0  0
   -3.3598    0.5821    0.1118 H   0  0  0  0  0  0  0  0  0  0  0  0
   -2.4770    1.3983    1.3766 H   0  0  0  0  0  0  0  0  0  0  0  0
   -2.3353    2.1496   -1.6164 H   0  0  0  0  0  0  0  0  0  0  0  0
   -1.5322    3.0274   -0.3349 H   0  0  0  0  0  0  0  0  0  0  0  0
   -3.0073    4.0509    1.5681 H   0  0  0  0  0  0  0  0  0  0  0  0
   -5.0436    5.3967    1.9258 H   0  0  0  0  0  0  0  0  0  0  0  0
   -6.8582    5.3938    0.2400 H   0  0  0  0  0  0  0  0  0  0  0  0
   -6.6329    4.0316   -1.8208 H   0  0  0  0  0  0  0  0  0  0  0  0
   -4.6083    2.6785   -2.2030 H   0  0  0  0  0  0  0  0  0  0  0  0
    4.0915   -3.5733   -1.8026 H   0  0  0  0  0  0  0  0  0  0  0  0
    3.7848   -1.9179   -2.4479 H   0  0  0  0  0  0  0  0  0  0  0  0
    2.4439   -2.9524   -1.9318 H   0  0  0  0  0  0  0  0  0  0  0  0
    6.0608   -2.6126   -1.3022 H   0  0  0  0  0  0  0  0  0  0  0  0
  1  2  1  0
  2  3  1  0
  3  4  2  0
  4  5  1  0
  5  6  2  0
  6  7  1  0
  7  8  1  0
  8  9  2  0
  8 10  1  0
 10 11  1  0
 11 12  1  0
 12 13  2  0
 13 14  1  0
 14 15  2  0
 15 16  1  0
 16 17  1  0
 17 18  2  0
 18 19  1  0
 19 20  2  0
 20 21  1  0
 21 22  1  0
 15 23  1  0
 23 24  1  0
 24 25  1  0
 25 26  1  0
 26 27  2  0
 27 28  1  0
 28 29  2  0
 29 30  1  0
 30 31  2  0
  6 32  1  0
 32 33  1  0
 33 34  1  0
 32 35  2  0
 35  3  1  0
 23 12  1  0
 31 26  1  0
 21 17  1  0
  1 36  1  0
  1 37  1  0
  1 38  1  0
  4 39  1  0
  5 40  1  0
  7 41  1  0
 10 42  1  0
 10 43  1  0
 16 44  1  0
 16 45  1  0
 18 46  1  0
 19 47  1  0
 20 48  1  0
 22 49  1  0
 22 50  1  0
 22 51  1  0
 24 52  1  0
 24 53  1  0
 25 54  1  0
 25 55  1  0
 27 56  1  0
 28 57  1  0
 29 58  1  0
 30 59  1  0
 31 60  1  0
 34 61  1  0
 34 62  1  0
 34 63  1  0
 35 64  1  0
M  END
$$$$
