
     RDKit          3D

 47 49  0  0  0  0  0  0  0  0999 V2000
    8.1403    0.4630   -0.4921 C   0  0  0  0  0  0  0  0  0  0  0  0
    6.7739    0.9118   -0.9891 C   0  0  0  0  0  0  0  0  0  0  0  0
    5.6545    0.2766   -0.2036 C   0  0  0  0  0  0  0  0  0  0  0  0
    5.1887   -1.0015   -0.5377 C   0  0  0  0  0  0  0  0  0  0  0  0
    4.1639   -1.5958    0.2025 C   0  0  0  0  0  0  0  0  0  0  0  0
    3.5851   -0.9206    1.2792 C   0  0  0  0  0  0  0  0  0  0  0  0
    2.5417   -1.5121    2.0025 N   0  0  0  0  0  0  0  0  0  0  0  0
    1.3286   -1.3005    1.6241 C   0  0  0  0  0  0  0  0  0  0  0  0
    0.9079   -0.5379    0.5828 N   0  0  0  0  0  0  0  0  0  0  0  0
   -0.4366   -0.4348    0.3675 C   0  0  0  0  0  0  0  0  0  0  0  0
   -0.9286    0.2518   -0.5126 O   0  0  0  0  0  0  0  0  0  0  0  0
   -1.1732   -1.2636    1.3673 C   0  0  0  0  0  0  0  0  0  0  0  0
   -2.4967   -1.4409    1.4768 C   0  0  0  0  0  0  0  0  0  0  0  0
   -3.5072   -0.8438    0.6013 C   0  0  0  0  0  0  0  0  0  0  0  0
   -4.2858    0.2241    1.0754 C   0  0  0  0  0  0  0  0  0  0  0  0
   -5.2633    0.7997    0.2596 C   0  0  0  0  0  0  0  0  0  0  0  0
   -6.0920    1.8391    0.6028 O   0  0  0  0  0  0  0  0  0  0  0  0
   -5.9195    2.3922    1.9026 C   0  0  0  0  0  0  0  0  0  0  0  0
   -5.4519    0.2975   -1.0348 C   0  0  0  0  0  0  0  0  0  0  0  0
   -6.4236    0.8498   -1.8313 O   0  0  0  0  0  0  0  0  0  0  0  0
   -4.6688   -0.7540   -1.5152 C   0  0  0  0  0  0  0  0  0  0  0  0
   -4.8545   -1.2860   -2.7636 O   0  0  0  0  0  0  0  0  0  0  0  0
   -4.2345   -0.4571   -3.7487 C   0  0  0  0  0  0  0  0  0  0  0  0
   -3.7121   -1.3414   -0.6907 C   0  0  0  0  0  0  0  0  0  0  0  0
   -0.0371   -2.0074    2.4469 S   0  0  0  0  0  0  0  0  0  0  0  0
    4.0659    0.3415    1.6323 C   0  0  0  0  0  0  0  0  0  0  0  0
    5.0917    0.9394    0.8949 C   0  0  0  0  0  0  0  0  0  0  0  0
    8.9304    0.9395   -1.0809 H   0  0  0  0  0  0  0  0  0  0  0  0
    8.2596   -0.6240   -0.5805 H   0  0  0  0  0  0  0  0  0  0  0  0
    8.2902    0.7332    0.5607 H   0  0  0  0  0  0  0  0  0  0  0  0
    6.6624    0.6623   -2.0519 H   0  0  0  0  0  0  0  0  0  0  0  0
    6.6991    2.0052   -0.9247 H   0  0  0  0  0  0  0  0  0  0  0  0
    5.6268   -1.5463   -1.3714 H   0  0  0  0  0  0  0  0  0  0  0  0
    3.8184   -2.5928   -0.0582 H   0  0  0  0  0  0  0  0  0  0  0  0
    1.5489   -0.0337   -0.0090 H   0  0  0  0  0  0  0  0  0  0  0  0
   -2.9032   -2.0667    2.2685 H   0  0  0  0  0  0  0  0  0  0  0  0
   -4.1098    0.5853    2.0823 H   0  0  0  0  0  0  0  0  0  0  0  0
   -6.6330    3.2135    2.0128 H   0  0  0  0  0  0  0  0  0  0  0  0
   -4.9147    2.8100    2.0267 H   0  0  0  0  0  0  0  0  0  0  0  0
   -6.1405    1.6525    2.6782 H   0  0  0  0  0  0  0  0  0  0  0  0
   -6.8481    1.5345   -1.2778 H   0  0  0  0  0  0  0  0  0  0  0  0
   -3.1421   -0.5426   -3.6788 H   0  0  0  0  0  0  0  0  0  0  0  0
   -4.5416   -0.8217   -4.7349 H   0  0  0  0  0  0  0  0  0  0  0  0
   -4.5341    0.5946   -3.6709 H   0  0  0  0  0  0  0  0  0  0  0  0
   -3.1247   -2.1752   -1.0685 H   0  0  0  0  0  0  0  0  0  0  0  0
    3.6447    0.8609    2.4887 H   0  0  0  0  0  0  0  0  0  0  0  0
    5.4543    1.9225    1.1886 H   0  0  0  0  0  0  0  0  0  0  0  0
  1  2  1  0
  2  3  1  0
  3  4  2  0
  4  5  1  0
  5  6  2  0
  6  7  1  0
  7  8  2  3
  8  9  1  0
  9 10  1  0
 10 11  2  0
 10 12  1  0
 12 13  2  3
 13 14  1  0
 14 15  2  0
 15 16  1  0
 16 17  1  0
 17 18  1  0
 16 19  2  0
 19 20  1  0
 19 21  1  0
 21 22  1  0
 22 23  1  0
 21 24  2  0
 12 25  1  0
  6 26  1  0
 26 27  2  0
 27  3  1  0
 25  8  1  0
 24 14  1  0
  1 28  1  0
  1 29  1  0
  1 30  1  0
  2 31  1  0
  2 32  1  0
  4 33  1  0
  5 34  1  0
  9 35  1  0
 13 36  1  0
 15 37  1  0
 18 38  1  0
 18 39  1  0
 18 40  1  0
 20 41  1  0
 23 42  1  0
 23 43  1  0
 23 44  1  0
 24 45  1  0
 26 46  1  0
 27 47  1  0
M  END
$$$$
