
     RDKit          3D

 37 39  0  0  0  0  0  0  0  0999 V2000
    4.5430    0.4297   -0.0989 N   0  0  0  0  0  0  0  0  0  0  0  0
    3.4302    0.2433    0.8229 C   0  0  0  0  0  0  0  0  0  0  0  0
    2.1377   -0.0221    0.0542 C   0  0  0  0  0  0  0  0  0  0  0  0
    0.9554   -0.1656    1.0236 C   0  0  0  0  0  0  0  0  0  0  0  0
   -0.3104   -0.4614    0.3126 N   0  0  0  0  0  0  0  0  0  0  0  0
   -0.6622   -1.8355    0.1600 C   0  0  0  0  0  0  0  0  0  0  0  0
    0.2816   -2.8773    0.3144 C   0  0  0  0  0  0  0  0  0  0  0  0
   -0.0504   -4.2285    0.1542 C   0  0  0  0  0  0  0  0  0  0  0  0
   -1.3463   -4.5884   -0.1722 C   0  0  0  0  0  0  0  0  0  0  0  0
   -2.3016   -3.5932   -0.3395 C   0  0  0  0  0  0  0  0  0  0  0  0
   -1.9712   -2.2320   -0.1817 C   0  0  0  0  0  0  0  0  0  0  0  0
   -3.3165   -1.0933   -0.4028 S   0  0  0  0  0  0  0  0  0  0  0  0
   -2.4862    0.4768   -0.4046 C   0  0  0  0  0  0  0  0  0  0  0  0
   -3.2847    1.5788   -0.7677 C   0  0  0  0  0  0  0  0  0  0  0  0
   -2.7656    2.8688   -0.7885 C   0  0  0  0  0  0  0  0  0  0  0  0
   -1.4342    3.0798   -0.4400 C   0  0  0  0  0  0  0  0  0  0  0  0
   -0.8340    4.4634   -0.4812 C   0  0  0  0  0  0  0  0  0  0  0  0
   -1.7535    5.4531   -0.3044 F   0  0  0  0  0  0  0  0  0  0  0  0
    0.1104    4.6604    0.4812 F   0  0  0  0  0  0  0  0  0  0  0  0
   -0.2216    4.7283   -1.6671 F   0  0  0  0  0  0  0  0  0  0  0  0
   -0.6401    1.9703   -0.0848 C   0  0  0  0  0  0  0  0  0  0  0  0
   -1.1347    0.6453   -0.0440 C   0  0  0  0  0  0  0  0  0  0  0  0
    4.6706   -0.4046   -0.6711 H   0  0  0  0  0  0  0  0  0  0  0  0
    5.4086    0.5529    0.4255 H   0  0  0  0  0  0  0  0  0  0  0  0
    3.6507   -0.5948    1.4932 H   0  0  0  0  0  0  0  0  0  0  0  0
    3.3251    1.1439    1.4373 H   0  0  0  0  0  0  0  0  0  0  0  0
    1.9548    0.7932   -0.6551 H   0  0  0  0  0  0  0  0  0  0  0  0
    2.2489   -0.9268   -0.5547 H   0  0  0  0  0  0  0  0  0  0  0  0
    1.1718   -0.9354    1.7761 H   0  0  0  0  0  0  0  0  0  0  0  0
    0.8582    0.7380    1.6399 H   0  0  0  0  0  0  0  0  0  0  0  0
    1.3207   -2.6732    0.5488 H   0  0  0  0  0  0  0  0  0  0  0  0
    0.7118   -4.9931    0.2810 H   0  0  0  0  0  0  0  0  0  0  0  0
   -1.6146   -5.6333   -0.2992 H   0  0  0  0  0  0  0  0  0  0  0  0
   -3.3186   -3.8840   -0.5959 H   0  0  0  0  0  0  0  0  0  0  0  0
   -4.3290    1.4319   -1.0395 H   0  0  0  0  0  0  0  0  0  0  0  0
   -3.4046    3.7012   -1.0779 H   0  0  0  0  0  0  0  0  0  0  0  0
    0.4006    2.1834    0.1458 H   0  0  0  0  0  0  0  0  0  0  0  0
  1  2  1  0
  2  3  1  0
  3  4  1  0
  4  5  1  0
  5  6  1  0
  6  7  2  0
  7  8  1  0
  8  9  2  0
  9 10  1  0
 10 11  2  0
 11 12  1  0
 12 13  1  0
 13 14  2  0
 14 15  1  0
 15 16  2  0
 16 17  1  0
 17 18  1  0
 17 19  1  0
 17 20  1  0
 16 21  1  0
 21 22  2  0
 22  5  1  0
 11  6  1  0
 22 13  1  0
  1 23  1  0
  1 24  1  0
  2 25  1  0
  2 26  1  0
  3 27  1  0
  3 28  1  0
  4 29  1  0
  4 30  1  0
  7 31  1  0
  8 32  1  0
  9 33  1  0
 10 34  1  0
 14 35  1  0
 15 36  1  0
 21 37  1  0
M  END
$$$$
