
     RDKit          3D

 85 89  0  0  0  0  0  0  0  0999 V2000
    5.6257   -1.9076    2.5828 C   0  0  0  0  0  0  0  0  0  0  0  0
    5.6538   -0.9248    1.4181 C   0  0  0  0  0  0  0  0  0  0  0  0
    4.6653    0.2478    1.5483 C   0  0  0  0  0  0  0  0  0  0  0  0
    3.3462   -0.3143    1.5039 O   0  0  0  0  0  0  0  0  0  0  0  0
    2.2939    0.6556    1.4883 C   0  0  0  0  0  0  0  0  0  0  0  0
    2.3742    1.5274    2.7479 C   0  0  0  0  0  0  0  0  0  0  0  0
    3.7507    2.1704    2.8899 C   0  0  0  0  0  0  0  0  0  0  0  0
    4.8488    1.1015    2.8206 C   0  0  0  0  0  0  0  0  0  0  0  0
    6.2251    1.7611    2.8938 C   0  0  0  0  0  0  0  0  0  0  0  0
    0.9817   -0.1290    1.4946 C   0  0  0  0  0  0  0  0  0  0  0  0
    0.7683   -0.8423    0.1582 C   0  0  0  0  0  0  0  0  0  0  0  0
    0.9900    0.1010   -1.0309 C   0  0  0  0  0  0  0  0  0  0  0  0
    1.3329    1.5168   -0.5697 C   0  0  0  0  0  0  0  0  0  0  0  0
    1.7584    2.4518   -1.7136 C   0  0  0  0  0  0  0  0  0  0  0  0
    0.8640    2.5564   -2.9144 C   0  0  0  0  0  0  0  0  0  0  0  0
   -0.3930    3.0369   -2.9905 C   0  0  0  0  0  0  0  0  0  0  0  0
   -1.0526    3.1276   -4.3445 C   0  0  0  0  0  0  0  0  0  0  0  0
   -1.1944    3.5529   -1.8055 C   0  0  0  0  0  0  0  0  0  0  0  0
   -2.4187    2.6694   -1.4507 C   0  0  0  0  0  0  0  0  0  0  0  0
   -3.6475    3.0719   -2.2827 C   0  0  0  0  0  0  0  0  0  0  0  0
   -2.8084    2.7996    0.0044 C   0  0  0  0  0  0  0  0  0  0  0  0
   -3.0175    1.8573    0.9384 C   0  0  0  0  0  0  0  0  0  0  0  0
   -2.8978    0.4152    0.9174 C   0  0  0  0  0  0  0  0  0  0  0  0
   -3.4499   -0.4923    0.0895 C   0  0  0  0  0  0  0  0  0  0  0  0
   -4.2909   -0.2456   -1.1345 C   0  0  0  0  0  0  0  0  0  0  0  0
   -4.4312   -1.5116   -1.8250 O   0  0  0  0  0  0  0  0  0  0  0  0
   -3.4455   -2.3820   -1.2390 C   0  0  0  0  0  0  0  0  0  0  0  0
   -3.8253   -3.8506   -1.4423 C   0  0  0  0  0  0  0  0  0  0  0  0
   -3.5024   -4.2274   -2.7791 O   0  0  0  0  0  0  0  0  0  0  0  0
   -3.0994   -4.7625   -0.4731 C   0  0  0  0  0  0  0  0  0  0  0  0
   -3.1966   -6.2390   -0.7436 C   0  0  0  0  0  0  0  0  0  0  0  0
   -2.4270   -4.2867    0.5968 C   0  0  0  0  0  0  0  0  0  0  0  0
   -2.3135   -2.8062    0.9744 C   0  0  0  0  0  0  0  0  0  0  0  0
   -0.8386   -2.4473    0.8389 C   0  0  0  0  0  0  0  0  0  0  0  0
    0.0398   -3.0967    1.4032 O   0  0  0  0  0  0  0  0  0  0  0  0
   -0.5945   -1.3372    0.1027 O   0  0  0  0  0  0  0  0  0  0  0  0
   -3.3918   -1.9899    0.2364 C   0  0  0  0  0  0  0  0  0  0  0  0
   -4.6618   -2.2714    0.8958 O   0  0  0  0  0  0  0  0  0  0  0  0
    2.4310    1.4976    0.3457 O   0  0  0  0  0  0  0  0  0  0  0  0
    5.9984   -1.4474    3.5024 H   0  0  0  0  0  0  0  0  0  0  0  0
    4.6153   -2.2860    2.7661 H   0  0  0  0  0  0  0  0  0  0  0  0
    6.2680   -2.7671    2.3630 H   0  0  0  0  0  0  0  0  0  0  0  0
    6.6756   -0.5494    1.2877 H   0  0  0  0  0  0  0  0  0  0  0  0
    5.4039   -1.4858    0.5084 H   0  0  0  0  0  0  0  0  0  0  0  0
    4.8037    0.8801    0.6595 H   0  0  0  0  0  0  0  0  0  0  0  0
    1.6143    2.3181    2.7176 H   0  0  0  0  0  0  0  0  0  0  0  0
    2.1844    0.9160    3.6390 H   0  0  0  0  0  0  0  0  0  0  0  0
    3.8968    2.9147    2.0972 H   0  0  0  0  0  0  0  0  0  0  0  0
    3.8048    2.7099    3.8427 H   0  0  0  0  0  0  0  0  0  0  0  0
    4.7199    0.4648    3.7052 H   0  0  0  0  0  0  0  0  0  0  0  0
    7.0227    1.0161    2.9607 H   0  0  0  0  0  0  0  0  0  0  0  0
    6.4123    2.3848    2.0124 H   0  0  0  0  0  0  0  0  0  0  0  0
    6.3028    2.3989    3.7813 H   0  0  0  0  0  0  0  0  0  0  0  0
    0.1304    0.5349    1.6909 H   0  0  0  0  0  0  0  0  0  0  0  0
    0.9796   -0.8626    2.3093 H   0  0  0  0  0  0  0  0  0  0  0  0
    1.4591   -1.6877    0.0486 H   0  0  0  0  0  0  0  0  0  0  0  0
    1.8327   -0.2902   -1.6203 H   0  0  0  0  0  0  0  0  0  0  0  0
    0.1139    0.1122   -1.6920 H   0  0  0  0  0  0  0  0  0  0  0  0
    0.4724    1.9561   -0.0539 H   0  0  0  0  0  0  0  0  0  0  0  0
    2.7475    2.1269   -2.0701 H   0  0  0  0  0  0  0  0  0  0  0  0
    1.9420    3.4585   -1.3126 H   0  0  0  0  0  0  0  0  0  0  0  0
    1.3421    2.2225   -3.8346 H   0  0  0  0  0  0  0  0  0  0  0  0
   -0.3187    3.1274   -5.1582 H   0  0  0  0  0  0  0  0  0  0  0  0
   -1.7223    2.2772   -4.4997 H   0  0  0  0  0  0  0  0  0  0  0  0
   -1.6250    4.0587   -4.4341 H   0  0  0  0  0  0  0  0  0  0  0  0
   -0.5441    3.6476   -0.9288 H   0  0  0  0  0  0  0  0  0  0  0  0
   -1.5148    4.5827   -2.0214 H   0  0  0  0  0  0  0  0  0  0  0  0
   -2.1490    1.6293   -1.6560 H   0  0  0  0  0  0  0  0  0  0  0  0
   -4.5661    2.6037   -1.9091 H   0  0  0  0  0  0  0  0  0  0  0  0
   -3.8100    4.1562   -2.2636 H   0  0  0  0  0  0  0  0  0  0  0  0
   -3.5437    2.7688   -3.3268 H   0  0  0  0  0  0  0  0  0  0  0  0
   -2.9594    3.8319    0.3282 H   0  0  0  0  0  0  0  0  0  0  0  0
   -3.2787    2.2244    1.9354 H   0  0  0  0  0  0  0  0  0  0  0  0
   -2.3738    0.0390    1.7959 H   0  0  0  0  0  0  0  0  0  0  0  0
   -5.2936    0.1145   -0.8827 H   0  0  0  0  0  0  0  0  0  0  0  0
   -3.8195    0.4198   -1.8494 H   0  0  0  0  0  0  0  0  0  0  0  0
   -2.4945   -2.1680   -1.7498 H   0  0  0  0  0  0  0  0  0  0  0  0
   -4.9067   -3.9872   -1.3226 H   0  0  0  0  0  0  0  0  0  0  0  0
   -3.9872   -3.6039   -3.3537 H   0  0  0  0  0  0  0  0  0  0  0  0
   -4.2444   -6.5545   -0.7414 H   0  0  0  0  0  0  0  0  0  0  0  0
   -2.6727   -6.8315    0.0144 H   0  0  0  0  0  0  0  0  0  0  0  0
   -2.7586   -6.4854   -1.7170 H   0  0  0  0  0  0  0  0  0  0  0  0
   -1.9134   -4.9814    1.2646 H   0  0  0  0  0  0  0  0  0  0  0  0
   -2.5271   -2.7270    2.0494 H   0  0  0  0  0  0  0  0  0  0  0  0
   -4.7713   -3.2344    0.9671 H   0  0  0  0  0  0  0  0  0  0  0  0
  1  2  1  0
  2  3  1  0
  3  4  1  0
  4  5  1  0
  5  6  1  0
  6  7  1  0
  7  8  1  0
  8  9  1  0
  5 10  1  0
 10 11  1  0
 11 12  1  0
 12 13  1  0
 13 14  1  0
 14 15  1  0
 15 16  2  3
 16 17  1  0
 16 18  1  0
 18 19  1  0
 19 20  1  0
 19 21  1  0
 21 22  2  3
 22 23  1  0
 23 24  2  3
 24 25  1  0
 25 26  1  0
 26 27  1  0
 27 28  1  0
 28 29  1  0
 28 30  1  0
 30 31  1  0
 30 32  2  0
 32 33  1  0
 33 34  1  0
 34 35  2  0
 34 36  1  0
 33 37  1  0
 37 38  1  0
 13 39  1  0
  8  3  1  0
 36 11  1  0
 39  5  1  0
 37 24  1  0
 37 27  1  0
  1 40  1  0
  1 41  1  0
  1 42  1  0
  2 43  1  0
  2 44  1  0
  3 45  1  0
  6 46  1  0
  6 47  1  0
  7 48  1  0
  7 49  1  0
  8 50  1  0
  9 51  1  0
  9 52  1  0
  9 53  1  0
 10 54  1  0
 10 55  1  0
 11 56  1  0
 12 57  1  0
 12 58  1  0
 13 59  1  0
 14 60  1  0
 14 61  1  0
 15 62  1  0
 17 63  1  0
 17 64  1  0
 17 65  1  0
 18 66  1  0
 18 67  1  0
 19 68  1  0
 20 69  1  0
 20 70  1  0
 20 71  1  0
 21 72  1  0
 22 73  1  0
 23 74  1  0
 25 75  1  0
 25 76  1  0
 27 77  1  0
 28 78  1  0
 29 79  1  0
 31 80  1  0
 31 81  1  0
 31 82  1  0
 32 83  1  0
 33 84  1  0
 38 85  1  0
M  END
$$$$
