
     RDKit          3D

 97 99  0  0  0  0  0  0  0  0999 V2000
   -1.5194    4.9373    1.5872 C   0  0  0  0  0  0  0  0  0  0  0  0
   -1.2547    3.7554    0.7086 C   0  0  0  0  0  0  0  0  0  0  0  0
   -0.6797    3.8187   -0.3677 O   0  0  0  0  0  0  0  0  0  0  0  0
   -1.7777    2.6361    1.2647 O   0  0  0  0  0  0  0  0  0  0  0  0
   -1.6269    1.3571    0.5595 C   0  0  1  0  0  0  0  0  0  0  0  0
   -1.1902    0.3293    1.6307 C   0  0  2  0  0  0  0  0  0  0  0  0
   -2.0664    0.4413    2.7772 O   0  0  0  0  0  0  0  0  0  0  0  0
   -2.2100   -0.6566    3.5644 C   0  0  0  0  0  0  0  0  0  0  0  0
   -3.0863   -0.3280    4.7334 C   0  0  0  0  0  0  0  0  0  0  0  0
   -1.7108   -1.7543    3.3643 O   0  0  0  0  0  0  0  0  0  0  0  0
    0.2715    0.5258    2.0502 C   0  0  0  0  0  0  0  0  0  0  0  0
    0.5290    1.2976    3.3215 C   0  0  0  0  0  0  0  0  0  0  0  0
    1.3158    0.0303    1.3477 C   0  0  0  0  0  0  0  0  0  0  0  0
    1.2798   -0.6475   -0.0273 C   0  0  1  0  0  0  0  0  0  0  0  0
    2.4700   -0.1816   -0.9176 C   0  0  1  0  0  0  0  0  0  0  0  0
    2.8292    1.1887   -0.7150 O   0  0  0  0  0  0  0  0  0  0  0  0
    2.0974    2.0846   -1.4297 C   0  0  0  0  0  0  0  0  0  0  0  0
    1.2026    1.8024   -2.2124 O   0  0  0  0  0  0  0  0  0  0  0  0
    2.5811    3.4681   -1.1737 C   0  0  0  0  0  0  0  0  0  0  0  0
    3.5050    3.7679   -0.1606 C   0  0  0  0  0  0  0  0  0  0  0  0
    3.9374    5.0832    0.0275 C   0  0  0  0  0  0  0  0  0  0  0  0
    3.4525    6.1029   -0.7939 C   0  0  0  0  0  0  0  0  0  0  0  0
    2.5298    5.8129   -1.7998 C   0  0  0  0  0  0  0  0  0  0  0  0
    2.0943    4.5003   -1.9896 C   0  0  0  0  0  0  0  0  0  0  0  0
    3.6228   -1.1617   -0.6157 C   0  0  1  0  0  0  0  0  0  0  0  0
    4.8462   -0.5584    0.0618 C   0  0  0  0  0  0  0  0  0  0  0  0
    2.9895   -2.2903    0.2133 C   0  0  0  0  0  0  0  0  0  0  0  0
    1.4556   -2.2053   -0.0192 C   0  0  1  0  0  0  0  0  0  0  0  0
    0.7112   -2.7544    1.0956 O   0  0  0  0  0  0  0  0  0  0  0  0
    0.9726   -4.0067    1.5491 C   0  0  0  0  0  0  0  0  0  0  0  0
    0.0933   -4.3213    2.7178 C   0  0  0  0  0  0  0  0  0  0  0  0
    1.7982   -4.7856    1.0929 O   0  0  0  0  0  0  0  0  0  0  0  0
    0.9789   -2.8257   -1.3908 C   0  0  1  0  0  0  0  0  0  0  0  0
    1.6730   -4.0841   -1.6062 O   0  0  0  0  0  0  0  0  0  0  0  0
    2.4049   -4.2287   -2.7412 C   0  0  0  0  0  0  0  0  0  0  0  0
    2.9963   -5.6026   -2.7952 C   0  0  0  0  0  0  0  0  0  0  0  0
    2.5572   -3.3760   -3.6040 O   0  0  0  0  0  0  0  0  0  0  0  0
   -0.5536   -3.0638   -1.6400 C   0  0  1  0  0  0  0  0  0  0  0  0
   -0.9798   -4.5391   -1.4897 C   0  0  0  0  0  0  0  0  0  0  0  0
   -1.5551   -2.2256   -0.8703 C   0  0  0  0  0  0  0  0  0  0  0  0
   -2.1667   -1.1190   -1.3334 C   0  0  0  0  0  0  0  0  0  0  0  0
   -3.3370   -0.3715   -0.6764 C   0  0  0  0  0  0  0  0  0  0  0  0
   -4.0056   -1.1606    0.4747 C   0  0  0  0  0  0  0  0  0  0  0  0
   -4.4379   -0.2874   -1.7761 C   0  0  0  0  0  0  0  0  0  0  0  0
   -2.9683    1.0863   -0.1911 C   0  0  2  0  0  0  0  0  0  0  0  0
   -2.9130    1.9221   -1.3930 O   0  0  0  0  0  0  0  0  0  0  0  0
   -3.5941    3.0967   -1.3976 C   0  0  0  0  0  0  0  0  0  0  0  0
   -3.3639    3.8165   -2.6916 C   0  0  0  0  0  0  0  0  0  0  0  0
   -4.2702    3.5324   -0.4776 O   0  0  0  0  0  0  0  0  0  0  0  0
   -0.8361    5.7481    1.3176 H   0  0  0  0  0  0  0  0  0  0  0  0
   -2.5513    5.2711    1.4553 H   0  0  0  0  0  0  0  0  0  0  0  0
   -1.3339    4.6778    2.6350 H   0  0  0  0  0  0  0  0  0  0  0  0
   -0.8348    1.4585   -0.1898 H   0  0  0  0  0  0  0  0  0  0  0  0
   -1.2696   -0.6766    1.2261 H   0  0  0  0  0  0  0  0  0  0  0  0
   -3.2155   -1.2226    5.3507 H   0  0  0  0  0  0  0  0  0  0  0  0
   -4.0693   -0.0040    4.3817 H   0  0  0  0  0  0  0  0  0  0  0  0
   -2.6158    0.4517    5.3389 H   0  0  0  0  0  0  0  0  0  0  0  0
    0.1178    0.7747    4.1889 H   0  0  0  0  0  0  0  0  0  0  0  0
    1.5983    1.4397    3.5098 H   0  0  0  0  0  0  0  0  0  0  0  0
    0.0757    2.2917    3.2642 H   0  0  0  0  0  0  0  0  0  0  0  0
    2.3135    0.1784    1.7605 H   0  0  0  0  0  0  0  0  0  0  0  0
    0.3576   -0.3597   -0.5296 H   0  0  0  0  0  0  0  0  0  0  0  0
    2.2198   -0.3169   -1.9786 H   0  0  0  0  0  0  0  0  0  0  0  0
    3.8897    2.9880    0.4923 H   0  0  0  0  0  0  0  0  0  0  0  0
    4.6523    5.3148    0.8134 H   0  0  0  0  0  0  0  0  0  0  0  0
    3.7930    7.1250   -0.6510 H   0  0  0  0  0  0  0  0  0  0  0  0
    2.1505    6.6058   -2.4388 H   0  0  0  0  0  0  0  0  0  0  0  0
    1.3686    4.2813   -2.7696 H   0  0  0  0  0  0  0  0  0  0  0  0
    3.9558   -1.5885   -1.5711 H   0  0  0  0  0  0  0  0  0  0  0  0
    5.6011   -1.3291    0.2512 H   0  0  0  0  0  0  0  0  0  0  0  0
    5.3039    0.2073   -0.5740 H   0  0  0  0  0  0  0  0  0  0  0  0
    4.5933   -0.0978    1.0221 H   0  0  0  0  0  0  0  0  0  0  0  0
    3.4202   -3.2572   -0.0609 H   0  0  0  0  0  0  0  0  0  0  0  0
    3.2120   -2.1614    1.2815 H   0  0  0  0  0  0  0  0  0  0  0  0
    0.2992   -5.3392    3.0602 H   0  0  0  0  0  0  0  0  0  0  0  0
   -0.9547   -4.2644    2.4167 H   0  0  0  0  0  0  0  0  0  0  0  0
    0.3033   -3.6301    3.5368 H   0  0  0  0  0  0  0  0  0  0  0  0
    1.2800   -2.1334   -2.1818 H   0  0  0  0  0  0  0  0  0  0  0  0
    3.6210   -5.6928   -3.6879 H   0  0  0  0  0  0  0  0  0  0  0  0
    2.1987   -6.3474   -2.8507 H   0  0  0  0  0  0  0  0  0  0  0  0
    3.6225   -5.7766   -1.9154 H   0  0  0  0  0  0  0  0  0  0  0  0
   -0.7087   -2.8476   -2.7089 H   0  0  0  0  0  0  0  0  0  0  0  0
   -0.7793   -4.9162   -0.4814 H   0  0  0  0  0  0  0  0  0  0  0  0
   -0.4598   -5.1806   -2.2089 H   0  0  0  0  0  0  0  0  0  0  0  0
   -2.0529   -4.6612   -1.6810 H   0  0  0  0  0  0  0  0  0  0  0  0
   -1.8450   -2.6369    0.0966 H   0  0  0  0  0  0  0  0  0  0  0  0
   -1.8518   -0.7300   -2.3035 H   0  0  0  0  0  0  0  0  0  0  0  0
   -4.3939   -2.1230    0.1208 H   0  0  0  0  0  0  0  0  0  0  0  0
   -3.3298   -1.3827    1.2962 H   0  0  0  0  0  0  0  0  0  0  0  0
   -4.8551   -0.6056    0.8898 H   0  0  0  0  0  0  0  0  0  0  0  0
   -4.0756    0.1837   -2.6973 H   0  0  0  0  0  0  0  0  0  0  0  0
   -4.8000   -1.2851   -2.0571 H   0  0  0  0  0  0  0  0  0  0  0  0
   -5.3012    0.2900   -1.4251 H   0  0  0  0  0  0  0  0  0  0  0  0
   -3.7915    1.4420    0.4423 H   0  0  0  0  0  0  0  0  0  0  0  0
   -2.4237    4.3710   -2.6381 H   0  0  0  0  0  0  0  0  0  0  0  0
   -4.1930    4.5060   -2.8728 H   0  0  0  0  0  0  0  0  0  0  0  0
   -3.3337    3.1018   -3.5212 H   0  0  0  0  0  0  0  0  0  0  0  0
  1  2  1  0
  2  3  2  0
  2  4  1  0
  4  5  1  0
  5  6  1  0
  6  7  1  0
  7  8  1  0
  8  9  1  0
  8 10  2  0
  6 11  1  0
 11 12  1  0
 11 13  2  0
 13 14  1  0
 14 15  1  0
 15 16  1  0
 16 17  1  0
 17 18  2  0
 17 19  1  0
 19 20  2  0
 20 21  1  0
 21 22  2  0
 22 23  1  0
 23 24  2  0
 15 25  1  0
 25 26  1  0
 25 27  1  0
 27 28  1  0
 28 29  1  1
 29 30  1  0
 30 31  1  0
 30 32  2  0
 28 33  1  0
 33 34  1  0
 34 35  1  0
 35 36  1  0
 35 37  2  0
 33 38  1  0
 38 39  1  0
 38 40  1  0
 40 41  2  0
 41 42  1  0
 42 43  1  0
 42 44  1  0
 42 45  1  0
 45 46  1  0
 46 47  1  0
 47 48  1  0
 47 49  2  0
 45  5  1  0
 28 14  1  0
 24 19  1  0
  1 50  1  0
  1 51  1  0
  1 52  1  0
  5 53  1  6
  6 54  1  6
  9 55  1  0
  9 56  1  0
  9 57  1  0
 12 58  1  0
 12 59  1  0
 12 60  1  0
 13 61  1  0
 14 62  1  6
 15 63  1  6
 20 64  1  0
 21 65  1  0
 22 66  1  0
 23 67  1  0
 24 68  1  0
 25 69  1  6
 26 70  1  0
 26 71  1  0
 26 72  1  0
 27 73  1  0
 27 74  1  0
 31 75  1  0
 31 76  1  0
 31 77  1  0
 33 78  1  6
 36 79  1  0
 36 80  1  0
 36 81  1  0
 38 82  1  6
 39 83  1  0
 39 84  1  0
 39 85  1  0
 40 86  1  0
 41 87  1  0
 43 88  1  0
 43 89  1  0
 43 90  1  0
 44 91  1  0
 44 92  1  0
 44 93  1  0
 45 94  1  1
 48 95  1  0
 48 96  1  0
 48 97  1  0
M  END
$$$$
