
     RDKit          3D

 59 62  0  0  0  0  0  0  0  0999 V2000
   -6.1027   -0.7635   -3.7350 C   0  0  0  0  0  0  0  0  0  0  0  0
   -6.2825   -1.3289   -2.3366 C   0  0  0  0  0  0  0  0  0  0  0  0
   -5.3053   -0.7988   -1.3977 N   0  0  0  0  0  0  0  0  0  0  0  0
   -5.4840    0.3441   -0.6398 C   0  0  0  0  0  0  0  0  0  0  0  0
   -6.5513    1.2567   -0.5768 C   0  0  0  0  0  0  0  0  0  0  0  0
   -6.4455    2.3377    0.3030 C   0  0  0  0  0  0  0  0  0  0  0  0
   -5.3142    2.5078    1.0932 C   0  0  0  0  0  0  0  0  0  0  0  0
   -4.2557    1.5959    1.0218 C   0  0  0  0  0  0  0  0  0  0  0  0
   -4.3382    0.4955    0.1433 C   0  0  0  0  0  0  0  0  0  0  0  0
   -3.4571   -0.5872   -0.1652 C   0  0  0  0  0  0  0  0  0  0  0  0
   -2.1753   -0.9627    0.2974 C   0  0  0  0  0  0  0  0  0  0  0  0
   -1.5381   -2.1024   -0.2179 C   0  0  0  0  0  0  0  0  0  0  0  0
   -0.2622   -2.4069    0.2993 N   0  0  0  0  0  0  0  0  0  0  0  0
    0.5855   -3.4439   -0.0691 C   0  0  0  0  0  0  0  0  0  0  0  0
    0.3636   -4.2909   -0.9284 O   0  0  0  0  0  0  0  0  0  0  0  0
    1.8729   -3.4462    0.7731 C   0  0  0  0  0  0  0  0  0  0  0  0
    2.8575   -4.5082    0.3018 C   0  0  0  0  0  0  0  0  0  0  0  0
    2.4773   -2.1458    0.6376 O   0  0  0  0  0  0  0  0  0  0  0  0
    3.1961   -1.7133    1.6999 C   0  0  0  0  0  0  0  0  0  0  0  0
    3.3149   -2.2964    2.7644 O   0  0  0  0  0  0  0  0  0  0  0  0
    3.8105   -0.3901    1.4072 C   0  0  0  0  0  0  0  0  0  0  0  0
    4.5105    0.2565    2.4308 C   0  0  0  0  0  0  0  0  0  0  0  0
    5.1004    1.5077    2.2104 C   0  0  0  0  0  0  0  0  0  0  0  0
    5.0025    2.1298    0.9644 C   0  0  0  0  0  0  0  0  0  0  0  0
    5.5571    3.3919    0.6620 N   0  0  0  0  0  0  0  0  0  0  0  0
    6.3134    4.2003    1.4981 C   0  0  0  0  0  0  0  0  0  0  0  0
    6.6450    3.9393    2.6508 O   0  0  0  0  0  0  0  0  0  0  0  0
    6.7045    5.5207    0.8720 C   0  0  0  0  0  0  0  0  0  0  0  0
    7.7483    5.3226   -0.1304 C   0  0  0  0  0  0  0  0  0  0  0  0
    8.5415    5.1711   -0.9627 N   0  0  0  0  0  0  0  0  0  0  0  0
    4.3060    1.4772   -0.0607 C   0  0  0  0  0  0  0  0  0  0  0  0
    3.7140    0.2268    0.1554 C   0  0  0  0  0  0  0  0  0  0  0  0
   -2.1828   -2.8616   -1.1903 C   0  0  0  0  0  0  0  0  0  0  0  0
   -3.4553   -2.5142   -1.6648 C   0  0  0  0  0  0  0  0  0  0  0  0
   -4.0768   -1.3736   -1.1352 C   0  0  0  0  0  0  0  0  0  0  0  0
   -6.1853    0.3284   -3.7363 H   0  0  0  0  0  0  0  0  0  0  0  0
   -6.8679   -1.1637   -4.4071 H   0  0  0  0  0  0  0  0  0  0  0  0
   -5.1218   -1.0252   -4.1438 H   0  0  0  0  0  0  0  0  0  0  0  0
   -7.2823   -1.1013   -1.9533 H   0  0  0  0  0  0  0  0  0  0  0  0
   -6.1916   -2.4199   -2.3463 H   0  0  0  0  0  0  0  0  0  0  0  0
   -7.4391    1.1380   -1.1894 H   0  0  0  0  0  0  0  0  0  0  0  0
   -7.2620    3.0539    0.3705 H   0  0  0  0  0  0  0  0  0  0  0  0
   -5.2501    3.3541    1.7721 H   0  0  0  0  0  0  0  0  0  0  0  0
   -3.3762    1.7371    1.6423 H   0  0  0  0  0  0  0  0  0  0  0  0
   -1.6974   -0.3508    1.0558 H   0  0  0  0  0  0  0  0  0  0  0  0
    0.0966   -1.7720    1.0019 H   0  0  0  0  0  0  0  0  0  0  0  0
    1.5722   -3.6438    1.8101 H   0  0  0  0  0  0  0  0  0  0  0  0
    3.7657   -4.4953    0.9127 H   0  0  0  0  0  0  0  0  0  0  0  0
    3.1686   -4.3221   -0.7320 H   0  0  0  0  0  0  0  0  0  0  0  0
    2.4185   -5.5093    0.3536 H   0  0  0  0  0  0  0  0  0  0  0  0
    4.6059   -0.2079    3.4113 H   0  0  0  0  0  0  0  0  0  0  0  0
    5.6300    1.9638    3.0413 H   0  0  0  0  0  0  0  0  0  0  0  0
    5.4104    3.7126   -0.2889 H   0  0  0  0  0  0  0  0  0  0  0  0
    7.0512    6.1944    1.6635 H   0  0  0  0  0  0  0  0  0  0  0  0
    5.8154    5.9819    0.4263 H   0  0  0  0  0  0  0  0  0  0  0  0
    4.2133    1.9265   -1.0475 H   0  0  0  0  0  0  0  0  0  0  0  0
    3.1869   -0.2513   -0.6672 H   0  0  0  0  0  0  0  0  0  0  0  0
   -1.7235   -3.7501   -1.6123 H   0  0  0  0  0  0  0  0  0  0  0  0
   -3.9319   -3.1249   -2.4256 H   0  0  0  0  0  0  0  0  0  0  0  0
  1  2  1  0
  2  3  1  0
  3  4  1  0
  4  5  2  0
  5  6  1  0
  6  7  2  0
  7  8  1  0
  8  9  2  0
  9 10  1  0
 10 11  2  0
 11 12  1  0
 12 13  1  0
 13 14  1  0
 14 15  2  0
 14 16  1  0
 16 17  1  0
 16 18  1  0
 18 19  1  0
 19 20  2  0
 19 21  1  0
 21 22  2  0
 22 23  1  0
 23 24  2  0
 24 25  1  0
 25 26  1  0
 26 27  2  0
 26 28  1  0
 28 29  1  0
 29 30  3  0
 24 31  1  0
 31 32  2  0
 12 33  2  0
 33 34  1  0
 34 35  2  0
 35  3  1  0
  9  4  1  0
 35 10  1  0
 32 21  1  0
  1 36  1  0
  1 37  1  0
  1 38  1  0
  2 39  1  0
  2 40  1  0
  5 41  1  0
  6 42  1  0
  7 43  1  0
  8 44  1  0
 11 45  1  0
 13 46  1  0
 16 47  1  0
 17 48  1  0
 17 49  1  0
 17 50  1  0
 22 51  1  0
 23 52  1  0
 25 53  1  0
 28 54  1  0
 28 55  1  0
 31 56  1  0
 32 57  1  0
 33 58  1  0
 34 59  1  0
M  END
$$$$
