
     RDKit          3D

 38 40  0  0  0  0  0  0  0  0999 V2000
   -2.1031   -1.5120   -1.9583 C   0  0  0  0  0  0  0  0  0  0  0  0
   -1.3571   -0.3754   -1.2525 C   0  0  0  0  0  0  0  0  0  0  0  0
   -1.3121    0.8912   -2.1419 C   0  0  0  0  0  0  0  0  0  0  0  0
   -1.1938    2.0584   -1.1573 C   0  0  0  0  0  0  0  0  0  0  0  0
   -1.2080    1.4001    0.2294 C   0  0  0  0  0  0  0  0  0  0  0  0
    0.2285    1.0840    0.6147 C   0  0  0  0  0  0  0  0  0  0  0  0
    0.7331    1.6960    1.5574 O   0  0  0  0  0  0  0  0  0  0  0  0
    0.8508    0.0688   -0.1377 N   0  0  0  0  0  0  0  0  0  0  0  0
    2.2591   -0.1851    0.0957 C   0  0  0  0  0  0  0  0  0  0  0  0
    2.8015   -1.4812    0.0542 C   0  0  0  0  0  0  0  0  0  0  0  0
    4.1653   -1.7114    0.2724 C   0  0  0  0  0  0  0  0  0  0  0  0
    5.0195   -0.6465    0.5358 C   0  0  0  0  0  0  0  0  0  0  0  0
    4.5039    0.6433    0.5814 C   0  0  0  0  0  0  0  0  0  0  0  0
    5.5576    1.9690    0.8936 Cl  0  0  0  0  0  0  0  0  0  0  0  0
    3.1426    0.8755    0.3657 C   0  0  0  0  0  0  0  0  0  0  0  0
    0.1195   -0.7773   -1.0015 C   0  0  0  0  0  0  0  0  0  0  0  0
    0.5916   -1.7354   -1.6172 O   0  0  0  0  0  0  0  0  0  0  0  0
   -2.0196    0.1078    0.0583 C   0  0  0  0  0  0  0  0  0  0  0  0
   -3.5249    0.4378   -0.0871 C   0  0  0  0  0  0  0  0  0  0  0  0
   -1.9023   -0.8734    1.2398 C   0  0  0  0  0  0  0  0  0  0  0  0
   -1.6137   -1.7821   -2.9014 H   0  0  0  0  0  0  0  0  0  0  0  0
   -2.1313   -2.4125   -1.3355 H   0  0  0  0  0  0  0  0  0  0  0  0
   -3.1335   -1.2368   -2.2041 H   0  0  0  0  0  0  0  0  0  0  0  0
   -0.4671    0.8828   -2.8403 H   0  0  0  0  0  0  0  0  0  0  0  0
   -2.2236    1.0022   -2.7408 H   0  0  0  0  0  0  0  0  0  0  0  0
   -0.2853    2.6430   -1.3405 H   0  0  0  0  0  0  0  0  0  0  0  0
   -2.0476    2.7352   -1.2752 H   0  0  0  0  0  0  0  0  0  0  0  0
   -1.6354    2.0681    0.9856 H   0  0  0  0  0  0  0  0  0  0  0  0
    2.1750   -2.3538   -0.1152 H   0  0  0  0  0  0  0  0  0  0  0  0
    4.5538   -2.7266    0.2389 H   0  0  0  0  0  0  0  0  0  0  0  0
    6.0776   -0.8271    0.7035 H   0  0  0  0  0  0  0  0  0  0  0  0
    2.7910    1.9041    0.3876 H   0  0  0  0  0  0  0  0  0  0  0  0
   -4.1211   -0.4739   -0.2046 H   0  0  0  0  0  0  0  0  0  0  0  0
   -3.7460    1.0814   -0.9433 H   0  0  0  0  0  0  0  0  0  0  0  0
   -3.8930    0.9534    0.8078 H   0  0  0  0  0  0  0  0  0  0  0  0
   -2.5018   -1.7729    1.0604 H   0  0  0  0  0  0  0  0  0  0  0  0
   -2.2693   -0.4089    2.1624 H   0  0  0  0  0  0  0  0  0  0  0  0
   -0.8809   -1.2098    1.4358 H   0  0  0  0  0  0  0  0  0  0  0  0
  1  2  1  0
  2  3  1  0
  3  4  1  0
  4  5  1  0
  5  6  1  0
  6  7  2  0
  6  8  1  0
  8  9  1  0
  9 10  2  0
 10 11  1  0
 11 12  2  0
 12 13  1  0
 13 14  1  0
 13 15  2  0
  8 16  1  0
 16 17  2  0
  5 18  1  0
 18 19  1  0
 18 20  1  0
 16  2  1  0
 18  2  1  0
 15  9  1  0
  1 21  1  0
  1 22  1  0
  1 23  1  0
  3 24  1  0
  3 25  1  0
  4 26  1  0
  4 27  1  0
  5 28  1  0
 10 29  1  0
 11 30  1  0
 12 31  1  0
 15 32  1  0
 19 33  1  0
 19 34  1  0
 19 35  1  0
 20 36  1  0
 20 37  1  0
 20 38  1  0
M  END
$$$$
