
     RDKit          3D

 59 62  0  0  0  0  0  0  0  0999 V2000
   -9.1091    2.1741   -1.6202 C   0  0  0  0  0  0  0  0  0  0  0  0
   -8.7578    1.3927   -0.4844 O   0  0  0  0  0  0  0  0  0  0  0  0
   -7.4300    1.3297   -0.1655 C   0  0  0  0  0  0  0  0  0  0  0  0
   -7.1294    0.5031    0.9203 C   0  0  0  0  0  0  0  0  0  0  0  0
   -5.8096    0.3388    1.3485 C   0  0  0  0  0  0  0  0  0  0  0  0
   -4.7724    1.0010    0.6865 C   0  0  0  0  0  0  0  0  0  0  0  0
   -3.3912    0.8208    1.1052 C   0  0  0  0  0  0  0  0  0  0  0  0
   -2.5752    1.6525    1.8477 C   0  0  0  0  0  0  0  0  0  0  0  0
   -1.3247    1.1193    2.0012 N   0  0  0  0  0  0  0  0  0  0  0  0
   -1.3527   -0.0186    1.3489 C   0  0  0  0  0  0  0  0  0  0  0  0
    0.0028   -1.0866    1.2033 S   0  0  0  0  0  0  0  0  0  0  0  0
    1.0258   -0.4851    2.5762 C   0  0  0  0  0  0  0  0  0  0  0  0
    2.3589   -1.2123    2.5651 C   0  0  0  0  0  0  0  0  0  0  0  0
    2.5335   -2.2140    3.2529 O   0  0  0  0  0  0  0  0  0  0  0  0
    3.2744   -0.6116    1.7270 N   0  0  0  0  0  0  0  0  0  0  0  0
    4.5807   -0.9715    1.5297 C   0  0  0  0  0  0  0  0  0  0  0  0
    5.3242   -0.3470    0.6463 N   0  0  0  0  0  0  0  0  0  0  0  0
    6.6134   -0.8725    0.6326 C   0  0  0  0  0  0  0  0  0  0  0  0
    7.6087   -0.2962   -0.3630 C   0  0  0  0  0  0  0  0  0  0  0  0
    7.1343   -0.6034   -1.7967 C   0  0  0  0  0  0  0  0  0  0  0  0
    9.0226   -0.8843   -0.1892 C   0  0  0  0  0  0  0  0  0  0  0  0
    7.7030    1.2318   -0.1828 C   0  0  0  0  0  0  0  0  0  0  0  0
    6.8042   -1.8919    1.5480 C   0  0  0  0  0  0  0  0  0  0  0  0
    5.3560   -2.1987    2.4111 S   0  0  0  0  0  0  0  0  0  0  0  0
   -2.5829   -0.2607    0.7873 N   0  0  0  0  0  0  0  0  0  0  0  0
   -2.9952   -1.4425    0.0440 C   0  0  0  0  0  0  0  0  0  0  0  0
   -2.9944   -1.1965   -1.4188 C   0  0  0  0  0  0  0  0  0  0  0  0
   -3.9981   -0.9937   -2.3449 C   0  0  0  0  0  0  0  0  0  0  0  0
   -3.3619   -0.8463   -3.5995 C   0  0  0  0  0  0  0  0  0  0  0  0
   -2.0143   -0.9744   -3.3615 C   0  0  0  0  0  0  0  0  0  0  0  0
   -1.7818   -1.1909   -2.0419 O   0  0  0  0  0  0  0  0  0  0  0  0
   -5.0736    1.8444   -0.3883 C   0  0  0  0  0  0  0  0  0  0  0  0
   -6.3969    2.0060   -0.8151 C   0  0  0  0  0  0  0  0  0  0  0  0
   -8.6373    1.7859   -2.5254 H   0  0  0  0  0  0  0  0  0  0  0  0
  -10.1907    2.1013   -1.7557 H   0  0  0  0  0  0  0  0  0  0  0  0
   -8.8647    3.2292   -1.4684 H   0  0  0  0  0  0  0  0  0  0  0  0
   -7.9322   -0.0172    1.4389 H   0  0  0  0  0  0  0  0  0  0  0  0
   -5.6017   -0.3050    2.2005 H   0  0  0  0  0  0  0  0  0  0  0  0
   -2.8328    2.6114    2.2799 H   0  0  0  0  0  0  0  0  0  0  0  0
    1.2016    0.5938    2.4951 H   0  0  0  0  0  0  0  0  0  0  0  0
    0.5285   -0.6762    3.5335 H   0  0  0  0  0  0  0  0  0  0  0  0
    2.9795    0.1474    1.1279 H   0  0  0  0  0  0  0  0  0  0  0  0
    7.8272   -0.2008   -2.5423 H   0  0  0  0  0  0  0  0  0  0  0  0
    7.0546   -1.6844   -1.9630 H   0  0  0  0  0  0  0  0  0  0  0  0
    6.1481   -0.1690   -1.9944 H   0  0  0  0  0  0  0  0  0  0  0  0
    9.7163   -0.4666   -0.9272 H   0  0  0  0  0  0  0  0  0  0  0  0
    9.0246   -1.9725   -0.3212 H   0  0  0  0  0  0  0  0  0  0  0  0
    9.4284   -0.6684    0.8060 H   0  0  0  0  0  0  0  0  0  0  0  0
    8.4344    1.6685   -0.8727 H   0  0  0  0  0  0  0  0  0  0  0  0
    8.0055    1.4925    0.8383 H   0  0  0  0  0  0  0  0  0  0  0  0
    6.7400    1.7219   -0.3732 H   0  0  0  0  0  0  0  0  0  0  0  0
    7.6936   -2.4683    1.7501 H   0  0  0  0  0  0  0  0  0  0  0  0
   -2.3406   -2.2814    0.2958 H   0  0  0  0  0  0  0  0  0  0  0  0
   -3.9947   -1.7228    0.3929 H   0  0  0  0  0  0  0  0  0  0  0  0
   -5.0578   -0.9565   -2.1371 H   0  0  0  0  0  0  0  0  0  0  0  0
   -3.8263   -0.6756   -4.5611 H   0  0  0  0  0  0  0  0  0  0  0  0
   -1.1366   -0.9442   -3.9916 H   0  0  0  0  0  0  0  0  0  0  0  0
   -4.2762    2.3736   -0.9098 H   0  0  0  0  0  0  0  0  0  0  0  0
   -6.5820    2.6678   -1.6555 H   0  0  0  0  0  0  0  0  0  0  0  0
  1  2  1  0
  2  3  1  0
  3  4  2  0
  4  5  1  0
  5  6  2  0
  6  7  1  0
  7  8  2  0
  8  9  1  0
  9 10  2  0
 10 11  1  0
 11 12  1  0
 12 13  1  0
 13 14  2  0
 13 15  1  0
 15 16  1  0
 16 17  2  0
 17 18  1  0
 18 19  1  0
 19 20  1  0
 19 21  1  0
 19 22  1  0
 18 23  2  0
 23 24  1  0
 10 25  1  0
 25 26  1  0
 26 27  1  0
 27 28  2  0
 28 29  1  0
 29 30  2  0
 30 31  1  0
  6 32  1  0
 32 33  2  0
 33  3  1  0
 25  7  1  0
 31 27  1  0
 24 16  1  0
  1 34  1  0
  1 35  1  0
  1 36  1  0
  4 37  1  0
  5 38  1  0
  8 39  1  0
 12 40  1  0
 12 41  1  0
 15 42  1  0
 20 43  1  0
 20 44  1  0
 20 45  1  0
 21 46  1  0
 21 47  1  0
 21 48  1  0
 22 49  1  0
 22 50  1  0
 22 51  1  0
 23 52  1  0
 26 53  1  0
 26 54  1  0
 28 55  1  0
 29 56  1  0
 30 57  1  0
 32 58  1  0
 33 59  1  0
M  END
$$$$
