
     RDKit          3D

 34 34  0  0  0  0  0  0  0  0999 V2000
    6.0325    0.9336   -1.3397 C   0  0  0  0  0  0  0  0  0  0  0  0
    5.3370    0.3030   -0.1439 C   0  0  0  0  0  0  0  0  0  0  0  0
    3.8286    0.2125   -0.3580 C   0  0  0  0  0  0  0  0  0  0  0  0
    3.1291   -0.4224    0.8400 C   0  0  0  0  0  0  0  0  0  0  0  0
    1.7211   -0.5384    0.5811 O   0  0  0  0  0  0  0  0  0  0  0  0
    0.9712    0.5457    0.8983 C   0  0  0  0  0  0  0  0  0  0  0  0
    1.3847    1.5922    1.3724 O   0  0  0  0  0  0  0  0  0  0  0  0
   -0.4630    0.3010    0.5852 C   0  0  0  0  0  0  0  0  0  0  0  0
   -0.9222   -0.9018    0.0377 C   0  0  0  0  0  0  0  0  0  0  0  0
   -2.2846   -1.0810   -0.2392 C   0  0  0  0  0  0  0  0  0  0  0  0
   -3.2046   -0.0648    0.0254 C   0  0  0  0  0  0  0  0  0  0  0  0
   -4.5885   -0.1680   -0.2236 N   0  0  0  0  0  0  0  0  0  0  0  0
   -5.2689   -1.2437   -0.7655 C   0  0  0  0  0  0  0  0  0  0  0  0
   -6.7498   -0.9812   -0.8839 C   0  0  0  0  0  0  0  0  0  0  0  0
   -4.7880   -2.3034   -1.1499 O   0  0  0  0  0  0  0  0  0  0  0  0
   -2.7421    1.1380    0.5740 C   0  0  0  0  0  0  0  0  0  0  0  0
   -1.3830    1.3211    0.8519 C   0  0  0  0  0  0  0  0  0  0  0  0
    5.6650    1.9494   -1.5166 H   0  0  0  0  0  0  0  0  0  0  0  0
    5.8646    0.3443   -2.2469 H   0  0  0  0  0  0  0  0  0  0  0  0
    7.1116    0.9883   -1.1651 H   0  0  0  0  0  0  0  0  0  0  0  0
    5.7500   -0.6982    0.0254 H   0  0  0  0  0  0  0  0  0  0  0  0
    5.5507    0.8981    0.7515 H   0  0  0  0  0  0  0  0  0  0  0  0
    3.4147    1.2113   -0.5423 H   0  0  0  0  0  0  0  0  0  0  0  0
    3.6067   -0.3739   -1.2584 H   0  0  0  0  0  0  0  0  0  0  0  0
    3.5057   -1.4386    0.9995 H   0  0  0  0  0  0  0  0  0  0  0  0
    3.3157    0.1366    1.7649 H   0  0  0  0  0  0  0  0  0  0  0  0
   -0.2359   -1.7161   -0.1825 H   0  0  0  0  0  0  0  0  0  0  0  0
   -2.5914   -2.0328   -0.6629 H   0  0  0  0  0  0  0  0  0  0  0  0
   -5.1429    0.6444    0.0162 H   0  0  0  0  0  0  0  0  0  0  0  0
   -7.2865   -1.9340   -0.9103 H   0  0  0  0  0  0  0  0  0  0  0  0
   -7.1160   -0.4104   -0.0257 H   0  0  0  0  0  0  0  0  0  0  0  0
   -6.9468   -0.4276   -1.8056 H   0  0  0  0  0  0  0  0  0  0  0  0
   -3.4282    1.9521    0.7941 H   0  0  0  0  0  0  0  0  0  0  0  0
   -1.0464    2.2648    1.2778 H   0  0  0  0  0  0  0  0  0  0  0  0
  1  2  1  0
  2  3  1  0
  3  4  1  0
  4  5  1  0
  5  6  1  0
  6  7  2  0
  6  8  1  0
  8  9  2  0
  9 10  1  0
 10 11  2  0
 11 12  1  0
 12 13  1  0
 13 14  1  0
 13 15  2  0
 11 16  1  0
 16 17  2  0
 17  8  1  0
  1 18  1  0
  1 19  1  0
  1 20  1  0
  2 21  1  0
  2 22  1  0
  3 23  1  0
  3 24  1  0
  4 25  1  0
  4 26  1  0
  9 27  1  0
 10 28  1  0
 12 29  1  0
 14 30  1  0
 14 31  1  0
 14 32  1  0
 16 33  1  0
 17 34  1  0
M  END
$$$$
