
     RDKit          3D

 48 49  0  0  0  0  0  0  0  0999 V2000
   -4.3416    2.1146    0.7812 C   0  0  0  0  0  0  0  0  0  0  0  0
   -4.4527    0.6820    1.2839 C   0  0  0  0  0  0  0  0  0  0  0  0
   -5.0797   -0.2279    0.3176 N   0  0  0  0  0  0  0  0  0  0  0  0
   -6.5164   -0.4770    0.4499 C   0  0  0  0  0  0  0  0  0  0  0  0
   -7.3817    0.5840   -0.2128 C   0  0  0  0  0  0  0  0  0  0  0  0
   -4.4663   -0.6683   -0.8605 C   0  0  0  0  0  0  0  0  0  0  0  0
   -5.0795   -1.1734   -1.7987 O   0  0  0  0  0  0  0  0  0  0  0  0
   -3.0015   -0.5355   -1.0121 C   0  0  0  0  0  0  0  0  0  0  0  0
   -2.1307   -1.1843   -0.1350 C   0  0  0  0  0  0  0  0  0  0  0  0
   -0.7472   -1.0831   -0.3216 C   0  0  0  0  0  0  0  0  0  0  0  0
   -0.2265   -0.3563   -1.3963 C   0  0  0  0  0  0  0  0  0  0  0  0
    1.1526   -0.2200   -1.6626 N   0  0  0  0  0  0  0  0  0  0  0  0
    2.2109   -0.7230   -0.9163 C   0  0  0  0  0  0  0  0  0  0  0  0
    2.1180   -1.3241    0.1486 O   0  0  0  0  0  0  0  0  0  0  0  0
    3.5730   -0.4049   -1.5550 C   0  0  0  0  0  0  0  0  0  0  0  0
    4.6479   -1.2272   -1.1272 O   0  0  0  0  0  0  0  0  0  0  0  0
    5.4631   -0.7418   -0.1403 C   0  0  0  0  0  0  0  0  0  0  0  0
    5.0046    0.0472    0.9202 C   0  0  0  0  0  0  0  0  0  0  0  0
    5.8878    0.4752    1.9171 C   0  0  0  0  0  0  0  0  0  0  0  0
    7.2362    0.1011    1.8578 C   0  0  0  0  0  0  0  0  0  0  0  0
    8.1620    0.5494    2.9048 N   0  0  0  0  0  4  0  0  0  0  0  0
    7.7320    1.3479    3.7494 O   0  0  0  0  0  0  0  0  0  0  0  0
    9.3194    0.1077    2.8777 O   0  0  0  0  0  1  0  0  0  0  0  0
    7.7076   -0.7003    0.8137 C   0  0  0  0  0  0  0  0  0  0  0  0
    6.8164   -1.1218   -0.1759 C   0  0  0  0  0  0  0  0  0  0  0  0
    7.4364   -2.1050   -1.4566 Cl  0  0  0  0  0  0  0  0  0  0  0  0
   -1.1127    0.2648   -2.2890 C   0  0  0  0  0  0  0  0  0  0  0  0
   -2.4953    0.1709   -2.1041 C   0  0  0  0  0  0  0  0  0  0  0  0
   -5.3260    2.5548    0.5998 H   0  0  0  0  0  0  0  0  0  0  0  0
   -3.7761    2.1748   -0.1533 H   0  0  0  0  0  0  0  0  0  0  0  0
   -3.8309    2.7359    1.5242 H   0  0  0  0  0  0  0  0  0  0  0  0
   -5.0277    0.6573    2.2164 H   0  0  0  0  0  0  0  0  0  0  0  0
   -3.4538    0.3157    1.5316 H   0  0  0  0  0  0  0  0  0  0  0  0
   -6.7626   -0.5669    1.5137 H   0  0  0  0  0  0  0  0  0  0  0  0
   -6.7449   -1.4492   -0.0071 H   0  0  0  0  0  0  0  0  0  0  0  0
   -8.4347    0.2868   -0.1752 H   0  0  0  0  0  0  0  0  0  0  0  0
   -7.1064    0.7291   -1.2626 H   0  0  0  0  0  0  0  0  0  0  0  0
   -7.2912    1.5470    0.2982 H   0  0  0  0  0  0  0  0  0  0  0  0
   -2.5204   -1.7842    0.6844 H   0  0  0  0  0  0  0  0  0  0  0  0
   -0.1069   -1.6031    0.3839 H   0  0  0  0  0  0  0  0  0  0  0  0
    1.3855    0.2902   -2.5060 H   0  0  0  0  0  0  0  0  0  0  0  0
    3.4779   -0.5750   -2.6343 H   0  0  0  0  0  0  0  0  0  0  0  0
    3.7910    0.6627   -1.4260 H   0  0  0  0  0  0  0  0  0  0  0  0
    3.9558    0.3143    1.0172 H   0  0  0  0  0  0  0  0  0  0  0  0
    5.5048    1.0820    2.7363 H   0  0  0  0  0  0  0  0  0  0  0  0
    8.7519   -1.0008    0.7616 H   0  0  0  0  0  0  0  0  0  0  0  0
   -0.7452    0.8197   -3.1481 H   0  0  0  0  0  0  0  0  0  0  0  0
   -3.1761    0.6382   -2.8125 H   0  0  0  0  0  0  0  0  0  0  0  0
  1  2  1  0
  2  3  1  0
  3  4  1  0
  4  5  1  0
  3  6  1  0
  6  7  2  0
  6  8  1  0
  8  9  2  0
  9 10  1  0
 10 11  2  0
 11 12  1  0
 12 13  1  0
 13 14  2  0
 13 15  1  0
 15 16  1  0
 16 17  1  0
 17 18  2  0
 18 19  1  0
 19 20  2  0
 20 21  1  0
 21 22  2  0
 21 23  1  0
 20 24  1  0
 24 25  2  0
 25 26  1  0
 11 27  1  0
 27 28  2  0
 28  8  1  0
 25 17  1  0
  1 29  1  0
  1 30  1  0
  1 31  1  0
  2 32  1  0
  2 33  1  0
  4 34  1  0
  4 35  1  0
  5 36  1  0
  5 37  1  0
  5 38  1  0
  9 39  1  0
 10 40  1  0
 12 41  1  0
 15 42  1  0
 15 43  1  0
 18 44  1  0
 19 45  1  0
 24 46  1  0
 27 47  1  0
 28 48  1  0
M  CHG  2  21   1  23  -1
M  END
$$$$
