
     RDKit          3D

 51 55  0  0  0  0  0  0  0  0999 V2000
    1.6219    2.4036   -0.7396 O   0  0  0  0  0  0  0  0  0  0  0  0
    0.8728    1.7602   -0.0067 C   0  0  0  0  0  0  0  0  0  0  0  0
   -0.6267    2.0878    0.0504 C   0  0  0  0  0  0  0  0  0  0  0  0
   -1.4813    1.0345   -0.5178 N   0  0  0  0  0  0  0  0  0  0  0  0
   -1.7613   -0.0674    0.2834 C   0  0  0  0  0  0  0  0  0  0  0  0
   -1.2671   -0.1776    1.4122 O   0  0  0  0  0  0  0  0  0  0  0  0
   -2.5584   -1.2083   -0.3065 C   0  0  0  0  0  0  0  0  0  0  0  0
   -4.0594   -0.9695   -0.3240 C   0  0  0  0  0  0  0  0  0  0  0  0
   -4.6755   -1.1473    1.0308 C   0  0  0  0  0  0  0  0  0  0  0  0
   -5.6178   -2.0236    1.5364 C   0  0  0  0  0  0  0  0  0  0  0  0
   -5.7906   -1.6833    2.9013 C   0  0  0  0  0  0  0  0  0  0  0  0
   -4.9482   -0.6223    3.1431 C   0  0  0  0  0  0  0  0  0  0  0  0
   -4.2691   -0.2920    2.0156 O   0  0  0  0  0  0  0  0  0  0  0  0
   -4.6064    0.6288   -1.0235 S   0  0  0  0  0  0  0  0  0  0  0  0
   -3.3100    0.9557   -2.2100 C   0  0  0  0  0  0  0  0  0  0  0  0
   -3.7240    1.1394   -3.5399 C   0  0  0  0  0  0  0  0  0  0  0  0
   -2.8249    1.5644   -4.5162 C   0  0  0  0  0  0  0  0  0  0  0  0
   -1.5086    1.8366   -4.1663 C   0  0  0  0  0  0  0  0  0  0  0  0
   -1.0871    1.6682   -2.8453 C   0  0  0  0  0  0  0  0  0  0  0  0
   -1.9698    1.2075   -1.8510 C   0  0  0  0  0  0  0  0  0  0  0  0
    1.2376    0.7237    0.8320 N   0  0  0  0  0  0  0  0  0  0  0  0
    2.5134    0.1560    1.0066 C   0  0  0  0  0  0  0  0  0  0  0  0
    2.6031   -0.9392    1.8742 C   0  0  0  0  0  0  0  0  0  0  0  0
    3.8267   -1.5788    2.0961 C   0  0  0  0  0  0  0  0  0  0  0  0
    4.9694   -1.1261    1.4461 C   0  0  0  0  0  0  0  0  0  0  0  0
    4.8951   -0.0133    0.6041 C   0  0  0  0  0  0  0  0  0  0  0  0
    3.6699    0.6173    0.3745 C   0  0  0  0  0  0  0  0  0  0  0  0
    5.9891    0.5124   -0.0402 O   0  0  0  0  0  0  0  0  0  0  0  0
    7.2099    0.0342    0.5350 C   0  0  0  0  0  0  0  0  0  0  0  0
    7.1470   -1.4714    0.7367 C   0  0  0  0  0  0  0  0  0  0  0  0
    6.1317   -1.8121    1.6873 O   0  0  0  0  0  0  0  0  0  0  0  0
   -0.9019    2.2463    1.1021 H   0  0  0  0  0  0  0  0  0  0  0  0
   -0.8074    3.0426   -0.4600 H   0  0  0  0  0  0  0  0  0  0  0  0
   -2.1801   -1.4265   -1.3142 H   0  0  0  0  0  0  0  0  0  0  0  0
   -2.3263   -2.1110    0.2785 H   0  0  0  0  0  0  0  0  0  0  0  0
   -4.4957   -1.7359   -0.9775 H   0  0  0  0  0  0  0  0  0  0  0  0
   -6.1189   -2.8095    0.9858 H   0  0  0  0  0  0  0  0  0  0  0  0
   -6.4474   -2.1540    3.6207 H   0  0  0  0  0  0  0  0  0  0  0  0
   -4.7245   -0.0206    4.0122 H   0  0  0  0  0  0  0  0  0  0  0  0
   -4.7620    0.9775   -3.8219 H   0  0  0  0  0  0  0  0  0  0  0  0
   -3.1584    1.7080   -5.5410 H   0  0  0  0  0  0  0  0  0  0  0  0
   -0.8037    2.1851   -4.9194 H   0  0  0  0  0  0  0  0  0  0  0  0
   -0.0425    1.8770   -2.6239 H   0  0  0  0  0  0  0  0  0  0  0  0
    0.4688    0.2779    1.3446 H   0  0  0  0  0  0  0  0  0  0  0  0
    1.7209   -1.3132    2.3873 H   0  0  0  0  0  0  0  0  0  0  0  0
    3.8829   -2.4303    2.7667 H   0  0  0  0  0  0  0  0  0  0  0  0
    3.6553    1.4716   -0.2911 H   0  0  0  0  0  0  0  0  0  0  0  0
    8.0239    0.2925   -0.1527 H   0  0  0  0  0  0  0  0  0  0  0  0
    7.3820    0.5619    1.4831 H   0  0  0  0  0  0  0  0  0  0  0  0
    8.1015   -1.8419    1.1220 H   0  0  0  0  0  0  0  0  0  0  0  0
    6.9324   -1.9954   -0.2047 H   0  0  0  0  0  0  0  0  0  0  0  0
  1  2  2  0
  2  3  1  0
  3  4  1  0
  4  5  1  0
  5  6  2  0
  5  7  1  0
  7  8  1  0
  8  9  1  0
  9 10  2  0
 10 11  1  0
 11 12  2  0
 12 13  1  0
  8 14  1  0
 14 15  1  0
 15 16  2  0
 16 17  1  0
 17 18  2  0
 18 19  1  0
 19 20  2  0
  2 21  1  0
 21 22  1  0
 22 23  2  0
 23 24  1  0
 24 25  2  0
 25 26  1  0
 26 27  2  0
 26 28  1  0
 28 29  1  0
 29 30  1  0
 30 31  1  0
 20  4  1  0
 27 22  1  0
 13  9  1  0
 20 15  1  0
 31 25  1  0
  3 32  1  0
  3 33  1  0
  7 34  1  0
  7 35  1  0
  8 36  1  0
 10 37  1  0
 11 38  1  0
 12 39  1  0
 16 40  1  0
 17 41  1  0
 18 42  1  0
 19 43  1  0
 21 44  1  0
 23 45  1  0
 24 46  1  0
 27 47  1  0
 29 48  1  0
 29 49  1  0
 30 50  1  0
 30 51  1  0
M  END
$$$$
