
     RDKit          3D

 43 45  0  0  0  0  0  0  0  0999 V2000
    6.1338   -2.5968   -0.6358 C   0  0  0  0  0  0  0  0  0  0  0  0
    4.7402   -2.8059   -0.4470 O   0  0  0  0  0  0  0  0  0  0  0  0
    3.9595   -1.6973   -0.2673 C   0  0  0  0  0  0  0  0  0  0  0  0
    2.6014   -1.9681   -0.1037 C   0  0  0  0  0  0  0  0  0  0  0  0
    1.6829   -0.9336    0.0905 C   0  0  0  0  0  0  0  0  0  0  0  0
    2.1077    0.3985    0.1198 C   0  0  0  0  0  0  0  0  0  0  0  0
    1.2386    1.4919    0.3742 N   0  0  0  0  0  0  0  0  0  0  0  0
   -0.1081    1.4737    0.5919 C   0  0  0  0  0  0  0  0  0  0  0  0
   -0.8753    2.3109   -0.0391 N   0  0  0  0  0  0  0  0  0  0  0  0
   -2.2090    2.2180    0.3016 C   0  0  0  0  0  0  0  0  0  0  0  0
   -3.0561    2.9701   -0.1692 O   0  0  0  0  0  0  0  0  0  0  0  0
   -2.6911    1.1848    1.3221 C   0  0  0  0  0  0  0  0  0  0  0  0
   -4.1699    1.0827    1.5809 C   0  0  0  0  0  0  0  0  0  0  0  0
   -4.8519    0.1599    0.6018 C   0  0  0  0  0  0  0  0  0  0  0  0
   -4.8294   -1.2275    0.8018 C   0  0  0  0  0  0  0  0  0  0  0  0
   -5.4400   -2.0842   -0.1151 C   0  0  0  0  0  0  0  0  0  0  0  0
   -6.0728   -1.5636   -1.2423 C   0  0  0  0  0  0  0  0  0  0  0  0
   -6.0932   -0.1866   -1.4550 C   0  0  0  0  0  0  0  0  0  0  0  0
   -5.4839    0.6722   -0.5390 C   0  0  0  0  0  0  0  0  0  0  0  0
   -1.8423    0.4104    1.9402 N   0  0  0  0  0  0  0  0  0  0  0  0
   -0.5487    0.5967    1.5554 N   0  0  0  0  0  0  0  0  0  0  0  0
    3.4876    0.6705   -0.0467 C   0  0  0  0  0  0  0  0  0  0  0  0
    3.8189    2.0070   -0.0183 O   0  0  0  0  0  0  0  0  0  0  0  0
    5.1974    2.3434   -0.1085 C   0  0  0  0  0  0  0  0  0  0  0  0
    4.4022   -0.3742   -0.2412 C   0  0  0  0  0  0  0  0  0  0  0  0
    6.5847   -2.1262    0.2441 H   0  0  0  0  0  0  0  0  0  0  0  0
    6.6042   -3.5760   -0.7674 H   0  0  0  0  0  0  0  0  0  0  0  0
    6.3258   -2.0107   -1.5406 H   0  0  0  0  0  0  0  0  0  0  0  0
    2.2507   -2.9976   -0.1345 H   0  0  0  0  0  0  0  0  0  0  0  0
    0.6334   -1.1986    0.1812 H   0  0  0  0  0  0  0  0  0  0  0  0
    1.5467    2.2945   -0.1722 H   0  0  0  0  0  0  0  0  0  0  0  0
   -4.6271    2.0782    1.5617 H   0  0  0  0  0  0  0  0  0  0  0  0
   -4.3238    0.7054    2.5999 H   0  0  0  0  0  0  0  0  0  0  0  0
   -4.3315   -1.6494    1.6728 H   0  0  0  0  0  0  0  0  0  0  0  0
   -5.4192   -3.1584    0.0486 H   0  0  0  0  0  0  0  0  0  0  0  0
   -6.5467   -2.2308   -1.9572 H   0  0  0  0  0  0  0  0  0  0  0  0
   -6.5805    0.2207   -2.3371 H   0  0  0  0  0  0  0  0  0  0  0  0
   -5.5012    1.7449   -0.7262 H   0  0  0  0  0  0  0  0  0  0  0  0
    0.1729    0.1234    2.0959 H   0  0  0  0  0  0  0  0  0  0  0  0
    5.2812    3.4316   -0.0295 H   0  0  0  0  0  0  0  0  0  0  0  0
    5.7669    1.9051    0.7177 H   0  0  0  0  0  0  0  0  0  0  0  0
    5.6116    2.0479   -1.0779 H   0  0  0  0  0  0  0  0  0  0  0  0
    5.4532   -0.1566   -0.3745 H   0  0  0  0  0  0  0  0  0  0  0  0
  1  2  1  0
  2  3  1  0
  3  4  2  0
  4  5  1  0
  5  6  2  0
  6  7  1  0
  7  8  1  0
  8  9  2  0
  9 10  1  0
 10 11  2  0
 10 12  1  0
 12 13  1  0
 13 14  1  0
 14 15  2  0
 15 16  1  0
 16 17  2  0
 17 18  1  0
 18 19  2  0
 12 20  2  0
 20 21  1  0
  6 22  1  0
 22 23  1  0
 23 24  1  0
 22 25  2  0
 25  3  1  0
 21  8  1  0
 19 14  1  0
  1 26  1  0
  1 27  1  0
  1 28  1  0
  4 29  1  0
  5 30  1  0
  7 31  1  0
 13 32  1  0
 13 33  1  0
 15 34  1  0
 16 35  1  0
 17 36  1  0
 18 37  1  0
 19 38  1  0
 21 39  1  0
 24 40  1  0
 24 41  1  0
 24 42  1  0
 25 43  1  0
M  END
$$$$
