
     RDKit          3D

 56 58  0  0  0  0  0  0  0  0999 V2000
    9.7431   -0.6266   -0.1320 C   0  0  0  0  0  0  0  0  0  0  0  0
    8.6612   -1.5105   -0.3955 O   0  0  0  0  0  0  0  0  0  0  0  0
    7.5277   -0.9594   -0.9264 C   0  0  0  0  0  0  0  0  0  0  0  0
    6.4911   -1.8658   -1.1580 C   0  0  0  0  0  0  0  0  0  0  0  0
    5.2762   -1.4376   -1.6978 C   0  0  0  0  0  0  0  0  0  0  0  0
    5.0818   -0.0897   -2.0230 C   0  0  0  0  0  0  0  0  0  0  0  0
    3.7634    0.3765   -2.5818 C   0  0  0  0  0  0  0  0  0  0  0  0
    2.8385    0.6849   -1.5235 N   0  0  0  0  0  0  0  0  0  0  0  0
    1.9043   -0.2166   -1.0745 C   0  0  0  0  0  0  0  0  0  0  0  0
    1.6397   -1.3019   -1.5735 O   0  0  0  0  0  0  0  0  0  0  0  0
    1.1563    0.2523    0.1945 C   0  0  0  0  0  0  0  0  0  0  0  0
    1.3957    1.3505    0.6766 O   0  0  0  0  0  0  0  0  0  0  0  0
    0.2562   -0.6736    0.6717 N   0  0  0  0  0  0  0  0  0  0  0  0
   -0.6788   -0.3600    1.7376 C   0  0  0  0  0  0  0  0  0  0  0  0
   -2.0088    0.2437    1.2237 C   0  0  0  0  0  0  0  0  0  0  0  0
   -1.7761    1.4745    0.5104 O   0  0  0  0  0  0  0  0  0  0  0  0
   -2.0115    2.5331    1.4450 C   0  0  0  0  0  0  0  0  0  0  0  0
   -3.1711    2.0223    2.2721 C   0  0  0  0  0  0  0  0  0  0  0  0
   -2.8765    0.5920    2.3549 N   0  0  0  0  0  0  0  0  0  0  0  0
   -4.0531   -0.4931    2.8319 S   0  0  0  0  0  6  0  0  0  0  0  0
   -4.6881    0.0429    4.0172 O   0  0  0  0  0  0  0  0  0  0  0  0
   -3.4506   -1.8098    2.8373 O   0  0  0  0  0  0  0  0  0  0  0  0
   -5.2563   -0.4594    1.5205 C   0  0  0  0  0  0  0  0  0  0  0  0
   -5.1702   -1.3802    0.4730 C   0  0  0  0  0  0  0  0  0  0  0  0
   -6.1344   -1.3691   -0.5365 C   0  0  0  0  0  0  0  0  0  0  0  0
   -7.2028   -0.4636   -0.4889 C   0  0  0  0  0  0  0  0  0  0  0  0
   -8.2212   -0.4349   -1.5913 C   0  0  0  0  0  0  0  0  0  0  0  0
   -7.2878    0.4429    0.5762 C   0  0  0  0  0  0  0  0  0  0  0  0
   -6.3265    0.4371    1.5883 C   0  0  0  0  0  0  0  0  0  0  0  0
    6.1201    0.8191   -1.7796 C   0  0  0  0  0  0  0  0  0  0  0  0
    7.3367    0.3866   -1.2383 C   0  0  0  0  0  0  0  0  0  0  0  0
    9.4640    0.1291    0.6098 H   0  0  0  0  0  0  0  0  0  0  0  0
   10.1064   -0.1611   -1.0542 H   0  0  0  0  0  0  0  0  0  0  0  0
   10.5630   -1.2175    0.2875 H   0  0  0  0  0  0  0  0  0  0  0  0
    6.6291   -2.9159   -0.9119 H   0  0  0  0  0  0  0  0  0  0  0  0
    4.4797   -2.1621   -1.8591 H   0  0  0  0  0  0  0  0  0  0  0  0
    3.9012    1.2871   -3.1750 H   0  0  0  0  0  0  0  0  0  0  0  0
    3.3418   -0.3849   -3.2481 H   0  0  0  0  0  0  0  0  0  0  0  0
    3.0056    1.4902   -0.9272 H   0  0  0  0  0  0  0  0  0  0  0  0
    0.1398   -1.5167    0.1151 H   0  0  0  0  0  0  0  0  0  0  0  0
   -0.8645   -1.2911    2.2818 H   0  0  0  0  0  0  0  0  0  0  0  0
   -0.1893    0.3389    2.4258 H   0  0  0  0  0  0  0  0  0  0  0  0
   -2.4813   -0.4405    0.5149 H   0  0  0  0  0  0  0  0  0  0  0  0
   -1.1089    2.6789    2.0488 H   0  0  0  0  0  0  0  0  0  0  0  0
   -2.2416    3.4608    0.9148 H   0  0  0  0  0  0  0  0  0  0  0  0
   -3.2120    2.4972    3.2548 H   0  0  0  0  0  0  0  0  0  0  0  0
   -4.1072    2.1982    1.7359 H   0  0  0  0  0  0  0  0  0  0  0  0
   -4.3656   -2.1109    0.4348 H   0  0  0  0  0  0  0  0  0  0  0  0
   -6.0546   -2.0799   -1.3569 H   0  0  0  0  0  0  0  0  0  0  0  0
   -9.1977   -0.1153   -1.2126 H   0  0  0  0  0  0  0  0  0  0  0  0
   -7.9020    0.2570   -2.3767 H   0  0  0  0  0  0  0  0  0  0  0  0
   -8.3526   -1.4305   -2.0280 H   0  0  0  0  0  0  0  0  0  0  0  0
   -8.1118    1.1520    0.6282 H   0  0  0  0  0  0  0  0  0  0  0  0
   -6.4220    1.1286    2.4226 H   0  0  0  0  0  0  0  0  0  0  0  0
    5.9906    1.8745   -2.0095 H   0  0  0  0  0  0  0  0  0  0  0  0
    8.1116    1.1270   -1.0711 H   0  0  0  0  0  0  0  0  0  0  0  0
  1  2  1  0
  2  3  1  0
  3  4  2  0
  4  5  1  0
  5  6  2  0
  6  7  1  0
  7  8  1  0
  8  9  1  0
  9 10  2  0
  9 11  1  0
 11 12  2  0
 11 13  1  0
 13 14  1  0
 14 15  1  0
 15 16  1  0
 16 17  1  0
 17 18  1  0
 18 19  1  0
 19 20  1  0
 20 21  2  0
 20 22  2  0
 20 23  1  0
 23 24  2  0
 24 25  1  0
 25 26  2  0
 26 27  1  0
 26 28  1  0
 28 29  2  0
  6 30  1  0
 30 31  2  0
 31  3  1  0
 19 15  1  0
 29 23  1  0
  1 32  1  0
  1 33  1  0
  1 34  1  0
  4 35  1  0
  5 36  1  0
  7 37  1  0
  7 38  1  0
  8 39  1  0
 13 40  1  0
 14 41  1  0
 14 42  1  0
 15 43  1  0
 17 44  1  0
 17 45  1  0
 18 46  1  0
 18 47  1  0
 24 48  1  0
 25 49  1  0
 27 50  1  0
 27 51  1  0
 27 52  1  0
 28 53  1  0
 29 54  1  0
 30 55  1  0
 31 56  1  0
M  END
$$$$
