
     RDKit          3D

 32 34  0  0  0  0  0  0  0  0999 V2000
    6.5106    0.0875   -0.0147 O   0  0  0  0  0  0  0  0  0  0  0  0
    5.6902   -0.6152    0.5922 N   0  0  0  0  0  4  0  0  0  0  0  0
    5.9884   -1.5076    1.3980 O   0  0  0  0  0  1  0  0  0  0  0  0
    4.2783   -0.3714    0.3428 C   0  0  0  0  0  0  0  0  0  0  0  0
    3.8620    0.6042   -0.5567 C   0  0  0  0  0  0  0  0  0  0  0  0
    2.4915    0.7881   -0.7522 C   0  0  0  0  0  0  0  0  0  0  0  0
    1.5647    0.0114   -0.0475 C   0  0  0  0  0  0  0  0  0  0  0  0
    0.1914    0.1941   -0.2759 N   0  0  0  0  0  0  0  0  0  0  0  0
   -0.2989    1.5414    0.0483 C   0  0  0  0  0  0  0  0  0  0  0  0
   -1.6681    1.7498   -0.6066 C   0  0  0  0  0  0  0  0  0  0  0  0
   -2.6162    0.6111   -0.3286 C   0  0  0  0  0  0  0  0  0  0  0  0
   -3.9936    0.7842   -0.5243 C   0  0  0  0  0  0  0  0  0  0  0  0
   -4.8757   -0.2730   -0.3043 C   0  0  0  0  0  0  0  0  0  0  0  0
   -4.3897   -1.5120    0.1050 C   0  0  0  0  0  0  0  0  0  0  0  0
   -3.0196   -1.6972    0.2910 C   0  0  0  0  0  0  0  0  0  0  0  0
   -2.1179   -0.6448    0.0654 C   0  0  0  0  0  0  0  0  0  0  0  0
   -0.6365   -0.8728    0.3146 C   0  0  0  0  0  0  0  0  0  0  0  0
    1.9856   -0.9459    0.8123 N   0  0  0  0  0  0  0  0  0  0  0  0
    3.3193   -1.1200    0.9986 C   0  0  0  0  0  0  0  0  0  0  0  0
    4.5710    1.2116   -1.1130 H   0  0  0  0  0  0  0  0  0  0  0  0
    2.1506    1.5193   -1.4792 H   0  0  0  0  0  0  0  0  0  0  0  0
    0.3685    2.3318   -0.3140 H   0  0  0  0  0  0  0  0  0  0  0  0
   -0.3765    1.6589    1.1380 H   0  0  0  0  0  0  0  0  0  0  0  0
   -1.5446    1.8295   -1.6940 H   0  0  0  0  0  0  0  0  0  0  0  0
   -2.0950    2.6927   -0.2454 H   0  0  0  0  0  0  0  0  0  0  0  0
   -4.3853    1.7444   -0.8519 H   0  0  0  0  0  0  0  0  0  0  0  0
   -5.9425   -0.1307   -0.4554 H   0  0  0  0  0  0  0  0  0  0  0  0
   -5.0775   -2.3356    0.2777 H   0  0  0  0  0  0  0  0  0  0  0  0
   -2.6544   -2.6704    0.6125 H   0  0  0  0  0  0  0  0  0  0  0  0
   -0.3587   -1.8370   -0.1308 H   0  0  0  0  0  0  0  0  0  0  0  0
   -0.4942   -0.9236    1.4028 H   0  0  0  0  0  0  0  0  0  0  0  0
    3.5727   -1.9029    1.7089 H   0  0  0  0  0  0  0  0  0  0  0  0
  1  2  2  0
  2  3  1  0
  2  4  1  0
  4  5  2  0
  5  6  1  0
  6  7  2  0
  7  8  1  0
  8  9  1  0
  9 10  1  0
 10 11  1  0
 11 12  2  0
 12 13  1  0
 13 14  2  0
 14 15  1  0
 15 16  2  0
 16 17  1  0
  7 18  1  0
 18 19  2  0
 19  4  1  0
 17  8  1  0
 16 11  1  0
  5 20  1  0
  6 21  1  0
  9 22  1  0
  9 23  1  0
 10 24  1  0
 10 25  1  0
 12 26  1  0
 13 27  1  0
 14 28  1  0
 15 29  1  0
 17 30  1  0
 17 31  1  0
 19 32  1  0
M  CHG  2   2   1   3  -1
M  END
$$$$
