
     RDKit          3D

 44 45  0  0  0  0  0  0  0  0999 V2000
   -7.4900   -0.2849    1.3357 C   0  0  0  0  0  0  0  0  0  0  0  0
   -6.9368   -1.6944    1.1792 C   0  0  0  0  0  0  0  0  0  0  0  0
   -5.4439   -1.7687    1.4827 C   0  0  0  0  0  0  0  0  0  0  0  0
   -4.7332   -0.9665    0.5313 O   0  0  0  0  0  0  0  0  0  0  0  0
   -3.3901   -0.9440    0.7122 C   0  0  0  0  0  0  0  0  0  0  0  0
   -2.7752   -1.5352    1.5862 O   0  0  0  0  0  0  0  0  0  0  0  0
   -2.7352   -0.0885   -0.3133 C   0  0  0  0  0  0  0  0  0  0  0  0
   -3.4594    0.5997   -1.2922 C   0  0  0  0  0  0  0  0  0  0  0  0
   -2.7868    1.3867   -2.2264 C   0  0  0  0  0  0  0  0  0  0  0  0
   -1.3929    1.4919   -2.1886 C   0  0  0  0  0  0  0  0  0  0  0  0
   -0.6570    0.8116   -1.2175 C   0  0  0  0  0  0  0  0  0  0  0  0
    0.7449    0.8646   -1.1129 N   0  0  0  0  0  0  0  0  0  0  0  0
    1.6382    1.5618   -1.9055 C   0  0  0  0  0  0  0  0  0  0  0  0
    1.3625    2.2772   -2.8647 O   0  0  0  0  0  0  0  0  0  0  0  0
    3.0967    1.3661   -1.4774 C   0  0  0  0  0  0  0  0  0  0  0  0
    3.1958    0.5144   -0.3369 O   0  0  0  0  0  0  0  0  0  0  0  0
    4.4495    0.2759    0.1540 C   0  0  0  0  0  0  0  0  0  0  0  0
    4.4832   -0.5431    1.2882 C   0  0  0  0  0  0  0  0  0  0  0  0
    5.6969   -0.8716    1.8982 C   0  0  0  0  0  0  0  0  0  0  0  0
    6.8892   -0.3723    1.3640 C   0  0  0  0  0  0  0  0  0  0  0  0
    8.1707   -0.7103    1.9959 N   0  0  0  0  0  4  0  0  0  0  0  0
    8.1498   -1.4839    2.9637 O   0  0  0  0  0  0  0  0  0  0  0  0
    9.1974   -0.2023    1.5228 O   0  0  0  0  0  1  0  0  0  0  0  0
    6.8677    0.4480    0.2291 C   0  0  0  0  0  0  0  0  0  0  0  0
    5.6452    0.7699   -0.3735 C   0  0  0  0  0  0  0  0  0  0  0  0
   -1.3364    0.0224   -0.2817 C   0  0  0  0  0  0  0  0  0  0  0  0
   -7.0138    0.4106    0.6375 H   0  0  0  0  0  0  0  0  0  0  0  0
   -7.3316    0.0868    2.3531 H   0  0  0  0  0  0  0  0  0  0  0  0
   -8.5660   -0.2780    1.1354 H   0  0  0  0  0  0  0  0  0  0  0  0
   -7.4781   -2.3713    1.8492 H   0  0  0  0  0  0  0  0  0  0  0  0
   -7.1189   -2.0257    0.1502 H   0  0  0  0  0  0  0  0  0  0  0  0
   -5.2457   -1.4049    2.4976 H   0  0  0  0  0  0  0  0  0  0  0  0
   -5.1093   -2.8091    1.3987 H   0  0  0  0  0  0  0  0  0  0  0  0
   -4.5434    0.5337   -1.3411 H   0  0  0  0  0  0  0  0  0  0  0  0
   -3.3458    1.9230   -2.9900 H   0  0  0  0  0  0  0  0  0  0  0  0
   -0.9118    2.1162   -2.9354 H   0  0  0  0  0  0  0  0  0  0  0  0
    1.1743    0.3273   -0.3641 H   0  0  0  0  0  0  0  0  0  0  0  0
    3.6227    0.9186   -2.3286 H   0  0  0  0  0  0  0  0  0  0  0  0
    3.4961    2.3593   -1.2414 H   0  0  0  0  0  0  0  0  0  0  0  0
    3.5551   -0.9321    1.7029 H   0  0  0  0  0  0  0  0  0  0  0  0
    5.6925   -1.5102    2.7790 H   0  0  0  0  0  0  0  0  0  0  0  0
    7.7878    0.8424   -0.1988 H   0  0  0  0  0  0  0  0  0  0  0  0
    5.6673    1.4054   -1.2535 H   0  0  0  0  0  0  0  0  0  0  0  0
   -0.7823   -0.5168    0.4843 H   0  0  0  0  0  0  0  0  0  0  0  0
  1  2  1  0
  2  3  1  0
  3  4  1  0
  4  5  1  0
  5  6  2  0
  5  7  1  0
  7  8  2  0
  8  9  1  0
  9 10  2  0
 10 11  1  0
 11 12  1  0
 12 13  1  0
 13 14  2  0
 13 15  1  0
 15 16  1  0
 16 17  1  0
 17 18  2  0
 18 19  1  0
 19 20  2  0
 20 21  1  0
 21 22  2  0
 21 23  1  0
 20 24  1  0
 24 25  2  0
 11 26  2  0
 26  7  1  0
 25 17  1  0
  1 27  1  0
  1 28  1  0
  1 29  1  0
  2 30  1  0
  2 31  1  0
  3 32  1  0
  3 33  1  0
  8 34  1  0
  9 35  1  0
 10 36  1  0
 12 37  1  0
 15 38  1  0
 15 39  1  0
 18 40  1  0
 19 41  1  0
 24 42  1  0
 25 43  1  0
 26 44  1  0
M  CHG  2  21   1  23  -1
M  END
$$$$
