
     RDKit          3D

 49 50  0  0  0  0  0  0  0  0999 V2000
    4.3378   -0.0706    2.2421 C   0  0  0  0  0  0  0  0  0  0  0  0
    3.6252   -0.8970    1.1691 C   0  0  0  0  0  0  0  0  0  0  0  0
    4.4082   -2.1829    0.9009 C   0  0  0  0  0  0  0  0  0  0  0  0
    3.4357   -0.0516   -0.1023 C   0  0  0  0  0  0  0  0  0  0  0  0
    2.6171   -0.7623   -1.1777 C   0  0  0  0  0  0  0  0  0  0  0  0
    2.3202    0.1911   -2.2822 N   0  0  0  0  0  4  0  0  0  0  0  0
    3.2222    0.2958   -3.2906 C   0  0  0  0  0  0  0  0  0  0  0  0
    3.0018    1.1364   -4.3732 C   0  0  0  0  0  0  0  0  0  0  0  0
    1.8371    1.8833   -4.4270 C   0  0  0  0  0  0  0  0  0  0  0  0
    0.9173    1.7749   -3.3926 C   0  0  0  0  0  0  0  0  0  0  0  0
    1.1666    0.9168   -2.3126 C   0  0  0  0  0  0  0  0  0  0  0  0
    0.2037    0.8371   -1.2112 C   0  0  0  0  0  0  0  0  0  0  0  0
   -1.0409    0.3628   -1.3800 C   0  0  0  0  0  0  0  0  0  0  0  0
   -2.0334    0.2891   -0.2991 C   0  0  0  0  0  0  0  0  0  0  0  0
   -3.3752    0.5228   -0.5957 C   0  0  0  0  0  0  0  0  0  0  0  0
   -4.3564    0.4436    0.4055 C   0  0  0  0  0  0  0  0  0  0  0  0
   -4.0511    0.1085    1.7351 C   0  0  0  0  0  0  0  0  0  0  0  0
   -5.0262    0.0544    2.7337 N   0  0  0  0  0  0  0  0  0  0  0  0
   -6.4411    0.0897    2.3640 C   0  0  0  0  0  0  0  0  0  0  0  0
   -4.7225   -0.6124    3.9995 C   0  0  0  0  0  0  0  0  0  0  0  0
   -2.6926   -0.1288    2.0042 C   0  0  0  0  0  0  0  0  0  0  0  0
   -1.7016   -0.0509    1.0119 C   0  0  0  0  0  0  0  0  0  0  0  0
    4.4467   -0.6454    3.1680 H   0  0  0  0  0  0  0  0  0  0  0  0
    3.7685    0.8348    2.4781 H   0  0  0  0  0  0  0  0  0  0  0  0
    5.3370    0.2331    1.9119 H   0  0  0  0  0  0  0  0  0  0  0  0
    2.6366   -1.1716    1.5586 H   0  0  0  0  0  0  0  0  0  0  0  0
    5.3837   -1.9673    0.4520 H   0  0  0  0  0  0  0  0  0  0  0  0
    4.5792   -2.7344    1.8318 H   0  0  0  0  0  0  0  0  0  0  0  0
    3.8615   -2.8485    0.2261 H   0  0  0  0  0  0  0  0  0  0  0  0
    2.9421    0.8901    0.1676 H   0  0  0  0  0  0  0  0  0  0  0  0
    4.4137    0.2290   -0.5141 H   0  0  0  0  0  0  0  0  0  0  0  0
    3.1680   -1.6026   -1.6155 H   0  0  0  0  0  0  0  0  0  0  0  0
    1.6785   -1.1674   -0.7890 H   0  0  0  0  0  0  0  0  0  0  0  0
    4.1266   -0.3033   -3.2203 H   0  0  0  0  0  0  0  0  0  0  0  0
    3.7367    1.2084   -5.1725 H   0  0  0  0  0  0  0  0  0  0  0  0
    1.6460    2.5509   -5.2662 H   0  0  0  0  0  0  0  0  0  0  0  0
    0.0057    2.3706   -3.4248 H   0  0  0  0  0  0  0  0  0  0  0  0
    0.5446    1.2035   -0.2467 H   0  0  0  0  0  0  0  0  0  0  0  0
   -1.3925    0.0243   -2.3539 H   0  0  0  0  0  0  0  0  0  0  0  0
   -3.6882    0.7849   -1.6040 H   0  0  0  0  0  0  0  0  0  0  0  0
   -5.3785    0.6565    0.1053 H   0  0  0  0  0  0  0  0  0  0  0  0
   -7.0854    0.0681    3.2501 H   0  0  0  0  0  0  0  0  0  0  0  0
   -6.7054   -0.7719    1.7411 H   0  0  0  0  0  0  0  0  0  0  0  0
   -6.6895    1.0166    1.8358 H   0  0  0  0  0  0  0  0  0  0  0  0
   -5.5842   -0.5989    4.6763 H   0  0  0  0  0  0  0  0  0  0  0  0
   -3.9140   -0.1004    4.5320 H   0  0  0  0  0  0  0  0  0  0  0  0
   -4.4492   -1.6606    3.8352 H   0  0  0  0  0  0  0  0  0  0  0  0
   -2.3632   -0.3808    3.0082 H   0  0  0  0  0  0  0  0  0  0  0  0
   -0.6770   -0.2674    1.2985 H   0  0  0  0  0  0  0  0  0  0  0  0
  1  2  1  0
  2  3  1  0
  2  4  1  0
  4  5  1  0
  5  6  1  0
  6  7  2  0
  7  8  1  0
  8  9  2  0
  9 10  1  0
 10 11  2  0
 11 12  1  0
 12 13  2  3
 13 14  1  0
 14 15  2  0
 15 16  1  0
 16 17  2  0
 17 18  1  0
 18 19  1  0
 18 20  1  0
 17 21  1  0
 21 22  2  0
 11  6  1  0
 22 14  1  0
  1 23  1  0
  1 24  1  0
  1 25  1  0
  2 26  1  0
  3 27  1  0
  3 28  1  0
  3 29  1  0
  4 30  1  0
  4 31  1  0
  5 32  1  0
  5 33  1  0
  7 34  1  0
  8 35  1  0
  9 36  1  0
 10 37  1  0
 12 38  1  0
 13 39  1  0
 15 40  1  0
 16 41  1  0
 19 42  1  0
 19 43  1  0
 19 44  1  0
 20 45  1  0
 20 46  1  0
 20 47  1  0
 21 48  1  0
 22 49  1  0
M  CHG  1   6   1
M  END
$$$$
