
     RDKit          3D

 41 43  0  0  0  0  0  0  0  0999 V2000
    7.6369   -0.1196    2.8272 C   0  0  0  0  0  0  0  0  0  0  0  0
    6.4286   -0.0289    2.2517 C   0  0  0  0  0  0  0  0  0  0  0  0
    6.2553   -0.3876    0.8495 C   0  0  0  0  0  0  0  0  0  0  0  0
    5.0409   -0.3139    0.2716 C   0  0  0  0  0  0  0  0  0  0  0  0
    3.8547    0.1261    1.0355 C   0  0  0  0  0  0  0  0  0  0  0  0
    2.6201    0.1815    0.4745 C   0  0  0  0  0  0  0  0  0  0  0  0
    1.4826    0.5711    1.1285 N   0  0  0  0  0  0  0  0  0  0  0  0
    0.2990    0.5798    0.4404 C   0  0  0  0  0  0  0  0  0  0  0  0
   -0.7674    0.9027    0.9358 O   0  0  0  0  0  0  0  0  0  0  0  0
    0.5504    0.1380   -0.9556 C   0  0  0  0  0  0  0  0  0  0  0  0
   -0.3465    0.0288   -1.9447 C   0  0  0  0  0  0  0  0  0  0  0  0
   -1.7772    0.3219   -1.8231 C   0  0  0  0  0  0  0  0  0  0  0  0
   -2.2732    1.5615   -2.2190 C   0  0  0  0  0  0  0  0  0  0  0  0
   -3.6295    1.8449   -2.0690 C   0  0  0  0  0  0  0  0  0  0  0  0
   -4.5176    0.8967   -1.5404 C   0  0  0  0  0  0  0  0  0  0  0  0
   -5.8011    1.3711   -1.4504 O   0  0  0  0  0  0  0  0  0  0  0  0
   -6.8470    0.4224   -1.3335 C   0  0  0  0  0  0  0  0  0  0  0  0
   -4.0241   -0.3629   -1.1303 C   0  0  0  0  0  0  0  0  0  0  0  0
   -4.9012   -1.2547   -0.5677 O   0  0  0  0  0  0  0  0  0  0  0  0
   -4.4116   -2.5469   -0.2418 C   0  0  0  0  0  0  0  0  0  0  0  0
   -2.6529   -0.6340   -1.2910 C   0  0  0  0  0  0  0  0  0  0  0  0
    2.2366   -0.2372   -1.1813 S   0  0  0  0  0  0  0  0  0  0  0  0
    4.0672    0.5140    2.4476 C   0  0  0  0  0  0  0  0  0  0  0  0
    5.2844    0.4396    3.0204 C   0  0  0  0  0  0  0  0  0  0  0  0
    8.5107   -0.4621    2.2803 H   0  0  0  0  0  0  0  0  0  0  0  0
    7.7937    0.1457    3.8686 H   0  0  0  0  0  0  0  0  0  0  0  0
    7.1169   -0.7151    0.2745 H   0  0  0  0  0  0  0  0  0  0  0  0
    4.9508   -0.5884   -0.7751 H   0  0  0  0  0  0  0  0  0  0  0  0
    1.4565    0.8589    2.0957 H   0  0  0  0  0  0  0  0  0  0  0  0
   -0.0393   -0.2961   -2.9360 H   0  0  0  0  0  0  0  0  0  0  0  0
   -1.6109    2.3209   -2.6259 H   0  0  0  0  0  0  0  0  0  0  0  0
   -4.0085    2.8213   -2.3668 H   0  0  0  0  0  0  0  0  0  0  0  0
   -6.7921   -0.3428   -2.1140 H   0  0  0  0  0  0  0  0  0  0  0  0
   -7.7930    0.9556   -1.4692 H   0  0  0  0  0  0  0  0  0  0  0  0
   -6.8831   -0.0300   -0.3382 H   0  0  0  0  0  0  0  0  0  0  0  0
   -5.2223   -3.0938    0.2492 H   0  0  0  0  0  0  0  0  0  0  0  0
   -4.1387   -3.1011   -1.1455 H   0  0  0  0  0  0  0  0  0  0  0  0
   -3.5821   -2.5059    0.4725 H   0  0  0  0  0  0  0  0  0  0  0  0
   -2.2313   -1.5871   -0.9838 H   0  0  0  0  0  0  0  0  0  0  0  0
    3.2443    0.8739    3.0528 H   0  0  0  0  0  0  0  0  0  0  0  0
    5.4210    0.7317    4.0580 H   0  0  0  0  0  0  0  0  0  0  0  0
  1  2  2  0
  2  3  1  0
  3  4  2  0
  4  5  1  0
  5  6  2  3
  6  7  1  0
  7  8  1  0
  8  9  2  0
  8 10  1  0
 10 11  2  3
 11 12  1  0
 12 13  2  0
 13 14  1  0
 14 15  2  0
 15 16  1  0
 16 17  1  0
 15 18  1  0
 18 19  1  0
 19 20  1  0
 18 21  2  0
 10 22  1  0
  5 23  1  0
 23 24  2  0
 24  2  1  0
 22  6  1  0
 21 12  1  0
  1 25  1  0
  1 26  1  0
  3 27  1  0
  4 28  1  0
  7 29  1  0
 11 30  1  0
 13 31  1  0
 14 32  1  0
 17 33  1  0
 17 34  1  0
 17 35  1  0
 20 36  1  0
 20 37  1  0
 20 38  1  0
 21 39  1  0
 23 40  1  0
 24 41  1  0
M  END
$$$$
