
     RDKit          3D

 57 61  0  0  0  0  0  0  0  0999 V2000
    6.5474    0.0738    0.0078 C   0  0  0  0  0  0  0  0  0  0  0  0
    5.1819    0.0325    0.6961 C   0  0  0  0  0  0  0  0  0  0  0  0
    5.2815    0.6506    2.0897 C   0  0  0  0  0  0  0  0  0  0  0  0
    4.1408    0.7919   -0.1308 C   0  0  0  0  0  0  0  0  0  0  0  0
    4.4787    1.7444   -0.8367 O   0  0  0  0  0  0  0  0  0  0  0  0
    2.8065    0.4060   -0.0159 N   0  0  0  0  0  0  0  0  0  0  0  0
    1.8081    1.1146   -0.8122 C   0  0  0  0  0  0  0  0  0  0  0  0
    0.7836    0.1622   -1.4230 C   0  0  0  0  0  0  0  0  0  0  0  0
    0.0724   -0.7478   -0.3755 C   0  0  0  0  0  0  0  0  0  0  0  0
    0.8323   -0.7120    0.9753 C   0  0  0  0  0  0  0  0  0  0  0  0
    2.3422   -0.7421    0.7582 C   0  0  0  0  0  0  0  0  0  0  0  0
    0.2251   -2.0871   -0.9321 O   0  0  0  0  0  0  0  0  0  0  0  0
   -0.6175   -3.0661   -0.4933 C   0  0  0  0  0  0  0  0  0  0  0  0
   -0.2908   -4.3701   -0.8687 C   0  0  0  0  0  0  0  0  0  0  0  0
   -1.0802   -5.4386   -0.4391 C   0  0  0  0  0  0  0  0  0  0  0  0
   -2.1918   -5.1950    0.3620 C   0  0  0  0  0  0  0  0  0  0  0  0
   -2.9415   -6.2238    0.7768 F   0  0  0  0  0  0  0  0  0  0  0  0
   -2.5364   -3.9029    0.7350 C   0  0  0  0  0  0  0  0  0  0  0  0
   -1.7470   -2.8404    0.2896 C   0  0  0  0  0  0  0  0  0  0  0  0
   -2.0872   -1.4563    0.6417 C   0  0  0  0  0  0  0  0  0  0  0  0
   -2.8395   -1.2296    1.5850 O   0  0  0  0  0  0  0  0  0  0  0  0
   -1.4308   -0.3812   -0.2153 C   0  0  0  0  0  0  0  0  0  0  0  0
   -1.7092    1.0125    0.3259 C   0  0  0  0  0  0  0  0  0  0  0  0
   -2.9260    1.3271   -0.4779 C   0  0  0  0  0  0  0  0  0  0  0  0
   -3.8209    2.4610   -0.1470 C   0  0  0  0  0  0  0  0  0  0  0  0
   -4.9958    2.6355   -0.8915 C   0  0  0  0  0  0  0  0  0  0  0  0
   -5.8611    3.6957   -0.6077 C   0  0  0  0  0  0  0  0  0  0  0  0
   -5.5518    4.5837    0.4194 C   0  0  0  0  0  0  0  0  0  0  0  0
   -6.6139    5.8898    0.7711 Cl  0  0  0  0  0  0  0  0  0  0  0  0
   -4.3846    4.4208    1.1642 C   0  0  0  0  0  0  0  0  0  0  0  0
   -3.5169    3.3600    0.8821 C   0  0  0  0  0  0  0  0  0  0  0  0
   -3.1126    0.5541   -1.5002 N   0  0  0  0  0  0  0  0  0  0  0  0
   -2.0820   -0.4111   -1.4974 O   0  0  0  0  0  0  0  0  0  0  0  0
    7.2799   -0.5206    0.5642 H   0  0  0  0  0  0  0  0  0  0  0  0
    6.9318    1.0969   -0.0697 H   0  0  0  0  0  0  0  0  0  0  0  0
    6.4816   -0.3334   -1.0070 H   0  0  0  0  0  0  0  0  0  0  0  0
    4.8945   -1.0206    0.7757 H   0  0  0  0  0  0  0  0  0  0  0  0
    5.6260    1.6897    2.0356 H   0  0  0  0  0  0  0  0  0  0  0  0
    5.9878    0.0917    2.7124 H   0  0  0  0  0  0  0  0  0  0  0  0
    4.3152    0.6613    2.6024 H   0  0  0  0  0  0  0  0  0  0  0  0
    1.3238    1.8379   -0.1472 H   0  0  0  0  0  0  0  0  0  0  0  0
    2.2826    1.6911   -1.6133 H   0  0  0  0  0  0  0  0  0  0  0  0
    1.3034   -0.4601   -2.1647 H   0  0  0  0  0  0  0  0  0  0  0  0
    0.0612    0.7536   -1.9962 H   0  0  0  0  0  0  0  0  0  0  0  0
    0.5636   -1.5692    1.6030 H   0  0  0  0  0  0  0  0  0  0  0  0
    0.5746    0.1921    1.5401 H   0  0  0  0  0  0  0  0  0  0  0  0
    2.6417   -1.6479    0.2183 H   0  0  0  0  0  0  0  0  0  0  0  0
    2.8428   -0.7588    1.7293 H   0  0  0  0  0  0  0  0  0  0  0  0
    0.5806   -4.5562   -1.4920 H   0  0  0  0  0  0  0  0  0  0  0  0
   -0.8356   -6.4580   -0.7226 H   0  0  0  0  0  0  0  0  0  0  0  0
   -3.4138   -3.7345    1.3523 H   0  0  0  0  0  0  0  0  0  0  0  0
   -0.9413    1.7424    0.0588 H   0  0  0  0  0  0  0  0  0  0  0  0
   -1.8872    1.0478    1.4028 H   0  0  0  0  0  0  0  0  0  0  0  0
   -5.2477    1.9460   -1.6956 H   0  0  0  0  0  0  0  0  0  0  0  0
   -6.7702    3.8193   -1.1906 H   0  0  0  0  0  0  0  0  0  0  0  0
   -4.1447    5.1158    1.9651 H   0  0  0  0  0  0  0  0  0  0  0  0
   -2.6141    3.2618    1.4772 H   0  0  0  0  0  0  0  0  0  0  0  0
  1  2  1  0
  2  3  1  0
  2  4  1  0
  4  5  2  0
  4  6  1  0
  6  7  1  0
  7  8  1  0
  8  9  1  0
  9 10  1  0
 10 11  1  0
  9 12  1  0
 12 13  1  0
 13 14  2  0
 14 15  1  0
 15 16  2  0
 16 17  1  0
 16 18  1  0
 18 19  2  0
 19 20  1  0
 20 21  2  0
 20 22  1  0
 22 23  1  0
 23 24  1  0
 24 25  1  0
 25 26  2  0
 26 27  1  0
 27 28  2  0
 28 29  1  0
 28 30  1  0
 30 31  2  0
 24 32  2  0
 32 33  1  0
 11  6  1  0
 19 13  1  0
 33 22  1  0
 22  9  1  0
 31 25  1  0
  1 34  1  0
  1 35  1  0
  1 36  1  0
  2 37  1  0
  3 38  1  0
  3 39  1  0
  3 40  1  0
  7 41  1  0
  7 42  1  0
  8 43  1  0
  8 44  1  0
 10 45  1  0
 10 46  1  0
 11 47  1  0
 11 48  1  0
 14 49  1  0
 15 50  1  0
 18 51  1  0
 23 52  1  0
 23 53  1  0
 26 54  1  0
 27 55  1  0
 30 56  1  0
 31 57  1  0
M  END
$$$$
