
     RDKit          3D

 40 41  0  0  0  0  0  0  0  0999 V2000
    3.8493    0.5787   -6.0034 C   0  0  0  0  0  0  0  0  0  0  0  0
    4.9231    0.5384   -4.9250 C   0  0  0  0  0  0  0  0  0  0  0  0
    4.5383   -0.3556   -3.7477 C   0  0  0  0  0  0  0  0  0  0  0  0
    3.4781    0.2491   -2.8356 C   0  0  0  0  0  0  0  0  0  0  0  0
    3.0845    1.4022   -2.9613 O   0  0  0  0  0  0  0  0  0  0  0  0
    3.0660   -0.6598   -1.8724 N   0  0  0  0  0  0  0  0  0  0  0  0
    2.1073   -0.4622   -0.8579 C   0  0  0  0  0  0  0  0  0  0  0  0
    1.8620   -1.5360    0.0067 C   0  0  0  0  0  0  0  0  0  0  0  0
    0.9251   -1.4221    1.0393 C   0  0  0  0  0  0  0  0  0  0  0  0
    0.2117   -0.2323    1.2177 C   0  0  0  0  0  0  0  0  0  0  0  0
   -0.7732   -0.1592    2.3317 C   0  0  0  0  0  0  0  0  0  0  0  0
   -0.7224   -0.9475    3.2739 O   0  0  0  0  0  0  0  0  0  0  0  0
   -1.7561    0.8085    2.2330 N   0  0  0  0  0  0  0  0  0  0  0  0
   -2.8236    0.7138    3.1522 N   0  0  0  0  0  0  0  0  0  0  0  0
   -4.1086    0.9004    2.6586 C   0  0  0  0  0  0  0  0  0  0  0  0
   -4.2699    1.3414    1.5179 O   0  0  0  0  0  0  0  0  0  0  0  0
   -5.1827    0.5276    3.5698 C   0  0  0  0  0  0  0  0  0  0  0  0
   -5.1399    0.1726    4.9082 C   0  0  0  0  0  0  0  0  0  0  0  0
   -6.4301   -0.1264    5.4396 C   0  0  0  0  0  0  0  0  0  0  0  0
   -7.4205    0.0134    4.4955 C   0  0  0  0  0  0  0  0  0  0  0  0
   -6.7981    0.5052    2.9832 S   0  0  0  0  0  0  0  0  0  0  0  0
    0.4620    0.8473    0.3648 C   0  0  0  0  0  0  0  0  0  0  0  0
    1.4025    0.7282   -0.6680 C   0  0  0  0  0  0  0  0  0  0  0  0
    2.9121    0.9959   -5.6235 H   0  0  0  0  0  0  0  0  0  0  0  0
    3.6457   -0.4250   -6.3903 H   0  0  0  0  0  0  0  0  0  0  0  0
    4.1800    1.2021   -6.8402 H   0  0  0  0  0  0  0  0  0  0  0  0
    5.8464    0.1516   -5.3724 H   0  0  0  0  0  0  0  0  0  0  0  0
    5.1363    1.5575   -4.5828 H   0  0  0  0  0  0  0  0  0  0  0  0
    5.4299   -0.5278   -3.1322 H   0  0  0  0  0  0  0  0  0  0  0  0
    4.1882   -1.3283   -4.1125 H   0  0  0  0  0  0  0  0  0  0  0  0
    3.5038   -1.5723   -1.8965 H   0  0  0  0  0  0  0  0  0  0  0  0
    2.3952   -2.4768   -0.1052 H   0  0  0  0  0  0  0  0  0  0  0  0
    0.7532   -2.2683    1.7023 H   0  0  0  0  0  0  0  0  0  0  0  0
   -2.0077    1.2144    1.3309 H   0  0  0  0  0  0  0  0  0  0  0  0
   -2.6537    0.0809    3.9314 H   0  0  0  0  0  0  0  0  0  0  0  0
   -4.2335    0.1320    5.4999 H   0  0  0  0  0  0  0  0  0  0  0  0
   -6.6208   -0.4248    6.4635 H   0  0  0  0  0  0  0  0  0  0  0  0
   -8.4832   -0.1453    4.6199 H   0  0  0  0  0  0  0  0  0  0  0  0
   -0.0407    1.8023    0.4913 H   0  0  0  0  0  0  0  0  0  0  0  0
    1.5642    1.5935   -1.3043 H   0  0  0  0  0  0  0  0  0  0  0  0
  1  2  1  0
  2  3  1  0
  3  4  1  0
  4  5  2  0
  4  6  1  0
  6  7  1  0
  7  8  2  0
  8  9  1  0
  9 10  2  0
 10 11  1  0
 11 12  2  0
 11 13  1  0
 13 14  1  0
 14 15  1  0
 15 16  2  0
 15 17  1  0
 17 18  2  0
 18 19  1  0
 19 20  2  0
 20 21  1  0
 10 22  1  0
 22 23  2  0
 23  7  1  0
 21 17  1  0
  1 24  1  0
  1 25  1  0
  1 26  1  0
  2 27  1  0
  2 28  1  0
  3 29  1  0
  3 30  1  0
  6 31  1  0
  8 32  1  0
  9 33  1  0
 13 34  1  0
 14 35  1  0
 18 36  1  0
 19 37  1  0
 20 38  1  0
 22 39  1  0
 23 40  1  0
M  END
$$$$
