
     RDKit          3D

 42 43  0  0  0  0  0  0  0  0999 V2000
   -5.6271    1.5979   -1.0759 C   0  0  0  0  0  0  0  0  0  0  0  0
   -4.4360    0.7139   -0.8926 C   0  0  0  0  0  0  0  0  0  0  0  0
   -4.0559    0.0296    0.2071 C   0  0  0  0  0  0  0  0  0  0  0  0
   -4.8438   -0.0056    1.4912 C   0  0  0  0  0  0  0  0  0  0  0  0
   -2.8000   -0.8359    0.2570 C   0  0  0  0  0  0  0  0  0  0  0  0
   -1.7675   -0.5334   -0.7476 N   0  0  0  0  0  0  0  0  0  0  0  0
   -0.7773   -1.6267   -0.8464 C   0  0  0  0  0  0  0  0  0  0  0  0
    0.4458   -1.5089    0.0909 C   0  0  0  0  0  0  0  0  0  0  0  0
    1.1611   -0.2396   -0.1189 N   0  0  0  0  0  0  0  0  0  0  0  0
    2.5192   -0.1377    0.1373 C   0  0  0  0  0  0  0  0  0  0  0  0
    3.1694   -1.0137    1.0228 C   0  0  0  0  0  0  0  0  0  0  0  0
    4.5407   -0.9198    1.2966 C   0  0  0  0  0  0  0  0  0  0  0  0
    5.3178    0.0637    0.6870 C   0  0  0  0  0  0  0  0  0  0  0  0
    6.7767    0.1847    1.0060 C   0  0  0  0  0  0  0  0  0  0  0  0
    4.6938    0.9592   -0.1813 C   0  0  0  0  0  0  0  0  0  0  0  0
    3.3213    0.8536   -0.4499 C   0  0  0  0  0  0  0  0  0  0  0  0
    0.4088    0.8204   -0.8078 C   0  0  0  0  0  0  0  0  0  0  0  0
   -1.0922    0.7523   -0.4341 C   0  0  0  0  0  0  0  0  0  0  0  0
   -6.3544    1.1078   -1.7268 H   0  0  0  0  0  0  0  0  0  0  0  0
   -6.1242    1.8640   -0.1425 H   0  0  0  0  0  0  0  0  0  0  0  0
   -5.3179    2.5347   -1.5555 H   0  0  0  0  0  0  0  0  0  0  0  0
   -3.8228    0.6230   -1.7887 H   0  0  0  0  0  0  0  0  0  0  0  0
   -4.2510    0.4044    2.3144 H   0  0  0  0  0  0  0  0  0  0  0  0
   -5.1035   -1.0416    1.7358 H   0  0  0  0  0  0  0  0  0  0  0  0
   -5.7778    0.5552    1.4520 H   0  0  0  0  0  0  0  0  0  0  0  0
   -3.1503   -1.8661    0.1236 H   0  0  0  0  0  0  0  0  0  0  0  0
   -2.3598   -0.7902    1.2612 H   0  0  0  0  0  0  0  0  0  0  0  0
   -0.4085   -1.6294   -1.8809 H   0  0  0  0  0  0  0  0  0  0  0  0
   -1.2529   -2.6056   -0.7134 H   0  0  0  0  0  0  0  0  0  0  0  0
    1.0988   -2.3639   -0.1208 H   0  0  0  0  0  0  0  0  0  0  0  0
    0.1238   -1.5755    1.1361 H   0  0  0  0  0  0  0  0  0  0  0  0
    2.6093   -1.7826    1.5480 H   0  0  0  0  0  0  0  0  0  0  0  0
    4.9881   -1.6180    2.0002 H   0  0  0  0  0  0  0  0  0  0  0  0
    7.2454   -0.8035    1.0454 H   0  0  0  0  0  0  0  0  0  0  0  0
    6.9089    0.6804    1.9719 H   0  0  0  0  0  0  0  0  0  0  0  0
    7.3036    0.7645    0.2411 H   0  0  0  0  0  0  0  0  0  0  0  0
    5.2653    1.7516   -0.6601 H   0  0  0  0  0  0  0  0  0  0  0  0
    2.8967    1.5698   -1.1497 H   0  0  0  0  0  0  0  0  0  0  0  0
    0.7678    1.8113   -0.5084 H   0  0  0  0  0  0  0  0  0  0  0  0
    0.5365    0.7244   -1.8923 H   0  0  0  0  0  0  0  0  0  0  0  0
   -1.6165    1.5617   -0.9538 H   0  0  0  0  0  0  0  0  0  0  0  0
   -1.1590    0.9695    0.6402 H   0  0  0  0  0  0  0  0  0  0  0  0
  1  2  1  0
  2  3  2  3
  3  4  1  0
  3  5  1  0
  5  6  1  0
  6  7  1  0
  7  8  1  0
  8  9  1  0
  9 10  1  0
 10 11  2  0
 11 12  1  0
 12 13  2  0
 13 14  1  0
 13 15  1  0
 15 16  2  0
  9 17  1  0
 17 18  1  0
 18  6  1  0
 16 10  1  0
  1 19  1  0
  1 20  1  0
  1 21  1  0
  2 22  1  0
  4 23  1  0
  4 24  1  0
  4 25  1  0
  5 26  1  0
  5 27  1  0
  7 28  1  0
  7 29  1  0
  8 30  1  0
  8 31  1  0
 11 32  1  0
 12 33  1  0
 14 34  1  0
 14 35  1  0
 14 36  1  0
 15 37  1  0
 16 38  1  0
 17 39  1  0
 17 40  1  0
 18 41  1  0
 18 42  1  0
M  END
$$$$
