
     RDKit          3D

 57 61  0  0  0  0  0  0  0  0999 V2000
    3.6193    4.4218    2.8391 O   0  0  0  0  0  0  0  0  0  0  0  0
    3.2043    3.3926    2.3182 C   0  0  0  0  0  0  0  0  0  0  0  0
    1.8870    3.2657    1.8917 N   0  0  0  0  0  0  0  0  0  0  0  0
    1.3688    2.1293    1.2731 C   0  0  0  0  0  0  0  0  0  0  0  0
   -0.1028    2.2264    0.8960 C   0  0  0  0  0  0  0  0  0  0  0  0
   -0.4878    1.2235   -0.1972 C   0  0  0  0  0  0  0  0  0  0  0  0
   -1.9833    1.2455   -0.4887 C   0  0  0  0  0  0  0  0  0  0  0  0
   -2.7976    1.0923    0.7446 N   0  0  0  0  0  0  0  0  0  0  0  0
   -3.1303   -0.4950    1.2855 S   0  0  0  0  0  6  0  0  0  0  0  0
   -1.8716   -1.2018    1.2728 O   0  0  0  0  0  0  0  0  0  0  0  0
   -3.9522   -0.4112    2.4713 O   0  0  0  0  0  0  0  0  0  0  0  0
   -4.1769   -1.1592    0.0005 C   0  0  0  0  0  0  0  0  0  0  0  0
   -5.1039   -0.2857   -0.5940 C   0  0  0  0  0  0  0  0  0  0  0  0
   -5.9209   -0.7279   -1.6322 C   0  0  0  0  0  0  0  0  0  0  0  0
   -5.8208   -2.0411   -2.0786 C   0  0  0  0  0  0  0  0  0  0  0  0
   -4.9166   -2.9179   -1.4753 C   0  0  0  0  0  0  0  0  0  0  0  0
   -4.0876   -2.4999   -0.4140 C   0  0  0  0  0  0  0  0  0  0  0  0
   -3.1661   -3.5094    0.2296 C   0  0  0  0  0  0  0  0  0  0  0  0
   -3.1678   -3.4604    1.5864 F   0  0  0  0  0  0  0  0  0  0  0  0
   -1.8791   -3.3925   -0.1900 F   0  0  0  0  0  0  0  0  0  0  0  0
   -3.5192   -4.7954   -0.0732 F   0  0  0  0  0  0  0  0  0  0  0  0
   -2.4479    2.0760    1.7965 C   0  0  0  0  0  0  0  0  0  0  0  0
   -0.9672    2.0152    2.1443 C   0  0  0  0  0  0  0  0  0  0  0  0
    2.0555    1.0427    1.0570 N   0  0  0  0  0  0  0  0  0  0  0  0
    3.3422    1.1383    1.4692 C   0  0  0  0  0  0  0  0  0  0  0  0
    3.9703    2.2023    2.0687 C   0  0  0  0  0  0  0  0  0  0  0  0
    5.2719    1.9048    2.3302 N   0  0  0  0  0  0  0  0  0  0  0  0
    5.4858    0.6575    1.9087 N   0  0  0  0  0  0  0  0  0  0  0  0
    4.3240    0.1939    1.3836 N   0  0  0  0  0  0  0  0  0  0  0  0
    4.2182   -1.1631    0.8891 C   0  0  0  0  0  0  0  0  0  0  0  0
    4.2107   -1.2088   -0.6187 C   0  0  0  0  0  0  0  0  0  0  0  0
    3.0081   -1.3983   -1.3202 C   0  0  0  0  0  0  0  0  0  0  0  0
    2.9964   -1.4351   -2.7170 C   0  0  0  0  0  0  0  0  0  0  0  0
    4.1852   -1.2787   -3.4265 C   0  0  0  0  0  0  0  0  0  0  0  0
    5.3748   -1.0841   -2.7349 C   0  0  0  0  0  0  0  0  0  0  0  0
    6.5159   -0.9304   -3.4190 F   0  0  0  0  0  0  0  0  0  0  0  0
    5.3998   -1.0463   -1.3443 C   0  0  0  0  0  0  0  0  0  0  0  0
    1.3177    4.0849    2.0425 H   0  0  0  0  0  0  0  0  0  0  0  0
   -0.2814    3.2416    0.5158 H   0  0  0  0  0  0  0  0  0  0  0  0
    0.0641    1.4518   -1.1176 H   0  0  0  0  0  0  0  0  0  0  0  0
   -0.1841    0.2107    0.0894 H   0  0  0  0  0  0  0  0  0  0  0  0
   -2.2327    0.4693   -1.2191 H   0  0  0  0  0  0  0  0  0  0  0  0
   -2.2588    2.1992   -0.9559 H   0  0  0  0  0  0  0  0  0  0  0  0
   -5.1979    0.7420   -0.2476 H   0  0  0  0  0  0  0  0  0  0  0  0
   -6.6370   -0.0496   -2.0903 H   0  0  0  0  0  0  0  0  0  0  0  0
   -6.4574   -2.3902   -2.8890 H   0  0  0  0  0  0  0  0  0  0  0  0
   -4.8718   -3.9476   -1.8322 H   0  0  0  0  0  0  0  0  0  0  0  0
   -2.7065    3.0758    1.4257 H   0  0  0  0  0  0  0  0  0  0  0  0
   -3.0579    1.9259    2.6926 H   0  0  0  0  0  0  0  0  0  0  0  0
   -0.7272    1.0494    2.6070 H   0  0  0  0  0  0  0  0  0  0  0  0
   -0.7414    2.7811    2.8960 H   0  0  0  0  0  0  0  0  0  0  0  0
    5.0594   -1.7444    1.2846 H   0  0  0  0  0  0  0  0  0  0  0  0
    3.3029   -1.5975    1.3076 H   0  0  0  0  0  0  0  0  0  0  0  0
    2.0686   -1.5130   -0.7799 H   0  0  0  0  0  0  0  0  0  0  0  0
    2.0604   -1.5852   -3.2487 H   0  0  0  0  0  0  0  0  0  0  0  0
    4.1934   -1.3051   -4.5113 H   0  0  0  0  0  0  0  0  0  0  0  0
    6.3492   -0.8848   -0.8396 H   0  0  0  0  0  0  0  0  0  0  0  0
  1  2  2  0
  2  3  1  0
  3  4  1  0
  4  5  1  0
  5  6  1  0
  6  7  1  0
  7  8  1  0
  8  9  1  0
  9 10  2  0
  9 11  2  0
  9 12  1  0
 12 13  2  0
 13 14  1  0
 14 15  2  0
 15 16  1  0
 16 17  2  0
 17 18  1  0
 18 19  1  0
 18 20  1  0
 18 21  1  0
  8 22  1  0
 22 23  1  0
  4 24  2  0
 24 25  1  0
 25 26  2  0
 26 27  1  0
 27 28  2  0
 28 29  1  0
 29 30  1  0
 30 31  1  0
 31 32  2  0
 32 33  1  0
 33 34  2  0
 34 35  1  0
 35 36  1  0
 35 37  2  0
 26  2  1  0
 37 31  1  0
 23  5  1  0
 29 25  1  0
 17 12  1  0
  3 38  1  0
  5 39  1  0
  6 40  1  0
  6 41  1  0
  7 42  1  0
  7 43  1  0
 13 44  1  0
 14 45  1  0
 15 46  1  0
 16 47  1  0
 22 48  1  0
 22 49  1  0
 23 50  1  0
 23 51  1  0
 30 52  1  0
 30 53  1  0
 32 54  1  0
 33 55  1  0
 34 56  1  0
 37 57  1  0
M  END
$$$$
