
     RDKit          3D

 63 67  0  0  0  0  0  0  0  0999 V2000
    3.0379    5.5582   -3.4929 C   0  0  0  0  0  0  0  0  0  0  0  0
    3.3017    4.4090   -4.2871 O   0  0  0  0  0  0  0  0  0  0  0  0
    3.3377    3.2078   -3.6345 C   0  0  0  0  0  0  0  0  0  0  0  0
    3.3113    3.0243   -2.2533 C   0  0  0  0  0  0  0  0  0  0  0  0
    3.3513    1.7325   -1.7134 C   0  0  0  0  0  0  0  0  0  0  0  0
    3.4138    0.6065   -2.5445 C   0  0  0  0  0  0  0  0  0  0  0  0
    3.4219   -0.7477   -1.9687 C   0  0  0  0  0  0  0  0  0  0  0  0
    4.7352   -1.7828   -2.3424 S   0  0  0  0  0  0  0  0  0  0  0  0
    4.1235   -3.0656   -1.3823 C   0  0  0  0  0  0  0  0  0  0  0  0
    4.7070   -4.3336   -1.1957 C   0  0  0  0  0  0  0  0  0  0  0  0
    4.0662   -5.2693   -0.3759 C   0  0  0  0  0  0  0  0  0  0  0  0
    2.8662   -4.9578    0.2472 C   0  0  0  0  0  0  0  0  0  0  0  0
    2.1468   -5.7829    1.0680 O   0  0  0  0  0  0  0  0  0  0  0  0
    2.6548   -7.0963    1.2671 C   0  0  0  0  0  0  0  0  0  0  0  0
    2.2975   -3.6933    0.0527 C   0  0  0  0  0  0  0  0  0  0  0  0
    2.9225   -2.7160   -0.7669 C   0  0  0  0  0  0  0  0  0  0  0  0
    2.5251   -1.3645   -1.1061 C   0  0  0  0  0  0  0  0  0  0  0  0
    1.3253   -0.6864   -0.6199 C   0  0  0  0  0  0  0  0  0  0  0  0
    0.3094   -0.3076   -1.5018 C   0  0  0  0  0  0  0  0  0  0  0  0
   -0.8259    0.3481   -1.0191 C   0  0  0  0  0  0  0  0  0  0  0  0
   -0.9657    0.6258    0.3429 C   0  0  0  0  0  0  0  0  0  0  0  0
   -2.1208    1.2765    0.6759 O   0  0  0  0  0  0  0  0  0  0  0  0
   -2.3560    1.5227    2.0645 C   0  0  0  0  0  0  0  0  0  0  0  0
   -3.6998    2.2591    2.2316 C   0  0  0  0  0  0  0  0  0  0  0  0
   -4.8832    1.4408    1.9109 N   0  0  0  0  0  0  0  0  0  0  0  0
   -5.1885    0.4110    2.9252 C   0  0  0  0  0  0  0  0  0  0  0  0
   -6.3590    0.7853    3.8512 C   0  0  0  0  0  0  0  0  0  0  0  0
   -7.5828    1.0460    3.1518 O   0  0  0  0  0  0  0  0  0  0  0  0
   -7.3741    1.5179    1.8128 C   0  0  0  0  0  0  0  0  0  0  0  0
   -6.0610    2.2990    1.6626 C   0  0  0  0  0  0  0  0  0  0  0  0
    0.0445    0.2419    1.2250 C   0  0  0  0  0  0  0  0  0  0  0  0
    1.1850   -0.4121    0.7455 C   0  0  0  0  0  0  0  0  0  0  0  0
    3.4463    0.8003   -3.9315 C   0  0  0  0  0  0  0  0  0  0  0  0
    3.4146    2.0908   -4.4682 C   0  0  0  0  0  0  0  0  0  0  0  0
    2.0876    5.4623   -2.9577 H   0  0  0  0  0  0  0  0  0  0  0  0
    2.9558    6.4173   -4.1658 H   0  0  0  0  0  0  0  0  0  0  0  0
    3.8634    5.7545   -2.8010 H   0  0  0  0  0  0  0  0  0  0  0  0
    3.2599    3.8613   -1.5653 H   0  0  0  0  0  0  0  0  0  0  0  0
    3.3287    1.6143   -0.6321 H   0  0  0  0  0  0  0  0  0  0  0  0
    5.6447   -4.5857   -1.6830 H   0  0  0  0  0  0  0  0  0  0  0  0
    4.5410   -6.2370   -0.2505 H   0  0  0  0  0  0  0  0  0  0  0  0
    2.7064   -7.6482    0.3218 H   0  0  0  0  0  0  0  0  0  0  0  0
    3.6307   -7.0708    1.7647 H   0  0  0  0  0  0  0  0  0  0  0  0
    1.9593   -7.6273    1.9247 H   0  0  0  0  0  0  0  0  0  0  0  0
    1.3519   -3.4616    0.5380 H   0  0  0  0  0  0  0  0  0  0  0  0
    0.3917   -0.5145   -2.5658 H   0  0  0  0  0  0  0  0  0  0  0  0
   -1.6108    0.6436   -1.7114 H   0  0  0  0  0  0  0  0  0  0  0  0
   -2.3519    0.5823    2.6262 H   0  0  0  0  0  0  0  0  0  0  0  0
   -1.5664    2.1776    2.4535 H   0  0  0  0  0  0  0  0  0  0  0  0
   -3.7793    2.6495    3.2539 H   0  0  0  0  0  0  0  0  0  0  0  0
   -3.6751    3.1215    1.5523 H   0  0  0  0  0  0  0  0  0  0  0  0
   -5.4631   -0.5000    2.3781 H   0  0  0  0  0  0  0  0  0  0  0  0
   -4.3142    0.1539    3.5325 H   0  0  0  0  0  0  0  0  0  0  0  0
   -6.1103    1.6730    4.4450 H   0  0  0  0  0  0  0  0  0  0  0  0
   -6.5542   -0.0299    4.5555 H   0  0  0  0  0  0  0  0  0  0  0  0
   -8.2244    2.1580    1.5566 H   0  0  0  0  0  0  0  0  0  0  0  0
   -7.4001    0.6560    1.1351 H   0  0  0  0  0  0  0  0  0  0  0  0
   -6.0776    3.1375    2.3721 H   0  0  0  0  0  0  0  0  0  0  0  0
   -5.9944    2.7133    0.6508 H   0  0  0  0  0  0  0  0  0  0  0  0
   -0.0195    0.4372    2.2894 H   0  0  0  0  0  0  0  0  0  0  0  0
    1.9658   -0.7009    1.4456 H   0  0  0  0  0  0  0  0  0  0  0  0
    3.4857   -0.0501   -4.6082 H   0  0  0  0  0  0  0  0  0  0  0  0
    3.4403    2.2253   -5.5468 H   0  0  0  0  0  0  0  0  0  0  0  0
  1  2  1  0
  2  3  1  0
  3  4  2  0
  4  5  1  0
  5  6  2  0
  6  7  1  0
  7  8  1  0
  8  9  1  0
  9 10  2  0
 10 11  1  0
 11 12  2  0
 12 13  1  0
 13 14  1  0
 12 15  1  0
 15 16  2  0
 16 17  1  0
 17 18  1  0
 18 19  2  0
 19 20  1  0
 20 21  2  0
 21 22  1  0
 22 23  1  0
 23 24  1  0
 24 25  1  0
 25 26  1  0
 26 27  1  0
 27 28  1  0
 28 29  1  0
 29 30  1  0
 21 31  1  0
 31 32  2  0
  6 33  1  0
 33 34  2  0
 34  3  1  0
 17  7  2  0
 32 18  1  0
 16  9  1  0
 30 25  1  0
  1 35  1  0
  1 36  1  0
  1 37  1  0
  4 38  1  0
  5 39  1  0
 10 40  1  0
 11 41  1  0
 14 42  1  0
 14 43  1  0
 14 44  1  0
 15 45  1  0
 19 46  1  0
 20 47  1  0
 23 48  1  0
 23 49  1  0
 24 50  1  0
 24 51  1  0
 26 52  1  0
 26 53  1  0
 27 54  1  0
 27 55  1  0
 29 56  1  0
 29 57  1  0
 30 58  1  0
 30 59  1  0
 31 60  1  0
 32 61  1  0
 33 62  1  0
 34 63  1  0
M  END
$$$$
