
     RDKit          3D

 51 53  0  0  0  0  0  0  0  0999 V2000
    2.3274    2.2408   -3.0210 N   0  0  0  0  0  0  0  0  0  0  0  0
    2.7181    1.6510   -2.0997 C   0  0  0  0  0  0  0  0  0  0  0  0
    3.1791    0.9509   -0.9515 C   0  0  0  0  0  0  0  0  0  0  0  0
    2.7335   -0.2425   -0.5161 C   0  0  0  0  0  0  0  0  0  0  0  0
    1.6665   -0.9692   -1.1144 C   0  0  0  0  0  0  0  0  0  0  0  0
    1.2242   -2.2532   -0.8137 C   0  0  0  0  0  0  0  0  0  0  0  0
    0.1332   -2.5524   -1.6642 C   0  0  0  0  0  0  0  0  0  0  0  0
   -0.0494   -1.4396   -2.4499 C   0  0  0  0  0  0  0  0  0  0  0  0
   -1.0109   -1.0913   -3.5233 C   0  0  0  0  0  0  0  0  0  0  0  0
   -2.0923   -0.3394   -2.9408 N   0  0  0  0  0  0  0  0  0  0  0  0
   -3.2145   -0.9452   -2.4337 C   0  0  0  0  0  0  0  0  0  0  0  0
   -3.5120   -2.1280   -2.5371 O   0  0  0  0  0  0  0  0  0  0  0  0
   -4.1470    0.0079   -1.6549 C   0  0  0  0  0  0  0  0  0  0  0  0
   -3.8106    1.1722   -1.4992 O   0  0  0  0  0  0  0  0  0  0  0  0
   -5.2860   -0.6363   -1.2183 N   0  0  0  0  0  0  0  0  0  0  0  0
   -6.3558   -0.0971   -0.4833 C   0  0  0  0  0  0  0  0  0  0  0  0
   -7.4032   -0.9638   -0.1493 C   0  0  0  0  0  0  0  0  0  0  0  0
   -8.4987   -0.4962    0.5792 C   0  0  0  0  0  0  0  0  0  0  0  0
   -9.7764   -1.5771    0.9817 Cl  0  0  0  0  0  0  0  0  0  0  0  0
   -8.5676    0.8321    0.9830 C   0  0  0  0  0  0  0  0  0  0  0  0
   -7.5262    1.6928    0.6501 C   0  0  0  0  0  0  0  0  0  0  0  0
   -7.6002    3.3408    1.1439 Cl  0  0  0  0  0  0  0  0  0  0  0  0
   -6.4238    1.2379   -0.0787 C   0  0  0  0  0  0  0  0  0  0  0  0
    0.8616   -0.4869   -2.1181 O   0  0  0  0  0  0  0  0  0  0  0  0
    4.3171    1.5513   -0.2087 C   0  0  0  0  0  0  0  0  0  0  0  0
    5.3646    1.8413   -0.7727 O   0  0  0  0  0  0  0  0  0  0  0  0
    4.0856    1.7453    1.1342 N   0  0  0  0  0  0  0  0  0  0  0  0
    5.1290    2.2017    2.0264 C   0  0  0  0  0  0  0  0  0  0  0  0
    5.7686    1.0397    2.7267 C   0  0  0  0  0  0  0  0  0  0  0  0
    6.7661    0.2781    2.1100 C   0  0  0  0  0  0  0  0  0  0  0  0
    7.3183   -0.8100    2.7789 C   0  0  0  0  0  0  0  0  0  0  0  0
    6.8463   -1.1081    4.0459 C   0  0  0  0  0  0  0  0  0  0  0  0
    5.8774   -0.4043    4.6703 N   0  0  0  0  0  0  0  0  0  0  0  0
    5.3651    0.6521    4.0000 C   0  0  0  0  0  0  0  0  0  0  0  0
    3.2148   -0.7152    0.3380 H   0  0  0  0  0  0  0  0  0  0  0  0
    1.6475   -2.9039   -0.0600 H   0  0  0  0  0  0  0  0  0  0  0  0
   -0.4524   -3.4613   -1.6992 H   0  0  0  0  0  0  0  0  0  0  0  0
   -1.3979   -1.9937   -4.0074 H   0  0  0  0  0  0  0  0  0  0  0  0
   -0.5367   -0.4620   -4.2828 H   0  0  0  0  0  0  0  0  0  0  0  0
   -1.9233    0.6234   -2.6611 H   0  0  0  0  0  0  0  0  0  0  0  0
   -5.3253   -1.6228   -1.4704 H   0  0  0  0  0  0  0  0  0  0  0  0
   -7.3760   -2.0075   -0.4538 H   0  0  0  0  0  0  0  0  0  0  0  0
   -9.4215    1.1932    1.5492 H   0  0  0  0  0  0  0  0  0  0  0  0
   -5.6347    1.9447   -0.3172 H   0  0  0  0  0  0  0  0  0  0  0  0
    3.1989    1.4826    1.5438 H   0  0  0  0  0  0  0  0  0  0  0  0
    4.6663    2.8823    2.7495 H   0  0  0  0  0  0  0  0  0  0  0  0
    5.8836    2.7762    1.4773 H   0  0  0  0  0  0  0  0  0  0  0  0
    7.1140    0.5318    1.1099 H   0  0  0  0  0  0  0  0  0  0  0  0
    8.0977   -1.4099    2.3223 H   0  0  0  0  0  0  0  0  0  0  0  0
    7.2466   -1.9462    4.6097 H   0  0  0  0  0  0  0  0  0  0  0  0
    4.5909    1.1926    4.5385 H   0  0  0  0  0  0  0  0  0  0  0  0
  1  2  3  0
  2  3  1  0
  3  4  2  3
  4  5  1  0
  5  6  2  0
  6  7  1  0
  7  8  2  0
  8  9  1  0
  9 10  1  0
 10 11  1  0
 11 12  2  0
 11 13  1  0
 13 14  2  0
 13 15  1  0
 15 16  1  0
 16 17  2  0
 17 18  1  0
 18 19  1  0
 18 20  2  0
 20 21  1  0
 21 22  1  0
 21 23  2  0
  8 24  1  0
  3 25  1  0
 25 26  2  0
 25 27  1  0
 27 28  1  0
 28 29  1  0
 29 30  2  0
 30 31  1  0
 31 32  2  0
 32 33  1  0
 33 34  2  0
 24  5  1  0
 34 29  1  0
 23 16  1  0
  4 35  1  0
  6 36  1  0
  7 37  1  0
  9 38  1  0
  9 39  1  0
 10 40  1  0
 15 41  1  0
 17 42  1  0
 20 43  1  0
 23 44  1  0
 27 45  1  0
 28 46  1  0
 28 47  1  0
 30 48  1  0
 31 49  1  0
 32 50  1  0
 34 51  1  0
M  END
$$$$
