
     RDKit          3D

 37 39  0  0  0  0  0  0  0  0999 V2000
   -0.1985   -0.0566    4.8725 C   0  0  0  0  0  0  0  0  0  0  0  0
    1.3261   -0.4233    3.9632 S   0  0  0  0  0  0  0  0  0  0  0  0
    0.7332   -0.3225    2.2796 C   0  0  0  0  0  0  0  0  0  0  0  0
    1.5680   -0.7329    1.2617 C   0  0  0  0  0  0  0  0  0  0  0  0
    1.0982   -0.6284   -0.0323 C   0  0  0  0  0  0  0  0  0  0  0  0
    1.8714   -1.0324   -1.1137 N   0  0  0  0  0  0  0  0  0  0  0  0
    1.2192   -1.0183   -2.4340 C   0  0  0  0  0  0  0  0  0  0  0  0
    2.1853   -1.5870   -3.4847 C   0  0  0  0  0  0  0  0  0  0  0  0
    3.4099   -0.8462   -3.6122 O   0  0  0  0  0  0  0  0  0  0  0  0
    3.7385   -0.0852   -2.4424 C   0  0  0  0  0  0  0  0  0  0  0  0
    3.3196   -0.7598   -1.1244 C   0  0  0  0  0  0  0  0  0  0  0  0
   -0.1432   -0.1705   -0.2650 N   0  0  0  0  0  0  0  0  0  0  0  0
   -0.8987    0.1936    0.7881 C   0  0  0  0  0  0  0  0  0  0  0  0
   -2.2274    0.7433    0.4953 C   0  0  0  0  0  0  0  0  0  0  0  0
   -2.3590    1.7128   -0.5239 C   0  0  0  0  0  0  0  0  0  0  0  0
   -3.5937    2.2867   -0.8384 C   0  0  0  0  0  0  0  0  0  0  0  0
   -4.7331    1.9004   -0.1429 C   0  0  0  0  0  0  0  0  0  0  0  0
   -4.6364    0.9363    0.8586 C   0  0  0  0  0  0  0  0  0  0  0  0
   -3.3977    0.3584    1.1751 C   0  0  0  0  0  0  0  0  0  0  0  0
   -3.4133   -0.8759    2.3914 Cl  0  0  0  0  0  0  0  0  0  0  0  0
   -0.4955    0.1629    2.0635 N   0  0  0  0  0  0  0  0  0  0  0  0
    0.0097   -0.1031    5.9449 H   0  0  0  0  0  0  0  0  0  0  0  0
   -0.5609    0.9482    4.6384 H   0  0  0  0  0  0  0  0  0  0  0  0
   -0.9726   -0.7935    4.6422 H   0  0  0  0  0  0  0  0  0  0  0  0
    2.5450   -1.1428    1.4789 H   0  0  0  0  0  0  0  0  0  0  0  0
    0.3117   -1.6336   -2.4206 H   0  0  0  0  0  0  0  0  0  0  0  0
    0.9468    0.0089   -2.7080 H   0  0  0  0  0  0  0  0  0  0  0  0
    1.7073   -1.6025   -4.4692 H   0  0  0  0  0  0  0  0  0  0  0  0
    2.4534   -2.6200   -3.2337 H   0  0  0  0  0  0  0  0  0  0  0  0
    4.8209    0.0784   -2.4512 H   0  0  0  0  0  0  0  0  0  0  0  0
    3.2615    0.8977   -2.5367 H   0  0  0  0  0  0  0  0  0  0  0  0
    3.6311   -0.1108   -0.2983 H   0  0  0  0  0  0  0  0  0  0  0  0
    3.8425   -1.7175   -1.0219 H   0  0  0  0  0  0  0  0  0  0  0  0
   -1.4770    2.0305   -1.0799 H   0  0  0  0  0  0  0  0  0  0  0  0
   -3.6606    3.0338   -1.6256 H   0  0  0  0  0  0  0  0  0  0  0  0
   -5.6968    2.3423   -0.3833 H   0  0  0  0  0  0  0  0  0  0  0  0
   -5.5348    0.6287    1.3889 H   0  0  0  0  0  0  0  0  0  0  0  0
  1  2  1  0
  2  3  1  0
  3  4  2  0
  4  5  1  0
  5  6  1  0
  6  7  1  0
  7  8  1  0
  8  9  1  0
  9 10  1  0
 10 11  1  0
  5 12  2  0
 12 13  1  0
 13 14  1  0
 14 15  2  0
 15 16  1  0
 16 17  2  0
 17 18  1  0
 18 19  2  0
 19 20  1  0
 13 21  2  0
 21  3  1  0
 11  6  1  0
 19 14  1  0
  1 22  1  0
  1 23  1  0
  1 24  1  0
  4 25  1  0
  7 26  1  0
  7 27  1  0
  8 28  1  0
  8 29  1  0
 10 30  1  0
 10 31  1  0
 11 32  1  0
 11 33  1  0
 15 34  1  0
 16 35  1  0
 17 36  1  0
 18 37  1  0
M  END
$$$$
