
     RDKit          3D

 48 50  0  0  0  0  0  0  0  0999 V2000
    4.5474   -4.4032    0.3001 C   0  0  0  0  0  0  0  0  0  0  0  0
    4.1545   -3.2134    0.9771 O   0  0  0  0  0  0  0  0  0  0  0  0
    2.8688   -2.7780    0.7864 C   0  0  0  0  0  0  0  0  0  0  0  0
    1.8809   -3.4954    0.0990 C   0  0  0  0  0  0  0  0  0  0  0  0
    0.5913   -2.9738   -0.0353 C   0  0  0  0  0  0  0  0  0  0  0  0
    0.2821   -1.7326    0.5210 C   0  0  0  0  0  0  0  0  0  0  0  0
   -1.0643   -1.1435    0.3751 C   0  0  0  0  0  0  0  0  0  0  0  0
   -2.0383   -1.7902   -0.1838 N   0  0  0  0  0  0  0  0  0  0  0  0
   -3.2253   -1.1198   -0.3347 N   0  0  0  0  0  0  0  0  0  0  0  0
   -3.3396    0.2015   -0.7738 C   0  0  0  0  0  0  0  0  0  0  0  0
   -2.4043    0.9829   -0.8908 O   0  0  0  0  0  0  0  0  0  0  0  0
   -4.7613    0.5837   -1.1086 C   0  0  0  0  0  0  0  0  0  0  0  0
   -5.6550   -0.4291   -0.8897 N   0  0  0  0  0  0  0  0  0  0  0  0
   -6.9555   -0.1701   -1.1471 C   0  0  0  0  0  0  0  0  0  0  0  0
   -7.9685   -1.5202   -0.8041 Cl  0  0  0  0  0  0  0  0  0  0  0  0
   -7.4342    1.0468   -1.6162 C   0  0  0  0  0  0  0  0  0  0  0  0
   -9.1176    1.3101   -1.9293 Cl  0  0  0  0  0  0  0  0  0  0  0  0
   -6.5136    2.0927   -1.8133 C   0  0  0  0  0  0  0  0  0  0  0  0
   -6.9298    3.3008   -2.4291 N   0  0  0  0  0  0  0  0  0  0  0  0
   -5.1388    1.8414   -1.5878 C   0  0  0  0  0  0  0  0  0  0  0  0
   -4.0190    3.1242   -1.9181 Cl  0  0  0  0  0  0  0  0  0  0  0  0
    1.2567   -1.0138    1.2166 C   0  0  0  0  0  0  0  0  0  0  0  0
    2.5619   -1.5217    1.3486 C   0  0  0  0  0  0  0  0  0  0  0  0
    3.6250   -0.7606    2.1180 C   0  0  0  0  0  0  0  0  0  0  0  0
    3.2638    0.5958    2.4101 O   0  0  0  0  0  0  0  0  0  0  0  0
    3.6869    1.5712    1.5464 C   0  0  0  0  0  0  0  0  0  0  0  0
    4.0265    1.3703    0.2047 C   0  0  0  0  0  0  0  0  0  0  0  0
    4.4365    2.4548   -0.5805 C   0  0  0  0  0  0  0  0  0  0  0  0
    4.4914    3.7317   -0.0280 C   0  0  0  0  0  0  0  0  0  0  0  0
    4.8993    4.7625   -0.7849 F   0  0  0  0  0  0  0  0  0  0  0  0
    4.1362    3.9539    1.2937 C   0  0  0  0  0  0  0  0  0  0  0  0
    3.7327    2.8719    2.0691 C   0  0  0  0  0  0  0  0  0  0  0  0
    3.4013    3.0927    3.3501 F   0  0  0  0  0  0  0  0  0  0  0  0
    5.6055   -4.5747    0.5170 H   0  0  0  0  0  0  0  0  0  0  0  0
    4.4433   -4.2917   -0.7846 H   0  0  0  0  0  0  0  0  0  0  0  0
    3.9888   -5.2708    0.6674 H   0  0  0  0  0  0  0  0  0  0  0  0
    2.0776   -4.4671   -0.3436 H   0  0  0  0  0  0  0  0  0  0  0  0
   -0.1631   -3.5357   -0.5790 H   0  0  0  0  0  0  0  0  0  0  0  0
   -1.1924   -0.1277    0.7918 H   0  0  0  0  0  0  0  0  0  0  0  0
   -4.0354   -1.7164   -0.5100 H   0  0  0  0  0  0  0  0  0  0  0  0
   -7.9127    3.5317   -2.2899 H   0  0  0  0  0  0  0  0  0  0  0  0
   -6.3013    4.0873   -2.2695 H   0  0  0  0  0  0  0  0  0  0  0  0
    1.0029   -0.0502    1.6559 H   0  0  0  0  0  0  0  0  0  0  0  0
    3.7469   -1.2563    3.0895 H   0  0  0  0  0  0  0  0  0  0  0  0
    4.6015   -0.8061    1.6193 H   0  0  0  0  0  0  0  0  0  0  0  0
    3.9714    0.3913   -0.2604 H   0  0  0  0  0  0  0  0  0  0  0  0
    4.7109    2.3120   -1.6227 H   0  0  0  0  0  0  0  0  0  0  0  0
    4.1783    4.9510    1.7173 H   0  0  0  0  0  0  0  0  0  0  0  0
  1  2  1  0
  2  3  1  0
  3  4  2  0
  4  5  1  0
  5  6  2  0
  6  7  1  0
  7  8  2  3
  8  9  1  0
  9 10  1  0
 10 11  2  0
 10 12  1  0
 12 13  2  0
 13 14  1  0
 14 15  1  0
 14 16  2  0
 16 17  1  0
 16 18  1  0
 18 19  1  0
 18 20  2  0
 20 21  1  0
  6 22  1  0
 22 23  2  0
 23 24  1  0
 24 25  1  0
 25 26  1  0
 26 27  2  0
 27 28  1  0
 28 29  2  0
 29 30  1  0
 29 31  1  0
 31 32  2  0
 32 33  1  0
 23  3  1  0
 32 26  1  0
 20 12  1  0
  1 34  1  0
  1 35  1  0
  1 36  1  0
  4 37  1  0
  5 38  1  0
  7 39  1  0
  9 40  1  0
 19 41  1  0
 19 42  1  0
 22 43  1  0
 24 44  1  0
 24 45  1  0
 27 46  1  0
 28 47  1  0
 31 48  1  0
M  END
$$$$
