
     RDKit          3D

 41 43  0  0  0  0  0  0  0  0999 V2000
   -0.8719   -4.0830    2.2388 C   0  0  0  0  0  0  0  0  0  0  0  0
   -1.4546   -2.7425    1.9032 C   0  0  0  0  0  0  0  0  0  0  0  0
   -2.5303   -2.6369    1.0214 C   0  0  0  0  0  0  0  0  0  0  0  0
   -3.1003   -1.3917    0.7432 C   0  0  0  0  0  0  0  0  0  0  0  0
   -2.6139   -0.2127    1.3356 C   0  0  0  0  0  0  0  0  0  0  0  0
   -3.3014    1.0781    0.9949 C   0  0  0  0  0  0  0  0  0  0  0  0
   -1.5269   -0.3213    2.2212 C   0  0  0  0  0  0  0  0  0  0  0  0
   -0.7733    1.0762    3.0517 S   0  0  0  0  0  6  0  0  0  0  0  0
   -1.5873    2.2596    2.8852 O   0  0  0  0  0  0  0  0  0  0  0  0
   -0.3896    0.6270    4.3752 O   0  0  0  0  0  0  0  0  0  0  0  0
    0.6760    1.2804    2.1972 N   0  0  0  0  0  0  0  0  0  0  0  0
    0.6156    1.5078    0.7945 C   0  0  0  0  0  0  0  0  0  0  0  0
    0.1739    2.7354    0.3045 C   0  0  0  0  0  0  0  0  0  0  0  0
    0.0771    2.9441   -1.0716 C   0  0  0  0  0  0  0  0  0  0  0  0
    0.4188    1.9163   -1.9517 C   0  0  0  0  0  0  0  0  0  0  0  0
    0.3117    2.1224   -3.3003 O   0  0  0  0  0  0  0  0  0  0  0  0
    0.8630    0.6768   -1.4684 C   0  0  0  0  0  0  0  0  0  0  0  0
    1.2847   -0.6743   -2.5580 S   0  0  0  0  0  0  0  0  0  0  0  0
    2.9369   -0.2990   -2.9809 C   0  0  0  0  0  0  0  0  0  0  0  0
    3.5028   -0.7270   -4.1553 N   0  0  0  0  0  0  0  0  0  0  0  0
    4.7307   -0.2735   -4.0796 C   0  0  0  0  0  0  0  0  0  0  0  0
    4.8983    0.3806   -2.9024 N   0  0  0  0  0  0  0  0  0  0  0  0
    3.7754    0.3604   -2.1695 N   0  0  0  0  0  0  0  0  0  0  0  0
    0.9543    0.4789   -0.0845 C   0  0  0  0  0  0  0  0  0  0  0  0
   -0.9696   -1.5822    2.5143 C   0  0  0  0  0  0  0  0  0  0  0  0
    0.1957   -3.9977    2.4670 H   0  0  0  0  0  0  0  0  0  0  0  0
   -1.3868   -4.5091    3.1052 H   0  0  0  0  0  0  0  0  0  0  0  0
   -0.9686   -4.7738    1.3946 H   0  0  0  0  0  0  0  0  0  0  0  0
   -2.9407   -3.5252    0.5452 H   0  0  0  0  0  0  0  0  0  0  0  0
   -3.9418   -1.3516    0.0527 H   0  0  0  0  0  0  0  0  0  0  0  0
   -2.5965    1.7986    0.5742 H   0  0  0  0  0  0  0  0  0  0  0  0
   -4.0801    0.9290    0.2384 H   0  0  0  0  0  0  0  0  0  0  0  0
   -3.7938    1.4940    1.8789 H   0  0  0  0  0  0  0  0  0  0  0  0
    1.4020    0.6523    2.5384 H   0  0  0  0  0  0  0  0  0  0  0  0
   -0.0975    3.5344    0.9910 H   0  0  0  0  0  0  0  0  0  0  0  0
   -0.2699    3.9066   -1.4346 H   0  0  0  0  0  0  0  0  0  0  0  0
    0.0052    3.0283   -3.4646 H   0  0  0  0  0  0  0  0  0  0  0  0
    5.5112   -0.3867   -4.8181 H   0  0  0  0  0  0  0  0  0  0  0  0
    5.7230    0.8438   -2.5380 H   0  0  0  0  0  0  0  0  0  0  0  0
    1.2883   -0.4812    0.2988 H   0  0  0  0  0  0  0  0  0  0  0  0
   -0.1497   -1.6616    3.2270 H   0  0  0  0  0  0  0  0  0  0  0  0
  1  2  1  0
  2  3  2  0
  3  4  1  0
  4  5  2  0
  5  6  1  0
  5  7  1  0
  7  8  1  0
  8  9  2  0
  8 10  2  0
  8 11  1  0
 11 12  1  0
 12 13  2  0
 13 14  1  0
 14 15  2  0
 15 16  1  0
 15 17  1  0
 17 18  1  0
 18 19  1  0
 19 20  1  0
 20 21  2  0
 21 22  1  0
 22 23  1  0
 17 24  2  0
  7 25  2  0
 25  2  1  0
 24 12  1  0
 23 19  2  0
  1 26  1  0
  1 27  1  0
  1 28  1  0
  3 29  1  0
  4 30  1  0
  6 31  1  0
  6 32  1  0
  6 33  1  0
 11 34  1  0
 13 35  1  0
 14 36  1  0
 16 37  1  0
 21 38  1  0
 22 39  1  0
 24 40  1  0
 25 41  1  0
M  END
$$$$
