
     RDKit          3D

114117  0  0  0  0  0  0  0  0999 V2000
   -0.3116   -4.3007   -4.6009 C   0  0  0  0  0  0  0  0  0  0  0  0
    0.5535   -3.1931   -3.9774 C   0  0  0  0  0  0  0  0  0  0  0  0
    2.0319   -3.5119   -4.2137 C   0  0  0  0  0  0  0  0  0  0  0  0
    0.2055   -3.0119   -2.4781 C   0  0  0  0  0  0  0  0  0  0  0  0
   -1.1906   -2.6560   -2.4075 O   0  0  0  0  0  0  0  0  0  0  0  0
   -1.6988   -2.6001   -1.1433 C   0  0  0  0  0  0  0  0  0  0  0  0
   -1.0769   -2.9331   -0.1396 O   0  0  0  0  0  0  0  0  0  0  0  0
   -3.1271   -2.0424   -1.1430 C   0  0  0  0  0  0  0  0  0  0  0  0
   -4.0795   -3.1486   -0.6348 C   0  0  0  0  0  0  0  0  0  0  0  0
   -5.5120   -2.7111   -0.4423 C   0  0  0  0  0  0  0  0  0  0  0  0
   -6.2744   -2.2575   -1.5260 C   0  0  0  0  0  0  0  0  0  0  0  0
   -7.5883   -1.8289   -1.3408 C   0  0  0  0  0  0  0  0  0  0  0  0
   -8.1616   -1.8599   -0.0703 C   0  0  0  0  0  0  0  0  0  0  0  0
   -7.4223   -2.3375    1.0115 C   0  0  0  0  0  0  0  0  0  0  0  0
   -6.1002   -2.7506    0.8311 C   0  0  0  0  0  0  0  0  0  0  0  0
   -3.2145   -0.7794   -0.3575 N   0  0  0  0  0  0  0  0  0  0  0  0
   -2.7452   -0.8172    1.0278 C   0  0  0  0  0  0  0  0  0  0  0  0
   -3.5652    0.3774   -1.0516 C   0  0  0  0  0  0  0  0  0  0  0  0
   -3.9248    0.3328   -2.2389 O   0  0  0  0  0  0  0  0  0  0  0  0
   -3.5900    1.7623   -0.3515 C   0  0  0  0  0  0  0  0  0  0  0  0
   -5.0309    2.1387    0.0794 C   0  0  0  0  0  0  0  0  0  0  0  0
   -5.1013    3.6421    0.3856 C   0  0  0  0  0  0  0  0  0  0  0  0
   -5.5383    1.3534    1.2899 C   0  0  0  0  0  0  0  0  0  0  0  0
   -2.6817    1.9590    0.7306 O   0  0  0  0  0  0  0  0  0  0  0  0
   -1.4330    2.4131    0.3950 C   0  0  0  0  0  0  0  0  0  0  0  0
   -1.1113    2.7798   -0.7201 O   0  0  0  0  0  0  0  0  0  0  0  0
   -0.5398    2.4339    1.6538 C   0  0  0  0  0  0  0  0  0  0  0  0
   -0.7971    3.7387    2.4504 C   0  0  0  0  0  0  0  0  0  0  0  0
   -0.0589    4.9721    1.9718 C   0  0  0  0  0  0  0  0  0  0  0  0
   -0.4844    5.6880    0.8440 C   0  0  0  0  0  0  0  0  0  0  0  0
    0.2340    6.7981    0.4007 C   0  0  0  0  0  0  0  0  0  0  0  0
    1.3786    7.2094    1.0770 C   0  0  0  0  0  0  0  0  0  0  0  0
    1.8038    6.5142    2.2068 C   0  0  0  0  0  0  0  0  0  0  0  0
    1.0901    5.4000    2.6499 C   0  0  0  0  0  0  0  0  0  0  0  0
    0.9016    2.0921    1.4810 N   0  0  0  0  0  0  0  0  0  0  0  0
    1.5230    2.4277    0.2055 C   0  0  0  0  0  0  0  0  0  0  0  0
    1.5594    1.5473    2.5771 C   0  0  0  0  0  0  0  0  0  0  0  0
    1.0100    1.5293    3.6874 O   0  0  0  0  0  0  0  0  0  0  0  0
    2.9961    0.9529    2.4628 C   0  0  0  0  0  0  0  0  0  0  0  0
    4.0586    1.9247    3.0358 C   0  0  0  0  0  0  0  0  0  0  0  0
    4.3557    3.1198    2.1376 C   0  0  0  0  0  0  0  0  0  0  0  0
    5.3801    1.1889    3.3082 C   0  0  0  0  0  0  0  0  0  0  0  0
    3.3868    0.4489    1.1830 O   0  0  0  0  0  0  0  0  0  0  0  0
    2.7623   -0.7100    0.8189 C   0  0  0  0  0  0  0  0  0  0  0  0
    2.0411   -1.3607    1.5638 O   0  0  0  0  0  0  0  0  0  0  0  0
    3.0318   -1.0319   -0.6564 C   0  0  0  0  0  0  0  0  0  0  0  0
    4.5237   -1.0750   -1.0418 C   0  0  0  0  0  0  0  0  0  0  0  0
    5.3484   -2.2450   -0.5630 C   0  0  0  0  0  0  0  0  0  0  0  0
    5.6803   -3.2787   -1.4506 C   0  0  0  0  0  0  0  0  0  0  0  0
    6.4689   -4.3427   -1.0275 C   0  0  0  0  0  0  0  0  0  0  0  0
    6.9337   -4.3921    0.2888 C   0  0  0  0  0  0  0  0  0  0  0  0
    6.6130   -3.3668    1.1744 C   0  0  0  0  0  0  0  0  0  0  0  0
    5.8217   -2.3012    0.7515 C   0  0  0  0  0  0  0  0  0  0  0  0
    2.2152   -2.1653   -1.1766 N   0  0  0  0  0  0  0  0  0  0  0  0
    2.3572   -3.4700   -0.5378 C   0  0  0  0  0  0  0  0  0  0  0  0
    1.0538   -1.8557   -1.8817 C   0  0  0  0  0  0  0  0  0  0  0  0
    0.7212   -0.6834   -2.0886 O   0  0  0  0  0  0  0  0  0  0  0  0
   -1.3801   -4.1029   -4.4643 H   0  0  0  0  0  0  0  0  0  0  0  0
   -0.1204   -4.3729   -5.6798 H   0  0  0  0  0  0  0  0  0  0  0  0
   -0.0863   -5.2825   -4.1582 H   0  0  0  0  0  0  0  0  0  0  0  0
    0.3213   -2.2586   -4.5062 H   0  0  0  0  0  0  0  0  0  0  0  0
    2.3255   -4.4258   -3.6874 H   0  0  0  0  0  0  0  0  0  0  0  0
    2.6744   -2.6922   -3.8775 H   0  0  0  0  0  0  0  0  0  0  0  0
    2.2390   -3.6532   -5.2816 H   0  0  0  0  0  0  0  0  0  0  0  0
    0.3497   -3.9724   -1.9643 H   0  0  0  0  0  0  0  0  0  0  0  0
   -3.3888   -1.8332   -2.1895 H   0  0  0  0  0  0  0  0  0  0  0  0
   -4.0846   -3.9778   -1.3568 H   0  0  0  0  0  0  0  0  0  0  0  0
   -3.7074   -3.5866    0.2997 H   0  0  0  0  0  0  0  0  0  0  0  0
   -5.8389   -2.2009   -2.5261 H   0  0  0  0  0  0  0  0  0  0  0  0
   -8.1569   -1.4664   -2.1918 H   0  0  0  0  0  0  0  0  0  0  0  0
   -9.1792   -1.5128    0.0766 H   0  0  0  0  0  0  0  0  0  0  0  0
   -7.8689   -2.3692    2.0001 H   0  0  0  0  0  0  0  0  0  0  0  0
   -5.5365   -3.0855    1.6950 H   0  0  0  0  0  0  0  0  0  0  0  0
   -3.2649   -0.0938    1.6526 H   0  0  0  0  0  0  0  0  0  0  0  0
   -1.6707   -0.5937    1.0368 H   0  0  0  0  0  0  0  0  0  0  0  0
   -2.9198   -1.7983    1.4716 H   0  0  0  0  0  0  0  0  0  0  0  0
   -3.3313    2.4637   -1.1545 H   0  0  0  0  0  0  0  0  0  0  0  0
   -5.7119    1.9308   -0.7553 H   0  0  0  0  0  0  0  0  0  0  0  0
   -6.1046    3.9261    0.7128 H   0  0  0  0  0  0  0  0  0  0  0  0
   -4.8630    4.2264   -0.5111 H   0  0  0  0  0  0  0  0  0  0  0  0
   -4.3992    3.9248    1.1836 H   0  0  0  0  0  0  0  0  0  0  0  0
   -6.5542    1.6688    1.5595 H   0  0  0  0  0  0  0  0  0  0  0  0
   -4.9093    1.5220    2.1683 H   0  0  0  0  0  0  0  0  0  0  0  0
   -5.5616    0.2809    1.0839 H   0  0  0  0  0  0  0  0  0  0  0  0
   -0.9406    1.6172    2.2711 H   0  0  0  0  0  0  0  0  0  0  0  0
   -1.8720    3.9649    2.4602 H   0  0  0  0  0  0  0  0  0  0  0  0
   -0.5294    3.5715    3.5000 H   0  0  0  0  0  0  0  0  0  0  0  0
   -1.3672    5.3778    0.2868 H   0  0  0  0  0  0  0  0  0  0  0  0
   -0.0933    7.3345   -0.4844 H   0  0  0  0  0  0  0  0  0  0  0  0
    1.9426    8.0637    0.7140 H   0  0  0  0  0  0  0  0  0  0  0  0
    2.6977    6.8306    2.7384 H   0  0  0  0  0  0  0  0  0  0  0  0
    1.4303    4.8511    3.5278 H   0  0  0  0  0  0  0  0  0  0  0  0
    2.6110    2.4126    0.2509 H   0  0  0  0  0  0  0  0  0  0  0  0
    1.2416    3.4418   -0.0822 H   0  0  0  0  0  0  0  0  0  0  0  0
    1.1959    1.7152   -0.5586 H   0  0  0  0  0  0  0  0  0  0  0  0
    2.9895    0.1002    3.1656 H   0  0  0  0  0  0  0  0  0  0  0  0
    3.6878    2.3155    3.9917 H   0  0  0  0  0  0  0  0  0  0  0  0
    3.4591    3.7092    1.9439 H   0  0  0  0  0  0  0  0  0  0  0  0
    5.0825    3.7917    2.6085 H   0  0  0  0  0  0  0  0  0  0  0  0
    4.7795    2.7947    1.1842 H   0  0  0  0  0  0  0  0  0  0  0  0
    6.0862    1.8351    3.8508 H   0  0  0  0  0  0  0  0  0  0  0  0
    5.8510    0.8750    2.3748 H   0  0  0  0  0  0  0  0  0  0  0  0
    5.2102    0.2979    3.9161 H   0  0  0  0  0  0  0  0  0  0  0  0
    2.6708   -0.1301   -1.1647 H   0  0  0  0  0  0  0  0  0  0  0  0
    4.5947   -1.0301   -2.1364 H   0  0  0  0  0  0  0  0  0  0  0  0
    5.0264   -0.1586   -0.7045 H   0  0  0  0  0  0  0  0  0  0  0  0
    5.3187   -3.2649   -2.4775 H   0  0  0  0  0  0  0  0  0  0  0  0
    6.7175   -5.1426   -1.7156 H   0  0  0  0  0  0  0  0  0  0  0  0
    7.5491   -5.2182    0.6242 H   0  0  0  0  0  0  0  0  0  0  0  0
    6.9755   -3.4079    2.2014 H   0  0  0  0  0  0  0  0  0  0  0  0
    5.5830   -1.5143    1.4623 H   0  0  0  0  0  0  0  0  0  0  0  0
    3.1334   -3.4664    0.2221 H   0  0  0  0  0  0  0  0  0  0  0  0
    2.5995   -4.2200   -1.2953 H   0  0  0  0  0  0  0  0  0  0  0  0
    1.4163   -3.7384   -0.0385 H   0  0  0  0  0  0  0  0  0  0  0  0
  1  2  1  0
  2  3  1  0
  2  4  1  0
  4  5  1  0
  5  6  1  0
  6  7  2  0
  6  8  1  0
  8  9  1  0
  9 10  1  0
 10 11  2  0
 11 12  1  0
 12 13  2  0
 13 14  1  0
 14 15  2  0
  8 16  1  0
 16 17  1  0
 16 18  1  0
 18 19  2  0
 18 20  1  0
 20 21  1  0
 21 22  1  0
 21 23  1  0
 20 24  1  0
 24 25  1  0
 25 26  2  0
 25 27  1  0
 27 28  1  0
 28 29  1  0
 29 30  2  0
 30 31  1  0
 31 32  2  0
 32 33  1  0
 33 34  2  0
 27 35  1  0
 35 36  1  0
 35 37  1  0
 37 38  2  0
 37 39  1  0
 39 40  1  0
 40 41  1  0
 40 42  1  0
 39 43  1  0
 43 44  1  0
 44 45  2  0
 44 46  1  0
 46 47  1  0
 47 48  1  0
 48 49  2  0
 49 50  1  0
 50 51  2  0
 51 52  1  0
 52 53  2  0
 46 54  1  0
 54 55  1  0
 54 56  1  0
 56 57  2  0
 56  4  1  0
 15 10  1  0
 34 29  1  0
 53 48  1  0
  1 58  1  0
  1 59  1  0
  1 60  1  0
  2 61  1  0
  3 62  1  0
  3 63  1  0
  3 64  1  0
  4 65  1  0
  8 66  1  0
  9 67  1  0
  9 68  1  0
 11 69  1  0
 12 70  1  0
 13 71  1  0
 14 72  1  0
 15 73  1  0
 17 74  1  0
 17 75  1  0
 17 76  1  0
 20 77  1  0
 21 78  1  0
 22 79  1  0
 22 80  1  0
 22 81  1  0
 23 82  1  0
 23 83  1  0
 23 84  1  0
 27 85  1  0
 28 86  1  0
 28 87  1  0
 30 88  1  0
 31 89  1  0
 32 90  1  0
 33 91  1  0
 34 92  1  0
 36 93  1  0
 36 94  1  0
 36 95  1  0
 39 96  1  0
 40 97  1  0
 41 98  1  0
 41 99  1  0
 41100  1  0
 42101  1  0
 42102  1  0
 42103  1  0
 46104  1  0
 47105  1  0
 47106  1  0
 49107  1  0
 50108  1  0
 51109  1  0
 52110  1  0
 53111  1  0
 55112  1  0
 55113  1  0
 55114  1  0
M  END
$$$$
