
     RDKit          3D

 56 60  0  0  0  0  0  0  0  0999 V2000
   -5.4833   -2.5417    0.9933 C   0  0  0  0  0  0  0  0  0  0  0  0
   -4.0263   -2.1713    0.9886 C   0  0  0  0  0  0  0  0  0  0  0  0
   -3.0751   -3.2029    0.9414 C   0  0  0  0  0  0  0  0  0  0  0  0
   -1.7054   -2.9230    0.9597 C   0  0  0  0  0  0  0  0  0  0  0  0
   -1.2405   -1.6027    1.0297 C   0  0  0  0  0  0  0  0  0  0  0  0
    0.1976   -1.3057    1.0541 C   0  0  0  0  0  0  0  0  0  0  0  0
    0.6529   -0.9184    2.2667 N   0  0  0  0  0  0  0  0  0  0  0  0
    1.9713   -0.6196    2.4390 N   0  0  0  0  0  0  0  0  0  0  0  0
    2.8341   -0.6868    1.4026 C   0  0  0  0  0  0  0  0  0  0  0  0
    4.1682   -0.3187    1.6958 N   0  0  0  0  0  0  0  0  0  0  0  0
    4.8798    0.7649    1.1114 C   0  0  0  0  0  0  0  0  0  0  0  0
    4.2372    1.8153    0.4179 C   0  0  0  0  0  0  0  0  0  0  0  0
    4.9661    2.8911   -0.1029 C   0  0  0  0  0  0  0  0  0  0  0  0
    6.3277    2.9005    0.0994 C   0  0  0  0  0  0  0  0  0  0  0  0
    6.9604    1.8971    0.7923 C   0  0  0  0  0  0  0  0  0  0  0  0
    6.2671    0.8259    1.3160 C   0  0  0  0  0  0  0  0  0  0  0  0
    8.3019    2.0996    0.8889 O   0  0  0  0  0  0  0  0  0  0  0  0
    8.4398    3.3471    0.1770 C   0  0  0  0  0  0  0  0  0  0  0  0
    7.1898    3.8602   -0.3288 O   0  0  0  0  0  0  0  0  0  0  0  0
    2.4170   -1.1133    0.1224 C   0  0  0  0  0  0  0  0  0  0  0  0
    3.2941   -1.2707   -0.9805 C   0  0  0  0  0  0  0  0  0  0  0  0
    2.8369   -1.6744   -2.2351 C   0  0  0  0  0  0  0  0  0  0  0  0
    1.4895   -1.9390   -2.4223 C   0  0  0  0  0  0  0  0  0  0  0  0
    0.6063   -1.8147   -1.3502 C   0  0  0  0  0  0  0  0  0  0  0  0
    1.0488   -1.4178   -0.0621 C   0  0  0  0  0  0  0  0  0  0  0  0
   -2.1851   -0.5684    1.0990 C   0  0  0  0  0  0  0  0  0  0  0  0
   -3.5628   -0.8448    1.0729 C   0  0  0  0  0  0  0  0  0  0  0  0
   -4.6828    0.5395    1.1720 S   0  0  0  0  0  6  0  0  0  0  0  0
   -3.9118    1.7574    1.2937 O   0  0  0  0  0  0  0  0  0  0  0  0
   -5.7386    0.2152    2.1042 O   0  0  0  0  0  0  0  0  0  0  0  0
   -5.3235    0.5656   -0.3967 N   0  0  0  0  0  0  0  0  0  0  0  0
   -6.6406    1.2558   -0.4942 C   0  0  0  0  0  0  0  0  0  0  0  0
   -6.9983    1.4029   -1.9732 C   0  0  0  0  0  0  0  0  0  0  0  0
   -5.9663    2.1377   -2.6352 O   0  0  0  0  0  0  0  0  0  0  0  0
   -6.0474   -1.9536    0.2652 H   0  0  0  0  0  0  0  0  0  0  0  0
   -5.6249   -3.5926    0.7168 H   0  0  0  0  0  0  0  0  0  0  0  0
   -5.9069   -2.4056    1.9927 H   0  0  0  0  0  0  0  0  0  0  0  0
   -3.3943   -4.2432    0.8984 H   0  0  0  0  0  0  0  0  0  0  0  0
   -0.9969   -3.7499    0.9325 H   0  0  0  0  0  0  0  0  0  0  0  0
    4.1579   -0.1561    2.7057 H   0  0  0  0  0  0  0  0  0  0  0  0
    3.1580    1.8114    0.2829 H   0  0  0  0  0  0  0  0  0  0  0  0
    4.4743    3.6945   -0.6396 H   0  0  0  0  0  0  0  0  0  0  0  0
    6.7900    0.0473    1.8605 H   0  0  0  0  0  0  0  0  0  0  0  0
    9.1235    3.1957   -0.6663 H   0  0  0  0  0  0  0  0  0  0  0  0
    8.8759    4.0907    0.8540 H   0  0  0  0  0  0  0  0  0  0  0  0
    4.3599   -1.0815   -0.8638 H   0  0  0  0  0  0  0  0  0  0  0  0
    3.5369   -1.7791   -3.0603 H   0  0  0  0  0  0  0  0  0  0  0  0
    1.1236   -2.2486   -3.3980 H   0  0  0  0  0  0  0  0  0  0  0  0
   -0.4445   -2.0343   -1.5321 H   0  0  0  0  0  0  0  0  0  0  0  0
   -1.8343    0.4604    1.1815 H   0  0  0  0  0  0  0  0  0  0  0  0
   -4.6688    1.0837   -0.9967 H   0  0  0  0  0  0  0  0  0  0  0  0
   -7.4104    0.6749    0.0217 H   0  0  0  0  0  0  0  0  0  0  0  0
   -6.5554    2.2512   -0.0443 H   0  0  0  0  0  0  0  0  0  0  0  0
   -7.9427    1.9436   -2.0865 H   0  0  0  0  0  0  0  0  0  0  0  0
   -7.0825    0.4229   -2.4540 H   0  0  0  0  0  0  0  0  0  0  0  0
   -6.2370    2.2261   -3.5661 H   0  0  0  0  0  0  0  0  0  0  0  0
  1  2  1  0
  2  3  2  0
  3  4  1  0
  4  5  2  0
  5  6  1  0
  6  7  2  0
  7  8  1  0
  8  9  2  0
  9 10  1  0
 10 11  1  0
 11 12  2  0
 12 13  1  0
 13 14  2  0
 14 15  1  0
 15 16  2  0
 15 17  1  0
 17 18  1  0
 18 19  1  0
  9 20  1  0
 20 21  2  0
 21 22  1  0
 22 23  2  0
 23 24  1  0
 24 25  2  0
  5 26  1  0
 26 27  2  0
 27 28  1  0
 28 29  2  0
 28 30  2  0
 28 31  1  0
 31 32  1  0
 32 33  1  0
 33 34  1  0
 27  2  1  0
 25  6  1  0
 16 11  1  0
 25 20  1  0
 19 14  1  0
  1 35  1  0
  1 36  1  0
  1 37  1  0
  3 38  1  0
  4 39  1  0
 10 40  1  0
 12 41  1  0
 13 42  1  0
 16 43  1  0
 18 44  1  0
 18 45  1  0
 21 46  1  0
 22 47  1  0
 23 48  1  0
 24 49  1  0
 26 50  1  0
 31 51  1  0
 32 52  1  0
 32 53  1  0
 33 54  1  0
 33 55  1  0
 34 56  1  0
M  END
$$$$
