
     RDKit          3D

 52 55  0  0  0  0  0  0  0  0999 V2000
    4.8421   -1.6956    0.4037 C   0  0  0  0  0  0  0  0  0  0  0  0
    4.1814   -0.4774    0.8627 N   0  0  0  0  0  0  0  0  0  0  0  0
    4.0070    0.4799   -0.2425 C   0  0  0  0  0  0  0  0  0  0  0  0
    3.2443    1.7586    0.1834 C   0  0  0  0  0  0  0  0  0  0  0  0
    1.9843    1.5458    0.9052 N   0  0  0  0  0  0  0  0  0  0  0  0
    0.7705    1.4653    0.0898 C   0  0  0  0  0  0  0  0  0  0  0  0
    0.7632    0.5003   -1.0994 C   0  0  0  0  0  0  0  0  0  0  0  0
   -0.6067    0.4267   -1.7980 C   0  0  0  0  0  0  0  0  0  0  0  0
   -1.6315   -0.3038   -1.0081 N   0  0  0  0  0  0  0  0  0  0  0  0
   -1.3223   -1.6541   -0.6878 C   0  0  0  0  0  0  0  0  0  0  0  0
   -0.7765   -2.5206   -1.6569 C   0  0  0  0  0  0  0  0  0  0  0  0
   -0.4671   -3.8520   -1.3633 C   0  0  0  0  0  0  0  0  0  0  0  0
   -0.7057   -4.3548   -0.0918 C   0  0  0  0  0  0  0  0  0  0  0  0
   -1.2630   -3.5274    0.8796 C   0  0  0  0  0  0  0  0  0  0  0  0
   -1.5814   -2.1901    0.5890 C   0  0  0  0  0  0  0  0  0  0  0  0
   -2.2578   -1.2165    1.9191 S   0  0  0  0  0  0  0  0  0  0  0  0
   -2.9394    0.1703    1.0325 C   0  0  0  0  0  0  0  0  0  0  0  0
   -3.8607    0.9737    1.7233 C   0  0  0  0  0  0  0  0  0  0  0  0
   -4.4389    2.0848    1.1122 C   0  0  0  0  0  0  0  0  0  0  0  0
   -4.1174    2.4013   -0.2092 C   0  0  0  0  0  0  0  0  0  0  0  0
   -4.7371    3.5948   -0.8925 C   0  0  0  0  0  0  0  0  0  0  0  0
   -3.9519    4.7035   -0.8053 F   0  0  0  0  0  0  0  0  0  0  0  0
   -4.9514    3.3937   -2.2230 F   0  0  0  0  0  0  0  0  0  0  0  0
   -5.9447    3.9480   -0.3712 F   0  0  0  0  0  0  0  0  0  0  0  0
   -3.1809    1.6013   -0.8894 C   0  0  0  0  0  0  0  0  0  0  0  0
   -2.5569    0.4912   -0.2841 C   0  0  0  0  0  0  0  0  0  0  0  0
    2.1185    0.4859    1.9168 C   0  0  0  0  0  0  0  0  0  0  0  0
    2.8769   -0.7852    1.4753 C   0  0  0  0  0  0  0  0  0  0  0  0
    4.2602   -2.2208   -0.3624 H   0  0  0  0  0  0  0  0  0  0  0  0
    5.0069   -2.3821    1.2414 H   0  0  0  0  0  0  0  0  0  0  0  0
    5.8288   -1.4638   -0.0123 H   0  0  0  0  0  0  0  0  0  0  0  0
    3.4887    0.0016   -1.0813 H   0  0  0  0  0  0  0  0  0  0  0  0
    4.9936    0.7850   -0.6129 H   0  0  0  0  0  0  0  0  0  0  0  0
    3.0879    2.4054   -0.6887 H   0  0  0  0  0  0  0  0  0  0  0  0
    3.9037    2.3299    0.8508 H   0  0  0  0  0  0  0  0  0  0  0  0
   -0.0747    1.2587    0.7537 H   0  0  0  0  0  0  0  0  0  0  0  0
    0.5750    2.4738   -0.2987 H   0  0  0  0  0  0  0  0  0  0  0  0
    1.4862    0.8526   -1.8448 H   0  0  0  0  0  0  0  0  0  0  0  0
    1.0861   -0.4959   -0.7937 H   0  0  0  0  0  0  0  0  0  0  0  0
   -0.9109    1.4493   -2.0462 H   0  0  0  0  0  0  0  0  0  0  0  0
   -0.4848   -0.0569   -2.7744 H   0  0  0  0  0  0  0  0  0  0  0  0
   -0.6080   -2.1796   -2.6740 H   0  0  0  0  0  0  0  0  0  0  0  0
   -0.0499   -4.4949   -2.1342 H   0  0  0  0  0  0  0  0  0  0  0  0
   -0.4692   -5.3892    0.1428 H   0  0  0  0  0  0  0  0  0  0  0  0
   -1.4516   -3.9333    1.8714 H   0  0  0  0  0  0  0  0  0  0  0  0
   -4.1353    0.7345    2.7492 H   0  0  0  0  0  0  0  0  0  0  0  0
   -5.1509    2.6915    1.6697 H   0  0  0  0  0  0  0  0  0  0  0  0
   -2.9738    1.8372   -1.9320 H   0  0  0  0  0  0  0  0  0  0  0  0
    1.1399    0.2047    2.3247 H   0  0  0  0  0  0  0  0  0  0  0  0
    2.6659    0.9216    2.7638 H   0  0  0  0  0  0  0  0  0  0  0  0
    3.0364   -1.4078    2.3644 H   0  0  0  0  0  0  0  0  0  0  0  0
    2.2529   -1.3692    0.7896 H   0  0  0  0  0  0  0  0  0  0  0  0
  1  2  1  0
  2  3  1  0
  3  4  1  0
  4  5  1  0
  5  6  1  0
  6  7  1  0
  7  8  1  0
  8  9  1  0
  9 10  1  0
 10 11  2  0
 11 12  1  0
 12 13  2  0
 13 14  1  0
 14 15  2  0
 15 16  1  0
 16 17  1  0
 17 18  2  0
 18 19  1  0
 19 20  2  0
 20 21  1  0
 21 22  1  0
 21 23  1  0
 21 24  1  0
 20 25  1  0
 25 26  2  0
  5 27  1  0
 27 28  1  0
 28  2  1  0
 26  9  1  0
 15 10  1  0
 26 17  1  0
  1 29  1  0
  1 30  1  0
  1 31  1  0
  3 32  1  0
  3 33  1  0
  4 34  1  0
  4 35  1  0
  6 36  1  0
  6 37  1  0
  7 38  1  0
  7 39  1  0
  8 40  1  0
  8 41  1  0
 11 42  1  0
 12 43  1  0
 13 44  1  0
 14 45  1  0
 18 46  1  0
 19 47  1  0
 25 48  1  0
 27 49  1  0
 27 50  1  0
 28 51  1  0
 28 52  1  0
M  END
$$$$
