
     RDKit          3D

 30 31  0  0  0  0  0  0  0  0999 V2000
   -4.7943   -0.6354    0.3725 C   0  0  0  0  0  0  0  0  0  0  0  0
   -3.2908   -0.3573    0.4186 C   0  0  0  0  0  0  0  0  0  0  0  0
   -3.0432    1.1218    0.1067 C   0  0  0  0  0  0  0  0  0  0  0  0
   -2.7015   -1.1950   -0.5868 O   0  0  0  0  0  0  0  0  0  0  0  0
   -1.3933   -1.4744   -0.5072 C   0  0  0  0  0  0  0  0  0  0  0  0
   -0.7675   -2.1142   -1.3363 O   0  0  0  0  0  0  0  0  0  0  0  0
   -0.7406   -0.9290    0.7325 C   0  0  0  0  0  0  0  0  0  0  0  0
    0.4489   -0.3979    0.7684 N   0  0  0  0  0  0  0  0  0  0  0  0
    1.1564   -0.3758   -0.3982 N   0  0  0  0  0  0  0  0  0  0  0  0
    2.4877    0.0982   -0.3583 C   0  0  0  0  0  0  0  0  0  0  0  0
    2.9949    0.8250    0.7265 C   0  0  0  0  0  0  0  0  0  0  0  0
    4.2956    1.3367    0.7045 C   0  0  0  0  0  0  0  0  0  0  0  0
    5.1006    1.1475   -0.4160 C   0  0  0  0  0  0  0  0  0  0  0  0
    4.6022    0.4549   -1.5164 C   0  0  0  0  0  0  0  0  0  0  0  0
    3.3013   -0.0561   -1.4904 C   0  0  0  0  0  0  0  0  0  0  0  0
   -1.5743   -0.9390    1.9841 C   0  0  0  0  0  0  0  0  0  0  0  0
   -1.1113   -1.1982    3.0794 O   0  0  0  0  0  0  0  0  0  0  0  0
   -2.8697   -0.6729    1.7533 O   0  0  0  0  0  0  0  0  0  0  0  0
   -5.2097   -0.4301   -0.6200 H   0  0  0  0  0  0  0  0  0  0  0  0
   -4.9933   -1.6909    0.5935 H   0  0  0  0  0  0  0  0  0  0  0  0
   -5.3347   -0.0426    1.1184 H   0  0  0  0  0  0  0  0  0  0  0  0
   -3.4061    1.3793   -0.8941 H   0  0  0  0  0  0  0  0  0  0  0  0
   -3.5320    1.7670    0.8445 H   0  0  0  0  0  0  0  0  0  0  0  0
   -1.9771    1.3688    0.1289 H   0  0  0  0  0  0  0  0  0  0  0  0
    1.0399   -1.1516   -1.0629 H   0  0  0  0  0  0  0  0  0  0  0  0
    2.3778    0.9924    1.6055 H   0  0  0  0  0  0  0  0  0  0  0  0
    4.6739    1.8856    1.5626 H   0  0  0  0  0  0  0  0  0  0  0  0
    6.1113    1.5463   -0.4338 H   0  0  0  0  0  0  0  0  0  0  0  0
    5.2221    0.3161   -2.3981 H   0  0  0  0  0  0  0  0  0  0  0  0
    2.9264   -0.5791   -2.3664 H   0  0  0  0  0  0  0  0  0  0  0  0
  1  2  1  0
  2  3  1  0
  2  4  1  0
  4  5  1  0
  5  6  2  0
  5  7  1  0
  7  8  2  3
  8  9  1  0
  9 10  1  0
 10 11  2  0
 11 12  1  0
 12 13  2  0
 13 14  1  0
 14 15  2  0
  7 16  1  0
 16 17  2  0
 16 18  1  0
 18  2  1  0
 15 10  1  0
  1 19  1  0
  1 20  1  0
  1 21  1  0
  3 22  1  0
  3 23  1  0
  3 24  1  0
  9 25  1  0
 11 26  1  0
 12 27  1  0
 13 28  1  0
 14 29  1  0
 15 30  1  0
M  END
$$$$
