
     RDKit          3D

 19 19  0  0  0  0  0  0  0  0999 V2000
   -3.3841   -0.4068   -1.8658 C   0  0  0  0  0  0  0  0  0  0  0  0
   -2.7373   -0.5760   -0.4986 C   0  0  0  0  0  0  0  0  0  0  0  0
   -1.2509   -0.2305   -0.5473 C   0  0  0  0  0  0  0  0  0  0  0  0
   -0.5118   -0.4437    1.1006 S   0  0  0  0  0  0  0  0  0  0  0  0
    1.1488   -0.0048    0.7694 C   0  0  0  0  0  0  0  0  0  0  0  0
    1.5631    0.3927   -0.4132 N   0  0  0  0  0  0  0  0  0  0  0  0
    2.9152    0.6780   -0.4164 N   0  0  0  0  0  0  0  0  0  0  0  0
    3.4700    0.4879    0.7596 C   0  0  0  0  0  0  0  0  0  0  0  0
    4.7721    0.6996    1.0330 N   0  0  0  0  0  0  0  0  0  0  0  0
    2.3724   -0.0485    1.9673 S   0  0  0  0  0  0  0  0  0  0  0  0
   -3.2950    0.6264   -2.2167 H   0  0  0  0  0  0  0  0  0  0  0  0
   -2.9150   -1.0632   -2.6056 H   0  0  0  0  0  0  0  0  0  0  0  0
   -4.4482   -0.6577   -1.8151 H   0  0  0  0  0  0  0  0  0  0  0  0
   -2.8782   -1.6127   -0.1692 H   0  0  0  0  0  0  0  0  0  0  0  0
   -3.2569    0.0711    0.2185 H   0  0  0  0  0  0  0  0  0  0  0  0
   -0.7381   -0.8847   -1.2608 H   0  0  0  0  0  0  0  0  0  0  0  0
   -1.1188    0.8075   -0.8711 H   0  0  0  0  0  0  0  0  0  0  0  0
    5.0238    0.8898    1.9957 H   0  0  0  0  0  0  0  0  0  0  0  0
    5.2687    1.2756    0.3609 H   0  0  0  0  0  0  0  0  0  0  0  0
  1  2  1  0
  2  3  1  0
  3  4  1  0
  4  5  1  0
  5  6  2  0
  6  7  1  0
  7  8  2  0
  8  9  1  0
  8 10  1  0
 10  5  1  0
  1 11  1  0
  1 12  1  0
  1 13  1  0
  2 14  1  0
  2 15  1  0
  3 16  1  0
  3 17  1  0
  9 18  1  0
  9 19  1  0
M  END
$$$$
