
     RDKit          3D

 53 55  0  0  0  0  0  0  0  0999 V2000
    7.8324   -1.0838    4.7703 C   0  0  0  0  0  0  0  0  0  0  0  0
    7.2509    0.0694    4.1763 O   0  0  0  0  0  0  0  0  0  0  0  0
    6.6734   -0.0926    2.9473 C   0  0  0  0  0  0  0  0  0  0  0  0
    6.1001    1.0638    2.4145 C   0  0  0  0  0  0  0  0  0  0  0  0
    5.4755    1.0401    1.1653 C   0  0  0  0  0  0  0  0  0  0  0  0
    5.4219   -0.1458    0.4228 C   0  0  0  0  0  0  0  0  0  0  0  0
    4.7278   -0.1771   -0.9133 C   0  0  0  0  0  0  0  0  0  0  0  0
    3.3179   -0.4174   -0.7541 N   0  0  0  0  0  0  0  0  0  0  0  0
    2.3945    0.5998   -0.7313 C   0  0  0  0  0  0  0  0  0  0  0  0
    2.6079    1.7821   -0.9612 O   0  0  0  0  0  0  0  0  0  0  0  0
    0.9669    0.1262   -0.3733 C   0  0  0  0  0  0  0  0  0  0  0  0
    0.7367   -1.0612   -0.1936 O   0  0  0  0  0  0  0  0  0  0  0  0
    0.0448    1.1448   -0.3154 N   0  0  0  0  0  0  0  0  0  0  0  0
   -1.3807    0.8790   -0.2048 C   0  0  0  0  0  0  0  0  0  0  0  0
   -1.9882    0.2563   -1.4906 C   0  0  0  0  0  0  0  0  0  0  0  0
   -1.6169    1.0751   -2.6245 O   0  0  0  0  0  0  0  0  0  0  0  0
   -2.6713    2.0260   -2.7831 C   0  0  0  0  0  0  0  0  0  0  0  0
   -3.9280    1.2573   -2.4431 C   0  0  0  0  0  0  0  0  0  0  0  0
   -3.4630    0.1921   -1.5418 N   0  0  0  0  0  0  0  0  0  0  0  0
   -4.3023   -0.0963   -0.1227 S   0  0  0  0  0  6  0  0  0  0  0  0
   -3.7251   -1.2560    0.5183 O   0  0  0  0  0  0  0  0  0  0  0  0
   -4.4112    1.1706    0.5702 O   0  0  0  0  0  0  0  0  0  0  0  0
   -5.9097   -0.5569   -0.7155 C   0  0  0  0  0  0  0  0  0  0  0  0
   -6.0518   -1.7564   -1.4203 C   0  0  0  0  0  0  0  0  0  0  0  0
   -7.3092   -2.1265   -1.8955 C   0  0  0  0  0  0  0  0  0  0  0  0
   -8.4134   -1.3040   -1.6623 C   0  0  0  0  0  0  0  0  0  0  0  0
   -8.2667   -0.1124   -0.9488 C   0  0  0  0  0  0  0  0  0  0  0  0
   -7.0126    0.2649   -0.4689 C   0  0  0  0  0  0  0  0  0  0  0  0
    5.9891   -1.3069    0.9647 C   0  0  0  0  0  0  0  0  0  0  0  0
    6.6144   -1.2797    2.2172 C   0  0  0  0  0  0  0  0  0  0  0  0
    7.0801   -1.8603    4.9457 H   0  0  0  0  0  0  0  0  0  0  0  0
    8.6609   -1.4646    4.1639 H   0  0  0  0  0  0  0  0  0  0  0  0
    8.2397   -0.7895    5.7425 H   0  0  0  0  0  0  0  0  0  0  0  0
    6.1356    1.9922    2.9797 H   0  0  0  0  0  0  0  0  0  0  0  0
    5.0260    1.9526    0.7767 H   0  0  0  0  0  0  0  0  0  0  0  0
    5.1316   -0.9844   -1.5343 H   0  0  0  0  0  0  0  0  0  0  0  0
    4.8975    0.7625   -1.4518 H   0  0  0  0  0  0  0  0  0  0  0  0
    2.9948   -1.3252   -0.4329 H   0  0  0  0  0  0  0  0  0  0  0  0
    0.3619    2.0444   -0.6675 H   0  0  0  0  0  0  0  0  0  0  0  0
   -1.5296    0.2159    0.6530 H   0  0  0  0  0  0  0  0  0  0  0  0
   -1.8447    1.8444    0.0206 H   0  0  0  0  0  0  0  0  0  0  0  0
   -1.5728   -0.7409   -1.6664 H   0  0  0  0  0  0  0  0  0  0  0  0
   -2.5068    2.8592   -2.0905 H   0  0  0  0  0  0  0  0  0  0  0  0
   -2.6770    2.4161   -3.8044 H   0  0  0  0  0  0  0  0  0  0  0  0
   -4.3461    0.7850   -3.3385 H   0  0  0  0  0  0  0  0  0  0  0  0
   -4.6879    1.9139   -2.0130 H   0  0  0  0  0  0  0  0  0  0  0  0
   -5.1920   -2.3991   -1.5973 H   0  0  0  0  0  0  0  0  0  0  0  0
   -7.4311   -3.0580   -2.4434 H   0  0  0  0  0  0  0  0  0  0  0  0
   -9.3937   -1.5970   -2.0309 H   0  0  0  0  0  0  0  0  0  0  0  0
   -9.1332    0.5180   -0.7622 H   0  0  0  0  0  0  0  0  0  0  0  0
   -6.9071    1.1895    0.0935 H   0  0  0  0  0  0  0  0  0  0  0  0
    5.9484   -2.2455    0.4159 H   0  0  0  0  0  0  0  0  0  0  0  0
    7.0416   -2.2033    2.5931 H   0  0  0  0  0  0  0  0  0  0  0  0
  1  2  1  0
  2  3  1  0
  3  4  2  0
  4  5  1  0
  5  6  2  0
  6  7  1  0
  7  8  1  0
  8  9  1  0
  9 10  2  0
  9 11  1  0
 11 12  2  0
 11 13  1  0
 13 14  1  0
 14 15  1  0
 15 16  1  0
 16 17  1  0
 17 18  1  0
 18 19  1  0
 19 20  1  0
 20 21  2  0
 20 22  2  0
 20 23  1  0
 23 24  2  0
 24 25  1  0
 25 26  2  0
 26 27  1  0
 27 28  2  0
  6 29  1  0
 29 30  2  0
 30  3  1  0
 19 15  1  0
 28 23  1  0
  1 31  1  0
  1 32  1  0
  1 33  1  0
  4 34  1  0
  5 35  1  0
  7 36  1  0
  7 37  1  0
  8 38  1  0
 13 39  1  0
 14 40  1  0
 14 41  1  0
 15 42  1  0
 17 43  1  0
 17 44  1  0
 18 45  1  0
 18 46  1  0
 24 47  1  0
 25 48  1  0
 26 49  1  0
 27 50  1  0
 28 51  1  0
 29 52  1  0
 30 53  1  0
M  END
$$$$
