
     RDKit          3D

 39 41  0  0  0  0  0  0  0  0999 V2000
   -4.9420   -2.2700    0.0307 C   0  0  0  0  0  0  0  0  0  0  0  0
   -4.4127   -1.4766   -1.1509 C   0  0  0  0  0  0  0  0  0  0  0  0
   -3.2237   -0.7109   -0.8115 N   0  0  0  0  0  0  0  0  0  0  0  0
   -1.9409   -1.1473   -1.0258 C   0  0  0  0  0  0  0  0  0  0  0  0
   -1.0776   -0.1702   -0.5813 C   0  0  0  0  0  0  0  0  0  0  0  0
    0.3418   -0.3183   -0.6439 C   0  0  0  0  0  0  0  0  0  0  0  0
    1.2109    0.1661    0.2590 C   0  0  0  0  0  0  0  0  0  0  0  0
    2.6652   -0.0070    0.1792 C   0  0  0  0  0  0  0  0  0  0  0  0
    3.4943    1.0485    0.5546 C   0  0  0  0  0  0  0  0  0  0  0  0
    4.8752    0.8923    0.5094 C   0  0  0  0  0  0  0  0  0  0  0  0
    5.4226   -0.2809    0.1215 N   0  0  0  0  0  4  0  0  0  0  0  0
    6.8879   -0.4202    0.0712 C   0  0  0  0  0  0  0  0  0  0  0  0
    4.6393   -1.3221   -0.2381 C   0  0  0  0  0  0  0  0  0  0  0  0
    3.2537   -1.2093   -0.2100 C   0  0  0  0  0  0  0  0  0  0  0  0
   -1.8682    0.9262   -0.1145 C   0  0  0  0  0  0  0  0  0  0  0  0
   -1.5845    2.2111    0.4021 C   0  0  0  0  0  0  0  0  0  0  0  0
   -2.6294    3.0617    0.7794 C   0  0  0  0  0  0  0  0  0  0  0  0
   -3.9517    2.6569    0.6445 C   0  0  0  0  0  0  0  0  0  0  0  0
   -4.2662    1.4005    0.1219 C   0  0  0  0  0  0  0  0  0  0  0  0
   -3.2113    0.5535   -0.2585 C   0  0  0  0  0  0  0  0  0  0  0  0
   -4.1888   -2.9727    0.4028 H   0  0  0  0  0  0  0  0  0  0  0  0
   -5.2211   -1.6110    0.8595 H   0  0  0  0  0  0  0  0  0  0  0  0
   -5.8276   -2.8421   -0.2625 H   0  0  0  0  0  0  0  0  0  0  0  0
   -5.1693   -0.7808   -1.5281 H   0  0  0  0  0  0  0  0  0  0  0  0
   -4.1507   -2.1505   -1.9745 H   0  0  0  0  0  0  0  0  0  0  0  0
   -1.7545   -2.1213   -1.4595 H   0  0  0  0  0  0  0  0  0  0  0  0
    0.7114   -0.8935   -1.4901 H   0  0  0  0  0  0  0  0  0  0  0  0
    0.8447    0.7250    1.1179 H   0  0  0  0  0  0  0  0  0  0  0  0
    3.0726    2.0005    0.8730 H   0  0  0  0  0  0  0  0  0  0  0  0
    5.5491    1.6998    0.7816 H   0  0  0  0  0  0  0  0  0  0  0  0
    7.3357    0.2222    0.8339 H   0  0  0  0  0  0  0  0  0  0  0  0
    7.2106   -0.1208   -0.9289 H   0  0  0  0  0  0  0  0  0  0  0  0
    7.1562   -1.4605    0.2725 H   0  0  0  0  0  0  0  0  0  0  0  0
    5.1297   -2.2422   -0.5434 H   0  0  0  0  0  0  0  0  0  0  0  0
    2.6436   -2.0681   -0.4834 H   0  0  0  0  0  0  0  0  0  0  0  0
   -0.5607    2.5548    0.5003 H   0  0  0  0  0  0  0  0  0  0  0  0
   -2.4058    4.0486    1.1768 H   0  0  0  0  0  0  0  0  0  0  0  0
   -4.7543    3.3285    0.9416 H   0  0  0  0  0  0  0  0  0  0  0  0
   -5.3038    1.1001    0.0136 H   0  0  0  0  0  0  0  0  0  0  0  0
  1  2  1  0
  2  3  1  0
  3  4  1  0
  4  5  2  0
  5  6  1  0
  6  7  2  3
  7  8  1  0
  8  9  2  0
  9 10  1  0
 10 11  2  0
 11 12  1  0
 11 13  1  0
 13 14  2  0
  5 15  1  0
 15 16  2  0
 16 17  1  0
 17 18  2  0
 18 19  1  0
 19 20  2  0
 20  3  1  0
 14  8  1  0
 20 15  1  0
  1 21  1  0
  1 22  1  0
  1 23  1  0
  2 24  1  0
  2 25  1  0
  4 26  1  0
  6 27  1  0
  7 28  1  0
  9 29  1  0
 10 30  1  0
 12 31  1  0
 12 32  1  0
 12 33  1  0
 13 34  1  0
 14 35  1  0
 16 36  1  0
 17 37  1  0
 18 38  1  0
 19 39  1  0
M  CHG  1  11   1
M  END
$$$$
