
     RDKit          3D

 57 60  0  0  0  0  0  0  0  0999 V2000
   -0.3097   -0.3504    5.1675 C   0  0  0  0  0  0  0  0  0  0  0  0
   -0.8437   -0.2086    3.8571 O   0  0  0  0  0  0  0  0  0  0  0  0
   -0.0259    0.2955    2.8866 C   0  0  0  0  0  0  0  0  0  0  0  0
    1.1905    0.9359    3.1469 C   0  0  0  0  0  0  0  0  0  0  0  0
    1.9673    1.4462    2.0998 C   0  0  0  0  0  0  0  0  0  0  0  0
    1.5451    1.3211    0.7724 C   0  0  0  0  0  0  0  0  0  0  0  0
    2.4093    1.8833   -0.3027 C   0  0  0  0  0  0  0  0  0  0  0  0
    3.1845    2.7968   -0.0439 O   0  0  0  0  0  0  0  0  0  0  0  0
    2.2979    1.3022   -1.5466 N   0  0  0  0  0  0  0  0  0  0  0  0
    3.1821    1.6675   -2.6307 C   0  0  0  0  0  0  0  0  0  0  0  0
    4.3131    0.6777   -2.7507 C   0  0  0  0  0  0  0  0  0  0  0  0
    5.4529    0.8034   -1.9221 C   0  0  0  0  0  0  0  0  0  0  0  0
    6.5025   -0.1174   -1.9942 C   0  0  0  0  0  0  0  0  0  0  0  0
    6.3837   -1.1528   -2.8942 C   0  0  0  0  0  0  0  0  0  0  0  0
    5.2772   -1.2889   -3.6987 C   0  0  0  0  0  0  0  0  0  0  0  0
    4.2266   -0.3966   -3.6510 C   0  0  0  0  0  0  0  0  0  0  0  0
    5.3553   -2.3783   -4.5092 O   0  0  0  0  0  0  0  0  0  0  0  0
    6.6379   -2.9127   -4.1206 C   0  0  0  0  0  0  0  0  0  0  0  0
    7.2979   -2.1384   -3.0983 O   0  0  0  0  0  0  0  0  0  0  0  0
    0.3232    0.7037    0.4995 C   0  0  0  0  0  0  0  0  0  0  0  0
   -0.4534    0.1954    1.5548 C   0  0  0  0  0  0  0  0  0  0  0  0
   -1.9921   -0.6078    1.1531 S   0  0  0  0  0  6  0  0  0  0  0  0
   -2.1854   -0.4666   -0.2774 O   0  0  0  0  0  0  0  0  0  0  0  0
   -1.9665   -1.9234    1.7562 O   0  0  0  0  0  0  0  0  0  0  0  0
   -3.1533    0.3582    1.9213 N   0  0  0  0  0  0  0  0  0  0  0  0
   -3.3303    1.7216    1.3967 C   0  0  0  0  0  0  0  0  0  0  0  0
   -4.4074   -0.3215    2.3127 C   0  0  0  0  0  0  0  0  0  0  0  0
   -5.4153   -0.5402    1.2090 C   0  0  0  0  0  0  0  0  0  0  0  0
   -5.3203   -1.6571    0.3670 C   0  0  0  0  0  0  0  0  0  0  0  0
   -6.2470   -1.8547   -0.6579 C   0  0  0  0  0  0  0  0  0  0  0  0
   -7.2801   -0.9404   -0.8516 C   0  0  0  0  0  0  0  0  0  0  0  0
   -7.3876    0.1732   -0.0215 C   0  0  0  0  0  0  0  0  0  0  0  0
   -6.4601    0.3739    1.0027 C   0  0  0  0  0  0  0  0  0  0  0  0
    0.6128   -0.9407    5.1616 H   0  0  0  0  0  0  0  0  0  0  0  0
   -1.0464   -0.8889    5.7720 H   0  0  0  0  0  0  0  0  0  0  0  0
   -0.1512    0.6283    5.6314 H   0  0  0  0  0  0  0  0  0  0  0  0
    1.5641    1.0664    4.1581 H   0  0  0  0  0  0  0  0  0  0  0  0
    2.9096    1.9439    2.3262 H   0  0  0  0  0  0  0  0  0  0  0  0
    1.8084    0.4235   -1.6428 H   0  0  0  0  0  0  0  0  0  0  0  0
    2.5841    1.6749   -3.5486 H   0  0  0  0  0  0  0  0  0  0  0  0
    3.5743    2.6810   -2.4913 H   0  0  0  0  0  0  0  0  0  0  0  0
    5.5142    1.6266   -1.2103 H   0  0  0  0  0  0  0  0  0  0  0  0
    7.3770   -0.0228   -1.3612 H   0  0  0  0  0  0  0  0  0  0  0  0
    3.3646   -0.5335   -4.2949 H   0  0  0  0  0  0  0  0  0  0  0  0
    6.4933   -3.9334   -3.7481 H   0  0  0  0  0  0  0  0  0  0  0  0
    7.2845   -2.9498   -5.0045 H   0  0  0  0  0  0  0  0  0  0  0  0
   -0.0432    0.6337   -0.5211 H   0  0  0  0  0  0  0  0  0  0  0  0
   -2.3812    2.2641    1.4040 H   0  0  0  0  0  0  0  0  0  0  0  0
   -4.0194    2.2850    2.0344 H   0  0  0  0  0  0  0  0  0  0  0  0
   -3.7280    1.7102    0.3781 H   0  0  0  0  0  0  0  0  0  0  0  0
   -4.8737    0.2723    3.1113 H   0  0  0  0  0  0  0  0  0  0  0  0
   -4.1840   -1.2784    2.8010 H   0  0  0  0  0  0  0  0  0  0  0  0
   -4.5186   -2.3815    0.5005 H   0  0  0  0  0  0  0  0  0  0  0  0
   -6.1575   -2.7213   -1.3076 H   0  0  0  0  0  0  0  0  0  0  0  0
   -7.9997   -1.0957   -1.6510 H   0  0  0  0  0  0  0  0  0  0  0  0
   -8.1934    0.8865   -0.1736 H   0  0  0  0  0  0  0  0  0  0  0  0
   -6.5594    1.2496    1.6400 H   0  0  0  0  0  0  0  0  0  0  0  0
  1  2  1  0
  2  3  1  0
  3  4  2  0
  4  5  1  0
  5  6  2  0
  6  7  1  0
  7  8  2  0
  7  9  1  0
  9 10  1  0
 10 11  1  0
 11 12  2  0
 12 13  1  0
 13 14  2  0
 14 15  1  0
 15 16  2  0
 15 17  1  0
 17 18  1  0
 18 19  1  0
  6 20  1  0
 20 21  2  0
 21 22  1  0
 22 23  2  0
 22 24  2  0
 22 25  1  0
 25 26  1  0
 25 27  1  0
 27 28  1  0
 28 29  2  0
 29 30  1  0
 30 31  2  0
 31 32  1  0
 32 33  2  0
 21  3  1  0
 33 28  1  0
 16 11  1  0
 19 14  1  0
  1 34  1  0
  1 35  1  0
  1 36  1  0
  4 37  1  0
  5 38  1  0
  9 39  1  0
 10 40  1  0
 10 41  1  0
 12 42  1  0
 13 43  1  0
 16 44  1  0
 18 45  1  0
 18 46  1  0
 20 47  1  0
 26 48  1  0
 26 49  1  0
 26 50  1  0
 27 51  1  0
 27 52  1  0
 29 53  1  0
 30 54  1  0
 31 55  1  0
 32 56  1  0
 33 57  1  0
M  END
$$$$
