
     RDKit          3D

 37 39  0  0  0  0  0  0  0  0999 V2000
    6.6391    0.5394   -1.2033 C   0  0  0  0  0  0  0  0  0  0  0  0
    6.5813    0.6455    0.3147 C   0  0  0  0  0  0  0  0  0  0  0  0
    5.9038   -0.5550    0.9788 C   0  0  0  0  0  0  0  0  0  0  0  0
    4.4440   -0.6433    0.6732 C   0  0  0  0  0  0  0  0  0  0  0  0
    3.9213   -1.3782   -0.2868 N   0  0  0  0  0  0  0  0  0  0  0  0
    2.5463   -1.2629   -0.3329 N   0  0  0  0  0  0  0  0  0  0  0  0
    2.0836   -0.4534    0.5938 C   0  0  0  0  0  0  0  0  0  0  0  0
    0.7469   -0.1916    0.7328 N   0  0  0  0  0  0  0  0  0  0  0  0
    0.1423    0.6305    1.6542 C   0  0  0  0  0  0  0  0  0  0  0  0
    0.6936    1.2887    2.5317 O   0  0  0  0  0  0  0  0  0  0  0  0
   -1.3816    0.6736    1.5008 C   0  0  0  0  0  0  0  0  0  0  0  0
   -1.8152   -0.1575    0.4259 O   0  0  0  0  0  0  0  0  0  0  0  0
   -3.1622   -0.2048    0.1857 C   0  0  0  0  0  0  0  0  0  0  0  0
   -3.5317   -1.0415   -0.8875 C   0  0  0  0  0  0  0  0  0  0  0  0
   -4.8718   -1.1952   -1.2568 C   0  0  0  0  0  0  0  0  0  0  0  0
   -5.8138   -0.4999   -0.5340 C   0  0  0  0  0  0  0  0  0  0  0  0
   -5.4589    0.3171    0.5130 C   0  0  0  0  0  0  0  0  0  0  0  0
   -4.1440    0.4877    0.8997 C   0  0  0  0  0  0  0  0  0  0  0  0
   -6.5367    0.9112    1.0938 O   0  0  0  0  0  0  0  0  0  0  0  0
   -7.6092    0.3737    0.2912 C   0  0  0  0  0  0  0  0  0  0  0  0
   -7.1562   -0.5231   -0.7441 O   0  0  0  0  0  0  0  0  0  0  0  0
    3.2832    0.2286    1.5914 S   0  0  0  0  0  0  0  0  0  0  0  0
    5.6382    0.5559   -1.6451 H   0  0  0  0  0  0  0  0  0  0  0  0
    7.1393   -0.3834   -1.5137 H   0  0  0  0  0  0  0  0  0  0  0  0
    7.1996    1.3837   -1.6174 H   0  0  0  0  0  0  0  0  0  0  0  0
    6.0744    1.5771    0.5927 H   0  0  0  0  0  0  0  0  0  0  0  0
    7.6079    0.7178    0.6939 H   0  0  0  0  0  0  0  0  0  0  0  0
    6.3950   -1.4814    0.6566 H   0  0  0  0  0  0  0  0  0  0  0  0
    6.0501   -0.4926    2.0643 H   0  0  0  0  0  0  0  0  0  0  0  0
    0.1507   -0.6705    0.0666 H   0  0  0  0  0  0  0  0  0  0  0  0
   -1.6546    1.7171    1.3053 H   0  0  0  0  0  0  0  0  0  0  0  0
   -1.8090    0.3214    2.4467 H   0  0  0  0  0  0  0  0  0  0  0  0
   -2.7638   -1.5786   -1.4404 H   0  0  0  0  0  0  0  0  0  0  0  0
   -5.1589   -1.8376   -2.0813 H   0  0  0  0  0  0  0  0  0  0  0  0
   -3.9248    1.1440    1.7319 H   0  0  0  0  0  0  0  0  0  0  0  0
   -8.3000   -0.1684    0.9473 H   0  0  0  0  0  0  0  0  0  0  0  0
   -8.1480    1.2058   -0.1764 H   0  0  0  0  0  0  0  0  0  0  0  0
  1  2  1  0
  2  3  1  0
  3  4  1  0
  4  5  2  0
  5  6  1  0
  6  7  2  0
  7  8  1  0
  8  9  1  0
  9 10  2  0
  9 11  1  0
 11 12  1  0
 12 13  1  0
 13 14  2  0
 14 15  1  0
 15 16  2  0
 16 17  1  0
 17 18  2  0
 17 19  1  0
 19 20  1  0
 20 21  1  0
  7 22  1  0
 22  4  1  0
 18 13  1  0
 21 16  1  0
  1 23  1  0
  1 24  1  0
  1 25  1  0
  2 26  1  0
  2 27  1  0
  3 28  1  0
  3 29  1  0
  8 30  1  0
 11 31  1  0
 11 32  1  0
 14 33  1  0
 15 34  1  0
 18 35  1  0
 20 36  1  0
 20 37  1  0
M  END
$$$$
