
     RDKit          3D

 55 58  0  0  0  0  0  0  0  0999 V2000
    4.3677   -2.9036   -0.6326 C   0  0  0  0  0  0  0  0  0  0  0  0
    3.3509   -2.5909    0.3400 N   0  0  0  0  0  0  0  0  0  0  0  0
    3.4089   -1.6271    1.3233 C   0  0  0  0  0  0  0  0  0  0  0  0
    4.5249   -0.6558    1.5192 C   0  0  0  0  0  0  0  0  0  0  0  0
    4.7362    0.2820    0.3478 C   0  0  0  0  0  0  0  0  0  0  0  0
    3.6844    1.0755   -0.1403 C   0  0  0  0  0  0  0  0  0  0  0  0
    3.8885    1.9407   -1.2175 C   0  0  0  0  0  0  0  0  0  0  0  0
    5.1456    2.0281   -1.8122 C   0  0  0  0  0  0  0  0  0  0  0  0
    6.2008    1.2543   -1.3292 C   0  0  0  0  0  0  0  0  0  0  0  0
    6.0005    0.3892   -0.2513 C   0  0  0  0  0  0  0  0  0  0  0  0
    2.3144   -1.7024    2.0563 N   0  0  0  0  0  0  0  0  0  0  0  0
    1.5081   -2.6754    1.5260 N   0  0  0  0  0  0  0  0  0  0  0  0
    2.1262   -3.1822    0.4843 C   0  0  0  0  0  0  0  0  0  0  0  0
    1.4894   -4.3855   -0.5796 S   0  0  0  0  0  0  0  0  0  0  0  0
   -0.1367   -4.6973    0.1705 C   0  0  0  0  0  0  0  0  0  0  0  0
   -1.1460   -3.6296   -0.2324 C   0  0  0  0  0  0  0  0  0  0  0  0
   -1.9077   -3.8142   -1.1788 O   0  0  0  0  0  0  0  0  0  0  0  0
   -1.1000   -2.5032    0.5699 N   0  0  0  0  0  0  0  0  0  0  0  0
   -1.9323   -1.3685    0.5217 C   0  0  0  0  0  0  0  0  0  0  0  0
   -3.0683   -1.2607   -0.2789 C   0  0  0  0  0  0  0  0  0  0  0  0
   -3.8570   -0.1000   -0.2461 C   0  0  0  0  0  0  0  0  0  0  0  0
   -3.5320    0.9823    0.5819 C   0  0  0  0  0  0  0  0  0  0  0  0
   -4.2798    2.1662    0.6422 N   0  0  0  0  0  0  0  0  0  0  0  0
   -5.7139    2.1491    0.2811 C   0  0  0  0  0  0  0  0  0  0  0  0
   -5.9401    2.8279   -1.0773 C   0  0  0  0  0  0  0  0  0  0  0  0
   -5.5312    4.2088   -1.1069 O   0  0  0  0  0  0  0  0  0  0  0  0
   -4.4974    4.5115   -0.1531 C   0  0  0  0  0  0  0  0  0  0  0  0
   -3.5373    3.3378    0.1062 C   0  0  0  0  0  0  0  0  0  0  0  0
   -2.3830    0.8583    1.3772 C   0  0  0  0  0  0  0  0  0  0  0  0
   -1.5948   -0.2983    1.3519 C   0  0  0  0  0  0  0  0  0  0  0  0
    4.1687   -2.3270   -1.5411 H   0  0  0  0  0  0  0  0  0  0  0  0
    4.3553   -3.9749   -0.8491 H   0  0  0  0  0  0  0  0  0  0  0  0
    5.3513   -2.6549   -0.2302 H   0  0  0  0  0  0  0  0  0  0  0  0
    4.3235   -0.0458    2.4096 H   0  0  0  0  0  0  0  0  0  0  0  0
    5.4465   -1.2142    1.7365 H   0  0  0  0  0  0  0  0  0  0  0  0
    2.6962    1.0249    0.3165 H   0  0  0  0  0  0  0  0  0  0  0  0
    3.0654    2.5497   -1.5897 H   0  0  0  0  0  0  0  0  0  0  0  0
    5.3071    2.7043   -2.6483 H   0  0  0  0  0  0  0  0  0  0  0  0
    7.1835    1.3320   -1.7890 H   0  0  0  0  0  0  0  0  0  0  0  0
    6.8404   -0.1972    0.1173 H   0  0  0  0  0  0  0  0  0  0  0  0
   -0.0714   -4.7779    1.2603 H   0  0  0  0  0  0  0  0  0  0  0  0
   -0.5060   -5.6632   -0.1929 H   0  0  0  0  0  0  0  0  0  0  0  0
   -0.3043   -2.4379    1.2089 H   0  0  0  0  0  0  0  0  0  0  0  0
   -3.3786   -2.0662   -0.9378 H   0  0  0  0  0  0  0  0  0  0  0  0
   -4.7211   -0.0665   -0.9055 H   0  0  0  0  0  0  0  0  0  0  0  0
   -6.2468    2.7180    1.0534 H   0  0  0  0  0  0  0  0  0  0  0  0
   -6.1440    1.1413    0.2981 H   0  0  0  0  0  0  0  0  0  0  0  0
   -7.0026    2.7997   -1.3405 H   0  0  0  0  0  0  0  0  0  0  0  0
   -5.3894    2.3029   -1.8664 H   0  0  0  0  0  0  0  0  0  0  0  0
   -3.9397    5.3731   -0.5401 H   0  0  0  0  0  0  0  0  0  0  0  0
   -4.9827    4.8251    0.7803 H   0  0  0  0  0  0  0  0  0  0  0  0
   -3.0503    3.0724   -0.8438 H   0  0  0  0  0  0  0  0  0  0  0  0
   -2.7632    3.6523    0.8204 H   0  0  0  0  0  0  0  0  0  0  0  0
   -2.1072    1.6595    2.0581 H   0  0  0  0  0  0  0  0  0  0  0  0
   -0.7193   -0.3465    1.9936 H   0  0  0  0  0  0  0  0  0  0  0  0
  1  2  1  0
  2  3  1  0
  3  4  1  0
  4  5  1  0
  5  6  2  0
  6  7  1  0
  7  8  2  0
  8  9  1  0
  9 10  2  0
  3 11  2  0
 11 12  1  0
 12 13  2  0
 13 14  1  0
 14 15  1  0
 15 16  1  0
 16 17  2  0
 16 18  1  0
 18 19  1  0
 19 20  2  0
 20 21  1  0
 21 22  2  0
 22 23  1  0
 23 24  1  0
 24 25  1  0
 25 26  1  0
 26 27  1  0
 27 28  1  0
 22 29  1  0
 29 30  2  0
 13  2  1  0
 30 19  1  0
 10  5  1  0
 28 23  1  0
  1 31  1  0
  1 32  1  0
  1 33  1  0
  4 34  1  0
  4 35  1  0
  6 36  1  0
  7 37  1  0
  8 38  1  0
  9 39  1  0
 10 40  1  0
 15 41  1  0
 15 42  1  0
 18 43  1  0
 20 44  1  0
 21 45  1  0
 24 46  1  0
 24 47  1  0
 25 48  1  0
 25 49  1  0
 27 50  1  0
 27 51  1  0
 28 52  1  0
 28 53  1  0
 29 54  1  0
 30 55  1  0
M  END
$$$$
