
     RDKit          3D

 57 59  0  0  0  0  0  0  0  0999 V2000
   -4.2986   -3.3324   -1.3518 C   0  0  0  0  0  0  0  0  0  0  0  0
   -4.8158   -2.0617   -2.0221 C   0  0  0  0  0  0  0  0  0  0  0  0
   -4.5005   -0.7911   -1.3463 N   0  0  0  0  0  0  0  0  0  0  0  0
   -5.1689   -0.6798   -0.0405 C   0  0  0  0  0  0  0  0  0  0  0  0
   -5.8829    0.6617    0.0816 C   0  0  0  0  0  0  0  0  0  0  0  0
   -3.0436   -0.5693   -1.2692 C   0  0  0  0  0  0  0  0  0  0  0  0
   -2.6259    0.8584   -0.8889 C   0  0  0  0  0  0  0  0  0  0  0  0
   -1.1928    0.9417   -0.9763 O   0  0  0  0  0  0  0  0  0  0  0  0
   -0.7016    2.0748   -0.3745 C   0  0  0  0  0  0  0  0  0  0  0  0
   -0.9247    3.3237   -0.8370 C   0  0  0  0  0  0  0  0  0  0  0  0
   -0.3185    4.4678   -0.0766 C   0  0  2  0  0  0  0  0  0  0  0  0
   -0.1490    5.6622   -0.8241 O   0  0  0  0  0  0  0  0  0  0  0  0
    0.7167    6.4445   -0.0906 C   0  0  0  0  0  0  0  0  0  0  0  0
    0.9243    7.6229   -0.3272 O   0  0  0  0  0  0  0  0  0  0  0  0
    1.5662    5.5761    1.2111 S   0  0  0  0  0  0  0  0  0  0  0  0
    1.0751    4.0586    0.4166 C   0  0  1  0  0  0  0  0  0  0  0  0
    1.0133    2.8040    1.2197 C   0  0  0  0  0  0  0  0  0  0  0  0
    0.1582    1.8453    0.7935 C   0  0  0  0  0  0  0  0  0  0  0  0
    0.0529    0.5745    1.5630 C   0  0  0  0  0  0  0  0  0  0  0  0
   -0.9693    0.2974    2.1857 O   0  0  0  0  0  0  0  0  0  0  0  0
    1.2136   -0.3556    1.5884 C   0  0  0  0  0  0  0  0  0  0  0  0
    2.2532   -0.3143    0.7408 C   0  0  0  0  0  0  0  0  0  0  0  0
    3.3750   -1.2624    0.7903 C   0  0  0  0  0  0  0  0  0  0  0  0
    3.1946   -2.6236    1.0572 C   0  0  0  0  0  0  0  0  0  0  0  0
    4.2890   -3.4941    1.0662 C   0  0  0  0  0  0  0  0  0  0  0  0
    5.5767   -3.0258    0.8003 C   0  0  0  0  0  0  0  0  0  0  0  0
    6.5531   -3.9815    0.8421 O   0  0  0  0  0  0  0  0  0  0  0  0
    7.8876   -3.5488    0.6094 C   0  0  0  0  0  0  0  0  0  0  0  0
    5.7613   -1.6738    0.5166 C   0  0  0  0  0  0  0  0  0  0  0  0
    4.6659   -0.8003    0.5060 C   0  0  0  0  0  0  0  0  0  0  0  0
   -3.2050   -3.3659   -1.3386 H   0  0  0  0  0  0  0  0  0  0  0  0
   -4.6454   -4.2099   -1.9078 H   0  0  0  0  0  0  0  0  0  0  0  0
   -4.6602   -3.4287   -0.3238 H   0  0  0  0  0  0  0  0  0  0  0  0
   -5.9048   -2.1393   -2.1368 H   0  0  0  0  0  0  0  0  0  0  0  0
   -4.4263   -2.0224   -3.0474 H   0  0  0  0  0  0  0  0  0  0  0  0
   -5.9384   -1.4535    0.0787 H   0  0  0  0  0  0  0  0  0  0  0  0
   -4.4697   -0.8199    0.7930 H   0  0  0  0  0  0  0  0  0  0  0  0
   -5.1945    1.5084    0.0176 H   0  0  0  0  0  0  0  0  0  0  0  0
   -6.3970    0.7235    1.0466 H   0  0  0  0  0  0  0  0  0  0  0  0
   -6.6362    0.7760   -0.7057 H   0  0  0  0  0  0  0  0  0  0  0  0
   -2.5691   -1.2717   -0.5715 H   0  0  0  0  0  0  0  0  0  0  0  0
   -2.5948   -0.7807   -2.2493 H   0  0  0  0  0  0  0  0  0  0  0  0
   -2.9451    1.0843    0.1352 H   0  0  0  0  0  0  0  0  0  0  0  0
   -3.0763    1.5776   -1.5828 H   0  0  0  0  0  0  0  0  0  0  0  0
   -1.5471    3.5175   -1.7021 H   0  0  0  0  0  0  0  0  0  0  0  0
   -1.0195    4.6912    0.7451 H   0  0  0  0  0  0  0  0  0  0  0  0
    1.7701    3.9083   -0.4214 H   0  0  0  0  0  0  0  0  0  0  0  0
    1.6544    2.6680    2.0845 H   0  0  0  0  0  0  0  0  0  0  0  0
    1.1335   -1.1178    2.3577 H   0  0  0  0  0  0  0  0  0  0  0  0
    2.3219    0.4393   -0.0390 H   0  0  0  0  0  0  0  0  0  0  0  0
    2.2052   -3.0308    1.2503 H   0  0  0  0  0  0  0  0  0  0  0  0
    4.1340   -4.5494    1.2781 H   0  0  0  0  0  0  0  0  0  0  0  0
    8.5417   -4.4222    0.6918 H   0  0  0  0  0  0  0  0  0  0  0  0
    8.0001   -3.1430   -0.4015 H   0  0  0  0  0  0  0  0  0  0  0  0
    8.2047   -2.8229    1.3654 H   0  0  0  0  0  0  0  0  0  0  0  0
    6.7414   -1.2643    0.2960 H   0  0  0  0  0  0  0  0  0  0  0  0
    4.8381    0.2498    0.2798 H   0  0  0  0  0  0  0  0  0  0  0  0
  1  2  1  0
  2  3  1  0
  3  4  1  0
  4  5  1  0
  3  6  1  0
  6  7  1  0
  7  8  1  0
  8  9  1  0
  9 10  2  0
 10 11  1  0
 11 12  1  0
 12 13  1  0
 13 14  2  0
 13 15  1  0
 15 16  1  0
 16 17  1  0
 17 18  2  0
 18 19  1  0
 19 20  2  0
 19 21  1  0
 21 22  2  0
 22 23  1  0
 23 24  2  0
 24 25  1  0
 25 26  2  0
 26 27  1  0
 27 28  1  0
 26 29  1  0
 29 30  2  0
 18  9  1  0
 30 23  1  0
 16 11  1  0
  1 31  1  0
  1 32  1  0
  1 33  1  0
  2 34  1  0
  2 35  1  0
  4 36  1  0
  4 37  1  0
  5 38  1  0
  5 39  1  0
  5 40  1  0
  6 41  1  0
  6 42  1  0
  7 43  1  0
  7 44  1  0
 10 45  1  0
 11 46  1  1
 16 47  1  6
 17 48  1  0
 21 49  1  0
 22 50  1  0
 24 51  1  0
 25 52  1  0
 28 53  1  0
 28 54  1  0
 28 55  1  0
 29 56  1  0
 30 57  1  0
M  END
$$$$
