
     RDKit          3D

 55 60  0  0  0  0  0  0  0  0999 V2000
    7.5194    1.4172    1.2272 C   0  0  0  0  0  0  0  0  0  0  0  0
    6.7253    2.2188    0.4057 C   0  0  0  0  0  0  0  0  0  0  0  0
    5.5354    1.7153   -0.1226 C   0  0  0  0  0  0  0  0  0  0  0  0
    5.1361    0.4101    0.1850 C   0  0  0  0  0  0  0  0  0  0  0  0
    3.8864   -0.1594   -0.3776 C   0  0  0  0  0  0  0  0  0  0  0  0
    3.9536   -1.3010   -0.9955 N   0  0  0  0  0  0  0  0  0  0  0  0
    2.7914   -1.8285   -1.5910 C   0  0  0  0  0  0  0  0  0  0  0  0
    2.9218   -3.0081   -2.3300 C   0  0  0  0  0  0  0  0  0  0  0  0
    1.8257   -3.5608   -2.9936 C   0  0  0  0  0  0  0  0  0  0  0  0
    0.5879   -2.9251   -2.9356 C   0  0  0  0  0  0  0  0  0  0  0  0
    0.4377   -1.7476   -2.1999 C   0  0  0  0  0  0  0  0  0  0  0  0
    1.5292   -1.2156   -1.5073 C   0  0  0  0  0  0  0  0  0  0  0  0
    1.4596   -0.0344   -0.7264 N   0  0  0  0  0  0  0  0  0  0  0  0
    0.3735    0.7457   -0.3196 C   0  0  0  0  0  0  0  0  0  0  0  0
   -0.9393    0.3793   -0.4805 N   0  0  0  0  0  0  0  0  0  0  0  0
   -1.4330   -0.6997    0.4251 C   0  0  0  0  0  0  0  0  0  0  0  0
   -2.6273   -0.2566    1.3011 C   0  0  0  0  0  0  0  0  0  0  0  0
   -3.7450    0.2383    0.4763 N   0  0  0  0  0  0  0  0  0  0  0  0
   -5.0516    0.2429    0.9345 C   0  0  0  0  0  0  0  0  0  0  0  0
   -6.1396    0.3795    0.0559 C   0  0  0  0  0  0  0  0  0  0  0  0
   -7.4656    0.3805    0.5069 C   0  0  0  0  0  0  0  0  0  0  0  0
   -7.7404    0.2422    1.8613 C   0  0  0  0  0  0  0  0  0  0  0  0
   -6.6888    0.1004    2.7576 C   0  0  0  0  0  0  0  0  0  0  0  0
   -5.3662    0.0990    2.2957 C   0  0  0  0  0  0  0  0  0  0  0  0
   -3.3749    0.8985   -0.7911 C   0  0  0  0  0  0  0  0  0  0  0  0
   -1.9323    1.4495   -0.7376 C   0  0  0  0  0  0  0  0  0  0  0  0
    0.8887    1.8713    0.2968 C   0  0  0  0  0  0  0  0  0  0  0  0
    2.2869    1.7157    0.3998 C   0  0  0  0  0  0  0  0  0  0  0  0
    2.6219    0.5271   -0.2179 C   0  0  0  0  0  0  0  0  0  0  0  0
    5.9444   -0.4004    0.9895 C   0  0  0  0  0  0  0  0  0  0  0  0
    7.1327    0.1077    1.5156 C   0  0  0  0  0  0  0  0  0  0  0  0
    8.4483    1.8097    1.6341 H   0  0  0  0  0  0  0  0  0  0  0  0
    7.0394    3.2323    0.1688 H   0  0  0  0  0  0  0  0  0  0  0  0
    4.9382    2.3359   -0.7853 H   0  0  0  0  0  0  0  0  0  0  0  0
    3.8940   -3.4896   -2.3954 H   0  0  0  0  0  0  0  0  0  0  0  0
    1.9446   -4.4752   -3.5685 H   0  0  0  0  0  0  0  0  0  0  0  0
   -0.2617   -3.3398   -3.4724 H   0  0  0  0  0  0  0  0  0  0  0  0
   -0.5281   -1.2558   -2.2112 H   0  0  0  0  0  0  0  0  0  0  0  0
   -1.7543   -1.5420   -0.1992 H   0  0  0  0  0  0  0  0  0  0  0  0
   -0.6323   -1.0706    1.0775 H   0  0  0  0  0  0  0  0  0  0  0  0
   -2.3088    0.5326    1.9929 H   0  0  0  0  0  0  0  0  0  0  0  0
   -2.9378   -1.1267    1.8918 H   0  0  0  0  0  0  0  0  0  0  0  0
   -5.9746    0.4626   -1.0148 H   0  0  0  0  0  0  0  0  0  0  0  0
   -8.2787    0.4831   -0.2065 H   0  0  0  0  0  0  0  0  0  0  0  0
   -8.7672    0.2421    2.2156 H   0  0  0  0  0  0  0  0  0  0  0  0
   -6.8896   -0.0066    3.8201 H   0  0  0  0  0  0  0  0  0  0  0  0
   -4.5794    0.0043    3.0383 H   0  0  0  0  0  0  0  0  0  0  0  0
   -4.0389    1.7452   -1.0026 H   0  0  0  0  0  0  0  0  0  0  0  0
   -3.4679    0.1754   -1.6102 H   0  0  0  0  0  0  0  0  0  0  0  0
   -1.6991    1.9334   -1.6935 H   0  0  0  0  0  0  0  0  0  0  0  0
   -1.8831    2.2142    0.0480 H   0  0  0  0  0  0  0  0  0  0  0  0
    0.3100    2.6829    0.7163 H   0  0  0  0  0  0  0  0  0  0  0  0
    2.9645    2.3950    0.9001 H   0  0  0  0  0  0  0  0  0  0  0  0
    5.6493   -1.4248    1.2043 H   0  0  0  0  0  0  0  0  0  0  0  0
    7.7598   -0.5197    2.1440 H   0  0  0  0  0  0  0  0  0  0  0  0
  1  2  2  0
  2  3  1  0
  3  4  2  0
  4  5  1  0
  5  6  2  0
  6  7  1  0
  7  8  2  0
  8  9  1  0
  9 10  2  0
 10 11  1  0
 11 12  2  0
 12 13  1  0
 13 14  1  0
 14 15  1  0
 15 16  1  0
 16 17  1  0
 17 18  1  0
 18 19  1  0
 19 20  2  0
 20 21  1  0
 21 22  2  0
 22 23  1  0
 23 24  2  0
 18 25  1  0
 25 26  1  0
 14 27  2  0
 27 28  1  0
 28 29  2  0
  4 30  1  0
 30 31  2  0
 31  1  1  0
 29  5  1  0
 12  7  1  0
 29 13  1  0
 26 15  1  0
 24 19  1  0
  1 32  1  0
  2 33  1  0
  3 34  1  0
  8 35  1  0
  9 36  1  0
 10 37  1  0
 11 38  1  0
 16 39  1  0
 16 40  1  0
 17 41  1  0
 17 42  1  0
 20 43  1  0
 21 44  1  0
 22 45  1  0
 23 46  1  0
 24 47  1  0
 25 48  1  0
 25 49  1  0
 26 50  1  0
 26 51  1  0
 27 52  1  0
 28 53  1  0
 30 54  1  0
 31 55  1  0
M  END
$$$$
