
     RDKit          3D

 59 64  0  0  0  0  0  0  0  0999 V2000
   -5.9935   -2.4368   -0.0545 C   0  0  0  0  0  0  0  0  0  0  0  0
   -5.5265   -1.3698   -0.8799 O   0  0  0  0  0  0  0  0  0  0  0  0
   -5.7389   -0.1508   -0.2740 C   0  0  0  0  0  0  0  0  0  0  0  0
   -7.0643    0.2949   -0.1414 C   0  0  0  0  0  0  0  0  0  0  0  0
   -7.3359    1.4976    0.4958 C   0  0  0  0  0  0  0  0  0  0  0  0
   -6.2848    2.2552    0.9964 C   0  0  0  0  0  0  0  0  0  0  0  0
   -4.9619    1.8174    0.8393 C   0  0  0  0  0  0  0  0  0  0  0  0
   -4.6390    0.6171    0.1796 C   0  0  0  0  0  0  0  0  0  0  0  0
   -3.3144    0.2157    0.0222 N   0  0  0  0  0  0  0  0  0  0  0  0
   -2.9112   -0.4903   -1.2159 C   0  0  0  0  0  0  0  0  0  0  0  0
   -1.5154   -0.0410   -1.7062 C   0  0  0  0  0  0  0  0  0  0  0  0
   -0.4656   -0.2495   -0.6790 N   0  0  0  0  0  0  0  0  0  0  0  0
    0.8144    0.1557   -0.9678 C   0  0  0  0  0  0  0  0  0  0  0  0
    1.2413    1.1707   -1.8061 C   0  0  0  0  0  0  0  0  0  0  0  0
    2.6271    1.3513   -1.6095 C   0  0  0  0  0  0  0  0  0  0  0  0
    3.0372    0.4188   -0.6758 C   0  0  0  0  0  0  0  0  0  0  0  0
    4.3199    0.1629   -0.0598 C   0  0  0  0  0  0  0  0  0  0  0  0
    5.4460    1.1098   -0.2509 C   0  0  0  0  0  0  0  0  0  0  0  0
    6.6881    0.6103   -0.6572 C   0  0  0  0  0  0  0  0  0  0  0  0
    7.7609    1.4842   -0.8429 C   0  0  0  0  0  0  0  0  0  0  0  0
    7.5963    2.8509   -0.6095 C   0  0  0  0  0  0  0  0  0  0  0  0
    6.3619    3.3477   -0.1832 C   0  0  0  0  0  0  0  0  0  0  0  0
    5.2850    2.4780    0.0002 C   0  0  0  0  0  0  0  0  0  0  0  0
    4.5120   -0.8975    0.6658 N   0  0  0  0  0  0  0  0  0  0  0  0
    3.4513   -1.8093    0.8422 C   0  0  0  0  0  0  0  0  0  0  0  0
    3.7080   -2.9710    1.5763 C   0  0  0  0  0  0  0  0  0  0  0  0
    2.7167   -3.9386    1.7509 C   0  0  0  0  0  0  0  0  0  0  0  0
    1.4604   -3.7587    1.1743 C   0  0  0  0  0  0  0  0  0  0  0  0
    1.1839   -2.6027    0.4435 C   0  0  0  0  0  0  0  0  0  0  0  0
    2.1650   -1.6165    0.3075 C   0  0  0  0  0  0  0  0  0  0  0  0
    1.9625   -0.4127   -0.4100 N   0  0  0  0  0  0  0  0  0  0  0  0
   -0.9350   -0.0248    0.7196 C   0  0  0  0  0  0  0  0  0  0  0  0
   -2.2188    0.8341    0.7899 C   0  0  0  0  0  0  0  0  0  0  0  0
   -7.0389   -2.6597   -0.2996 H   0  0  0  0  0  0  0  0  0  0  0  0
   -5.3938   -3.3241   -0.2846 H   0  0  0  0  0  0  0  0  0  0  0  0
   -5.8914   -2.2235    1.0181 H   0  0  0  0  0  0  0  0  0  0  0  0
   -7.8812   -0.3009   -0.5387 H   0  0  0  0  0  0  0  0  0  0  0  0
   -8.3613    1.8434    0.6023 H   0  0  0  0  0  0  0  0  0  0  0  0
   -6.4849    3.1983    1.5001 H   0  0  0  0  0  0  0  0  0  0  0  0
   -4.1796    2.4645    1.2269 H   0  0  0  0  0  0  0  0  0  0  0  0
   -3.6119   -0.2943   -2.0365 H   0  0  0  0  0  0  0  0  0  0  0  0
   -2.8957   -1.5692   -1.0171 H   0  0  0  0  0  0  0  0  0  0  0  0
   -1.5705    1.0208   -1.9839 H   0  0  0  0  0  0  0  0  0  0  0  0
   -1.2554   -0.6130   -2.6060 H   0  0  0  0  0  0  0  0  0  0  0  0
    0.6085    1.7813   -2.4371 H   0  0  0  0  0  0  0  0  0  0  0  0
    3.2469    2.1020   -2.0845 H   0  0  0  0  0  0  0  0  0  0  0  0
    6.8178   -0.4551   -0.8330 H   0  0  0  0  0  0  0  0  0  0  0  0
    8.7259    1.0988   -1.1665 H   0  0  0  0  0  0  0  0  0  0  0  0
    8.4340    3.5298   -0.7517 H   0  0  0  0  0  0  0  0  0  0  0  0
    6.2413    4.4111    0.0116 H   0  0  0  0  0  0  0  0  0  0  0  0
    4.3338    2.8685    0.3529 H   0  0  0  0  0  0  0  0  0  0  0  0
    4.6950   -3.1211    2.0069 H   0  0  0  0  0  0  0  0  0  0  0  0
    2.9316   -4.8384    2.3197 H   0  0  0  0  0  0  0  0  0  0  0  0
    0.6965   -4.5247    1.2836 H   0  0  0  0  0  0  0  0  0  0  0  0
    0.2140   -2.5131   -0.0332 H   0  0  0  0  0  0  0  0  0  0  0  0
   -1.1441   -1.0024    1.1698 H   0  0  0  0  0  0  0  0  0  0  0  0
   -0.1581    0.4543    1.3288 H   0  0  0  0  0  0  0  0  0  0  0  0
   -2.5003    0.9254    1.8462 H   0  0  0  0  0  0  0  0  0  0  0  0
   -2.0107    1.8389    0.3987 H   0  0  0  0  0  0  0  0  0  0  0  0
  1  2  1  0
  2  3  1  0
  3  4  2  0
  4  5  1  0
  5  6  2  0
  6  7  1  0
  7  8  2  0
  8  9  1  0
  9 10  1  0
 10 11  1  0
 11 12  1  0
 12 13  1  0
 13 14  2  0
 14 15  1  0
 15 16  2  0
 16 17  1  0
 17 18  1  0
 18 19  2  0
 19 20  1  0
 20 21  2  0
 21 22  1  0
 22 23  2  0
 17 24  2  0
 24 25  1  0
 25 26  2  0
 26 27  1  0
 27 28  2  0
 28 29  1  0
 29 30  2  0
 30 31  1  0
 12 32  1  0
 32 33  1  0
  8  3  1  0
 33  9  1  0
 31 13  1  0
 31 16  1  0
 23 18  1  0
 30 25  1  0
  1 34  1  0
  1 35  1  0
  1 36  1  0
  4 37  1  0
  5 38  1  0
  6 39  1  0
  7 40  1  0
 10 41  1  0
 10 42  1  0
 11 43  1  0
 11 44  1  0
 14 45  1  0
 15 46  1  0
 19 47  1  0
 20 48  1  0
 21 49  1  0
 22 50  1  0
 23 51  1  0
 26 52  1  0
 27 53  1  0
 28 54  1  0
 29 55  1  0
 32 56  1  0
 32 57  1  0
 33 58  1  0
 33 59  1  0
M  END
$$$$
