
     RDKit          3D

 44 47  0  0  0  0  0  0  0  0999 V2000
   -3.2533    5.3129   -0.3467 N   0  0  0  0  0  0  0  0  0  0  0  0
   -3.9794    4.2185   -0.6419 C   0  0  0  0  0  0  0  0  0  0  0  0
   -5.2819    4.2362   -0.9214 N   0  0  0  0  0  0  0  0  0  0  0  0
   -5.6318    2.9097   -1.1478 O   0  0  0  0  0  0  0  0  0  0  0  0
   -4.5289    2.0676   -1.0229 N   0  0  0  0  0  0  0  0  0  0  0  0
   -3.5247    2.8871   -0.7122 C   0  0  0  0  0  0  0  0  0  0  0  0
   -2.2065    2.4008   -0.5133 N   0  0  0  0  0  0  0  0  0  0  0  0
   -1.1721    3.2578   -0.2554 N   0  0  0  0  0  0  0  0  0  0  0  0
   -0.0584    2.5660   -0.1036 N   0  0  0  0  0  0  0  0  0  0  0  0
   -0.3509    1.2387   -0.2709 C   0  0  0  0  0  0  0  0  0  0  0  0
    0.6708    0.1992   -0.1569 C   0  0  0  0  0  0  0  0  0  0  0  0
    0.4245   -0.9889   -0.3376 O   0  0  0  0  0  0  0  0  0  0  0  0
    1.9140    0.7222    0.1699 N   0  0  0  0  0  0  0  0  0  0  0  0
    3.0013   -0.0888    0.3018 N   0  0  0  0  0  0  0  0  0  0  0  0
    4.1008    0.5086    0.6303 C   0  0  0  0  0  0  0  0  0  0  0  0
    5.3592   -0.2351    0.8332 C   0  0  0  0  0  0  0  0  0  0  0  0
    6.1580    0.0798    1.9435 C   0  0  0  0  0  0  0  0  0  0  0  0
    5.7210    1.3002    3.0905 Cl  0  0  0  0  0  0  0  0  0  0  0  0
    7.3505   -0.6143    2.1774 C   0  0  0  0  0  0  0  0  0  0  0  0
    7.7578   -1.6209    1.3054 C   0  0  0  0  0  0  0  0  0  0  0  0
    6.9778   -1.9278    0.1919 C   0  0  0  0  0  0  0  0  0  0  0  0
    5.7833   -1.2373   -0.0519 C   0  0  0  0  0  0  0  0  0  0  0  0
    4.9491   -1.6323   -1.5137 Cl  0  0  0  0  0  0  0  0  0  0  0  0
   -1.7048    1.1003   -0.5448 C   0  0  0  0  0  0  0  0  0  0  0  0
   -2.5046   -0.1292   -0.8004 C   0  0  0  0  0  0  0  0  0  0  0  0
   -3.2384   -0.7203    0.7486 S   0  0  0  0  0  0  0  0  0  0  0  0
   -3.9866   -2.1733    0.1808 C   0  0  0  0  0  0  0  0  0  0  0  0
   -4.1120   -2.4812   -1.0665 N   0  0  0  0  0  0  0  0  0  0  0  0
   -4.8472   -3.7586   -1.1721 C   0  0  0  0  0  0  0  0  0  0  0  0
   -4.6703   -4.5683    0.1027 C   0  0  0  0  0  0  0  0  0  0  0  0
   -4.5925   -3.2918    1.3691 S   0  0  0  0  0  0  0  0  0  0  0  0
   -2.2360    5.2837   -0.3119 H   0  0  0  0  0  0  0  0  0  0  0  0
   -3.6498    6.2323   -0.5092 H   0  0  0  0  0  0  0  0  0  0  0  0
    2.0008    1.7254    0.3051 H   0  0  0  0  0  0  0  0  0  0  0  0
    4.1325    1.5979    0.8130 H   0  0  0  0  0  0  0  0  0  0  0  0
    7.9648   -0.3781    3.0441 H   0  0  0  0  0  0  0  0  0  0  0  0
    8.6835   -2.1623    1.4887 H   0  0  0  0  0  0  0  0  0  0  0  0
    7.3104   -2.7051   -0.4937 H   0  0  0  0  0  0  0  0  0  0  0  0
   -3.2739    0.0409   -1.5577 H   0  0  0  0  0  0  0  0  0  0  0  0
   -1.8613   -0.9146   -1.2092 H   0  0  0  0  0  0  0  0  0  0  0  0
   -5.9068   -3.5444   -1.3603 H   0  0  0  0  0  0  0  0  0  0  0  0
   -4.4745   -4.3263   -2.0314 H   0  0  0  0  0  0  0  0  0  0  0  0
   -3.7226   -5.1158    0.0891 H   0  0  0  0  0  0  0  0  0  0  0  0
   -5.4908   -5.2708    0.2683 H   0  0  0  0  0  0  0  0  0  0  0  0
  1  2  1  0
  2  3  2  0
  3  4  1  0
  4  5  1  0
  5  6  2  0
  6  7  1  0
  7  8  1  0
  8  9  2  0
  9 10  1  0
 10 11  1  0
 11 12  2  0
 11 13  1  0
 13 14  1  0
 14 15  2  3
 15 16  1  0
 16 17  2  0
 17 18  1  0
 17 19  1  0
 19 20  2  0
 20 21  1  0
 21 22  2  0
 22 23  1  0
 10 24  2  0
 24 25  1  0
 25 26  1  0
 26 27  1  0
 27 28  2  0
 28 29  1  0
 29 30  1  0
 30 31  1  0
  6  2  1  0
 24  7  1  0
 31 27  1  0
 22 16  1  0
  1 32  1  0
  1 33  1  0
 13 34  1  0
 15 35  1  0
 19 36  1  0
 20 37  1  0
 21 38  1  0
 25 39  1  0
 25 40  1  0
 29 41  1  0
 29 42  1  0
 30 43  1  0
 30 44  1  0
M  END
$$$$
