
     RDKit          3D

 44 46  0  0  0  0  0  0  0  0999 V2000
   -2.4304    2.8170   -2.7811 C   0  0  0  0  0  0  0  0  0  0  0  0
   -2.2532    2.5881   -1.3899 O   0  0  0  0  0  0  0  0  0  0  0  0
   -2.2124    1.2890   -0.9614 C   0  0  0  0  0  0  0  0  0  0  0  0
   -2.3989    0.1703   -1.7760 C   0  0  0  0  0  0  0  0  0  0  0  0
   -2.3083   -1.1212   -1.2397 C   0  0  0  0  0  0  0  0  0  0  0  0
   -2.0173   -1.3167    0.1166 C   0  0  0  0  0  0  0  0  0  0  0  0
   -1.9269   -2.6903    0.6276 C   0  0  0  0  0  0  0  0  0  0  0  0
   -0.9693   -3.2384    1.4041 C   0  0  0  0  0  0  0  0  0  0  0  0
   -1.1236   -4.5885    1.8385 C   0  0  0  0  0  0  0  0  0  0  0  0
   -1.2883   -5.6988    2.1326 N   0  0  0  0  0  0  0  0  0  0  0  0
    0.2517   -2.5323    1.9071 C   0  0  0  0  0  0  0  0  0  0  0  0
    0.5592   -2.6542    3.0873 O   0  0  0  0  0  0  0  0  0  0  0  0
    0.9345   -1.8147    0.9431 N   0  0  0  0  0  0  0  0  0  0  0  0
    2.1356   -1.0689    1.0990 C   0  0  0  0  0  0  0  0  0  0  0  0
    2.9039   -1.1632    2.2645 C   0  0  0  0  0  0  0  0  0  0  0  0
    4.0945   -0.4568    2.3866 C   0  0  0  0  0  0  0  0  0  0  0  0
    4.5336    0.3464    1.3391 C   0  0  0  0  0  0  0  0  0  0  0  0
    3.8080    0.4770    0.1687 C   0  0  0  0  0  0  0  0  0  0  0  0
    4.3150    1.2833   -0.7809 N   0  0  0  0  0  0  0  0  0  0  0  0
    3.6161    1.4514   -1.9197 C   0  0  0  0  0  0  0  0  0  0  0  0
    2.4086    0.8386   -2.1676 C   0  0  0  0  0  0  0  0  0  0  0  0
    1.8911   -0.0021   -1.1862 C   0  0  0  0  0  0  0  0  0  0  0  0
    2.5842   -0.2247    0.0301 C   0  0  0  0  0  0  0  0  0  0  0  0
   -1.8563   -0.2006    0.9399 C   0  0  0  0  0  0  0  0  0  0  0  0
   -1.9623    1.0864    0.4035 C   0  0  0  0  0  0  0  0  0  0  0  0
   -1.7312    2.1363    1.2575 O   0  0  0  0  0  0  0  0  0  0  0  0
   -2.9640    2.7308    1.6631 C   0  0  0  0  0  0  0  0  0  0  0  0
   -1.6155    2.3698   -3.3607 H   0  0  0  0  0  0  0  0  0  0  0  0
   -3.4062    2.4527   -3.1198 H   0  0  0  0  0  0  0  0  0  0  0  0
   -2.4028    3.8985   -2.9492 H   0  0  0  0  0  0  0  0  0  0  0  0
   -2.6161    0.2657   -2.8353 H   0  0  0  0  0  0  0  0  0  0  0  0
   -2.4649   -1.9719   -1.9012 H   0  0  0  0  0  0  0  0  0  0  0  0
   -2.7708   -3.3147    0.3260 H   0  0  0  0  0  0  0  0  0  0  0  0
    0.5144   -1.7809    0.0268 H   0  0  0  0  0  0  0  0  0  0  0  0
    2.6158   -1.7949    3.0983 H   0  0  0  0  0  0  0  0  0  0  0  0
    4.6858   -0.5387    3.2950 H   0  0  0  0  0  0  0  0  0  0  0  0
    5.4712    0.8896    1.4404 H   0  0  0  0  0  0  0  0  0  0  0  0
    4.0689    2.1197   -2.6461 H   0  0  0  0  0  0  0  0  0  0  0  0
    1.8756    1.0158   -3.0940 H   0  0  0  0  0  0  0  0  0  0  0  0
    0.9277   -0.4575   -1.3861 H   0  0  0  0  0  0  0  0  0  0  0  0
   -1.6448   -0.3059    2.0014 H   0  0  0  0  0  0  0  0  0  0  0  0
   -3.6206    1.9943    2.1410 H   0  0  0  0  0  0  0  0  0  0  0  0
   -3.4779    3.2101    0.8238 H   0  0  0  0  0  0  0  0  0  0  0  0
   -2.7335    3.5047    2.4011 H   0  0  0  0  0  0  0  0  0  0  0  0
  1  2  1  0
  2  3  1  0
  3  4  2  0
  4  5  1  0
  5  6  2  0
  6  7  1  0
  7  8  2  3
  8  9  1  0
  9 10  3  0
  8 11  1  0
 11 12  2  0
 11 13  1  0
 13 14  1  0
 14 15  2  0
 15 16  1  0
 16 17  2  0
 17 18  1  0
 18 19  2  0
 19 20  1  0
 20 21  2  0
 21 22  1  0
 22 23  2  0
  6 24  1  0
 24 25  2  0
 25 26  1  0
 26 27  1  0
 25  3  1  0
 23 14  1  0
 23 18  1  0
  1 28  1  0
  1 29  1  0
  1 30  1  0
  4 31  1  0
  5 32  1  0
  7 33  1  0
 13 34  1  0
 15 35  1  0
 16 36  1  0
 17 37  1  0
 20 38  1  0
 21 39  1  0
 22 40  1  0
 24 41  1  0
 27 42  1  0
 27 43  1  0
 27 44  1  0
M  END
$$$$
