
     RDKit          3D

 43 47  0  0  0  0  0  0  0  0999 V2000
    2.5094   -1.2700    1.6408 O   0  0  0  0  0  0  0  0  0  0  0  0
    1.8354   -0.2844    1.3506 C   0  0  0  0  0  0  0  0  0  0  0  0
    0.5888    0.0525    2.1438 C   0  0  0  0  0  0  0  0  0  0  0  0
   -0.6094   -0.5210    1.5477 N   0  0  0  0  0  0  0  0  0  0  0  0
   -1.1347   -1.7694    1.8586 C   0  0  0  0  0  0  0  0  0  0  0  0
   -0.6554   -2.7891    2.6994 C   0  0  0  0  0  0  0  0  0  0  0  0
   -1.4218   -3.9522    2.8206 C   0  0  0  0  0  0  0  0  0  0  0  0
   -2.6165   -4.0886    2.1266 C   0  0  0  0  0  0  0  0  0  0  0  0
   -3.3273   -5.2163    2.2654 F   0  0  0  0  0  0  0  0  0  0  0  0
   -3.0915   -3.0855    1.2858 C   0  0  0  0  0  0  0  0  0  0  0  0
   -2.3366   -1.9064    1.1459 C   0  0  0  0  0  0  0  0  0  0  0  0
   -2.4846   -0.7236    0.3965 C   0  0  0  0  0  0  0  0  0  0  0  0
   -3.5221   -0.4104   -0.4874 N   0  0  0  0  0  0  0  0  0  0  0  0
   -3.3717    0.7501   -1.0371 C   0  0  0  0  0  0  0  0  0  0  0  0
   -2.3487    1.6573   -0.8351 N   0  0  0  0  0  0  0  0  0  0  0  0
   -1.2735    1.3686   -0.0238 C   0  0  0  0  0  0  0  0  0  0  0  0
   -0.2874    2.0894    0.0996 O   0  0  0  0  0  0  0  0  0  0  0  0
   -1.4221    0.1060    0.6334 C   0  0  0  0  0  0  0  0  0  0  0  0
   -2.3856    2.8252   -1.6832 C   0  0  0  0  0  0  0  0  0  0  0  0
   -3.8254    3.0554   -2.0996 C   0  0  0  0  0  0  0  0  0  0  0  0
   -4.5244    1.3846   -2.1885 S   0  0  0  0  0  0  0  0  0  0  0  0
    2.0974    0.6093    0.3274 N   0  0  0  0  0  0  0  0  0  0  0  0
    3.1665    0.5762   -0.5956 C   0  0  0  0  0  0  0  0  0  0  0  0
    4.1845   -0.3782   -0.5894 C   0  0  0  0  0  0  0  0  0  0  0  0
    5.2054   -0.3292   -1.5478 C   0  0  0  0  0  0  0  0  0  0  0  0
    5.2189    0.6721   -2.5190 C   0  0  0  0  0  0  0  0  0  0  0  0
    4.2090    1.6295   -2.5353 C   0  0  0  0  0  0  0  0  0  0  0  0
    3.1976    1.5739   -1.5798 C   0  0  0  0  0  0  0  0  0  0  0  0
    2.2296    2.5040   -1.6135 F   0  0  0  0  0  0  0  0  0  0  0  0
    0.6927   -0.3366    3.1623 H   0  0  0  0  0  0  0  0  0  0  0  0
    0.4586    1.1339    2.2446 H   0  0  0  0  0  0  0  0  0  0  0  0
    0.2865   -2.6969    3.2327 H   0  0  0  0  0  0  0  0  0  0  0  0
   -1.0832   -4.7642    3.4577 H   0  0  0  0  0  0  0  0  0  0  0  0
   -4.0232   -3.2178    0.7460 H   0  0  0  0  0  0  0  0  0  0  0  0
   -1.7501    2.6224   -2.5545 H   0  0  0  0  0  0  0  0  0  0  0  0
   -1.9667    3.6938   -1.1642 H   0  0  0  0  0  0  0  0  0  0  0  0
   -3.9057    3.5866   -3.0514 H   0  0  0  0  0  0  0  0  0  0  0  0
   -4.3669    3.6152   -1.3305 H   0  0  0  0  0  0  0  0  0  0  0  0
    1.4293    1.3716    0.1779 H   0  0  0  0  0  0  0  0  0  0  0  0
    4.2175   -1.1762    0.1456 H   0  0  0  0  0  0  0  0  0  0  0  0
    5.9922   -1.0806   -1.5315 H   0  0  0  0  0  0  0  0  0  0  0  0
    6.0145    0.7027   -3.2591 H   0  0  0  0  0  0  0  0  0  0  0  0
    4.2007    2.4161   -3.2826 H   0  0  0  0  0  0  0  0  0  0  0  0
  1  2  2  0
  2  3  1  0
  3  4  1  0
  4  5  1  0
  5  6  2  0
  6  7  1  0
  7  8  2  0
  8  9  1  0
  8 10  1  0
 10 11  2  0
 11 12  1  0
 12 13  1  0
 13 14  2  0
 14 15  1  0
 15 16  1  0
 16 17  2  0
 16 18  1  0
 15 19  1  0
 19 20  1  0
 20 21  1  0
  2 22  1  0
 22 23  1  0
 23 24  2  0
 24 25  1  0
 25 26  2  0
 26 27  1  0
 27 28  2  0
 28 29  1  0
 18  4  1  0
 28 23  1  0
 11  5  1  0
 18 12  2  0
 21 14  1  0
  3 30  1  0
  3 31  1  0
  6 32  1  0
  7 33  1  0
 10 34  1  0
 19 35  1  0
 19 36  1  0
 20 37  1  0
 20 38  1  0
 22 39  1  0
 24 40  1  0
 25 41  1  0
 26 42  1  0
 27 43  1  0
M  END
$$$$
