
     RDKit          3D

 67 72  0  0  0  0  0  0  0  0999 V2000
    3.9036   -0.8527   -1.9225 O   0  0  0  0  0  0  0  0  0  0  0  0
    3.2425   -0.1707   -1.1329 C   0  0  0  0  0  0  0  0  0  0  0  0
    3.9517    0.5514    0.0201 C   0  0  0  0  0  0  0  0  0  0  0  0
    4.1554   -0.4347    1.1851 C   0  0  0  0  0  0  0  0  0  0  0  0
    5.0996    0.0923    2.2412 C   0  0  0  0  0  0  0  0  0  0  0  0
    6.4872   -0.0081    2.0661 C   0  0  0  0  0  0  0  0  0  0  0  0
    7.3579    0.5047    3.0280 C   0  0  0  0  0  0  0  0  0  0  0  0
    6.8509    1.1194    4.1714 C   0  0  0  0  0  0  0  0  0  0  0  0
    5.4730    1.2239    4.3540 C   0  0  0  0  0  0  0  0  0  0  0  0
    4.5996    0.7147    3.3934 C   0  0  0  0  0  0  0  0  0  0  0  0
    3.2353    1.7567    0.4265 N   0  0  0  0  0  0  0  0  0  0  0  0
    1.8644    1.5942    0.5955 C   0  0  0  0  0  0  0  0  0  0  0  0
    1.3362    2.3587    1.5620 N   0  0  0  0  0  0  0  0  0  0  0  0
    0.0135    2.2978    1.6925 C   0  0  0  0  0  0  0  0  0  0  0  0
   -0.8125    1.5663    0.9417 N   0  0  0  0  0  0  0  0  0  0  0  0
   -0.2635    0.8070   -0.0353 C   0  0  0  0  0  0  0  0  0  0  0  0
   -1.1767    0.1081   -0.8539 N   0  0  0  0  0  0  0  0  0  0  0  0
   -1.8826    1.0748   -1.7441 C   0  0  0  0  0  0  0  0  0  0  0  0
   -3.1927    0.4707   -2.2885 C   0  0  0  0  0  0  0  0  0  0  0  0
   -4.1527    0.1702   -1.2017 N   0  0  0  0  0  0  0  0  0  0  0  0
   -5.3007    0.9645   -1.0735 C   0  0  0  0  0  0  0  0  0  0  0  0
   -6.4563    0.3970   -0.5128 C   0  0  0  0  0  0  0  0  0  0  0  0
   -7.6288    1.1384   -0.3490 C   0  0  0  0  0  0  0  0  0  0  0  0
   -7.6662    2.4715   -0.7418 C   0  0  0  0  0  0  0  0  0  0  0  0
   -6.5311    3.0591   -1.2937 C   0  0  0  0  0  0  0  0  0  0  0  0
   -5.3609    2.3112   -1.4561 C   0  0  0  0  0  0  0  0  0  0  0  0
   -3.5176   -0.0994    0.1198 C   0  0  0  0  0  0  0  0  0  0  0  0
   -2.1136   -0.7236   -0.0401 C   0  0  0  0  0  0  0  0  0  0  0  0
    1.1252    0.7412   -0.2363 C   0  0  0  0  0  0  0  0  0  0  0  0
    1.8429   -0.1012   -1.1687 N   0  0  0  0  0  0  0  0  0  0  0  0
    1.1685   -0.9263   -2.1644 C   0  0  0  0  0  0  0  0  0  0  0  0
    0.6606   -2.2747   -1.6827 C   0  0  0  0  0  0  0  0  0  0  0  0
   -0.2986   -2.9454   -2.4626 C   0  0  0  0  0  0  0  0  0  0  0  0
   -0.7909   -4.1952   -2.0796 C   0  0  0  0  0  0  0  0  0  0  0  0
   -0.3167   -4.7929   -0.9164 C   0  0  0  0  0  0  0  0  0  0  0  0
   -0.9827   -6.4798   -0.3877 Br  0  0  0  0  0  0  0  0  0  0  0  0
    0.6487   -4.1568   -0.1402 C   0  0  0  0  0  0  0  0  0  0  0  0
    1.1404   -2.9070   -0.5264 C   0  0  0  0  0  0  0  0  0  0  0  0
    4.9246    0.8770   -0.3683 H   0  0  0  0  0  0  0  0  0  0  0  0
    3.1972   -0.6977    1.6534 H   0  0  0  0  0  0  0  0  0  0  0  0
    4.5567   -1.3849    0.8074 H   0  0  0  0  0  0  0  0  0  0  0  0
    6.9011   -0.4861    1.1805 H   0  0  0  0  0  0  0  0  0  0  0  0
    8.4329    0.4251    2.8846 H   0  0  0  0  0  0  0  0  0  0  0  0
    7.5285    1.5178    4.9209 H   0  0  0  0  0  0  0  0  0  0  0  0
    5.0790    1.7056    5.2452 H   0  0  0  0  0  0  0  0  0  0  0  0
    3.5260    0.8126    3.5468 H   0  0  0  0  0  0  0  0  0  0  0  0
    3.6258    2.2682    1.2131 H   0  0  0  0  0  0  0  0  0  0  0  0
   -0.4354    2.9034    2.4715 H   0  0  0  0  0  0  0  0  0  0  0  0
   -1.2274    1.3249   -2.5864 H   0  0  0  0  0  0  0  0  0  0  0  0
   -2.1186    2.0128   -1.2246 H   0  0  0  0  0  0  0  0  0  0  0  0
   -2.9627   -0.4773   -2.7909 H   0  0  0  0  0  0  0  0  0  0  0  0
   -3.6215    1.1175   -3.0625 H   0  0  0  0  0  0  0  0  0  0  0  0
   -6.4500   -0.6487   -0.2162 H   0  0  0  0  0  0  0  0  0  0  0  0
   -8.5100    0.6703    0.0792 H   0  0  0  0  0  0  0  0  0  0  0  0
   -8.5759    3.0515   -0.6171 H   0  0  0  0  0  0  0  0  0  0  0  0
   -6.5515    4.1035   -1.5938 H   0  0  0  0  0  0  0  0  0  0  0  0
   -4.4911    2.8166   -1.8623 H   0  0  0  0  0  0  0  0  0  0  0  0
   -4.1428   -0.7955    0.6925 H   0  0  0  0  0  0  0  0  0  0  0  0
   -3.4392    0.8308    0.6978 H   0  0  0  0  0  0  0  0  0  0  0  0
   -2.2279   -1.6815   -0.5604 H   0  0  0  0  0  0  0  0  0  0  0  0
   -1.6938   -0.9648    0.9454 H   0  0  0  0  0  0  0  0  0  0  0  0
    1.8707   -1.1426   -2.9808 H   0  0  0  0  0  0  0  0  0  0  0  0
    0.3791   -0.3426   -2.6449 H   0  0  0  0  0  0  0  0  0  0  0  0
   -0.6772   -2.4868   -3.3741 H   0  0  0  0  0  0  0  0  0  0  0  0
   -1.5388   -4.6896   -2.6944 H   0  0  0  0  0  0  0  0  0  0  0  0
    1.0288   -4.6257    0.7629 H   0  0  0  0  0  0  0  0  0  0  0  0
    1.9011   -2.4390    0.0889 H   0  0  0  0  0  0  0  0  0  0  0  0
  1  2  2  0
  2  3  1  0
  3  4  1  0
  4  5  1  0
  5  6  2  0
  6  7  1  0
  7  8  2  0
  8  9  1  0
  9 10  2  0
  3 11  1  0
 11 12  1  0
 12 13  2  0
 13 14  1  0
 14 15  2  0
 15 16  1  0
 16 17  1  0
 17 18  1  0
 18 19  1  0
 19 20  1  0
 20 21  1  0
 21 22  2  0
 22 23  1  0
 23 24  2  0
 24 25  1  0
 25 26  2  0
 20 27  1  0
 27 28  1  0
 16 29  2  0
 29 30  1  0
 30 31  1  0
 31 32  1  0
 32 33  2  0
 33 34  1  0
 34 35  2  0
 35 36  1  0
 35 37  1  0
 37 38  2  0
 30  2  1  0
 38 32  1  0
 10  5  1  0
 29 12  1  0
 28 17  1  0
 26 21  1  0
  3 39  1  0
  4 40  1  0
  4 41  1  0
  6 42  1  0
  7 43  1  0
  8 44  1  0
  9 45  1  0
 10 46  1  0
 11 47  1  0
 14 48  1  0
 18 49  1  0
 18 50  1  0
 19 51  1  0
 19 52  1  0
 22 53  1  0
 23 54  1  0
 24 55  1  0
 25 56  1  0
 26 57  1  0
 27 58  1  0
 27 59  1  0
 28 60  1  0
 28 61  1  0
 31 62  1  0
 31 63  1  0
 33 64  1  0
 34 65  1  0
 37 66  1  0
 38 67  1  0
M  END
$$$$
