
     RDKit          3D

 60 63  0  0  0  0  0  0  0  0999 V2000
   -1.9019    4.7070    3.1729 C   0  0  0  0  0  0  0  0  0  0  0  0
   -2.6701    3.5377    3.4260 O   0  0  0  0  0  0  0  0  0  0  0  0
   -2.5549    2.5177    2.5224 C   0  0  0  0  0  0  0  0  0  0  0  0
   -3.2104    1.3392    2.8870 C   0  0  0  0  0  0  0  0  0  0  0  0
   -3.1799    0.2167    2.0553 C   0  0  0  0  0  0  0  0  0  0  0  0
   -2.4842    0.2700    0.8437 C   0  0  0  0  0  0  0  0  0  0  0  0
   -2.4381   -0.8733    0.0066 N   0  0  0  0  0  0  0  0  0  0  0  0
   -3.5033   -1.6768   -0.3855 C   0  0  0  0  0  0  0  0  0  0  0  0
   -4.9538   -1.3551   -0.2030 C   0  0  0  0  0  0  0  0  0  0  0  0
   -5.4065   -0.2325   -1.0963 C   0  0  0  0  0  0  0  0  0  0  0  0
   -5.2287   -0.0966   -2.4663 C   0  0  0  0  0  0  0  0  0  0  0  0
   -5.8116    1.1241   -2.8690 C   0  0  0  0  0  0  0  0  0  0  0  0
   -6.3485    1.7039   -1.7450 C   0  0  0  0  0  0  0  0  0  0  0  0
   -6.1248    0.8672   -0.6773 N   0  0  0  0  0  0  0  0  0  0  0  0
   -6.5913    1.1490    0.6628 C   0  0  0  0  0  0  0  0  0  0  0  0
   -3.0478   -2.6973   -1.0898 N   0  0  0  0  0  0  0  0  0  0  0  0
   -1.6969   -2.5519   -1.2331 N   0  0  0  0  0  0  0  0  0  0  0  0
   -1.3404   -1.4562   -0.6034 C   0  0  0  0  0  0  0  0  0  0  0  0
    0.3066   -0.9463   -0.4085 S   0  0  0  0  0  0  0  0  0  0  0  0
    1.0633   -1.7782   -1.8330 C   0  0  0  0  0  0  0  0  0  0  0  0
    2.5378   -1.4237   -1.8820 C   0  0  0  0  0  0  0  0  0  0  0  0
    2.9474   -0.3619   -2.3408 O   0  0  0  0  0  0  0  0  0  0  0  0
    3.3750   -2.3879   -1.3506 N   0  0  0  0  0  0  0  0  0  0  0  0
    4.8062   -2.1728   -1.2433 C   0  0  0  0  0  0  0  0  0  0  0  0
    5.1691   -1.3252   -0.0220 C   0  0  0  0  0  0  0  0  0  0  0  0
    6.6585   -1.1193    0.0922 C   0  0  0  0  0  0  0  0  0  0  0  0
    7.4415   -1.9845    0.8673 C   0  0  0  0  0  0  0  0  0  0  0  0
    8.8210   -1.7946    0.9608 C   0  0  0  0  0  0  0  0  0  0  0  0
    9.4292   -0.7426    0.2786 C   0  0  0  0  0  0  0  0  0  0  0  0
    8.6602    0.1191   -0.5037 C   0  0  0  0  0  0  0  0  0  0  0  0
    7.2811   -0.0689   -0.5996 C   0  0  0  0  0  0  0  0  0  0  0  0
   -1.8228    1.4455    0.4745 C   0  0  0  0  0  0  0  0  0  0  0  0
   -1.8640    2.5671    1.3115 C   0  0  0  0  0  0  0  0  0  0  0  0
   -0.8328    4.4748    3.1240 H   0  0  0  0  0  0  0  0  0  0  0  0
   -2.2399    5.2095    2.2617 H   0  0  0  0  0  0  0  0  0  0  0  0
   -2.0552    5.3948    4.0106 H   0  0  0  0  0  0  0  0  0  0  0  0
   -3.7372    1.2930    3.8377 H   0  0  0  0  0  0  0  0  0  0  0  0
   -3.6585   -0.6957    2.4003 H   0  0  0  0  0  0  0  0  0  0  0  0
   -5.1796   -1.1682    0.8486 H   0  0  0  0  0  0  0  0  0  0  0  0
   -5.5403   -2.2449   -0.4723 H   0  0  0  0  0  0  0  0  0  0  0  0
   -4.7163   -0.8077   -3.1052 H   0  0  0  0  0  0  0  0  0  0  0  0
   -5.8350    1.5383   -3.8703 H   0  0  0  0  0  0  0  0  0  0  0  0
   -6.8797    2.6391   -1.6227 H   0  0  0  0  0  0  0  0  0  0  0  0
   -7.4435    1.8329    0.6103 H   0  0  0  0  0  0  0  0  0  0  0  0
   -5.7735    1.6171    1.2130 H   0  0  0  0  0  0  0  0  0  0  0  0
   -6.9089    0.2213    1.1468 H   0  0  0  0  0  0  0  0  0  0  0  0
    0.9383   -2.8623   -1.7527 H   0  0  0  0  0  0  0  0  0  0  0  0
    0.5986   -1.4478   -2.7668 H   0  0  0  0  0  0  0  0  0  0  0  0
    2.9699   -3.1753   -0.8598 H   0  0  0  0  0  0  0  0  0  0  0  0
    5.2731   -3.1620   -1.1783 H   0  0  0  0  0  0  0  0  0  0  0  0
    5.1601   -1.6973   -2.1668 H   0  0  0  0  0  0  0  0  0  0  0  0
    4.6685   -0.3495   -0.0628 H   0  0  0  0  0  0  0  0  0  0  0  0
    4.7920   -1.8057    0.8924 H   0  0  0  0  0  0  0  0  0  0  0  0
    6.9828   -2.8097    1.4074 H   0  0  0  0  0  0  0  0  0  0  0  0
    9.4220   -2.4649    1.5702 H   0  0  0  0  0  0  0  0  0  0  0  0
   10.5028   -0.5935    0.3568 H   0  0  0  0  0  0  0  0  0  0  0  0
    9.1347    0.9403   -1.0371 H   0  0  0  0  0  0  0  0  0  0  0  0
    6.6914    0.6106   -1.2117 H   0  0  0  0  0  0  0  0  0  0  0  0
   -1.2989    1.5292   -0.4754 H   0  0  0  0  0  0  0  0  0  0  0  0
   -1.3517    3.4649    0.9819 H   0  0  0  0  0  0  0  0  0  0  0  0
  1  2  1  0
  2  3  1  0
  3  4  2  0
  4  5  1  0
  5  6  2  0
  6  7  1  0
  7  8  1  0
  8  9  1  0
  9 10  1  0
 10 11  2  0
 11 12  1  0
 12 13  2  0
 13 14  1  0
 14 15  1  0
  8 16  2  0
 16 17  1  0
 17 18  2  0
 18 19  1  0
 19 20  1  0
 20 21  1  0
 21 22  2  0
 21 23  1  0
 23 24  1  0
 24 25  1  0
 25 26  1  0
 26 27  2  0
 27 28  1  0
 28 29  2  0
 29 30  1  0
 30 31  2  0
  6 32  1  0
 32 33  2  0
 33  3  1  0
 18  7  1  0
 31 26  1  0
 14 10  1  0
  1 34  1  0
  1 35  1  0
  1 36  1  0
  4 37  1  0
  5 38  1  0
  9 39  1  0
  9 40  1  0
 11 41  1  0
 12 42  1  0
 13 43  1  0
 15 44  1  0
 15 45  1  0
 15 46  1  0
 20 47  1  0
 20 48  1  0
 23 49  1  0
 24 50  1  0
 24 51  1  0
 25 52  1  0
 25 53  1  0
 27 54  1  0
 28 55  1  0
 29 56  1  0
 30 57  1  0
 31 58  1  0
 32 59  1  0
 33 60  1  0
M  END
$$$$
