
     RDKit          3D

 49 52  0  0  0  0  0  0  0  0999 V2000
    4.7373    1.2551    2.2013 C   0  0  0  0  0  0  0  0  0  0  0  0
    4.5833   -0.0315    1.5197 N   0  0  0  0  0  0  0  0  0  0  0  0
    3.9337    0.1461    0.2092 C   0  0  0  0  0  0  0  0  0  0  0  0
    2.4411    0.5739    0.2537 C   0  0  0  0  0  0  0  0  0  0  0  0
    1.7098    0.1539    1.4701 N   0  0  0  0  0  0  0  0  0  0  0  0
    0.2634    0.0209    1.2359 C   0  0  0  0  0  0  0  0  0  0  0  0
   -0.3963    1.3659    0.9081 C   0  0  0  0  0  0  0  0  0  0  0  0
   -1.9295    1.2759    0.8489 C   0  0  0  0  0  0  0  0  0  0  0  0
   -2.4267    0.4355   -0.2707 N   0  0  0  0  0  0  0  0  0  0  0  0
   -2.8151   -0.8902    0.0592 C   0  0  0  0  0  0  0  0  0  0  0  0
   -3.5784   -1.1572    1.2140 C   0  0  0  0  0  0  0  0  0  0  0  0
   -3.9788   -2.4536    1.5523 C   0  0  0  0  0  0  0  0  0  0  0  0
   -3.6393   -3.5197    0.7319 C   0  0  0  0  0  0  0  0  0  0  0  0
   -2.9153   -3.2833   -0.4333 C   0  0  0  0  0  0  0  0  0  0  0  0
   -2.5159   -1.9812   -0.7808 C   0  0  0  0  0  0  0  0  0  0  0  0
   -1.5883   -1.8047   -2.2917 S   0  0  0  0  0  0  0  0  0  0  0  0
   -1.7220   -0.0535   -2.5892 C   0  0  0  0  0  0  0  0  0  0  0  0
   -1.3960    0.3923   -3.8821 C   0  0  0  0  0  0  0  0  0  0  0  0
   -1.4423    1.7472   -4.2003 C   0  0  0  0  0  0  0  0  0  0  0  0
   -1.8196    2.6591   -3.2251 C   0  0  0  0  0  0  0  0  0  0  0  0
   -1.8968    4.3351   -3.6089 Cl  0  0  0  0  0  0  0  0  0  0  0  0
   -2.1415    2.2279   -1.9365 C   0  0  0  0  0  0  0  0  0  0  0  0
   -2.0851    0.8647   -1.5821 C   0  0  0  0  0  0  0  0  0  0  0  0
    2.2822   -1.1003    1.9850 C   0  0  0  0  0  0  0  0  0  0  0  0
    3.7882   -0.9711    2.3418 C   0  0  0  0  0  0  0  0  0  0  0  0
    5.3018    1.1241    3.1315 H   0  0  0  0  0  0  0  0  0  0  0  0
    5.3193    1.9482    1.5834 H   0  0  0  0  0  0  0  0  0  0  0  0
    3.7841    1.7340    2.4482 H   0  0  0  0  0  0  0  0  0  0  0  0
    4.0002   -0.8137   -0.3213 H   0  0  0  0  0  0  0  0  0  0  0  0
    4.5015    0.8554   -0.4059 H   0  0  0  0  0  0  0  0  0  0  0  0
    1.9614    0.1804   -0.6520 H   0  0  0  0  0  0  0  0  0  0  0  0
    2.3948    1.6681    0.1981 H   0  0  0  0  0  0  0  0  0  0  0  0
   -0.2074   -0.3708    2.1465 H   0  0  0  0  0  0  0  0  0  0  0  0
    0.0776   -0.7070    0.4387 H   0  0  0  0  0  0  0  0  0  0  0  0
   -0.1337    2.0904    1.6902 H   0  0  0  0  0  0  0  0  0  0  0  0
   -0.0013    1.7681   -0.0307 H   0  0  0  0  0  0  0  0  0  0  0  0
   -2.2752    0.9270    1.8274 H   0  0  0  0  0  0  0  0  0  0  0  0
   -2.3475    2.2861    0.7709 H   0  0  0  0  0  0  0  0  0  0  0  0
   -3.9153   -0.3481    1.8563 H   0  0  0  0  0  0  0  0  0  0  0  0
   -4.5680   -2.6225    2.4501 H   0  0  0  0  0  0  0  0  0  0  0  0
   -3.9488   -4.5296    0.9872 H   0  0  0  0  0  0  0  0  0  0  0  0
   -2.6663   -4.1242   -1.0773 H   0  0  0  0  0  0  0  0  0  0  0  0
   -1.1030   -0.3195   -4.6513 H   0  0  0  0  0  0  0  0  0  0  0  0
   -1.1910    2.0779   -5.2041 H   0  0  0  0  0  0  0  0  0  0  0  0
   -2.4662    2.9730   -1.2173 H   0  0  0  0  0  0  0  0  0  0  0  0
    1.7488   -1.4174    2.8895 H   0  0  0  0  0  0  0  0  0  0  0  0
    2.1572   -1.8997    1.2416 H   0  0  0  0  0  0  0  0  0  0  0  0
    3.8857   -0.7219    3.4067 H   0  0  0  0  0  0  0  0  0  0  0  0
    4.2394   -1.9656    2.2343 H   0  0  0  0  0  0  0  0  0  0  0  0
  1  2  1  0
  2  3  1  0
  3  4  1  0
  4  5  1  0
  5  6  1  0
  6  7  1  0
  7  8  1  0
  8  9  1  0
  9 10  1  0
 10 11  2  0
 11 12  1  0
 12 13  2  0
 13 14  1  0
 14 15  2  0
 15 16  1  0
 16 17  1  0
 17 18  2  0
 18 19  1  0
 19 20  2  0
 20 21  1  0
 20 22  1  0
 22 23  2  0
  5 24  1  0
 24 25  1  0
 25  2  1  0
 23  9  1  0
 15 10  1  0
 23 17  1  0
  1 26  1  0
  1 27  1  0
  1 28  1  0
  3 29  1  0
  3 30  1  0
  4 31  1  0
  4 32  1  0
  6 33  1  0
  6 34  1  0
  7 35  1  0
  7 36  1  0
  8 37  1  0
  8 38  1  0
 11 39  1  0
 12 40  1  0
 13 41  1  0
 14 42  1  0
 18 43  1  0
 19 44  1  0
 22 45  1  0
 24 46  1  0
 24 47  1  0
 25 48  1  0
 25 49  1  0
M  END
$$$$
