
     RDKit          3D

 61 66  0  0  0  0  0  0  0  0999 V2000
   -4.1702   -1.8206    0.3198 C   0  0  0  0  0  0  0  0  0  0  0  0
   -2.7025   -1.8737    0.7574 C   0  0  0  0  0  0  0  0  0  0  0  0
   -2.3392   -3.2813    1.2465 C   0  0  0  0  0  0  0  0  0  0  0  0
   -1.7792   -1.3818   -0.3539 C   0  0  0  0  0  0  0  0  0  0  0  0
   -1.5821   -2.1913   -1.4911 C   0  0  0  0  0  0  0  0  0  0  0  0
   -0.8046   -1.7607   -2.5690 C   0  0  0  0  0  0  0  0  0  0  0  0
   -0.2121   -0.5032   -2.5451 C   0  0  0  0  0  0  0  0  0  0  0  0
   -0.3970    0.3305   -1.4454 C   0  0  0  0  0  0  0  0  0  0  0  0
   -1.1673   -0.1073   -0.3551 C   0  0  0  0  0  0  0  0  0  0  0  0
   -1.3154    0.7909    0.7285 N   0  0  0  0  0  0  0  0  0  0  0  0
   -0.7857    0.6634    1.9966 C   0  0  0  0  0  0  0  0  0  0  0  0
    0.2488   -0.6314    2.5077 S   0  0  0  0  0  0  0  0  0  0  0  0
    1.7445    0.3139    2.9447 C   0  0  0  0  0  0  0  0  0  0  0  0
    2.3129    1.0640    1.7629 C   0  0  0  0  0  0  0  0  0  0  0  0
    2.1831    2.4045    1.8045 C   0  0  0  0  0  0  0  0  0  0  0  0
    2.5575    3.3150    0.7265 C   0  0  0  0  0  0  0  0  0  0  0  0
    2.4424    4.5275    0.8436 O   0  0  0  0  0  0  0  0  0  0  0  0
    3.0022    2.7180   -0.4269 O   0  0  0  0  0  0  0  0  0  0  0  0
    3.2140    1.3259   -0.5053 C   0  0  0  0  0  0  0  0  0  0  0  0
    3.7308    0.9289   -1.7361 C   0  0  0  0  0  0  0  0  0  0  0  0
    4.0142   -0.4048   -1.9497 C   0  0  0  0  0  0  0  0  0  0  0  0
    3.8100   -1.3426   -0.9361 C   0  0  0  0  0  0  0  0  0  0  0  0
    4.1413   -2.6775   -1.2252 C   0  0  0  0  0  0  0  0  0  0  0  0
    3.9963   -3.6801   -0.2750 C   0  0  0  0  0  0  0  0  0  0  0  0
    3.5359   -3.3478    0.9843 C   0  0  0  0  0  0  0  0  0  0  0  0
    3.2081   -2.0181    1.2839 C   0  0  0  0  0  0  0  0  0  0  0  0
    3.2969   -0.9529    0.3442 C   0  0  0  0  0  0  0  0  0  0  0  0
    2.9498    0.4372    0.5585 C   0  0  0  0  0  0  0  0  0  0  0  0
   -1.0219    1.7411    2.7034 N   0  0  0  0  0  0  0  0  0  0  0  0
   -1.6652    2.6323    1.8900 N   0  0  0  0  0  0  0  0  0  0  0  0
   -1.8408    2.0815    0.6987 C   0  0  0  0  0  0  0  0  0  0  0  0
   -2.4929    2.7577   -0.4246 C   0  0  0  0  0  0  0  0  0  0  0  0
   -3.2954    2.1083   -1.3673 C   0  0  0  0  0  0  0  0  0  0  0  0
   -3.8826    2.8311   -2.4063 C   0  0  0  0  0  0  0  0  0  0  0  0
   -3.6637    4.1957   -2.4667 C   0  0  0  0  0  0  0  0  0  0  0  0
   -2.9135    4.8673   -1.5711 N   0  0  0  0  0  0  0  0  0  0  0  0
   -2.3546    4.1375   -0.5713 C   0  0  0  0  0  0  0  0  0  0  0  0
   -4.3776   -2.5065   -0.5115 H   0  0  0  0  0  0  0  0  0  0  0  0
   -4.8267   -2.0971    1.1545 H   0  0  0  0  0  0  0  0  0  0  0  0
   -4.4474   -0.8105   -0.0011 H   0  0  0  0  0  0  0  0  0  0  0  0
   -2.6203   -1.2187    1.6285 H   0  0  0  0  0  0  0  0  0  0  0  0
   -2.8824   -3.5156    2.1711 H   0  0  0  0  0  0  0  0  0  0  0  0
   -2.5985   -4.0532    0.5115 H   0  0  0  0  0  0  0  0  0  0  0  0
   -1.2661   -3.3633    1.4567 H   0  0  0  0  0  0  0  0  0  0  0  0
   -2.0464   -3.1735   -1.5589 H   0  0  0  0  0  0  0  0  0  0  0  0
   -0.6671   -2.4118   -3.4306 H   0  0  0  0  0  0  0  0  0  0  0  0
    0.3990   -0.1729   -3.3810 H   0  0  0  0  0  0  0  0  0  0  0  0
    0.0829    1.3070   -1.4433 H   0  0  0  0  0  0  0  0  0  0  0  0
    2.4982   -0.3178    3.4182 H   0  0  0  0  0  0  0  0  0  0  0  0
    1.4527    1.0020    3.7493 H   0  0  0  0  0  0  0  0  0  0  0  0
    1.7209    2.9127    2.6473 H   0  0  0  0  0  0  0  0  0  0  0  0
    3.9116    1.6585   -2.5207 H   0  0  0  0  0  0  0  0  0  0  0  0
    4.4205   -0.7023   -2.9163 H   0  0  0  0  0  0  0  0  0  0  0  0
    4.5212   -2.9530   -2.2086 H   0  0  0  0  0  0  0  0  0  0  0  0
    4.2541   -4.7080   -0.5135 H   0  0  0  0  0  0  0  0  0  0  0  0
    3.4296   -4.1175    1.7463 H   0  0  0  0  0  0  0  0  0  0  0  0
    2.8927   -1.8581    2.3030 H   0  0  0  0  0  0  0  0  0  0  0  0
   -3.4888    1.0418   -1.3120 H   0  0  0  0  0  0  0  0  0  0  0  0
   -4.4978    2.3379   -3.1491 H   0  0  0  0  0  0  0  0  0  0  0  0
   -4.1011    4.8017   -3.2553 H   0  0  0  0  0  0  0  0  0  0  0  0
   -1.7660    4.7213    0.1348 H   0  0  0  0  0  0  0  0  0  0  0  0
  1  2  1  0
  2  3  1  0
  2  4  1  0
  4  5  2  0
  5  6  1  0
  6  7  2  0
  7  8  1  0
  8  9  2  0
  9 10  1  0
 10 11  1  0
 11 12  1  0
 12 13  1  0
 13 14  1  0
 14 15  2  0
 15 16  1  0
 16 17  2  0
 16 18  1  0
 18 19  1  0
 19 20  2  0
 20 21  1  0
 21 22  2  0
 22 23  1  0
 23 24  2  0
 24 25  1  0
 25 26  2  0
 26 27  1  0
 27 28  2  0
 11 29  2  0
 29 30  1  0
 30 31  2  0
 31 32  1  0
 32 33  2  0
 33 34  1  0
 34 35  2  0
 35 36  1  0
 36 37  2  0
  9  4  1  0
 31 10  1  0
 37 32  1  0
 28 14  1  0
 28 19  1  0
 27 22  1  0
  1 38  1  0
  1 39  1  0
  1 40  1  0
  2 41  1  0
  3 42  1  0
  3 43  1  0
  3 44  1  0
  5 45  1  0
  6 46  1  0
  7 47  1  0
  8 48  1  0
 13 49  1  0
 13 50  1  0
 15 51  1  0
 20 52  1  0
 21 53  1  0
 23 54  1  0
 24 55  1  0
 25 56  1  0
 26 57  1  0
 33 58  1  0
 34 59  1  0
 35 60  1  0
 37 61  1  0
M  END
$$$$
