
     RDKit          3D

 59 63  0  0  0  0  0  0  0  0999 V2000
   -5.3691   -2.8980    2.1416 C   0  0  0  0  0  0  0  0  0  0  0  0
   -4.9684   -1.4652    1.8150 C   0  0  0  0  0  0  0  0  0  0  0  0
   -3.4962   -1.3307    1.3983 C   0  0  0  0  0  0  0  0  0  0  0  0
   -3.2778   -2.0006    0.1174 N   0  0  0  0  0  0  0  0  0  0  0  0
   -1.9564   -1.8637   -0.3241 C   0  0  0  0  0  0  0  0  0  0  0  0
   -1.4749   -2.9168   -0.9960 N   0  0  0  0  0  0  0  0  0  0  0  0
   -0.2372   -2.7780   -1.4705 C   0  0  0  0  0  0  0  0  0  0  0  0
    0.5670   -1.7271   -1.2779 N   0  0  0  0  0  0  0  0  0  0  0  0
    0.0884   -0.6908   -0.5581 C   0  0  0  0  0  0  0  0  0  0  0  0
    1.0100    0.3093   -0.1946 N   0  0  0  0  0  0  0  0  0  0  0  0
    2.1875    0.4304   -1.0987 C   0  0  0  0  0  0  0  0  0  0  0  0
    3.2445    1.3565   -0.4630 C   0  0  0  0  0  0  0  0  0  0  0  0
    3.7878    0.7832    0.7964 N   0  0  0  0  0  0  0  0  0  0  0  0
    5.0410    0.1514    0.6306 C   0  0  0  0  0  0  0  0  0  0  0  0
    5.8287   -0.0877    1.7594 C   0  0  0  0  0  0  0  0  0  0  0  0
    7.0628   -0.7204    1.6244 C   0  0  0  0  0  0  0  0  0  0  0  0
    7.4891   -1.1039    0.3627 C   0  0  0  0  0  0  0  0  0  0  0  0
    6.6590   -0.8316   -0.7085 C   0  0  0  0  0  0  0  0  0  0  0  0
    5.4583   -0.2186   -0.5991 N   0  0  0  0  0  0  0  0  0  0  0  0
    2.8458   -0.1378    1.4875 C   0  0  0  0  0  0  0  0  0  0  0  0
    1.3707    0.2610    1.2518 C   0  0  0  0  0  0  0  0  0  0  0  0
   -1.2389   -0.6811   -0.0975 C   0  0  0  0  0  0  0  0  0  0  0  0
   -1.8977    0.4047    0.5874 N   0  0  0  0  0  0  0  0  0  0  0  0
   -1.5838    1.7962    0.2664 C   0  0  0  0  0  0  0  0  0  0  0  0
   -2.2108    2.2460   -1.0398 C   0  0  0  0  0  0  0  0  0  0  0  0
   -3.5367    2.7045   -1.0741 C   0  0  0  0  0  0  0  0  0  0  0  0
   -4.1228    3.0998   -2.2784 C   0  0  0  0  0  0  0  0  0  0  0  0
   -3.3864    3.0333   -3.4584 C   0  0  0  0  0  0  0  0  0  0  0  0
   -4.1791    3.5639   -5.0904 Br  0  0  0  0  0  0  0  0  0  0  0  0
   -2.0713    2.5753   -3.4451 C   0  0  0  0  0  0  0  0  0  0  0  0
   -1.4863    2.1837   -2.2389 C   0  0  0  0  0  0  0  0  0  0  0  0
   -3.0903    0.1609    1.2875 C   0  0  0  0  0  0  0  0  0  0  0  0
   -3.7292    1.0539    1.8476 O   0  0  0  0  0  0  0  0  0  0  0  0
   -6.3976   -2.9231    2.5159 H   0  0  0  0  0  0  0  0  0  0  0  0
   -5.3235   -3.5404    1.2573 H   0  0  0  0  0  0  0  0  0  0  0  0
   -4.7180   -3.3224    2.9120 H   0  0  0  0  0  0  0  0  0  0  0  0
   -5.1580   -0.8523    2.7052 H   0  0  0  0  0  0  0  0  0  0  0  0
   -5.6234   -1.0789    1.0235 H   0  0  0  0  0  0  0  0  0  0  0  0
   -2.8633   -1.7809    2.1765 H   0  0  0  0  0  0  0  0  0  0  0  0
   -3.5303   -2.9808    0.0486 H   0  0  0  0  0  0  0  0  0  0  0  0
    0.1622   -3.6000   -2.0550 H   0  0  0  0  0  0  0  0  0  0  0  0
    1.8592    0.8590   -2.0523 H   0  0  0  0  0  0  0  0  0  0  0  0
    2.6528   -0.5420   -1.3027 H   0  0  0  0  0  0  0  0  0  0  0  0
    4.0252    1.6134   -1.1888 H   0  0  0  0  0  0  0  0  0  0  0  0
    2.7665    2.3102   -0.2023 H   0  0  0  0  0  0  0  0  0  0  0  0
    5.4915    0.2363    2.7380 H   0  0  0  0  0  0  0  0  0  0  0  0
    7.6832   -0.9023    2.4965 H   0  0  0  0  0  0  0  0  0  0  0  0
    8.4436   -1.5958    0.2158 H   0  0  0  0  0  0  0  0  0  0  0  0
    6.9441   -1.1068   -1.7197 H   0  0  0  0  0  0  0  0  0  0  0  0
    3.0440   -0.1174    2.5657 H   0  0  0  0  0  0  0  0  0  0  0  0
    2.9821   -1.1717    1.1395 H   0  0  0  0  0  0  0  0  0  0  0  0
    0.7268   -0.4209    1.8216 H   0  0  0  0  0  0  0  0  0  0  0  0
    1.2109    1.2640    1.6665 H   0  0  0  0  0  0  0  0  0  0  0  0
   -1.9625    2.4442    1.0680 H   0  0  0  0  0  0  0  0  0  0  0  0
   -0.5144    1.9970    0.2561 H   0  0  0  0  0  0  0  0  0  0  0  0
   -4.1235    2.7546   -0.1576 H   0  0  0  0  0  0  0  0  0  0  0  0
   -5.1500    3.4537   -2.2828 H   0  0  0  0  0  0  0  0  0  0  0  0
   -1.4945    2.5164   -4.3646 H   0  0  0  0  0  0  0  0  0  0  0  0
   -0.4605    1.8249   -2.2418 H   0  0  0  0  0  0  0  0  0  0  0  0
  1  2  1  0
  2  3  1  0
  3  4  1  0
  4  5  1  0
  5  6  2  0
  6  7  1  0
  7  8  2  0
  8  9  1  0
  9 10  1  0
 10 11  1  0
 11 12  1  0
 12 13  1  0
 13 14  1  0
 14 15  2  0
 15 16  1  0
 16 17  2  0
 17 18  1  0
 18 19  2  0
 13 20  1  0
 20 21  1  0
  9 22  2  0
 22 23  1  0
 23 24  1  0
 24 25  1  0
 25 26  2  0
 26 27  1  0
 27 28  2  0
 28 29  1  0
 28 30  1  0
 30 31  2  0
 23 32  1  0
 32 33  2  0
 32  3  1  0
 22  5  1  0
 31 25  1  0
 21 10  1  0
 19 14  1  0
  1 34  1  0
  1 35  1  0
  1 36  1  0
  2 37  1  0
  2 38  1  0
  3 39  1  0
  4 40  1  0
  7 41  1  0
 11 42  1  0
 11 43  1  0
 12 44  1  0
 12 45  1  0
 15 46  1  0
 16 47  1  0
 17 48  1  0
 18 49  1  0
 20 50  1  0
 20 51  1  0
 21 52  1  0
 21 53  1  0
 24 54  1  0
 24 55  1  0
 26 56  1  0
 27 57  1  0
 30 58  1  0
 31 59  1  0
M  END
$$$$
