
     RDKit          3D

 63 66  0  0  0  0  0  0  0  0999 V2000
    5.7256   -0.4248    2.2210 C   0  0  0  0  0  0  0  0  0  0  0  0
    4.5551   -0.2838    1.2901 C   0  0  0  0  0  0  0  0  0  0  0  0
    3.5261   -1.0645    1.4670 N   0  0  0  0  0  0  0  0  0  0  0  0
    2.4078   -0.9856    0.6305 N   0  0  0  0  0  0  0  0  0  0  0  0
    1.3193   -1.9085    0.9417 C   0  0  0  0  0  0  0  0  0  0  0  0
    0.2716   -1.2560    1.8334 C   0  0  0  0  0  0  0  0  0  0  0  0
   -0.8114   -2.2410    2.2076 C   0  0  0  0  0  0  0  0  0  0  0  0
   -0.7733   -3.4314    1.9177 O   0  0  0  0  0  0  0  0  0  0  0  0
   -1.8320   -1.6650    2.9327 N   0  0  0  0  0  0  0  0  0  0  0  0
   -3.0155   -2.4085    3.3028 C   0  0  0  0  0  0  0  0  0  0  0  0
   -4.1469   -2.1255    2.3495 C   0  0  0  0  0  0  0  0  0  0  0  0
   -4.1956   -2.7607    1.1014 C   0  0  0  0  0  0  0  0  0  0  0  0
   -5.2307   -2.4917    0.1986 C   0  0  0  0  0  0  0  0  0  0  0  0
   -6.2292   -1.5779    0.5285 C   0  0  0  0  0  0  0  0  0  0  0  0
   -7.2972   -1.2246   -0.2469 O   0  0  0  0  0  0  0  0  0  0  0  0
   -7.3576   -1.6837   -1.6014 C   0  0  0  0  0  0  0  0  0  0  0  0
   -8.0759   -3.0287   -1.6627 C   0  0  0  0  0  0  0  0  0  0  0  0
   -8.1472   -0.6362   -2.3838 C   0  0  0  0  0  0  0  0  0  0  0  0
   -6.1835   -0.9430    1.7723 C   0  0  0  0  0  0  0  0  0  0  0  0
   -5.1505   -1.2071    2.6757 C   0  0  0  0  0  0  0  0  0  0  0  0
    2.2409   -0.0552   -0.4166 C   0  0  0  0  0  0  0  0  0  0  0  0
    1.2168    0.0303   -1.0915 O   0  0  0  0  0  0  0  0  0  0  0  0
    3.4082    0.7972   -0.6005 C   0  0  0  0  0  0  0  0  0  0  0  0
    3.5662    1.7331   -1.5383 N   0  0  0  0  0  0  0  0  0  0  0  0
    4.7714    2.3062   -1.2702 N   0  0  0  0  0  0  0  0  0  0  0  0
    5.1371    3.4904   -1.9841 C   0  0  0  0  0  0  0  0  0  0  0  0
    6.1419    4.3576   -1.5385 C   0  0  0  0  0  0  0  0  0  0  0  0
    6.4581    5.5085   -2.2697 C   0  0  0  0  0  0  0  0  0  0  0  0
    5.7680    5.8107   -3.4411 C   0  0  0  0  0  0  0  0  0  0  0  0
    4.7496    4.9704   -3.8804 C   0  0  0  0  0  0  0  0  0  0  0  0
    4.4296    3.8210   -3.1536 C   0  0  0  0  0  0  0  0  0  0  0  0
    5.4572    1.5865   -0.2829 C   0  0  0  0  0  0  0  0  0  0  0  0
    6.8936    1.7656    0.0520 C   0  0  0  0  0  0  0  0  0  0  0  0
    4.5358    0.6820    0.2188 C   0  0  0  0  0  0  0  0  0  0  0  0
    6.5519   -0.9116    1.6962 H   0  0  0  0  0  0  0  0  0  0  0  0
    6.0439    0.5566    2.5821 H   0  0  0  0  0  0  0  0  0  0  0  0
    5.4529   -1.0407    3.0833 H   0  0  0  0  0  0  0  0  0  0  0  0
    0.8607   -2.2409    0.0024 H   0  0  0  0  0  0  0  0  0  0  0  0
    1.7483   -2.7968    1.4216 H   0  0  0  0  0  0  0  0  0  0  0  0
   -0.1869   -0.4021    1.3216 H   0  0  0  0  0  0  0  0  0  0  0  0
    0.7356   -0.8859    2.7554 H   0  0  0  0  0  0  0  0  0  0  0  0
   -1.8918   -0.6559    2.9669 H   0  0  0  0  0  0  0  0  0  0  0  0
   -3.2854   -2.0998    4.3187 H   0  0  0  0  0  0  0  0  0  0  0  0
   -2.8072   -3.4839    3.3352 H   0  0  0  0  0  0  0  0  0  0  0  0
   -3.4195   -3.4733    0.8238 H   0  0  0  0  0  0  0  0  0  0  0  0
   -5.2236   -3.0221   -0.7469 H   0  0  0  0  0  0  0  0  0  0  0  0
   -6.3624   -1.7442   -2.0562 H   0  0  0  0  0  0  0  0  0  0  0  0
   -7.5401   -3.7930   -1.0907 H   0  0  0  0  0  0  0  0  0  0  0  0
   -9.0769   -2.9563   -1.2218 H   0  0  0  0  0  0  0  0  0  0  0  0
   -8.1733   -3.3777   -2.6954 H   0  0  0  0  0  0  0  0  0  0  0  0
   -8.2447   -0.9160   -3.4372 H   0  0  0  0  0  0  0  0  0  0  0  0
   -7.6481    0.3371   -2.3265 H   0  0  0  0  0  0  0  0  0  0  0  0
   -9.1491   -0.5009   -1.9614 H   0  0  0  0  0  0  0  0  0  0  0  0
   -6.9612   -0.2312    2.0385 H   0  0  0  0  0  0  0  0  0  0  0  0
   -5.1414   -0.6917    3.6329 H   0  0  0  0  0  0  0  0  0  0  0  0
    6.6712    4.2051   -0.6064 H   0  0  0  0  0  0  0  0  0  0  0  0
    7.2371    6.1793   -1.9149 H   0  0  0  0  0  0  0  0  0  0  0  0
    6.0144    6.7071   -4.0044 H   0  0  0  0  0  0  0  0  0  0  0  0
    4.1985    5.2070   -4.7870 H   0  0  0  0  0  0  0  0  0  0  0  0
    3.6267    3.1829   -3.5214 H   0  0  0  0  0  0  0  0  0  0  0  0
    7.3389    0.8227    0.3813 H   0  0  0  0  0  0  0  0  0  0  0  0
    7.0169    2.4939    0.8590 H   0  0  0  0  0  0  0  0  0  0  0  0
    7.4811    2.0763   -0.8169 H   0  0  0  0  0  0  0  0  0  0  0  0
  1  2  1  0
  2  3  2  0
  3  4  1  0
  4  5  1  0
  5  6  1  0
  6  7  1  0
  7  8  2  0
  7  9  1  0
  9 10  1  0
 10 11  1  0
 11 12  2  0
 12 13  1  0
 13 14  2  0
 14 15  1  0
 15 16  1  0
 16 17  1  0
 16 18  1  0
 14 19  1  0
 19 20  2  0
  4 21  1  0
 21 22  2  0
 21 23  1  0
 23 24  2  0
 24 25  1  0
 25 26  1  0
 26 27  2  0
 27 28  1  0
 28 29  2  0
 29 30  1  0
 30 31  2  0
 25 32  1  0
 32 33  1  0
 32 34  2  0
 34  2  1  0
 20 11  1  0
 34 23  1  0
 31 26  1  0
  1 35  1  0
  1 36  1  0
  1 37  1  0
  5 38  1  0
  5 39  1  0
  6 40  1  0
  6 41  1  0
  9 42  1  0
 10 43  1  0
 10 44  1  0
 12 45  1  0
 13 46  1  0
 16 47  1  0
 17 48  1  0
 17 49  1  0
 17 50  1  0
 18 51  1  0
 18 52  1  0
 18 53  1  0
 19 54  1  0
 20 55  1  0
 27 56  1  0
 28 57  1  0
 29 58  1  0
 30 59  1  0
 31 60  1  0
 33 61  1  0
 33 62  1  0
 33 63  1  0
M  END
$$$$
