
     RDKit          3D

 47 48  0  0  0  0  0  0  0  0999 V2000
    3.2585    3.2843    4.4579 C   0  0  0  0  0  0  0  0  0  0  0  0
    3.6953    1.9054    4.0007 C   0  0  0  0  0  0  0  0  0  0  0  0
    3.4180    1.7377    2.6015 O   0  0  0  0  0  0  0  0  0  0  0  0
    2.1741    1.2944    2.2847 C   0  0  0  0  0  0  0  0  0  0  0  0
    1.2931    1.0413    3.0945 O   0  0  0  0  0  0  0  0  0  0  0  0
    2.0248    1.1636    0.8071 C   0  0  0  0  0  0  0  0  0  0  0  0
    3.1437    1.4435   -0.0210 C   0  0  0  0  0  0  0  0  0  0  0  0
    4.0503    1.6782   -0.7080 N   0  0  0  0  0  0  0  0  0  0  0  0
    0.8242    0.7452    0.3557 C   0  0  0  0  0  0  0  0  0  0  0  0
    0.3330    0.5115   -1.0101 C   0  0  0  0  0  0  0  0  0  0  0  0
   -0.7120   -0.3298   -1.2490 C   0  0  0  0  0  0  0  0  0  0  0  0
   -1.2594   -1.1393   -0.2314 N   0  0  0  0  0  0  0  0  0  0  0  0
   -2.6886   -1.1437    0.1328 C   0  0  0  0  0  0  0  0  0  0  0  0
   -2.8727   -1.7415    1.5363 C   0  0  0  0  0  0  0  0  0  0  0  0
   -2.4415   -3.1083    1.6333 O   0  0  0  0  0  0  0  0  0  0  0  0
   -1.3879   -3.4354    0.7139 C   0  0  0  0  0  0  0  0  0  0  0  0
   -0.4767   -2.2464    0.3731 C   0  0  0  0  0  0  0  0  0  0  0  0
   -1.2753   -0.4986   -2.6965 C   0  0  0  0  0  0  0  0  0  0  0  0
   -1.3318   -1.9815   -3.0986 C   0  0  0  0  0  0  0  0  0  0  0  0
   -2.6703    0.1279   -2.8662 C   0  0  0  0  0  0  0  0  0  0  0  0
   -0.4086    0.0924   -3.6914 O   0  0  0  0  0  0  0  0  0  0  0  0
    0.0354    1.3962   -3.3477 C   0  0  0  0  0  0  0  0  0  0  0  0
    0.9483    1.3077   -2.1383 C   0  0  0  0  0  0  0  0  0  0  0  0
    3.7389    4.0600    3.8525 H   0  0  0  0  0  0  0  0  0  0  0  0
    2.1778    3.4131    4.3410 H   0  0  0  0  0  0  0  0  0  0  0  0
    3.5177    3.4450    5.5081 H   0  0  0  0  0  0  0  0  0  0  0  0
    4.7779    1.8011    4.1266 H   0  0  0  0  0  0  0  0  0  0  0  0
    3.2238    1.1161    4.5972 H   0  0  0  0  0  0  0  0  0  0  0  0
    0.0623    0.5284    1.1091 H   0  0  0  0  0  0  0  0  0  0  0  0
   -3.2477   -1.7488   -0.5881 H   0  0  0  0  0  0  0  0  0  0  0  0
   -3.0811   -0.1212    0.1199 H   0  0  0  0  0  0  0  0  0  0  0  0
   -2.3111   -1.1611    2.2778 H   0  0  0  0  0  0  0  0  0  0  0  0
   -3.9281   -1.7102    1.8248 H   0  0  0  0  0  0  0  0  0  0  0  0
   -1.8520   -3.8350   -0.1952 H   0  0  0  0  0  0  0  0  0  0  0  0
   -0.8010   -4.2434    1.1621 H   0  0  0  0  0  0  0  0  0  0  0  0
   -0.0024   -1.8819    1.2911 H   0  0  0  0  0  0  0  0  0  0  0  0
    0.3111   -2.5781   -0.3129 H   0  0  0  0  0  0  0  0  0  0  0  0
   -1.6295   -2.0874   -4.1489 H   0  0  0  0  0  0  0  0  0  0  0  0
   -0.3423   -2.4462   -3.0116 H   0  0  0  0  0  0  0  0  0  0  0  0
   -2.0363   -2.5571   -2.4912 H   0  0  0  0  0  0  0  0  0  0  0  0
   -2.7222    1.1238   -2.4127 H   0  0  0  0  0  0  0  0  0  0  0  0
   -3.4605   -0.4797   -2.4180 H   0  0  0  0  0  0  0  0  0  0  0  0
   -2.9122    0.2525   -3.9284 H   0  0  0  0  0  0  0  0  0  0  0  0
   -0.8123    2.0676   -3.1736 H   0  0  0  0  0  0  0  0  0  0  0  0
    0.5916    1.7976   -4.2013 H   0  0  0  0  0  0  0  0  0  0  0  0
    1.1856    2.3296   -1.8217 H   0  0  0  0  0  0  0  0  0  0  0  0
    1.8781    0.8104   -2.4397 H   0  0  0  0  0  0  0  0  0  0  0  0
  1  2  1  0
  2  3  1  0
  3  4  1  0
  4  5  2  0
  4  6  1  0
  6  7  1  0
  7  8  3  0
  6  9  2  3
  9 10  1  0
 10 11  2  0
 11 12  1  0
 12 13  1  0
 13 14  1  0
 14 15  1  0
 15 16  1  0
 16 17  1  0
 11 18  1  0
 18 19  1  0
 18 20  1  0
 18 21  1  0
 21 22  1  0
 22 23  1  0
 23 10  1  0
 17 12  1  0
  1 24  1  0
  1 25  1  0
  1 26  1  0
  2 27  1  0
  2 28  1  0
  9 29  1  0
 13 30  1  0
 13 31  1  0
 14 32  1  0
 14 33  1  0
 16 34  1  0
 16 35  1  0
 17 36  1  0
 17 37  1  0
 19 38  1  0
 19 39  1  0
 19 40  1  0
 20 41  1  0
 20 42  1  0
 20 43  1  0
 22 44  1  0
 22 45  1  0
 23 46  1  0
 23 47  1  0
M  END
$$$$
