
     RDKit          3D

 32 33  0  0  0  0  0  0  0  0999 V2000
   -4.2933   -1.5615    1.0450 C   0  0  0  0  0  0  0  0  0  0  0  0
   -3.1866   -0.5313    0.8784 C   0  0  0  0  0  0  0  0  0  0  0  0
   -3.4179    0.3404   -0.3559 C   0  0  0  0  0  0  0  0  0  0  0  0
   -2.3623    1.4390   -0.5327 C   0  0  0  0  0  0  0  0  0  0  0  0
   -1.0239    0.9195   -0.8163 N   0  0  0  0  0  0  0  0  0  0  0  0
   -0.7333    0.3695   -2.0259 C   0  0  0  0  0  0  0  0  0  0  0  0
   -1.4446    0.2340   -3.0002 O   0  0  0  0  0  0  0  0  0  0  0  0
    0.7237   -0.0694   -1.9490 C   0  0  0  0  0  0  0  0  0  0  0  0
    1.2898   -0.6095   -2.8797 O   0  0  0  0  0  0  0  0  0  0  0  0
    1.1609    0.3106   -0.7042 N   0  0  0  0  0  0  0  0  0  0  0  0
    2.5134    0.1145   -0.2870 C   0  0  0  0  0  0  0  0  0  0  0  0
    3.2464   -0.9921   -0.7503 C   0  0  0  0  0  0  0  0  0  0  0  0
    4.5745   -1.2020   -0.3629 C   0  0  0  0  0  0  0  0  0  0  0  0
    5.2032   -0.3013    0.4881 C   0  0  0  0  0  0  0  0  0  0  0  0
    4.5062    0.8123    0.9423 C   0  0  0  0  0  0  0  0  0  0  0  0
    3.1771    1.0198    0.5534 C   0  0  0  0  0  0  0  0  0  0  0  0
    0.0958    0.8834    0.0059 C   0  0  0  0  0  0  0  0  0  0  0  0
    0.0726    1.3832    1.6089 S   0  0  0  0  0  0  0  0  0  0  0  0
   -4.1090   -2.1751    1.9324 H   0  0  0  0  0  0  0  0  0  0  0  0
   -5.2671   -1.0759    1.1642 H   0  0  0  0  0  0  0  0  0  0  0  0
   -4.3442   -2.2263    0.1768 H   0  0  0  0  0  0  0  0  0  0  0  0
   -2.2284   -1.0560    0.7974 H   0  0  0  0  0  0  0  0  0  0  0  0
   -3.1457    0.0962    1.7757 H   0  0  0  0  0  0  0  0  0  0  0  0
   -3.4524   -0.2958   -1.2483 H   0  0  0  0  0  0  0  0  0  0  0  0
   -4.4007    0.8213   -0.2747 H   0  0  0  0  0  0  0  0  0  0  0  0
   -2.6543    2.0572   -1.3908 H   0  0  0  0  0  0  0  0  0  0  0  0
   -2.3483    2.0944    0.3424 H   0  0  0  0  0  0  0  0  0  0  0  0
    2.7957   -1.7354   -1.4048 H   0  0  0  0  0  0  0  0  0  0  0  0
    5.1135   -2.0723   -0.7298 H   0  0  0  0  0  0  0  0  0  0  0  0
    6.2355   -0.4613    0.7882 H   0  0  0  0  0  0  0  0  0  0  0  0
    4.9980    1.5323    1.5923 H   0  0  0  0  0  0  0  0  0  0  0  0
    2.7058    1.9376    0.8909 H   0  0  0  0  0  0  0  0  0  0  0  0
  1  2  1  0
  2  3  1  0
  3  4  1  0
  4  5  1  0
  5  6  1  0
  6  7  2  0
  6  8  1  0
  8  9  2  0
  8 10  1  0
 10 11  1  0
 11 12  2  0
 12 13  1  0
 13 14  2  0
 14 15  1  0
 15 16  2  0
 10 17  1  0
 17 18  2  0
 17  5  1  0
 16 11  1  0
  1 19  1  0
  1 20  1  0
  1 21  1  0
  2 22  1  0
  2 23  1  0
  3 24  1  0
  3 25  1  0
  4 26  1  0
  4 27  1  0
 12 28  1  0
 13 29  1  0
 14 30  1  0
 15 31  1  0
 16 32  1  0
M  END
$$$$
