
     RDKit          3D

 19 19  0  0  0  0  0  0  0  0999 V2000
   -2.8495   -0.0804   -1.9361 C   0  0  0  0  0  0  0  0  0  0  0  0
   -1.7966   -0.7646   -1.0761 C   0  0  0  0  0  0  0  0  0  0  0  0
   -1.8227   -0.2275    0.3536 C   0  0  0  0  0  0  0  0  0  0  0  0
   -0.5993   -1.0656    1.4065 S   0  0  0  0  0  0  0  0  0  0  0  0
    0.8855   -0.2809    0.9169 C   0  0  0  0  0  0  0  0  0  0  0  0
    0.9176    0.7799    0.1413 N   0  0  0  0  0  0  0  0  0  0  0  0
    2.2102    1.2052   -0.0983 N   0  0  0  0  0  0  0  0  0  0  0  0
    3.1039    0.4575    0.5089 C   0  0  0  0  0  0  0  0  0  0  0  0
    4.4348    0.6588    0.4505 N   0  0  0  0  0  0  0  0  0  0  0  0
    2.4271   -0.8252    1.4291 S   0  0  0  0  0  0  0  0  0  0  0  0
   -3.8539   -0.2469   -1.5338 H   0  0  0  0  0  0  0  0  0  0  0  0
   -2.6732    0.9989   -1.9866 H   0  0  0  0  0  0  0  0  0  0  0  0
   -2.8221   -0.4772   -2.9557 H   0  0  0  0  0  0  0  0  0  0  0  0
   -1.9879   -1.8446   -1.0792 H   0  0  0  0  0  0  0  0  0  0  0  0
   -0.8146   -0.6057   -1.5358 H   0  0  0  0  0  0  0  0  0  0  0  0
   -1.6682    0.8564    0.3771 H   0  0  0  0  0  0  0  0  0  0  0  0
   -2.8080   -0.4161    0.7942 H   0  0  0  0  0  0  0  0  0  0  0  0
    4.9965    0.2974    1.2123 H   0  0  0  0  0  0  0  0  0  0  0  0
    4.7205    1.5806    0.1363 H   0  0  0  0  0  0  0  0  0  0  0  0
  1  2  1  0
  2  3  1  0
  3  4  1  0
  4  5  1  0
  5  6  2  0
  6  7  1  0
  7  8  2  0
  8  9  1  0
  8 10  1  0
 10  5  1  0
  1 11  1  0
  1 12  1  0
  1 13  1  0
  2 14  1  0
  2 15  1  0
  3 16  1  0
  3 17  1  0
  9 18  1  0
  9 19  1  0
M  END
$$$$
