
     RDKit          3D

 52 51  0  0  0  0  0  0  0  0999 V2000
   -6.9616   -1.0141   -2.1693 C   0  0  0  0  0  0  0  0  0  0  0  0
   -6.2666   -0.1242   -1.7586 C   0  0  0  0  0  0  0  0  0  0  0  0
   -5.4241    0.9718   -1.2721 C   0  0  0  0  0  0  0  0  0  0  0  0
   -4.7277    0.6277    0.0703 N   0  0  0  0  0  4  0  0  0  0  0  0
   -3.9302    1.8609    0.4769 C   0  0  0  0  0  0  0  0  0  0  0  0
   -5.7930    0.3527    1.1307 C   0  0  0  0  0  0  0  0  0  0  0  0
   -3.8132   -0.6007   -0.1413 C   0  0  0  0  0  0  0  0  0  0  0  0
   -2.9266   -0.9516    1.0617 C   0  0  0  0  0  0  0  0  0  0  0  0
   -1.4848   -0.4314    0.9704 C   0  0  0  0  0  0  0  0  0  0  0  0
   -0.6431   -1.1836   -0.0666 C   0  0  0  0  0  0  0  0  0  0  0  0
    0.7752   -0.6218   -0.2177 C   0  0  0  0  0  0  0  0  0  0  0  0
    1.6300   -0.7835    1.0420 C   0  0  0  0  0  0  0  0  0  0  0  0
    3.1051   -0.4284    0.8207 C   0  0  0  0  0  0  0  0  0  0  0  0
    3.3245    1.0428    0.4678 C   0  0  0  0  0  0  0  0  0  0  0  0
    4.7940    1.4804    0.4902 C   0  0  0  0  0  0  0  0  0  0  0  0
    5.6797    0.8011   -0.5600 C   0  0  0  0  0  0  0  0  0  0  0  0
    6.4553   -0.3963   -0.0066 C   0  0  0  0  0  0  0  0  0  0  0  0
    7.3263   -1.0351   -1.0776 C   0  0  0  0  0  0  0  0  0  0  0  0
   -7.5827   -1.7973   -2.5455 H   0  0  0  0  0  0  0  0  0  0  0  0
   -4.6329    1.2095   -1.9923 H   0  0  0  0  0  0  0  0  0  0  0  0
   -6.0237    1.8738   -1.1036 H   0  0  0  0  0  0  0  0  0  0  0  0
   -3.1527    2.0336   -0.2727 H   0  0  0  0  0  0  0  0  0  0  0  0
   -3.4928    1.6951    1.4645 H   0  0  0  0  0  0  0  0  0  0  0  0
   -4.6116    2.7164    0.5215 H   0  0  0  0  0  0  0  0  0  0  0  0
   -6.5158    1.1743    1.1163 H   0  0  0  0  0  0  0  0  0  0  0  0
   -6.2842   -0.5984    0.9089 H   0  0  0  0  0  0  0  0  0  0  0  0
   -5.3148    0.3061    2.1121 H   0  0  0  0  0  0  0  0  0  0  0  0
   -3.2223   -0.4035   -1.0413 H   0  0  0  0  0  0  0  0  0  0  0  0
   -4.4767   -1.4486   -0.3445 H   0  0  0  0  0  0  0  0  0  0  0  0
   -2.8807   -2.0457    1.1415 H   0  0  0  0  0  0  0  0  0  0  0  0
   -3.3670   -0.6076    2.0018 H   0  0  0  0  0  0  0  0  0  0  0  0
   -1.4721    0.6403    0.7512 H   0  0  0  0  0  0  0  0  0  0  0  0
   -1.0270   -0.5564    1.9585 H   0  0  0  0  0  0  0  0  0  0  0  0
   -1.1278   -1.1332   -1.0477 H   0  0  0  0  0  0  0  0  0  0  0  0
   -0.5894   -2.2456    0.2023 H   0  0  0  0  0  0  0  0  0  0  0  0
    0.7129    0.4358   -0.4987 H   0  0  0  0  0  0  0  0  0  0  0  0
    1.2618   -1.1441   -1.0507 H   0  0  0  0  0  0  0  0  0  0  0  0
    1.5764   -1.8249    1.3824 H   0  0  0  0  0  0  0  0  0  0  0  0
    1.2309   -0.1629    1.8523 H   0  0  0  0  0  0  0  0  0  0  0  0
    3.5085   -1.0676    0.0275 H   0  0  0  0  0  0  0  0  0  0  0  0
    3.6547   -0.6657    1.7396 H   0  0  0  0  0  0  0  0  0  0  0  0
    2.9061    1.2557   -0.5229 H   0  0  0  0  0  0  0  0  0  0  0  0
    2.7751    1.6690    1.1819 H   0  0  0  0  0  0  0  0  0  0  0  0
    5.2111    1.3498    1.4958 H   0  0  0  0  0  0  0  0  0  0  0  0
    4.8070    2.5600    0.2913 H   0  0  0  0  0  0  0  0  0  0  0  0
    6.4102    1.5383   -0.9178 H   0  0  0  0  0  0  0  0  0  0  0  0
    5.0849    0.5044   -1.4319 H   0  0  0  0  0  0  0  0  0  0  0  0
    5.7732   -1.1530    0.3910 H   0  0  0  0  0  0  0  0  0  0  0  0
    7.0928   -0.0710    0.8240 H   0  0  0  0  0  0  0  0  0  0  0  0
    8.0532   -0.3181   -1.4723 H   0  0  0  0  0  0  0  0  0  0  0  0
    6.7176   -1.4021   -1.9102 H   0  0  0  0  0  0  0  0  0  0  0  0
    7.8784   -1.8834   -0.6608 H   0  0  0  0  0  0  0  0  0  0  0  0
  1  2  3  0
  2  3  1  0
  3  4  1  0
  4  5  1  0
  4  6  1  0
  4  7  1  0
  7  8  1  0
  8  9  1  0
  9 10  1  0
 10 11  1  0
 11 12  1  0
 12 13  1  0
 13 14  1  0
 14 15  1  0
 15 16  1  0
 16 17  1  0
 17 18  1  0
  1 19  1  0
  3 20  1  0
  3 21  1  0
  5 22  1  0
  5 23  1  0
  5 24  1  0
  6 25  1  0
  6 26  1  0
  6 27  1  0
  7 28  1  0
  7 29  1  0
  8 30  1  0
  8 31  1  0
  9 32  1  0
  9 33  1  0
 10 34  1  0
 10 35  1  0
 11 36  1  0
 11 37  1  0
 12 38  1  0
 12 39  1  0
 13 40  1  0
 13 41  1  0
 14 42  1  0
 14 43  1  0
 15 44  1  0
 15 45  1  0
 16 46  1  0
 16 47  1  0
 17 48  1  0
 17 49  1  0
 18 50  1  0
 18 51  1  0
 18 52  1  0
M  CHG  1   4   1
M  END
$$$$
