
     RDKit          3D

 24 25  0  0  0  0  0  0  0  0999 V2000
    4.4857   -1.1354    1.0680 C   0  0  0  0  0  0  0  0  0  0  0  0
    2.6992   -0.8590    1.0746 S   0  0  0  0  0  0  0  0  0  0  0  0
    2.4536   -0.2287   -0.5212 C   0  0  0  0  0  0  0  0  0  0  0  0
    3.4293   -0.0384   -1.3835 N   0  0  0  0  0  0  0  0  0  0  0  0
    2.8723    0.5701   -2.4668 N   0  0  0  0  0  0  0  0  0  0  0  0
    1.5769    0.7627   -2.2889 N   0  0  0  0  0  0  0  0  0  0  0  0
    1.2599    0.2290   -1.0740 N   0  0  0  0  0  0  0  0  0  0  0  0
   -0.1000    0.2326   -0.6414 C   0  0  0  0  0  0  0  0  0  0  0  0
   -0.5499   -0.4775    0.4745 C   0  0  0  0  0  0  0  0  0  0  0  0
   -1.9002   -0.4358    0.8490 C   0  0  0  0  0  0  0  0  0  0  0  0
   -2.8343    0.3087    0.1175 C   0  0  0  0  0  0  0  0  0  0  0  0
   -4.2729    0.3277    0.5510 C   0  0  0  0  0  0  0  0  0  0  0  0
   -2.3880    1.0087   -1.0092 C   0  0  0  0  0  0  0  0  0  0  0  0
   -3.4714    1.9459   -1.9755 Cl  0  0  0  0  0  0  0  0  0  0  0  0
   -1.0405    0.9689   -1.3868 C   0  0  0  0  0  0  0  0  0  0  0  0
    5.0217   -0.1955    0.9090 H   0  0  0  0  0  0  0  0  0  0  0  0
    4.7633   -1.8510    0.2890 H   0  0  0  0  0  0  0  0  0  0  0  0
    4.7881   -1.5450    2.0356 H   0  0  0  0  0  0  0  0  0  0  0  0
    0.0936   -1.1066    1.0770 H   0  0  0  0  0  0  0  0  0  0  0  0
   -2.2178   -1.0031    1.7233 H   0  0  0  0  0  0  0  0  0  0  0  0
   -4.4264   -0.2676    1.4575 H   0  0  0  0  0  0  0  0  0  0  0  0
   -4.5913    1.3510    0.7747 H   0  0  0  0  0  0  0  0  0  0  0  0
   -4.9127   -0.0940   -0.2308 H   0  0  0  0  0  0  0  0  0  0  0  0
   -0.7384    1.5323   -2.2692 H   0  0  0  0  0  0  0  0  0  0  0  0
  1  2  1  0
  2  3  1  0
  3  4  2  0
  4  5  1  0
  5  6  2  0
  6  7  1  0
  7  8  1  0
  8  9  2  0
  9 10  1  0
 10 11  2  0
 11 12  1  0
 11 13  1  0
 13 14  1  0
 13 15  2  0
  7  3  1  0
 15  8  1  0
  1 16  1  0
  1 17  1  0
  1 18  1  0
  9 19  1  0
 10 20  1  0
 12 21  1  0
 12 22  1  0
 12 23  1  0
 15 24  1  0
M  END
$$$$
