
     RDKit          3D

 46 48  0  0  0  0  0  0  0  0999 V2000
    4.3991    0.0972   -3.3280 C   0  0  0  0  0  0  0  0  0  0  0  0
    3.3672    0.7570   -2.4269 C   0  0  0  0  0  0  0  0  0  0  0  0
    2.0300   -0.0192   -2.3024 N   0  0  0  0  0  4  0  0  0  0  0  0
    1.3423   -0.1149   -3.6605 C   0  0  0  0  0  0  0  0  0  0  0  0
    2.2848   -1.4233   -1.7531 C   0  0  0  0  0  0  0  0  0  0  0  0
    1.1558    0.7973   -1.3034 C   0  0  0  0  0  0  0  0  0  0  0  0
   -0.2867    0.2944   -1.1516 C   0  0  0  0  0  0  0  0  0  0  0  0
   -1.0054    0.9953   -0.0245 C   0  0  0  0  0  0  0  0  0  0  0  0
   -1.4156    0.4849    1.1606 C   0  0  0  0  0  0  0  0  0  0  0  0
   -2.3403    1.3121    1.9849 C   0  0  0  0  0  0  0  0  0  0  0  0
   -2.0745    2.6566    2.2872 C   0  0  0  0  0  0  0  0  0  0  0  0
   -2.9687    3.3960    3.0639 C   0  0  0  0  0  0  0  0  0  0  0  0
   -4.1301    2.8001    3.5508 C   0  0  0  0  0  0  0  0  0  0  0  0
   -4.3974    1.4591    3.2729 C   0  0  0  0  0  0  0  0  0  0  0  0
   -3.5040    0.7059    2.5021 C   0  0  0  0  0  0  0  0  0  0  0  0
   -3.8902   -1.0206    2.1938 S   0  0  0  0  0  0  0  0  0  0  0  0
   -2.2449   -1.7059    2.0137 C   0  0  0  0  0  0  0  0  0  0  0  0
   -2.0363   -3.0466    2.3640 C   0  0  0  0  0  0  0  0  0  0  0  0
   -0.7587   -3.6060    2.2872 C   0  0  0  0  0  0  0  0  0  0  0  0
    0.3137   -2.8167    1.8846 C   0  0  0  0  0  0  0  0  0  0  0  0
    1.8944   -3.4878    1.7857 Cl  0  0  0  0  0  0  0  0  0  0  0  0
    0.1206   -1.4800    1.5396 C   0  0  0  0  0  0  0  0  0  0  0  0
   -1.1666   -0.9264    1.5518 C   0  0  0  0  0  0  0  0  0  0  0  0
    4.0464   -0.0104   -4.3566 H   0  0  0  0  0  0  0  0  0  0  0  0
    5.2985    0.7220   -3.3630 H   0  0  0  0  0  0  0  0  0  0  0  0
    4.7085   -0.8827   -2.9554 H   0  0  0  0  0  0  0  0  0  0  0  0
    3.1214    1.7545   -2.8094 H   0  0  0  0  0  0  0  0  0  0  0  0
    3.7701    0.8606   -1.4127 H   0  0  0  0  0  0  0  0  0  0  0  0
    1.1608    0.8988   -4.0279 H   0  0  0  0  0  0  0  0  0  0  0  0
    1.9852   -0.6694   -4.3477 H   0  0  0  0  0  0  0  0  0  0  0  0
    0.4031   -0.6614   -3.5435 H   0  0  0  0  0  0  0  0  0  0  0  0
    1.3299   -1.9354   -1.6209 H   0  0  0  0  0  0  0  0  0  0  0  0
    2.8113   -1.3306   -0.7994 H   0  0  0  0  0  0  0  0  0  0  0  0
    2.8834   -1.9828   -2.4760 H   0  0  0  0  0  0  0  0  0  0  0  0
    1.1475    1.8323   -1.6679 H   0  0  0  0  0  0  0  0  0  0  0  0
    1.6859    0.7769   -0.3438 H   0  0  0  0  0  0  0  0  0  0  0  0
   -0.8479    0.5091   -2.0693 H   0  0  0  0  0  0  0  0  0  0  0  0
   -0.3316   -0.7888   -1.0291 H   0  0  0  0  0  0  0  0  0  0  0  0
   -1.3055    2.0146   -0.2775 H   0  0  0  0  0  0  0  0  0  0  0  0
   -1.1679    3.1397    1.9335 H   0  0  0  0  0  0  0  0  0  0  0  0
   -2.7590    4.4381    3.2948 H   0  0  0  0  0  0  0  0  0  0  0  0
   -4.8263    3.3772    4.1556 H   0  0  0  0  0  0  0  0  0  0  0  0
   -5.3039    1.0065    3.6694 H   0  0  0  0  0  0  0  0  0  0  0  0
   -2.8653   -3.6609    2.7115 H   0  0  0  0  0  0  0  0  0  0  0  0
   -0.6102   -4.6475    2.5629 H   0  0  0  0  0  0  0  0  0  0  0  0
    0.9772   -0.8687    1.2799 H   0  0  0  0  0  0  0  0  0  0  0  0
  1  2  1  0
  2  3  1  0
  3  4  1  0
  3  5  1  0
  3  6  1  0
  6  7  1  0
  7  8  1  0
  8  9  2  3
  9 10  1  0
 10 11  2  0
 11 12  1  0
 12 13  2  0
 13 14  1  0
 14 15  2  0
 15 16  1  0
 16 17  1  0
 17 18  2  0
 18 19  1  0
 19 20  2  0
 20 21  1  0
 20 22  1  0
 22 23  2  0
 23  9  1  0
 15 10  1  0
 23 17  1  0
  1 24  1  0
  1 25  1  0
  1 26  1  0
  2 27  1  0
  2 28  1  0
  4 29  1  0
  4 30  1  0
  4 31  1  0
  5 32  1  0
  5 33  1  0
  5 34  1  0
  6 35  1  0
  6 36  1  0
  7 37  1  0
  7 38  1  0
  8 39  1  0
 11 40  1  0
 12 41  1  0
 13 42  1  0
 14 43  1  0
 18 44  1  0
 19 45  1  0
 22 46  1  0
M  CHG  1   3   1
M  END
$$$$
