
     RDKit          3D

 43 45  0  0  0  0  0  0  0  0999 V2000
    1.5612   -2.2820    1.4143 O   0  0  0  0  0  0  0  0  0  0  0  0
    1.8801   -1.4536    0.5629 C   0  0  0  0  0  0  0  0  0  0  0  0
    3.3461   -1.3137    0.1569 C   0  0  0  0  0  0  0  0  0  0  0  0
    3.7530    0.3591   -0.4630 S   0  0  0  0  0  0  0  0  0  0  0  0
    5.5417    0.3724   -0.3962 C   0  0  0  0  0  0  0  0  0  0  0  0
    6.1580    1.6185   -0.2092 C   0  0  0  0  0  0  0  0  0  0  0  0
    7.5511    1.7303   -0.1594 C   0  0  0  0  0  0  0  0  0  0  0  0
    8.3489    0.5975   -0.3038 C   0  0  0  0  0  0  0  0  0  0  0  0
    7.7525   -0.6453   -0.5004 C   0  0  0  0  0  0  0  0  0  0  0  0
    6.3628   -0.7505   -0.5508 C   0  0  0  0  0  0  0  0  0  0  0  0
    5.8410   -1.9659   -0.7670 F   0  0  0  0  0  0  0  0  0  0  0  0
    1.0077   -0.6469   -0.1439 N   0  0  0  0  0  0  0  0  0  0  0  0
   -0.3955   -0.5945   -0.0551 C   0  0  0  0  0  0  0  0  0  0  0  0
   -1.0495    0.3881   -0.8004 C   0  0  0  0  0  0  0  0  0  0  0  0
   -2.4477    0.5069   -0.7687 C   0  0  0  0  0  0  0  0  0  0  0  0
   -3.2407   -0.3504    0.0017 C   0  0  0  0  0  0  0  0  0  0  0  0
   -4.6363   -0.2767    0.0627 N   0  0  0  0  0  0  0  0  0  0  0  0
   -5.1775   -0.1900    1.4444 C   0  0  0  0  0  0  0  0  0  0  0  0
   -6.6452    0.2693    1.4341 C   0  0  0  0  0  0  0  0  0  0  0  0
   -6.8375    1.5527    0.8179 O   0  0  0  0  0  0  0  0  0  0  0  0
   -5.9399    1.7936   -0.2787 C   0  0  0  0  0  0  0  0  0  0  0  0
   -5.4042    0.5083   -0.9243 C   0  0  0  0  0  0  0  0  0  0  0  0
   -2.5615   -1.3389    0.7334 C   0  0  0  0  0  0  0  0  0  0  0  0
   -1.1640   -1.4618    0.7118 C   0  0  0  0  0  0  0  0  0  0  0  0
    3.5386   -2.0531   -0.6253 H   0  0  0  0  0  0  0  0  0  0  0  0
    3.9580   -1.5316    1.0379 H   0  0  0  0  0  0  0  0  0  0  0  0
    5.5580    2.5197   -0.0973 H   0  0  0  0  0  0  0  0  0  0  0  0
    8.0112    2.7054   -0.0108 H   0  0  0  0  0  0  0  0  0  0  0  0
    9.4317    0.6840   -0.2679 H   0  0  0  0  0  0  0  0  0  0  0  0
    8.3598   -1.5373   -0.6229 H   0  0  0  0  0  0  0  0  0  0  0  0
    1.4494    0.0362   -0.7512 H   0  0  0  0  0  0  0  0  0  0  0  0
   -0.4864    1.0870   -1.4135 H   0  0  0  0  0  0  0  0  0  0  0  0
   -2.8862    1.3119   -1.3484 H   0  0  0  0  0  0  0  0  0  0  0  0
   -4.5923    0.5368    2.0232 H   0  0  0  0  0  0  0  0  0  0  0  0
   -5.1186   -1.1667    1.9378 H   0  0  0  0  0  0  0  0  0  0  0  0
   -7.0226    0.3391    2.4593 H   0  0  0  0  0  0  0  0  0  0  0  0
   -7.2740   -0.4576    0.9064 H   0  0  0  0  0  0  0  0  0  0  0  0
   -6.4840    2.3898   -1.0174 H   0  0  0  0  0  0  0  0  0  0  0  0
   -5.1150    2.4077    0.0982 H   0  0  0  0  0  0  0  0  0  0  0  0
   -6.2518   -0.1097   -1.2457 H   0  0  0  0  0  0  0  0  0  0  0  0
   -4.8412    0.7313   -1.8350 H   0  0  0  0  0  0  0  0  0  0  0  0
   -3.1218   -2.0608    1.3234 H   0  0  0  0  0  0  0  0  0  0  0  0
   -0.7175   -2.2587    1.2970 H   0  0  0  0  0  0  0  0  0  0  0  0
  1  2  2  0
  2  3  1  0
  3  4  1  0
  4  5  1  0
  5  6  2  0
  6  7  1  0
  7  8  2  0
  8  9  1  0
  9 10  2  0
 10 11  1  0
  2 12  1  0
 12 13  1  0
 13 14  2  0
 14 15  1  0
 15 16  2  0
 16 17  1  0
 17 18  1  0
 18 19  1  0
 19 20  1  0
 20 21  1  0
 21 22  1  0
 16 23  1  0
 23 24  2  0
 10  5  1  0
 24 13  1  0
 22 17  1  0
  3 25  1  0
  3 26  1  0
  6 27  1  0
  7 28  1  0
  8 29  1  0
  9 30  1  0
 12 31  1  0
 14 32  1  0
 15 33  1  0
 18 34  1  0
 18 35  1  0
 19 36  1  0
 19 37  1  0
 21 38  1  0
 21 39  1  0
 22 40  1  0
 22 41  1  0
 23 42  1  0
 24 43  1  0
M  END
$$$$
