
     RDKit          3D

 38 41  0  0  0  0  0  0  0  0999 V2000
   -4.2810    0.6054    1.0532 C   0  0  0  0  0  0  0  0  0  0  0  0
   -3.5486   -0.6864    1.2319 C   0  0  0  0  0  0  0  0  0  0  0  0
   -4.2078   -1.9129    1.5837 C   0  0  0  0  0  0  0  0  0  0  0  0
   -3.3416   -2.9748    1.6801 C   0  0  0  0  0  0  0  0  0  0  0  0
   -1.7358   -2.5150    1.3532 S   0  0  0  0  0  0  0  0  0  0  0  0
   -2.1748   -0.8707    1.0773 C   0  0  0  0  0  0  0  0  0  0  0  0
   -1.1244    0.1029    0.7451 C   0  0  0  0  0  0  0  0  0  0  0  0
   -1.3532    1.3834    1.1083 N   0  0  0  0  0  0  0  0  0  0  0  0
   -0.3794    2.2707    0.7871 C   0  0  0  0  0  0  0  0  0  0  0  0
   -0.6019    3.6898    1.1802 C   0  0  0  0  0  0  0  0  0  0  0  0
   -1.7640    3.9431    1.8574 N   0  0  0  0  0  0  0  0  0  0  0  0
    0.2026    4.5761    0.9220 O   0  0  0  0  0  0  0  0  0  0  0  0
    0.7577    1.8934    0.1350 C   0  0  0  0  0  0  0  0  0  0  0  0
    1.8666    2.5996   -0.2996 N   0  0  0  0  0  0  0  0  0  0  0  0
    2.7487    1.7091   -0.9252 C   0  0  0  0  0  0  0  0  0  0  0  0
    3.8149    2.0580   -1.4043 O   0  0  0  0  0  0  0  0  0  0  0  0
    2.1400    0.4166   -0.8573 N   0  0  0  0  0  0  0  0  0  0  0  0
    2.6652   -0.8049   -1.3647 C   0  0  0  0  0  0  0  0  0  0  0  0
    2.0378   -2.0478   -1.1741 C   0  0  0  0  0  0  0  0  0  0  0  0
    2.5789   -3.2372   -1.6860 C   0  0  0  0  0  0  0  0  0  0  0  0
    3.7665   -3.2085   -2.4027 C   0  0  0  0  0  0  0  0  0  0  0  0
    4.4308   -4.6637   -3.0306 Cl  0  0  0  0  0  0  0  0  0  0  0  0
    4.4152   -2.0000   -2.6090 C   0  0  0  0  0  0  0  0  0  0  0  0
    3.8683   -0.8154   -2.0941 C   0  0  0  0  0  0  0  0  0  0  0  0
    0.8959    0.5650   -0.1894 C   0  0  0  0  0  0  0  0  0  0  0  0
   -0.0307   -0.3523    0.0992 N   0  0  0  0  0  0  0  0  0  0  0  0
   -5.3635    0.4432    1.0193 H   0  0  0  0  0  0  0  0  0  0  0  0
   -3.9917    1.0925    0.1165 H   0  0  0  0  0  0  0  0  0  0  0  0
   -4.0695    1.2822    1.8870 H   0  0  0  0  0  0  0  0  0  0  0  0
   -5.2741   -2.0085    1.7539 H   0  0  0  0  0  0  0  0  0  0  0  0
   -3.5771   -4.0013    1.9263 H   0  0  0  0  0  0  0  0  0  0  0  0
   -2.3866    3.1854    2.1123 H   0  0  0  0  0  0  0  0  0  0  0  0
   -1.9474    4.8794    2.1910 H   0  0  0  0  0  0  0  0  0  0  0  0
    2.0193    3.5956   -0.1892 H   0  0  0  0  0  0  0  0  0  0  0  0
    1.1147   -2.1511   -0.6160 H   0  0  0  0  0  0  0  0  0  0  0  0
    2.0611   -4.1774   -1.5138 H   0  0  0  0  0  0  0  0  0  0  0  0
    5.3464   -1.9604   -3.1682 H   0  0  0  0  0  0  0  0  0  0  0  0
    4.4224    0.0968   -2.2960 H   0  0  0  0  0  0  0  0  0  0  0  0
  1  2  1  0
  2  3  1  0
  3  4  2  0
  4  5  1  0
  5  6  1  0
  6  7  1  0
  7  8  2  0
  8  9  1  0
  9 10  1  0
 10 11  1  0
 10 12  2  0
  9 13  2  0
 13 14  1  0
 14 15  1  0
 15 16  2  0
 15 17  1  0
 17 18  1  0
 18 19  2  0
 19 20  1  0
 20 21  2  0
 21 22  1  0
 21 23  1  0
 23 24  2  0
 17 25  1  0
 25 26  2  0
  6  2  2  0
 26  7  1  0
 25 13  1  0
 24 18  1  0
  1 27  1  0
  1 28  1  0
  1 29  1  0
  3 30  1  0
  4 31  1  0
 11 32  1  0
 11 33  1  0
 14 34  1  0
 19 35  1  0
 20 36  1  0
 23 37  1  0
 24 38  1  0
M  END
$$$$
