
     RDKit          3D

 60 64  0  0  0  0  0  0  0  0999 V2000
   -2.3102    3.4288   -2.6979 C   0  0  0  0  0  0  0  0  0  0  0  0
   -2.6744    2.1410   -2.1136 N   0  0  0  0  0  0  0  0  0  0  0  0
   -3.9773    2.0152   -1.6295 C   0  0  0  0  0  0  0  0  0  0  0  0
   -4.7934    2.9398   -1.6994 O   0  0  0  0  0  0  0  0  0  0  0  0
   -4.3842    0.7409   -0.9514 C   0  0  0  0  0  0  0  0  0  0  0  0
   -5.3623    0.8285   -0.0294 C   0  0  0  0  0  0  0  0  0  0  0  0
   -5.9398   -0.2881    0.7247 C   0  0  0  0  0  0  0  0  0  0  0  0
   -7.1351   -0.8733    0.2974 C   0  0  0  0  0  0  0  0  0  0  0  0
   -7.6905   -1.9388    1.0107 C   0  0  0  0  0  0  0  0  0  0  0  0
   -7.0555   -2.4372    2.1590 C   0  0  0  0  0  0  0  0  0  0  0  0
   -7.6688   -3.5733    2.9401 C   0  0  0  0  0  0  0  0  0  0  0  0
   -8.5798   -3.1405    3.8543 F   0  0  0  0  0  0  0  0  0  0  0  0
   -6.7525   -4.2990    3.6408 F   0  0  0  0  0  0  0  0  0  0  0  0
   -8.3262   -4.4696    2.1525 F   0  0  0  0  0  0  0  0  0  0  0  0
   -5.8611   -1.8371    2.5870 C   0  0  0  0  0  0  0  0  0  0  0  0
   -5.3055   -0.7721    1.8730 C   0  0  0  0  0  0  0  0  0  0  0  0
   -3.6774   -0.7413   -1.4537 S   0  0  0  0  0  0  0  0  0  0  0  0
   -2.0059   -0.2015   -1.6850 C   0  0  0  0  0  0  0  0  0  0  0  0
   -1.0082   -1.1901   -1.6060 C   0  0  0  0  0  0  0  0  0  0  0  0
    0.3302   -0.8738   -1.8247 C   0  0  0  0  0  0  0  0  0  0  0  0
    0.6769    0.4424   -2.1142 C   0  0  0  0  0  0  0  0  0  0  0  0
    2.0828    0.8228   -2.3813 C   0  0  0  0  0  0  0  0  0  0  0  0
    2.3168    1.4330   -3.4219 O   0  0  0  0  0  0  0  0  0  0  0  0
    3.0628    0.4865   -1.4554 N   0  0  0  0  0  0  0  0  0  0  0  0
    4.4529    0.8250   -1.7664 C   0  0  0  0  0  0  0  0  0  0  0  0
    5.4755   -0.0656   -1.0361 C   0  0  0  0  0  0  0  0  0  0  0  0
    5.2010   -0.1831    0.4089 N   0  0  0  0  0  0  0  0  0  0  0  0
    6.2847   -0.1071    1.2832 C   0  0  0  0  0  0  0  0  0  0  0  0
    7.4824   -0.7668    0.9976 C   0  0  0  0  0  0  0  0  0  0  0  0
    8.5538   -0.6959    1.8880 C   0  0  0  0  0  0  0  0  0  0  0  0
    8.4109    0.0272    3.0603 C   0  0  0  0  0  0  0  0  0  0  0  0
    7.1951    0.6403    3.2897 C   0  0  0  0  0  0  0  0  0  0  0  0
    6.1458    0.5816    2.4383 N   0  0  0  0  0  0  0  0  0  0  0  0
    3.9534    0.4247    0.8943 C   0  0  0  0  0  0  0  0  0  0  0  0
    2.7932    0.0937   -0.0627 C   0  0  0  0  0  0  0  0  0  0  0  0
   -0.3149    1.4262   -2.2268 C   0  0  0  0  0  0  0  0  0  0  0  0
   -1.6709    1.1244   -2.0029 C   0  0  0  0  0  0  0  0  0  0  0  0
   -1.7882    3.2731   -3.6475 H   0  0  0  0  0  0  0  0  0  0  0  0
   -1.6755    3.9754   -1.9934 H   0  0  0  0  0  0  0  0  0  0  0  0
   -3.1863    4.0480   -2.9110 H   0  0  0  0  0  0  0  0  0  0  0  0
   -5.8024    1.7948    0.2132 H   0  0  0  0  0  0  0  0  0  0  0  0
   -7.6398   -0.5059   -0.5942 H   0  0  0  0  0  0  0  0  0  0  0  0
   -8.6231   -2.3821    0.6636 H   0  0  0  0  0  0  0  0  0  0  0  0
   -5.3552   -2.1995    3.4810 H   0  0  0  0  0  0  0  0  0  0  0  0
   -4.3767   -0.3242    2.2194 H   0  0  0  0  0  0  0  0  0  0  0  0
   -1.2746   -2.2236   -1.3890 H   0  0  0  0  0  0  0  0  0  0  0  0
    1.0849   -1.6550   -1.7915 H   0  0  0  0  0  0  0  0  0  0  0  0
    4.5957    1.8734   -1.4757 H   0  0  0  0  0  0  0  0  0  0  0  0
    4.6190    0.7638   -2.8478 H   0  0  0  0  0  0  0  0  0  0  0  0
    6.4724    0.3465   -1.2350 H   0  0  0  0  0  0  0  0  0  0  0  0
    5.4415   -1.0742   -1.4653 H   0  0  0  0  0  0  0  0  0  0  0  0
    7.5855   -1.3592    0.0951 H   0  0  0  0  0  0  0  0  0  0  0  0
    9.4842   -1.2100    1.6664 H   0  0  0  0  0  0  0  0  0  0  0  0
    9.2187    0.1041    3.7785 H   0  0  0  0  0  0  0  0  0  0  0  0
    7.0203    1.2140    4.1952 H   0  0  0  0  0  0  0  0  0  0  0  0
    4.0661    1.5143    0.9697 H   0  0  0  0  0  0  0  0  0  0  0  0
    3.6919    0.0360    1.8864 H   0  0  0  0  0  0  0  0  0  0  0  0
    1.8771    0.5806    0.2870 H   0  0  0  0  0  0  0  0  0  0  0  0
    2.6287   -0.9898   -0.0663 H   0  0  0  0  0  0  0  0  0  0  0  0
    0.0113    2.4315   -2.4808 H   0  0  0  0  0  0  0  0  0  0  0  0
  1  2  1  0
  2  3  1  0
  3  4  2  0
  3  5  1  0
  5  6  2  3
  6  7  1  0
  7  8  2  0
  8  9  1  0
  9 10  2  0
 10 11  1  0
 11 12  1  0
 11 13  1  0
 11 14  1  0
 10 15  1  0
 15 16  2  0
  5 17  1  0
 17 18  1  0
 18 19  2  0
 19 20  1  0
 20 21  2  0
 21 22  1  0
 22 23  2  0
 22 24  1  0
 24 25  1  0
 25 26  1  0
 26 27  1  0
 27 28  1  0
 28 29  2  0
 29 30  1  0
 30 31  2  0
 31 32  1  0
 32 33  2  0
 27 34  1  0
 34 35  1  0
 21 36  1  0
 36 37  2  0
 37  2  1  0
 16  7  1  0
 37 18  1  0
 35 24  1  0
 33 28  1  0
  1 38  1  0
  1 39  1  0
  1 40  1  0
  6 41  1  0
  8 42  1  0
  9 43  1  0
 15 44  1  0
 16 45  1  0
 19 46  1  0
 20 47  1  0
 25 48  1  0
 25 49  1  0
 26 50  1  0
 26 51  1  0
 29 52  1  0
 30 53  1  0
 31 54  1  0
 32 55  1  0
 34 56  1  0
 34 57  1  0
 35 58  1  0
 35 59  1  0
 36 60  1  0
M  END
$$$$
