
     RDKit          3D

 41 43  0  0  0  0  0  0  0  0999 V2000
   -2.3097    2.0077    1.4671 C   0  0  0  0  0  0  0  0  0  0  0  0
   -2.0167    1.7521    0.0777 N   0  0  0  0  0  0  0  0  0  0  0  0
   -1.5417    2.6528   -0.8351 C   0  0  0  0  0  0  0  0  0  0  0  0
   -1.3383    4.3380   -0.5176 S   0  0  0  0  0  0  0  0  0  0  0  0
    0.3403    4.5820   -1.1614 C   0  0  0  0  0  0  0  0  0  0  0  0
    1.3233    3.6772   -0.4353 C   0  0  0  0  0  0  0  0  0  0  0  0
    1.8530    4.0199    0.6165 O   0  0  0  0  0  0  0  0  0  0  0  0
    1.5232    2.4533   -1.0763 N   0  0  0  0  0  0  0  0  0  0  0  0
    2.2260    1.4685   -0.4359 N   0  0  0  0  0  0  0  0  0  0  0  0
    2.3148    0.3513   -1.0766 C   0  0  0  0  0  0  0  0  0  0  0  0
    2.9853   -0.8012   -0.5218 C   0  0  0  0  0  0  0  0  0  0  0  0
    3.4637   -1.9010   -1.2068 C   0  0  0  0  0  0  0  0  0  0  0  0
    4.0739   -2.8568   -0.3410 C   0  0  0  0  0  0  0  0  0  0  0  0
    3.9833   -2.4664    0.9812 C   0  0  0  0  0  0  0  0  0  0  0  0
    4.4480   -3.2084    2.1183 N   0  0  0  0  0  4  0  0  0  0  0  0
    5.0574   -4.2598    1.8813 O   0  0  0  0  0  0  0  0  0  0  0  0
    4.1945   -2.7697    3.2472 O   0  0  0  0  0  1  0  0  0  0  0  0
    3.2377   -0.9535    1.1688 S   0  0  0  0  0  0  0  0  0  0  0  0
   -1.1533    2.0253   -1.9226 N   0  0  0  0  0  0  0  0  0  0  0  0
   -1.4219    0.6837   -1.7419 N   0  0  0  0  0  0  0  0  0  0  0  0
   -2.0057    0.5279   -0.5641 C   0  0  0  0  0  0  0  0  0  0  0  0
   -2.5062   -0.7309   -0.0256 C   0  0  0  0  0  0  0  0  0  0  0  0
   -3.7924   -0.8173    0.5253 C   0  0  0  0  0  0  0  0  0  0  0  0
   -4.2583   -2.0273    1.0499 C   0  0  0  0  0  0  0  0  0  0  0  0
   -3.4395   -3.1580    1.0163 C   0  0  0  0  0  0  0  0  0  0  0  0
   -4.0122   -4.6422    1.6839 Cl  0  0  0  0  0  0  0  0  0  0  0  0
   -2.1643   -3.0920    0.4535 C   0  0  0  0  0  0  0  0  0  0  0  0
   -1.7026   -1.8832   -0.0748 C   0  0  0  0  0  0  0  0  0  0  0  0
   -3.2623    2.5319    1.5260 H   0  0  0  0  0  0  0  0  0  0  0  0
   -1.5022    2.6231    1.8843 H   0  0  0  0  0  0  0  0  0  0  0  0
   -2.3428    1.0747    2.0371 H   0  0  0  0  0  0  0  0  0  0  0  0
    0.6322    5.6212   -0.9784 H   0  0  0  0  0  0  0  0  0  0  0  0
    0.3808    4.4213   -2.2351 H   0  0  0  0  0  0  0  0  0  0  0  0
    0.8405    2.1563   -1.7876 H   0  0  0  0  0  0  0  0  0  0  0  0
    1.8908    0.2365   -2.0860 H   0  0  0  0  0  0  0  0  0  0  0  0
    3.3959   -2.0198   -2.2832 H   0  0  0  0  0  0  0  0  0  0  0  0
    4.5382   -3.7772   -0.6671 H   0  0  0  0  0  0  0  0  0  0  0  0
   -4.4502    0.0452    0.5478 H   0  0  0  0  0  0  0  0  0  0  0  0
   -5.2662   -2.0815    1.4776 H   0  0  0  0  0  0  0  0  0  0  0  0
   -1.5253   -3.9759    0.4226 H   0  0  0  0  0  0  0  0  0  0  0  0
   -0.6911   -1.8278   -0.5098 H   0  0  0  0  0  0  0  0  0  0  0  0
  1  2  1  0
  2  3  1  0
  3  4  1  0
  4  5  1  0
  5  6  1  0
  6  7  2  0
  6  8  1  0
  8  9  1  0
  9 10  2  3
 10 11  1  0
 11 12  2  0
 12 13  1  0
 13 14  2  0
 14 15  1  0
 15 16  2  0
 15 17  1  0
 14 18  1  0
  3 19  2  0
 19 20  1  0
 20 21  2  0
 21 22  1  0
 22 23  2  0
 23 24  1  0
 24 25  2  0
 25 26  1  0
 25 27  1  0
 27 28  2  0
 21  2  1  0
 28 22  1  0
 18 11  1  0
  1 29  1  0
  1 30  1  0
  1 31  1  0
  5 32  1  0
  5 33  1  0
  8 34  1  0
 10 35  1  0
 12 36  1  0
 13 37  1  0
 23 38  1  0
 24 39  1  0
 27 40  1  0
 28 41  1  0
M  CHG  2  15   1  17  -1
M  END
$$$$
