
     RDKit          3D

 46 49  0  0  0  0  0  0  0  0999 V2000
    2.8464   -0.1661    0.1749 O   0  0  0  0  0  0  0  0  0  0  0  0
    2.7283    1.0563    0.1018 C   0  0  0  0  0  0  0  0  0  0  0  0
    3.1561    1.8168   -1.1516 C   0  0  0  0  0  0  0  0  0  0  0  0
    2.3835    1.1056   -2.6318 S   0  0  0  0  0  0  0  0  0  0  0  0
    0.7263    1.4502   -2.2829 C   0  0  0  0  0  0  0  0  0  0  0  0
    0.2893    2.5073   -1.6453 N   0  0  0  0  0  0  0  0  0  0  0  0
   -1.0767    2.3967   -1.5559 N   0  0  0  0  0  0  0  0  0  0  0  0
   -1.4458    1.2694   -2.1352 C   0  0  0  0  0  0  0  0  0  0  0  0
   -2.8511    0.7645   -2.2379 C   0  0  0  0  0  0  0  0  0  0  0  0
   -3.1313   -0.3574   -1.2787 C   0  0  0  0  0  0  0  0  0  0  0  0
   -3.0305   -0.3552    0.1016 C   0  0  0  0  0  0  0  0  0  0  0  0
   -3.3804   -1.6118    0.6740 C   0  0  0  0  0  0  0  0  0  0  0  0
   -3.7393   -2.5326   -0.2867 C   0  0  0  0  0  0  0  0  0  0  0  0
   -3.6831   -1.8739   -1.8611 S   0  0  0  0  0  0  0  0  0  0  0  0
   -0.3240    0.6469   -2.6392 N   0  0  0  0  0  0  0  0  0  0  0  0
   -0.2683   -0.5660   -3.4397 C   0  0  0  0  0  0  0  0  0  0  0  0
   -0.0001   -1.7784   -2.6273 C   0  0  0  0  0  0  0  0  0  0  0  0
    0.2853   -2.0220   -1.3025 C   0  0  0  0  0  0  0  0  0  0  0  0
    0.4221   -3.4241   -1.1687 C   0  0  0  0  0  0  0  0  0  0  0  0
    0.2398   -3.9487   -2.4217 C   0  0  0  0  0  0  0  0  0  0  0  0
   -0.0072   -2.9586   -3.3176 O   0  0  0  0  0  0  0  0  0  0  0  0
    2.2598    1.8847    1.1094 N   0  0  0  0  0  0  0  0  0  0  0  0
    1.8216    1.5123    2.3977 C   0  0  0  0  0  0  0  0  0  0  0  0
    1.6618    0.1885    2.8155 C   0  0  0  0  0  0  0  0  0  0  0  0
    1.2357   -0.1033    4.1174 C   0  0  0  0  0  0  0  0  0  0  0  0
    0.9766    0.9297    5.0161 C   0  0  0  0  0  0  0  0  0  0  0  0
    1.1168    2.2505    4.5991 C   0  0  0  0  0  0  0  0  0  0  0  0
    0.7766    3.5345    5.7031 Cl  0  0  0  0  0  0  0  0  0  0  0  0
    1.5354    2.5448    3.2994 C   0  0  0  0  0  0  0  0  0  0  0  0
    2.9174    2.8781   -1.0843 H   0  0  0  0  0  0  0  0  0  0  0  0
    4.2436    1.7303   -1.2404 H   0  0  0  0  0  0  0  0  0  0  0  0
   -3.5399    1.5862   -2.0078 H   0  0  0  0  0  0  0  0  0  0  0  0
   -3.0732    0.4738   -3.2746 H   0  0  0  0  0  0  0  0  0  0  0  0
   -2.7133    0.5091    0.6761 H   0  0  0  0  0  0  0  0  0  0  0  0
   -3.3639   -1.8296    1.7364 H   0  0  0  0  0  0  0  0  0  0  0  0
   -4.0429   -3.5596   -0.1367 H   0  0  0  0  0  0  0  0  0  0  0  0
   -1.2167   -0.6622   -3.9732 H   0  0  0  0  0  0  0  0  0  0  0  0
    0.5041   -0.4392   -4.2034 H   0  0  0  0  0  0  0  0  0  0  0  0
    0.3809   -1.2832   -0.5146 H   0  0  0  0  0  0  0  0  0  0  0  0
    0.6466   -3.9801   -0.2702 H   0  0  0  0  0  0  0  0  0  0  0  0
    0.2566   -4.9488   -2.8242 H   0  0  0  0  0  0  0  0  0  0  0  0
    2.1890    2.8710    0.8950 H   0  0  0  0  0  0  0  0  0  0  0  0
    1.8540   -0.6511    2.1424 H   0  0  0  0  0  0  0  0  0  0  0  0
    1.1198   -1.1403    4.4247 H   0  0  0  0  0  0  0  0  0  0  0  0
    0.6518    0.7000    6.0261 H   0  0  0  0  0  0  0  0  0  0  0  0
    1.6628    3.5848    3.0041 H   0  0  0  0  0  0  0  0  0  0  0  0
  1  2  2  0
  2  3  1  0
  3  4  1  0
  4  5  1  0
  5  6  2  0
  6  7  1  0
  7  8  2  0
  8  9  1  0
  9 10  1  0
 10 11  2  0
 11 12  1  0
 12 13  2  0
 13 14  1  0
  8 15  1  0
 15 16  1  0
 16 17  1  0
 17 18  2  0
 18 19  1  0
 19 20  2  0
 20 21  1  0
  2 22  1  0
 22 23  1  0
 23 24  2  0
 24 25  1  0
 25 26  2  0
 26 27  1  0
 27 28  1  0
 27 29  2  0
 15  5  1  0
 21 17  1  0
 29 23  1  0
 14 10  1  0
  3 30  1  0
  3 31  1  0
  9 32  1  0
  9 33  1  0
 11 34  1  0
 12 35  1  0
 13 36  1  0
 16 37  1  0
 16 38  1  0
 18 39  1  0
 19 40  1  0
 20 41  1  0
 22 42  1  0
 24 43  1  0
 25 44  1  0
 26 45  1  0
 29 46  1  0
M  END
$$$$
