
     RDKit          3D

 73 75  0  0  0  0  0  0  0  0999 V2000
   -4.2947   -1.4152    2.3255 C   0  0  0  0  0  0  0  0  0  0  0  0
   -2.8050   -1.0919    2.2884 C   0  0  0  0  0  0  0  0  0  0  0  0
   -2.0659   -1.9078    1.2207 C   0  0  0  0  0  0  0  0  0  0  0  0
   -0.2448   -1.7584    1.3829 S   0  0  0  0  0  0  0  0  0  0  0  0
    0.0478   -0.3083    0.4501 C   0  0  0  0  0  0  0  0  0  0  0  0
   -0.4044    0.7922    0.9592 N   0  0  0  0  0  0  0  0  0  0  0  0
   -0.1925    1.9866    0.2696 C   0  0  0  0  0  0  0  0  0  0  0  0
   -0.6593    3.1789    0.8187 C   0  0  0  0  0  0  0  0  0  0  0  0
   -0.4740    4.4076    0.1634 C   0  0  0  0  0  0  0  0  0  0  0  0
   -1.0058    5.4520    0.8687 O   0  0  0  0  0  0  0  0  0  0  0  0
   -0.5795    6.7701    0.5547 C   0  0  0  0  0  0  0  0  0  0  0  0
    0.1791    4.4405   -1.0836 C   0  0  0  0  0  0  0  0  0  0  0  0
    0.3057    5.6423   -1.7242 O   0  0  0  0  0  0  0  0  0  0  0  0
    1.2305    5.7250   -2.8026 C   0  0  0  0  0  0  0  0  0  0  0  0
    0.6374    3.2377   -1.6355 C   0  0  0  0  0  0  0  0  0  0  0  0
    0.4559    2.0293   -0.9519 C   0  0  0  0  0  0  0  0  0  0  0  0
    0.9314    0.7561   -1.5181 C   0  0  0  0  0  0  0  0  0  0  0  0
    1.4942    0.7702   -2.6102 O   0  0  0  0  0  0  0  0  0  0  0  0
    0.7087   -0.3950   -0.7641 N   0  0  0  0  0  0  0  0  0  0  0  0
    1.1617   -1.6536   -1.3805 C   0  0  0  0  0  0  0  0  0  0  0  0
    2.6877   -1.8435   -1.3434 C   0  0  0  0  0  0  0  0  0  0  0  0
    3.2319   -2.0523    0.0500 C   0  0  0  0  0  0  0  0  0  0  0  0
    3.8278   -0.9962    0.7460 C   0  0  0  0  0  0  0  0  0  0  0  0
    4.3161   -1.1914    2.0391 C   0  0  0  0  0  0  0  0  0  0  0  0
    4.2059   -2.4400    2.6599 C   0  0  0  0  0  0  0  0  0  0  0  0
    4.6463   -2.7159    3.9318 O   0  0  0  0  0  0  0  0  0  0  0  0
    5.0870   -1.6205    4.7247 C   0  0  0  0  0  0  0  0  0  0  0  0
    3.6076   -3.5107    1.9675 C   0  0  0  0  0  0  0  0  0  0  0  0
    3.5458   -4.7092    2.6368 O   0  0  0  0  0  0  0  0  0  0  0  0
    2.7813   -5.7512    2.0454 C   0  0  0  0  0  0  0  0  0  0  0  0
    3.1303   -3.3090    0.6673 C   0  0  0  0  0  0  0  0  0  0  0  0
   -2.4743   -1.6640   -0.2410 C   0  0  0  0  0  0  0  0  0  0  0  0
   -2.4164   -2.5619   -1.0815 O   0  0  0  0  0  0  0  0  0  0  0  0
   -2.8241   -0.3702   -0.5816 N   0  0  0  0  0  0  0  0  0  0  0  0
   -3.0021    0.0161   -1.9719 C   0  0  0  0  0  0  0  0  0  0  0  0
   -4.2771   -0.5329   -2.6150 C   0  0  0  0  0  0  0  0  0  0  0  0
   -4.3510   -0.0505   -3.9596 O   0  0  0  0  0  0  0  0  0  0  0  0
   -5.5076   -0.5320   -4.6237 C   0  0  0  0  0  0  0  0  0  0  0  0
   -4.7867   -1.1339    1.3896 H   0  0  0  0  0  0  0  0  0  0  0  0
   -4.4570   -2.4842    2.4927 H   0  0  0  0  0  0  0  0  0  0  0  0
   -4.7795   -0.8671    3.1405 H   0  0  0  0  0  0  0  0  0  0  0  0
   -2.3958   -1.3232    3.2798 H   0  0  0  0  0  0  0  0  0  0  0  0
   -2.6844   -0.0141    2.1434 H   0  0  0  0  0  0  0  0  0  0  0  0
   -2.2870   -2.9642    1.4200 H   0  0  0  0  0  0  0  0  0  0  0  0
   -1.1701    3.1565    1.7796 H   0  0  0  0  0  0  0  0  0  0  0  0
   -1.0758    7.1325   -0.3525 H   0  0  0  0  0  0  0  0  0  0  0  0
    0.5088    6.8400    0.4787 H   0  0  0  0  0  0  0  0  0  0  0  0
   -0.8904    7.4212    1.3781 H   0  0  0  0  0  0  0  0  0  0  0  0
    0.8344    5.2193   -3.6902 H   0  0  0  0  0  0  0  0  0  0  0  0
    1.3596    6.7847   -3.0517 H   0  0  0  0  0  0  0  0  0  0  0  0
    2.2141    5.3300   -2.5255 H   0  0  0  0  0  0  0  0  0  0  0  0
    1.1272    3.2058   -2.6039 H   0  0  0  0  0  0  0  0  0  0  0  0
    0.6628   -2.5183   -0.9409 H   0  0  0  0  0  0  0  0  0  0  0  0
    0.8479   -1.6345   -2.4306 H   0  0  0  0  0  0  0  0  0  0  0  0
    2.9504   -2.7175   -1.9563 H   0  0  0  0  0  0  0  0  0  0  0  0
    3.2010   -0.9952   -1.8128 H   0  0  0  0  0  0  0  0  0  0  0  0
    3.9182   -0.0124    0.2891 H   0  0  0  0  0  0  0  0  0  0  0  0
    4.7795   -0.3473    2.5394 H   0  0  0  0  0  0  0  0  0  0  0  0
    4.3224   -0.8384    4.7928 H   0  0  0  0  0  0  0  0  0  0  0  0
    5.2664   -1.9926    5.7400 H   0  0  0  0  0  0  0  0  0  0  0  0
    6.0349   -1.2197    4.3440 H   0  0  0  0  0  0  0  0  0  0  0  0
    1.7517   -5.4281    1.8502 H   0  0  0  0  0  0  0  0  0  0  0  0
    2.7425   -6.5849    2.7531 H   0  0  0  0  0  0  0  0  0  0  0  0
    3.2595   -6.1126    1.1278 H   0  0  0  0  0  0  0  0  0  0  0  0
    2.6708   -4.1198    0.1123 H   0  0  0  0  0  0  0  0  0  0  0  0
   -2.5858    0.3661    0.0766 H   0  0  0  0  0  0  0  0  0  0  0  0
   -2.1248   -0.3068   -2.5416 H   0  0  0  0  0  0  0  0  0  0  0  0
   -3.0116    1.1123   -2.0045 H   0  0  0  0  0  0  0  0  0  0  0  0
   -5.1565   -0.1949   -2.0554 H   0  0  0  0  0  0  0  0  0  0  0  0
   -4.2672   -1.6291   -2.6159 H   0  0  0  0  0  0  0  0  0  0  0  0
   -6.4103   -0.1430   -4.1394 H   0  0  0  0  0  0  0  0  0  0  0  0
   -5.4880   -0.1832   -5.6615 H   0  0  0  0  0  0  0  0  0  0  0  0
   -5.5230   -1.6266   -4.6270 H   0  0  0  0  0  0  0  0  0  0  0  0
  1  2  1  0
  2  3  1  0
  3  4  1  0
  4  5  1  0
  5  6  2  0
  6  7  1  0
  7  8  2  0
  8  9  1  0
  9 10  1  0
 10 11  1  0
  9 12  2  0
 12 13  1  0
 13 14  1  0
 12 15  1  0
 15 16  2  0
 16 17  1  0
 17 18  2  0
 17 19  1  0
 19 20  1  0
 20 21  1  0
 21 22  1  0
 22 23  2  0
 23 24  1  0
 24 25  2  0
 25 26  1  0
 26 27  1  0
 25 28  1  0
 28 29  1  0
 29 30  1  0
 28 31  2  0
  3 32  1  0
 32 33  2  0
 32 34  1  0
 34 35  1  0
 35 36  1  0
 36 37  1  0
 37 38  1  0
 19  5  1  0
 31 22  1  0
 16  7  1  0
  1 39  1  0
  1 40  1  0
  1 41  1  0
  2 42  1  0
  2 43  1  0
  3 44  1  0
  8 45  1  0
 11 46  1  0
 11 47  1  0
 11 48  1  0
 14 49  1  0
 14 50  1  0
 14 51  1  0
 15 52  1  0
 20 53  1  0
 20 54  1  0
 21 55  1  0
 21 56  1  0
 23 57  1  0
 24 58  1  0
 27 59  1  0
 27 60  1  0
 27 61  1  0
 30 62  1  0
 30 63  1  0
 30 64  1  0
 31 65  1  0
 34 66  1  0
 35 67  1  0
 35 68  1  0
 36 69  1  0
 36 70  1  0
 38 71  1  0
 38 72  1  0
 38 73  1  0
M  END
$$$$
