
     RDKit          3D

 53 56  0  0  0  0  0  0  0  0999 V2000
   -8.7348    1.0366   -1.3730 C   0  0  0  0  0  0  0  0  0  0  0  0
   -7.2931    0.8285   -1.0159 C   0  0  0  0  0  0  0  0  0  0  0  0
   -6.3431    0.6003   -2.0145 C   0  0  0  0  0  0  0  0  0  0  0  0
   -4.9946    0.4351   -1.6850 C   0  0  0  0  0  0  0  0  0  0  0  0
   -4.5649    0.5213   -0.3501 C   0  0  0  0  0  0  0  0  0  0  0  0
   -3.1761    0.3401   -0.0608 N   0  0  0  0  0  0  0  0  0  0  0  0
   -2.3885   -0.2428   -1.0050 N   0  0  0  0  0  0  0  0  0  0  0  0
   -1.2213   -0.4650   -0.3976 C   0  0  0  0  0  0  0  0  0  0  0  0
   -0.0591   -1.1287   -0.9726 C   0  0  0  0  0  0  0  0  0  0  0  0
   -0.0273   -1.5950   -2.1101 O   0  0  0  0  0  0  0  0  0  0  0  0
    1.0234   -1.2001   -0.0740 N   0  0  0  0  0  0  0  0  0  0  0  0
    2.2781   -1.7514   -0.5560 C   0  0  0  0  0  0  0  0  0  0  0  0
    3.1206   -0.6798   -1.2516 C   0  0  0  0  0  0  0  0  0  0  0  0
    2.7636    0.4830   -1.4227 O   0  0  0  0  0  0  0  0  0  0  0  0
    4.3526   -1.1469   -1.6770 N   0  0  0  0  0  0  0  0  0  0  0  0
    5.3387   -0.2541   -2.2614 C   0  0  0  0  0  0  0  0  0  0  0  0
    6.0435    0.6325   -1.2277 C   0  0  0  0  0  0  0  0  0  0  0  0
    6.7792   -0.1683   -0.1880 C   0  0  0  0  0  0  0  0  0  0  0  0
    6.3661   -0.4789    1.0931 C   0  0  0  0  0  0  0  0  0  0  0  0
    7.3259   -1.2615    1.7964 C   0  0  0  0  0  0  0  0  0  0  0  0
    8.4417   -1.5174    1.0315 C   0  0  0  0  0  0  0  0  0  0  0  0
    8.3293   -0.8157   -0.5235 S   0  0  0  0  0  0  0  0  0  0  0  0
    1.0276   -0.6991    1.2343 N   0  0  0  0  0  0  0  0  0  0  0  0
   -0.0229   -0.0995    1.7222 C   0  0  0  0  0  0  0  0  0  0  0  0
    0.0439    0.4191    3.1305 C   0  0  0  0  0  0  0  0  0  0  0  0
   -1.2036    0.0440    0.9052 C   0  0  0  0  0  0  0  0  0  0  0  0
   -2.4328    0.6579    1.0834 C   0  0  0  0  0  0  0  0  0  0  0  0
   -2.9070    1.5365    2.1835 C   0  0  0  0  0  0  0  0  0  0  0  0
   -5.5197    0.7389    0.6488 C   0  0  0  0  0  0  0  0  0  0  0  0
   -6.8702    0.9028    0.3150 C   0  0  0  0  0  0  0  0  0  0  0  0
   -8.9158    2.0922   -1.5973 H   0  0  0  0  0  0  0  0  0  0  0  0
   -9.0106    0.4356   -2.2458 H   0  0  0  0  0  0  0  0  0  0  0  0
   -9.3905    0.7332   -0.5501 H   0  0  0  0  0  0  0  0  0  0  0  0
   -6.6424    0.5449   -3.0590 H   0  0  0  0  0  0  0  0  0  0  0  0
   -4.2839    0.2527   -2.4905 H   0  0  0  0  0  0  0  0  0  0  0  0
    2.0835   -2.5612   -1.2673 H   0  0  0  0  0  0  0  0  0  0  0  0
    2.8383   -2.1551    0.2946 H   0  0  0  0  0  0  0  0  0  0  0  0
    4.6790   -2.0455   -1.3435 H   0  0  0  0  0  0  0  0  0  0  0  0
    4.8344    0.3805   -2.9989 H   0  0  0  0  0  0  0  0  0  0  0  0
    6.0585   -0.8827   -2.7968 H   0  0  0  0  0  0  0  0  0  0  0  0
    6.7422    1.3024   -1.7438 H   0  0  0  0  0  0  0  0  0  0  0  0
    5.3108    1.2779   -0.7273 H   0  0  0  0  0  0  0  0  0  0  0  0
    5.4171   -0.1562    1.5065 H   0  0  0  0  0  0  0  0  0  0  0  0
    7.2068   -1.6138    2.8137 H   0  0  0  0  0  0  0  0  0  0  0  0
    9.3224   -2.0790    1.3114 H   0  0  0  0  0  0  0  0  0  0  0  0
    0.1161    1.5098    3.1142 H   0  0  0  0  0  0  0  0  0  0  0  0
    0.9267    0.0216    3.6402 H   0  0  0  0  0  0  0  0  0  0  0  0
   -0.8451    0.1156    3.6893 H   0  0  0  0  0  0  0  0  0  0  0  0
   -3.6005    2.3031    1.8257 H   0  0  0  0  0  0  0  0  0  0  0  0
   -2.0744    2.0854    2.6322 H   0  0  0  0  0  0  0  0  0  0  0  0
   -3.3841    0.9480    2.9726 H   0  0  0  0  0  0  0  0  0  0  0  0
   -5.2687    0.7438    1.7021 H   0  0  0  0  0  0  0  0  0  0  0  0
   -7.5951    1.0749    1.1082 H   0  0  0  0  0  0  0  0  0  0  0  0
  1  2  1  0
  2  3  2  0
  3  4  1  0
  4  5  2  0
  5  6  1  0
  6  7  1  0
  7  8  2  0
  8  9  1  0
  9 10  2  0
  9 11  1  0
 11 12  1  0
 12 13  1  0
 13 14  2  0
 13 15  1  0
 15 16  1  0
 16 17  1  0
 17 18  1  0
 18 19  2  0
 19 20  1  0
 20 21  2  0
 21 22  1  0
 11 23  1  0
 23 24  2  0
 24 25  1  0
 24 26  1  0
 26 27  2  0
 27 28  1  0
  5 29  1  0
 29 30  2  0
 30  2  1  0
 27  6  1  0
 26  8  1  0
 22 18  1  0
  1 31  1  0
  1 32  1  0
  1 33  1  0
  3 34  1  0
  4 35  1  0
 12 36  1  0
 12 37  1  0
 15 38  1  0
 16 39  1  0
 16 40  1  0
 17 41  1  0
 17 42  1  0
 19 43  1  0
 20 44  1  0
 21 45  1  0
 25 46  1  0
 25 47  1  0
 25 48  1  0
 28 49  1  0
 28 50  1  0
 28 51  1  0
 29 52  1  0
 30 53  1  0
M  END
$$$$
