
     RDKit          3D

 44 46  0  0  0  0  0  0  0  0999 V2000
   -4.2419    0.4362    3.6889 C   0  0  0  0  0  0  0  0  0  0  0  0
   -3.2563   -0.2533    2.7841 C   0  0  0  0  0  0  0  0  0  0  0  0
   -3.4278   -0.1713    1.3912 C   0  0  0  0  0  0  0  0  0  0  0  0
   -2.5438   -0.7933    0.4900 C   0  0  0  0  0  0  0  0  0  0  0  0
   -2.8206   -0.6517   -0.9801 C   0  0  0  0  0  0  0  0  0  0  0  0
   -1.4643   -1.5166    1.0212 C   0  0  0  0  0  0  0  0  0  0  0  0
   -0.2589   -2.3730    0.0185 S   0  0  0  0  0  6  0  0  0  0  0  0
   -0.6772   -2.4287   -1.3641 O   0  0  0  0  0  0  0  0  0  0  0  0
    0.0925   -3.5918    0.7204 O   0  0  0  0  0  0  0  0  0  0  0  0
    1.1008   -1.3708    0.1461 N   0  0  0  0  0  0  0  0  0  0  0  0
    1.1458   -0.2040   -0.6642 C   0  0  0  0  0  0  0  0  0  0  0  0
    0.6319    0.9941   -0.1685 C   0  0  0  0  0  0  0  0  0  0  0  0
    0.6429    2.1360   -0.9684 C   0  0  0  0  0  0  0  0  0  0  0  0
    1.1633    2.0681   -2.2579 C   0  0  0  0  0  0  0  0  0  0  0  0
    1.1411    3.2214   -2.9948 O   0  0  0  0  0  0  0  0  0  0  0  0
    1.6789    0.8687   -2.7673 C   0  0  0  0  0  0  0  0  0  0  0  0
    2.3225    0.7778   -4.4281 S   0  0  0  0  0  0  0  0  0  0  0  0
    4.0364    0.9724   -4.1592 C   0  0  0  0  0  0  0  0  0  0  0  0
    4.6638    0.7293   -2.9660 N   0  0  0  0  0  0  0  0  0  0  0  0
    5.9203    0.9994   -3.2293 C   0  0  0  0  0  0  0  0  0  0  0  0
    6.0375    1.3862   -4.5258 N   0  0  0  0  0  0  0  0  0  0  0  0
    4.8465    1.3775   -5.1435 N   0  0  0  0  0  0  0  0  0  0  0  0
    1.6570   -0.2749   -1.9610 C   0  0  0  0  0  0  0  0  0  0  0  0
   -1.2913   -1.6128    2.4140 C   0  0  0  0  0  0  0  0  0  0  0  0
   -2.1749   -0.9849    3.3027 C   0  0  0  0  0  0  0  0  0  0  0  0
   -1.9475   -1.1131    4.7839 C   0  0  0  0  0  0  0  0  0  0  0  0
   -5.0073    0.9716    3.1172 H   0  0  0  0  0  0  0  0  0  0  0  0
   -3.7308    1.1695    4.3202 H   0  0  0  0  0  0  0  0  0  0  0  0
   -4.7544   -0.2964    4.3203 H   0  0  0  0  0  0  0  0  0  0  0  0
   -4.2754    0.3909    0.9989 H   0  0  0  0  0  0  0  0  0  0  0  0
   -1.9581   -0.2293   -1.5027 H   0  0  0  0  0  0  0  0  0  0  0  0
   -3.0944   -1.6190   -1.4116 H   0  0  0  0  0  0  0  0  0  0  0  0
   -3.6590    0.0295   -1.1656 H   0  0  0  0  0  0  0  0  0  0  0  0
    1.9502   -1.9316    0.2042 H   0  0  0  0  0  0  0  0  0  0  0  0
    0.2300    1.0509    0.8397 H   0  0  0  0  0  0  0  0  0  0  0  0
    0.2474    3.0742   -0.5899 H   0  0  0  0  0  0  0  0  0  0  0  0
    1.5304    3.0135   -3.8642 H   0  0  0  0  0  0  0  0  0  0  0  0
    6.7560    0.9361   -2.5471 H   0  0  0  0  0  0  0  0  0  0  0  0
    6.8656    1.6630   -5.0417 H   0  0  0  0  0  0  0  0  0  0  0  0
    2.0343   -1.2186   -2.3456 H   0  0  0  0  0  0  0  0  0  0  0  0
   -0.4536   -2.1866    2.8100 H   0  0  0  0  0  0  0  0  0  0  0  0
   -2.8102   -1.5869    5.2626 H   0  0  0  0  0  0  0  0  0  0  0  0
   -1.7775   -0.1275    5.2284 H   0  0  0  0  0  0  0  0  0  0  0  0
   -1.0700   -1.7301    5.0045 H   0  0  0  0  0  0  0  0  0  0  0  0
  1  2  1  0
  2  3  2  0
  3  4  1  0
  4  5  1  0
  4  6  2  0
  6  7  1  0
  7  8  2  0
  7  9  2  0
  7 10  1  0
 10 11  1  0
 11 12  2  0
 12 13  1  0
 13 14  2  0
 14 15  1  0
 14 16  1  0
 16 17  1  0
 17 18  1  0
 18 19  1  0
 19 20  2  0
 20 21  1  0
 21 22  1  0
 16 23  2  0
  6 24  1  0
 24 25  2  0
 25 26  1  0
 25  2  1  0
 23 11  1  0
 22 18  2  0
  1 27  1  0
  1 28  1  0
  1 29  1  0
  3 30  1  0
  5 31  1  0
  5 32  1  0
  5 33  1  0
 10 34  1  0
 12 35  1  0
 13 36  1  0
 15 37  1  0
 20 38  1  0
 21 39  1  0
 23 40  1  0
 24 41  1  0
 26 42  1  0
 26 43  1  0
 26 44  1  0
M  END
$$$$
