
     RDKit          3D

 60 65  0  0  0  0  0  0  0  0999 V2000
   -2.2809   -0.6616   -3.1682 O   0  0  0  0  0  0  0  0  0  0  0  0
   -2.5356   -0.6308   -1.9692 C   0  0  0  0  0  0  0  0  0  0  0  0
   -1.5465   -0.4209   -1.0147 N   0  0  0  0  0  0  0  0  0  0  0  0
   -1.7791   -0.3670    0.3546 C   0  0  0  0  0  0  0  0  0  0  0  0
   -0.5704   -0.1384    1.2533 C   0  0  0  0  0  0  0  0  0  0  0  0
    0.4098   -1.3198    1.2006 C   0  0  0  0  0  0  0  0  0  0  0  0
    1.6261   -1.0522    0.3228 C   0  0  0  0  0  0  0  0  0  0  0  0
    2.3440    0.1910    0.7117 N   0  0  0  0  0  0  0  0  0  0  0  0
    3.9243   -0.0186    1.3404 S   0  0  0  0  0  6  0  0  0  0  0  0
    4.4808    1.2883    1.6140 O   0  0  0  0  0  0  0  0  0  0  0  0
    3.8405   -1.0336    2.3691 O   0  0  0  0  0  0  0  0  0  0  0  0
    4.7996   -0.6859   -0.0503 C   0  0  0  0  0  0  0  0  0  0  0  0
    5.2700   -2.0029   -0.0215 C   0  0  0  0  0  0  0  0  0  0  0  0
    5.9595   -2.5079   -1.1254 C   0  0  0  0  0  0  0  0  0  0  0  0
    6.1820   -1.6957   -2.2381 C   0  0  0  0  0  0  0  0  0  0  0  0
    5.6964   -0.3825   -2.2627 C   0  0  0  0  0  0  0  0  0  0  0  0
    5.0184    0.1335   -1.1622 C   0  0  0  0  0  0  0  0  0  0  0  0
    5.8606    0.4589   -3.3328 O   0  0  0  0  0  0  0  0  0  0  0  0
    6.2636   -0.2551   -4.5073 C   0  0  0  0  0  0  0  0  0  0  0  0
    7.3616   -1.2546   -4.1817 C   0  0  0  0  0  0  0  0  0  0  0  0
    6.8837   -2.2550   -3.2749 O   0  0  0  0  0  0  0  0  0  0  0  0
    1.5437    1.1883    1.4701 C   0  0  0  0  0  0  0  0  0  0  0  0
    0.1091    1.2019    0.9630 C   0  0  0  0  0  0  0  0  0  0  0  0
   -2.9548   -0.5166    0.8991 N   0  0  0  0  0  0  0  0  0  0  0  0
   -3.9387   -0.7192   -0.0092 C   0  0  0  0  0  0  0  0  0  0  0  0
   -3.8341   -0.7940   -1.3765 C   0  0  0  0  0  0  0  0  0  0  0  0
   -5.0521   -1.0171   -1.9395 N   0  0  0  0  0  0  0  0  0  0  0  0
   -5.9407   -1.0820   -0.9475 N   0  0  0  0  0  0  0  0  0  0  0  0
   -5.2745   -0.8817    0.2183 N   0  0  0  0  0  0  0  0  0  0  0  0
   -5.9767   -0.8839    1.4856 C   0  0  0  0  0  0  0  0  0  0  0  0
   -6.3372    0.5121    1.9177 C   0  0  0  0  0  0  0  0  0  0  0  0
   -7.3371    1.2424    1.2554 C   0  0  0  0  0  0  0  0  0  0  0  0
   -7.6505    2.5431    1.6610 C   0  0  0  0  0  0  0  0  0  0  0  0
   -6.9715    3.1282    2.7306 C   0  0  0  0  0  0  0  0  0  0  0  0
   -5.9776    2.4118    3.3956 C   0  0  0  0  0  0  0  0  0  0  0  0
   -5.6690    1.1169    2.9862 C   0  0  0  0  0  0  0  0  0  0  0  0
   -4.7114    0.4465    3.6434 F   0  0  0  0  0  0  0  0  0  0  0  0
   -0.6290   -0.2648   -1.4024 H   0  0  0  0  0  0  0  0  0  0  0  0
   -0.9581   -0.0989    2.2818 H   0  0  0  0  0  0  0  0  0  0  0  0
   -0.0935   -2.2350    0.8650 H   0  0  0  0  0  0  0  0  0  0  0  0
    0.7628   -1.5220    2.2215 H   0  0  0  0  0  0  0  0  0  0  0  0
    2.2850   -1.9255    0.3608 H   0  0  0  0  0  0  0  0  0  0  0  0
    1.3314   -0.9467   -0.7269 H   0  0  0  0  0  0  0  0  0  0  0  0
    5.1109   -2.6348    0.8498 H   0  0  0  0  0  0  0  0  0  0  0  0
    6.3380   -3.5271   -1.1141 H   0  0  0  0  0  0  0  0  0  0  0  0
    4.6597    1.1599   -1.1753 H   0  0  0  0  0  0  0  0  0  0  0  0
    6.6267    0.4796   -5.2328 H   0  0  0  0  0  0  0  0  0  0  0  0
    5.3819   -0.7510   -4.9320 H   0  0  0  0  0  0  0  0  0  0  0  0
    8.2333   -0.7625   -3.7318 H   0  0  0  0  0  0  0  0  0  0  0  0
    7.6904   -1.7638   -5.0933 H   0  0  0  0  0  0  0  0  0  0  0  0
    1.9793    2.1822    1.3148 H   0  0  0  0  0  0  0  0  0  0  0  0
    1.5662    0.9638    2.5437 H   0  0  0  0  0  0  0  0  0  0  0  0
    0.1039    1.4368   -0.1079 H   0  0  0  0  0  0  0  0  0  0  0  0
   -0.4527    2.0062    1.4530 H   0  0  0  0  0  0  0  0  0  0  0  0
   -5.3381   -1.3901    2.2185 H   0  0  0  0  0  0  0  0  0  0  0  0
   -6.8814   -1.4939    1.3752 H   0  0  0  0  0  0  0  0  0  0  0  0
   -7.8726    0.8058    0.4121 H   0  0  0  0  0  0  0  0  0  0  0  0
   -8.4235    3.1024    1.1366 H   0  0  0  0  0  0  0  0  0  0  0  0
   -7.2162    4.1408    3.0434 H   0  0  0  0  0  0  0  0  0  0  0  0
   -5.4398    2.8527    4.2295 H   0  0  0  0  0  0  0  0  0  0  0  0
  1  2  2  0
  2  3  1  0
  3  4  1  0
  4  5  1  0
  5  6  1  0
  6  7  1  0
  7  8  1  0
  8  9  1  0
  9 10  2  0
  9 11  2  0
  9 12  1  0
 12 13  2  0
 13 14  1  0
 14 15  2  0
 15 16  1  0
 16 17  2  0
 16 18  1  0
 18 19  1  0
 19 20  1  0
 20 21  1  0
  8 22  1  0
 22 23  1  0
  4 24  2  0
 24 25  1  0
 25 26  2  0
 26 27  1  0
 27 28  2  0
 28 29  1  0
 29 30  1  0
 30 31  1  0
 31 32  2  0
 32 33  1  0
 33 34  2  0
 34 35  1  0
 35 36  2  0
 36 37  1  0
 26  2  1  0
 36 31  1  0
 23  5  1  0
 29 25  1  0
 17 12  1  0
 21 15  1  0
  3 38  1  0
  5 39  1  0
  6 40  1  0
  6 41  1  0
  7 42  1  0
  7 43  1  0
 13 44  1  0
 14 45  1  0
 17 46  1  0
 19 47  1  0
 19 48  1  0
 20 49  1  0
 20 50  1  0
 22 51  1  0
 22 52  1  0
 23 53  1  0
 23 54  1  0
 30 55  1  0
 30 56  1  0
 32 57  1  0
 33 58  1  0
 34 59  1  0
 35 60  1  0
M  END
$$$$
