
     RDKit          3D

 43 45  0  0  0  0  0  0  0  0999 V2000
   -6.9552    0.1521   -1.1030 C   0  0  0  0  0  0  0  0  0  0  0  0
   -6.1541   -0.7608   -0.2889 N   0  0  0  0  0  0  0  0  0  0  0  0
   -6.4735   -2.1798   -0.4362 C   0  0  0  0  0  0  0  0  0  0  0  0
   -4.8470   -0.3915    0.0526 C   0  0  0  0  0  0  0  0  0  0  0  0
   -4.3951    0.9366   -0.0471 C   0  0  0  0  0  0  0  0  0  0  0  0
   -3.0914    1.3167    0.3076 C   0  0  0  0  0  0  0  0  0  0  0  0
   -2.1857    0.3718    0.7828 C   0  0  0  0  0  0  0  0  0  0  0  0
   -0.8240    0.7401    1.1786 C   0  0  0  0  0  0  0  0  0  0  0  0
    0.1390    1.1971    0.3662 C   0  0  0  0  0  0  0  0  0  0  0  0
    0.0496    1.4652   -1.3377 S   0  0  0  0  0  0  0  0  0  0  0  0
    1.7218    1.9975   -1.4441 C   0  0  0  0  0  0  0  0  0  0  0  0
    2.4419    2.5251   -2.8551 S   0  0  0  0  0  0  0  0  0  0  0  0
    2.2857    1.9292   -0.1872 N   0  0  0  0  0  0  0  0  0  0  0  0
    3.6457    2.2495    0.0425 N   0  0  0  0  0  0  0  0  0  0  0  0
    4.5029    1.1171   -0.0781 C   0  0  0  0  0  0  0  0  0  0  0  0
    3.9603   -0.1220   -0.2076 N   0  0  0  0  0  0  0  0  0  0  0  0
    4.7956   -1.1861   -0.2737 C   0  0  0  0  0  0  0  0  0  0  0  0
    6.1771   -1.0933   -0.2151 C   0  0  0  0  0  0  0  0  0  0  0  0
    7.0205   -2.3257   -0.3203 C   0  0  0  0  0  0  0  0  0  0  0  0
    7.2731   -2.6664   -1.6126 F   0  0  0  0  0  0  0  0  0  0  0  0
    6.4417   -3.4172    0.2500 F   0  0  0  0  0  0  0  0  0  0  0  0
    8.2359   -2.1919    0.2773 F   0  0  0  0  0  0  0  0  0  0  0  0
    6.7316    0.1837   -0.0950 C   0  0  0  0  0  0  0  0  0  0  0  0
    5.8932    1.2961   -0.0193 C   0  0  0  0  0  0  0  0  0  0  0  0
    6.6055    2.8626    0.1167 Cl  0  0  0  0  0  0  0  0  0  0  0  0
    1.4990    1.5292    0.8838 C   0  0  0  0  0  0  0  0  0  0  0  0
    1.8093    1.4710    2.0665 O   0  0  0  0  0  0  0  0  0  0  0  0
   -2.6105   -0.9468    0.9208 C   0  0  0  0  0  0  0  0  0  0  0  0
   -3.9169   -1.3147    0.5631 C   0  0  0  0  0  0  0  0  0  0  0  0
   -7.9459   -0.2671   -1.3124 H   0  0  0  0  0  0  0  0  0  0  0  0
   -6.4708    0.3503   -2.0656 H   0  0  0  0  0  0  0  0  0  0  0  0
   -7.1353    1.0967   -0.5789 H   0  0  0  0  0  0  0  0  0  0  0  0
   -6.3317   -2.7186    0.5067 H   0  0  0  0  0  0  0  0  0  0  0  0
   -5.8640   -2.6417   -1.2208 H   0  0  0  0  0  0  0  0  0  0  0  0
   -7.5256   -2.3240   -0.7071 H   0  0  0  0  0  0  0  0  0  0  0  0
   -5.0518    1.7251   -0.4011 H   0  0  0  0  0  0  0  0  0  0  0  0
   -2.8054    2.3612    0.2120 H   0  0  0  0  0  0  0  0  0  0  0  0
   -0.6084    0.5935    2.2365 H   0  0  0  0  0  0  0  0  0  0  0  0
    3.9760    2.9837   -0.5853 H   0  0  0  0  0  0  0  0  0  0  0  0
    4.2950   -2.1479   -0.3762 H   0  0  0  0  0  0  0  0  0  0  0  0
    7.8121    0.3103   -0.0565 H   0  0  0  0  0  0  0  0  0  0  0  0
   -1.9366   -1.7082    1.3065 H   0  0  0  0  0  0  0  0  0  0  0  0
   -4.1835   -2.3578    0.7024 H   0  0  0  0  0  0  0  0  0  0  0  0
  1  2  1  0
  2  3  1  0
  2  4  1  0
  4  5  2  0
  5  6  1  0
  6  7  2  0
  7  8  1  0
  8  9  2  3
  9 10  1  0
 10 11  1  0
 11 12  2  0
 11 13  1  0
 13 14  1  0
 14 15  1  0
 15 16  2  0
 16 17  1  0
 17 18  2  0
 18 19  1  0
 19 20  1  0
 19 21  1  0
 19 22  1  0
 18 23  1  0
 23 24  2  0
 24 25  1  0
 13 26  1  0
 26 27  2  0
  7 28  1  0
 28 29  2  0
 29  4  1  0
 26  9  1  0
 24 15  1  0
  1 30  1  0
  1 31  1  0
  1 32  1  0
  3 33  1  0
  3 34  1  0
  3 35  1  0
  5 36  1  0
  6 37  1  0
  8 38  1  0
 14 39  1  0
 17 40  1  0
 23 41  1  0
 28 42  1  0
 29 43  1  0
M  END
$$$$
