
     RDKit          3D

 61 65  0  0  0  0  0  0  0  0999 V2000
   -8.7293   -0.4010   -0.5597 C   0  0  0  0  0  0  0  0  0  0  0  0
   -7.7593   -0.5321    0.4714 O   0  0  0  0  0  0  0  0  0  0  0  0
   -6.5123   -0.0124    0.2316 C   0  0  0  0  0  0  0  0  0  0  0  0
   -6.0660    0.4226   -1.0206 C   0  0  0  0  0  0  0  0  0  0  0  0
   -4.7750    0.9371   -1.1694 C   0  0  0  0  0  0  0  0  0  0  0  0
   -3.9062    1.0208   -0.0766 C   0  0  0  0  0  0  0  0  0  0  0  0
   -2.5604    1.5727   -0.2066 C   0  0  0  0  0  0  0  0  0  0  0  0
   -1.6640    1.8265    0.7271 N   0  0  0  0  0  0  0  0  0  0  0  0
   -0.5837    2.3552    0.0445 C   0  0  0  0  0  0  0  0  0  0  0  0
    0.6168    2.8059    0.8002 C   0  0  0  0  0  0  0  0  0  0  0  0
    1.8679    2.4160    0.1699 N   0  0  0  0  0  0  0  0  0  0  0  0
    2.5063    1.2055    0.2637 C   0  0  0  0  0  0  0  0  0  0  0  0
    1.8689   -0.1467    1.1383 S   0  0  0  0  0  0  0  0  0  0  0  0
    3.3795   -0.8363    1.8743 C   0  0  0  0  0  0  0  0  0  0  0  0
    3.9165   -2.0436    1.1471 C   0  0  0  0  0  0  0  0  0  0  0  0
    3.4449   -3.3299    1.4486 C   0  0  0  0  0  0  0  0  0  0  0  0
    3.9797   -4.4511    0.8100 C   0  0  0  0  0  0  0  0  0  0  0  0
    4.9949   -4.3080   -0.1347 C   0  0  0  0  0  0  0  0  0  0  0  0
    5.5760   -5.5062   -0.8295 C   0  0  0  0  0  0  0  0  0  0  0  0
    5.4456   -3.0226   -0.4547 C   0  0  0  0  0  0  0  0  0  0  0  0
    4.9097   -1.9023    0.1749 C   0  0  0  0  0  0  0  0  0  0  0  0
    3.6472    1.2044   -0.3840 N   0  0  0  0  0  0  0  0  0  0  0  0
    3.7723    2.4586   -0.9160 C   0  0  0  0  0  0  0  0  0  0  0  0
    4.7991    2.9889   -1.7006 C   0  0  0  0  0  0  0  0  0  0  0  0
    4.6441    4.3086   -2.0767 C   0  0  0  0  0  0  0  0  0  0  0  0
    3.5885    5.0895   -1.7348 N   0  0  0  0  0  0  0  0  0  0  0  0
    2.5966    4.5765   -0.9677 C   0  0  0  0  0  0  0  0  0  0  0  0
    2.6843    3.2519   -0.5673 C   0  0  0  0  0  0  0  0  0  0  0  0
   -0.8906    2.4089   -1.3037 C   0  0  0  0  0  0  0  0  0  0  0  0
   -0.2067    2.8608   -2.5305 C   0  0  0  0  0  0  0  0  0  0  0  0
   -2.1509    1.9055   -1.4703 O   0  0  0  0  0  0  0  0  0  0  0  0
   -4.3542    0.5707    1.1768 C   0  0  0  0  0  0  0  0  0  0  0  0
   -5.6456    0.0550    1.3410 C   0  0  0  0  0  0  0  0  0  0  0  0
   -6.1574   -0.3947    2.5393 O   0  0  0  0  0  0  0  0  0  0  0  0
   -5.3102   -0.3683    3.6746 C   0  0  0  0  0  0  0  0  0  0  0  0
   -9.6796   -0.7771   -0.1698 H   0  0  0  0  0  0  0  0  0  0  0  0
   -8.8737    0.6498   -0.8374 H   0  0  0  0  0  0  0  0  0  0  0  0
   -8.4663   -1.0093   -1.4326 H   0  0  0  0  0  0  0  0  0  0  0  0
   -6.6937    0.3689   -1.9030 H   0  0  0  0  0  0  0  0  0  0  0  0
   -4.4567    1.2751   -2.1508 H   0  0  0  0  0  0  0  0  0  0  0  0
    0.6053    3.8970    0.8957 H   0  0  0  0  0  0  0  0  0  0  0  0
    0.6147    2.4077    1.8208 H   0  0  0  0  0  0  0  0  0  0  0  0
    3.1334   -1.1277    2.9055 H   0  0  0  0  0  0  0  0  0  0  0  0
    4.1620   -0.0697    1.9758 H   0  0  0  0  0  0  0  0  0  0  0  0
    2.6628   -3.4672    2.1926 H   0  0  0  0  0  0  0  0  0  0  0  0
    3.6006   -5.4385    1.0605 H   0  0  0  0  0  0  0  0  0  0  0  0
    5.3135   -6.4357   -0.3144 H   0  0  0  0  0  0  0  0  0  0  0  0
    5.1992   -5.5620   -1.8574 H   0  0  0  0  0  0  0  0  0  0  0  0
    6.6699   -5.4398   -0.8471 H   0  0  0  0  0  0  0  0  0  0  0  0
    6.2204   -2.8873   -1.1980 H   0  0  0  0  0  0  0  0  0  0  0  0
    5.2731   -0.9125   -0.0952 H   0  0  0  0  0  0  0  0  0  0  0  0
    5.6611    2.4018   -1.9914 H   0  0  0  0  0  0  0  0  0  0  0  0
    5.4004    4.7984   -2.6903 H   0  0  0  0  0  0  0  0  0  0  0  0
    1.7726    5.2375   -0.7228 H   0  0  0  0  0  0  0  0  0  0  0  0
    0.0735    3.9145   -2.4462 H   0  0  0  0  0  0  0  0  0  0  0  0
   -0.8589    2.7646   -3.4071 H   0  0  0  0  0  0  0  0  0  0  0  0
    0.6942    2.2647   -2.7170 H   0  0  0  0  0  0  0  0  0  0  0  0
   -3.6686    0.6367    2.0181 H   0  0  0  0  0  0  0  0  0  0  0  0
   -5.8796   -0.7590    4.5226 H   0  0  0  0  0  0  0  0  0  0  0  0
   -5.0083    0.6521    3.9234 H   0  0  0  0  0  0  0  0  0  0  0  0
   -4.4380   -1.0151    3.5355 H   0  0  0  0  0  0  0  0  0  0  0  0
  1  2  1  0
  2  3  1  0
  3  4  2  0
  4  5  1  0
  5  6  2  0
  6  7  1  0
  7  8  2  0
  8  9  1  0
  9 10  1  0
 10 11  1  0
 11 12  1  0
 12 13  1  0
 13 14  1  0
 14 15  1  0
 15 16  2  0
 16 17  1  0
 17 18  2  0
 18 19  1  0
 18 20  1  0
 20 21  2  0
 12 22  2  0
 22 23  1  0
 23 24  2  0
 24 25  1  0
 25 26  2  0
 26 27  1  0
 27 28  2  0
  9 29  2  0
 29 30  1  0
 29 31  1  0
  6 32  1  0
 32 33  2  0
 33 34  1  0
 34 35  1  0
 33  3  1  0
 31  7  1  0
 28 11  1  0
 21 15  1  0
 28 23  1  0
  1 36  1  0
  1 37  1  0
  1 38  1  0
  4 39  1  0
  5 40  1  0
 10 41  1  0
 10 42  1  0
 14 43  1  0
 14 44  1  0
 16 45  1  0
 17 46  1  0
 19 47  1  0
 19 48  1  0
 19 49  1  0
 20 50  1  0
 21 51  1  0
 24 52  1  0
 25 53  1  0
 27 54  1  0
 30 55  1  0
 30 56  1  0
 30 57  1  0
 32 58  1  0
 35 59  1  0
 35 60  1  0
 35 61  1  0
M  END
$$$$
