
     RDKit          3D

 64 67  0  0  0  0  0  0  0  0999 V2000
    9.3322    1.9572   -3.3168 C   0  0  0  0  0  0  0  0  0  0  0  0
    7.8871    1.7443   -3.5044 C   0  0  0  0  0  0  0  0  0  0  0  0
    6.8611    1.3713   -2.6711 C   0  0  0  0  0  0  0  0  0  0  0  0
    5.7173    1.3636   -3.4990 C   0  0  0  0  0  0  0  0  0  0  0  0
    4.4104    1.0654   -3.1862 N   0  0  0  0  0  0  0  0  0  0  0  0
    3.9571    0.6956   -1.9403 C   0  0  0  0  0  0  0  0  0  0  0  0
    4.6474    0.5683   -0.9356 O   0  0  0  0  0  0  0  0  0  0  0  0
    2.4642    0.4379   -1.9392 C   0  0  0  0  0  0  0  0  0  0  0  0
    1.9430    0.1111   -0.5423 C   0  0  0  0  0  0  0  0  0  0  0  0
    0.4554   -0.2070   -0.5713 C   0  0  0  0  0  0  0  0  0  0  0  0
   -0.1909   -0.1027   -1.6156 O   0  0  0  0  0  0  0  0  0  0  0  0
   -0.1227   -0.6785    0.6087 N   0  0  0  0  0  0  0  0  0  0  0  0
    0.5119   -0.5214    1.8695 C   0  0  0  0  0  0  0  0  0  0  0  0
    0.9529   -1.6469    2.5650 C   0  0  0  0  0  0  0  0  0  0  0  0
    1.5852   -1.4907    3.7961 C   0  0  0  0  0  0  0  0  0  0  0  0
    1.7602   -0.2076    4.2882 C   0  0  0  0  0  0  0  0  0  0  0  0
    1.3515    0.9054    3.6430 N   0  0  0  0  0  0  0  0  0  0  0  0
    0.7366    0.7260    2.4481 C   0  0  0  0  0  0  0  0  0  0  0  0
   -1.5850   -0.9101    0.5775 C   0  0  0  0  0  0  0  0  0  0  0  0
   -2.3927    0.4209    0.6645 C   0  0  0  0  0  0  0  0  0  0  0  0
   -1.8887    1.5104    0.9338 O   0  0  0  0  0  0  0  0  0  0  0  0
   -3.7490    0.2837    0.4055 N   0  0  0  0  0  0  0  0  0  0  0  0
   -4.6334    1.4365    0.3437 C   0  0  0  0  0  0  0  0  0  0  0  0
   -6.0995    1.0104    0.4124 C   0  0  0  0  0  0  0  0  0  0  0  0
   -6.5357    0.7688   -1.0374 C   0  0  0  0  0  0  0  0  0  0  0  0
   -5.4033    1.2856   -1.9236 C   0  0  0  0  0  0  0  0  0  0  0  0
   -4.5451    2.1498   -1.0045 C   0  0  0  0  0  0  0  0  0  0  0  0
   -2.0807   -1.9761    1.5543 C   0  0  0  0  0  0  0  0  0  0  0  0
   -2.1033   -3.3241    1.1546 C   0  0  0  0  0  0  0  0  0  0  0  0
   -2.5395   -4.3193    2.0311 C   0  0  0  0  0  0  0  0  0  0  0  0
   -2.9509   -3.9827    3.3192 C   0  0  0  0  0  0  0  0  0  0  0  0
   -2.9228   -2.6530    3.7339 C   0  0  0  0  0  0  0  0  0  0  0  0
   -2.4882   -1.6551    2.8602 C   0  0  0  0  0  0  0  0  0  0  0  0
    6.0327    1.7057   -4.7532 N   0  0  0  0  0  0  0  0  0  0  0  0
    7.3941    1.9447   -4.7543 O   0  0  0  0  0  0  0  0  0  0  0  0
    9.5096    2.7037   -2.5361 H   0  0  0  0  0  0  0  0  0  0  0  0
    9.8222    1.0239   -3.0183 H   0  0  0  0  0  0  0  0  0  0  0  0
    9.8081    2.3104   -4.2391 H   0  0  0  0  0  0  0  0  0  0  0  0
    6.9331    1.1424   -1.6183 H   0  0  0  0  0  0  0  0  0  0  0  0
    3.7738    1.1383   -3.9684 H   0  0  0  0  0  0  0  0  0  0  0  0
    2.2619   -0.3970   -2.6216 H   0  0  0  0  0  0  0  0  0  0  0  0
    1.9565    1.3278   -2.3315 H   0  0  0  0  0  0  0  0  0  0  0  0
    2.1200    0.9703    0.1097 H   0  0  0  0  0  0  0  0  0  0  0  0
    2.4809   -0.7547   -0.1407 H   0  0  0  0  0  0  0  0  0  0  0  0
    0.8118   -2.6431    2.1558 H   0  0  0  0  0  0  0  0  0  0  0  0
    1.9355   -2.3496    4.3566 H   0  0  0  0  0  0  0  0  0  0  0  0
    2.2503   -0.0367    5.2433 H   0  0  0  0  0  0  0  0  0  0  0  0
    0.4167    1.6441    1.9627 H   0  0  0  0  0  0  0  0  0  0  0  0
   -1.8222   -1.2919   -0.4271 H   0  0  0  0  0  0  0  0  0  0  0  0
   -4.0858   -0.6072    0.0604 H   0  0  0  0  0  0  0  0  0  0  0  0
   -4.3722    2.1107    1.1674 H   0  0  0  0  0  0  0  0  0  0  0  0
   -6.2627    0.1267    1.0387 H   0  0  0  0  0  0  0  0  0  0  0  0
   -6.6999    1.8259    0.8318 H   0  0  0  0  0  0  0  0  0  0  0  0
   -6.7234   -0.2944   -1.2291 H   0  0  0  0  0  0  0  0  0  0  0  0
   -7.4701    1.3077   -1.2409 H   0  0  0  0  0  0  0  0  0  0  0  0
   -5.7747    1.8453   -2.7880 H   0  0  0  0  0  0  0  0  0  0  0  0
   -4.8159    0.4413   -2.3069 H   0  0  0  0  0  0  0  0  0  0  0  0
   -4.9864    3.1521   -0.9237 H   0  0  0  0  0  0  0  0  0  0  0  0
   -3.5222    2.2572   -1.3806 H   0  0  0  0  0  0  0  0  0  0  0  0
   -1.7760   -3.6092    0.1559 H   0  0  0  0  0  0  0  0  0  0  0  0
   -2.5546   -5.3576    1.7095 H   0  0  0  0  0  0  0  0  0  0  0  0
   -3.2902   -4.7565    4.0046 H   0  0  0  0  0  0  0  0  0  0  0  0
   -3.2341   -2.3913    4.7424 H   0  0  0  0  0  0  0  0  0  0  0  0
   -2.4589   -0.6263    3.2169 H   0  0  0  0  0  0  0  0  0  0  0  0
  1  2  1  0
  2  3  2  0
  3  4  1  0
  4  5  1  0
  5  6  1  0
  6  7  2  0
  6  8  1  0
  8  9  1  0
  9 10  1  0
 10 11  2  0
 10 12  1  0
 12 13  1  0
 13 14  2  0
 14 15  1  0
 15 16  2  0
 16 17  1  0
 17 18  2  0
 12 19  1  0
 19 20  1  0
 20 21  2  0
 20 22  1  0
 22 23  1  0
 23 24  1  0
 24 25  1  0
 25 26  1  0
 26 27  1  0
 19 28  1  0
 28 29  2  0
 29 30  1  0
 30 31  2  0
 31 32  1  0
 32 33  2  0
  4 34  2  0
 34 35  1  0
 35  2  1  0
 18 13  1  0
 27 23  1  0
 33 28  1  0
  1 36  1  0
  1 37  1  0
  1 38  1  0
  3 39  1  0
  5 40  1  0
  8 41  1  0
  8 42  1  0
  9 43  1  0
  9 44  1  0
 14 45  1  0
 15 46  1  0
 16 47  1  0
 18 48  1  0
 19 49  1  0
 22 50  1  0
 23 51  1  0
 24 52  1  0
 24 53  1  0
 25 54  1  0
 25 55  1  0
 26 56  1  0
 26 57  1  0
 27 58  1  0
 27 59  1  0
 29 60  1  0
 30 61  1  0
 31 62  1  0
 32 63  1  0
 33 64  1  0
M  END
$$$$
