
     RDKit          3D

 45 49  0  0  0  0  0  0  0  0999 V2000
    7.4999   -0.8313   -0.9542 Cl  0  0  0  0  0  0  0  0  0  0  0  0
    6.2024   -0.1261   -0.0672 C   0  0  0  0  0  0  0  0  0  0  0  0
    6.4675    0.5422    1.1215 C   0  0  0  0  0  0  0  0  0  0  0  0
    5.4132    1.1071    1.8279 C   0  0  0  0  0  0  0  0  0  0  0  0
    4.1062    1.0011    1.3363 C   0  0  0  0  0  0  0  0  0  0  0  0
    3.8091    0.3369    0.1321 C   0  0  0  0  0  0  0  0  0  0  0  0
    2.5045    0.2369   -0.3291 N   0  0  0  0  0  0  0  0  0  0  0  0
    2.1244   -0.6892   -1.4098 C   0  0  0  0  0  0  0  0  0  0  0  0
    0.6136   -1.0174   -1.3750 C   0  0  0  0  0  0  0  0  0  0  0  0
   -0.2653    0.1791   -1.3427 N   0  0  0  0  0  0  0  0  0  0  0  0
   -1.5077    0.0354   -0.7196 C   0  0  0  0  0  0  0  0  0  0  0  0
   -1.8081    0.8256    0.2816 N   0  0  0  0  0  0  0  0  0  0  0  0
   -3.0299    0.6856    0.9679 C   0  0  0  0  0  0  0  0  0  0  0  0
   -3.2930    1.5465    2.0353 C   0  0  0  0  0  0  0  0  0  0  0  0
   -4.4843    1.4432    2.7586 C   0  0  0  0  0  0  0  0  0  0  0  0
   -5.4275    0.4725    2.4193 C   0  0  0  0  0  0  0  0  0  0  0  0
   -5.1857   -0.3983    1.3562 C   0  0  0  0  0  0  0  0  0  0  0  0
   -3.9891   -0.2829    0.6423 C   0  0  0  0  0  0  0  0  0  0  0  0
   -3.6711   -1.1079   -0.4484 N   0  0  0  0  0  0  0  0  0  0  0  0
   -4.4036   -2.1208   -1.0209 C   0  0  0  0  0  0  0  0  0  0  0  0
   -3.7080   -2.5903   -2.1135 C   0  0  0  0  0  0  0  0  0  0  0  0
   -2.5076   -1.8468   -2.1962 C   0  0  0  0  0  0  0  0  0  0  0  0
   -2.4852   -0.9600   -1.1343 C   0  0  0  0  0  0  0  0  0  0  0  0
    0.4736    1.4425   -1.1311 C   0  0  0  0  0  0  0  0  0  0  0  0
    1.5244    1.3016   -0.0131 C   0  0  0  0  0  0  0  0  0  0  0  0
    4.8945   -0.2306   -0.5534 C   0  0  0  0  0  0  0  0  0  0  0  0
    7.4821    0.6217    1.5004 H   0  0  0  0  0  0  0  0  0  0  0  0
    5.5984    1.6246    2.7655 H   0  0  0  0  0  0  0  0  0  0  0  0
    3.3072    1.4317    1.9354 H   0  0  0  0  0  0  0  0  0  0  0  0
    2.6634   -1.6397   -1.3163 H   0  0  0  0  0  0  0  0  0  0  0  0
    2.3874   -0.2464   -2.3784 H   0  0  0  0  0  0  0  0  0  0  0  0
    0.4195   -1.6296   -0.4844 H   0  0  0  0  0  0  0  0  0  0  0  0
    0.3748   -1.6219   -2.2550 H   0  0  0  0  0  0  0  0  0  0  0  0
   -2.5598    2.3021    2.3039 H   0  0  0  0  0  0  0  0  0  0  0  0
   -4.6739    2.1210    3.5870 H   0  0  0  0  0  0  0  0  0  0  0  0
   -6.3532    0.3961    2.9846 H   0  0  0  0  0  0  0  0  0  0  0  0
   -5.9350   -1.1428    1.1094 H   0  0  0  0  0  0  0  0  0  0  0  0
   -5.3643   -2.4215   -0.6292 H   0  0  0  0  0  0  0  0  0  0  0  0
   -4.0370   -3.3737   -2.7841 H   0  0  0  0  0  0  0  0  0  0  0  0
   -1.7466   -1.9464   -2.9574 H   0  0  0  0  0  0  0  0  0  0  0  0
    0.9710    1.7075   -2.0730 H   0  0  0  0  0  0  0  0  0  0  0  0
   -0.2042    2.2761   -0.9129 H   0  0  0  0  0  0  0  0  0  0  0  0
    2.0247    2.2722    0.0908 H   0  0  0  0  0  0  0  0  0  0  0  0
    1.0353    1.0625    0.9383 H   0  0  0  0  0  0  0  0  0  0  0  0
    4.7430   -0.7484   -1.4950 H   0  0  0  0  0  0  0  0  0  0  0  0
  1  2  1  0
  2  3  2  0
  3  4  1  0
  4  5  2  0
  5  6  1  0
  6  7  1  0
  7  8  1  0
  8  9  1  0
  9 10  1  0
 10 11  1  0
 11 12  2  0
 12 13  1  0
 13 14  2  0
 14 15  1  0
 15 16  2  0
 16 17  1  0
 17 18  2  0
 18 19  1  0
 19 20  1  0
 20 21  2  0
 21 22  1  0
 22 23  2  0
 10 24  1  0
 24 25  1  0
  6 26  2  0
 26  2  1  0
 25  7  1  0
 23 11  1  0
 18 13  1  0
 23 19  1  0
  3 27  1  0
  4 28  1  0
  5 29  1  0
  8 30  1  0
  8 31  1  0
  9 32  1  0
  9 33  1  0
 14 34  1  0
 15 35  1  0
 16 36  1  0
 17 37  1  0
 20 38  1  0
 21 39  1  0
 22 40  1  0
 24 41  1  0
 24 42  1  0
 25 43  1  0
 25 44  1  0
 26 45  1  0
M  END
$$$$
