
     RDKit          3D

 55 58  0  0  0  0  0  0  0  0999 V2000
    3.6192    1.5209   -1.8245 O   0  0  0  0  0  0  0  0  0  0  0  0
    2.8011    1.5936   -0.9038 C   0  0  0  0  0  0  0  0  0  0  0  0
    1.9714    2.8364   -0.6586 C   0  0  0  0  0  0  0  0  0  0  0  0
    0.3257    2.6729   -1.4078 S   0  0  0  0  0  0  0  0  0  0  0  0
   -0.5427    1.8997   -0.1303 C   0  0  0  0  0  0  0  0  0  0  0  0
   -0.0207    1.4717    0.9944 N   0  0  0  0  0  0  0  0  0  0  0  0
   -1.0374    0.9512    1.7506 N   0  0  0  0  0  0  0  0  0  0  0  0
   -2.1746    1.1181    1.0959 C   0  0  0  0  0  0  0  0  0  0  0  0
   -3.4961    0.7496    1.5950 C   0  0  0  0  0  0  0  0  0  0  0  0
   -3.7537   -0.5943    1.9105 C   0  0  0  0  0  0  0  0  0  0  0  0
   -5.0042   -0.9832    2.3972 C   0  0  0  0  0  0  0  0  0  0  0  0
   -6.0034   -0.0297    2.5894 C   0  0  0  0  0  0  0  0  0  0  0  0
   -5.7569    1.3156    2.2997 C   0  0  0  0  0  0  0  0  0  0  0  0
   -4.5072    1.6983    1.8094 C   0  0  0  0  0  0  0  0  0  0  0  0
   -4.2714    3.0213    1.5353 O   0  0  0  0  0  0  0  0  0  0  0  0
   -1.8890    1.6502   -0.1470 N   0  0  0  0  0  0  0  0  0  0  0  0
   -2.8241    1.8663   -1.2342 C   0  0  0  0  0  0  0  0  0  0  0  0
   -3.2875    0.5680   -1.8560 C   0  0  0  0  0  0  0  0  0  0  0  0
   -2.3989   -0.2428   -2.5829 C   0  0  0  0  0  0  0  0  0  0  0  0
   -2.8362   -1.4399   -3.1496 C   0  0  0  0  0  0  0  0  0  0  0  0
   -4.1617   -1.8428   -2.9973 C   0  0  0  0  0  0  0  0  0  0  0  0
   -5.0553   -1.0453   -2.2834 C   0  0  0  0  0  0  0  0  0  0  0  0
   -4.6219    0.1545   -1.7182 C   0  0  0  0  0  0  0  0  0  0  0  0
    2.5745    0.5588   -0.0156 N   0  0  0  0  0  0  0  0  0  0  0  0
    3.5356   -0.4595    0.0398 N   0  0  0  0  0  0  0  0  0  0  0  0
    4.2652   -0.5795    1.2056 C   0  0  0  0  0  0  0  0  0  0  0  0
    3.9200   -0.0459    2.2585 O   0  0  0  0  0  0  0  0  0  0  0  0
    5.5287   -1.3827    1.1420 C   0  0  0  0  0  0  0  0  0  0  0  0
    6.2149   -1.5903    2.3499 C   0  0  0  0  0  0  0  0  0  0  0  0
    7.4148   -2.3075    2.3800 C   0  0  0  0  0  0  0  0  0  0  0  0
    7.9444   -2.8274    1.2027 C   0  0  0  0  0  0  0  0  0  0  0  0
    7.2766   -2.6347   -0.0054 C   0  0  0  0  0  0  0  0  0  0  0  0
    6.0741   -1.9136   -0.0365 C   0  0  0  0  0  0  0  0  0  0  0  0
    5.4487   -1.7295   -1.2423 O   0  0  0  0  0  0  0  0  0  0  0  0
    1.9233    3.0665    0.4107 H   0  0  0  0  0  0  0  0  0  0  0  0
    2.4820    3.6781   -1.1377 H   0  0  0  0  0  0  0  0  0  0  0  0
   -2.9736   -1.3458    1.7744 H   0  0  0  0  0  0  0  0  0  0  0  0
   -5.1914   -2.0314    2.6304 H   0  0  0  0  0  0  0  0  0  0  0  0
   -6.9752   -0.3363    2.9702 H   0  0  0  0  0  0  0  0  0  0  0  0
   -6.5489    2.0483    2.4548 H   0  0  0  0  0  0  0  0  0  0  0  0
   -4.9051    3.5565    2.0442 H   0  0  0  0  0  0  0  0  0  0  0  0
   -2.3636    2.4899   -2.0064 H   0  0  0  0  0  0  0  0  0  0  0  0
   -3.6665    2.4486   -0.8507 H   0  0  0  0  0  0  0  0  0  0  0  0
   -1.3578    0.0506   -2.7132 H   0  0  0  0  0  0  0  0  0  0  0  0
   -2.1409   -2.0614   -3.7101 H   0  0  0  0  0  0  0  0  0  0  0  0
   -4.4975   -2.7791   -3.4369 H   0  0  0  0  0  0  0  0  0  0  0  0
   -6.0898   -1.3602   -2.1631 H   0  0  0  0  0  0  0  0  0  0  0  0
   -5.3334    0.7587   -1.1574 H   0  0  0  0  0  0  0  0  0  0  0  0
    2.0396    0.7152    0.8466 H   0  0  0  0  0  0  0  0  0  0  0  0
    3.9960   -0.6940   -0.8425 H   0  0  0  0  0  0  0  0  0  0  0  0
    5.8180   -1.1864    3.2797 H   0  0  0  0  0  0  0  0  0  0  0  0
    7.9327   -2.4528    3.3234 H   0  0  0  0  0  0  0  0  0  0  0  0
    8.8809   -3.3809    1.2282 H   0  0  0  0  0  0  0  0  0  0  0  0
    7.7101   -3.0485   -0.9122 H   0  0  0  0  0  0  0  0  0  0  0  0
    5.9889   -2.1337   -1.9457 H   0  0  0  0  0  0  0  0  0  0  0  0
  1  2  2  0
  2  3  1  0
  3  4  1  0
  4  5  1  0
  5  6  2  0
  6  7  1  0
  7  8  2  0
  8  9  1  0
  9 10  2  0
 10 11  1  0
 11 12  2  0
 12 13  1  0
 13 14  2  0
 14 15  1  0
  8 16  1  0
 16 17  1  0
 17 18  1  0
 18 19  2  0
 19 20  1  0
 20 21  2  0
 21 22  1  0
 22 23  2  0
  2 24  1  0
 24 25  1  0
 25 26  1  0
 26 27  2  0
 26 28  1  0
 28 29  2  0
 29 30  1  0
 30 31  2  0
 31 32  1  0
 32 33  2  0
 33 34  1  0
 16  5  1  0
 23 18  1  0
 33 28  1  0
 14  9  1  0
  3 35  1  0
  3 36  1  0
 10 37  1  0
 11 38  1  0
 12 39  1  0
 13 40  1  0
 15 41  1  0
 17 42  1  0
 17 43  1  0
 19 44  1  0
 20 45  1  0
 21 46  1  0
 22 47  1  0
 23 48  1  0
 24 49  1  0
 25 50  1  0
 29 51  1  0
 30 52  1  0
 31 53  1  0
 32 54  1  0
 34 55  1  0
M  END
$$$$
