
     RDKit          3D

 37 38  0  0  0  0  0  0  0  0999 V2000
   -3.9332   -1.7422   -0.3713 C   0  0  0  0  0  0  0  0  0  0  0  0
   -3.8844   -0.3821   -0.9640 N   0  0  0  0  0  0  0  0  0  0  0  0
   -4.8337   -0.2584   -2.0956 C   0  0  0  0  0  0  0  0  0  0  0  0
   -4.0158    0.9043    0.1660 S   0  0  0  0  0  6  0  0  0  0  0  0
   -5.0581    0.5118    1.0893 O   0  0  0  0  0  0  0  0  0  0  0  0
   -4.0653    2.1454   -0.5752 O   0  0  0  0  0  0  0  0  0  0  0  0
   -2.4591    0.9054    1.0161 C   0  0  0  0  0  0  0  0  0  0  0  0
   -1.3391    0.3338    0.3919 C   0  0  0  0  0  0  0  0  0  0  0  0
   -0.0914    0.3025    1.0379 C   0  0  0  0  0  0  0  0  0  0  0  0
    1.0158   -0.3584    0.2954 C   0  0  0  0  0  0  0  0  0  0  0  0
    0.7433   -1.3697   -0.3440 O   0  0  0  0  0  0  0  0  0  0  0  0
    2.2346    0.2670    0.3533 N   0  0  0  0  0  0  0  0  0  0  0  0
    3.3769   -0.1523   -0.2822 C   0  0  0  0  0  0  0  0  0  0  0  0
    3.5900   -1.2648   -1.1239 C   0  0  0  0  0  0  0  0  0  0  0  0
    4.9179   -1.2015   -1.4770 C   0  0  0  0  0  0  0  0  0  0  0  0
    5.4120   -0.0971   -0.8525 N   0  0  0  0  0  0  0  0  0  0  0  0
    6.7653    0.3993   -0.9077 C   0  0  0  0  0  0  0  0  0  0  0  0
    4.4946    0.5612   -0.1212 N   0  0  0  0  0  0  0  0  0  0  0  0
    0.0253    0.8492    2.3200 C   0  0  0  0  0  0  0  0  0  0  0  0
    1.4848    0.8065    3.2413 Cl  0  0  0  0  0  0  0  0  0  0  0  0
   -1.0877    1.4451    2.9266 C   0  0  0  0  0  0  0  0  0  0  0  0
   -2.3291    1.4837    2.2782 C   0  0  0  0  0  0  0  0  0  0  0  0
   -3.6018    2.3051    3.1026 Cl  0  0  0  0  0  0  0  0  0  0  0  0
   -4.9556   -2.0116   -0.0890 H   0  0  0  0  0  0  0  0  0  0  0  0
   -3.2870   -1.8200    0.5067 H   0  0  0  0  0  0  0  0  0  0  0  0
   -3.5690   -2.4686   -1.1050 H   0  0  0  0  0  0  0  0  0  0  0  0
   -5.8690   -0.2595   -1.7415 H   0  0  0  0  0  0  0  0  0  0  0  0
   -4.7020   -1.0970   -2.7873 H   0  0  0  0  0  0  0  0  0  0  0  0
   -4.6365    0.6571   -2.6606 H   0  0  0  0  0  0  0  0  0  0  0  0
   -1.4242   -0.0876   -0.6101 H   0  0  0  0  0  0  0  0  0  0  0  0
    2.3811    1.0967    0.9120 H   0  0  0  0  0  0  0  0  0  0  0  0
    2.8764   -2.0150   -1.4334 H   0  0  0  0  0  0  0  0  0  0  0  0
    5.5291   -1.8364   -2.1025 H   0  0  0  0  0  0  0  0  0  0  0  0
    7.3676   -0.2552   -1.5425 H   0  0  0  0  0  0  0  0  0  0  0  0
    6.7453    1.4090   -1.3252 H   0  0  0  0  0  0  0  0  0  0  0  0
    7.1700    0.4103    0.1074 H   0  0  0  0  0  0  0  0  0  0  0  0
   -0.9879    1.8841    3.9187 H   0  0  0  0  0  0  0  0  0  0  0  0
  1  2  1  0
  2  3  1  0
  2  4  1  0
  4  5  2  0
  4  6  2  0
  4  7  1  0
  7  8  2  0
  8  9  1  0
  9 10  1  0
 10 11  2  0
 10 12  1  0
 12 13  1  0
 13 14  1  0
 14 15  2  0
 15 16  1  0
 16 17  1  0
 16 18  1  0
  9 19  2  0
 19 20  1  0
 19 21  1  0
 21 22  2  0
 22 23  1  0
 22  7  1  0
 18 13  2  0
  1 24  1  0
  1 25  1  0
  1 26  1  0
  3 27  1  0
  3 28  1  0
  3 29  1  0
  8 30  1  0
 12 31  1  0
 14 32  1  0
 15 33  1  0
 17 34  1  0
 17 35  1  0
 17 36  1  0
 21 37  1  0
M  END
$$$$
