
     RDKit          3D

 73 75  0  0  0  0  0  0  0  0999 V2000
   -0.1767   -1.5163   -4.6371 C   0  0  0  0  0  0  0  0  0  0  0  0
   -0.0083   -1.5459   -3.1217 C   0  0  0  0  0  0  0  0  0  0  0  0
   -1.2673   -1.0628   -2.3867 C   0  0  0  0  0  0  0  0  0  0  0  0
   -0.8938   -0.8488   -0.5938 S   0  0  0  0  0  0  0  0  0  0  0  0
    0.0483    0.6221   -0.6830 C   0  0  0  0  0  0  0  0  0  0  0  0
   -0.5140    1.6327   -1.2587 N   0  0  0  0  0  0  0  0  0  0  0  0
    0.1965    2.8334   -1.3462 C   0  0  0  0  0  0  0  0  0  0  0  0
   -0.3965    3.9229   -1.9885 C   0  0  0  0  0  0  0  0  0  0  0  0
    0.2802    5.1416   -2.0716 C   0  0  0  0  0  0  0  0  0  0  0  0
   -0.3412    6.1751   -2.7213 O   0  0  0  0  0  0  0  0  0  0  0  0
   -0.9044    7.0848   -1.7738 C   0  0  0  0  0  0  0  0  0  0  0  0
    1.5724    5.2676   -1.5516 C   0  0  0  0  0  0  0  0  0  0  0  0
    2.2700    6.4448   -1.6053 O   0  0  0  0  0  0  0  0  0  0  0  0
    2.8161    6.6426   -2.9116 C   0  0  0  0  0  0  0  0  0  0  0  0
    2.1653    4.1940   -0.8936 C   0  0  0  0  0  0  0  0  0  0  0  0
    1.4709    2.9816   -0.8035 C   0  0  0  0  0  0  0  0  0  0  0  0
    2.0671    1.8130   -0.1357 C   0  0  0  0  0  0  0  0  0  0  0  0
    3.1749    1.9246    0.3832 O   0  0  0  0  0  0  0  0  0  0  0  0
    1.3178    0.6360   -0.1309 N   0  0  0  0  0  0  0  0  0  0  0  0
    1.9335   -0.5104    0.5595 C   0  0  0  0  0  0  0  0  0  0  0  0
    1.6389   -0.4877    2.0679 C   0  0  0  0  0  0  0  0  0  0  0  0
    2.2363   -1.5979    2.9057 C   0  0  0  0  0  0  0  0  0  0  0  0
    3.1498   -2.5344    2.4171 C   0  0  0  0  0  0  0  0  0  0  0  0
    3.6753   -3.5151    3.2629 C   0  0  0  0  0  0  0  0  0  0  0  0
    3.3074   -3.5908    4.6120 C   0  0  0  0  0  0  0  0  0  0  0  0
    3.9416   -4.6055    5.2800 O   0  0  0  0  0  0  0  0  0  0  0  0
    3.3491   -5.0740    6.4842 C   0  0  0  0  0  0  0  0  0  0  0  0
    2.4182   -2.6403    5.1257 C   0  0  0  0  0  0  0  0  0  0  0  0
    2.0676   -2.6873    6.4497 O   0  0  0  0  0  0  0  0  0  0  0  0
    1.9821   -1.4190    7.0941 C   0  0  0  0  0  0  0  0  0  0  0  0
    1.8756   -1.6716    4.2636 C   0  0  0  0  0  0  0  0  0  0  0  0
   -2.4328   -2.0587   -2.4833 C   0  0  0  0  0  0  0  0  0  0  0  0
   -2.3241   -3.1906   -2.9432 O   0  0  0  0  0  0  0  0  0  0  0  0
   -3.6345   -1.5469   -2.0247 N   0  0  0  0  0  0  0  0  0  0  0  0
   -4.8089   -2.3914   -1.9069 C   0  0  0  0  0  0  0  0  0  0  0  0
   -6.1070   -1.6063   -2.1071 C   0  0  0  0  0  0  0  0  0  0  0  0
   -7.2666   -2.4228   -1.9219 O   0  0  0  0  0  0  0  0  0  0  0  0
   -7.5679   -3.2282   -3.0558 C   0  0  0  0  0  0  0  0  0  0  0  0
   -0.9565   -2.2086   -4.9702 H   0  0  0  0  0  0  0  0  0  0  0  0
    0.7584   -1.8142   -5.1215 H   0  0  0  0  0  0  0  0  0  0  0  0
   -0.4332   -0.5103   -4.9839 H   0  0  0  0  0  0  0  0  0  0  0  0
    0.2604   -2.5646   -2.8173 H   0  0  0  0  0  0  0  0  0  0  0  0
    0.8487   -0.9043   -2.8802 H   0  0  0  0  0  0  0  0  0  0  0  0
   -1.6144   -0.1135   -2.8105 H   0  0  0  0  0  0  0  0  0  0  0  0
   -1.3897    3.8230   -2.4182 H   0  0  0  0  0  0  0  0  0  0  0  0
   -1.6782    6.5913   -1.1730 H   0  0  0  0  0  0  0  0  0  0  0  0
   -1.3803    7.8977   -2.3343 H   0  0  0  0  0  0  0  0  0  0  0  0
   -0.1414    7.5259   -1.1229 H   0  0  0  0  0  0  0  0  0  0  0  0
    2.0284    6.8287   -3.6488 H   0  0  0  0  0  0  0  0  0  0  0  0
    3.4341    5.7899   -3.2181 H   0  0  0  0  0  0  0  0  0  0  0  0
    3.4587    7.5258   -2.8711 H   0  0  0  0  0  0  0  0  0  0  0  0
    3.1570    4.2994   -0.4596 H   0  0  0  0  0  0  0  0  0  0  0  0
    3.0177   -0.4702    0.3930 H   0  0  0  0  0  0  0  0  0  0  0  0
    1.5987   -1.4522    0.1126 H   0  0  0  0  0  0  0  0  0  0  0  0
    0.5505   -0.5030    2.2116 H   0  0  0  0  0  0  0  0  0  0  0  0
    1.9966    0.4637    2.4832 H   0  0  0  0  0  0  0  0  0  0  0  0
    3.4797   -2.5286    1.3817 H   0  0  0  0  0  0  0  0  0  0  0  0
    4.3902   -4.2319    2.8676 H   0  0  0  0  0  0  0  0  0  0  0  0
    3.8024   -6.0436    6.7180 H   0  0  0  0  0  0  0  0  0  0  0  0
    3.5826   -4.4016    7.3150 H   0  0  0  0  0  0  0  0  0  0  0  0
    2.2705   -5.2345    6.3769 H   0  0  0  0  0  0  0  0  0  0  0  0
    2.0567   -1.5879    8.1737 H   0  0  0  0  0  0  0  0  0  0  0  0
    1.0121   -0.9513    6.8956 H   0  0  0  0  0  0  0  0  0  0  0  0
    2.8052   -0.7551    6.8040 H   0  0  0  0  0  0  0  0  0  0  0  0
    1.1553   -0.9523    4.6454 H   0  0  0  0  0  0  0  0  0  0  0  0
   -3.5622   -0.7589   -1.3889 H   0  0  0  0  0  0  0  0  0  0  0  0
   -4.7457   -3.2187   -2.6198 H   0  0  0  0  0  0  0  0  0  0  0  0
   -4.7908   -2.8402   -0.9075 H   0  0  0  0  0  0  0  0  0  0  0  0
   -6.1603   -0.8071   -1.3577 H   0  0  0  0  0  0  0  0  0  0  0  0
   -6.1315   -1.1194   -3.0906 H   0  0  0  0  0  0  0  0  0  0  0  0
   -7.7155   -2.6062   -3.9422 H   0  0  0  0  0  0  0  0  0  0  0  0
   -6.7774   -3.9619   -3.2368 H   0  0  0  0  0  0  0  0  0  0  0  0
   -8.4973   -3.7697   -2.8530 H   0  0  0  0  0  0  0  0  0  0  0  0
  1  2  1  0
  2  3  1  0
  3  4  1  0
  4  5  1  0
  5  6  2  0
  6  7  1  0
  7  8  2  0
  8  9  1  0
  9 10  1  0
 10 11  1  0
  9 12  2  0
 12 13  1  0
 13 14  1  0
 12 15  1  0
 15 16  2  0
 16 17  1  0
 17 18  2  0
 17 19  1  0
 19 20  1  0
 20 21  1  0
 21 22  1  0
 22 23  2  0
 23 24  1  0
 24 25  2  0
 25 26  1  0
 26 27  1  0
 25 28  1  0
 28 29  1  0
 29 30  1  0
 28 31  2  0
  3 32  1  0
 32 33  2  0
 32 34  1  0
 34 35  1  0
 35 36  1  0
 36 37  1  0
 37 38  1  0
 19  5  1  0
 31 22  1  0
 16  7  1  0
  1 39  1  0
  1 40  1  0
  1 41  1  0
  2 42  1  0
  2 43  1  0
  3 44  1  0
  8 45  1  0
 11 46  1  0
 11 47  1  0
 11 48  1  0
 14 49  1  0
 14 50  1  0
 14 51  1  0
 15 52  1  0
 20 53  1  0
 20 54  1  0
 21 55  1  0
 21 56  1  0
 23 57  1  0
 24 58  1  0
 27 59  1  0
 27 60  1  0
 27 61  1  0
 30 62  1  0
 30 63  1  0
 30 64  1  0
 31 65  1  0
 34 66  1  0
 35 67  1  0
 35 68  1  0
 36 69  1  0
 36 70  1  0
 38 71  1  0
 38 72  1  0
 38 73  1  0
M  END
$$$$
