
     RDKit          3D

 51 55  0  0  0  0  0  0  0  0999 V2000
  -10.1657   -0.0158   -2.4334 C   0  0  0  0  0  0  0  0  0  0  0  0
   -9.5723    0.2717   -1.0853 C   0  0  0  0  0  0  0  0  0  0  0  0
  -10.3541    0.8735   -0.0908 C   0  0  0  0  0  0  0  0  0  0  0  0
   -9.8126    1.1560    1.1634 C   0  0  0  0  0  0  0  0  0  0  0  0
   -8.4766    0.8583    1.4296 C   0  0  0  0  0  0  0  0  0  0  0  0
   -7.6738    0.2872    0.4358 C   0  0  0  0  0  0  0  0  0  0  0  0
   -6.2481   -0.0045    0.7617 C   0  0  0  0  0  0  0  0  0  0  0  0
   -5.9769   -0.3441    1.9060 O   0  0  0  0  0  0  0  0  0  0  0  0
   -5.3713    0.1743   -0.2829 N   0  0  0  0  0  0  0  0  0  0  0  0
   -4.0114   -0.0163   -0.2538 C   0  0  0  0  0  0  0  0  0  0  0  0
   -3.2537    0.2191   -1.3042 N   0  0  0  0  0  0  0  0  0  0  0  0
   -1.9192   -0.0335   -1.0483 N   0  0  0  0  0  0  0  0  0  0  0  0
   -1.7316   -0.4505    0.1857 C   0  0  0  0  0  0  0  0  0  0  0  0
   -0.1479   -0.8191    0.8186 S   0  0  0  0  0  0  0  0  0  0  0  0
    0.7156   -1.2485   -0.7173 C   0  0  0  0  0  0  0  0  0  0  0  0
    2.1439   -1.6468   -0.3833 C   0  0  0  0  0  0  0  0  0  0  0  0
    2.4326   -2.8186   -0.1567 O   0  0  0  0  0  0  0  0  0  0  0  0
    3.0164   -0.5679   -0.3702 N   0  0  0  0  0  0  0  0  0  0  0  0
    4.3919   -0.5739   -0.0496 C   0  0  0  0  0  0  0  0  0  0  0  0
    5.0817   -1.7115    0.3846 C   0  0  0  0  0  0  0  0  0  0  0  0
    6.4490   -1.6648    0.7109 C   0  0  0  0  0  0  0  0  0  0  0  0
    7.1353   -0.4451    0.5909 C   0  0  0  0  0  0  0  0  0  0  0  0
    6.4257    0.6649    0.1511 C   0  0  0  0  0  0  0  0  0  0  0  0
    5.0688    0.6501   -0.1727 C   0  0  0  0  0  0  0  0  0  0  0  0
    7.2370    1.7568    0.0838 O   0  0  0  0  0  0  0  0  0  0  0  0
    8.4745    1.3570    0.4893 C   0  0  0  0  0  0  0  0  0  0  0  0
    9.5988    2.1759    0.5710 C   0  0  0  0  0  0  0  0  0  0  0  0
   10.7794    1.5736    1.0196 C   0  0  0  0  0  0  0  0  0  0  0  0
   10.8147    0.2195    1.3639 C   0  0  0  0  0  0  0  0  0  0  0  0
    9.6665   -0.5805    1.2684 C   0  0  0  0  0  0  0  0  0  0  0  0
    8.4677    0.0053    0.8189 C   0  0  0  0  0  0  0  0  0  0  0  0
   -3.1621   -0.5689    1.1154 S   0  0  0  0  0  0  0  0  0  0  0  0
   -8.2259   -0.0152   -0.8181 C   0  0  0  0  0  0  0  0  0  0  0  0
  -11.1956   -0.3753   -2.3320 H   0  0  0  0  0  0  0  0  0  0  0  0
   -9.5998   -0.7906   -2.9604 H   0  0  0  0  0  0  0  0  0  0  0  0
  -10.1631    0.8936   -3.0425 H   0  0  0  0  0  0  0  0  0  0  0  0
  -11.3975    1.1155   -0.2849 H   0  0  0  0  0  0  0  0  0  0  0  0
  -10.4315    1.6071    1.9347 H   0  0  0  0  0  0  0  0  0  0  0  0
   -8.0610    1.0771    2.4117 H   0  0  0  0  0  0  0  0  0  0  0  0
   -5.7013    0.5483   -1.1608 H   0  0  0  0  0  0  0  0  0  0  0  0
    0.7176   -0.4044   -1.4143 H   0  0  0  0  0  0  0  0  0  0  0  0
    0.2251   -2.0944   -1.2107 H   0  0  0  0  0  0  0  0  0  0  0  0
    2.6257    0.3374   -0.6041 H   0  0  0  0  0  0  0  0  0  0  0  0
    4.5824   -2.6692    0.4962 H   0  0  0  0  0  0  0  0  0  0  0  0
    6.9583   -2.5617    1.0517 H   0  0  0  0  0  0  0  0  0  0  0  0
    4.5829    1.5590   -0.5051 H   0  0  0  0  0  0  0  0  0  0  0  0
    9.5546    3.2242    0.3005 H   0  0  0  0  0  0  0  0  0  0  0  0
   11.6848    2.1718    1.1023 H   0  0  0  0  0  0  0  0  0  0  0  0
   11.7463   -0.2226    1.7123 H   0  0  0  0  0  0  0  0  0  0  0  0
    9.7038   -1.6314    1.5409 H   0  0  0  0  0  0  0  0  0  0  0  0
   -7.6281   -0.5023   -1.5844 H   0  0  0  0  0  0  0  0  0  0  0  0
  1  2  1  0
  2  3  2  0
  3  4  1  0
  4  5  2  0
  5  6  1  0
  6  7  1  0
  7  8  2  0
  7  9  1  0
  9 10  1  0
 10 11  2  0
 11 12  1  0
 12 13  2  0
 13 14  1  0
 14 15  1  0
 15 16  1  0
 16 17  2  0
 16 18  1  0
 18 19  1  0
 19 20  2  0
 20 21  1  0
 21 22  2  0
 22 23  1  0
 23 24  2  0
 23 25  1  0
 25 26  1  0
 26 27  2  0
 27 28  1  0
 28 29  2  0
 29 30  1  0
 30 31  2  0
 13 32  1  0
  6 33  2  0
 33  2  1  0
 32 10  1  0
 24 19  1  0
 31 26  1  0
 31 22  1  0
  1 34  1  0
  1 35  1  0
  1 36  1  0
  3 37  1  0
  4 38  1  0
  5 39  1  0
  9 40  1  0
 15 41  1  0
 15 42  1  0
 18 43  1  0
 20 44  1  0
 21 45  1  0
 24 46  1  0
 27 47  1  0
 28 48  1  0
 29 49  1  0
 30 50  1  0
 33 51  1  0
M  END
$$$$
