
     RDKit          3D

 45 47  0  0  0  0  0  0  0  0999 V2000
   -3.6345    2.0267    0.1149 O   0  0  0  0  0  0  0  0  0  0  0  0
   -3.4558    0.8141    0.0153 C   0  0  0  0  0  0  0  0  0  0  0  0
   -4.5797   -0.1526   -0.3399 C   0  0  0  0  0  0  0  0  0  0  0  0
   -5.9288    0.4985   -0.5440 C   0  0  0  0  0  0  0  0  0  0  0  0
   -6.8004    0.6818    0.5398 C   0  0  0  0  0  0  0  0  0  0  0  0
   -8.0427    1.2924    0.3528 C   0  0  0  0  0  0  0  0  0  0  0  0
   -8.4163    1.7281   -0.9164 C   0  0  0  0  0  0  0  0  0  0  0  0
   -9.9479    2.4780   -1.1465 Cl  0  0  0  0  0  0  0  0  0  0  0  0
   -7.5571    1.5621   -2.0000 C   0  0  0  0  0  0  0  0  0  0  0  0
   -6.3146    0.9516   -1.8143 C   0  0  0  0  0  0  0  0  0  0  0  0
   -2.1198    0.2468    0.2386 C   0  0  0  0  0  0  0  0  0  0  0  0
   -1.7418   -1.0809    0.1525 C   0  0  0  0  0  0  0  0  0  0  0  0
   -0.4052   -1.1730    0.4485 N   0  0  0  0  0  0  0  0  0  0  0  0
    0.1160    0.0752    0.7039 C   0  0  0  0  0  0  0  0  0  0  0  0
    1.4889    0.3669    1.0607 C   0  0  0  0  0  0  0  0  0  0  0  0
    1.8284    1.3877    1.6485 O   0  0  0  0  0  0  0  0  0  0  0  0
    2.4004   -0.5957    0.6611 N   0  0  0  0  0  0  0  0  0  0  0  0
    3.8217   -0.3407    0.8073 C   0  0  0  0  0  0  0  0  0  0  0  0
    4.6126   -1.6451    0.8238 C   0  0  0  0  0  0  0  0  0  0  0  0
    6.1084   -1.4188    1.0388 C   0  0  0  0  0  0  0  0  0  0  0  0
    6.7592   -0.7915   -0.0919 N   0  0  0  0  0  0  0  0  0  0  0  0
    7.1011    0.5258   -0.2046 C   0  0  0  0  0  0  0  0  0  0  0  0
    7.6844    0.6335   -1.4459 C   0  0  0  0  0  0  0  0  0  0  0  0
    7.7116   -0.5833   -2.0776 N   0  0  0  0  0  0  0  0  0  0  0  0
    7.1598   -1.4246   -1.2333 C   0  0  0  0  0  0  0  0  0  0  0  0
   -0.9419    0.9636    0.6011 C   0  0  0  0  0  0  0  0  0  0  0  0
   -4.6648   -0.8992    0.4594 H   0  0  0  0  0  0  0  0  0  0  0  0
   -4.3026   -0.6893   -1.2557 H   0  0  0  0  0  0  0  0  0  0  0  0
   -6.5154    0.3590    1.5389 H   0  0  0  0  0  0  0  0  0  0  0  0
   -8.7083    1.4312    1.2003 H   0  0  0  0  0  0  0  0  0  0  0  0
   -7.8440    1.9112   -2.9881 H   0  0  0  0  0  0  0  0  0  0  0  0
   -5.6477    0.8410   -2.6666 H   0  0  0  0  0  0  0  0  0  0  0  0
   -2.3049   -1.9756   -0.0797 H   0  0  0  0  0  0  0  0  0  0  0  0
    0.1176   -2.0367    0.5114 H   0  0  0  0  0  0  0  0  0  0  0  0
    2.1248   -1.1529   -0.1348 H   0  0  0  0  0  0  0  0  0  0  0  0
    3.9973    0.2190    1.7329 H   0  0  0  0  0  0  0  0  0  0  0  0
    4.1178    0.2961   -0.0328 H   0  0  0  0  0  0  0  0  0  0  0  0
    4.2352   -2.2796    1.6357 H   0  0  0  0  0  0  0  0  0  0  0  0
    4.4382   -2.1970   -0.1085 H   0  0  0  0  0  0  0  0  0  0  0  0
    6.2917   -0.7999    1.9245 H   0  0  0  0  0  0  0  0  0  0  0  0
    6.6113   -2.3794    1.2015 H   0  0  0  0  0  0  0  0  0  0  0  0
    6.9083    1.2558    0.5694 H   0  0  0  0  0  0  0  0  0  0  0  0
    8.0870    1.5211   -1.9170 H   0  0  0  0  0  0  0  0  0  0  0  0
    7.0251   -2.4854   -1.4006 H   0  0  0  0  0  0  0  0  0  0  0  0
   -0.8727    2.0340    0.7662 H   0  0  0  0  0  0  0  0  0  0  0  0
  1  2  2  0
  2  3  1  0
  3  4  1  0
  4  5  2  0
  5  6  1  0
  6  7  2  0
  7  8  1  0
  7  9  1  0
  9 10  2  0
  2 11  1  0
 11 12  2  0
 12 13  1  0
 13 14  1  0
 14 15  1  0
 15 16  2  0
 15 17  1  0
 17 18  1  0
 18 19  1  0
 19 20  1  0
 20 21  1  0
 21 22  1  0
 22 23  2  0
 23 24  1  0
 24 25  2  0
 14 26  2  0
 10  4  1  0
 26 11  1  0
 25 21  1  0
  3 27  1  0
  3 28  1  0
  5 29  1  0
  6 30  1  0
  9 31  1  0
 10 32  1  0
 12 33  1  0
 13 34  1  0
 17 35  1  0
 18 36  1  0
 18 37  1  0
 19 38  1  0
 19 39  1  0
 20 40  1  0
 20 41  1  0
 22 42  1  0
 23 43  1  0
 25 44  1  0
 26 45  1  0
M  END
$$$$
