
     RDKit          3D

 49 50  0  0  0  0  0  0  0  0999 V2000
    5.5446   -1.9150    1.8175 C   0  0  0  0  0  0  0  0  0  0  0  0
    5.6499   -0.7116    0.8981 C   0  0  0  0  0  0  0  0  0  0  0  0
    4.5310   -0.6674    0.0029 O   0  0  0  0  0  0  0  0  0  0  0  0
    3.4131   -0.0386    0.4764 C   0  0  0  0  0  0  0  0  0  0  0  0
    3.3396    0.4407    1.6050 O   0  0  0  0  0  0  0  0  0  0  0  0
    2.3189    0.0108   -0.5088 C   0  0  0  0  0  0  0  0  0  0  0  0
    2.2527   -0.5835   -1.8214 C   0  0  0  0  0  0  0  0  0  0  0  0
    3.3194   -1.4038   -2.4707 C   0  0  0  0  0  0  0  0  0  0  0  0
    1.0228   -0.2466   -2.3727 C   0  0  0  0  0  0  0  0  0  0  0  0
    0.4629   -0.5651   -3.7188 C   0  0  0  0  0  0  0  0  0  0  0  0
    0.3126    0.4636   -1.4234 N   0  0  0  0  0  0  0  0  0  0  0  0
   -1.0714    0.9393   -1.5761 C   0  0  0  0  0  0  0  0  0  0  0  0
   -2.0416    0.2326   -0.6511 C   0  0  0  0  0  0  0  0  0  0  0  0
   -2.0816   -1.1707   -0.6203 C   0  0  0  0  0  0  0  0  0  0  0  0
   -2.9730   -1.8374    0.2137 C   0  0  0  0  0  0  0  0  0  0  0  0
   -3.8231   -1.1138    1.0482 C   0  0  0  0  0  0  0  0  0  0  0  0
   -3.7999    0.2858    1.0519 C   0  0  0  0  0  0  0  0  0  0  0  0
   -4.5559    1.0482    1.9059 O   0  0  0  0  0  0  0  0  0  0  0  0
   -5.2067    0.3839    2.9821 C   0  0  0  0  0  0  0  0  0  0  0  0
   -2.9439    0.9601    0.1556 C   0  0  0  0  0  0  0  0  0  0  0  0
   -2.8602    2.3270    0.0336 O   0  0  0  0  0  0  0  0  0  0  0  0
   -4.0881    3.0455    0.1117 C   0  0  0  0  0  0  0  0  0  0  0  0
    1.1110    0.6813   -0.3162 C   0  0  0  0  0  0  0  0  0  0  0  0
    0.6529    1.4798    0.8633 C   0  0  0  0  0  0  0  0  0  0  0  0
    4.6257   -1.8861    2.4108 H   0  0  0  0  0  0  0  0  0  0  0  0
    6.3991   -1.9634    2.4977 H   0  0  0  0  0  0  0  0  0  0  0  0
    5.5105   -2.8408    1.2326 H   0  0  0  0  0  0  0  0  0  0  0  0
    6.5500   -0.7992    0.2802 H   0  0  0  0  0  0  0  0  0  0  0  0
    5.7435    0.2224    1.4654 H   0  0  0  0  0  0  0  0  0  0  0  0
    3.6112   -2.2382   -1.8226 H   0  0  0  0  0  0  0  0  0  0  0  0
    2.9917   -1.8401   -3.4196 H   0  0  0  0  0  0  0  0  0  0  0  0
    4.1996   -0.7850   -2.6762 H   0  0  0  0  0  0  0  0  0  0  0  0
   -0.3829   -1.2548   -3.6269 H   0  0  0  0  0  0  0  0  0  0  0  0
    1.2053   -1.0337   -4.3705 H   0  0  0  0  0  0  0  0  0  0  0  0
    0.1273    0.3471   -4.2234 H   0  0  0  0  0  0  0  0  0  0  0  0
   -1.3972    0.7791   -2.6075 H   0  0  0  0  0  0  0  0  0  0  0  0
   -1.0315    2.0230   -1.4286 H   0  0  0  0  0  0  0  0  0  0  0  0
   -1.4062   -1.7561   -1.2411 H   0  0  0  0  0  0  0  0  0  0  0  0
   -2.9918   -2.9243    0.2289 H   0  0  0  0  0  0  0  0  0  0  0  0
   -4.4893   -1.6760    1.6943 H   0  0  0  0  0  0  0  0  0  0  0  0
   -4.5170   -0.2578    3.5435 H   0  0  0  0  0  0  0  0  0  0  0  0
   -6.0699   -0.1839    2.6150 H   0  0  0  0  0  0  0  0  0  0  0  0
   -5.5771    1.1486    3.6744 H   0  0  0  0  0  0  0  0  0  0  0  0
   -4.9400    2.4795   -0.2855 H   0  0  0  0  0  0  0  0  0  0  0  0
   -3.9846    3.9454   -0.5011 H   0  0  0  0  0  0  0  0  0  0  0  0
   -4.2715    3.3724    1.1399 H   0  0  0  0  0  0  0  0  0  0  0  0
    1.4853    2.0030    1.3406 H   0  0  0  0  0  0  0  0  0  0  0  0
   -0.0662    2.2544    0.5877 H   0  0  0  0  0  0  0  0  0  0  0  0
    0.1900    0.8195    1.6021 H   0  0  0  0  0  0  0  0  0  0  0  0
  1  2  1  0
  2  3  1  0
  3  4  1  0
  4  5  2  0
  4  6  1  0
  6  7  1  0
  7  8  1  0
  7  9  2  0
  9 10  1  0
  9 11  1  0
 11 12  1  0
 12 13  1  0
 13 14  2  0
 14 15  1  0
 15 16  2  0
 16 17  1  0
 17 18  1  0
 18 19  1  0
 17 20  2  0
 20 21  1  0
 21 22  1  0
 11 23  1  0
 23 24  1  0
 23  6  2  0
 20 13  1  0
  1 25  1  0
  1 26  1  0
  1 27  1  0
  2 28  1  0
  2 29  1  0
  8 30  1  0
  8 31  1  0
  8 32  1  0
 10 33  1  0
 10 34  1  0
 10 35  1  0
 12 36  1  0
 12 37  1  0
 14 38  1  0
 15 39  1  0
 16 40  1  0
 19 41  1  0
 19 42  1  0
 19 43  1  0
 22 44  1  0
 22 45  1  0
 22 46  1  0
 24 47  1  0
 24 48  1  0
 24 49  1  0
M  END
$$$$
