
     RDKit          3D

 32 33  0  0  0  0  0  0  0  0999 V2000
   -5.4009   -1.0737    0.0455 C   0  0  0  0  0  0  0  0  0  0  0  0
   -3.9799   -0.6562   -0.1955 C   0  0  0  0  0  0  0  0  0  0  0  0
   -2.9291   -1.5549    0.0274 C   0  0  0  0  0  0  0  0  0  0  0  0
   -1.6060   -1.1795   -0.2280 C   0  0  0  0  0  0  0  0  0  0  0  0
   -0.3660   -2.3517    0.0363 Cl  0  0  0  0  0  0  0  0  0  0  0  0
   -1.3156    0.1053   -0.7011 C   0  0  0  0  0  0  0  0  0  0  0  0
   -0.0228    0.4742   -0.9808 O   0  0  0  0  0  0  0  0  0  0  0  0
    0.6137    1.0250    0.1810 C   0  0  0  0  0  0  0  0  0  0  0  0
    1.8118    1.8579   -0.2717 C   0  0  0  0  0  0  0  0  0  0  0  0
    2.8569    1.0544   -1.0467 C   0  0  0  0  0  0  0  0  0  0  0  0
    3.5637    0.0923   -0.2274 N   0  0  0  0  0  0  0  0  0  0  0  0
    3.3803   -1.2607   -0.2233 C   0  0  0  0  0  0  0  0  0  0  0  0
    4.2742   -1.7359    0.7075 C   0  0  0  0  0  0  0  0  0  0  0  0
    5.0009   -0.7088    1.2531 N   0  0  0  0  0  0  0  0  0  0  0  0
    4.5594    0.3786    0.6622 C   0  0  0  0  0  0  0  0  0  0  0  0
   -2.3680    0.9893   -0.9684 C   0  0  0  0  0  0  0  0  0  0  0  0
   -2.0577    2.7169   -1.6938 Br  0  0  0  0  0  0  0  0  0  0  0  0
   -3.6908    0.6126   -0.7129 C   0  0  0  0  0  0  0  0  0  0  0  0
   -5.8160   -1.5275   -0.8596 H   0  0  0  0  0  0  0  0  0  0  0  0
   -6.0180   -0.2138    0.3262 H   0  0  0  0  0  0  0  0  0  0  0  0
   -5.4613   -1.7977    0.8649 H   0  0  0  0  0  0  0  0  0  0  0  0
   -3.1422   -2.5570    0.3950 H   0  0  0  0  0  0  0  0  0  0  0  0
    0.9342    0.2181    0.8483 H   0  0  0  0  0  0  0  0  0  0  0  0
   -0.0720    1.6766    0.7383 H   0  0  0  0  0  0  0  0  0  0  0  0
    1.4520    2.6576   -0.9307 H   0  0  0  0  0  0  0  0  0  0  0  0
    2.2693    2.3359    0.6023 H   0  0  0  0  0  0  0  0  0  0  0  0
    3.6146    1.7327   -1.4571 H   0  0  0  0  0  0  0  0  0  0  0  0
    2.4109    0.5205   -1.8931 H   0  0  0  0  0  0  0  0  0  0  0  0
    2.6542   -1.7578   -0.8514 H   0  0  0  0  0  0  0  0  0  0  0  0
    4.4343   -2.7623    1.0111 H   0  0  0  0  0  0  0  0  0  0  0  0
    4.9190    1.3831    0.8433 H   0  0  0  0  0  0  0  0  0  0  0  0
   -4.5029    1.3063   -0.9229 H   0  0  0  0  0  0  0  0  0  0  0  0
  1  2  1  0
  2  3  2  0
  3  4  1  0
  4  5  1  0
  4  6  2  0
  6  7  1  0
  7  8  1  0
  8  9  1  0
  9 10  1  0
 10 11  1  0
 11 12  1  0
 12 13  2  0
 13 14  1  0
 14 15  2  0
  6 16  1  0
 16 17  1  0
 16 18  2  0
 18  2  1  0
 15 11  1  0
  1 19  1  0
  1 20  1  0
  1 21  1  0
  3 22  1  0
  8 23  1  0
  8 24  1  0
  9 25  1  0
  9 26  1  0
 10 27  1  0
 10 28  1  0
 12 29  1  0
 13 30  1  0
 15 31  1  0
 18 32  1  0
M  END
$$$$
