
     RDKit          3D

 61 66  0  0  0  0  0  0  0  0999 V2000
   -6.3271    2.6468   -3.8498 F   0  0  0  0  0  0  0  0  0  0  0  0
   -6.5952    1.7380   -2.9029 C   0  0  0  0  0  0  0  0  0  0  0  0
   -7.7185    0.9301   -3.0290 C   0  0  0  0  0  0  0  0  0  0  0  0
   -7.9948   -0.0172   -2.0454 C   0  0  0  0  0  0  0  0  0  0  0  0
   -7.1452   -0.1473   -0.9434 C   0  0  0  0  0  0  0  0  0  0  0  0
   -6.0137    0.6720   -0.8133 C   0  0  0  0  0  0  0  0  0  0  0  0
   -5.0864    0.5165    0.3686 C   0  0  0  0  0  0  0  0  0  0  0  0
   -3.9367   -0.4598    0.0629 C   0  0  0  0  0  0  0  0  0  0  0  0
   -3.0651   -0.7133    1.2241 N   0  0  0  0  0  0  0  0  0  0  0  0
   -2.3717    0.5193    1.6740 C   0  0  0  0  0  0  0  0  0  0  0  0
   -1.0413    0.2541    2.4119 C   0  0  0  0  0  0  0  0  0  0  0  0
   -0.0620   -0.4405    1.5422 N   0  0  0  0  0  0  0  0  0  0  0  0
    1.0482    0.2499    1.1279 C   0  0  0  0  0  0  0  0  0  0  0  0
    1.1595    1.5742    0.7453 C   0  0  0  0  0  0  0  0  0  0  0  0
    2.4592    1.7753    0.2341 C   0  0  0  0  0  0  0  0  0  0  0  0
    3.1295    0.5698    0.3149 C   0  0  0  0  0  0  0  0  0  0  0  0
    4.4583    0.1685   -0.0952 C   0  0  0  0  0  0  0  0  0  0  0  0
    5.3079    1.0689   -0.9183 C   0  0  0  0  0  0  0  0  0  0  0  0
    6.6547    1.2272   -0.5721 C   0  0  0  0  0  0  0  0  0  0  0  0
    7.4793    2.0535   -1.3368 C   0  0  0  0  0  0  0  0  0  0  0  0
    6.9641    2.7111   -2.4538 C   0  0  0  0  0  0  0  0  0  0  0  0
    5.6272    2.5382   -2.8141 C   0  0  0  0  0  0  0  0  0  0  0  0
    4.7987    1.7125   -2.0519 C   0  0  0  0  0  0  0  0  0  0  0  0
    4.9392   -0.9892    0.2499 N   0  0  0  0  0  0  0  0  0  0  0  0
    4.1492   -1.8608    1.0249 C   0  0  0  0  0  0  0  0  0  0  0  0
    4.7214   -3.0728    1.4226 C   0  0  0  0  0  0  0  0  0  0  0  0
    4.0087   -3.9744    2.2142 C   0  0  0  0  0  0  0  0  0  0  0  0
    2.7148   -3.6638    2.6256 C   0  0  0  0  0  0  0  0  0  0  0  0
    2.1247   -2.4597    2.2358 C   0  0  0  0  0  0  0  0  0  0  0  0
    2.8318   -1.5711    1.4196 C   0  0  0  0  0  0  0  0  0  0  0  0
    2.3122   -0.3253    0.9876 N   0  0  0  0  0  0  0  0  0  0  0  0
   -0.6894   -1.2984    0.4995 C   0  0  0  0  0  0  0  0  0  0  0  0
   -2.0853   -1.7904    0.9392 C   0  0  0  0  0  0  0  0  0  0  0  0
   -5.7423    1.6177   -1.8103 C   0  0  0  0  0  0  0  0  0  0  0  0
   -8.3686    1.0429   -3.8903 H   0  0  0  0  0  0  0  0  0  0  0  0
   -8.8704   -0.6549   -2.1352 H   0  0  0  0  0  0  0  0  0  0  0  0
   -7.3719   -0.8932   -0.1840 H   0  0  0  0  0  0  0  0  0  0  0  0
   -4.7003    1.5060    0.6417 H   0  0  0  0  0  0  0  0  0  0  0  0
   -5.6590    0.1638    1.2361 H   0  0  0  0  0  0  0  0  0  0  0  0
   -3.3476   -0.0958   -0.7896 H   0  0  0  0  0  0  0  0  0  0  0  0
   -4.3853   -1.4114   -0.2525 H   0  0  0  0  0  0  0  0  0  0  0  0
   -3.0400    1.0696    2.3460 H   0  0  0  0  0  0  0  0  0  0  0  0
   -2.1556    1.1724    0.8178 H   0  0  0  0  0  0  0  0  0  0  0  0
   -0.6404    1.1967    2.8038 H   0  0  0  0  0  0  0  0  0  0  0  0
   -1.2289   -0.3814    3.2867 H   0  0  0  0  0  0  0  0  0  0  0  0
    0.3645    2.3068    0.7708 H   0  0  0  0  0  0  0  0  0  0  0  0
    2.8476    2.7000   -0.1727 H   0  0  0  0  0  0  0  0  0  0  0  0
    7.0610    0.7075    0.2924 H   0  0  0  0  0  0  0  0  0  0  0  0
    8.5242    2.1787   -1.0646 H   0  0  0  0  0  0  0  0  0  0  0  0
    7.6091    3.3511   -3.0510 H   0  0  0  0  0  0  0  0  0  0  0  0
    5.2338    3.0389   -3.6951 H   0  0  0  0  0  0  0  0  0  0  0  0
    3.7676    1.5619   -2.3597 H   0  0  0  0  0  0  0  0  0  0  0  0
    5.7364   -3.3080    1.1137 H   0  0  0  0  0  0  0  0  0  0  0  0
    4.4695   -4.9103    2.5185 H   0  0  0  0  0  0  0  0  0  0  0  0
    2.1656   -4.3554    3.2597 H   0  0  0  0  0  0  0  0  0  0  0  0
    1.1299   -2.2334    2.6023 H   0  0  0  0  0  0  0  0  0  0  0  0
   -0.0520   -2.1677    0.3035 H   0  0  0  0  0  0  0  0  0  0  0  0
   -0.7845   -0.7415   -0.4424 H   0  0  0  0  0  0  0  0  0  0  0  0
   -2.4764   -2.4972    0.1974 H   0  0  0  0  0  0  0  0  0  0  0  0
   -1.9687   -2.3716    1.8634 H   0  0  0  0  0  0  0  0  0  0  0  0
   -4.8737    2.2661   -1.7486 H   0  0  0  0  0  0  0  0  0  0  0  0
  1  2  1  0
  2  3  2  0
  3  4  1  0
  4  5  2  0
  5  6  1  0
  6  7  1  0
  7  8  1  0
  8  9  1  0
  9 10  1  0
 10 11  1  0
 11 12  1  0
 12 13  1  0
 13 14  2  0
 14 15  1  0
 15 16  2  0
 16 17  1  0
 17 18  1  0
 18 19  2  0
 19 20  1  0
 20 21  2  0
 21 22  1  0
 22 23  2  0
 17 24  2  0
 24 25  1  0
 25 26  2  0
 26 27  1  0
 27 28  2  0
 28 29  1  0
 29 30  2  0
 30 31  1  0
 12 32  1  0
 32 33  1  0
  6 34  2  0
 34  2  1  0
 33  9  1  0
 31 13  1  0
 31 16  1  0
 23 18  1  0
 30 25  1  0
  3 35  1  0
  4 36  1  0
  5 37  1  0
  7 38  1  0
  7 39  1  0
  8 40  1  0
  8 41  1  0
 10 42  1  0
 10 43  1  0
 11 44  1  0
 11 45  1  0
 14 46  1  0
 15 47  1  0
 19 48  1  0
 20 49  1  0
 21 50  1  0
 22 51  1  0
 23 52  1  0
 26 53  1  0
 27 54  1  0
 28 55  1  0
 29 56  1  0
 32 57  1  0
 32 58  1  0
 33 59  1  0
 33 60  1  0
 34 61  1  0
M  END
$$$$
