
     RDKit          3D

 61 64  0  0  0  0  0  0  0  0999 V2000
   -6.1070   -3.4834   -1.6834 C   0  0  0  0  0  0  0  0  0  0  0  0
   -6.0477   -2.2397   -2.3846 O   0  0  0  0  0  0  0  0  0  0  0  0
   -5.9566   -1.1991   -1.5000 C   0  0  0  0  0  0  0  0  0  0  0  0
   -7.1092   -0.4701   -1.2007 C   0  0  0  0  0  0  0  0  0  0  0  0
   -7.0367    0.6057   -0.3172 C   0  0  0  0  0  0  0  0  0  0  0  0
   -8.0837    1.3914    0.0791 O   0  0  0  0  0  0  0  0  0  0  0  0
   -9.3603    1.0890   -0.4687 C   0  0  0  0  0  0  0  0  0  0  0  0
   -5.8011    0.9543    0.2374 C   0  0  0  0  0  0  0  0  0  0  0  0
   -4.6381    0.2485   -0.1014 C   0  0  0  0  0  0  0  0  0  0  0  0
   -3.3444    0.6776    0.5002 C   0  0  0  0  0  0  0  0  0  0  0  0
   -3.3534    1.1962    1.6115 O   0  0  0  0  0  0  0  0  0  0  0  0
   -2.2285    0.4673   -0.3045 N   0  0  0  0  0  0  0  0  0  0  0  0
   -0.9544    0.8991   -0.0345 N   0  0  0  0  0  0  0  0  0  0  0  0
   -0.5680    0.9526    1.2013 C   0  0  0  0  0  0  0  0  0  0  0  0
    0.7718    1.4570    1.5688 C   0  0  0  0  0  0  0  0  0  0  0  0
    1.1017    1.5716    2.9181 C   0  0  0  0  0  0  0  0  0  0  0  0
    2.3604    2.0545    3.2877 C   0  0  0  0  0  0  0  0  0  0  0  0
    3.3013    2.4087    2.3130 C   0  0  0  0  0  0  0  0  0  0  0  0
    4.5400    2.9230    2.5909 O   0  0  0  0  0  0  0  0  0  0  0  0
    5.0344    2.7421    3.9108 C   0  0  0  0  0  0  0  0  0  0  0  0
    2.9763    2.2810    0.9492 C   0  0  0  0  0  0  0  0  0  0  0  0
    3.9688    2.6404   -0.1376 C   0  0  0  0  0  0  0  0  0  0  0  0
    5.2010    1.9203   -0.0478 O   0  0  0  0  0  0  0  0  0  0  0  0
    5.2487    0.6099   -0.4282 C   0  0  0  0  0  0  0  0  0  0  0  0
    6.4406   -0.0384   -0.1018 C   0  0  0  0  0  0  0  0  0  0  0  0
    6.6344   -1.3836   -0.4215 C   0  0  0  0  0  0  0  0  0  0  0  0
    5.6325   -2.1082   -1.0800 C   0  0  0  0  0  0  0  0  0  0  0  0
    5.8041   -3.4631   -1.4065 C   0  0  0  0  0  0  0  0  0  0  0  0
    4.7962   -4.1713   -2.0624 C   0  0  0  0  0  0  0  0  0  0  0  0
    3.6055   -3.5339   -2.3990 C   0  0  0  0  0  0  0  0  0  0  0  0
    3.4212   -2.1869   -2.0818 C   0  0  0  0  0  0  0  0  0  0  0  0
    4.4250   -1.4582   -1.4224 C   0  0  0  0  0  0  0  0  0  0  0  0
    4.2512   -0.0993   -1.0968 C   0  0  0  0  0  0  0  0  0  0  0  0
    1.6981    1.8188    0.5883 C   0  0  0  0  0  0  0  0  0  0  0  0
   -4.7180   -0.8419   -0.9724 C   0  0  0  0  0  0  0  0  0  0  0  0
   -6.3019   -4.2718   -2.4152 H   0  0  0  0  0  0  0  0  0  0  0  0
   -6.9232   -3.4906   -0.9508 H   0  0  0  0  0  0  0  0  0  0  0  0
   -5.1525   -3.7034   -1.1945 H   0  0  0  0  0  0  0  0  0  0  0  0
   -8.0420   -0.7715   -1.6647 H   0  0  0  0  0  0  0  0  0  0  0  0
  -10.0793    1.8017   -0.0537 H   0  0  0  0  0  0  0  0  0  0  0  0
   -9.3612    1.2100   -1.5567 H   0  0  0  0  0  0  0  0  0  0  0  0
   -9.6852    0.0833   -0.1829 H   0  0  0  0  0  0  0  0  0  0  0  0
   -5.7447    1.7932    0.9296 H   0  0  0  0  0  0  0  0  0  0  0  0
   -2.3874    0.3215   -1.2964 H   0  0  0  0  0  0  0  0  0  0  0  0
   -1.1923    0.6066    2.0421 H   0  0  0  0  0  0  0  0  0  0  0  0
    0.3844    1.3048    3.6904 H   0  0  0  0  0  0  0  0  0  0  0  0
    2.5740    2.1570    4.3466 H   0  0  0  0  0  0  0  0  0  0  0  0
    4.5049    3.3906    4.6154 H   0  0  0  0  0  0  0  0  0  0  0  0
    6.0887    3.0359    3.9159 H   0  0  0  0  0  0  0  0  0  0  0  0
    4.9801    1.6930    4.2208 H   0  0  0  0  0  0  0  0  0  0  0  0
    3.5413    2.5544   -1.1441 H   0  0  0  0  0  0  0  0  0  0  0  0
    4.2143    3.7041   -0.0245 H   0  0  0  0  0  0  0  0  0  0  0  0
    7.2255    0.5099    0.4135 H   0  0  0  0  0  0  0  0  0  0  0  0
    7.5737   -1.8590   -0.1493 H   0  0  0  0  0  0  0  0  0  0  0  0
    6.7281   -3.9771   -1.1503 H   0  0  0  0  0  0  0  0  0  0  0  0
    4.9418   -5.2195   -2.3092 H   0  0  0  0  0  0  0  0  0  0  0  0
    2.8189   -4.0841   -2.9087 H   0  0  0  0  0  0  0  0  0  0  0  0
    2.4822   -1.7078   -2.3512 H   0  0  0  0  0  0  0  0  0  0  0  0
    3.3223    0.3798   -1.3828 H   0  0  0  0  0  0  0  0  0  0  0  0
    1.4252    1.7336   -0.4613 H   0  0  0  0  0  0  0  0  0  0  0  0
   -3.8416   -1.4266   -1.2334 H   0  0  0  0  0  0  0  0  0  0  0  0
  1  2  1  0
  2  3  1  0
  3  4  2  0
  4  5  1  0
  5  6  1  0
  6  7  1  0
  5  8  2  0
  8  9  1  0
  9 10  1  0
 10 11  2  0
 10 12  1  0
 12 13  1  0
 13 14  2  3
 14 15  1  0
 15 16  2  0
 16 17  1  0
 17 18  2  0
 18 19  1  0
 19 20  1  0
 18 21  1  0
 21 22  1  0
 22 23  1  0
 23 24  1  0
 24 25  2  0
 25 26  1  0
 26 27  2  0
 27 28  1  0
 28 29  2  0
 29 30  1  0
 30 31  2  0
 31 32  1  0
 32 33  2  0
 21 34  2  0
  9 35  2  0
 35  3  1  0
 34 15  1  0
 33 24  1  0
 32 27  1  0
  1 36  1  0
  1 37  1  0
  1 38  1  0
  4 39  1  0
  7 40  1  0
  7 41  1  0
  7 42  1  0
  8 43  1  0
 12 44  1  0
 14 45  1  0
 16 46  1  0
 17 47  1  0
 20 48  1  0
 20 49  1  0
 20 50  1  0
 22 51  1  0
 22 52  1  0
 25 53  1  0
 26 54  1  0
 28 55  1  0
 29 56  1  0
 30 57  1  0
 31 58  1  0
 33 59  1  0
 34 60  1  0
 35 61  1  0
M  END
$$$$
