
     RDKit          3D

 53 58  0  0  0  0  0  0  0  0999 V2000
    0.6305    1.5324    1.0238 O   0  0  0  0  0  0  0  0  0  0  0  0
    1.3441    0.9180    0.2254 C   0  0  0  0  0  0  0  0  0  0  0  0
    0.6845    0.3454   -1.0500 C   0  0  0  0  0  0  0  0  0  0  0  0
   -0.7492    0.0675   -0.8246 N   0  0  0  0  0  4  0  0  0  0  0  0
   -1.8287    0.6276   -1.5057 C   0  0  0  0  0  0  0  0  0  0  0  0
   -3.0104    0.1354   -0.9634 C   0  0  0  0  0  0  0  0  0  0  0  0
   -4.4696    0.4655   -1.4496 C   0  0  0  0  0  0  0  0  0  0  0  0
   -4.6678    1.3894   -2.4865 C   0  0  0  0  0  0  0  0  0  0  0  0
   -5.9612    1.6841   -2.9271 C   0  0  0  0  0  0  0  0  0  0  0  0
   -7.0488    1.0554   -2.3364 C   0  0  0  0  0  0  0  0  0  0  0  0
   -8.2864    1.3368   -2.7609 F   0  0  0  0  0  0  0  0  0  0  0  0
   -6.8669    0.1353   -1.3128 C   0  0  0  0  0  0  0  0  0  0  0  0
   -5.5751   -0.1624   -0.8676 C   0  0  0  0  0  0  0  0  0  0  0  0
   -2.5723   -0.6831    0.0623 N   0  0  0  0  0  0  0  0  0  0  0  0
   -1.2440   -0.7112    0.1334 C   0  0  0  0  0  0  0  0  0  0  0  0
   -0.7347   -1.5848    1.2167 C   0  0  0  0  0  0  0  0  0  0  0  0
   -2.0065   -1.8406    2.0481 C   0  0  0  0  0  0  0  0  0  0  0  0
   -3.1878   -1.4972    1.1007 C   0  0  0  0  0  0  0  0  0  0  0  0
    2.6786    0.5302    0.4500 N   0  0  0  0  0  0  0  0  0  0  0  0
    3.1978    0.3932    1.7908 C   0  0  0  0  0  0  0  0  0  0  0  0
    2.7753    1.2490    2.8235 C   0  0  0  0  0  0  0  0  0  0  0  0
    3.2542    1.1111    4.1309 C   0  0  0  0  0  0  0  0  0  0  0  0
    4.1650    0.1100    4.4376 C   0  0  0  0  0  0  0  0  0  0  0  0
    4.6016   -0.7499    3.4346 C   0  0  0  0  0  0  0  0  0  0  0  0
    4.1298   -0.6108    2.1198 C   0  0  0  0  0  0  0  0  0  0  0  0
    4.6813   -1.8100    0.9271 S   0  0  0  0  0  0  0  0  0  0  0  0
    4.5278   -0.8178   -0.5325 C   0  0  0  0  0  0  0  0  0  0  0  0
    5.3642   -1.1085   -1.6196 C   0  0  0  0  0  0  0  0  0  0  0  0
    5.2916   -0.3580   -2.7908 C   0  0  0  0  0  0  0  0  0  0  0  0
    4.3932    0.6977   -2.8772 C   0  0  0  0  0  0  0  0  0  0  0  0
    3.5486    0.9838   -1.8020 C   0  0  0  0  0  0  0  0  0  0  0  0
    3.5767    0.2098   -0.6257 C   0  0  0  0  0  0  0  0  0  0  0  0
    1.1370   -0.6072   -1.3420 H   0  0  0  0  0  0  0  0  0  0  0  0
    0.7684    1.0722   -1.8624 H   0  0  0  0  0  0  0  0  0  0  0  0
   -1.6155    1.3085   -2.3118 H   0  0  0  0  0  0  0  0  0  0  0  0
   -3.8418    1.9026   -2.9700 H   0  0  0  0  0  0  0  0  0  0  0  0
   -6.1307    2.3988   -3.7277 H   0  0  0  0  0  0  0  0  0  0  0  0
   -7.7349   -0.3469   -0.8716 H   0  0  0  0  0  0  0  0  0  0  0  0
   -5.4746   -0.8972   -0.0790 H   0  0  0  0  0  0  0  0  0  0  0  0
   -0.3602   -2.4911    0.7348 H   0  0  0  0  0  0  0  0  0  0  0  0
    0.0449   -1.0675    1.7745 H   0  0  0  0  0  0  0  0  0  0  0  0
   -2.0227   -1.1513    2.9004 H   0  0  0  0  0  0  0  0  0  0  0  0
   -2.0604   -2.8601    2.4400 H   0  0  0  0  0  0  0  0  0  0  0  0
   -3.6008   -2.3998    0.6421 H   0  0  0  0  0  0  0  0  0  0  0  0
   -3.9630   -0.9371    1.6292 H   0  0  0  0  0  0  0  0  0  0  0  0
    2.0999    2.0788    2.6361 H   0  0  0  0  0  0  0  0  0  0  0  0
    2.9201    1.7978    4.9062 H   0  0  0  0  0  0  0  0  0  0  0  0
    4.5398    0.0014    5.4527 H   0  0  0  0  0  0  0  0  0  0  0  0
    5.3136   -1.5335    3.6877 H   0  0  0  0  0  0  0  0  0  0  0  0
    6.0919   -1.9165   -1.5564 H   0  0  0  0  0  0  0  0  0  0  0  0
    5.9582   -0.5807   -3.6223 H   0  0  0  0  0  0  0  0  0  0  0  0
    4.3740    1.3164   -3.7717 H   0  0  0  0  0  0  0  0  0  0  0  0
    2.9218    1.8689   -1.8810 H   0  0  0  0  0  0  0  0  0  0  0  0
  1  2  2  0
  2  3  1  0
  3  4  1  0
  4  5  1  0
  5  6  2  0
  6  7  1  0
  7  8  2  0
  8  9  1  0
  9 10  2  0
 10 11  1  0
 10 12  1  0
 12 13  2  0
  6 14  1  0
 14 15  1  0
 15 16  1  0
 16 17  1  0
 17 18  1  0
  2 19  1  0
 19 20  1  0
 20 21  2  0
 21 22  1  0
 22 23  2  0
 23 24  1  0
 24 25  2  0
 25 26  1  0
 26 27  1  0
 27 28  2  0
 28 29  1  0
 29 30  2  0
 30 31  1  0
 31 32  2  0
 15  4  2  0
 32 19  1  0
 13  7  1  0
 18 14  1  0
 25 20  1  0
 32 27  1  0
  3 33  1  0
  3 34  1  0
  5 35  1  0
  8 36  1  0
  9 37  1  0
 12 38  1  0
 13 39  1  0
 16 40  1  0
 16 41  1  0
 17 42  1  0
 17 43  1  0
 18 44  1  0
 18 45  1  0
 21 46  1  0
 22 47  1  0
 23 48  1  0
 24 49  1  0
 28 50  1  0
 29 51  1  0
 30 52  1  0
 31 53  1  0
M  CHG  1   4   1
M  END
$$$$
