
     RDKit          3D

 73 75  0  0  0  0  0  0  0  0999 V2000
   -0.1408   -2.0318   -3.3589 C   0  0  0  0  0  0  0  0  0  0  0  0
   -1.0807   -0.8342   -3.2672 C   0  0  0  0  0  0  0  0  0  0  0  0
   -1.8845   -0.7134   -1.9617 C   0  0  0  0  0  0  0  0  0  0  0  0
   -0.8851   -0.7272   -0.4318 S   0  0  0  0  0  0  0  0  0  0  0  0
   -0.0017    0.7776   -0.5773 C   0  0  0  0  0  0  0  0  0  0  0  0
   -0.5707    1.7488   -1.2138 N   0  0  0  0  0  0  0  0  0  0  0  0
    0.1040    2.9685   -1.3209 C   0  0  0  0  0  0  0  0  0  0  0  0
   -0.4920    4.0060   -2.0420 C   0  0  0  0  0  0  0  0  0  0  0  0
    0.1392    5.2503   -2.1614 C   0  0  0  0  0  0  0  0  0  0  0  0
   -0.3799    6.3193   -2.8482 O   0  0  0  0  0  0  0  0  0  0  0  0
   -1.6465    6.1554   -3.4700 C   0  0  0  0  0  0  0  0  0  0  0  0
    1.3913    5.4603   -1.5461 C   0  0  0  0  0  0  0  0  0  0  0  0
    1.9424    6.7065   -1.7096 O   0  0  0  0  0  0  0  0  0  0  0  0
    3.1754    6.9750   -1.0552 C   0  0  0  0  0  0  0  0  0  0  0  0
    1.9887    4.4218   -0.8284 C   0  0  0  0  0  0  0  0  0  0  0  0
    1.3387    3.1867   -0.7245 C   0  0  0  0  0  0  0  0  0  0  0  0
    1.9419    2.0721    0.0242 C   0  0  0  0  0  0  0  0  0  0  0  0
    3.0018    2.2563    0.6186 O   0  0  0  0  0  0  0  0  0  0  0  0
    1.2472    0.8637    0.0197 N   0  0  0  0  0  0  0  0  0  0  0  0
    1.8827   -0.2417    0.7519 C   0  0  0  0  0  0  0  0  0  0  0  0
    1.4981   -0.2394    2.2368 C   0  0  0  0  0  0  0  0  0  0  0  0
    2.0972   -1.4179    2.9630 C   0  0  0  0  0  0  0  0  0  0  0  0
    1.4262   -2.6439    2.9930 C   0  0  0  0  0  0  0  0  0  0  0  0
    1.9947   -3.7466    3.6349 C   0  0  0  0  0  0  0  0  0  0  0  0
    3.2445   -3.6403    4.2536 C   0  0  0  0  0  0  0  0  0  0  0  0
    3.8760   -4.6704    4.9064 O   0  0  0  0  0  0  0  0  0  0  0  0
    3.2554   -5.9472    4.8725 C   0  0  0  0  0  0  0  0  0  0  0  0
    3.9284   -2.4083    4.2305 C   0  0  0  0  0  0  0  0  0  0  0  0
    5.1502   -2.3848    4.8582 O   0  0  0  0  0  0  0  0  0  0  0  0
    5.8453   -1.1468    4.9021 C   0  0  0  0  0  0  0  0  0  0  0  0
    3.3514   -1.3091    3.5817 C   0  0  0  0  0  0  0  0  0  0  0  0
   -2.9354   -1.8311   -1.8910 C   0  0  0  0  0  0  0  0  0  0  0  0
   -2.7102   -2.9565   -1.4523 O   0  0  0  0  0  0  0  0  0  0  0  0
   -4.1691   -1.4781   -2.4086 N   0  0  0  0  0  0  0  0  0  0  0  0
   -5.2843   -2.4098   -2.4193 C   0  0  0  0  0  0  0  0  0  0  0  0
   -5.8779   -2.6621   -1.0280 C   0  0  0  0  0  0  0  0  0  0  0  0
   -7.0931   -3.4118   -1.1025 O   0  0  0  0  0  0  0  0  0  0  0  0
   -8.2380   -2.5975   -1.3170 C   0  0  0  0  0  0  0  0  0  0  0  0
    0.6735   -1.9680   -2.6292 H   0  0  0  0  0  0  0  0  0  0  0  0
    0.3179   -2.0656   -4.3537 H   0  0  0  0  0  0  0  0  0  0  0  0
   -0.6736   -2.9754   -3.2107 H   0  0  0  0  0  0  0  0  0  0  0  0
   -0.4931    0.0776   -3.4261 H   0  0  0  0  0  0  0  0  0  0  0  0
   -1.7816   -0.8915   -4.1108 H   0  0  0  0  0  0  0  0  0  0  0  0
   -2.4347    0.2348   -1.9803 H   0  0  0  0  0  0  0  0  0  0  0  0
   -1.4561    3.8110   -2.4987 H   0  0  0  0  0  0  0  0  0  0  0  0
   -1.9082    7.1025   -3.9503 H   0  0  0  0  0  0  0  0  0  0  0  0
   -1.6071    5.3877   -4.2492 H   0  0  0  0  0  0  0  0  0  0  0  0
   -2.4236    5.9321   -2.7319 H   0  0  0  0  0  0  0  0  0  0  0  0
    3.0761    6.8738    0.0303 H   0  0  0  0  0  0  0  0  0  0  0  0
    3.4481    8.0129   -1.2688 H   0  0  0  0  0  0  0  0  0  0  0  0
    3.9750    6.3355   -1.4432 H   0  0  0  0  0  0  0  0  0  0  0  0
    2.9525    4.5431   -0.3439 H   0  0  0  0  0  0  0  0  0  0  0  0
    1.6340   -1.1980    0.2804 H   0  0  0  0  0  0  0  0  0  0  0  0
    2.9728   -0.1510    0.6582 H   0  0  0  0  0  0  0  0  0  0  0  0
    1.8275    0.6936    2.7116 H   0  0  0  0  0  0  0  0  0  0  0  0
    0.4080   -0.2562    2.3592 H   0  0  0  0  0  0  0  0  0  0  0  0
    0.4546   -2.7523    2.5133 H   0  0  0  0  0  0  0  0  0  0  0  0
    1.4341   -4.6754    3.6354 H   0  0  0  0  0  0  0  0  0  0  0  0
    2.2939   -5.9314    5.3963 H   0  0  0  0  0  0  0  0  0  0  0  0
    3.1418   -6.3068    3.8442 H   0  0  0  0  0  0  0  0  0  0  0  0
    3.9078   -6.6505    5.3992 H   0  0  0  0  0  0  0  0  0  0  0  0
    6.1101   -0.8065    3.8963 H   0  0  0  0  0  0  0  0  0  0  0  0
    5.2676   -0.3875    5.4384 H   0  0  0  0  0  0  0  0  0  0  0  0
    6.7762   -1.3049    5.4544 H   0  0  0  0  0  0  0  0  0  0  0  0
    3.8636   -0.3527    3.5386 H   0  0  0  0  0  0  0  0  0  0  0  0
   -4.3418   -0.5201   -2.6859 H   0  0  0  0  0  0  0  0  0  0  0  0
   -6.0373   -1.9974   -3.0983 H   0  0  0  0  0  0  0  0  0  0  0  0
   -4.9495   -3.3590   -2.8549 H   0  0  0  0  0  0  0  0  0  0  0  0
   -5.1749   -3.2539   -0.4333 H   0  0  0  0  0  0  0  0  0  0  0  0
   -6.0381   -1.7228   -0.4861 H   0  0  0  0  0  0  0  0  0  0  0  0
   -8.1755   -2.0768   -2.2765 H   0  0  0  0  0  0  0  0  0  0  0  0
   -8.3512   -1.8747   -0.5032 H   0  0  0  0  0  0  0  0  0  0  0  0
   -9.1195   -3.2448   -1.3326 H   0  0  0  0  0  0  0  0  0  0  0  0
  1  2  1  0
  2  3  1  0
  3  4  1  0
  4  5  1  0
  5  6  2  0
  6  7  1  0
  7  8  2  0
  8  9  1  0
  9 10  1  0
 10 11  1  0
  9 12  2  0
 12 13  1  0
 13 14  1  0
 12 15  1  0
 15 16  2  0
 16 17  1  0
 17 18  2  0
 17 19  1  0
 19 20  1  0
 20 21  1  0
 21 22  1  0
 22 23  2  0
 23 24  1  0
 24 25  2  0
 25 26  1  0
 26 27  1  0
 25 28  1  0
 28 29  1  0
 29 30  1  0
 28 31  2  0
  3 32  1  0
 32 33  2  0
 32 34  1  0
 34 35  1  0
 35 36  1  0
 36 37  1  0
 37 38  1  0
 19  5  1  0
 31 22  1  0
 16  7  1  0
  1 39  1  0
  1 40  1  0
  1 41  1  0
  2 42  1  0
  2 43  1  0
  3 44  1  0
  8 45  1  0
 11 46  1  0
 11 47  1  0
 11 48  1  0
 14 49  1  0
 14 50  1  0
 14 51  1  0
 15 52  1  0
 20 53  1  0
 20 54  1  0
 21 55  1  0
 21 56  1  0
 23 57  1  0
 24 58  1  0
 27 59  1  0
 27 60  1  0
 27 61  1  0
 30 62  1  0
 30 63  1  0
 30 64  1  0
 31 65  1  0
 34 66  1  0
 35 67  1  0
 35 68  1  0
 36 69  1  0
 36 70  1  0
 38 71  1  0
 38 72  1  0
 38 73  1  0
M  END
$$$$
