
     RDKit          3D

 37 38  0  0  0  0  0  0  0  0999 V2000
   -6.0540    0.4326   -0.5564 C   0  0  0  0  0  0  0  0  0  0  0  0
   -5.0456   -0.4882   -1.0798 N   0  0  0  0  0  0  0  0  0  0  0  0
   -5.4318   -1.2283   -2.2806 C   0  0  0  0  0  0  0  0  0  0  0  0
   -3.6924   -0.2304   -0.8409 C   0  0  0  0  0  0  0  0  0  0  0  0
   -2.6692   -0.9171   -1.5167 C   0  0  0  0  0  0  0  0  0  0  0  0
   -1.3081   -0.6806   -1.2643 C   0  0  0  0  0  0  0  0  0  0  0  0
   -0.9142    0.2482   -0.3024 C   0  0  0  0  0  0  0  0  0  0  0  0
    0.4967    0.5459   -0.0203 C   0  0  0  0  0  0  0  0  0  0  0  0
    1.4469   -0.3998    0.0612 C   0  0  0  0  0  0  0  0  0  0  0  0
    2.8583   -0.1209    0.3496 C   0  0  0  0  0  0  0  0  0  0  0  0
    3.2552    0.8431    1.2753 C   0  0  0  0  0  0  0  0  0  0  0  0
    4.6078    1.0415    1.5293 C   0  0  0  0  0  0  0  0  0  0  0  0
    5.5437    0.3058    0.8896 N   0  0  0  0  0  4  0  0  0  0  0  0
    6.9700    0.5278    1.1820 C   0  0  0  0  0  0  0  0  0  0  0  0
    5.1832   -0.6505    0.0054 C   0  0  0  0  0  0  0  0  0  0  0  0
    3.8419   -0.8840   -0.2774 C   0  0  0  0  0  0  0  0  0  0  0  0
   -1.9078    0.9483    0.3794 C   0  0  0  0  0  0  0  0  0  0  0  0
   -3.2656    0.7023    0.1197 C   0  0  0  0  0  0  0  0  0  0  0  0
   -6.0226    0.4745    0.5376 H   0  0  0  0  0  0  0  0  0  0  0  0
   -5.9187    1.4388   -0.9681 H   0  0  0  0  0  0  0  0  0  0  0  0
   -7.0669    0.1033   -0.8144 H   0  0  0  0  0  0  0  0  0  0  0  0
   -5.1055   -0.7054   -3.1864 H   0  0  0  0  0  0  0  0  0  0  0  0
   -5.0179   -2.2423   -2.2711 H   0  0  0  0  0  0  0  0  0  0  0  0
   -6.5192   -1.3490   -2.3427 H   0  0  0  0  0  0  0  0  0  0  0  0
   -2.9037   -1.6652   -2.2682 H   0  0  0  0  0  0  0  0  0  0  0  0
   -0.5730   -1.2343   -1.8420 H   0  0  0  0  0  0  0  0  0  0  0  0
    0.7210    1.5986    0.1309 H   0  0  0  0  0  0  0  0  0  0  0  0
    1.1897   -1.4468   -0.0938 H   0  0  0  0  0  0  0  0  0  0  0  0
    2.5198    1.4365    1.8151 H   0  0  0  0  0  0  0  0  0  0  0  0
    4.9499    1.7816    2.2474 H   0  0  0  0  0  0  0  0  0  0  0  0
    7.2392   -0.1276    2.0139 H   0  0  0  0  0  0  0  0  0  0  0  0
    7.5592    0.2910    0.2924 H   0  0  0  0  0  0  0  0  0  0  0  0
    7.1221    1.5773    1.4473 H   0  0  0  0  0  0  0  0  0  0  0  0
    5.9739   -1.2257   -0.4682 H   0  0  0  0  0  0  0  0  0  0  0  0
    3.5726   -1.6581   -0.9940 H   0  0  0  0  0  0  0  0  0  0  0  0
   -1.6500    1.6870    1.1345 H   0  0  0  0  0  0  0  0  0  0  0  0
   -3.9847    1.2699    0.7029 H   0  0  0  0  0  0  0  0  0  0  0  0
  1  2  1  0
  2  3  1  0
  2  4  1  0
  4  5  2  0
  5  6  1  0
  6  7  2  0
  7  8  1  0
  8  9  2  3
  9 10  1  0
 10 11  2  0
 11 12  1  0
 12 13  2  0
 13 14  1  0
 13 15  1  0
 15 16  2  0
  7 17  1  0
 17 18  2  0
 18  4  1  0
 16 10  1  0
  1 19  1  0
  1 20  1  0
  1 21  1  0
  3 22  1  0
  3 23  1  0
  3 24  1  0
  5 25  1  0
  6 26  1  0
  8 27  1  0
  9 28  1  0
 11 29  1  0
 12 30  1  0
 14 31  1  0
 14 32  1  0
 14 33  1  0
 15 34  1  0
 16 35  1  0
 17 36  1  0
 18 37  1  0
M  CHG  1  13   1
M  END
$$$$
