
     RDKit          3D

 57 59  0  0  0  0  0  0  0  0999 V2000
    5.2244   -0.2664    3.5256 C   0  0  0  0  0  0  0  0  0  0  0  0
    4.8623   -0.2303    2.0439 C   0  0  0  0  0  0  0  0  0  0  0  0
    5.4404   -1.7612    1.1823 S   0  0  0  0  0  0  0  0  0  0  0  0
    7.2479   -1.5355    1.2397 C   0  0  0  0  0  0  0  0  0  0  0  0
    7.7283   -0.2807    0.5560 C   0  0  0  0  0  0  0  0  0  0  0  0
    7.5807   -0.1149   -0.8304 C   0  0  0  0  0  0  0  0  0  0  0  0
    8.0279    1.0500   -1.4572 C   0  0  0  0  0  0  0  0  0  0  0  0
    8.6333    2.0581   -0.7087 C   0  0  0  0  0  0  0  0  0  0  0  0
    8.7926    1.9036    0.6672 C   0  0  0  0  0  0  0  0  0  0  0  0
    8.3450    0.7400    1.2968 C   0  0  0  0  0  0  0  0  0  0  0  0
    3.3411   -0.0845    1.8539 C   0  0  0  0  0  0  0  0  0  0  0  0
    2.5745    0.1368    2.7903 O   0  0  0  0  0  0  0  0  0  0  0  0
    2.9656   -0.1487    0.5073 N   0  0  0  0  0  0  0  0  0  0  0  0
    1.6636   -0.1977    0.0751 N   0  0  0  0  0  0  0  0  0  0  0  0
    0.8267    0.6268    0.6236 C   0  0  0  0  0  0  0  0  0  0  0  0
   -0.6064    0.6279    0.2663 C   0  0  0  0  0  0  0  0  0  0  0  0
   -1.1331   -0.3295   -0.6027 C   0  0  0  0  0  0  0  0  0  0  0  0
   -2.4928   -0.3002   -0.9225 C   0  0  0  0  0  0  0  0  0  0  0  0
   -3.3272    0.6878   -0.3918 C   0  0  0  0  0  0  0  0  0  0  0  0
   -4.6353    0.6095   -0.7836 O   0  0  0  0  0  0  0  0  0  0  0  0
   -5.4184    1.7892   -0.6090 C   0  0  0  0  0  0  0  0  0  0  0  0
   -6.7731    1.6232   -1.2936 C   0  0  0  0  0  0  0  0  0  0  0  0
   -7.4097    2.5781   -1.7315 O   0  0  0  0  0  0  0  0  0  0  0  0
   -7.2352    0.3294   -1.3300 N   0  0  0  0  0  0  0  0  0  0  0  0
   -8.4622   -0.0037   -2.0101 C   0  0  0  0  0  0  0  0  0  0  0  0
   -8.7329   -1.4499   -1.8359 C   0  0  0  0  0  0  0  0  0  0  0  0
   -8.4981   -2.5584   -2.6241 C   0  0  0  0  0  0  0  0  0  0  0  0
   -8.9848   -3.6738   -1.9002 C   0  0  0  0  0  0  0  0  0  0  0  0
   -9.4828   -3.1760   -0.7186 C   0  0  0  0  0  0  0  0  0  0  0  0
   -9.3343   -1.8271   -0.6692 O   0  0  0  0  0  0  0  0  0  0  0  0
   -2.7977    1.6362    0.4860 C   0  0  0  0  0  0  0  0  0  0  0  0
   -1.4378    1.6063    0.8166 C   0  0  0  0  0  0  0  0  0  0  0  0
    4.8527    0.6330    4.0323 H   0  0  0  0  0  0  0  0  0  0  0  0
    6.3062   -0.2948    3.6846 H   0  0  0  0  0  0  0  0  0  0  0  0
    4.7753   -1.1297    4.0318 H   0  0  0  0  0  0  0  0  0  0  0  0
    5.3143    0.6502    1.5729 H   0  0  0  0  0  0  0  0  0  0  0  0
    7.5829   -1.5764    2.2811 H   0  0  0  0  0  0  0  0  0  0  0  0
    7.7082   -2.3984    0.7439 H   0  0  0  0  0  0  0  0  0  0  0  0
    7.1144   -0.8945   -1.4314 H   0  0  0  0  0  0  0  0  0  0  0  0
    7.9067    1.1709   -2.5321 H   0  0  0  0  0  0  0  0  0  0  0  0
    8.9841    2.9641   -1.1983 H   0  0  0  0  0  0  0  0  0  0  0  0
    9.2695    2.6889    1.2495 H   0  0  0  0  0  0  0  0  0  0  0  0
    8.4841    0.6375    2.3709 H   0  0  0  0  0  0  0  0  0  0  0  0
    3.6045   -0.6815   -0.0844 H   0  0  0  0  0  0  0  0  0  0  0  0
    1.1437    1.3887    1.3580 H   0  0  0  0  0  0  0  0  0  0  0  0
   -0.4955   -1.0996   -1.0303 H   0  0  0  0  0  0  0  0  0  0  0  0
   -2.8995   -1.0491   -1.5973 H   0  0  0  0  0  0  0  0  0  0  0  0
   -4.9196    2.6483   -1.0721 H   0  0  0  0  0  0  0  0  0  0  0  0
   -5.6115    1.9709    0.4543 H   0  0  0  0  0  0  0  0  0  0  0  0
   -6.5710   -0.4069   -1.1148 H   0  0  0  0  0  0  0  0  0  0  0  0
   -8.3467    0.2470   -3.0701 H   0  0  0  0  0  0  0  0  0  0  0  0
   -9.2745    0.6099   -1.6043 H   0  0  0  0  0  0  0  0  0  0  0  0
   -8.0370   -2.5555   -3.6025 H   0  0  0  0  0  0  0  0  0  0  0  0
   -8.9762   -4.7137   -2.2003 H   0  0  0  0  0  0  0  0  0  0  0  0
   -9.9507   -3.6259    0.1463 H   0  0  0  0  0  0  0  0  0  0  0  0
   -3.4159    2.4039    0.9408 H   0  0  0  0  0  0  0  0  0  0  0  0
   -1.0408    2.3484    1.5048 H   0  0  0  0  0  0  0  0  0  0  0  0
  1  2  1  0
  2  3  1  0
  3  4  1  0
  4  5  1  0
  5  6  2  0
  6  7  1  0
  7  8  2  0
  8  9  1  0
  9 10  2  0
  2 11  1  0
 11 12  2  0
 11 13  1  0
 13 14  1  0
 14 15  2  3
 15 16  1  0
 16 17  2  0
 17 18  1  0
 18 19  2  0
 19 20  1  0
 20 21  1  0
 21 22  1  0
 22 23  2  0
 22 24  1  0
 24 25  1  0
 25 26  1  0
 26 27  2  0
 27 28  1  0
 28 29  2  0
 29 30  1  0
 19 31  1  0
 31 32  2  0
 10  5  1  0
 32 16  1  0
 30 26  1  0
  1 33  1  0
  1 34  1  0
  1 35  1  0
  2 36  1  0
  4 37  1  0
  4 38  1  0
  6 39  1  0
  7 40  1  0
  8 41  1  0
  9 42  1  0
 10 43  1  0
 13 44  1  0
 15 45  1  0
 17 46  1  0
 18 47  1  0
 21 48  1  0
 21 49  1  0
 24 50  1  0
 25 51  1  0
 25 52  1  0
 27 53  1  0
 28 54  1  0
 29 55  1  0
 31 56  1  0
 32 57  1  0
M  END
$$$$
