
     RDKit          3D

 37 39  0  0  0  0  0  0  0  0999 V2000
   -3.9882   -1.7555    1.9587 C   0  0  0  0  0  0  0  0  0  0  0  0
   -4.4576   -1.6082    0.5220 C   0  0  0  0  0  0  0  0  0  0  0  0
   -4.2054   -0.2803   -0.0147 N   0  0  0  0  0  0  0  0  0  0  0  0
   -5.2420    0.5893   -0.0661 N   0  0  0  0  0  0  0  0  0  0  0  0
   -4.7134    1.6846   -0.6092 C   0  0  0  0  0  0  0  0  0  0  0  0
   -3.3493    1.5245   -0.8742 C   0  0  0  0  0  0  0  0  0  0  0  0
   -2.3089    2.8500   -1.6917 Br  0  0  0  0  0  0  0  0  0  0  0  0
   -3.0091    0.2517   -0.4581 C   0  0  0  0  0  0  0  0  0  0  0  0
   -1.7482   -0.4671   -0.4680 C   0  0  0  0  0  0  0  0  0  0  0  0
   -1.7227   -1.6893   -0.5491 O   0  0  0  0  0  0  0  0  0  0  0  0
   -0.6429    0.3499   -0.3297 N   0  0  0  0  0  0  0  0  0  0  0  0
    0.6967   -0.0178   -0.3078 C   0  0  0  0  0  0  0  0  0  0  0  0
    1.1822   -1.6322   -0.6161 S   0  0  0  0  0  0  0  0  0  0  0  0
    2.7820   -1.2271   -0.4021 C   0  0  0  0  0  0  0  0  0  0  0  0
    2.9928    0.0933   -0.1169 C   0  0  0  0  0  0  0  0  0  0  0  0
    1.7777    0.8414   -0.0702 C   0  0  0  0  0  0  0  0  0  0  0  0
    1.5917    2.2643    0.2034 C   0  0  0  0  0  0  0  0  0  0  0  0
    2.7021    3.0546    0.1383 N   0  0  0  0  0  0  0  0  0  0  0  0
    0.4954    2.7627    0.4450 O   0  0  0  0  0  0  0  0  0  0  0  0
    4.4446    0.3515    0.0826 C   0  0  0  0  0  0  0  0  0  0  0  0
    5.0319   -1.0873    0.2208 C   0  0  0  0  0  0  0  0  0  0  0  0
    4.0111   -2.0514   -0.4510 C   0  0  0  0  0  0  0  0  0  0  0  0
   -2.9078   -1.6048    2.0472 H   0  0  0  0  0  0  0  0  0  0  0  0
   -4.2228   -2.7569    2.3323 H   0  0  0  0  0  0  0  0  0  0  0  0
   -4.4801   -1.0243    2.6090 H   0  0  0  0  0  0  0  0  0  0  0  0
   -5.5385   -1.7852    0.4676 H   0  0  0  0  0  0  0  0  0  0  0  0
   -3.9882   -2.3431   -0.1371 H   0  0  0  0  0  0  0  0  0  0  0  0
   -5.3495    2.5416   -0.7891 H   0  0  0  0  0  0  0  0  0  0  0  0
   -0.8097    1.3397   -0.1523 H   0  0  0  0  0  0  0  0  0  0  0  0
    2.5392    4.0511    0.1937 H   0  0  0  0  0  0  0  0  0  0  0  0
    3.5423    2.7430   -0.3224 H   0  0  0  0  0  0  0  0  0  0  0  0
    4.8685    0.8503   -0.7953 H   0  0  0  0  0  0  0  0  0  0  0  0
    4.6522    0.9453    0.9770 H   0  0  0  0  0  0  0  0  0  0  0  0
    6.0332   -1.1716   -0.2126 H   0  0  0  0  0  0  0  0  0  0  0  0
    5.1120   -1.3380    1.2869 H   0  0  0  0  0  0  0  0  0  0  0  0
    4.3004   -2.2578   -1.4865 H   0  0  0  0  0  0  0  0  0  0  0  0
    3.9283   -2.9904    0.1028 H   0  0  0  0  0  0  0  0  0  0  0  0
  1  2  1  0
  2  3  1  0
  3  4  1  0
  4  5  2  0
  5  6  1  0
  6  7  1  0
  6  8  2  0
  8  9  1  0
  9 10  2  0
  9 11  1  0
 11 12  1  0
 12 13  1  0
 13 14  1  0
 14 15  2  0
 15 16  1  0
 16 17  1  0
 17 18  1  0
 17 19  2  0
 15 20  1  0
 20 21  1  0
 21 22  1  0
  8  3  1  0
 16 12  2  0
 22 14  1  0
  1 23  1  0
  1 24  1  0
  1 25  1  0
  2 26  1  0
  2 27  1  0
  5 28  1  0
 11 29  1  0
 18 30  1  0
 18 31  1  0
 20 32  1  0
 20 33  1  0
 21 34  1  0
 21 35  1  0
 22 36  1  0
 22 37  1  0
M  END
$$$$
