
     RDKit          3D

 59 62  0  0  0  0  0  0  0  0999 V2000
    7.5667    2.3779    4.4080 C   0  0  0  0  0  0  0  0  0  0  0  0
    6.9455    1.1015    4.3172 O   0  0  0  0  0  0  0  0  0  0  0  0
    6.2637    0.8260    3.1644 C   0  0  0  0  0  0  0  0  0  0  0  0
    5.5965   -0.4008    3.1589 C   0  0  0  0  0  0  0  0  0  0  0  0
    4.8627   -0.8081    2.0415 C   0  0  0  0  0  0  0  0  0  0  0  0
    4.7866    0.0128    0.9108 C   0  0  0  0  0  0  0  0  0  0  0  0
    3.9995   -0.4731   -0.2629 C   0  0  0  0  0  0  0  0  0  0  0  0
    3.7750   -1.6805   -0.3772 O   0  0  0  0  0  0  0  0  0  0  0  0
    3.5380    0.4972   -1.3297 C   0  0  0  0  0  0  0  0  0  0  0  0
    2.3743    1.7488   -0.7276 S   0  0  0  0  0  0  0  0  0  0  0  0
    1.1945    0.7567    0.0490 C   0  0  0  0  0  0  0  0  0  0  0  0
    1.2910    0.2903    1.2709 N   0  0  0  0  0  0  0  0  0  0  0  0
    0.1553   -0.4358    1.5319 N   0  0  0  0  0  0  0  0  0  0  0  0
   -0.6128   -0.3945    0.4605 C   0  0  0  0  0  0  0  0  0  0  0  0
   -1.9554   -1.0321    0.3121 C   0  0  0  0  0  0  0  0  0  0  0  0
   -3.0404   -0.0518    0.2723 N   0  0  0  0  0  0  0  0  0  0  0  0
   -4.3704   -0.4788    0.1260 C   0  0  0  0  0  0  0  0  0  0  0  0
   -4.7097   -1.7243   -0.4230 C   0  0  0  0  0  0  0  0  0  0  0  0
   -6.0429   -2.1025   -0.6196 C   0  0  0  0  0  0  0  0  0  0  0  0
   -7.0813   -1.2346   -0.2874 C   0  0  0  0  0  0  0  0  0  0  0  0
   -8.5093   -1.6241   -0.5287 C   0  0  0  0  0  0  0  0  0  0  0  0
   -6.7619    0.0324    0.2068 C   0  0  0  0  0  0  0  0  0  0  0  0
   -5.4230    0.4238    0.4026 C   0  0  0  0  0  0  0  0  0  0  0  0
   -5.1554    1.8146    0.9183 C   0  0  0  0  0  0  0  0  0  0  0  0
    0.0109    0.3613   -0.5097 N   0  0  0  0  0  0  0  0  0  0  0  0
   -0.5098    0.6952   -1.8214 C   0  0  0  0  0  0  0  0  0  0  0  0
    0.1084   -0.1510   -2.8743 C   0  0  0  0  0  0  0  0  0  0  0  0
    0.2592   -1.5124   -3.0494 C   0  0  0  0  0  0  0  0  0  0  0  0
    0.9443   -1.6856   -4.2763 C   0  0  0  0  0  0  0  0  0  0  0  0
    1.1643   -0.4233   -4.7752 C   0  0  0  0  0  0  0  0  0  0  0  0
    0.6620    0.5142   -3.9316 O   0  0  0  0  0  0  0  0  0  0  0  0
    5.4620    1.2386    0.9114 C   0  0  0  0  0  0  0  0  0  0  0  0
    6.1951    1.6436    2.0360 C   0  0  0  0  0  0  0  0  0  0  0  0
    8.3563    2.4870    3.6561 H   0  0  0  0  0  0  0  0  0  0  0  0
    6.8292    3.1843    4.3271 H   0  0  0  0  0  0  0  0  0  0  0  0
    8.0338    2.4524    5.3948 H   0  0  0  0  0  0  0  0  0  0  0  0
    5.6420   -1.0457    4.0340 H   0  0  0  0  0  0  0  0  0  0  0  0
    4.3404   -1.7630    2.0641 H   0  0  0  0  0  0  0  0  0  0  0  0
    3.0499   -0.0773   -2.1232 H   0  0  0  0  0  0  0  0  0  0  0  0
    4.4064    0.9787   -1.7897 H   0  0  0  0  0  0  0  0  0  0  0  0
   -1.9387   -1.6303   -0.6063 H   0  0  0  0  0  0  0  0  0  0  0  0
   -2.1126   -1.7197    1.1526 H   0  0  0  0  0  0  0  0  0  0  0  0
   -2.9615    0.5862    1.0636 H   0  0  0  0  0  0  0  0  0  0  0  0
   -3.9485   -2.4412   -0.7129 H   0  0  0  0  0  0  0  0  0  0  0  0
   -6.2595   -3.0816   -1.0409 H   0  0  0  0  0  0  0  0  0  0  0  0
   -8.6478   -2.7022   -0.3960 H   0  0  0  0  0  0  0  0  0  0  0  0
   -8.8042   -1.3522   -1.5466 H   0  0  0  0  0  0  0  0  0  0  0  0
   -9.1775   -1.1227    0.1791 H   0  0  0  0  0  0  0  0  0  0  0  0
   -7.5652    0.7311    0.4350 H   0  0  0  0  0  0  0  0  0  0  0  0
   -4.4771    2.3480    0.2440 H   0  0  0  0  0  0  0  0  0  0  0  0
   -6.0759    2.4051    0.9854 H   0  0  0  0  0  0  0  0  0  0  0  0
   -4.7171    1.7690    1.9211 H   0  0  0  0  0  0  0  0  0  0  0  0
   -1.5937    0.5600   -1.8290 H   0  0  0  0  0  0  0  0  0  0  0  0
   -0.3239    1.7609   -1.9954 H   0  0  0  0  0  0  0  0  0  0  0  0
   -0.0707   -2.2911   -2.3725 H   0  0  0  0  0  0  0  0  0  0  0  0
    1.2444   -2.6166   -4.7383 H   0  0  0  0  0  0  0  0  0  0  0  0
    1.6409   -0.0424   -5.6688 H   0  0  0  0  0  0  0  0  0  0  0  0
    5.4432    1.9006    0.0511 H   0  0  0  0  0  0  0  0  0  0  0  0
    6.7041    2.6008    1.9948 H   0  0  0  0  0  0  0  0  0  0  0  0
  1  2  1  0
  2  3  1  0
  3  4  2  0
  4  5  1  0
  5  6  2  0
  6  7  1  0
  7  8  2  0
  7  9  1  0
  9 10  1  0
 10 11  1  0
 11 12  2  0
 12 13  1  0
 13 14  2  0
 14 15  1  0
 15 16  1  0
 16 17  1  0
 17 18  2  0
 18 19  1  0
 19 20  2  0
 20 21  1  0
 20 22  1  0
 22 23  2  0
 23 24  1  0
 14 25  1  0
 25 26  1  0
 26 27  1  0
 27 28  2  0
 28 29  1  0
 29 30  2  0
 30 31  1  0
  6 32  1  0
 32 33  2  0
 33  3  1  0
 25 11  1  0
 31 27  1  0
 23 17  1  0
  1 34  1  0
  1 35  1  0
  1 36  1  0
  4 37  1  0
  5 38  1  0
  9 39  1  0
  9 40  1  0
 15 41  1  0
 15 42  1  0
 16 43  1  0
 18 44  1  0
 19 45  1  0
 21 46  1  0
 21 47  1  0
 21 48  1  0
 22 49  1  0
 24 50  1  0
 24 51  1  0
 24 52  1  0
 26 53  1  0
 26 54  1  0
 28 55  1  0
 29 56  1  0
 30 57  1  0
 32 58  1  0
 33 59  1  0
M  END
$$$$
