
     RDKit          3D

 31 33  0  0  0  0  0  0  0  0999 V2000
    4.9218    1.2089   -2.2348 C   0  0  0  0  0  0  0  0  0  0  0  0
    4.1884    1.5532   -1.0401 N   0  0  0  0  0  0  0  0  0  0  0  0
    4.6064    2.3645   -0.0289 C   0  0  0  0  0  0  0  0  0  0  0  0
    3.5788    2.3930    0.8829 C   0  0  0  0  0  0  0  0  0  0  0  0
    2.5682    1.5619    0.3368 C   0  0  0  0  0  0  0  0  0  0  0  0
    1.2492    1.2494    0.9210 C   0  0  0  0  0  0  0  0  0  0  0  0
    0.9050    1.7185    1.9983 O   0  0  0  0  0  0  0  0  0  0  0  0
    0.5361    0.4003    0.0945 N   0  0  0  0  0  0  0  0  0  0  0  0
   -0.7311   -0.1188    0.2883 C   0  0  0  0  0  0  0  0  0  0  0  0
   -1.6426    0.2645    1.6964 S   0  0  0  0  0  0  0  0  0  0  0  0
   -2.9132   -0.6828    1.1766 C   0  0  0  0  0  0  0  0  0  0  0  0
   -2.6968   -1.2916   -0.0268 C   0  0  0  0  0  0  0  0  0  0  0  0
   -1.4275   -0.9732   -0.5610 C   0  0  0  0  0  0  0  0  0  0  0  0
   -0.9202   -1.4592   -1.8070 C   0  0  0  0  0  0  0  0  0  0  0  0
   -0.5024   -1.8498   -2.8169 N   0  0  0  0  0  0  0  0  0  0  0  0
   -3.8671   -2.1125   -0.4278 C   0  0  0  0  0  0  0  0  0  0  0  0
   -4.6923   -2.1819    0.8964 C   0  0  0  0  0  0  0  0  0  0  0  0
   -4.2320   -0.9814    1.7805 C   0  0  0  0  0  0  0  0  0  0  0  0
    2.9539    1.0473   -0.8516 N   0  0  0  0  0  0  0  0  0  0  0  0
    4.3450    1.5433   -3.1007 H   0  0  0  0  0  0  0  0  0  0  0  0
    5.0552    0.1245   -2.2560 H   0  0  0  0  0  0  0  0  0  0  0  0
    5.8953    1.7051   -2.2199 H   0  0  0  0  0  0  0  0  0  0  0  0
    5.5752    2.8444   -0.0375 H   0  0  0  0  0  0  0  0  0  0  0  0
    3.5441    2.9332    1.8194 H   0  0  0  0  0  0  0  0  0  0  0  0
    1.0435    0.1491   -0.7536 H   0  0  0  0  0  0  0  0  0  0  0  0
   -4.4410   -1.6048   -1.2100 H   0  0  0  0  0  0  0  0  0  0  0  0
   -3.5877   -3.1121   -0.7718 H   0  0  0  0  0  0  0  0  0  0  0  0
   -4.4525   -3.1192    1.4160 H   0  0  0  0  0  0  0  0  0  0  0  0
   -5.7715   -2.1747    0.7144 H   0  0  0  0  0  0  0  0  0  0  0  0
   -4.1732   -1.2651    2.8347 H   0  0  0  0  0  0  0  0  0  0  0  0
   -4.9152   -0.1341    1.6633 H   0  0  0  0  0  0  0  0  0  0  0  0
  1  2  1  0
  2  3  1  0
  3  4  2  0
  4  5  1  0
  5  6  1  0
  6  7  2  0
  6  8  1  0
  8  9  1  0
  9 10  1  0
 10 11  1  0
 11 12  2  0
 12 13  1  0
 13 14  1  0
 14 15  3  0
 12 16  1  0
 16 17  1  0
 17 18  1  0
  5 19  2  0
 19  2  1  0
 13  9  2  0
 18 11  1  0
  1 20  1  0
  1 21  1  0
  1 22  1  0
  3 23  1  0
  4 24  1  0
  8 25  1  0
 16 26  1  0
 16 27  1  0
 17 28  1  0
 17 29  1  0
 18 30  1  0
 18 31  1  0
M  END
$$$$
