
     RDKit          3D

 38 39  0  0  0  0  0  0  0  0999 V2000
   -2.9493    2.1537   -0.4661 C   0  0  0  0  0  0  0  0  0  0  0  0
   -3.3409    1.4862    0.7391 O   0  0  0  0  0  0  0  0  0  0  0  0
   -4.1197    0.3982    0.4470 C   0  0  0  0  0  0  0  0  0  0  0  0
   -5.5048    0.5855    0.4408 C   0  0  0  0  0  0  0  0  0  0  0  0
   -6.3505   -0.4720    0.1055 C   0  0  0  0  0  0  0  0  0  0  0  0
   -5.8151   -1.7227   -0.2026 C   0  0  0  0  0  0  0  0  0  0  0  0
   -4.4331   -1.9181   -0.1663 C   0  0  0  0  0  0  0  0  0  0  0  0
   -3.5781   -0.8618    0.1779 C   0  0  0  0  0  0  0  0  0  0  0  0
   -2.1242   -1.1494    0.2145 C   0  0  0  0  0  0  0  0  0  0  0  0
   -1.6455   -1.8444   -0.6800 O   0  0  0  0  0  0  0  0  0  0  0  0
   -1.3132   -0.6733    1.4164 C   0  0  0  0  0  0  0  0  0  0  0  0
    0.0873   -0.8758    1.1960 O   0  0  0  0  0  0  0  0  0  0  0  0
    0.6776    0.0930    0.4531 C   0  0  0  0  0  0  0  0  0  0  0  0
    0.1614    1.1275    0.0627 O   0  0  0  0  0  0  0  0  0  0  0  0
    2.0789   -0.3071    0.2139 C   0  0  0  0  0  0  0  0  0  0  0  0
    2.9592    0.5948   -0.2460 C   0  0  0  0  0  0  0  0  0  0  0  0
    4.3769    0.3276   -0.5411 C   0  0  0  0  0  0  0  0  0  0  0  0
    5.0849   -0.7550    0.0003 C   0  0  0  0  0  0  0  0  0  0  0  0
    6.4373   -0.9468   -0.2996 C   0  0  0  0  0  0  0  0  0  0  0  0
    7.1033   -0.0506   -1.1330 C   0  0  0  0  0  0  0  0  0  0  0  0
    6.4185    1.0381   -1.6658 C   0  0  0  0  0  0  0  0  0  0  0  0
    5.0653    1.2263   -1.3697 C   0  0  0  0  0  0  0  0  0  0  0  0
   -2.3244    1.5106   -1.0948 H   0  0  0  0  0  0  0  0  0  0  0  0
   -3.8234    2.4974   -1.0300 H   0  0  0  0  0  0  0  0  0  0  0  0
   -2.3579    3.0287   -0.1860 H   0  0  0  0  0  0  0  0  0  0  0  0
   -5.9236    1.5603    0.6746 H   0  0  0  0  0  0  0  0  0  0  0  0
   -7.4269   -0.3199    0.0817 H   0  0  0  0  0  0  0  0  0  0  0  0
   -6.4724   -2.5461   -0.4769 H   0  0  0  0  0  0  0  0  0  0  0  0
   -4.0230   -2.8980   -0.4003 H   0  0  0  0  0  0  0  0  0  0  0  0
   -1.5926   -1.3023    2.2675 H   0  0  0  0  0  0  0  0  0  0  0  0
   -1.5049    0.3633    1.6964 H   0  0  0  0  0  0  0  0  0  0  0  0
    2.3285   -1.3409    0.4151 H   0  0  0  0  0  0  0  0  0  0  0  0
    2.6228    1.6139   -0.4393 H   0  0  0  0  0  0  0  0  0  0  0  0
    4.6054   -1.4606    0.6706 H   0  0  0  0  0  0  0  0  0  0  0  0
    6.9713   -1.7933    0.1243 H   0  0  0  0  0  0  0  0  0  0  0  0
    8.1552   -0.1983   -1.3633 H   0  0  0  0  0  0  0  0  0  0  0  0
    6.9366    1.7465   -2.3104 H   0  0  0  0  0  0  0  0  0  0  0  0
    4.5528    2.0852   -1.7975 H   0  0  0  0  0  0  0  0  0  0  0  0
  1  2  1  0
  2  3  1  0
  3  4  2  0
  4  5  1  0
  5  6  2  0
  6  7  1  0
  7  8  2  0
  8  9  1  0
  9 10  2  0
  9 11  1  0
 11 12  1  0
 12 13  1  0
 13 14  2  0
 13 15  1  0
 15 16  2  3
 16 17  1  0
 17 18  2  0
 18 19  1  0
 19 20  2  0
 20 21  1  0
 21 22  2  0
  8  3  1  0
 22 17  1  0
  1 23  1  0
  1 24  1  0
  1 25  1  0
  4 26  1  0
  5 27  1  0
  6 28  1  0
  7 29  1  0
 11 30  1  0
 11 31  1  0
 15 32  1  0
 16 33  1  0
 18 34  1  0
 19 35  1  0
 20 36  1  0
 21 37  1  0
 22 38  1  0
M  END
$$$$
