
     RDKit          3D

 46 48  0  0  0  0  0  0  0  0999 V2000
   -3.3173    1.3018   -0.7454 C   0  0  0  0  0  0  0  0  0  0  0  0
   -2.8065    0.7039    0.5523 C   0  0  0  0  0  0  0  0  0  0  0  0
   -2.7461   -0.7852    0.4394 N   0  0  0  0  0  4  0  0  0  0  0  0
   -1.5692   -1.3775    0.0732 C   0  0  0  0  0  0  0  0  0  0  0  0
   -0.4016   -0.5732   -0.3072 C   0  0  0  0  0  0  0  0  0  0  0  0
    0.6998   -0.5119    0.4587 C   0  0  0  0  0  0  0  0  0  0  0  0
    1.9004    0.2661    0.1183 C   0  0  0  0  0  0  0  0  0  0  0  0
    1.8589    1.4555   -0.6087 C   0  0  0  0  0  0  0  0  0  0  0  0
    3.0354    2.1761   -0.8742 C   0  0  0  0  0  0  0  0  0  0  0  0
    4.2985    1.7508   -0.4301 C   0  0  0  0  0  0  0  0  0  0  0  0
    5.4593    2.4869   -0.6805 N   0  0  0  0  0  0  0  0  0  0  0  0
    5.4555    3.4832   -1.7519 C   0  0  0  0  0  0  0  0  0  0  0  0
    6.7644    1.9027   -0.3713 C   0  0  0  0  0  0  0  0  0  0  0  0
    4.3079    0.5658    0.3232 C   0  0  0  0  0  0  0  0  0  0  0  0
    3.1389   -0.1636    0.5942 C   0  0  0  0  0  0  0  0  0  0  0  0
   -1.4537   -2.7668    0.0224 C   0  0  0  0  0  0  0  0  0  0  0  0
   -2.5353   -3.5651    0.3416 C   0  0  0  0  0  0  0  0  0  0  0  0
   -3.7392   -2.9712    0.6983 C   0  0  0  0  0  0  0  0  0  0  0  0
   -4.8423   -3.7799    1.0097 C   0  0  0  0  0  0  0  0  0  0  0  0
   -6.0633   -3.2114    1.3601 C   0  0  0  0  0  0  0  0  0  0  0  0
   -6.1949   -1.8304    1.3991 C   0  0  0  0  0  0  0  0  0  0  0  0
   -5.1028   -1.0110    1.0927 C   0  0  0  0  0  0  0  0  0  0  0  0
   -3.8492   -1.5529    0.7425 C   0  0  0  0  0  0  0  0  0  0  0  0
   -4.3202    0.9395   -0.9896 H   0  0  0  0  0  0  0  0  0  0  0  0
   -3.3606    2.3924   -0.6670 H   0  0  0  0  0  0  0  0  0  0  0  0
   -2.6642    1.0475   -1.5855 H   0  0  0  0  0  0  0  0  0  0  0  0
   -1.8164    1.0954    0.8014 H   0  0  0  0  0  0  0  0  0  0  0  0
   -3.4344    0.9710    1.4066 H   0  0  0  0  0  0  0  0  0  0  0  0
   -0.4713   -0.0484   -1.2559 H   0  0  0  0  0  0  0  0  0  0  0  0
    0.7639   -1.0696    1.3929 H   0  0  0  0  0  0  0  0  0  0  0  0
    0.9225    1.8654   -0.9744 H   0  0  0  0  0  0  0  0  0  0  0  0
    2.9289    3.1005   -1.4347 H   0  0  0  0  0  0  0  0  0  0  0  0
    5.1982    3.0253   -2.7134 H   0  0  0  0  0  0  0  0  0  0  0  0
    4.7559    4.2967   -1.5327 H   0  0  0  0  0  0  0  0  0  0  0  0
    6.4385    3.9543   -1.8641 H   0  0  0  0  0  0  0  0  0  0  0  0
    6.9413    1.0002   -0.9666 H   0  0  0  0  0  0  0  0  0  0  0  0
    6.8496    1.6643    0.6944 H   0  0  0  0  0  0  0  0  0  0  0  0
    7.5762    2.6067   -0.5863 H   0  0  0  0  0  0  0  0  0  0  0  0
    5.2350    0.1703    0.7283 H   0  0  0  0  0  0  0  0  0  0  0  0
    3.2276   -1.0740    1.1831 H   0  0  0  0  0  0  0  0  0  0  0  0
   -0.5156   -3.2347   -0.2747 H   0  0  0  0  0  0  0  0  0  0  0  0
   -2.4303   -4.6490    0.2983 H   0  0  0  0  0  0  0  0  0  0  0  0
   -4.7662   -4.8672    0.9811 H   0  0  0  0  0  0  0  0  0  0  0  0
   -6.9137   -3.8488    1.5986 H   0  0  0  0  0  0  0  0  0  0  0  0
   -7.1540   -1.3882    1.6670 H   0  0  0  0  0  0  0  0  0  0  0  0
   -5.2884    0.0577    1.1320 H   0  0  0  0  0  0  0  0  0  0  0  0
  1  2  1  0
  2  3  1  0
  3  4  2  0
  4  5  1  0
  5  6  2  3
  6  7  1  0
  7  8  2  0
  8  9  1  0
  9 10  2  0
 10 11  1  0
 11 12  1  0
 11 13  1  0
 10 14  1  0
 14 15  2  0
  4 16  1  0
 16 17  2  0
 17 18  1  0
 18 19  2  0
 19 20  1  0
 20 21  2  0
 21 22  1  0
 22 23  2  0
 23  3  1  0
 15  7  1  0
 23 18  1  0
  1 24  1  0
  1 25  1  0
  1 26  1  0
  2 27  1  0
  2 28  1  0
  5 29  1  0
  6 30  1  0
  8 31  1  0
  9 32  1  0
 12 33  1  0
 12 34  1  0
 12 35  1  0
 13 36  1  0
 13 37  1  0
 13 38  1  0
 14 39  1  0
 15 40  1  0
 16 41  1  0
 17 42  1  0
 19 43  1  0
 20 44  1  0
 21 45  1  0
 22 46  1  0
M  CHG  1   3   1
M  END
$$$$
