
     RDKit          3D

 46 48  0  0  0  0  0  0  0  0999 V2000
    1.8464    1.4787   -3.4228 O   0  0  0  0  0  0  0  0  0  0  0  0
    1.2689    1.4536   -2.3353 C   0  0  0  0  0  0  0  0  0  0  0  0
   -0.2215    1.1648   -2.1935 C   0  0  0  0  0  0  0  0  0  0  0  0
   -0.5282    0.7815   -0.8566 O   0  0  0  0  0  0  0  0  0  0  0  0
   -1.8345    0.4924   -0.5784 C   0  0  0  0  0  0  0  0  0  0  0  0
   -2.0760    0.0946    0.7368 C   0  0  0  0  0  0  0  0  0  0  0  0
   -3.3698   -0.2281    1.1586 C   0  0  0  0  0  0  0  0  0  0  0  0
   -4.4552   -0.1591    0.2734 C   0  0  0  0  0  0  0  0  0  0  0  0
   -5.8192   -0.4950    0.7139 C   0  0  0  0  0  0  0  0  0  0  0  0
   -6.0961   -1.7193    1.3453 C   0  0  0  0  0  0  0  0  0  0  0  0
   -7.3904   -2.0385    1.7648 C   0  0  0  0  0  0  0  0  0  0  0  0
   -8.4315   -1.1368    1.5604 C   0  0  0  0  0  0  0  0  0  0  0  0
   -8.1795    0.0826    0.9369 C   0  0  0  0  0  0  0  0  0  0  0  0
   -6.8846    0.3995    0.5173 C   0  0  0  0  0  0  0  0  0  0  0  0
   -4.1971    0.2420   -1.0472 C   0  0  0  0  0  0  0  0  0  0  0  0
   -2.9010    0.5644   -1.4720 C   0  0  0  0  0  0  0  0  0  0  0  0
    1.9153    1.7345   -1.1451 N   0  0  0  0  0  0  0  0  0  0  0  0
    3.3326    1.7332   -1.1799 N   0  0  0  0  0  0  0  0  0  0  0  0
    3.9582    0.8655   -0.2926 C   0  0  0  0  0  0  0  0  0  0  0  0
    3.3312    0.2711    0.5783 O   0  0  0  0  0  0  0  0  0  0  0  0
    5.3136    0.8090   -0.5204 N   0  0  0  0  0  0  0  0  0  0  0  0
    6.2688    0.0140    0.1457 C   0  0  0  0  0  0  0  0  0  0  0  0
    5.9566   -0.9587    1.0980 C   0  0  0  0  0  0  0  0  0  0  0  0
    6.9788   -1.7007    1.7006 C   0  0  0  0  0  0  0  0  0  0  0  0
    8.3054   -1.4707    1.3490 C   0  0  0  0  0  0  0  0  0  0  0  0
    9.2752   -2.1854    1.9331 F   0  0  0  0  0  0  0  0  0  0  0  0
    8.6377   -0.5132    0.4034 C   0  0  0  0  0  0  0  0  0  0  0  0
    7.6162    0.2184   -0.1897 C   0  0  0  0  0  0  0  0  0  0  0  0
    7.9323    1.1470   -1.1071 F   0  0  0  0  0  0  0  0  0  0  0  0
   -0.4608    0.3460   -2.8821 H   0  0  0  0  0  0  0  0  0  0  0  0
   -0.7561    2.0819   -2.4668 H   0  0  0  0  0  0  0  0  0  0  0  0
   -1.2528    0.0346    1.4450 H   0  0  0  0  0  0  0  0  0  0  0  0
   -3.5255   -0.5235    2.1942 H   0  0  0  0  0  0  0  0  0  0  0  0
   -5.2998   -2.4436    1.5053 H   0  0  0  0  0  0  0  0  0  0  0  0
   -7.5836   -2.9922    2.2492 H   0  0  0  0  0  0  0  0  0  0  0  0
   -9.4380   -1.3838    1.8875 H   0  0  0  0  0  0  0  0  0  0  0  0
   -8.9889    0.7904    0.7789 H   0  0  0  0  0  0  0  0  0  0  0  0
   -6.7082    1.3634    0.0437 H   0  0  0  0  0  0  0  0  0  0  0  0
   -5.0121    0.2954   -1.7669 H   0  0  0  0  0  0  0  0  0  0  0  0
   -2.7688    0.8642   -2.5060 H   0  0  0  0  0  0  0  0  0  0  0  0
    1.5042    1.3464   -0.2909 H   0  0  0  0  0  0  0  0  0  0  0  0
    3.7011    1.7530   -2.1302 H   0  0  0  0  0  0  0  0  0  0  0  0
    5.6897    1.4885   -1.1708 H   0  0  0  0  0  0  0  0  0  0  0  0
    4.9318   -1.1659    1.3908 H   0  0  0  0  0  0  0  0  0  0  0  0
    6.7434   -2.4574    2.4437 H   0  0  0  0  0  0  0  0  0  0  0  0
    9.6720   -0.3388    0.1337 H   0  0  0  0  0  0  0  0  0  0  0  0
  1  2  2  0
  2  3  1  0
  3  4  1  0
  4  5  1  0
  5  6  2  0
  6  7  1  0
  7  8  2  0
  8  9  1  0
  9 10  2  0
 10 11  1  0
 11 12  2  0
 12 13  1  0
 13 14  2  0
  8 15  1  0
 15 16  2  0
  2 17  1  0
 17 18  1  0
 18 19  1  0
 19 20  2  0
 19 21  1  0
 21 22  1  0
 22 23  2  0
 23 24  1  0
 24 25  2  0
 25 26  1  0
 25 27  1  0
 27 28  2  0
 28 29  1  0
 16  5  1  0
 28 22  1  0
 14  9  1  0
  3 30  1  0
  3 31  1  0
  6 32  1  0
  7 33  1  0
 10 34  1  0
 11 35  1  0
 12 36  1  0
 13 37  1  0
 14 38  1  0
 15 39  1  0
 16 40  1  0
 17 41  1  0
 18 42  1  0
 21 43  1  0
 23 44  1  0
 24 45  1  0
 27 46  1  0
M  END
$$$$
