
     RDKit          3D

 61 65  0  0  0  0  0  0  0  0999 V2000
   -8.2562    2.8440   -3.8435 C   0  0  0  0  0  0  0  0  0  0  0  0
   -7.3526    2.0082   -2.9853 C   0  0  0  0  0  0  0  0  0  0  0  0
   -7.8761    1.0166   -2.1511 C   0  0  0  0  0  0  0  0  0  0  0  0
   -7.0261    0.2222   -1.3742 C   0  0  0  0  0  0  0  0  0  0  0  0
   -5.6292    0.3831   -1.4085 C   0  0  0  0  0  0  0  0  0  0  0  0
   -4.7553   -0.4610   -0.5662 C   0  0  0  0  0  0  0  0  0  0  0  0
   -3.5449   -0.0257   -0.0579 C   0  0  0  0  0  0  0  0  0  0  0  0
   -2.7982   -0.9030    0.7285 C   0  0  0  0  0  0  0  0  0  0  0  0
   -1.4753   -0.4112    1.1775 C   0  0  0  0  0  0  0  0  0  0  0  0
   -1.4341    0.6191    1.8368 O   0  0  0  0  0  0  0  0  0  0  0  0
   -0.4171   -1.1861    0.7446 N   0  0  0  0  0  0  0  0  0  0  0  0
    0.9549   -0.9780    0.9904 C   0  0  0  0  0  0  0  0  0  0  0  0
    1.4658    0.1124    1.7007 C   0  0  0  0  0  0  0  0  0  0  0  0
    2.8454    0.2518    1.8959 C   0  0  0  0  0  0  0  0  0  0  0  0
    3.7159   -0.7078    1.3779 C   0  0  0  0  0  0  0  0  0  0  0  0
    5.4599   -0.5729    1.6646 S   0  0  0  0  0  6  0  0  0  0  0  0
    5.9581   -1.9089    1.9292 O   0  0  0  0  0  0  0  0  0  0  0  0
    5.7065    0.5079    2.5945 O   0  0  0  0  0  0  0  0  0  0  0  0
    6.0333   -0.1815    0.1252 N   0  0  0  0  0  0  0  0  0  0  0  0
    6.4853    1.1941    0.0037 C   0  0  0  0  0  0  0  0  0  0  0  0
    5.6595    2.2525   -0.2035 O   0  0  0  0  0  0  0  0  0  0  0  0
    6.4110    3.4071   -0.3348 N   0  0  0  0  0  0  0  0  0  0  0  0
    7.6857    3.0285   -0.1801 C   0  0  0  0  0  0  0  0  0  0  0  0
    8.7705    4.0383   -0.2332 C   0  0  0  0  0  0  0  0  0  0  0  0
    7.7950    1.6233    0.0269 C   0  0  0  0  0  0  0  0  0  0  0  0
    9.0211    0.8234    0.2531 C   0  0  0  0  0  0  0  0  0  0  0  0
    3.2207   -1.8153    0.6852 C   0  0  0  0  0  0  0  0  0  0  0  0
    1.8439   -1.9395    0.4842 C   0  0  0  0  0  0  0  0  0  0  0  0
   -3.2793   -2.1893    1.0539 C   0  0  0  0  0  0  0  0  0  0  0  0
   -2.6294   -3.1133    1.9140 C   0  0  0  0  0  0  0  0  0  0  0  0
   -3.1779   -4.3692    2.1658 C   0  0  0  0  0  0  0  0  0  0  0  0
   -4.3810   -4.7184    1.5710 C   0  0  0  0  0  0  0  0  0  0  0  0
   -5.0340   -3.8032    0.7416 C   0  0  0  0  0  0  0  0  0  0  0  0
   -4.5133   -2.5420    0.4813 C   0  0  0  0  0  0  0  0  0  0  0  0
   -5.2163   -1.7107   -0.3065 N   0  0  0  0  0  0  0  0  0  0  0  0
   -5.1194    1.3658   -2.2740 C   0  0  0  0  0  0  0  0  0  0  0  0
   -5.9670    2.1658   -3.0527 C   0  0  0  0  0  0  0  0  0  0  0  0
   -9.2530    2.9283   -3.3986 H   0  0  0  0  0  0  0  0  0  0  0  0
   -8.3515    2.3930   -4.8360 H   0  0  0  0  0  0  0  0  0  0  0  0
   -7.8596    3.8600   -3.9518 H   0  0  0  0  0  0  0  0  0  0  0  0
   -8.9501    0.8537   -2.0927 H   0  0  0  0  0  0  0  0  0  0  0  0
   -7.4665   -0.5349   -0.7250 H   0  0  0  0  0  0  0  0  0  0  0  0
   -3.1770    0.9766   -0.2475 H   0  0  0  0  0  0  0  0  0  0  0  0
   -0.6482   -1.9968    0.1825 H   0  0  0  0  0  0  0  0  0  0  0  0
    0.8158    0.8770    2.1206 H   0  0  0  0  0  0  0  0  0  0  0  0
    3.2214    1.1113    2.4491 H   0  0  0  0  0  0  0  0  0  0  0  0
    6.7071   -0.8881   -0.1661 H   0  0  0  0  0  0  0  0  0  0  0  0
    9.4757    3.8021   -1.0387 H   0  0  0  0  0  0  0  0  0  0  0  0
    8.3790    5.0476   -0.4128 H   0  0  0  0  0  0  0  0  0  0  0  0
    9.3204    4.0528    0.7136 H   0  0  0  0  0  0  0  0  0  0  0  0
    9.0883    0.5294    1.3068 H   0  0  0  0  0  0  0  0  0  0  0  0
    9.0142   -0.0862   -0.3574 H   0  0  0  0  0  0  0  0  0  0  0  0
    9.9256    1.3865   -0.0026 H   0  0  0  0  0  0  0  0  0  0  0  0
    3.8937   -2.5784    0.3007 H   0  0  0  0  0  0  0  0  0  0  0  0
    1.4763   -2.8045   -0.0655 H   0  0  0  0  0  0  0  0  0  0  0  0
   -1.6994   -2.8504    2.4155 H   0  0  0  0  0  0  0  0  0  0  0  0
   -2.6728   -5.0640    2.8308 H   0  0  0  0  0  0  0  0  0  0  0  0
   -4.8235   -5.6935    1.7571 H   0  0  0  0  0  0  0  0  0  0  0  0
   -5.9850   -4.0790    0.2900 H   0  0  0  0  0  0  0  0  0  0  0  0
   -4.0473    1.5180   -2.3706 H   0  0  0  0  0  0  0  0  0  0  0  0
   -5.5337    2.9125   -3.7132 H   0  0  0  0  0  0  0  0  0  0  0  0
  1  2  1  0
  2  3  2  0
  3  4  1  0
  4  5  2  0
  5  6  1  0
  6  7  2  0
  7  8  1  0
  8  9  1  0
  9 10  2  0
  9 11  1  0
 11 12  1  0
 12 13  2  0
 13 14  1  0
 14 15  2  0
 15 16  1  0
 16 17  2  0
 16 18  2  0
 16 19  1  0
 19 20  1  0
 20 21  1  0
 21 22  1  0
 22 23  2  0
 23 24  1  0
 23 25  1  0
 25 26  1  0
 15 27  1  0
 27 28  2  0
  8 29  2  0
 29 30  1  0
 30 31  2  0
 31 32  1  0
 32 33  2  0
 33 34  1  0
 34 35  2  0
  5 36  1  0
 36 37  2  0
 37  2  1  0
 35  6  1  0
 28 12  1  0
 34 29  1  0
 25 20  2  0
  1 38  1  0
  1 39  1  0
  1 40  1  0
  3 41  1  0
  4 42  1  0
  7 43  1  0
 11 44  1  0
 13 45  1  0
 14 46  1  0
 19 47  1  0
 24 48  1  0
 24 49  1  0
 24 50  1  0
 26 51  1  0
 26 52  1  0
 26 53  1  0
 27 54  1  0
 28 55  1  0
 30 56  1  0
 31 57  1  0
 32 58  1  0
 33 59  1  0
 36 60  1  0
 37 61  1  0
M  END
$$$$
