
     RDKit          3D

 36 38  0  0  0  0  0  0  0  0999 V2000
   -6.0628   -1.4293    0.2703 C   0  0  0  0  0  0  0  0  0  0  0  0
   -5.2751   -0.2048    0.4010 N   0  0  0  0  0  0  0  0  0  0  0  0
   -5.9703    1.0334    0.0544 C   0  0  0  0  0  0  0  0  0  0  0  0
   -3.8857   -0.2719    0.2448 C   0  0  0  0  0  0  0  0  0  0  0  0
   -3.0958    0.8761    0.0602 C   0  0  0  0  0  0  0  0  0  0  0  0
   -1.6994    0.8162   -0.0783 C   0  0  0  0  0  0  0  0  0  0  0  0
   -1.0299   -0.4049   -0.0164 C   0  0  0  0  0  0  0  0  0  0  0  0
    0.4256   -0.5205   -0.1867 C   0  0  0  0  0  0  0  0  0  0  0  0
    1.3000    0.3464    0.3504 C   0  0  0  0  0  0  0  0  0  0  0  0
    2.7213    0.2773    0.2199 C   0  0  0  0  0  0  0  0  0  0  0  0
    3.5372    1.1614    0.7629 N   0  0  0  0  0  0  0  0  0  0  0  0
    4.8594    0.8627    0.4847 C   0  0  0  0  0  0  0  0  0  0  0  0
    5.9820    1.6001    0.9127 C   0  0  0  0  0  0  0  0  0  0  0  0
    7.2676    1.1806    0.5553 C   0  0  0  0  0  0  0  0  0  0  0  0
    7.4450    0.0394   -0.2205 C   0  0  0  0  0  0  0  0  0  0  0  0
    6.3467   -0.7082   -0.6568 C   0  0  0  0  0  0  0  0  0  0  0  0
    5.0608   -0.2762   -0.2908 C   0  0  0  0  0  0  0  0  0  0  0  0
    3.5354   -0.9688   -0.6648 S   0  0  0  0  0  0  0  0  0  0  0  0
   -1.7884   -1.5600    0.1649 C   0  0  0  0  0  0  0  0  0  0  0  0
   -3.1840   -1.4884    0.3031 C   0  0  0  0  0  0  0  0  0  0  0  0
   -5.9295   -1.8797   -0.7195 H   0  0  0  0  0  0  0  0  0  0  0  0
   -7.1326   -1.2302    0.4007 H   0  0  0  0  0  0  0  0  0  0  0  0
   -5.7974   -2.1563    1.0452 H   0  0  0  0  0  0  0  0  0  0  0  0
   -7.0489    0.9455    0.2274 H   0  0  0  0  0  0  0  0  0  0  0  0
   -5.6340    1.8661    0.6815 H   0  0  0  0  0  0  0  0  0  0  0  0
   -5.8246    1.2844   -1.0020 H   0  0  0  0  0  0  0  0  0  0  0  0
   -3.5459    1.8630    0.0158 H   0  0  0  0  0  0  0  0  0  0  0  0
   -1.1547    1.7429   -0.2416 H   0  0  0  0  0  0  0  0  0  0  0  0
    0.7464   -1.3795   -0.7691 H   0  0  0  0  0  0  0  0  0  0  0  0
    0.9409    1.1783    0.9507 H   0  0  0  0  0  0  0  0  0  0  0  0
    5.8374    2.4895    1.5179 H   0  0  0  0  0  0  0  0  0  0  0  0
    8.1310    1.7521    0.8876 H   0  0  0  0  0  0  0  0  0  0  0  0
    8.4501   -0.2768   -0.4920 H   0  0  0  0  0  0  0  0  0  0  0  0
    6.4857   -1.5987   -1.2622 H   0  0  0  0  0  0  0  0  0  0  0  0
   -1.3081   -2.5345    0.2165 H   0  0  0  0  0  0  0  0  0  0  0  0
   -3.7054   -2.4270    0.4635 H   0  0  0  0  0  0  0  0  0  0  0  0
  1  2  1  0
  2  3  1  0
  2  4  1  0
  4  5  2  0
  5  6  1  0
  6  7  2  0
  7  8  1  0
  8  9  2  3
  9 10  1  0
 10 11  2  0
 11 12  1  0
 12 13  2  0
 13 14  1  0
 14 15  2  0
 15 16  1  0
 16 17  2  0
 17 18  1  0
  7 19  1  0
 19 20  2  0
 20  4  1  0
 18 10  1  0
 17 12  1  0
  1 21  1  0
  1 22  1  0
  1 23  1  0
  3 24  1  0
  3 25  1  0
  3 26  1  0
  5 27  1  0
  6 28  1  0
  8 29  1  0
  9 30  1  0
 13 31  1  0
 14 32  1  0
 15 33  1  0
 16 34  1  0
 19 35  1  0
 20 36  1  0
M  END
$$$$
