
     RDKit          3D

 52 55  0  0  0  0  0  0  0  0999 V2000
    6.2581   -0.3148   -2.6255 C   0  0  0  0  0  0  0  0  0  0  0  0
    5.5705   -0.2147   -1.3165 C   0  0  0  0  0  0  0  0  0  0  0  0
    4.1954   -0.3656   -1.0364 C   0  0  0  0  0  0  0  0  0  0  0  0
    4.0601   -0.1826    0.3311 C   0  0  0  0  0  0  0  0  0  0  0  0
    2.8956   -0.2204    1.1877 C   0  0  0  0  0  0  0  0  0  0  0  0
    2.9526   -0.1489    2.4116 O   0  0  0  0  0  0  0  0  0  0  0  0
    1.6925   -0.3284    0.5284 N   0  0  0  0  0  0  0  0  0  0  0  0
    0.4327   -0.2621    1.2397 C   0  0  0  0  0  0  0  0  0  0  0  0
    0.0694    1.2045    1.5755 C   0  0  0  0  0  0  0  0  0  0  0  0
   -1.4380    1.4226    1.8991 C   0  0  0  0  0  0  0  0  0  0  0  0
   -1.8369    0.6477    3.1717 C   0  0  0  0  0  0  0  0  0  0  0  0
   -1.6767    2.9218    2.1622 C   0  0  0  0  0  0  0  0  0  0  0  0
   -2.3233    0.9800    0.6909 C   0  0  0  0  0  0  0  0  0  0  0  0
   -1.8527   -0.3165    0.1175 C   0  0  0  0  0  0  0  0  0  0  0  0
   -0.6163   -0.8803    0.3805 C   0  0  0  0  0  0  0  0  0  0  0  0
   -0.6582   -2.1324   -0.2410 C   0  0  0  0  0  0  0  0  0  0  0  0
   -1.8029   -2.3382   -0.8859 N   0  0  0  0  0  0  0  0  0  0  0  0
   -2.5343   -1.1985   -0.7125 N   0  0  0  0  0  0  0  0  0  0  0  0
   -3.7992   -1.0896   -1.3692 C   0  0  0  0  0  0  0  0  0  0  0  0
   -4.5062    0.1167   -1.4636 C   0  0  0  0  0  0  0  0  0  0  0  0
   -5.7427    0.1682   -2.1217 C   0  0  0  0  0  0  0  0  0  0  0  0
   -6.2796   -0.9802   -2.6967 C   0  0  0  0  0  0  0  0  0  0  0  0
   -5.5740   -2.1724   -2.6184 C   0  0  0  0  0  0  0  0  0  0  0  0
   -6.0861   -3.2771   -3.1766 F   0  0  0  0  0  0  0  0  0  0  0  0
   -4.3454   -2.2380   -1.9696 C   0  0  0  0  0  0  0  0  0  0  0  0
    5.3436    0.0467    0.7736 N   0  0  0  0  0  0  0  0  0  0  0  0
    5.7755    0.2904    2.1321 C   0  0  0  0  0  0  0  0  0  0  0  0
    6.2672    0.0443   -0.2084 N   0  0  0  0  0  0  0  0  0  0  0  0
    6.9435   -1.1685   -2.6338 H   0  0  0  0  0  0  0  0  0  0  0  0
    6.8330    0.5944   -2.8300 H   0  0  0  0  0  0  0  0  0  0  0  0
    5.5385   -0.4495   -3.4395 H   0  0  0  0  0  0  0  0  0  0  0  0
    3.4164   -0.5888   -1.7512 H   0  0  0  0  0  0  0  0  0  0  0  0
    1.6723   -0.2052   -0.4726 H   0  0  0  0  0  0  0  0  0  0  0  0
    0.5211   -0.8376    2.1695 H   0  0  0  0  0  0  0  0  0  0  0  0
    0.3359    1.8452    0.7216 H   0  0  0  0  0  0  0  0  0  0  0  0
    0.6927    1.5500    2.4108 H   0  0  0  0  0  0  0  0  0  0  0  0
   -1.2054    0.9364    4.0194 H   0  0  0  0  0  0  0  0  0  0  0  0
   -1.7472   -0.4357    3.0466 H   0  0  0  0  0  0  0  0  0  0  0  0
   -2.8768    0.8568    3.4477 H   0  0  0  0  0  0  0  0  0  0  0  0
   -1.3938    3.5275    1.2939 H   0  0  0  0  0  0  0  0  0  0  0  0
   -2.7322    3.1218    2.3779 H   0  0  0  0  0  0  0  0  0  0  0  0
   -1.0876    3.2720    3.0172 H   0  0  0  0  0  0  0  0  0  0  0  0
   -2.2602    1.7421   -0.0959 H   0  0  0  0  0  0  0  0  0  0  0  0
   -3.3661    0.9074    1.0194 H   0  0  0  0  0  0  0  0  0  0  0  0
    0.0940   -2.9117   -0.2445 H   0  0  0  0  0  0  0  0  0  0  0  0
   -4.1236    1.0506   -1.0739 H   0  0  0  0  0  0  0  0  0  0  0  0
   -6.2815    1.1105   -2.1924 H   0  0  0  0  0  0  0  0  0  0  0  0
   -7.2353   -0.9533   -3.2100 H   0  0  0  0  0  0  0  0  0  0  0  0
   -3.8359   -3.1981   -1.9355 H   0  0  0  0  0  0  0  0  0  0  0  0
    5.2508    1.1700    2.5124 H   0  0  0  0  0  0  0  0  0  0  0  0
    6.8530    0.4774    2.1428 H   0  0  0  0  0  0  0  0  0  0  0  0
    5.5537   -0.5959    2.7311 H   0  0  0  0  0  0  0  0  0  0  0  0
  1  2  1  0
  2  3  1  0
  3  4  2  0
  4  5  1  0
  5  6  2  0
  5  7  1  0
  7  8  1  0
  8  9  1  0
  9 10  1  0
 10 11  1  0
 10 12  1  0
 10 13  1  0
 13 14  1  0
 14 15  2  0
 15 16  1  0
 16 17  2  0
 17 18  1  0
 18 19  1  0
 19 20  2  0
 20 21  1  0
 21 22  2  0
 22 23  1  0
 23 24  1  0
 23 25  2  0
  4 26  1  0
 26 27  1  0
 26 28  1  0
 28  2  2  0
 15  8  1  0
 25 19  1  0
 18 14  1  0
  1 29  1  0
  1 30  1  0
  1 31  1  0
  3 32  1  0
  7 33  1  0
  8 34  1  0
  9 35  1  0
  9 36  1  0
 11 37  1  0
 11 38  1  0
 11 39  1  0
 12 40  1  0
 12 41  1  0
 12 42  1  0
 13 43  1  0
 13 44  1  0
 16 45  1  0
 20 46  1  0
 21 47  1  0
 22 48  1  0
 25 49  1  0
 27 50  1  0
 27 51  1  0
 27 52  1  0
M  END
$$$$
