
     RDKit          3D

 33 33  0  0  0  0  0  0  0  0999 V2000
   -2.7885    0.9020    1.9207 C   0  0  0  0  0  0  0  0  0  0  0  0
   -3.1280   -0.2853    1.0159 C   0  0  0  0  0  0  0  0  0  0  0  0
   -4.6474   -0.4485    0.9283 C   0  0  0  0  0  0  0  0  0  0  0  0
   -2.5384   -0.1210   -0.3986 C   0  0  0  0  0  0  0  0  0  0  0  0
   -1.0297   -0.1667   -0.4395 C   0  0  0  0  0  0  0  0  0  0  0  0
   -0.3488   -1.3738   -0.2459 C   0  0  0  0  0  0  0  0  0  0  0  0
    1.0475   -1.4167   -0.2816 C   0  0  0  0  0  0  0  0  0  0  0  0
    1.7964   -0.2528   -0.5111 C   0  0  0  0  0  0  0  0  0  0  0  0
    3.3156   -0.3226   -0.5321 C   0  0  0  0  0  0  0  0  0  0  0  0
    3.9405    0.5507    0.5563 C   0  0  0  0  0  0  0  0  0  0  0  0
    3.9187    0.0437   -1.8776 C   0  0  0  0  0  0  0  0  0  0  0  0
    3.4980    0.8361   -2.7041 O   0  0  0  0  0  0  0  0  0  0  0  0
    5.0911   -0.5919   -2.1012 O   0  0  0  0  0  0  0  0  0  0  0  0
    1.1089    0.9538   -0.7062 C   0  0  0  0  0  0  0  0  0  0  0  0
   -0.2875    0.9961   -0.6722 C   0  0  0  0  0  0  0  0  0  0  0  0
   -1.7090    0.9854    2.0799 H   0  0  0  0  0  0  0  0  0  0  0  0
   -3.1436    1.8443    1.4897 H   0  0  0  0  0  0  0  0  0  0  0  0
   -3.2548    0.7847    2.9049 H   0  0  0  0  0  0  0  0  0  0  0  0
   -2.7214   -1.1932    1.4793 H   0  0  0  0  0  0  0  0  0  0  0  0
   -4.9105   -1.3206    0.3203 H   0  0  0  0  0  0  0  0  0  0  0  0
   -5.0815   -0.5936    1.9232 H   0  0  0  0  0  0  0  0  0  0  0  0
   -5.1170    0.4332    0.4787 H   0  0  0  0  0  0  0  0  0  0  0  0
   -2.8958    0.8161   -0.8455 H   0  0  0  0  0  0  0  0  0  0  0  0
   -2.9132   -0.9201   -1.0523 H   0  0  0  0  0  0  0  0  0  0  0  0
   -0.9035   -2.2923   -0.0671 H   0  0  0  0  0  0  0  0  0  0  0  0
    1.5436   -2.3723   -0.1255 H   0  0  0  0  0  0  0  0  0  0  0  0
    3.6035   -1.3643   -0.3343 H   0  0  0  0  0  0  0  0  0  0  0  0
    3.7561    1.6164    0.3803 H   0  0  0  0  0  0  0  0  0  0  0  0
    3.5400    0.2972    1.5440 H   0  0  0  0  0  0  0  0  0  0  0  0
    5.0272    0.4134    0.5871 H   0  0  0  0  0  0  0  0  0  0  0  0
    5.3677   -0.2604   -2.9816 H   0  0  0  0  0  0  0  0  0  0  0  0
    1.6542    1.8753   -0.9013 H   0  0  0  0  0  0  0  0  0  0  0  0
   -0.7902    1.9475   -0.8309 H   0  0  0  0  0  0  0  0  0  0  0  0
  1  2  1  0
  2  3  1  0
  2  4  1  0
  4  5  1  0
  5  6  2  0
  6  7  1  0
  7  8  2  0
  8  9  1  0
  9 10  1  0
  9 11  1  0
 11 12  2  0
 11 13  1  0
  8 14  1  0
 14 15  2  0
 15  5  1  0
  1 16  1  0
  1 17  1  0
  1 18  1  0
  2 19  1  0
  3 20  1  0
  3 21  1  0
  3 22  1  0
  4 23  1  0
  4 24  1  0
  6 25  1  0
  7 26  1  0
  9 27  1  0
 10 28  1  0
 10 29  1  0
 10 30  1  0
 13 31  1  0
 14 32  1  0
 15 33  1  0
M  END
$$$$
