
     RDKit          3D

 60 64  0  0  0  0  0  0  0  0999 V2000
   -0.8577    2.7871    0.1887 C   0  0  0  0  0  0  0  0  0  0  0  0
   -1.7134    1.6139    0.0403 N   0  0  0  0  0  0  0  0  0  0  0  0
   -3.0685    1.8513   -0.1996 C   0  0  0  0  0  0  0  0  0  0  0  0
   -3.5231    2.9951   -0.3035 O   0  0  0  0  0  0  0  0  0  0  0  0
   -4.0098    0.6862   -0.2794 C   0  0  0  0  0  0  0  0  0  0  0  0
   -5.2925    0.9148    0.0630 C   0  0  0  0  0  0  0  0  0  0  0  0
   -6.3894   -0.0582    0.0252 C   0  0  0  0  0  0  0  0  0  0  0  0
   -7.3621    0.0362   -0.9743 C   0  0  0  0  0  0  0  0  0  0  0  0
   -8.4156   -0.8811   -1.0212 C   0  0  0  0  0  0  0  0  0  0  0  0
   -8.5172   -1.9003   -0.0623 C   0  0  0  0  0  0  0  0  0  0  0  0
   -9.6395   -2.9075   -0.1189 C   0  0  0  0  0  0  0  0  0  0  0  0
   -9.2599   -4.0742   -0.7091 F   0  0  0  0  0  0  0  0  0  0  0  0
  -10.1082   -3.2482    1.1144 F   0  0  0  0  0  0  0  0  0  0  0  0
  -10.7239   -2.4701   -0.8185 F   0  0  0  0  0  0  0  0  0  0  0  0
   -7.5358   -1.9898    0.9370 C   0  0  0  0  0  0  0  0  0  0  0  0
   -6.4823   -1.0728    0.9831 C   0  0  0  0  0  0  0  0  0  0  0  0
   -3.4369   -0.8080   -0.9037 S   0  0  0  0  0  0  0  0  0  0  0  0
   -1.8484   -0.8510   -0.1197 C   0  0  0  0  0  0  0  0  0  0  0  0
   -1.2793   -2.1202    0.0869 C   0  0  0  0  0  0  0  0  0  0  0  0
   -0.0090   -2.2495    0.6414 C   0  0  0  0  0  0  0  0  0  0  0  0
    0.7073   -1.1029    0.9695 C   0  0  0  0  0  0  0  0  0  0  0  0
    2.0488   -1.2498    1.5761 C   0  0  0  0  0  0  0  0  0  0  0  0
    2.1456   -1.9488    2.5811 O   0  0  0  0  0  0  0  0  0  0  0  0
    3.1243   -0.5953    0.9883 N   0  0  0  0  0  0  0  0  0  0  0  0
    4.4380   -0.7115    1.6239 C   0  0  0  0  0  0  0  0  0  0  0  0
    5.3714    0.4742    1.3140 C   0  0  0  0  0  0  0  0  0  0  0  0
    5.4204    0.8039   -0.1235 N   0  0  0  0  0  0  0  0  0  0  0  0
    6.6647    1.1196   -0.6699 C   0  0  0  0  0  0  0  0  0  0  0  0
    7.5558    1.9505    0.0136 C   0  0  0  0  0  0  0  0  0  0  0  0
    8.7903    2.2719   -0.5504 C   0  0  0  0  0  0  0  0  0  0  0  0
    9.1156    1.7653   -1.7974 C   0  0  0  0  0  0  0  0  0  0  0  0
    8.1829    0.9644   -2.4261 C   0  0  0  0  0  0  0  0  0  0  0  0
    6.9813    0.6433   -1.8949 N   0  0  0  0  0  0  0  0  0  0  0  0
    4.5199    0.0447   -1.0038 C   0  0  0  0  0  0  0  0  0  0  0  0
    3.1162   -0.0445   -0.3768 C   0  0  0  0  0  0  0  0  0  0  0  0
    0.1398    0.1652    0.7878 C   0  0  0  0  0  0  0  0  0  0  0  0
   -1.1468    0.3124    0.2371 C   0  0  0  0  0  0  0  0  0  0  0  0
    0.0670    2.6499   -0.3813 H   0  0  0  0  0  0  0  0  0  0  0  0
   -1.3353    3.6959   -0.1889 H   0  0  0  0  0  0  0  0  0  0  0  0
   -0.6374    2.9375    1.2503 H   0  0  0  0  0  0  0  0  0  0  0  0
   -5.5990    1.9045    0.3997 H   0  0  0  0  0  0  0  0  0  0  0  0
   -7.3027    0.8195   -1.7274 H   0  0  0  0  0  0  0  0  0  0  0  0
   -9.1591   -0.7951   -1.8124 H   0  0  0  0  0  0  0  0  0  0  0  0
   -7.5893   -2.7772    1.6876 H   0  0  0  0  0  0  0  0  0  0  0  0
   -5.7352   -1.1587    1.7693 H   0  0  0  0  0  0  0  0  0  0  0  0
   -1.8264   -3.0213   -0.1863 H   0  0  0  0  0  0  0  0  0  0  0  0
    0.4184   -3.2349    0.8128 H   0  0  0  0  0  0  0  0  0  0  0  0
    4.8848   -1.6446    1.2578 H   0  0  0  0  0  0  0  0  0  0  0  0
    4.3221   -0.8131    2.7087 H   0  0  0  0  0  0  0  0  0  0  0  0
    5.0093    1.3613    1.8476 H   0  0  0  0  0  0  0  0  0  0  0  0
    6.3624    0.2268    1.7144 H   0  0  0  0  0  0  0  0  0  0  0  0
    7.2902    2.3723    0.9768 H   0  0  0  0  0  0  0  0  0  0  0  0
    9.4824    2.9188   -0.0196 H   0  0  0  0  0  0  0  0  0  0  0  0
   10.0635    1.9935   -2.2699 H   0  0  0  0  0  0  0  0  0  0  0  0
    8.3779    0.5440   -3.4084 H   0  0  0  0  0  0  0  0  0  0  0  0
    4.9137   -0.9670   -1.1678 H   0  0  0  0  0  0  0  0  0  0  0  0
    4.4204    0.5375   -1.9790 H   0  0  0  0  0  0  0  0  0  0  0  0
    2.4655   -0.6520   -1.0142 H   0  0  0  0  0  0  0  0  0  0  0  0
    2.6881    0.9620   -0.3088 H   0  0  0  0  0  0  0  0  0  0  0  0
    0.7153    1.0242    1.1200 H   0  0  0  0  0  0  0  0  0  0  0  0
  1  2  1  0
  2  3  1  0
  3  4  2  0
  3  5  1  0
  5  6  2  3
  6  7  1  0
  7  8  2  0
  8  9  1  0
  9 10  2  0
 10 11  1  0
 11 12  1  0
 11 13  1  0
 11 14  1  0
 10 15  1  0
 15 16  2  0
  5 17  1  0
 17 18  1  0
 18 19  2  0
 19 20  1  0
 20 21  2  0
 21 22  1  0
 22 23  2  0
 22 24  1  0
 24 25  1  0
 25 26  1  0
 26 27  1  0
 27 28  1  0
 28 29  2  0
 29 30  1  0
 30 31  2  0
 31 32  1  0
 32 33  2  0
 27 34  1  0
 34 35  1  0
 21 36  1  0
 36 37  2  0
 37  2  1  0
 16  7  1  0
 37 18  1  0
 35 24  1  0
 33 28  1  0
  1 38  1  0
  1 39  1  0
  1 40  1  0
  6 41  1  0
  8 42  1  0
  9 43  1  0
 15 44  1  0
 16 45  1  0
 19 46  1  0
 20 47  1  0
 25 48  1  0
 25 49  1  0
 26 50  1  0
 26 51  1  0
 29 52  1  0
 30 53  1  0
 31 54  1  0
 32 55  1  0
 34 56  1  0
 34 57  1  0
 35 58  1  0
 35 59  1  0
 36 60  1  0
M  END
$$$$
