
     RDKit          3D

 39 41  0  0  0  0  0  0  0  0999 V2000
    4.6764    2.0481    2.1069 C   0  0  0  0  0  0  0  0  0  0  0  0
    4.8439    1.5959    0.6675 C   0  0  0  0  0  0  0  0  0  0  0  0
    4.3199    0.2611    0.4490 N   0  0  0  0  0  0  0  0  0  0  0  0
    5.0339   -0.8995    0.4203 C   0  0  0  0  0  0  0  0  0  0  0  0
    4.1207   -1.8978    0.1809 C   0  0  0  0  0  0  0  0  0  0  0  0
    2.8652   -1.2446    0.0745 C   0  0  0  0  0  0  0  0  0  0  0  0
    1.5526   -1.8709   -0.1800 C   0  0  0  0  0  0  0  0  0  0  0  0
    1.4541   -3.0832   -0.3284 O   0  0  0  0  0  0  0  0  0  0  0  0
    0.5438   -0.9273   -0.2168 N   0  0  0  0  0  0  0  0  0  0  0  0
   -0.8098   -1.1215   -0.4291 C   0  0  0  0  0  0  0  0  0  0  0  0
   -1.4414   -2.6958   -0.6926 S   0  0  0  0  0  0  0  0  0  0  0  0
   -2.9841   -2.0891   -0.8438 C   0  0  0  0  0  0  0  0  0  0  0  0
   -3.0638   -0.7325   -0.7077 C   0  0  0  0  0  0  0  0  0  0  0  0
   -1.7962   -0.1306   -0.4551 C   0  0  0  0  0  0  0  0  0  0  0  0
   -1.5154    1.2876   -0.2467 C   0  0  0  0  0  0  0  0  0  0  0  0
   -0.3878    1.7296   -0.0518 O   0  0  0  0  0  0  0  0  0  0  0  0
   -2.6393    2.0622   -0.2886 O   0  0  0  0  0  0  0  0  0  0  0  0
   -2.3959    3.4538   -0.0856 C   0  0  0  0  0  0  0  0  0  0  0  0
   -4.4697   -0.2712   -0.8549 C   0  0  0  0  0  0  0  0  0  0  0  0
   -5.1782   -1.5319   -1.4427 C   0  0  0  0  0  0  0  0  0  0  0  0
   -4.2807   -2.7572   -1.0952 C   0  0  0  0  0  0  0  0  0  0  0  0
    3.0014    0.0881    0.2395 N   0  0  0  0  0  0  0  0  0  0  0  0
    5.1947    1.3719    2.7951 H   0  0  0  0  0  0  0  0  0  0  0  0
    3.6199    2.0709    2.3943 H   0  0  0  0  0  0  0  0  0  0  0  0
    5.0879    3.0533    2.2399 H   0  0  0  0  0  0  0  0  0  0  0  0
    5.9034    1.5887    0.3892 H   0  0  0  0  0  0  0  0  0  0  0  0
    4.3212    2.2726   -0.0175 H   0  0  0  0  0  0  0  0  0  0  0  0
    6.1041   -0.9213    0.5705 H   0  0  0  0  0  0  0  0  0  0  0  0
    4.3122   -2.9584    0.0914 H   0  0  0  0  0  0  0  0  0  0  0  0
    0.8608    0.0341   -0.0659 H   0  0  0  0  0  0  0  0  0  0  0  0
   -1.7433    3.8481   -0.8708 H   0  0  0  0  0  0  0  0  0  0  0  0
   -3.3550    3.9763   -0.1390 H   0  0  0  0  0  0  0  0  0  0  0  0
   -1.9625    3.6274    0.9043 H   0  0  0  0  0  0  0  0  0  0  0  0
   -4.5706    0.5816   -1.5318 H   0  0  0  0  0  0  0  0  0  0  0  0
   -4.8925   -0.0149    0.1221 H   0  0  0  0  0  0  0  0  0  0  0  0
   -5.2360   -1.4306   -2.5347 H   0  0  0  0  0  0  0  0  0  0  0  0
   -6.2009   -1.6455   -1.0697 H   0  0  0  0  0  0  0  0  0  0  0  0
   -4.2484   -3.4722   -1.9217 H   0  0  0  0  0  0  0  0  0  0  0  0
   -4.6443   -3.2554   -0.1906 H   0  0  0  0  0  0  0  0  0  0  0  0
  1  2  1  0
  2  3  1  0
  3  4  1  0
  4  5  2  0
  5  6  1  0
  6  7  1  0
  7  8  2  0
  7  9  1  0
  9 10  1  0
 10 11  1  0
 11 12  1  0
 12 13  2  0
 13 14  1  0
 14 15  1  0
 15 16  2  0
 15 17  1  0
 17 18  1  0
 13 19  1  0
 19 20  1  0
 20 21  1  0
  6 22  2  0
 22  3  1  0
 14 10  2  0
 21 12  1  0
  1 23  1  0
  1 24  1  0
  1 25  1  0
  2 26  1  0
  2 27  1  0
  4 28  1  0
  5 29  1  0
  9 30  1  0
 18 31  1  0
 18 32  1  0
 18 33  1  0
 19 34  1  0
 19 35  1  0
 20 36  1  0
 20 37  1  0
 21 38  1  0
 21 39  1  0
M  END
$$$$
