
     RDKit          3D

 56 58  0  0  0  0  0  0  0  0999 V2000
   -6.3371   -2.0816    0.8115 C   0  0  0  0  0  0  0  0  0  0  0  0
   -5.8990   -0.8446    0.2608 O   0  0  0  0  0  0  0  0  0  0  0  0
   -6.5733   -0.3418   -0.8178 C   0  0  0  0  0  0  0  0  0  0  0  0
   -7.6880   -0.9660   -1.3961 C   0  0  0  0  0  0  0  0  0  0  0  0
   -8.3583   -0.3810   -2.4745 C   0  0  0  0  0  0  0  0  0  0  0  0
   -7.9289    0.8377   -2.9867 C   0  0  0  0  0  0  0  0  0  0  0  0
   -6.8213    1.4688   -2.4250 C   0  0  0  0  0  0  0  0  0  0  0  0
   -6.1298    0.8836   -1.3489 C   0  0  0  0  0  0  0  0  0  0  0  0
   -4.9444    1.6363   -0.8352 C   0  0  0  0  0  0  0  0  0  0  0  0
   -4.9086    2.8584   -0.9963 O   0  0  0  0  0  0  0  0  0  0  0  0
   -3.8073    0.8708   -0.1728 C   0  0  0  0  0  0  0  0  0  0  0  0
   -2.6156    1.6630   -0.2394 O   0  0  0  0  0  0  0  0  0  0  0  0
   -1.5707    1.1602    0.4596 C   0  0  0  0  0  0  0  0  0  0  0  0
   -1.5727    0.1134    1.0857 O   0  0  0  0  0  0  0  0  0  0  0  0
   -0.4107    2.0818    0.3413 C   0  0  0  0  0  0  0  0  0  0  0  0
   -0.6155    3.4593    0.1563 C   0  0  0  0  0  0  0  0  0  0  0  0
    0.4732    4.3301    0.0655 C   0  0  0  0  0  0  0  0  0  0  0  0
    1.7732    3.8352    0.1543 C   0  0  0  0  0  0  0  0  0  0  0  0
    1.9892    2.4696    0.3363 C   0  0  0  0  0  0  0  0  0  0  0  0
    0.9003    1.5977    0.4458 C   0  0  0  0  0  0  0  0  0  0  0  0
    1.1591    0.2571    0.5599 O   0  0  0  0  0  0  0  0  0  0  0  0
    1.4529   -0.1020    1.9172 C   0  0  0  0  0  0  0  0  0  0  0  0
    2.8893   -0.6146    2.0581 C   0  0  0  0  0  0  0  0  0  0  0  0
    3.4422   -0.6504    3.1534 O   0  0  0  0  0  0  0  0  0  0  0  0
    3.4219   -1.0323    0.8499 N   0  0  0  0  0  0  0  0  0  0  0  0
    4.6984   -1.5640    0.5974 C   0  0  0  0  0  0  0  0  0  0  0  0
    5.6625   -1.7801    1.5812 C   0  0  0  0  0  0  0  0  0  0  0  0
    6.9138   -2.3143    1.2459 C   0  0  0  0  0  0  0  0  0  0  0  0
    7.2221   -2.6299   -0.0789 C   0  0  0  0  0  0  0  0  0  0  0  0
    8.7885   -3.3388   -0.5469 S   0  0  0  0  0  0  0  0  0  0  0  0
    9.9189   -2.0698    0.0619 C   0  0  0  0  0  0  0  0  0  0  0  0
    9.9258   -2.0296    1.4186 F   0  0  0  0  0  0  0  0  0  0  0  0
    9.5521   -0.8378   -0.3732 F   0  0  0  0  0  0  0  0  0  0  0  0
    6.2509   -2.4290   -1.0627 C   0  0  0  0  0  0  0  0  0  0  0  0
    5.0015   -1.8954   -0.7277 C   0  0  0  0  0  0  0  0  0  0  0  0
   -5.6802   -2.3226    1.6528 H   0  0  0  0  0  0  0  0  0  0  0  0
   -6.2511   -2.8912    0.0795 H   0  0  0  0  0  0  0  0  0  0  0  0
   -7.3579   -2.0012    1.1988 H   0  0  0  0  0  0  0  0  0  0  0  0
   -8.0715   -1.9120   -1.0263 H   0  0  0  0  0  0  0  0  0  0  0  0
   -9.2233   -0.8771   -2.9094 H   0  0  0  0  0  0  0  0  0  0  0  0
   -8.4533    1.2985   -3.8202 H   0  0  0  0  0  0  0  0  0  0  0  0
   -6.4923    2.4238   -2.8331 H   0  0  0  0  0  0  0  0  0  0  0  0
   -3.6283   -0.0662   -0.7096 H   0  0  0  0  0  0  0  0  0  0  0  0
   -4.0700    0.7021    0.8764 H   0  0  0  0  0  0  0  0  0  0  0  0
   -1.6230    3.8668    0.0830 H   0  0  0  0  0  0  0  0  0  0  0  0
    0.3041    5.3949   -0.0789 H   0  0  0  0  0  0  0  0  0  0  0  0
    2.6198    4.5134    0.0745 H   0  0  0  0  0  0  0  0  0  0  0  0
    3.0072    2.0907    0.3856 H   0  0  0  0  0  0  0  0  0  0  0  0
    1.3056    0.7271    2.6217 H   0  0  0  0  0  0  0  0  0  0  0  0
    0.7830   -0.9210    2.2000 H   0  0  0  0  0  0  0  0  0  0  0  0
    2.8044   -0.9123    0.0516 H   0  0  0  0  0  0  0  0  0  0  0  0
    5.4745   -1.5496    2.6256 H   0  0  0  0  0  0  0  0  0  0  0  0
    7.6340   -2.4846    2.0433 H   0  0  0  0  0  0  0  0  0  0  0  0
   10.9367   -2.2710   -0.2818 H   0  0  0  0  0  0  0  0  0  0  0  0
    6.4554   -2.6819   -2.1006 H   0  0  0  0  0  0  0  0  0  0  0  0
    4.2717   -1.7467   -1.5196 H   0  0  0  0  0  0  0  0  0  0  0  0
  1  2  1  0
  2  3  1  0
  3  4  2  0
  4  5  1  0
  5  6  2  0
  6  7  1  0
  7  8  2  0
  8  9  1  0
  9 10  2  0
  9 11  1  0
 11 12  1  0
 12 13  1  0
 13 14  2  0
 13 15  1  0
 15 16  2  0
 16 17  1  0
 17 18  2  0
 18 19  1  0
 19 20  2  0
 20 21  1  0
 21 22  1  0
 22 23  1  0
 23 24  2  0
 23 25  1  0
 25 26  1  0
 26 27  2  0
 27 28  1  0
 28 29  2  0
 29 30  1  0
 30 31  1  0
 31 32  1  0
 31 33  1  0
 29 34  1  0
 34 35  2  0
  8  3  1  0
 20 15  1  0
 35 26  1  0
  1 36  1  0
  1 37  1  0
  1 38  1  0
  4 39  1  0
  5 40  1  0
  6 41  1  0
  7 42  1  0
 11 43  1  0
 11 44  1  0
 16 45  1  0
 17 46  1  0
 18 47  1  0
 19 48  1  0
 22 49  1  0
 22 50  1  0
 25 51  1  0
 27 52  1  0
 28 53  1  0
 31 54  1  0
 34 55  1  0
 35 56  1  0
M  END
$$$$
