
     RDKit          3D

 52 51  0  0  0  0  0  0  0  0999 V2000
   -4.3170    2.0574   -2.9798 C   0  0  0  0  0  0  0  0  0  0  0  0
   -3.9751    2.2612   -1.8462 C   0  0  0  0  0  0  0  0  0  0  0  0
   -3.5545    2.5276   -0.4679 C   0  0  0  0  0  0  0  0  0  0  0  0
   -3.7668    1.3040    0.4589 N   0  0  0  0  0  4  0  0  0  0  0  0
   -3.3440    1.7369    1.8610 C   0  0  0  0  0  0  0  0  0  0  0  0
   -5.2462    0.9325    0.4786 C   0  0  0  0  0  0  0  0  0  0  0  0
   -2.8920    0.1361   -0.0451 C   0  0  0  0  0  0  0  0  0  0  0  0
   -2.9698   -1.1157    0.8363 C   0  0  0  0  0  0  0  0  0  0  0  0
   -2.0782   -2.2498    0.3102 C   0  0  0  0  0  0  0  0  0  0  0  0
   -0.7067   -2.3531    0.9878 C   0  0  0  0  0  0  0  0  0  0  0  0
    0.1865   -1.1285    0.7894 C   0  0  0  0  0  0  0  0  0  0  0  0
    1.5922   -1.3725    1.3445 C   0  0  0  0  0  0  0  0  0  0  0  0
    2.4901   -0.1324    1.2909 C   0  0  0  0  0  0  0  0  0  0  0  0
    2.7397    0.4476   -0.1051 C   0  0  0  0  0  0  0  0  0  0  0  0
    3.3472   -0.5209   -1.1245 C   0  0  0  0  0  0  0  0  0  0  0  0
    4.6858   -1.1492   -0.7230 C   0  0  0  0  0  0  0  0  0  0  0  0
    5.8130   -0.1616   -0.4120 C   0  0  0  0  0  0  0  0  0  0  0  0
    6.1768    0.7337   -1.5861 C   0  0  0  0  0  0  0  0  0  0  0  0
   -4.6170    1.8890   -3.9909 H   0  0  0  0  0  0  0  0  0  0  0  0
   -4.1306    3.3583   -0.0443 H   0  0  0  0  0  0  0  0  0  0  0  0
   -2.4897    2.7831   -0.4229 H   0  0  0  0  0  0  0  0  0  0  0  0
   -3.5959    0.9470    2.5725 H   0  0  0  0  0  0  0  0  0  0  0  0
   -3.8921    2.6472    2.1236 H   0  0  0  0  0  0  0  0  0  0  0  0
   -2.2666    1.9262    1.8556 H   0  0  0  0  0  0  0  0  0  0  0  0
   -5.4172    0.2103    1.2815 H   0  0  0  0  0  0  0  0  0  0  0  0
   -5.8289    1.8384    0.6717 H   0  0  0  0  0  0  0  0  0  0  0  0
   -5.5183    0.4931   -0.4848 H   0  0  0  0  0  0  0  0  0  0  0  0
   -1.8695    0.5194   -0.1088 H   0  0  0  0  0  0  0  0  0  0  0  0
   -3.2314   -0.1125   -1.0565 H   0  0  0  0  0  0  0  0  0  0  0  0
   -2.7104   -0.9005    1.8770 H   0  0  0  0  0  0  0  0  0  0  0  0
   -4.0022   -1.4836    0.8347 H   0  0  0  0  0  0  0  0  0  0  0  0
   -1.9551   -2.1759   -0.7769 H   0  0  0  0  0  0  0  0  0  0  0  0
   -2.5973   -3.1993    0.4953 H   0  0  0  0  0  0  0  0  0  0  0  0
   -0.1978   -3.2384    0.5861 H   0  0  0  0  0  0  0  0  0  0  0  0
   -0.8453   -2.5339    2.0610 H   0  0  0  0  0  0  0  0  0  0  0  0
    0.2417   -0.8927   -0.2788 H   0  0  0  0  0  0  0  0  0  0  0  0
   -0.2508   -0.2642    1.3012 H   0  0  0  0  0  0  0  0  0  0  0  0
    2.0646   -2.2033    0.8082 H   0  0  0  0  0  0  0  0  0  0  0  0
    1.5132   -1.6882    2.3925 H   0  0  0  0  0  0  0  0  0  0  0  0
    2.0429    0.6532    1.9132 H   0  0  0  0  0  0  0  0  0  0  0  0
    3.4499   -0.3767    1.7611 H   0  0  0  0  0  0  0  0  0  0  0  0
    1.7964    0.8318   -0.5116 H   0  0  0  0  0  0  0  0  0  0  0  0
    3.3908    1.3242   -0.0041 H   0  0  0  0  0  0  0  0  0  0  0  0
    2.6335   -1.3280   -1.3287 H   0  0  0  0  0  0  0  0  0  0  0  0
    3.4675    0.0095   -2.0768 H   0  0  0  0  0  0  0  0  0  0  0  0
    4.5383   -1.7967    0.1493 H   0  0  0  0  0  0  0  0  0  0  0  0
    5.0110   -1.8108   -1.5360 H   0  0  0  0  0  0  0  0  0  0  0  0
    6.7024   -0.7352   -0.1241 H   0  0  0  0  0  0  0  0  0  0  0  0
    5.5523    0.4574    0.4532 H   0  0  0  0  0  0  0  0  0  0  0  0
    6.4231    0.1397   -2.4718 H   0  0  0  0  0  0  0  0  0  0  0  0
    7.0493    1.3456   -1.3355 H   0  0  0  0  0  0  0  0  0  0  0  0
    5.3583    1.4133   -1.8411 H   0  0  0  0  0  0  0  0  0  0  0  0
  1  2  3  0
  2  3  1  0
  3  4  1  0
  4  5  1  0
  4  6  1  0
  4  7  1  0
  7  8  1  0
  8  9  1  0
  9 10  1  0
 10 11  1  0
 11 12  1  0
 12 13  1  0
 13 14  1  0
 14 15  1  0
 15 16  1  0
 16 17  1  0
 17 18  1  0
  1 19  1  0
  3 20  1  0
  3 21  1  0
  5 22  1  0
  5 23  1  0
  5 24  1  0
  6 25  1  0
  6 26  1  0
  6 27  1  0
  7 28  1  0
  7 29  1  0
  8 30  1  0
  8 31  1  0
  9 32  1  0
  9 33  1  0
 10 34  1  0
 10 35  1  0
 11 36  1  0
 11 37  1  0
 12 38  1  0
 12 39  1  0
 13 40  1  0
 13 41  1  0
 14 42  1  0
 14 43  1  0
 15 44  1  0
 15 45  1  0
 16 46  1  0
 16 47  1  0
 17 48  1  0
 17 49  1  0
 18 50  1  0
 18 51  1  0
 18 52  1  0
M  CHG  1   4   1
M  END
$$$$
