
     RDKit          3D

 21 21  0  0  0  0  0  0  0  0999 V2000
   -3.5738    3.1697   -0.0059 C   0  0  0  0  0  3  0  0  0  0  0  0
   -2.8284    2.3195   -0.3090 N   0  0  0  0  0  4  0  0  0  0  0  0
   -1.9041    1.2607   -0.6923 C   0  0  0  0  0  0  0  0  0  0  0  0
   -1.0302    0.6984    0.1455 C   0  0  0  0  0  0  0  0  0  0  0  0
   -0.2624   -0.3133   -0.5331 C   0  0  0  0  0  0  0  0  0  0  0  0
    0.7122   -1.0854   -0.0309 C   0  0  0  0  0  0  0  0  0  0  0  0
    1.2535   -1.0804    1.3728 C   0  0  0  0  0  0  0  0  0  0  0  0
    2.7291   -0.7345    1.3919 C   0  0  0  0  0  0  0  0  0  0  0  0
    3.4985   -0.6733    0.4473 O   0  0  0  0  0  0  0  0  0  0  0  0
    3.1776   -0.5154    2.6463 O   0  0  0  0  0  0  0  0  0  0  0  0
   -0.7428   -0.3680   -1.9658 C   0  0  0  0  0  0  0  0  0  0  0  0
   -1.8415    0.6966   -2.0691 C   0  0  0  0  0  0  0  0  0  0  0  0
   -0.9211    0.9714    1.1845 H   0  0  0  0  0  0  0  0  0  0  0  0
    1.1921   -1.8002   -0.7005 H   0  0  0  0  0  0  0  0  0  0  0  0
    0.7268   -0.3622    2.0075 H   0  0  0  0  0  0  0  0  0  0  0  0
    1.1330   -2.0796    1.8045 H   0  0  0  0  0  0  0  0  0  0  0  0
    4.1298   -0.3158    2.5241 H   0  0  0  0  0  0  0  0  0  0  0  0
    0.0730   -0.1463   -2.6634 H   0  0  0  0  0  0  0  0  0  0  0  0
   -1.1456   -1.3585   -2.2068 H   0  0  0  0  0  0  0  0  0  0  0  0
   -2.7980    0.2500   -2.3595 H   0  0  0  0  0  0  0  0  0  0  0  0
   -1.5778    1.4665   -2.8015 H   0  0  0  0  0  0  0  0  0  0  0  0
  1  2  3  0
  2  3  1  0
  3  4  2  0
  4  5  1  0
  5  6  2  3
  6  7  1  0
  7  8  1  0
  8  9  2  0
  8 10  1  0
  5 11  1  0
 11 12  1  0
 12  3  1  0
  4 13  1  0
  6 14  1  0
  7 15  1  0
  7 16  1  0
 10 17  1  0
 11 18  1  0
 11 19  1  0
 12 20  1  0
 12 21  1  0
M  CHG  2   1  -1   2   1
M  END
$$$$
