
     RDKit          3D

 35 37  0  0  0  0  0  0  0  0999 V2000
   -1.7060    3.7168    5.0091 C   0  0  0  0  0  0  0  0  0  0  0  0
   -2.0354    3.9017    3.6384 O   0  0  0  0  0  0  0  0  0  0  0  0
   -1.4956    3.0158    2.7476 C   0  0  0  0  0  0  0  0  0  0  0  0
   -1.8946    3.2039    1.4224 C   0  0  0  0  0  0  0  0  0  0  0  0
   -1.4184    2.3700    0.4072 C   0  0  0  0  0  0  0  0  0  0  0  0
   -0.5355    1.3309    0.7116 C   0  0  0  0  0  0  0  0  0  0  0  0
   -0.0072    0.4494   -0.3348 C   0  0  0  0  0  0  0  0  0  0  0  0
   -0.7172   -0.4506   -1.0475 C   0  0  0  0  0  0  0  0  0  0  0  0
   -2.1244   -0.6294   -0.8332 C   0  0  0  0  0  0  0  0  0  0  0  0
   -3.2667   -0.7718   -0.6763 N   0  0  0  0  0  0  0  0  0  0  0  0
   -0.1031   -1.2735   -2.0534 C   0  0  0  0  0  0  0  0  0  0  0  0
   -0.6015   -1.4492   -3.3288 C   0  0  0  0  0  0  0  0  0  0  0  0
    0.2482   -2.2841   -4.0046 N   0  0  0  0  0  0  0  0  0  0  0  0
    1.2909   -2.6641   -3.1911 C   0  0  0  0  0  0  0  0  0  0  0  0
    2.3784   -3.5042   -3.4601 C   0  0  0  0  0  0  0  0  0  0  0  0
    3.2942   -3.7316   -2.4296 C   0  0  0  0  0  0  0  0  0  0  0  0
    3.1251   -3.1448   -1.1789 C   0  0  0  0  0  0  0  0  0  0  0  0
    2.0325   -2.3070   -0.9260 C   0  0  0  0  0  0  0  0  0  0  0  0
    1.0959   -2.0501   -1.9513 C   0  0  0  0  0  0  0  0  0  0  0  0
   -0.1280    1.1465    2.0365 C   0  0  0  0  0  0  0  0  0  0  0  0
   -0.6079    1.9835    3.0512 C   0  0  0  0  0  0  0  0  0  0  0  0
   -2.0413    2.7381    5.3683 H   0  0  0  0  0  0  0  0  0  0  0  0
   -0.6329    3.8543    5.1782 H   0  0  0  0  0  0  0  0  0  0  0  0
   -2.2343    4.4819    5.5861 H   0  0  0  0  0  0  0  0  0  0  0  0
   -2.5859    4.0070    1.1779 H   0  0  0  0  0  0  0  0  0  0  0  0
   -1.7454    2.5447   -0.6151 H   0  0  0  0  0  0  0  0  0  0  0  0
    1.0595    0.5677   -0.5155 H   0  0  0  0  0  0  0  0  0  0  0  0
   -1.4817   -1.0526   -3.8194 H   0  0  0  0  0  0  0  0  0  0  0  0
    0.1290   -2.5873   -4.9616 H   0  0  0  0  0  0  0  0  0  0  0  0
    2.5100   -3.9699   -4.4316 H   0  0  0  0  0  0  0  0  0  0  0  0
    4.1484   -4.3813   -2.6071 H   0  0  0  0  0  0  0  0  0  0  0  0
    3.8454   -3.3413   -0.3884 H   0  0  0  0  0  0  0  0  0  0  0  0
    1.9113   -1.8674    0.0595 H   0  0  0  0  0  0  0  0  0  0  0  0
    0.5623    0.3466    2.2951 H   0  0  0  0  0  0  0  0  0  0  0  0
   -0.2681    1.8014    4.0651 H   0  0  0  0  0  0  0  0  0  0  0  0
  1  2  1  0
  2  3  1  0
  3  4  2  0
  4  5  1  0
  5  6  2  0
  6  7  1  0
  7  8  2  3
  8  9  1  0
  9 10  3  0
  8 11  1  0
 11 12  2  0
 12 13  1  0
 13 14  1  0
 14 15  2  0
 15 16  1  0
 16 17  2  0
 17 18  1  0
 18 19  2  0
  6 20  1  0
 20 21  2  0
 21  3  1  0
 19 11  1  0
 19 14  1  0
  1 22  1  0
  1 23  1  0
  1 24  1  0
  4 25  1  0
  5 26  1  0
  7 27  1  0
 12 28  1  0
 13 29  1  0
 15 30  1  0
 16 31  1  0
 17 32  1  0
 18 33  1  0
 20 34  1  0
 21 35  1  0
M  END
$$$$
