
     RDKit          3D

 50 53  0  0  0  0  0  0  0  0999 V2000
    7.8216    1.1264    2.7062 C   0  0  0  0  0  0  0  0  0  0  0  0
    7.1014    1.9267    1.6352 C   0  0  0  0  0  0  0  0  0  0  0  0
    6.6760    1.0495    0.5874 O   0  0  0  0  0  0  0  0  0  0  0  0
    5.3323    0.8489    0.4538 C   0  0  0  0  0  0  0  0  0  0  0  0
    4.4695    0.7046    1.5427 C   0  0  0  0  0  0  0  0  0  0  0  0
    3.1126    0.4184    1.3391 C   0  0  0  0  0  0  0  0  0  0  0  0
    2.6023    0.2454    0.0447 C   0  0  0  0  0  0  0  0  0  0  0  0
    1.1533   -0.0647   -0.1147 C   0  0  0  0  0  0  0  0  0  0  0  0
    0.3724    0.4118    0.6995 O   0  0  0  0  0  0  0  0  0  0  0  0
    0.8478   -0.9098   -1.1657 N   0  0  0  0  0  0  0  0  0  0  0  0
   -0.4375   -1.3140   -1.5881 C   0  0  0  0  0  0  0  0  0  0  0  0
   -0.5025   -2.2864   -2.5927 C   0  0  0  0  0  0  0  0  0  0  0  0
   -1.7351   -2.7343   -3.0689 C   0  0  0  0  0  0  0  0  0  0  0  0
   -2.9169   -2.2118   -2.5457 C   0  0  0  0  0  0  0  0  0  0  0  0
   -2.8784   -1.2334   -1.5445 C   0  0  0  0  0  0  0  0  0  0  0  0
   -4.1343   -0.6771   -0.9921 C   0  0  0  0  0  0  0  0  0  0  0  0
   -4.3255   -0.7098    0.3379 C   0  0  0  0  0  0  0  0  0  0  0  0
   -5.5430   -0.1829    0.9304 C   0  0  0  0  0  0  0  0  0  0  0  0
   -5.7614   -0.1872    2.3101 C   0  0  0  0  0  0  0  0  0  0  0  0
   -6.9510    0.3312    2.8324 C   0  0  0  0  0  0  0  0  0  0  0  0
   -7.9258    0.8540    1.9794 C   0  0  0  0  0  0  0  0  0  0  0  0
   -7.7131    0.8617    0.6021 C   0  0  0  0  0  0  0  0  0  0  0  0
   -6.5228    0.3434    0.0974 C   0  0  0  0  0  0  0  0  0  0  0  0
   -6.3406    0.3745   -1.2946 O   0  0  0  0  0  0  0  0  0  0  0  0
   -5.1819   -0.1103   -1.8948 C   0  0  0  0  0  0  0  0  0  0  0  0
   -5.0462   -0.0681   -3.1136 O   0  0  0  0  0  0  0  0  0  0  0  0
   -1.6277   -0.7881   -1.0772 C   0  0  0  0  0  0  0  0  0  0  0  0
    3.4494    0.3907   -1.0553 C   0  0  0  0  0  0  0  0  0  0  0  0
    4.8027    0.6848   -0.8317 C   0  0  0  0  0  0  0  0  0  0  0  0
    5.6591    0.8219   -1.9942 N   0  0  0  0  0  4  0  0  0  0  0  0
    6.2494    1.8984   -2.1520 O   0  0  0  0  0  0  0  0  0  0  0  0
    5.6815   -0.1365   -2.7799 O   0  0  0  0  0  1  0  0  0  0  0  0
    7.1615    0.3722    3.1473 H   0  0  0  0  0  0  0  0  0  0  0  0
    8.6726    0.5894    2.2734 H   0  0  0  0  0  0  0  0  0  0  0  0
    8.1889    1.7833    3.5008 H   0  0  0  0  0  0  0  0  0  0  0  0
    7.8067    2.6370    1.1881 H   0  0  0  0  0  0  0  0  0  0  0  0
    6.2852    2.5253    2.0566 H   0  0  0  0  0  0  0  0  0  0  0  0
    4.8291    0.7863    2.5646 H   0  0  0  0  0  0  0  0  0  0  0  0
    2.4530    0.3154    2.2006 H   0  0  0  0  0  0  0  0  0  0  0  0
    1.6187   -1.3524   -1.6497 H   0  0  0  0  0  0  0  0  0  0  0  0
    0.4019   -2.7113   -3.0206 H   0  0  0  0  0  0  0  0  0  0  0  0
   -1.7768   -3.4868   -3.8525 H   0  0  0  0  0  0  0  0  0  0  0  0
   -3.8684   -2.5682   -2.9363 H   0  0  0  0  0  0  0  0  0  0  0  0
   -3.5838   -1.1318    1.0100 H   0  0  0  0  0  0  0  0  0  0  0  0
   -5.0132   -0.5877    2.9905 H   0  0  0  0  0  0  0  0  0  0  0  0
   -7.1171    0.3286    3.9074 H   0  0  0  0  0  0  0  0  0  0  0  0
   -8.8488    1.2567    2.3894 H   0  0  0  0  0  0  0  0  0  0  0  0
   -8.4639    1.2681   -0.0693 H   0  0  0  0  0  0  0  0  0  0  0  0
   -1.6059   -0.0085   -0.3212 H   0  0  0  0  0  0  0  0  0  0  0  0
    3.0727    0.3067   -2.0718 H   0  0  0  0  0  0  0  0  0  0  0  0
  1  2  1  0
  2  3  1  0
  3  4  1  0
  4  5  2  0
  5  6  1  0
  6  7  2  0
  7  8  1  0
  8  9  2  0
  8 10  1  0
 10 11  1  0
 11 12  2  0
 12 13  1  0
 13 14  2  0
 14 15  1  0
 15 16  1  0
 16 17  2  0
 17 18  1  0
 18 19  2  0
 19 20  1  0
 20 21  2  0
 21 22  1  0
 22 23  2  0
 23 24  1  0
 24 25  1  0
 25 26  2  0
 15 27  2  0
  7 28  1  0
 28 29  2  0
 29 30  1  0
 30 31  2  0
 30 32  1  0
 29  4  1  0
 27 11  1  0
 25 16  1  0
 23 18  1  0
  1 33  1  0
  1 34  1  0
  1 35  1  0
  2 36  1  0
  2 37  1  0
  5 38  1  0
  6 39  1  0
 10 40  1  0
 12 41  1  0
 13 42  1  0
 14 43  1  0
 17 44  1  0
 19 45  1  0
 20 46  1  0
 21 47  1  0
 22 48  1  0
 27 49  1  0
 28 50  1  0
M  CHG  2  30   1  32  -1
M  END
$$$$
