
     RDKit          3D

 51 54  0  0  0  0  0  0  0  0999 V2000
    5.9467    2.0965   -4.0385 C   0  0  0  0  0  0  0  0  0  0  0  0
    5.8218    1.3922   -2.6961 C   0  0  0  0  0  0  0  0  0  0  0  0
    4.4111    1.4359   -2.1697 C   0  0  0  0  0  0  0  0  0  0  0  0
    3.4916    0.4416   -2.5102 C   0  0  0  0  0  0  0  0  0  0  0  0
    2.1746    0.4932   -2.0346 C   0  0  0  0  0  0  0  0  0  0  0  0
    1.7332    1.5394   -1.2087 C   0  0  0  0  0  0  0  0  0  0  0  0
    0.3704    1.6004   -0.7109 N   0  0  0  0  0  0  0  0  0  0  0  0
   -0.2294    2.8597   -0.5898 C   0  0  0  0  0  0  0  0  0  0  0  0
    0.2407    3.9245   -0.9938 O   0  0  0  0  0  0  0  0  0  0  0  0
   -1.5669    2.9206    0.0186 C   0  0  0  0  0  0  0  0  0  0  0  0
   -2.1479    4.1742    0.2820 C   0  0  0  0  0  0  0  0  0  0  0  0
   -3.4153    4.2566    0.8495 C   0  0  0  0  0  0  0  0  0  0  0  0
   -4.1005    3.0882    1.1555 C   0  0  0  0  0  0  0  0  0  0  0  0
   -3.5211    1.8427    0.8873 C   0  0  0  0  0  0  0  0  0  0  0  0
   -2.2450    1.7432    0.3070 C   0  0  0  0  0  0  0  0  0  0  0  0
   -1.6277    0.5026    0.0125 N   0  0  0  0  0  0  0  0  0  0  0  0
   -2.3105   -0.7622    0.2956 C   0  0  0  0  0  0  0  0  0  0  0  0
   -2.1100   -1.2216    1.7450 C   0  0  0  0  0  0  0  0  0  0  0  0
   -1.8786   -0.4553    2.6768 O   0  0  0  0  0  0  0  0  0  0  0  0
   -2.2820   -2.5751    1.9288 N   0  0  0  0  0  0  0  0  0  0  0  0
   -2.2237   -3.1596    3.2477 C   0  0  0  0  0  0  0  0  0  0  0  0
   -2.1890   -4.6347    3.1116 C   0  0  0  0  0  0  0  0  0  0  0  0
   -1.2639   -5.5975    3.4584 C   0  0  0  0  0  0  0  0  0  0  0  0
   -1.8096   -6.8402    3.0557 C   0  0  0  0  0  0  0  0  0  0  0  0
   -3.0301   -6.5579    2.4890 C   0  0  0  0  0  0  0  0  0  0  0  0
   -3.2692   -5.2214    2.5139 O   0  0  0  0  0  0  0  0  0  0  0  0
   -0.3004    0.4046   -0.4128 C   0  0  0  0  0  0  0  0  0  0  0  0
    0.2190   -0.7149   -0.4852 O   0  0  0  0  0  0  0  0  0  0  0  0
    2.6691    2.5351   -0.8818 C   0  0  0  0  0  0  0  0  0  0  0  0
    3.9866    2.4874   -1.3552 C   0  0  0  0  0  0  0  0  0  0  0  0
    5.3066    1.6284   -4.7941 H   0  0  0  0  0  0  0  0  0  0  0  0
    6.9806    2.0511   -4.3950 H   0  0  0  0  0  0  0  0  0  0  0  0
    5.6599    3.1509   -3.9624 H   0  0  0  0  0  0  0  0  0  0  0  0
    6.5013    1.8556   -1.9704 H   0  0  0  0  0  0  0  0  0  0  0  0
    6.1472    0.3491   -2.7927 H   0  0  0  0  0  0  0  0  0  0  0  0
    3.7876   -0.3830   -3.1554 H   0  0  0  0  0  0  0  0  0  0  0  0
    1.4984   -0.2936   -2.3585 H   0  0  0  0  0  0  0  0  0  0  0  0
   -1.6096    5.0905    0.0456 H   0  0  0  0  0  0  0  0  0  0  0  0
   -3.8601    5.2264    1.0571 H   0  0  0  0  0  0  0  0  0  0  0  0
   -5.0860    3.1403    1.6131 H   0  0  0  0  0  0  0  0  0  0  0  0
   -4.0943    0.9671    1.1747 H   0  0  0  0  0  0  0  0  0  0  0  0
   -1.9296   -1.5430   -0.3742 H   0  0  0  0  0  0  0  0  0  0  0  0
   -3.3804   -0.6870    0.0782 H   0  0  0  0  0  0  0  0  0  0  0  0
   -2.6069   -3.1630    1.1712 H   0  0  0  0  0  0  0  0  0  0  0  0
   -3.1114   -2.8413    3.8039 H   0  0  0  0  0  0  0  0  0  0  0  0
   -1.3373   -2.7849    3.7703 H   0  0  0  0  0  0  0  0  0  0  0  0
   -0.3116   -5.4211    3.9401 H   0  0  0  0  0  0  0  0  0  0  0  0
   -1.3686   -7.8212    3.1645 H   0  0  0  0  0  0  0  0  0  0  0  0
   -3.8073   -7.1642    2.0442 H   0  0  0  0  0  0  0  0  0  0  0  0
    2.4021    3.3629   -0.2287 H   0  0  0  0  0  0  0  0  0  0  0  0
    4.6756    3.2821   -1.0774 H   0  0  0  0  0  0  0  0  0  0  0  0
  1  2  1  0
  2  3  1  0
  3  4  2  0
  4  5  1  0
  5  6  2  0
  6  7  1  0
  7  8  1  0
  8  9  2  0
  8 10  1  0
 10 11  2  0
 11 12  1  0
 12 13  2  0
 13 14  1  0
 14 15  2  0
 15 16  1  0
 16 17  1  0
 17 18  1  0
 18 19  2  0
 18 20  1  0
 20 21  1  0
 21 22  1  0
 22 23  2  0
 23 24  1  0
 24 25  2  0
 25 26  1  0
 16 27  1  0
 27 28  2  0
  6 29  1  0
 29 30  2  0
 30  3  1  0
 27  7  1  0
 15 10  1  0
 26 22  1  0
  1 31  1  0
  1 32  1  0
  1 33  1  0
  2 34  1  0
  2 35  1  0
  4 36  1  0
  5 37  1  0
 11 38  1  0
 12 39  1  0
 13 40  1  0
 14 41  1  0
 17 42  1  0
 17 43  1  0
 20 44  1  0
 21 45  1  0
 21 46  1  0
 23 47  1  0
 24 48  1  0
 25 49  1  0
 29 50  1  0
 30 51  1  0
M  END
$$$$
