
     RDKit          3D

 43 46  0  0  0  0  0  0  0  0999 V2000
   -1.7159   -0.8348   -1.7989 O   0  0  0  0  0  0  0  0  0  0  0  0
   -1.9165   -0.4237   -0.6626 C   0  0  0  0  0  0  0  0  0  0  0  0
   -0.9636   -0.0279    0.2587 N   0  0  0  0  0  0  0  0  0  0  0  0
    0.4380   -0.0868    0.1177 C   0  0  0  0  0  0  0  0  0  0  0  0
    1.0905   -0.6525   -0.9753 C   0  0  0  0  0  0  0  0  0  0  0  0
    2.4903   -0.6752   -1.0330 C   0  0  0  0  0  0  0  0  0  0  0  0
    3.2628   -0.1362    0.0012 C   0  0  0  0  0  0  0  0  0  0  0  0
    4.6616   -0.2027   -0.1415 N   0  0  0  0  0  0  0  0  0  0  0  0
    5.6402    0.2487    0.7290 C   0  0  0  0  0  0  0  0  0  0  0  0
    5.4130    0.7966    1.8042 O   0  0  0  0  0  0  0  0  0  0  0  0
    7.0136    0.0236    0.2724 C   0  0  0  0  0  0  0  0  0  0  0  0
    8.1722    0.3747    0.9438 C   0  0  0  0  0  0  0  0  0  0  0  0
    9.3534    0.0177    0.2321 C   0  0  0  0  0  0  0  0  0  0  0  0
    9.0642   -0.5969   -0.9645 C   0  0  0  0  0  0  0  0  0  0  0  0
    7.3806   -0.7391   -1.2213 S   0  0  0  0  0  0  0  0  0  0  0  0
    2.6103    0.4263    1.0961 C   0  0  0  0  0  0  0  0  0  0  0  0
    1.2101    0.4494    1.1535 C   0  0  0  0  0  0  0  0  0  0  0  0
   -3.3265   -0.2818   -0.2021 C   0  0  0  0  0  0  0  0  0  0  0  0
   -3.6978   -0.5492    1.1195 C   0  0  0  0  0  0  0  0  0  0  0  0
   -5.0313   -0.4035    1.5109 C   0  0  0  0  0  0  0  0  0  0  0  0
   -6.0107    0.0011    0.5893 C   0  0  0  0  0  0  0  0  0  0  0  0
   -7.3537    0.1529    0.9696 C   0  0  0  0  0  0  0  0  0  0  0  0
   -8.3175    0.5492    0.0409 C   0  0  0  0  0  0  0  0  0  0  0  0
   -7.9520    0.7968   -1.2790 C   0  0  0  0  0  0  0  0  0  0  0  0
   -6.6215    0.6498   -1.6739 C   0  0  0  0  0  0  0  0  0  0  0  0
   -5.6394    0.2539   -0.7521 C   0  0  0  0  0  0  0  0  0  0  0  0
   -4.2974    0.1030   -1.1350 C   0  0  0  0  0  0  0  0  0  0  0  0
   -1.2986    0.4170    1.1032 H   0  0  0  0  0  0  0  0  0  0  0  0
    0.5415   -1.0904   -1.8031 H   0  0  0  0  0  0  0  0  0  0  0  0
    2.9592   -1.1251   -1.9047 H   0  0  0  0  0  0  0  0  0  0  0  0
    5.0065   -0.6357   -0.9895 H   0  0  0  0  0  0  0  0  0  0  0  0
    8.1629    0.8692    1.9093 H   0  0  0  0  0  0  0  0  0  0  0  0
   10.3621    0.2031    0.5814 H   0  0  0  0  0  0  0  0  0  0  0  0
    9.7619   -0.9701   -1.7021 H   0  0  0  0  0  0  0  0  0  0  0  0
    3.1563    0.8594    1.9280 H   0  0  0  0  0  0  0  0  0  0  0  0
    0.7408    0.8984    2.0251 H   0  0  0  0  0  0  0  0  0  0  0  0
   -2.9720   -0.9003    1.8479 H   0  0  0  0  0  0  0  0  0  0  0  0
   -5.3053   -0.6195    2.5417 H   0  0  0  0  0  0  0  0  0  0  0  0
   -7.6614   -0.0385    1.9952 H   0  0  0  0  0  0  0  0  0  0  0  0
   -9.3540    0.6622    0.3483 H   0  0  0  0  0  0  0  0  0  0  0  0
   -8.7021    1.1033   -2.0035 H   0  0  0  0  0  0  0  0  0  0  0  0
   -6.3560    0.8459   -2.7108 H   0  0  0  0  0  0  0  0  0  0  0  0
   -3.9990    0.2879   -2.1660 H   0  0  0  0  0  0  0  0  0  0  0  0
  1  2  2  0
  2  3  1  0
  3  4  1  0
  4  5  2  0
  5  6  1  0
  6  7  2  0
  7  8  1  0
  8  9  1  0
  9 10  2  0
  9 11  1  0
 11 12  2  0
 12 13  1  0
 13 14  2  0
 14 15  1  0
  7 16  1  0
 16 17  2  0
  2 18  1  0
 18 19  2  0
 19 20  1  0
 20 21  2  0
 21 22  1  0
 22 23  2  0
 23 24  1  0
 24 25  2  0
 25 26  1  0
 26 27  2  0
 17  4  1  0
 27 18  1  0
 15 11  1  0
 26 21  1  0
  3 28  1  0
  5 29  1  0
  6 30  1  0
  8 31  1  0
 12 32  1  0
 13 33  1  0
 14 34  1  0
 16 35  1  0
 17 36  1  0
 19 37  1  0
 20 38  1  0
 22 39  1  0
 23 40  1  0
 24 41  1  0
 25 42  1  0
 27 43  1  0
M  END
$$$$
