
     RDKit          3D

 36 37  0  0  0  0  0  0  0  0999 V2000
   -2.8891   -0.0348    2.6660 C   0  0  0  0  0  0  0  0  0  0  0  0
   -2.0652   -1.3014    1.6650 S   0  0  0  0  0  0  0  0  0  0  0  0
   -3.0230   -1.1324    0.1613 C   0  0  0  0  0  0  0  0  0  0  0  0
   -4.2239   -1.8616    0.1085 C   0  0  0  0  0  0  0  0  0  0  0  0
   -5.0554   -1.7997   -1.0111 C   0  0  0  0  0  0  0  0  0  0  0  0
   -4.7002   -1.0053   -2.0962 C   0  0  0  0  0  0  0  0  0  0  0  0
   -3.5096   -0.2795   -2.0603 C   0  0  0  0  0  0  0  0  0  0  0  0
   -2.6546   -0.3416   -0.9444 C   0  0  0  0  0  0  0  0  0  0  0  0
   -1.3986    0.4653   -1.0479 C   0  0  0  0  0  0  0  0  0  0  0  0
   -1.4536    1.5374   -1.6415 O   0  0  0  0  0  0  0  0  0  0  0  0
   -0.2717   -0.1114   -0.4992 N   0  0  0  0  0  0  0  0  0  0  0  0
    1.0479    0.3834   -0.5040 C   0  0  0  0  0  0  0  0  0  0  0  0
    1.4373    1.5650   -1.1259 C   0  0  0  0  0  0  0  0  0  0  0  0
    2.7754    1.9715   -1.0962 C   0  0  0  0  0  0  0  0  0  0  0  0
    3.7505    1.2067   -0.4425 C   0  0  0  0  0  0  0  0  0  0  0  0
    5.1756    1.6854   -0.4305 C   0  0  0  0  0  0  0  0  0  0  0  0
    3.3652    0.0179    0.2048 C   0  0  0  0  0  0  0  0  0  0  0  0
    4.3623   -0.8375    0.9361 C   0  0  0  0  0  0  0  0  0  0  0  0
    2.0174   -0.3809    0.1595 C   0  0  0  0  0  0  0  0  0  0  0  0
   -2.7535    0.9610    2.2301 H   0  0  0  0  0  0  0  0  0  0  0  0
   -3.9576   -0.2511    2.7563 H   0  0  0  0  0  0  0  0  0  0  0  0
   -2.4526   -0.0337    3.6675 H   0  0  0  0  0  0  0  0  0  0  0  0
   -4.5256   -2.4881    0.9465 H   0  0  0  0  0  0  0  0  0  0  0  0
   -5.9799   -2.3714   -1.0343 H   0  0  0  0  0  0  0  0  0  0  0  0
   -5.3422   -0.9529   -2.9709 H   0  0  0  0  0  0  0  0  0  0  0  0
   -3.2391    0.3329   -2.9204 H   0  0  0  0  0  0  0  0  0  0  0  0
   -0.4145   -0.9798    0.0047 H   0  0  0  0  0  0  0  0  0  0  0  0
    0.7251    2.1979   -1.6432 H   0  0  0  0  0  0  0  0  0  0  0  0
    3.0487    2.8973   -1.5986 H   0  0  0  0  0  0  0  0  0  0  0  0
    5.4696    1.9685    0.5847 H   0  0  0  0  0  0  0  0  0  0  0  0
    5.3140    2.5579   -1.0776 H   0  0  0  0  0  0  0  0  0  0  0  0
    5.8454    0.9023   -0.7979 H   0  0  0  0  0  0  0  0  0  0  0  0
    3.8778   -1.6891    1.4249 H   0  0  0  0  0  0  0  0  0  0  0  0
    4.8652   -0.2578    1.7161 H   0  0  0  0  0  0  0  0  0  0  0  0
    5.1054   -1.2345    0.2392 H   0  0  0  0  0  0  0  0  0  0  0  0
    1.7270   -1.3060    0.6527 H   0  0  0  0  0  0  0  0  0  0  0  0
  1  2  1  0
  2  3  1  0
  3  4  2  0
  4  5  1  0
  5  6  2  0
  6  7  1  0
  7  8  2  0
  8  9  1  0
  9 10  2  0
  9 11  1  0
 11 12  1  0
 12 13  2  0
 13 14  1  0
 14 15  2  0
 15 16  1  0
 15 17  1  0
 17 18  1  0
 17 19  2  0
  8  3  1  0
 19 12  1  0
  1 20  1  0
  1 21  1  0
  1 22  1  0
  4 23  1  0
  5 24  1  0
  6 25  1  0
  7 26  1  0
 11 27  1  0
 13 28  1  0
 14 29  1  0
 16 30  1  0
 16 31  1  0
 16 32  1  0
 18 33  1  0
 18 34  1  0
 18 35  1  0
 19 36  1  0
M  END
$$$$
