
     RDKit          3D

 64 69  0  0  0  0  0  0  0  0999 V2000
   -9.6543    1.0451   -0.1798 C   0  0  0  0  0  0  0  0  0  0  0  0
   -8.6719    1.8785    0.4205 O   0  0  0  0  0  0  0  0  0  0  0  0
   -7.3703    1.4804    0.3036 C   0  0  0  0  0  0  0  0  0  0  0  0
   -6.4394    2.3473    0.8732 C   0  0  0  0  0  0  0  0  0  0  0  0
   -5.0728    2.0661    0.8152 C   0  0  0  0  0  0  0  0  0  0  0  0
   -4.6115    0.9070    0.1760 C   0  0  0  0  0  0  0  0  0  0  0  0
   -3.2076    0.6214    0.1232 N   0  0  0  0  0  0  0  0  0  0  0  0
   -2.1589    1.5575    0.1018 C   0  0  0  0  0  0  0  0  0  0  0  0
   -2.3587    2.9028   -0.0559 N   0  0  0  0  0  0  0  0  0  0  0  0
   -0.9421    0.8869    0.1830 C   0  0  0  0  0  0  0  0  0  0  0  0
    0.3831    1.5119    0.1873 C   0  0  0  0  0  0  0  0  0  0  0  0
    0.5047    2.7287    0.0766 O   0  0  0  0  0  0  0  0  0  0  0  0
    1.4274    0.6176    0.2587 N   0  0  0  0  0  0  0  0  0  0  0  0
    2.7775    0.8473    0.2356 C   0  0  0  0  0  0  0  0  0  0  0  0
    3.5708    1.9189    0.4054 C   0  0  0  0  0  0  0  0  0  0  0  0
    3.1556    3.2999    0.7952 C   0  0  0  0  0  0  0  0  0  0  0  0
    4.9404    1.6041    0.2642 N   0  0  0  0  0  0  0  0  0  0  0  0
    5.8776    2.0033    1.3293 C   0  0  0  0  0  0  0  0  0  0  0  0
    4.9990    0.2189   -0.0536 N   0  0  0  0  0  0  0  0  0  0  0  0
    6.0952   -0.3359   -0.7746 C   0  0  0  0  0  0  0  0  0  0  0  0
    7.1197    0.4744   -1.2904 C   0  0  0  0  0  0  0  0  0  0  0  0
    8.2009   -0.0762   -1.9922 C   0  0  0  0  0  0  0  0  0  0  0  0
    8.2655   -1.4486   -2.2033 C   0  0  0  0  0  0  0  0  0  0  0  0
    7.2488   -2.2671   -1.7142 C   0  0  0  0  0  0  0  0  0  0  0  0
    6.1779   -1.7168   -1.0010 C   0  0  0  0  0  0  0  0  0  0  0  0
    3.7007   -0.2998   -0.0504 C   0  0  0  0  0  0  0  0  0  0  0  0
    3.2876   -1.4250   -0.3020 O   0  0  0  0  0  0  0  0  0  0  0  0
   -1.2539   -0.4907    0.1686 C   0  0  0  0  0  0  0  0  0  0  0  0
   -0.4037   -1.5532    0.1923 N   0  0  0  0  0  0  0  0  0  0  0  0
   -1.0029   -2.7508    0.1583 C   0  0  0  0  0  0  0  0  0  0  0  0
   -0.2072   -3.8922    0.1899 C   0  0  0  0  0  0  0  0  0  0  0  0
   -0.7673   -5.1725    0.1671 C   0  0  0  0  0  0  0  0  0  0  0  0
   -2.1463   -5.3115    0.1084 C   0  0  0  0  0  0  0  0  0  0  0  0
   -2.9551   -4.1678    0.0763 C   0  0  0  0  0  0  0  0  0  0  0  0
   -2.4133   -2.8922    0.0978 C   0  0  0  0  0  0  0  0  0  0  0  0
   -3.2551   -1.8455    0.0653 N   0  0  0  0  0  0  0  0  0  0  0  0
   -2.6313   -0.6459    0.0951 C   0  0  0  0  0  0  0  0  0  0  0  0
   -5.5491    0.0285   -0.3807 C   0  0  0  0  0  0  0  0  0  0  0  0
   -6.9217    0.3175   -0.3152 C   0  0  0  0  0  0  0  0  0  0  0  0
   -9.4812    0.9353   -1.2582 H   0  0  0  0  0  0  0  0  0  0  0  0
   -9.6939    0.0669    0.3199 H   0  0  0  0  0  0  0  0  0  0  0  0
  -10.6305    1.5278   -0.0482 H   0  0  0  0  0  0  0  0  0  0  0  0
   -6.7818    3.2452    1.3836 H   0  0  0  0  0  0  0  0  0  0  0  0
   -4.3931    2.7456    1.3277 H   0  0  0  0  0  0  0  0  0  0  0  0
   -1.5150    3.4706   -0.2024 H   0  0  0  0  0  0  0  0  0  0  0  0
   -3.1073    3.2039   -0.6850 H   0  0  0  0  0  0  0  0  0  0  0  0
    1.1772   -0.3718    0.1734 H   0  0  0  0  0  0  0  0  0  0  0  0
    2.3606    3.2793    1.5424 H   0  0  0  0  0  0  0  0  0  0  0  0
    2.8306    3.8749   -0.0786 H   0  0  0  0  0  0  0  0  0  0  0  0
    3.9676    3.8660    1.2527 H   0  0  0  0  0  0  0  0  0  0  0  0
    5.5329    1.6511    2.3072 H   0  0  0  0  0  0  0  0  0  0  0  0
    5.9821    3.0888    1.3390 H   0  0  0  0  0  0  0  0  0  0  0  0
    6.8888    1.6082    1.1636 H   0  0  0  0  0  0  0  0  0  0  0  0
    7.0750    1.5555   -1.1873 H   0  0  0  0  0  0  0  0  0  0  0  0
    8.9793    0.5721   -2.3873 H   0  0  0  0  0  0  0  0  0  0  0  0
    9.0990   -1.8789   -2.7571 H   0  0  0  0  0  0  0  0  0  0  0  0
    7.2903   -3.3367   -1.8855 H   0  0  0  0  0  0  0  0  0  0  0  0
    5.4213   -2.3933   -0.6147 H   0  0  0  0  0  0  0  0  0  0  0  0
    0.8753   -3.7808    0.2374 H   0  0  0  0  0  0  0  0  0  0  0  0
   -0.1249   -6.0539    0.1962 H   0  0  0  0  0  0  0  0  0  0  0  0
   -2.6021   -6.3019    0.0865 H   0  0  0  0  0  0  0  0  0  0  0  0
   -4.0364   -4.2803    0.0417 H   0  0  0  0  0  0  0  0  0  0  0  0
   -5.2420   -0.8756   -0.9026 H   0  0  0  0  0  0  0  0  0  0  0  0
   -7.6099   -0.3901   -0.7668 H   0  0  0  0  0  0  0  0  0  0  0  0
  1  2  1  0
  2  3  1  0
  3  4  2  0
  4  5  1  0
  5  6  2  0
  6  7  1  0
  7  8  1  0
  8  9  1  0
  8 10  2  0
 10 11  1  0
 11 12  2  0
 11 13  1  0
 13 14  1  0
 14 15  2  0
 15 16  1  0
 15 17  1  0
 17 18  1  0
 17 19  1  0
 19 20  1  0
 20 21  2  0
 21 22  1  0
 22 23  2  0
 23 24  1  0
 24 25  2  0
 19 26  1  0
 26 27  2  0
 10 28  1  0
 28 29  2  0
 29 30  1  0
 30 31  2  0
 31 32  1  0
 32 33  2  0
 33 34  1  0
 34 35  2  0
 35 36  1  0
 36 37  2  0
  6 38  1  0
 38 39  2  0
 39  3  1  0
 37  7  1  0
 26 14  1  0
 37 28  1  0
 25 20  1  0
 35 30  1  0
  1 40  1  0
  1 41  1  0
  1 42  1  0
  4 43  1  0
  5 44  1  0
  9 45  1  0
  9 46  1  0
 13 47  1  0
 16 48  1  0
 16 49  1  0
 16 50  1  0
 18 51  1  0
 18 52  1  0
 18 53  1  0
 21 54  1  0
 22 55  1  0
 23 56  1  0
 24 57  1  0
 25 58  1  0
 31 59  1  0
 32 60  1  0
 33 61  1  0
 34 62  1  0
 38 63  1  0
 39 64  1  0
M  END
$$$$
