
     RDKit          3D

 32 33  0  0  0  0  0  0  0  0999 V2000
   -4.5044   -0.0876    1.6593 C   0  0  0  0  0  0  0  0  0  0  0  0
   -3.5544   -0.4735    0.5358 C   0  0  0  0  0  0  0  0  0  0  0  0
   -3.1783    0.7390   -0.3177 C   0  0  0  0  0  0  0  0  0  0  0  0
   -2.3111    0.3837   -1.5318 C   0  0  0  0  0  0  0  0  0  0  0  0
   -0.9794   -0.1085   -1.1786 N   0  0  0  0  0  0  0  0  0  0  0  0
   -0.7250   -1.4401   -1.0749 C   0  0  0  0  0  0  0  0  0  0  0  0
   -1.4677   -2.3830   -1.2568 O   0  0  0  0  0  0  0  0  0  0  0  0
    0.7374   -1.5571   -0.6625 C   0  0  0  0  0  0  0  0  0  0  0  0
    1.2800   -2.6315   -0.4899 O   0  0  0  0  0  0  0  0  0  0  0  0
    1.2087   -0.2692   -0.5933 N   0  0  0  0  0  0  0  0  0  0  0  0
    2.5732    0.0202   -0.2836 C   0  0  0  0  0  0  0  0  0  0  0  0
    3.2548    1.1084   -0.8472 C   0  0  0  0  0  0  0  0  0  0  0  0
    4.5953    1.3682   -0.5364 C   0  0  0  0  0  0  0  0  0  0  0  0
    5.2855    0.5363    0.3376 C   0  0  0  0  0  0  0  0  0  0  0  0
    4.6385   -0.5609    0.8928 C   0  0  0  0  0  0  0  0  0  0  0  0
    3.2991   -0.8184    0.5801 C   0  0  0  0  0  0  0  0  0  0  0  0
    0.1619    0.6213   -0.8696 C   0  0  0  0  0  0  0  0  0  0  0  0
    0.1768    2.2983   -0.7796 S   0  0  0  0  0  0  0  0  0  0  0  0
   -4.0481    0.6559    2.3207 H   0  0  0  0  0  0  0  0  0  0  0  0
   -4.7577   -0.9668    2.2600 H   0  0  0  0  0  0  0  0  0  0  0  0
   -5.4343    0.3307    1.2610 H   0  0  0  0  0  0  0  0  0  0  0  0
   -4.0299   -1.2379   -0.0892 H   0  0  0  0  0  0  0  0  0  0  0  0
   -2.6563   -0.9200    0.9759 H   0  0  0  0  0  0  0  0  0  0  0  0
   -2.6710    1.4787    0.3113 H   0  0  0  0  0  0  0  0  0  0  0  0
   -4.0969    1.2134   -0.6850 H   0  0  0  0  0  0  0  0  0  0  0  0
   -2.8206   -0.3777   -2.1344 H   0  0  0  0  0  0  0  0  0  0  0  0
   -2.1984    1.2700   -2.1653 H   0  0  0  0  0  0  0  0  0  0  0  0
    2.7882    1.7571   -1.5818 H   0  0  0  0  0  0  0  0  0  0  0  0
    5.1008    2.2173   -0.9905 H   0  0  0  0  0  0  0  0  0  0  0  0
    6.3265    0.7367    0.5773 H   0  0  0  0  0  0  0  0  0  0  0  0
    5.1719   -1.2220    1.5717 H   0  0  0  0  0  0  0  0  0  0  0  0
    2.8348   -1.6808    1.0541 H   0  0  0  0  0  0  0  0  0  0  0  0
  1  2  1  0
  2  3  1  0
  3  4  1  0
  4  5  1  0
  5  6  1  0
  6  7  2  0
  6  8  1  0
  8  9  2  0
  8 10  1  0
 10 11  1  0
 11 12  2  0
 12 13  1  0
 13 14  2  0
 14 15  1  0
 15 16  2  0
 10 17  1  0
 17 18  2  0
 17  5  1  0
 16 11  1  0
  1 19  1  0
  1 20  1  0
  1 21  1  0
  2 22  1  0
  2 23  1  0
  3 24  1  0
  3 25  1  0
  4 26  1  0
  4 27  1  0
 12 28  1  0
 13 29  1  0
 14 30  1  0
 15 31  1  0
 16 32  1  0
M  END
$$$$
