
     RDKit          3D

 50 53  0  0  0  0  0  0  0  0999 V2000
    7.3314   -1.7968    1.3369 C   0  0  0  0  0  0  0  0  0  0  0  0
    6.0614   -1.0956    0.9542 C   0  0  0  0  0  0  0  0  0  0  0  0
    4.9221   -1.8258    0.6206 C   0  0  0  0  0  0  0  0  0  0  0  0
    3.7291   -1.1736    0.2922 C   0  0  0  0  0  0  0  0  0  0  0  0
    3.6433    0.2229    0.2987 C   0  0  0  0  0  0  0  0  0  0  0  0
    2.4511    0.9162   -0.0347 N   0  0  0  0  0  0  0  0  0  0  0  0
    1.2409    0.3728   -0.4388 C   0  0  0  0  0  0  0  0  0  0  0  0
    0.9889   -0.8190   -0.6003 O   0  0  0  0  0  0  0  0  0  0  0  0
    0.1677    1.4355   -0.7219 C   0  0  0  0  0  0  0  0  0  0  0  0
   -1.1889    0.8734   -0.6563 N   0  0  0  0  0  4  0  0  0  0  0  0
   -2.1475    1.1021    0.3301 C   0  0  0  0  0  0  0  0  0  0  0  0
   -3.2749    0.3371    0.0534 C   0  0  0  0  0  0  0  0  0  0  0  0
   -4.5887    0.2678    0.9128 C   0  0  0  0  0  0  0  0  0  0  0  0
   -4.7245    1.0782    2.0475 C   0  0  0  0  0  0  0  0  0  0  0  0
   -5.8905    1.0233    2.8152 C   0  0  0  0  0  0  0  0  0  0  0  0
   -6.9223    0.1598    2.4577 C   0  0  0  0  0  0  0  0  0  0  0  0
   -6.7889   -0.6520    1.3342 C   0  0  0  0  0  0  0  0  0  0  0  0
   -5.6246   -0.6001    0.5627 C   0  0  0  0  0  0  0  0  0  0  0  0
   -2.9365   -0.3121   -1.1196 N   0  0  0  0  0  0  0  0  0  0  0  0
   -1.6928   -0.0268   -1.4970 C   0  0  0  0  0  0  0  0  0  0  0  0
   -1.2826   -0.7368   -2.7323 C   0  0  0  0  0  0  0  0  0  0  0  0
   -2.6323   -1.2588   -3.2628 C   0  0  0  0  0  0  0  0  0  0  0  0
   -3.5727   -1.2561   -2.0271 C   0  0  0  0  0  0  0  0  0  0  0  0
    4.7869    0.9715    0.6566 C   0  0  0  0  0  0  0  0  0  0  0  0
    4.7951    2.4770    0.7043 C   0  0  0  0  0  0  0  0  0  0  0  0
    5.9809    0.2993    0.9828 C   0  0  0  0  0  0  0  0  0  0  0  0
    7.4329   -2.7427    0.7945 H   0  0  0  0  0  0  0  0  0  0  0  0
    8.2058   -1.1859    1.0895 H   0  0  0  0  0  0  0  0  0  0  0  0
    7.3357   -2.0023    2.4117 H   0  0  0  0  0  0  0  0  0  0  0  0
    4.9507   -2.9139    0.6125 H   0  0  0  0  0  0  0  0  0  0  0  0
    2.8834   -1.8049    0.0419 H   0  0  0  0  0  0  0  0  0  0  0  0
    2.5176    1.9241    0.0231 H   0  0  0  0  0  0  0  0  0  0  0  0
    0.2459    2.2505    0.0046 H   0  0  0  0  0  0  0  0  0  0  0  0
    0.3252    1.8374   -1.7278 H   0  0  0  0  0  0  0  0  0  0  0  0
   -1.8990    1.7815    1.1274 H   0  0  0  0  0  0  0  0  0  0  0  0
   -3.9469    1.7669    2.3623 H   0  0  0  0  0  0  0  0  0  0  0  0
   -5.9971    1.6541    3.6956 H   0  0  0  0  0  0  0  0  0  0  0  0
   -7.8294    0.1164    3.0565 H   0  0  0  0  0  0  0  0  0  0  0  0
   -7.5949   -1.3304    1.0617 H   0  0  0  0  0  0  0  0  0  0  0  0
   -5.5601   -1.2600   -0.2924 H   0  0  0  0  0  0  0  0  0  0  0  0
   -0.7922   -0.0319   -3.4043 H   0  0  0  0  0  0  0  0  0  0  0  0
   -0.6216   -1.5513   -2.4333 H   0  0  0  0  0  0  0  0  0  0  0  0
   -3.0212   -0.5538   -4.0071 H   0  0  0  0  0  0  0  0  0  0  0  0
   -2.5551   -2.2413   -3.7364 H   0  0  0  0  0  0  0  0  0  0  0  0
   -4.5763   -0.9238   -2.3005 H   0  0  0  0  0  0  0  0  0  0  0  0
   -3.6011   -2.2396   -1.5500 H   0  0  0  0  0  0  0  0  0  0  0  0
    4.5873    2.8889   -0.2881 H   0  0  0  0  0  0  0  0  0  0  0  0
    4.0481    2.8385    1.4179 H   0  0  0  0  0  0  0  0  0  0  0  0
    5.7660    2.8691    1.0252 H   0  0  0  0  0  0  0  0  0  0  0  0
    6.8650    0.8711    1.2633 H   0  0  0  0  0  0  0  0  0  0  0  0
  1  2  1  0
  2  3  2  0
  3  4  1  0
  4  5  2  0
  5  6  1  0
  6  7  1  0
  7  8  2  0
  7  9  1  0
  9 10  1  0
 10 11  1  0
 11 12  2  0
 12 13  1  0
 13 14  2  0
 14 15  1  0
 15 16  2  0
 16 17  1  0
 17 18  2  0
 12 19  1  0
 19 20  1  0
 20 21  1  0
 21 22  1  0
 22 23  1  0
  5 24  1  0
 24 25  1  0
 24 26  2  0
 26  2  1  0
 20 10  2  0
 18 13  1  0
 23 19  1  0
  1 27  1  0
  1 28  1  0
  1 29  1  0
  3 30  1  0
  4 31  1  0
  6 32  1  0
  9 33  1  0
  9 34  1  0
 11 35  1  0
 14 36  1  0
 15 37  1  0
 16 38  1  0
 17 39  1  0
 18 40  1  0
 21 41  1  0
 21 42  1  0
 22 43  1  0
 22 44  1  0
 23 45  1  0
 23 46  1  0
 25 47  1  0
 25 48  1  0
 25 49  1  0
 26 50  1  0
M  CHG  1  10   1
M  END
$$$$
