
     RDKit          3D

 57 61  0  0  0  0  0  0  0  0999 V2000
    4.9798    1.4320   -0.9442 C   0  0  0  0  0  0  0  0  0  0  0  0
    4.6749    1.3103    0.5476 C   0  0  0  0  0  0  0  0  0  0  0  0
    5.9537    1.5603    1.3527 C   0  0  0  0  0  0  0  0  0  0  0  0
    4.1030   -0.0748    0.8672 C   0  0  0  0  0  0  0  0  0  0  0  0
    4.8410   -0.9620    1.3039 O   0  0  0  0  0  0  0  0  0  0  0  0
    2.7444   -0.3065    0.6413 N   0  0  0  0  0  0  0  0  0  0  0  0
    1.8723    0.5627   -0.1427 C   0  0  0  0  0  0  0  0  0  0  0  0
    0.4262    0.5288    0.3509 C   0  0  0  0  0  0  0  0  0  0  0  0
   -0.1427   -0.9105    0.4225 C   0  0  0  0  0  0  0  0  0  0  0  0
    0.8259   -1.7176    1.3281 C   0  0  0  0  0  0  0  0  0  0  0  0
    2.2647   -1.6737    0.8215 C   0  0  0  0  0  0  0  0  0  0  0  0
   -0.1047   -1.4151   -0.9347 O   0  0  0  0  0  0  0  0  0  0  0  0
   -0.7482   -2.6019   -1.1488 C   0  0  0  0  0  0  0  0  0  0  0  0
   -0.3970   -3.2899   -2.3110 C   0  0  0  0  0  0  0  0  0  0  0  0
   -0.9928   -4.5189   -2.5984 C   0  0  0  0  0  0  0  0  0  0  0  0
   -1.9386   -5.0473   -1.7248 C   0  0  0  0  0  0  0  0  0  0  0  0
   -2.5064   -6.2264   -2.0062 F   0  0  0  0  0  0  0  0  0  0  0  0
   -2.3087   -4.3672   -0.5718 C   0  0  0  0  0  0  0  0  0  0  0  0
   -1.7141   -3.1341   -0.2932 C   0  0  0  0  0  0  0  0  0  0  0  0
   -2.1153   -2.3635    0.8994 C   0  0  0  0  0  0  0  0  0  0  0  0
   -2.8594   -2.8747    1.7294 O   0  0  0  0  0  0  0  0  0  0  0  0
   -1.6028   -0.9286    0.9586 C   0  0  0  0  0  0  0  0  0  0  0  0
   -2.6011   -0.0594    0.2005 C   0  0  0  0  0  0  0  0  0  0  0  0
   -2.7179    1.0694    1.1639 C   0  0  0  0  0  0  0  0  0  0  0  0
   -3.3988    2.3373    0.8123 C   0  0  0  0  0  0  0  0  0  0  0  0
   -3.3729    3.3973    1.7292 C   0  0  0  0  0  0  0  0  0  0  0  0
   -4.0008    4.6084    1.4259 C   0  0  0  0  0  0  0  0  0  0  0  0
   -4.6571    4.7602    0.2069 C   0  0  0  0  0  0  0  0  0  0  0  0
   -5.4293    6.2497   -0.1704 Cl  0  0  0  0  0  0  0  0  0  0  0  0
   -4.6928    3.7103   -0.7099 C   0  0  0  0  0  0  0  0  0  0  0  0
   -4.0649    2.4968   -0.4088 C   0  0  0  0  0  0  0  0  0  0  0  0
   -2.1801    0.8534    2.3203 N   0  0  0  0  0  0  0  0  0  0  0  0
   -1.6513   -0.4576    2.3088 O   0  0  0  0  0  0  0  0  0  0  0  0
    4.0877    1.2953   -1.5607 H   0  0  0  0  0  0  0  0  0  0  0  0
    5.7068    0.6748   -1.2594 H   0  0  0  0  0  0  0  0  0  0  0  0
    5.3954    2.4183   -1.1763 H   0  0  0  0  0  0  0  0  0  0  0  0
    3.9572    2.0770    0.8557 H   0  0  0  0  0  0  0  0  0  0  0  0
    6.3272    2.5756    1.1820 H   0  0  0  0  0  0  0  0  0  0  0  0
    5.7650    1.4462    2.4258 H   0  0  0  0  0  0  0  0  0  0  0  0
    6.7484    0.8575    1.0786 H   0  0  0  0  0  0  0  0  0  0  0  0
    1.9330    0.2290   -1.1854 H   0  0  0  0  0  0  0  0  0  0  0  0
    2.2167    1.5977   -0.1193 H   0  0  0  0  0  0  0  0  0  0  0  0
   -0.1646    1.1459   -0.3353 H   0  0  0  0  0  0  0  0  0  0  0  0
    0.3874    1.0003    1.3403 H   0  0  0  0  0  0  0  0  0  0  0  0
    0.5311   -2.7704    1.3948 H   0  0  0  0  0  0  0  0  0  0  0  0
    0.7991   -1.3152    2.3489 H   0  0  0  0  0  0  0  0  0  0  0  0
    2.8995   -2.2167    1.5300 H   0  0  0  0  0  0  0  0  0  0  0  0
    2.3565   -2.1837   -0.1449 H   0  0  0  0  0  0  0  0  0  0  0  0
    0.3491   -2.8787   -2.9870 H   0  0  0  0  0  0  0  0  0  0  0  0
   -0.7234   -5.0704   -3.4946 H   0  0  0  0  0  0  0  0  0  0  0  0
   -3.0561   -4.7968    0.0896 H   0  0  0  0  0  0  0  0  0  0  0  0
   -3.5860   -0.5274    0.0923 H   0  0  0  0  0  0  0  0  0  0  0  0
   -2.2466    0.2603   -0.7820 H   0  0  0  0  0  0  0  0  0  0  0  0
   -2.8663    3.2877    2.6870 H   0  0  0  0  0  0  0  0  0  0  0  0
   -3.9749    5.4232    2.1451 H   0  0  0  0  0  0  0  0  0  0  0  0
   -5.2112    3.8294   -1.6584 H   0  0  0  0  0  0  0  0  0  0  0  0
   -4.1191    1.6942   -1.1383 H   0  0  0  0  0  0  0  0  0  0  0  0
  1  2  1  0
  2  3  1  0
  2  4  1  0
  4  5  2  0
  4  6  1  0
  6  7  1  0
  7  8  1  0
  8  9  1  0
  9 10  1  0
 10 11  1  0
  9 12  1  0
 12 13  1  0
 13 14  2  0
 14 15  1  0
 15 16  2  0
 16 17  1  0
 16 18  1  0
 18 19  2  0
 19 20  1  0
 20 21  2  0
 20 22  1  0
 22 23  1  0
 23 24  1  0
 24 25  1  0
 25 26  2  0
 26 27  1  0
 27 28  2  0
 28 29  1  0
 28 30  1  0
 30 31  2  0
 24 32  2  0
 32 33  1  0
 11  6  1  0
 19 13  1  0
 33 22  1  0
 22  9  1  0
 31 25  1  0
  1 34  1  0
  1 35  1  0
  1 36  1  0
  2 37  1  0
  3 38  1  0
  3 39  1  0
  3 40  1  0
  7 41  1  0
  7 42  1  0
  8 43  1  0
  8 44  1  0
 10 45  1  0
 10 46  1  0
 11 47  1  0
 11 48  1  0
 14 49  1  0
 15 50  1  0
 18 51  1  0
 23 52  1  0
 23 53  1  0
 26 54  1  0
 27 55  1  0
 30 56  1  0
 31 57  1  0
M  END
$$$$
