
     RDKit          3D

 43 45  0  0  0  0  0  0  0  0999 V2000
   -1.2336   -3.0905    1.9588 C   0  0  0  0  0  0  0  0  0  0  0  0
   -1.2400   -1.8835    1.0707 C   0  0  0  0  0  0  0  0  0  0  0  0
   -0.0630   -1.4183    0.5271 C   0  0  0  0  0  0  0  0  0  0  0  0
   -0.1412   -0.2970   -0.2736 C   0  0  0  0  0  0  0  0  0  0  0  0
    0.9923    0.2474   -0.8980 N   0  0  0  0  0  0  0  0  0  0  0  0
    2.2215   -0.0057   -0.3874 N   0  0  0  0  0  0  0  0  0  0  0  0
    3.1737    0.7106   -0.8848 C   0  0  0  0  0  0  0  0  0  0  0  0
    4.5766    0.5454   -0.4594 C   0  0  0  0  0  0  0  0  0  0  0  0
    5.5578    1.1192   -1.2812 C   0  0  0  0  0  0  0  0  0  0  0  0
    6.9148    0.9677   -0.9736 C   0  0  0  0  0  0  0  0  0  0  0  0
    7.3074    0.2451    0.1549 C   0  0  0  0  0  0  0  0  0  0  0  0
    6.3439   -0.3227    0.9879 C   0  0  0  0  0  0  0  0  0  0  0  0
    4.9864   -0.1649    0.6723 C   0  0  0  0  0  0  0  0  0  0  0  0
    4.0304   -0.7234    1.6026 N   0  0  0  0  0  4  0  0  0  0  0  0
    3.8737   -1.9523    1.5784 O   0  0  0  0  0  0  0  0  0  0  0  0
    3.5181    0.0606    2.4139 O   0  0  0  0  0  1  0  0  0  0  0  0
   -1.3070    0.3157   -0.5295 N   0  0  0  0  0  0  0  0  0  0  0  0
   -2.4214   -0.1978    0.0374 C   0  0  0  0  0  0  0  0  0  0  0  0
   -3.6805    0.4573   -0.2418 N   0  0  0  0  0  0  0  0  0  0  0  0
   -3.7291    1.5611   -1.0535 N   0  0  0  0  0  0  0  0  0  0  0  0
   -5.0180    1.8986   -1.1165 C   0  0  0  0  0  0  0  0  0  0  0  0
   -5.4432    3.0630   -1.9274 C   0  0  0  0  0  0  0  0  0  0  0  0
   -5.8225    1.0400   -0.3471 C   0  0  0  0  0  0  0  0  0  0  0  0
   -4.9580    0.1185    0.2066 C   0  0  0  0  0  0  0  0  0  0  0  0
   -5.2619   -1.0299    1.0995 C   0  0  0  0  0  0  0  0  0  0  0  0
   -2.4253   -1.2880    0.8374 N   0  0  0  0  0  0  0  0  0  0  0  0
   -0.8025   -3.9464    1.4291 H   0  0  0  0  0  0  0  0  0  0  0  0
   -0.6473   -2.8938    2.8628 H   0  0  0  0  0  0  0  0  0  0  0  0
   -2.2513   -3.3567    2.2624 H   0  0  0  0  0  0  0  0  0  0  0  0
    0.8846   -1.9059    0.7190 H   0  0  0  0  0  0  0  0  0  0  0  0
    0.7446    1.1358   -1.3302 H   0  0  0  0  0  0  0  0  0  0  0  0
    2.9765    1.4531   -1.6810 H   0  0  0  0  0  0  0  0  0  0  0  0
    5.2828    1.6751   -2.1752 H   0  0  0  0  0  0  0  0  0  0  0  0
    7.6695    1.4133   -1.6202 H   0  0  0  0  0  0  0  0  0  0  0  0
    8.3644    0.1292    0.3860 H   0  0  0  0  0  0  0  0  0  0  0  0
    6.6497   -0.8771    1.8729 H   0  0  0  0  0  0  0  0  0  0  0  0
   -5.2179    3.9970   -1.4017 H   0  0  0  0  0  0  0  0  0  0  0  0
   -4.9275    3.0765   -2.8924 H   0  0  0  0  0  0  0  0  0  0  0  0
   -6.5196    3.0319   -2.1232 H   0  0  0  0  0  0  0  0  0  0  0  0
   -6.8955    1.0786   -0.2154 H   0  0  0  0  0  0  0  0  0  0  0  0
   -4.7458   -0.9314    2.0598 H   0  0  0  0  0  0  0  0  0  0  0  0
   -6.3356   -1.0794    1.3121 H   0  0  0  0  0  0  0  0  0  0  0  0
   -4.9812   -1.9760    0.6282 H   0  0  0  0  0  0  0  0  0  0  0  0
  1  2  1  0
  2  3  2  0
  3  4  1  0
  4  5  1  0
  5  6  1  0
  6  7  2  3
  7  8  1  0
  8  9  2  0
  9 10  1  0
 10 11  2  0
 11 12  1  0
 12 13  2  0
 13 14  1  0
 14 15  2  0
 14 16  1  0
  4 17  2  0
 17 18  1  0
 18 19  1  0
 19 20  1  0
 20 21  2  0
 21 22  1  0
 21 23  1  0
 23 24  2  0
 24 25  1  0
 18 26  2  0
 26  2  1  0
 13  8  1  0
 24 19  1  0
  1 27  1  0
  1 28  1  0
  1 29  1  0
  3 30  1  0
  5 31  1  0
  7 32  1  0
  9 33  1  0
 10 34  1  0
 11 35  1  0
 12 36  1  0
 22 37  1  0
 22 38  1  0
 22 39  1  0
 23 40  1  0
 25 41  1  0
 25 42  1  0
 25 43  1  0
M  CHG  2  14   1  16  -1
M  END
$$$$
