
     RDKit          3D

 30 31  0  0  0  0  0  0  0  0999 V2000
   -4.7781   -0.0025    0.8762 C   0  0  0  0  0  0  0  0  0  0  0  0
   -3.2624   -0.1329    0.7160 C   0  0  0  0  0  0  0  0  0  0  0  0
   -2.9547   -1.3062   -0.2193 C   0  0  0  0  0  0  0  0  0  0  0  0
   -2.7445   -0.3812    2.0307 O   0  0  0  0  0  0  0  0  0  0  0  0
   -1.4521   -0.1206    2.2839 C   0  0  0  0  0  0  0  0  0  0  0  0
   -0.9103   -0.3134    3.3564 O   0  0  0  0  0  0  0  0  0  0  0  0
   -0.7336    0.4833    1.1088 C   0  0  0  0  0  0  0  0  0  0  0  0
    0.4842    0.1007    0.8467 N   0  0  0  0  0  0  0  0  0  0  0  0
    1.0855    0.6457   -0.2504 N   0  0  0  0  0  0  0  0  0  0  0  0
    2.4413    0.3260   -0.4919 C   0  0  0  0  0  0  0  0  0  0  0  0
    3.0856   -0.7447    0.1412 C   0  0  0  0  0  0  0  0  0  0  0  0
    4.4077   -1.0748   -0.1706 C   0  0  0  0  0  0  0  0  0  0  0  0
    5.0972   -0.3506   -1.1398 C   0  0  0  0  0  0  0  0  0  0  0  0
    4.4623    0.6968   -1.8023 C   0  0  0  0  0  0  0  0  0  0  0  0
    3.1404    1.0245   -1.4871 C   0  0  0  0  0  0  0  0  0  0  0  0
   -1.5255    1.4437    0.2655 C   0  0  0  0  0  0  0  0  0  0  0  0
   -1.0154    2.4317   -0.2365 O   0  0  0  0  0  0  0  0  0  0  0  0
   -2.8163    1.1051    0.1432 O   0  0  0  0  0  0  0  0  0  0  0  0
   -5.0201    0.8334    1.5434 H   0  0  0  0  0  0  0  0  0  0  0  0
   -5.2667    0.1990   -0.0832 H   0  0  0  0  0  0  0  0  0  0  0  0
   -5.2135   -0.9048    1.3192 H   0  0  0  0  0  0  0  0  0  0  0  0
   -3.3887   -1.1431   -1.2116 H   0  0  0  0  0  0  0  0  0  0  0  0
   -1.8779   -1.4389   -0.3640 H   0  0  0  0  0  0  0  0  0  0  0  0
   -3.3363   -2.2473    0.1908 H   0  0  0  0  0  0  0  0  0  0  0  0
    0.8639    1.6168   -0.5056 H   0  0  0  0  0  0  0  0  0  0  0  0
    2.5601   -1.3286    0.8926 H   0  0  0  0  0  0  0  0  0  0  0  0
    4.8930   -1.9004    0.3427 H   0  0  0  0  0  0  0  0  0  0  0  0
    6.1245   -0.6078   -1.3834 H   0  0  0  0  0  0  0  0  0  0  0  0
    4.9920    1.2563   -2.5686 H   0  0  0  0  0  0  0  0  0  0  0  0
    2.6584    1.8348   -2.0280 H   0  0  0  0  0  0  0  0  0  0  0  0
  1  2  1  0
  2  3  1  0
  2  4  1  0
  4  5  1  0
  5  6  2  0
  5  7  1  0
  7  8  2  3
  8  9  1  0
  9 10  1  0
 10 11  2  0
 11 12  1  0
 12 13  2  0
 13 14  1  0
 14 15  2  0
  7 16  1  0
 16 17  2  0
 16 18  1  0
 18  2  1  0
 15 10  1  0
  1 19  1  0
  1 20  1  0
  1 21  1  0
  3 22  1  0
  3 23  1  0
  3 24  1  0
  9 25  1  0
 11 26  1  0
 12 27  1  0
 13 28  1  0
 14 29  1  0
 15 30  1  0
M  END
$$$$
