
     RDKit          3D

 35 35  0  0  0  0  0  0  0  0999 V2000
   -3.1010   -1.4736   -0.9216 C   0  0  0  0  0  0  0  0  0  0  0  0
   -3.3377   -0.3906    0.1380 C   0  0  0  0  0  0  0  0  0  0  0  0
   -4.4453    0.5664   -0.3234 C   0  0  0  0  0  0  0  0  0  0  0  0
   -2.1326    0.3593    0.5601 N   0  0  0  0  0  0  0  0  0  0  0  0
   -1.2645   -0.4653    1.4055 C   0  0  0  0  0  0  0  0  0  0  0  0
   -1.3830    0.9735   -0.5599 C   0  0  0  0  0  0  0  0  0  0  0  0
   -0.2977    1.9783   -0.1225 C   0  0  0  0  0  0  0  0  0  0  0  0
    0.9258    1.3257    0.2583 O   0  0  0  0  0  0  0  0  0  0  0  0
    1.7210    0.9406   -0.7665 C   0  0  0  0  0  0  0  0  0  0  0  0
    1.4896    1.0467   -1.9587 O   0  0  0  0  0  0  0  0  0  0  0  0
    2.8929    0.2349   -0.2224 C   0  0  0  0  0  0  0  0  0  0  0  0
    3.0840   -1.0889   -0.6457 C   0  0  0  0  0  0  0  0  0  0  0  0
    4.1665   -1.8272   -0.1674 C   0  0  0  0  0  0  0  0  0  0  0  0
    5.0643   -1.2443    0.7254 C   0  0  0  0  0  0  0  0  0  0  0  0
    4.8880    0.0801    1.1335 C   0  0  0  0  0  0  0  0  0  0  0  0
    3.8049    0.8277    0.6574 C   0  0  0  0  0  0  0  0  0  0  0  0
    3.6893    2.6421    1.2044 Br  0  0  0  0  0  0  0  0  0  0  0  0
   -2.7936   -1.0475   -1.8821 H   0  0  0  0  0  0  0  0  0  0  0  0
   -2.3378   -2.1898   -0.6020 H   0  0  0  0  0  0  0  0  0  0  0  0
   -4.0232   -2.0393   -1.0965 H   0  0  0  0  0  0  0  0  0  0  0  0
   -3.7454   -0.8902    1.0276 H   0  0  0  0  0  0  0  0  0  0  0  0
   -5.3892    0.0230   -0.4452 H   0  0  0  0  0  0  0  0  0  0  0  0
   -4.6159    1.3555    0.4173 H   0  0  0  0  0  0  0  0  0  0  0  0
   -4.2156    1.0392   -1.2833 H   0  0  0  0  0  0  0  0  0  0  0  0
   -0.5296    0.1517    1.9314 H   0  0  0  0  0  0  0  0  0  0  0  0
   -0.7318   -1.2335    0.8350 H   0  0  0  0  0  0  0  0  0  0  0  0
   -1.8410   -0.9627    2.1940 H   0  0  0  0  0  0  0  0  0  0  0  0
   -2.0836    1.5434   -1.1786 H   0  0  0  0  0  0  0  0  0  0  0  0
   -0.9404    0.1956   -1.1919 H   0  0  0  0  0  0  0  0  0  0  0  0
   -0.6398    2.5692    0.7346 H   0  0  0  0  0  0  0  0  0  0  0  0
   -0.0957    2.6942   -0.9293 H   0  0  0  0  0  0  0  0  0  0  0  0
    2.3877   -1.5447   -1.3471 H   0  0  0  0  0  0  0  0  0  0  0  0
    4.3113   -2.8548   -0.4932 H   0  0  0  0  0  0  0  0  0  0  0  0
    5.9104   -1.8181    1.0973 H   0  0  0  0  0  0  0  0  0  0  0  0
    5.6088    0.5235    1.8172 H   0  0  0  0  0  0  0  0  0  0  0  0
  1  2  1  0
  2  3  1  0
  2  4  1  0
  4  5  1  0
  4  6  1  0
  6  7  1  0
  7  8  1  0
  8  9  1  0
  9 10  2  0
  9 11  1  0
 11 12  2  0
 12 13  1  0
 13 14  2  0
 14 15  1  0
 15 16  2  0
 16 17  1  0
 16 11  1  0
  1 18  1  0
  1 19  1  0
  1 20  1  0
  2 21  1  0
  3 22  1  0
  3 23  1  0
  3 24  1  0
  5 25  1  0
  5 26  1  0
  5 27  1  0
  6 28  1  0
  6 29  1  0
  7 30  1  0
  7 31  1  0
 12 32  1  0
 13 33  1  0
 14 34  1  0
 15 35  1  0
M  END
$$$$
