
     RDKit          3D

 59 63  0  0  0  0  0  0  0  0999 V2000
   -5.5389   -2.3618    0.2892 C   0  0  0  0  0  0  0  0  0  0  0  0
   -4.3383   -3.3015    0.3184 C   0  0  0  0  0  0  0  0  0  0  0  0
   -2.9948   -2.6269    0.0067 C   0  0  0  0  0  0  0  0  0  0  0  0
   -3.0477   -1.9994   -1.3092 N   0  0  0  0  0  0  0  0  0  0  0  0
   -1.8559   -1.3462   -1.6360 C   0  0  0  0  0  0  0  0  0  0  0  0
   -1.5520   -1.3567   -2.9399 N   0  0  0  0  0  0  0  0  0  0  0  0
   -0.4526   -0.6845   -3.2805 C   0  0  0  0  0  0  0  0  0  0  0  0
    0.3847   -0.0668   -2.4413 N   0  0  0  0  0  0  0  0  0  0  0  0
    0.0951   -0.1080   -1.1225 C   0  0  0  0  0  0  0  0  0  0  0  0
    1.0863    0.3758   -0.2356 N   0  0  0  0  0  0  0  0  0  0  0  0
    2.0400    1.3188   -0.8786 C   0  0  0  0  0  0  0  0  0  0  0  0
    3.0331    1.8682    0.1736 C   0  0  0  0  0  0  0  0  0  0  0  0
    3.7689    0.7774    0.8595 N   0  0  0  0  0  0  0  0  0  0  0  0
    4.8423    0.2428    0.1281 C   0  0  0  0  0  0  0  0  0  0  0  0
    5.8863    1.0747   -0.2842 C   0  0  0  0  0  0  0  0  0  0  0  0
    6.9607    0.5495   -1.0010 C   0  0  0  0  0  0  0  0  0  0  0  0
    6.9836   -0.8053   -1.2866 C   0  0  0  0  0  0  0  0  0  0  0  0
    5.9303   -1.5739   -0.8317 C   0  0  0  0  0  0  0  0  0  0  0  0
    4.8801   -1.0820   -0.1357 N   0  0  0  0  0  0  0  0  0  0  0  0
    2.8500   -0.2401    1.4254 C   0  0  0  0  0  0  0  0  0  0  0  0
    1.8226   -0.7643    0.3900 C   0  0  0  0  0  0  0  0  0  0  0  0
   -1.0915   -0.6990   -0.6551 C   0  0  0  0  0  0  0  0  0  0  0  0
   -1.5651   -0.7097    0.7092 N   0  0  0  0  0  0  0  0  0  0  0  0
   -1.2736    0.3939    1.6219 C   0  0  0  0  0  0  0  0  0  0  0  0
   -2.1286    1.6156    1.3448 C   0  0  0  0  0  0  0  0  0  0  0  0
   -1.6464    2.6622    0.5457 C   0  0  0  0  0  0  0  0  0  0  0  0
   -2.4442    3.7749    0.2708 C   0  0  0  0  0  0  0  0  0  0  0  0
   -3.7331    3.8461    0.7935 C   0  0  0  0  0  0  0  0  0  0  0  0
   -4.8146    5.3509    0.4203 Br  0  0  0  0  0  0  0  0  0  0  0  0
   -4.2306    2.8162    1.5889 C   0  0  0  0  0  0  0  0  0  0  0  0
   -3.4312    1.7043    1.8618 C   0  0  0  0  0  0  0  0  0  0  0  0
   -2.5775   -1.6052    1.0887 C   0  0  0  0  0  0  0  0  0  0  0  0
   -3.0476   -1.6375    2.2285 O   0  0  0  0  0  0  0  0  0  0  0  0
   -5.4324   -1.5464    1.0098 H   0  0  0  0  0  0  0  0  0  0  0  0
   -5.6832   -1.9262   -0.7040 H   0  0  0  0  0  0  0  0  0  0  0  0
   -6.4492   -2.9143    0.5425 H   0  0  0  0  0  0  0  0  0  0  0  0
   -4.5145   -4.1030   -0.4097 H   0  0  0  0  0  0  0  0  0  0  0  0
   -4.2900   -3.7788    1.3041 H   0  0  0  0  0  0  0  0  0  0  0  0
   -2.2249   -3.4111    0.0066 H   0  0  0  0  0  0  0  0  0  0  0  0
   -3.3262   -2.5788   -2.0948 H   0  0  0  0  0  0  0  0  0  0  0  0
   -0.2059   -0.6456   -4.3358 H   0  0  0  0  0  0  0  0  0  0  0  0
    1.4928    2.1657   -1.3107 H   0  0  0  0  0  0  0  0  0  0  0  0
    2.6046    0.8257   -1.6813 H   0  0  0  0  0  0  0  0  0  0  0  0
    2.4696    2.4207    0.9369 H   0  0  0  0  0  0  0  0  0  0  0  0
    3.7038    2.5981   -0.2924 H   0  0  0  0  0  0  0  0  0  0  0  0
    5.8863    2.1280   -0.0254 H   0  0  0  0  0  0  0  0  0  0  0  0
    7.7738    1.1953   -1.3186 H   0  0  0  0  0  0  0  0  0  0  0  0
    7.8027   -1.2523   -1.8371 H   0  0  0  0  0  0  0  0  0  0  0  0
    5.9000   -2.6442   -1.0156 H   0  0  0  0  0  0  0  0  0  0  0  0
    3.3975   -1.0717    1.8860 H   0  0  0  0  0  0  0  0  0  0  0  0
    2.2990    0.2395    2.2447 H   0  0  0  0  0  0  0  0  0  0  0  0
    2.3218   -1.3561   -0.3867 H   0  0  0  0  0  0  0  0  0  0  0  0
    1.1317   -1.4330    0.9160 H   0  0  0  0  0  0  0  0  0  0  0  0
   -0.2186    0.6612    1.6373 H   0  0  0  0  0  0  0  0  0  0  0  0
   -1.4698    0.0714    2.6530 H   0  0  0  0  0  0  0  0  0  0  0  0
   -0.6436    2.6152    0.1272 H   0  0  0  0  0  0  0  0  0  0  0  0
   -2.0545    4.5735   -0.3546 H   0  0  0  0  0  0  0  0  0  0  0  0
   -5.2373    2.8637    1.9966 H   0  0  0  0  0  0  0  0  0  0  0  0
   -3.8335    0.9008    2.4790 H   0  0  0  0  0  0  0  0  0  0  0  0
  1  2  1  0
  2  3  1  0
  3  4  1  0
  4  5  1  0
  5  6  2  0
  6  7  1  0
  7  8  2  0
  8  9  1  0
  9 10  1  0
 10 11  1  0
 11 12  1  0
 12 13  1  0
 13 14  1  0
 14 15  2  0
 15 16  1  0
 16 17  2  0
 17 18  1  0
 18 19  2  0
 13 20  1  0
 20 21  1  0
  9 22  2  0
 22 23  1  0
 23 24  1  0
 24 25  1  0
 25 26  2  0
 26 27  1  0
 27 28  2  0
 28 29  1  0
 28 30  1  0
 30 31  2  0
 23 32  1  0
 32 33  2  0
 32  3  1  0
 22  5  1  0
 31 25  1  0
 21 10  1  0
 19 14  1  0
  1 34  1  0
  1 35  1  0
  1 36  1  0
  2 37  1  0
  2 38  1  0
  3 39  1  0
  4 40  1  0
  7 41  1  0
 11 42  1  0
 11 43  1  0
 12 44  1  0
 12 45  1  0
 15 46  1  0
 16 47  1  0
 17 48  1  0
 18 49  1  0
 20 50  1  0
 20 51  1  0
 21 52  1  0
 21 53  1  0
 24 54  1  0
 24 55  1  0
 26 56  1  0
 27 57  1  0
 30 58  1  0
 31 59  1  0
M  END
$$$$
