
     RDKit          3D

 64 69  0  0  0  0  0  0  0  0999 V2000
   -4.8916    3.5905    4.4624 C   0  0  0  0  0  0  0  0  0  0  0  0
   -3.9201    2.5608    4.3284 O   0  0  0  0  0  0  0  0  0  0  0  0
   -3.9794    1.7991    3.1943 C   0  0  0  0  0  0  0  0  0  0  0  0
   -3.0005    0.8073    3.1054 C   0  0  0  0  0  0  0  0  0  0  0  0
   -2.9450   -0.0443    1.9984 C   0  0  0  0  0  0  0  0  0  0  0  0
   -3.8730    0.0848    0.9594 C   0  0  0  0  0  0  0  0  0  0  0  0
   -3.8066   -0.7991   -0.2116 C   0  0  0  0  0  0  0  0  0  0  0  0
   -5.1234   -1.8502   -0.5088 S   0  0  0  0  0  0  0  0  0  0  0  0
   -4.3882   -2.5357   -1.9020 C   0  0  0  0  0  0  0  0  0  0  0  0
   -4.9376   -3.5425   -2.7264 C   0  0  0  0  0  0  0  0  0  0  0  0
   -4.1750   -3.9436   -3.8036 C   0  0  0  0  0  0  0  0  0  0  0  0
   -2.9485   -3.4017   -4.0722 C   0  0  0  0  0  0  0  0  0  0  0  0
   -2.3922   -2.4174   -3.2790 C   0  0  0  0  0  0  0  0  0  0  0  0
   -3.1295   -1.9653   -2.1485 C   0  0  0  0  0  0  0  0  0  0  0  0
   -2.8028   -0.9626   -1.1545 C   0  0  0  0  0  0  0  0  0  0  0  0
   -1.5690   -0.1823   -1.1108 C   0  0  0  0  0  0  0  0  0  0  0  0
   -1.5887    1.1961   -1.3384 C   0  0  0  0  0  0  0  0  0  0  0  0
   -0.3993    1.9278   -1.2951 C   0  0  0  0  0  0  0  0  0  0  0  0
    0.8204    1.2968   -1.0349 C   0  0  0  0  0  0  0  0  0  0  0  0
    1.8989    2.1366   -1.0175 O   0  0  0  0  0  0  0  0  0  0  0  0
    3.2074    1.5667   -0.9089 C   0  0  0  0  0  0  0  0  0  0  0  0
    3.6191    1.4174    0.5664 C   0  0  0  0  0  0  0  0  0  0  0  0
    4.8804    0.6746    0.7661 N   0  0  0  0  0  0  0  0  0  0  0  0
    5.0510    0.3617    2.1963 C   0  0  0  0  0  0  0  0  0  0  0  0
    6.3135   -0.4648    2.4423 C   0  0  0  0  0  0  0  0  0  0  0  0
    7.5500    0.2421    1.9025 C   0  0  0  0  0  0  0  0  0  0  0  0
    7.3407    0.6339    0.4453 C   0  0  0  0  0  0  0  0  0  0  0  0
    6.0424    1.4222    0.2573 C   0  0  0  0  0  0  0  0  0  0  0  0
    0.8394   -0.0794   -0.8076 C   0  0  0  0  0  0  0  0  0  0  0  0
   -0.3500   -0.8165   -0.8477 C   0  0  0  0  0  0  0  0  0  0  0  0
   -2.3722   -3.9389   -5.1815 O   0  0  0  0  0  0  0  0  0  0  0  0
   -3.3846   -4.8845   -5.5819 C   0  0  0  0  0  0  0  0  0  0  0  0
   -4.5327   -4.8950   -4.7089 O   0  0  0  0  0  0  0  0  0  0  0  0
   -4.8529    1.0825    1.0514 C   0  0  0  0  0  0  0  0  0  0  0  0
   -4.9070    1.9341    2.1619 C   0  0  0  0  0  0  0  0  0  0  0  0
   -4.7952    4.3308    3.6612 H   0  0  0  0  0  0  0  0  0  0  0  0
   -5.9045    3.1759    4.4986 H   0  0  0  0  0  0  0  0  0  0  0  0
   -4.7076    4.1021    5.4120 H   0  0  0  0  0  0  0  0  0  0  0  0
   -2.2723    0.6964    3.9050 H   0  0  0  0  0  0  0  0  0  0  0  0
   -2.1720   -0.8078    1.9563 H   0  0  0  0  0  0  0  0  0  0  0  0
   -5.9098   -3.9767   -2.5246 H   0  0  0  0  0  0  0  0  0  0  0  0
   -1.4193   -2.0011   -3.5198 H   0  0  0  0  0  0  0  0  0  0  0  0
   -2.5231    1.7107   -1.5477 H   0  0  0  0  0  0  0  0  0  0  0  0
   -0.4240    3.0010   -1.4678 H   0  0  0  0  0  0  0  0  0  0  0  0
    3.2957    0.6298   -1.4713 H   0  0  0  0  0  0  0  0  0  0  0  0
    3.8802    2.2765   -1.4028 H   0  0  0  0  0  0  0  0  0  0  0  0
    2.8103    0.8923    1.0897 H   0  0  0  0  0  0  0  0  0  0  0  0
    3.6669    2.4111    1.0320 H   0  0  0  0  0  0  0  0  0  0  0  0
    4.1935   -0.2215    2.5537 H   0  0  0  0  0  0  0  0  0  0  0  0
    5.0907    1.2825    2.7934 H   0  0  0  0  0  0  0  0  0  0  0  0
    6.2111   -1.4452    1.9595 H   0  0  0  0  0  0  0  0  0  0  0  0
    6.4319   -0.6489    3.5163 H   0  0  0  0  0  0  0  0  0  0  0  0
    7.7488    1.1409    2.4992 H   0  0  0  0  0  0  0  0  0  0  0  0
    8.4268   -0.4079    1.9956 H   0  0  0  0  0  0  0  0  0  0  0  0
    7.3135   -0.2706   -0.1762 H   0  0  0  0  0  0  0  0  0  0  0  0
    8.1903    1.2333    0.0984 H   0  0  0  0  0  0  0  0  0  0  0  0
    6.1275    2.3962    0.7569 H   0  0  0  0  0  0  0  0  0  0  0  0
    5.9329    1.6141   -0.8154 H   0  0  0  0  0  0  0  0  0  0  0  0
    1.7574   -0.6139   -0.5858 H   0  0  0  0  0  0  0  0  0  0  0  0
   -0.3165   -1.8883   -0.6638 H   0  0  0  0  0  0  0  0  0  0  0  0
   -2.9430   -5.8877   -5.5936 H   0  0  0  0  0  0  0  0  0  0  0  0
   -3.7171   -4.6347   -6.5960 H   0  0  0  0  0  0  0  0  0  0  0  0
   -5.5817    1.2094    0.2537 H   0  0  0  0  0  0  0  0  0  0  0  0
   -5.6846    2.6899    2.1856 H   0  0  0  0  0  0  0  0  0  0  0  0
  1  2  1  0
  2  3  1  0
  3  4  2  0
  4  5  1  0
  5  6  2  0
  6  7  1  0
  7  8  1  0
  8  9  1  0
  9 10  2  0
 10 11  1  0
 11 12  2  0
 12 13  1  0
 13 14  2  0
 14 15  1  0
 15 16  1  0
 16 17  2  0
 17 18  1  0
 18 19  2  0
 19 20  1  0
 20 21  1  0
 21 22  1  0
 22 23  1  0
 23 24  1  0
 24 25  1  0
 25 26  1  0
 26 27  1  0
 27 28  1  0
 19 29  1  0
 29 30  2  0
 12 31  1  0
 31 32  1  0
 32 33  1  0
  6 34  1  0
 34 35  2  0
 35  3  1  0
 15  7  2  0
 30 16  1  0
 14  9  1  0
 28 23  1  0
 33 11  1  0
  1 36  1  0
  1 37  1  0
  1 38  1  0
  4 39  1  0
  5 40  1  0
 10 41  1  0
 13 42  1  0
 17 43  1  0
 18 44  1  0
 21 45  1  0
 21 46  1  0
 22 47  1  0
 22 48  1  0
 24 49  1  0
 24 50  1  0
 25 51  1  0
 25 52  1  0
 26 53  1  0
 26 54  1  0
 27 55  1  0
 27 56  1  0
 28 57  1  0
 28 58  1  0
 29 59  1  0
 30 60  1  0
 32 61  1  0
 32 62  1  0
 34 63  1  0
 35 64  1  0
M  END
$$$$
