
     RDKit          3D

 29 29  0  0  0  0  0  0  0  0999 V2000
   -5.6852   -2.0286   -1.1795 C   0  0  0  0  0  0  0  0  0  0  0  0
   -4.5549   -1.9173   -1.5710 C   0  0  0  0  0  0  0  0  0  0  0  0
   -3.1736   -1.7795   -2.0515 C   0  0  0  0  0  0  0  0  0  0  0  0
   -2.3968   -0.8539   -1.2257 N   0  0  0  0  0  0  0  0  0  0  0  0
   -2.0403   -1.4283    0.0718 C   0  0  0  0  0  0  0  0  0  0  0  0
   -1.1995   -0.4508    0.8923 C   0  0  0  0  0  0  0  0  0  0  0  0
    0.1346   -0.1089    0.2325 C   0  0  0  0  0  0  0  0  0  0  0  0
    0.8674    0.7166    1.1404 O   0  0  0  0  0  0  0  0  0  0  0  0
    2.1125    1.1423    0.7595 C   0  0  0  0  0  0  0  0  0  0  0  0
    2.7088    0.8489   -0.4718 C   0  0  0  0  0  0  0  0  0  0  0  0
    3.9877    1.3310   -0.7713 C   0  0  0  0  0  0  0  0  0  0  0  0
    4.6757    2.1082    0.1575 C   0  0  0  0  0  0  0  0  0  0  0  0
    6.2476    2.6963   -0.2196 Cl  0  0  0  0  0  0  0  0  0  0  0  0
    4.0998    2.4113    1.3862 C   0  0  0  0  0  0  0  0  0  0  0  0
    2.8227    1.9293    1.6838 C   0  0  0  0  0  0  0  0  0  0  0  0
    2.1487    2.3327    3.2260 Cl  0  0  0  0  0  0  0  0  0  0  0  0
   -6.6877   -2.1269   -0.8317 H   0  0  0  0  0  0  0  0  0  0  0  0
   -3.1928   -1.3830   -3.0730 H   0  0  0  0  0  0  0  0  0  0  0  0
   -2.6796   -2.7560   -2.1110 H   0  0  0  0  0  0  0  0  0  0  0  0
   -2.9485   -0.0066   -1.0861 H   0  0  0  0  0  0  0  0  0  0  0  0
   -1.4726   -2.3558   -0.0696 H   0  0  0  0  0  0  0  0  0  0  0  0
   -2.9402   -1.6738    0.6473 H   0  0  0  0  0  0  0  0  0  0  0  0
   -1.0084   -0.8860    1.8816 H   0  0  0  0  0  0  0  0  0  0  0  0
   -1.7610    0.4731    1.0828 H   0  0  0  0  0  0  0  0  0  0  0  0
   -0.0399    0.4349   -0.7029 H   0  0  0  0  0  0  0  0  0  0  0  0
    0.6926   -1.0319    0.0353 H   0  0  0  0  0  0  0  0  0  0  0  0
    2.2058    0.2490   -1.2239 H   0  0  0  0  0  0  0  0  0  0  0  0
    4.4390    1.0958   -1.7324 H   0  0  0  0  0  0  0  0  0  0  0  0
    4.6381    3.0179    2.1089 H   0  0  0  0  0  0  0  0  0  0  0  0
  1  2  3  0
  2  3  1  0
  3  4  1  0
  4  5  1  0
  5  6  1  0
  6  7  1  0
  7  8  1  0
  8  9  1  0
  9 10  2  0
 10 11  1  0
 11 12  2  0
 12 13  1  0
 12 14  1  0
 14 15  2  0
 15 16  1  0
 15  9  1  0
  1 17  1  0
  3 18  1  0
  3 19  1  0
  4 20  1  0
  5 21  1  0
  5 22  1  0
  6 23  1  0
  6 24  1  0
  7 25  1  0
  7 26  1  0
 10 27  1  0
 11 28  1  0
 14 29  1  0
M  END
$$$$
