
     RDKit          3D

 63 65  0  0  0  0  0  0  0  0999 V2000
    0.2668    5.7238    1.7963 C   0  0  0  0  0  0  0  0  0  0  0  0
    1.0845    4.6875    1.2676 O   0  0  0  0  0  0  0  0  0  0  0  0
    1.4294    3.6740    2.1225 C   0  0  0  0  0  0  0  0  0  0  0  0
    1.1623    3.6307    3.4915 C   0  0  0  0  0  0  0  0  0  0  0  0
    1.5709    2.5308    4.2535 C   0  0  0  0  0  0  0  0  0  0  0  0
    2.2519    1.4708    3.6531 C   0  0  0  0  0  0  0  0  0  0  0  0
    2.5269    1.4986    2.2788 C   0  0  0  0  0  0  0  0  0  0  0  0
    3.2478    0.3534    1.6096 C   0  0  0  0  0  0  0  0  0  0  0  0
    2.4087   -0.4055    0.6809 N   0  0  0  0  0  0  0  0  0  0  0  0
    1.2055   -1.0421    1.2294 C   0  0  0  0  0  0  0  0  0  0  0  0
   -0.0312   -0.1302    1.1577 C   0  0  0  0  0  0  0  0  0  0  0  0
   -0.2989    0.5559    0.1742 O   0  0  0  0  0  0  0  0  0  0  0  0
   -0.8506   -0.2055    2.2667 N   0  0  0  0  0  0  0  0  0  0  0  0
   -1.9674    0.7134    2.4240 C   0  0  0  0  0  0  0  0  0  0  0  0
   -3.0414    0.1464    3.3528 C   0  0  0  0  0  0  0  0  0  0  0  0
   -3.7683   -1.0711    2.7988 C   0  0  0  0  0  0  0  0  0  0  0  0
   -4.2715   -1.7198    4.0661 C   0  0  0  0  0  0  0  0  0  0  0  0
   -3.1211   -1.4846    5.0255 C   0  0  0  0  0  0  0  0  0  0  0  0
   -2.4615   -0.2732    4.6108 O   0  0  0  0  0  0  0  0  0  0  0  0
    2.7377   -0.4011   -0.6689 C   0  0  0  0  0  0  0  0  0  0  0  0
    3.7313    0.1893   -1.0982 O   0  0  0  0  0  0  0  0  0  0  0  0
    1.8629   -1.2128   -1.6087 C   0  0  0  0  0  0  0  0  0  0  0  0
    2.1845   -0.9148   -3.0696 C   0  0  0  0  0  0  0  0  0  0  0  0
    1.2362   -1.6365   -4.0049 C   0  0  0  0  0  0  0  0  0  0  0  0
    0.4784   -2.5225   -3.6186 O   0  0  0  0  0  0  0  0  0  0  0  0
    1.3549   -1.1878   -5.3007 N   0  0  0  0  0  0  0  0  0  0  0  0
    0.5991   -1.6241   -6.3651 C   0  0  0  0  0  0  0  0  0  0  0  0
   -0.4123   -2.6103   -6.4053 C   0  0  0  0  0  0  0  0  0  0  0  0
   -0.8374   -2.6189   -7.7101 C   0  0  0  0  0  0  0  0  0  0  0  0
   -1.8642   -3.3644   -8.4546 C   0  0  0  0  0  0  0  0  0  0  0  0
   -0.1230   -1.7020   -8.4142 O   0  0  0  0  0  0  0  0  0  0  0  0
    0.7814   -1.0762   -7.5728 N   0  0  0  0  0  0  0  0  0  0  0  0
    2.1147    2.6105    1.5260 C   0  0  0  0  0  0  0  0  0  0  0  0
    0.0051    6.3962    0.9741 H   0  0  0  0  0  0  0  0  0  0  0  0
    0.8115    6.3066    2.5453 H   0  0  0  0  0  0  0  0  0  0  0  0
   -0.6669    5.3238    2.2072 H   0  0  0  0  0  0  0  0  0  0  0  0
    0.6438    4.4386    3.9975 H   0  0  0  0  0  0  0  0  0  0  0  0
    1.3599    2.5045    5.3203 H   0  0  0  0  0  0  0  0  0  0  0  0
    2.5661    0.6266    4.2655 H   0  0  0  0  0  0  0  0  0  0  0  0
    4.1430    0.7467    1.1143 H   0  0  0  0  0  0  0  0  0  0  0  0
    3.6115   -0.3589    2.3613 H   0  0  0  0  0  0  0  0  0  0  0  0
    1.4104   -1.3428    2.2629 H   0  0  0  0  0  0  0  0  0  0  0  0
    0.9722   -1.9542    0.6721 H   0  0  0  0  0  0  0  0  0  0  0  0
   -0.4522   -0.5348    3.1350 H   0  0  0  0  0  0  0  0  0  0  0  0
   -1.5454    1.6286    2.8579 H   0  0  0  0  0  0  0  0  0  0  0  0
   -2.3939    0.9645    1.4452 H   0  0  0  0  0  0  0  0  0  0  0  0
   -3.7686    0.9361    3.5821 H   0  0  0  0  0  0  0  0  0  0  0  0
   -4.5676   -0.8072    2.0980 H   0  0  0  0  0  0  0  0  0  0  0  0
   -3.0793   -1.7550    2.2891 H   0  0  0  0  0  0  0  0  0  0  0  0
   -4.5190   -2.7794    3.9473 H   0  0  0  0  0  0  0  0  0  0  0  0
   -5.1667   -1.1958    4.4217 H   0  0  0  0  0  0  0  0  0  0  0  0
   -3.4537   -1.3841    6.0651 H   0  0  0  0  0  0  0  0  0  0  0  0
   -2.3890   -2.2983    4.9696 H   0  0  0  0  0  0  0  0  0  0  0  0
    2.0322   -2.2753   -1.4006 H   0  0  0  0  0  0  0  0  0  0  0  0
    0.8082   -0.9906   -1.4314 H   0  0  0  0  0  0  0  0  0  0  0  0
    3.2077   -1.2269   -3.3095 H   0  0  0  0  0  0  0  0  0  0  0  0
    2.1059    0.1631   -3.2555 H   0  0  0  0  0  0  0  0  0  0  0  0
    2.0139   -0.4583   -5.5340 H   0  0  0  0  0  0  0  0  0  0  0  0
   -0.7854   -3.2253   -5.5996 H   0  0  0  0  0  0  0  0  0  0  0  0
   -1.4659   -3.7357   -9.4041 H   0  0  0  0  0  0  0  0  0  0  0  0
   -2.2191   -4.2213   -7.8754 H   0  0  0  0  0  0  0  0  0  0  0  0
   -2.7198   -2.7167   -8.6698 H   0  0  0  0  0  0  0  0  0  0  0  0
    2.3142    2.6438    0.4543 H   0  0  0  0  0  0  0  0  0  0  0  0
  1  2  1  0
  2  3  1  0
  3  4  2  0
  4  5  1  0
  5  6  2  0
  6  7  1  0
  7  8  1  0
  8  9  1  0
  9 10  1  0
 10 11  1  0
 11 12  2  0
 11 13  1  0
 13 14  1  0
 14 15  1  0
 15 16  1  0
 16 17  1  0
 17 18  1  0
 18 19  1  0
  9 20  1  0
 20 21  2  0
 20 22  1  0
 22 23  1  0
 23 24  1  0
 24 25  2  0
 24 26  1  0
 26 27  1  0
 27 28  1  0
 28 29  2  0
 29 30  1  0
 29 31  1  0
 31 32  1  0
  7 33  2  0
 33  3  1  0
 19 15  1  0
 32 27  2  0
  1 34  1  0
  1 35  1  0
  1 36  1  0
  4 37  1  0
  5 38  1  0
  6 39  1  0
  8 40  1  0
  8 41  1  0
 10 42  1  0
 10 43  1  0
 13 44  1  0
 14 45  1  0
 14 46  1  0
 15 47  1  0
 16 48  1  0
 16 49  1  0
 17 50  1  0
 17 51  1  0
 18 52  1  0
 18 53  1  0
 22 54  1  0
 22 55  1  0
 23 56  1  0
 23 57  1  0
 26 58  1  0
 28 59  1  0
 30 60  1  0
 30 61  1  0
 30 62  1  0
 33 63  1  0
M  END
$$$$
