
     RDKit          3D

 46 47  0  0  0  0  0  0  0  0999 V2000
    3.3035   -0.6137   -4.1731 C   0  0  0  0  0  0  0  0  0  0  0  0
    4.1624   -0.2601   -2.9832 C   0  0  0  0  0  0  0  0  0  0  0  0
    5.3747   -0.1194   -3.1148 O   0  0  0  0  0  0  0  0  0  0  0  0
    3.4344   -0.1122   -1.8236 N   0  0  0  0  0  0  0  0  0  0  0  0
    3.9014    0.1998   -0.5264 C   0  0  0  0  0  0  0  0  0  0  0  0
    5.2411    0.4506   -0.2222 C   0  0  0  0  0  0  0  0  0  0  0  0
    5.6168    0.7535    1.0879 C   0  0  0  0  0  0  0  0  0  0  0  0
    4.6576    0.8047    2.0984 C   0  0  0  0  0  0  0  0  0  0  0  0
    3.3138    0.5539    1.8068 C   0  0  0  0  0  0  0  0  0  0  0  0
    2.9290    0.2561    0.4984 C   0  0  0  0  0  0  0  0  0  0  0  0
    1.6499   -0.0358    0.0936 O   0  0  0  0  0  0  0  0  0  0  0  0
    0.5505    0.2570    0.9565 C   0  0  0  0  0  0  0  0  0  0  0  0
    0.2119   -0.9854    1.7790 C   0  0  0  0  0  0  0  0  0  0  0  0
   -0.6496    0.6251    0.0601 C   0  0  0  0  0  0  0  0  0  0  0  0
   -0.6282    0.5330   -1.1667 O   0  0  0  0  0  0  0  0  0  0  0  0
   -1.7535    1.0928    0.7539 N   0  0  0  0  0  0  0  0  0  0  0  0
   -3.0348    1.2899    0.0920 C   0  0  0  0  0  0  0  0  0  0  0  0
   -3.7472    2.5087    0.6799 C   0  0  0  0  0  0  0  0  0  0  0  0
   -3.8428    0.0016    0.1797 C   0  0  0  0  0  0  0  0  0  0  0  0
   -3.7799   -0.9155   -0.8869 C   0  0  0  0  0  0  0  0  0  0  0  0
   -4.4686   -2.1290   -0.8286 C   0  0  0  0  0  0  0  0  0  0  0  0
   -5.2220   -2.4352    0.2972 C   0  0  0  0  0  0  0  0  0  0  0  0
   -5.8799   -3.6018    0.3571 F   0  0  0  0  0  0  0  0  0  0  0  0
   -5.2948   -1.5535    1.3666 C   0  0  0  0  0  0  0  0  0  0  0  0
   -4.6021   -0.3402    1.3129 C   0  0  0  0  0  0  0  0  0  0  0  0
    3.7494   -1.4678   -4.6915 H   0  0  0  0  0  0  0  0  0  0  0  0
    3.2589    0.2454   -4.8486 H   0  0  0  0  0  0  0  0  0  0  0  0
    2.2853   -0.8873   -3.8817 H   0  0  0  0  0  0  0  0  0  0  0  0
    2.4251   -0.2390   -1.8676 H   0  0  0  0  0  0  0  0  0  0  0  0
    6.0149    0.4172   -0.9836 H   0  0  0  0  0  0  0  0  0  0  0  0
    6.6632    0.9432    1.3164 H   0  0  0  0  0  0  0  0  0  0  0  0
    4.9599    1.0321    3.1180 H   0  0  0  0  0  0  0  0  0  0  0  0
    2.6033    0.5825    2.6263 H   0  0  0  0  0  0  0  0  0  0  0  0
    0.7471    1.1311    1.5908 H   0  0  0  0  0  0  0  0  0  0  0  0
   -0.0703   -1.8191    1.1221 H   0  0  0  0  0  0  0  0  0  0  0  0
   -0.6195   -0.8038    2.4707 H   0  0  0  0  0  0  0  0  0  0  0  0
    1.0748   -1.3238    2.3606 H   0  0  0  0  0  0  0  0  0  0  0  0
   -1.7779    0.9784    1.7572 H   0  0  0  0  0  0  0  0  0  0  0  0
   -2.8545    1.5143   -0.9672 H   0  0  0  0  0  0  0  0  0  0  0  0
   -4.7381    2.6435    0.2319 H   0  0  0  0  0  0  0  0  0  0  0  0
   -3.8719    2.4323    1.7650 H   0  0  0  0  0  0  0  0  0  0  0  0
   -3.1623    3.4169    0.4911 H   0  0  0  0  0  0  0  0  0  0  0  0
   -3.1751   -0.6900   -1.7657 H   0  0  0  0  0  0  0  0  0  0  0  0
   -4.4110   -2.8365   -1.6466 H   0  0  0  0  0  0  0  0  0  0  0  0
   -5.8842   -1.8201    2.2389 H   0  0  0  0  0  0  0  0  0  0  0  0
   -4.6608    0.3255    2.1705 H   0  0  0  0  0  0  0  0  0  0  0  0
  1  2  1  0
  2  3  2  0
  2  4  1  0
  4  5  1  0
  5  6  2  0
  6  7  1  0
  7  8  2  0
  8  9  1  0
  9 10  2  0
 10 11  1  0
 11 12  1  0
 12 13  1  0
 12 14  1  0
 14 15  2  0
 14 16  1  0
 16 17  1  0
 17 18  1  0
 17 19  1  0
 19 20  2  0
 20 21  1  0
 21 22  2  0
 22 23  1  0
 22 24  1  0
 24 25  2  0
 10  5  1  0
 25 19  1  0
  1 26  1  0
  1 27  1  0
  1 28  1  0
  4 29  1  0
  6 30  1  0
  7 31  1  0
  8 32  1  0
  9 33  1  0
 12 34  1  0
 13 35  1  0
 13 36  1  0
 13 37  1  0
 16 38  1  0
 17 39  1  0
 18 40  1  0
 18 41  1  0
 18 42  1  0
 20 43  1  0
 21 44  1  0
 24 45  1  0
 25 46  1  0
M  END
$$$$
