
     RDKit          3D

 34 36  0  0  0  0  0  0  0  0999 V2000
    5.2575    0.2508   -1.8058 C   0  0  0  0  0  0  0  0  0  0  0  0
    4.6393    0.5519   -0.5367 N   0  0  0  0  0  0  0  0  0  0  0  0
    5.2601    0.9894    0.5917 C   0  0  0  0  0  0  0  0  0  0  0  0
    4.2646    1.1256    1.5249 C   0  0  0  0  0  0  0  0  0  0  0  0
    4.4967    1.6955    3.2922 Br  0  0  0  0  0  0  0  0  0  0  0  0
    3.0591    0.7503    0.8845 C   0  0  0  0  0  0  0  0  0  0  0  0
    1.6821    0.7050    1.4208 C   0  0  0  0  0  0  0  0  0  0  0  0
    1.4258    1.0405    2.5707 O   0  0  0  0  0  0  0  0  0  0  0  0
    0.7874    0.2556    0.4656 N   0  0  0  0  0  0  0  0  0  0  0  0
   -0.5778    0.0582    0.5843 C   0  0  0  0  0  0  0  0  0  0  0  0
   -1.3790    0.3415    2.0721 S   0  0  0  0  0  0  0  0  0  0  0  0
   -2.8321   -0.1381    1.4181 C   0  0  0  0  0  0  0  0  0  0  0  0
   -2.7667   -0.4881    0.0977 C   0  0  0  0  0  0  0  0  0  0  0  0
   -1.4411   -0.3792   -0.4283 C   0  0  0  0  0  0  0  0  0  0  0  0
   -0.9654   -0.6848   -1.7759 C   0  0  0  0  0  0  0  0  0  0  0  0
   -1.9104   -0.7648   -2.7580 N   0  0  0  0  0  0  0  0  0  0  0  0
    0.2204   -0.8263   -2.0613 O   0  0  0  0  0  0  0  0  0  0  0  0
   -4.1031   -0.9369   -0.3805 C   0  0  0  0  0  0  0  0  0  0  0  0
   -5.0543   -0.4796    0.7694 C   0  0  0  0  0  0  0  0  0  0  0  0
   -4.1710   -0.2786    2.0331 C   0  0  0  0  0  0  0  0  0  0  0  0
    3.3096    0.4008   -0.4003 N   0  0  0  0  0  0  0  0  0  0  0  0
    4.8192    0.9030   -2.5654 H   0  0  0  0  0  0  0  0  0  0  0  0
    6.3337    0.4276   -1.7373 H   0  0  0  0  0  0  0  0  0  0  0  0
    5.0656   -0.7989   -2.0417 H   0  0  0  0  0  0  0  0  0  0  0  0
    6.3261    1.1610    0.6387 H   0  0  0  0  0  0  0  0  0  0  0  0
    1.2099    0.0231   -0.4380 H   0  0  0  0  0  0  0  0  0  0  0  0
   -1.5440   -0.8185   -3.6990 H   0  0  0  0  0  0  0  0  0  0  0  0
   -2.8046   -0.3165   -2.6392 H   0  0  0  0  0  0  0  0  0  0  0  0
   -4.4081   -0.4752   -1.3221 H   0  0  0  0  0  0  0  0  0  0  0  0
   -4.1246   -2.0268   -0.4848 H   0  0  0  0  0  0  0  0  0  0  0  0
   -5.5081    0.4820    0.4947 H   0  0  0  0  0  0  0  0  0  0  0  0
   -5.8702   -1.1889    0.9397 H   0  0  0  0  0  0  0  0  0  0  0  0
   -4.4830    0.6029    2.5997 H   0  0  0  0  0  0  0  0  0  0  0  0
   -4.2135   -1.1635    2.6765 H   0  0  0  0  0  0  0  0  0  0  0  0
  1  2  1  0
  2  3  1  0
  3  4  2  0
  4  5  1  0
  4  6  1  0
  6  7  1  0
  7  8  2  0
  7  9  1  0
  9 10  1  0
 10 11  1  0
 11 12  1  0
 12 13  2  0
 13 14  1  0
 14 15  1  0
 15 16  1  0
 15 17  2  0
 13 18  1  0
 18 19  1  0
 19 20  1  0
  6 21  2  0
 21  2  1  0
 14 10  2  0
 20 12  1  0
  1 22  1  0
  1 23  1  0
  1 24  1  0
  3 25  1  0
  9 26  1  0
 16 27  1  0
 16 28  1  0
 18 29  1  0
 18 30  1  0
 19 31  1  0
 19 32  1  0
 20 33  1  0
 20 34  1  0
M  END
$$$$
