
     RDKit          3D

 33 35  0  0  0  0  0  0  0  0999 V2000
    5.9476    0.2967    0.9367 C   0  0  0  0  0  0  0  0  0  0  0  0
    4.5109    0.2315    0.6196 N   0  0  0  0  0  4  0  0  0  0  0  0
    4.0489   -0.7455   -0.1919 C   0  0  0  0  0  0  0  0  0  0  0  0
    2.6977   -0.8215   -0.5113 C   0  0  0  0  0  0  0  0  0  0  0  0
    1.8091    0.1165    0.0124 C   0  0  0  0  0  0  0  0  0  0  0  0
    0.3783    0.1088   -0.3111 C   0  0  0  0  0  0  0  0  0  0  0  0
   -0.3709   -1.0034   -0.3940 C   0  0  0  0  0  0  0  0  0  0  0  0
   -1.7622   -1.0377   -0.7162 C   0  0  0  0  0  0  0  0  0  0  0  0
   -2.3300   -2.0752   -1.4239 C   0  0  0  0  0  0  0  0  0  0  0  0
   -3.6629   -1.8006   -1.5800 N   0  0  0  0  0  0  0  0  0  0  0  0
   -3.9803   -0.6140   -0.9600 C   0  0  0  0  0  0  0  0  0  0  0  0
   -5.2155    0.0377   -0.8560 C   0  0  0  0  0  0  0  0  0  0  0  0
   -5.2602    1.2365   -0.1408 C   0  0  0  0  0  0  0  0  0  0  0  0
   -4.1147    1.7578    0.4521 C   0  0  0  0  0  0  0  0  0  0  0  0
   -2.8869    1.0943    0.3371 C   0  0  0  0  0  0  0  0  0  0  0  0
   -2.8050   -0.1121   -0.3934 C   0  0  0  0  0  0  0  0  0  0  0  0
    2.3144    1.1295    0.8255 C   0  0  0  0  0  0  0  0  0  0  0  0
    3.6727    1.1659    1.1205 C   0  0  0  0  0  0  0  0  0  0  0  0
    6.4235    0.9163    0.1727 H   0  0  0  0  0  0  0  0  0  0  0  0
    6.0758    0.7349    1.9299 H   0  0  0  0  0  0  0  0  0  0  0  0
    6.3618   -0.7149    0.9321 H   0  0  0  0  0  0  0  0  0  0  0  0
    4.7682   -1.4579   -0.5861 H   0  0  0  0  0  0  0  0  0  0  0  0
    2.3516   -1.6074   -1.1799 H   0  0  0  0  0  0  0  0  0  0  0  0
   -0.0733    1.0819   -0.4925 H   0  0  0  0  0  0  0  0  0  0  0  0
    0.0917   -1.9746   -0.2306 H   0  0  0  0  0  0  0  0  0  0  0  0
   -1.9078   -2.9775   -1.8458 H   0  0  0  0  0  0  0  0  0  0  0  0
   -4.3280   -2.3853   -2.0679 H   0  0  0  0  0  0  0  0  0  0  0  0
   -6.1139   -0.3714   -1.3077 H   0  0  0  0  0  0  0  0  0  0  0  0
   -6.2065    1.7639   -0.0402 H   0  0  0  0  0  0  0  0  0  0  0  0
   -4.1753    2.6864    1.0145 H   0  0  0  0  0  0  0  0  0  0  0  0
   -2.0116    1.5104    0.8235 H   0  0  0  0  0  0  0  0  0  0  0  0
    1.6551    1.8902    1.2404 H   0  0  0  0  0  0  0  0  0  0  0  0
    4.0978    1.9399    1.7534 H   0  0  0  0  0  0  0  0  0  0  0  0
  1  2  1  0
  2  3  2  0
  3  4  1  0
  4  5  2  0
  5  6  1  0
  6  7  2  3
  7  8  1  0
  8  9  2  0
  9 10  1  0
 10 11  1  0
 11 12  2  0
 12 13  1  0
 13 14  2  0
 14 15  1  0
 15 16  2  0
  5 17  1  0
 17 18  2  0
 18  2  1  0
 16  8  1  0
 16 11  1  0
  1 19  1  0
  1 20  1  0
  1 21  1  0
  3 22  1  0
  4 23  1  0
  6 24  1  0
  7 25  1  0
  9 26  1  0
 10 27  1  0
 12 28  1  0
 13 29  1  0
 14 30  1  0
 15 31  1  0
 17 32  1  0
 18 33  1  0
M  CHG  1   2   1
M  END
$$$$
