
     RDKit          3D

 42 44  0  0  0  0  0  0  0  0999 V2000
   -3.2458    3.9997    0.5671 C   0  0  0  0  0  0  0  0  0  0  0  0
   -1.9469    3.2259    0.4518 C   0  0  0  0  0  0  0  0  0  0  0  0
   -2.2628    1.8301    0.4185 O   0  0  0  0  0  0  0  0  0  0  0  0
   -1.1777    1.0084    0.3135 C   0  0  0  0  0  0  0  0  0  0  0  0
   -0.0199    1.4091    0.2530 O   0  0  0  0  0  0  0  0  0  0  0  0
   -1.5407   -0.4058    0.2844 C   0  0  0  0  0  0  0  0  0  0  0  0
   -0.6023   -1.4397    0.2085 C   0  0  0  0  0  0  0  0  0  0  0  0
    0.7726   -1.2975    0.1447 N   0  0  0  0  0  0  0  0  0  0  0  0
    1.7366   -2.2846    0.0680 C   0  0  0  0  0  0  0  0  0  0  0  0
    1.5697   -3.4982    0.0412 O   0  0  0  0  0  0  0  0  0  0  0  0
    3.0943   -1.7069    0.0163 C   0  0  0  0  0  0  0  0  0  0  0  0
    4.3233   -2.4114   -0.0689 C   0  0  0  0  0  0  0  0  0  0  0  0
    5.2993   -1.4445   -0.0898 C   0  0  0  0  0  0  0  0  0  0  0  0
    4.6444   -0.2510   -0.0218 N   0  0  0  0  0  0  0  0  0  0  0  0
    5.2465    1.0686   -0.0102 C   0  0  0  0  0  0  0  0  0  0  0  0
    5.2346    1.7153   -1.3835 C   0  0  0  0  0  0  0  0  0  0  0  0
    3.3056   -0.3740    0.0473 N   0  0  0  0  0  0  0  0  0  0  0  0
   -1.3267   -2.9961    0.2043 S   0  0  0  0  0  0  0  0  0  0  0  0
   -2.8479   -2.3263    0.2959 C   0  0  0  0  0  0  0  0  0  0  0  0
   -2.8531   -0.9611    0.3280 C   0  0  0  0  0  0  0  0  0  0  0  0
   -4.2442   -0.4421    0.4100 C   0  0  0  0  0  0  0  0  0  0  0  0
   -5.0958   -1.7073    0.0769 C   0  0  0  0  0  0  0  0  0  0  0  0
   -4.1911   -2.9458    0.3519 C   0  0  0  0  0  0  0  0  0  0  0  0
   -3.7876    3.7103    1.4737 H   0  0  0  0  0  0  0  0  0  0  0  0
   -3.0575    5.0765    0.5964 H   0  0  0  0  0  0  0  0  0  0  0  0
   -3.9028    3.7781   -0.2804 H   0  0  0  0  0  0  0  0  0  0  0  0
   -1.3103    3.4412    1.3172 H   0  0  0  0  0  0  0  0  0  0  0  0
   -1.4277    3.5106   -0.4701 H   0  0  0  0  0  0  0  0  0  0  0  0
    1.1456   -0.3444    0.1519 H   0  0  0  0  0  0  0  0  0  0  0  0
    4.4574   -3.4838   -0.1088 H   0  0  0  0  0  0  0  0  0  0  0  0
    6.3768   -1.5078   -0.1484 H   0  0  0  0  0  0  0  0  0  0  0  0
    4.6935    1.6780    0.7130 H   0  0  0  0  0  0  0  0  0  0  0  0
    6.2740    0.9638    0.3548 H   0  0  0  0  0  0  0  0  0  0  0  0
    4.2115    1.8365   -1.7551 H   0  0  0  0  0  0  0  0  0  0  0  0
    5.7019    2.7040   -1.3422 H   0  0  0  0  0  0  0  0  0  0  0  0
    5.7835    1.1070   -2.1102 H   0  0  0  0  0  0  0  0  0  0  0  0
   -4.4439    0.3597   -0.3062 H   0  0  0  0  0  0  0  0  0  0  0  0
   -4.4620   -0.0896    1.4236 H   0  0  0  0  0  0  0  0  0  0  0  0
   -5.3594   -1.6880   -0.9890 H   0  0  0  0  0  0  0  0  0  0  0  0
   -6.0307   -1.7401    0.6449 H   0  0  0  0  0  0  0  0  0  0  0  0
   -4.3908   -3.3537    1.3480 H   0  0  0  0  0  0  0  0  0  0  0  0
   -4.3432   -3.7231   -0.4017 H   0  0  0  0  0  0  0  0  0  0  0  0
  1  2  1  0
  2  3  1  0
  3  4  1  0
  4  5  2  0
  4  6  1  0
  6  7  2  0
  7  8  1  0
  8  9  1  0
  9 10  2  0
  9 11  1  0
 11 12  1  0
 12 13  2  0
 13 14  1  0
 14 15  1  0
 15 16  1  0
 14 17  1  0
  7 18  1  0
 18 19  1  0
 19 20  2  0
 20 21  1  0
 21 22  1  0
 22 23  1  0
 20  6  1  0
 17 11  2  0
 23 19  1  0
  1 24  1  0
  1 25  1  0
  1 26  1  0
  2 27  1  0
  2 28  1  0
  8 29  1  0
 12 30  1  0
 13 31  1  0
 15 32  1  0
 15 33  1  0
 16 34  1  0
 16 35  1  0
 16 36  1  0
 21 37  1  0
 21 38  1  0
 22 39  1  0
 22 40  1  0
 23 41  1  0
 23 42  1  0
M  END
$$$$
