
     RDKit          3D

 45 44  0  0  0  0  0  0  0  0999 V2000
    5.7797   -3.8941    2.5210 C   0  0  0  0  0  0  0  0  0  0  0  0
    5.5933   -3.0791    1.2512 C   0  0  0  0  0  0  0  0  0  0  0  0
    4.5304   -1.9968    1.4316 C   0  0  0  0  0  0  0  0  0  0  0  0
    4.3477   -1.1799    0.1546 C   0  0  0  0  0  0  0  0  0  0  0  0
    3.3642   -0.1370    0.3276 N   0  0  0  0  0  0  0  0  0  0  0  0
    2.0270   -0.3550    0.2063 C   0  0  0  0  0  0  0  0  0  0  0  0
    1.5053   -1.4041   -0.1368 O   0  0  0  0  0  0  0  0  0  0  0  0
    1.3663    0.7831    0.5257 O   0  0  0  0  0  0  0  0  0  0  0  0
   -0.0697    0.7012    0.4711 C   0  0  0  0  0  0  0  0  0  0  0  0
   -0.5959    0.8192   -0.9757 C   0  0  0  0  0  0  0  0  0  0  0  0
   -0.2689    2.2006   -1.5758 C   0  0  0  0  0  0  0  0  0  0  0  0
   -0.6442    2.3081   -3.0485 C   0  0  0  0  0  0  0  0  0  0  0  0
   -2.0127    0.4901   -1.0736 N   0  0  0  0  0  0  0  0  0  0  0  0
   -3.0103    1.1356   -0.4132 C   0  0  0  0  0  0  0  0  0  0  0  0
   -2.8626    2.0663    0.3624 O   0  0  0  0  0  0  0  0  0  0  0  0
   -4.1937    0.5716   -0.7531 O   0  0  0  0  0  0  0  0  0  0  0  0
   -5.3646    1.1364   -0.1348 C   0  0  0  0  0  0  0  0  0  0  0  0
   -5.5691    0.5100    1.2401 C   0  0  0  0  0  0  0  0  0  0  0  0
   -6.5460    0.8303   -1.0474 C   0  0  0  0  0  0  0  0  0  0  0  0
    6.0979   -3.2574    3.3527 H   0  0  0  0  0  0  0  0  0  0  0  0
    4.8485   -4.3935    2.8069 H   0  0  0  0  0  0  0  0  0  0  0  0
    6.5444   -4.6624    2.3695 H   0  0  0  0  0  0  0  0  0  0  0  0
    5.3068   -3.7494    0.4325 H   0  0  0  0  0  0  0  0  0  0  0  0
    6.5496   -2.6197    0.9752 H   0  0  0  0  0  0  0  0  0  0  0  0
    4.8148   -1.3303    2.2556 H   0  0  0  0  0  0  0  0  0  0  0  0
    3.5771   -2.4585    1.7175 H   0  0  0  0  0  0  0  0  0  0  0  0
    4.0346   -1.8290   -0.6709 H   0  0  0  0  0  0  0  0  0  0  0  0
    5.2864   -0.6927   -0.1287 H   0  0  0  0  0  0  0  0  0  0  0  0
    3.6317    0.7603    0.7076 H   0  0  0  0  0  0  0  0  0  0  0  0
   -0.4514    1.5192    1.0913 H   0  0  0  0  0  0  0  0  0  0  0  0
   -0.4108   -0.2289    0.9440 H   0  0  0  0  0  0  0  0  0  0  0  0
   -0.0860    0.0699   -1.5931 H   0  0  0  0  0  0  0  0  0  0  0  0
    0.8061    2.3959   -1.4830 H   0  0  0  0  0  0  0  0  0  0  0  0
   -0.7827    2.9937   -1.0204 H   0  0  0  0  0  0  0  0  0  0  0  0
   -1.7239    2.2078   -3.1955 H   0  0  0  0  0  0  0  0  0  0  0  0
   -0.3430    3.2840   -3.4425 H   0  0  0  0  0  0  0  0  0  0  0  0
   -0.1414    1.5353   -3.6385 H   0  0  0  0  0  0  0  0  0  0  0  0
   -2.3063   -0.2691   -1.6728 H   0  0  0  0  0  0  0  0  0  0  0  0
   -5.2668    2.2256   -0.0486 H   0  0  0  0  0  0  0  0  0  0  0  0
   -6.4814    0.8847    1.7142 H   0  0  0  0  0  0  0  0  0  0  0  0
   -4.7235    0.7305    1.8996 H   0  0  0  0  0  0  0  0  0  0  0  0
   -5.6332   -0.5814    1.1672 H   0  0  0  0  0  0  0  0  0  0  0  0
   -6.6618   -0.2495   -1.1933 H   0  0  0  0  0  0  0  0  0  0  0  0
   -6.3828    1.2654   -2.0394 H   0  0  0  0  0  0  0  0  0  0  0  0
   -7.4787    1.2321   -0.6398 H   0  0  0  0  0  0  0  0  0  0  0  0
  1  2  1  0
  2  3  1  0
  3  4  1  0
  4  5  1  0
  5  6  1  0
  6  7  2  0
  6  8  1  0
  8  9  1  0
  9 10  1  0
 10 11  1  0
 11 12  1  0
 10 13  1  0
 13 14  1  0
 14 15  2  0
 14 16  1  0
 16 17  1  0
 17 18  1  0
 17 19  1  0
  1 20  1  0
  1 21  1  0
  1 22  1  0
  2 23  1  0
  2 24  1  0
  3 25  1  0
  3 26  1  0
  4 27  1  0
  4 28  1  0
  5 29  1  0
  9 30  1  0
  9 31  1  0
 10 32  1  0
 11 33  1  0
 11 34  1  0
 12 35  1  0
 12 36  1  0
 12 37  1  0
 13 38  1  0
 17 39  1  0
 18 40  1  0
 18 41  1  0
 18 42  1  0
 19 43  1  0
 19 44  1  0
 19 45  1  0
M  END
$$$$
