
     RDKit          3D

 40 42  0  0  0  0  0  0  0  0999 V2000
    2.4698    5.2975    0.0375 C   0  0  0  0  0  0  0  0  0  0  0  0
    2.0569    3.8365    0.0822 C   0  0  0  0  0  0  0  0  0  0  0  0
    0.3407    3.6623   -0.5054 S   0  0  0  0  0  0  0  0  0  0  0  0
    0.1207    1.8927   -0.3679 C   0  0  0  0  0  0  0  0  0  0  0  0
   -1.0785    1.3470   -0.7723 C   0  0  0  0  0  0  0  0  0  0  0  0
   -1.2308   -0.0193   -0.6515 C   0  0  0  0  0  0  0  0  0  0  0  0
   -2.4034   -0.6494   -1.0546 N   0  0  0  0  0  0  0  0  0  0  0  0
   -2.4016   -2.1219   -1.0219 C   0  0  0  0  0  0  0  0  0  0  0  0
   -3.7371   -2.6441   -1.5738 C   0  0  0  0  0  0  0  0  0  0  0  0
   -4.8864   -2.2083   -0.8298 O   0  0  0  0  0  0  0  0  0  0  0  0
   -4.6538   -1.0122   -0.0741 C   0  0  0  0  0  0  0  0  0  0  0  0
   -3.7039   -0.0181   -0.7648 C   0  0  0  0  0  0  0  0  0  0  0  0
   -0.2217   -0.7727   -0.1839 N   0  0  0  0  0  0  0  0  0  0  0  0
    0.9183   -0.1633    0.1925 C   0  0  0  0  0  0  0  0  0  0  0  0
    2.0107   -1.0088    0.7183 C   0  0  0  0  0  0  0  0  0  0  0  0
    1.8722   -2.4066    0.8278 C   0  0  0  0  0  0  0  0  0  0  0  0
    2.9043   -3.2091    1.3255 C   0  0  0  0  0  0  0  0  0  0  0  0
    4.1043   -2.6308    1.7269 C   0  0  0  0  0  0  0  0  0  0  0  0
    4.2725   -1.2530    1.6312 C   0  0  0  0  0  0  0  0  0  0  0  0
    3.2378   -0.4541    1.1331 C   0  0  0  0  0  0  0  0  0  0  0  0
    1.1274    1.1596    0.1241 N   0  0  0  0  0  0  0  0  0  0  0  0
    2.4268    5.6969   -0.9815 H   0  0  0  0  0  0  0  0  0  0  0  0
    1.8349    5.9151    0.6818 H   0  0  0  0  0  0  0  0  0  0  0  0
    3.5011    5.4034    0.3906 H   0  0  0  0  0  0  0  0  0  0  0  0
    2.1339    3.4672    1.1099 H   0  0  0  0  0  0  0  0  0  0  0  0
    2.7259    3.2488   -0.5547 H   0  0  0  0  0  0  0  0  0  0  0  0
   -1.8575    1.9691   -1.1917 H   0  0  0  0  0  0  0  0  0  0  0  0
   -1.5862   -2.5180   -1.6386 H   0  0  0  0  0  0  0  0  0  0  0  0
   -2.2704   -2.4764    0.0085 H   0  0  0  0  0  0  0  0  0  0  0  0
   -3.7435   -3.7387   -1.5761 H   0  0  0  0  0  0  0  0  0  0  0  0
   -3.8746   -2.3130   -2.6098 H   0  0  0  0  0  0  0  0  0  0  0  0
   -5.6262   -0.5405    0.1002 H   0  0  0  0  0  0  0  0  0  0  0  0
   -4.2555   -1.3048    0.9047 H   0  0  0  0  0  0  0  0  0  0  0  0
   -4.1407    0.3015   -1.7179 H   0  0  0  0  0  0  0  0  0  0  0  0
   -3.6096    0.8635   -0.1207 H   0  0  0  0  0  0  0  0  0  0  0  0
    0.9438   -2.8859    0.5208 H   0  0  0  0  0  0  0  0  0  0  0  0
    2.7667   -4.2849    1.3975 H   0  0  0  0  0  0  0  0  0  0  0  0
    4.9072   -3.2529    2.1135 H   0  0  0  0  0  0  0  0  0  0  0  0
    5.2077   -0.7953    1.9431 H   0  0  0  0  0  0  0  0  0  0  0  0
    3.3976    0.6210    1.0694 H   0  0  0  0  0  0  0  0  0  0  0  0
  1  2  1  0
  2  3  1  0
  3  4  1  0
  4  5  2  0
  5  6  1  0
  6  7  1  0
  7  8  1  0
  8  9  1  0
  9 10  1  0
 10 11  1  0
 11 12  1  0
  6 13  2  0
 13 14  1  0
 14 15  1  0
 15 16  2  0
 16 17  1  0
 17 18  2  0
 18 19  1  0
 19 20  2  0
 14 21  2  0
 21  4  1  0
 12  7  1  0
 20 15  1  0
  1 22  1  0
  1 23  1  0
  1 24  1  0
  2 25  1  0
  2 26  1  0
  5 27  1  0
  8 28  1  0
  8 29  1  0
  9 30  1  0
  9 31  1  0
 11 32  1  0
 11 33  1  0
 12 34  1  0
 12 35  1  0
 16 36  1  0
 17 37  1  0
 18 38  1  0
 19 39  1  0
 20 40  1  0
M  END
$$$$
