
     RDKit          3D

 38 39  0  0  0  0  0  0  0  0999 V2000
   -4.4885    2.0531    2.1975 C   0  0  0  0  0  0  0  0  0  0  0  0
   -3.5948    1.1415    1.5684 O   0  0  0  0  0  0  0  0  0  0  0  0
   -4.1088    0.2834    0.6336 C   0  0  0  0  0  0  0  0  0  0  0  0
   -5.4553    0.2675    0.2444 C   0  0  0  0  0  0  0  0  0  0  0  0
   -5.9204   -0.6654   -0.6881 C   0  0  0  0  0  0  0  0  0  0  0  0
   -5.0494   -1.5979   -1.2409 C   0  0  0  0  0  0  0  0  0  0  0  0
   -3.7077   -1.5923   -0.8676 C   0  0  0  0  0  0  0  0  0  0  0  0
   -3.2283   -0.6492    0.0571 C   0  0  0  0  0  0  0  0  0  0  0  0
   -1.7749   -0.7151    0.3795 C   0  0  0  0  0  0  0  0  0  0  0  0
   -1.2117   -1.8113    0.3680 O   0  0  0  0  0  0  0  0  0  0  0  0
   -1.0243    0.5821    0.6673 C   0  0  0  0  0  0  0  0  0  0  0  0
    0.3733    0.4674    0.3808 O   0  0  0  0  0  0  0  0  0  0  0  0
    0.6636    0.4345   -0.9417 C   0  0  0  0  0  0  0  0  0  0  0  0
   -0.1374    0.5725   -1.8555 O   0  0  0  0  0  0  0  0  0  0  0  0
    2.1054    0.2313   -1.1894 C   0  0  0  0  0  0  0  0  0  0  0  0
    3.0212    0.0463   -0.2258 C   0  0  0  0  0  0  0  0  0  0  0  0
    4.4531   -0.1474   -0.4917 C   0  0  0  0  0  0  0  0  0  0  0  0
    5.3866    0.4198    0.3856 C   0  0  0  0  0  0  0  0  0  0  0  0
    6.7569    0.2379    0.1819 C   0  0  0  0  0  0  0  0  0  0  0  0
    7.2070   -0.5231   -0.8946 C   0  0  0  0  0  0  0  0  0  0  0  0
    6.2882   -1.1068   -1.7641 C   0  0  0  0  0  0  0  0  0  0  0  0
    4.9176   -0.9245   -1.5611 C   0  0  0  0  0  0  0  0  0  0  0  0
   -5.2701    1.5222    2.7507 H   0  0  0  0  0  0  0  0  0  0  0  0
   -4.9176    2.7493    1.4697 H   0  0  0  0  0  0  0  0  0  0  0  0
   -3.9116    2.6403    2.9185 H   0  0  0  0  0  0  0  0  0  0  0  0
   -6.1788    0.9664    0.6523 H   0  0  0  0  0  0  0  0  0  0  0  0
   -6.9687   -0.6660   -0.9782 H   0  0  0  0  0  0  0  0  0  0  0  0
   -5.4105   -2.3272   -1.9617 H   0  0  0  0  0  0  0  0  0  0  0  0
   -3.0279   -2.3216   -1.3059 H   0  0  0  0  0  0  0  0  0  0  0  0
   -1.1037    0.7916    1.7384 H   0  0  0  0  0  0  0  0  0  0  0  0
   -1.4473    1.4253    0.1102 H   0  0  0  0  0  0  0  0  0  0  0  0
    2.3725    0.2486   -2.2402 H   0  0  0  0  0  0  0  0  0  0  0  0
    2.7353    0.0484    0.8237 H   0  0  0  0  0  0  0  0  0  0  0  0
    5.0553    1.0158    1.2331 H   0  0  0  0  0  0  0  0  0  0  0  0
    7.4714    0.6888    0.8656 H   0  0  0  0  0  0  0  0  0  0  0  0
    8.2728   -0.6668   -1.0522 H   0  0  0  0  0  0  0  0  0  0  0  0
    6.6367   -1.7109   -2.5979 H   0  0  0  0  0  0  0  0  0  0  0  0
    4.2206   -1.4088   -2.2408 H   0  0  0  0  0  0  0  0  0  0  0  0
  1  2  1  0
  2  3  1  0
  3  4  2  0
  4  5  1  0
  5  6  2  0
  6  7  1  0
  7  8  2  0
  8  9  1  0
  9 10  2  0
  9 11  1  0
 11 12  1  0
 12 13  1  0
 13 14  2  0
 13 15  1  0
 15 16  2  3
 16 17  1  0
 17 18  2  0
 18 19  1  0
 19 20  2  0
 20 21  1  0
 21 22  2  0
  8  3  1  0
 22 17  1  0
  1 23  1  0
  1 24  1  0
  1 25  1  0
  4 26  1  0
  5 27  1  0
  6 28  1  0
  7 29  1  0
 11 30  1  0
 11 31  1  0
 15 32  1  0
 16 33  1  0
 18 34  1  0
 19 35  1  0
 20 36  1  0
 21 37  1  0
 22 38  1  0
M  END
$$$$
