
     RDKit          3D

 51 53  0  0  0  0  0  0  0  0999 V2000
    4.2885    2.1441   -2.4021 N   0  0  0  0  0  0  0  0  0  0  0  0
    3.8398    1.3020   -1.7412 C   0  0  0  0  0  0  0  0  0  0  0  0
    3.2649    0.3035   -0.9113 C   0  0  0  0  0  0  0  0  0  0  0  0
    2.0490    0.3655   -0.3387 C   0  0  0  0  0  0  0  0  0  0  0  0
    1.1266    1.4480   -0.4169 C   0  0  0  0  0  0  0  0  0  0  0  0
    0.9436    2.4753   -1.3373 C   0  0  0  0  0  0  0  0  0  0  0  0
   -0.1608    3.2568   -0.9176 C   0  0  0  0  0  0  0  0  0  0  0  0
   -0.6181    2.6765    0.2390 C   0  0  0  0  0  0  0  0  0  0  0  0
   -1.7376    2.9830    1.1620 C   0  0  0  0  0  0  0  0  0  0  0  0
   -2.7187    1.9344    1.0524 N   0  0  0  0  0  0  0  0  0  0  0  0
   -3.7974    2.0244    0.2083 C   0  0  0  0  0  0  0  0  0  0  0  0
   -4.1687    3.0215   -0.3954 O   0  0  0  0  0  0  0  0  0  0  0  0
   -4.5703    0.6975    0.0414 C   0  0  0  0  0  0  0  0  0  0  0  0
   -4.1617   -0.3006    0.6169 O   0  0  0  0  0  0  0  0  0  0  0  0
   -5.6655    0.8423   -0.7843 N   0  0  0  0  0  0  0  0  0  0  0  0
   -6.5914   -0.1417   -1.1706 C   0  0  0  0  0  0  0  0  0  0  0  0
   -7.6208    0.2517   -2.0347 C   0  0  0  0  0  0  0  0  0  0  0  0
   -8.5742   -0.6745   -2.4606 C   0  0  0  0  0  0  0  0  0  0  0  0
   -9.8332   -0.1722   -3.5219 Cl  0  0  0  0  0  0  0  0  0  0  0  0
   -8.5201   -1.9962   -2.0337 C   0  0  0  0  0  0  0  0  0  0  0  0
   -7.4987   -2.3853   -1.1731 C   0  0  0  0  0  0  0  0  0  0  0  0
   -7.4203   -4.0193   -0.6366 Cl  0  0  0  0  0  0  0  0  0  0  0  0
   -6.5361   -1.4692   -0.7405 C   0  0  0  0  0  0  0  0  0  0  0  0
    0.1448    1.5910    0.5427 O   0  0  0  0  0  0  0  0  0  0  0  0
    4.0631   -0.9399   -0.7162 C   0  0  0  0  0  0  0  0  0  0  0  0
    4.6442   -1.4724   -1.6543 O   0  0  0  0  0  0  0  0  0  0  0  0
    4.1263   -1.4071    0.5785 N   0  0  0  0  0  0  0  0  0  0  0  0
    4.9762   -2.5247    0.9318 C   0  0  0  0  0  0  0  0  0  0  0  0
    6.2703   -2.0473    1.5188 C   0  0  0  0  0  0  0  0  0  0  0  0
    6.4511   -1.9309    2.9004 C   0  0  0  0  0  0  0  0  0  0  0  0
    7.6626   -1.4617    3.3985 C   0  0  0  0  0  0  0  0  0  0  0  0
    8.6553   -1.1183    2.4963 C   0  0  0  0  0  0  0  0  0  0  0  0
    8.5154   -1.2120    1.1581 N   0  0  0  0  0  0  0  0  0  0  0  0
    7.3295   -1.6707    0.6986 C   0  0  0  0  0  0  0  0  0  0  0  0
    1.6994   -0.4694    0.2642 H   0  0  0  0  0  0  0  0  0  0  0  0
    1.5224    2.6495   -2.2344 H   0  0  0  0  0  0  0  0  0  0  0  0
   -0.5769    4.1260   -1.4081 H   0  0  0  0  0  0  0  0  0  0  0  0
   -2.1882    3.9523    0.9259 H   0  0  0  0  0  0  0  0  0  0  0  0
   -1.3845    3.0020    2.1976 H   0  0  0  0  0  0  0  0  0  0  0  0
   -2.4701    0.9998    1.3663 H   0  0  0  0  0  0  0  0  0  0  0  0
   -5.7854    1.7848   -1.1528 H   0  0  0  0  0  0  0  0  0  0  0  0
   -7.6878    1.2789   -2.3840 H   0  0  0  0  0  0  0  0  0  0  0  0
   -9.2653   -2.7140   -2.3646 H   0  0  0  0  0  0  0  0  0  0  0  0
   -5.7572   -1.8168   -0.0689 H   0  0  0  0  0  0  0  0  0  0  0  0
    3.7896   -0.8291    1.3377 H   0  0  0  0  0  0  0  0  0  0  0  0
    4.4269   -3.1279    1.6628 H   0  0  0  0  0  0  0  0  0  0  0  0
    5.1617   -3.1655    0.0624 H   0  0  0  0  0  0  0  0  0  0  0  0
    5.6580   -2.2076    3.5908 H   0  0  0  0  0  0  0  0  0  0  0  0
    7.8316   -1.3633    4.4643 H   0  0  0  0  0  0  0  0  0  0  0  0
    9.6178   -0.7472    2.8369 H   0  0  0  0  0  0  0  0  0  0  0  0
    7.2505   -1.7263   -0.3848 H   0  0  0  0  0  0  0  0  0  0  0  0
  1  2  3  0
  2  3  1  0
  3  4  2  3
  4  5  1  0
  5  6  2  0
  6  7  1  0
  7  8  2  0
  8  9  1  0
  9 10  1  0
 10 11  1  0
 11 12  2  0
 11 13  1  0
 13 14  2  0
 13 15  1  0
 15 16  1  0
 16 17  2  0
 17 18  1  0
 18 19  1  0
 18 20  2  0
 20 21  1  0
 21 22  1  0
 21 23  2  0
  8 24  1  0
  3 25  1  0
 25 26  2  0
 25 27  1  0
 27 28  1  0
 28 29  1  0
 29 30  2  0
 30 31  1  0
 31 32  2  0
 32 33  1  0
 33 34  2  0
 24  5  1  0
 34 29  1  0
 23 16  1  0
  4 35  1  0
  6 36  1  0
  7 37  1  0
  9 38  1  0
  9 39  1  0
 10 40  1  0
 15 41  1  0
 17 42  1  0
 20 43  1  0
 23 44  1  0
 27 45  1  0
 28 46  1  0
 28 47  1  0
 30 48  1  0
 31 49  1  0
 32 50  1  0
 34 51  1  0
M  END
$$$$
