
     RDKit          3D

 38 41  0  0  0  0  0  0  0  0999 V2000
   -3.5851    2.4341   -3.0786 O   0  0  0  0  0  0  0  0  0  0  0  0
   -3.6488    2.3788   -1.8539 C   0  0  0  0  0  0  0  0  0  0  0  0
   -3.1744    1.2507   -1.0744 C   0  0  0  0  0  0  0  0  0  0  0  0
   -2.6393    0.0924   -1.6055 C   0  0  0  0  0  0  0  0  0  0  0  0
   -2.3004   -0.7399   -0.5728 N   0  0  0  0  0  0  0  0  0  0  0  0
   -1.6930   -2.0527   -0.7418 C   0  0  0  0  0  0  0  0  0  0  0  0
   -0.2628   -2.1269   -0.2344 C   0  0  0  0  0  0  0  0  0  0  0  0
    0.0905   -3.0815    0.4551 O   0  0  0  0  0  0  0  0  0  0  0  0
    0.5521   -1.0956   -0.6748 N   0  0  0  0  0  0  0  0  0  0  0  0
    1.9249   -0.9049   -0.4083 C   0  0  0  0  0  0  0  0  0  0  0  0
    2.7149   -1.8068    0.3303 C   0  0  0  0  0  0  0  0  0  0  0  0
    4.0757   -1.5577    0.5573 C   0  0  0  0  0  0  0  0  0  0  0  0
    4.6152   -0.4050    0.0353 C   0  0  0  0  0  0  0  0  0  0  0  0
    3.8533    0.4795   -0.6868 C   0  0  0  0  0  0  0  0  0  0  0  0
    2.5119    0.2600   -0.9258 C   0  0  0  0  0  0  0  0  0  0  0  0
    4.5704    1.5532   -1.1149 O   0  0  0  0  0  0  0  0  0  0  0  0
    5.8726    1.2412   -0.5758 C   0  0  0  0  0  0  0  0  0  0  0  0
    5.9075   -0.0025    0.1543 O   0  0  0  0  0  0  0  0  0  0  0  0
   -2.6148   -0.1520    0.6347 C   0  0  0  0  0  0  0  0  0  0  0  0
   -2.4569   -0.6143    1.9513 C   0  0  0  0  0  0  0  0  0  0  0  0
   -2.8666    0.2193    2.9949 C   0  0  0  0  0  0  0  0  0  0  0  0
   -3.4159    1.4705    2.7374 C   0  0  0  0  0  0  0  0  0  0  0  0
   -3.5699    1.9234    1.4227 C   0  0  0  0  0  0  0  0  0  0  0  0
   -3.1637    1.1032    0.3477 C   0  0  0  0  0  0  0  0  0  0  0  0
   -4.0781    3.2131   -1.2749 H   0  0  0  0  0  0  0  0  0  0  0  0
   -2.4858   -0.1901   -2.6408 H   0  0  0  0  0  0  0  0  0  0  0  0
   -1.7087   -2.3159   -1.8046 H   0  0  0  0  0  0  0  0  0  0  0  0
   -2.3190   -2.7679   -0.1972 H   0  0  0  0  0  0  0  0  0  0  0  0
    0.1082   -0.3544   -1.2066 H   0  0  0  0  0  0  0  0  0  0  0  0
    2.2987   -2.7200    0.7447 H   0  0  0  0  0  0  0  0  0  0  0  0
    4.6827   -2.2528    1.1266 H   0  0  0  0  0  0  0  0  0  0  0  0
    1.9464    0.9853   -1.4999 H   0  0  0  0  0  0  0  0  0  0  0  0
    6.1768    2.0516    0.0966 H   0  0  0  0  0  0  0  0  0  0  0  0
    6.5893    1.1826   -1.4030 H   0  0  0  0  0  0  0  0  0  0  0  0
   -2.0269   -1.5883    2.1690 H   0  0  0  0  0  0  0  0  0  0  0  0
   -2.7519   -0.1174    4.0231 H   0  0  0  0  0  0  0  0  0  0  0  0
   -3.7281    2.1032    3.5650 H   0  0  0  0  0  0  0  0  0  0  0  0
   -4.0010    2.9044    1.2445 H   0  0  0  0  0  0  0  0  0  0  0  0
  1  2  2  0
  2  3  1  0
  3  4  2  0
  4  5  1  0
  5  6  1  0
  6  7  1  0
  7  8  2  0
  7  9  1  0
  9 10  1  0
 10 11  2  0
 11 12  1  0
 12 13  2  0
 13 14  1  0
 14 15  2  0
 14 16  1  0
 16 17  1  0
 17 18  1  0
  5 19  1  0
 19 20  2  0
 20 21  1  0
 21 22  2  0
 22 23  1  0
 23 24  2  0
 24  3  1  0
 15 10  1  0
 24 19  1  0
 18 13  1  0
  2 25  1  0
  4 26  1  0
  6 27  1  0
  6 28  1  0
  9 29  1  0
 11 30  1  0
 12 31  1  0
 15 32  1  0
 17 33  1  0
 17 34  1  0
 20 35  1  0
 21 36  1  0
 22 37  1  0
 23 38  1  0
M  END
$$$$
