
     RDKit          3D

 48 50  0  0  0  0  0  0  0  0999 V2000
   -4.6016   -2.7368    0.5611 C   0  0  0  0  0  0  0  0  0  0  0  0
   -4.2186   -1.3934    0.2708 O   0  0  0  0  0  0  0  0  0  0  0  0
   -2.8919   -1.1432    0.4310 C   0  0  0  0  0  0  0  0  0  0  0  0
   -2.0542   -1.9618    0.7997 O   0  0  0  0  0  0  0  0  0  0  0  0
   -2.5621    0.3169    0.1147 C   0  0  0  0  0  0  0  0  0  0  0  0
   -2.4792    1.1256    1.4149 C   0  0  0  0  0  0  0  0  0  0  0  0
   -3.8106    1.3051    2.1026 C   0  0  0  0  0  0  0  0  0  0  0  0
   -4.1204    0.5708    3.2557 C   0  0  0  0  0  0  0  0  0  0  0  0
   -5.3593    0.7250    3.8795 C   0  0  0  0  0  0  0  0  0  0  0  0
   -6.2984    1.6124    3.3578 C   0  0  0  0  0  0  0  0  0  0  0  0
   -5.9999    2.3472    2.2121 C   0  0  0  0  0  0  0  0  0  0  0  0
   -4.7620    2.1953    1.5863 C   0  0  0  0  0  0  0  0  0  0  0  0
   -1.2582    0.3230   -0.5667 N   0  0  0  0  0  0  0  0  0  0  0  0
   -1.1972    0.1993   -1.9470 C   0  0  0  0  0  0  0  0  0  0  0  0
   -2.2062    0.2774   -2.6431 O   0  0  0  0  0  0  0  0  0  0  0  0
    0.1457   -0.0427   -2.4936 C   0  0  0  0  0  0  0  0  0  0  0  0
    1.4058    0.0118   -1.8370 C   0  0  0  0  0  0  0  0  0  0  0  0
    2.3274   -0.2962   -2.8088 C   0  0  0  0  0  0  0  0  0  0  0  0
    3.8034   -0.4264   -2.8552 C   0  0  0  0  0  0  0  0  0  0  0  0
    4.2850   -0.1603   -1.5384 O   0  0  0  0  0  0  0  0  0  0  0  0
    5.6362   -0.2226   -1.3333 C   0  0  0  0  0  0  0  0  0  0  0  0
    6.6176   -0.5221   -2.2795 C   0  0  0  0  0  0  0  0  0  0  0  0
    6.2997   -0.7917   -3.5536 F   0  0  0  0  0  0  0  0  0  0  0  0
    7.9712   -0.5523   -1.9345 C   0  0  0  0  0  0  0  0  0  0  0  0
    8.3671   -0.2809   -0.6259 C   0  0  0  0  0  0  0  0  0  0  0  0
    7.4028    0.0201    0.3324 C   0  0  0  0  0  0  0  0  0  0  0  0
    6.0552    0.0465   -0.0267 C   0  0  0  0  0  0  0  0  0  0  0  0
    5.1494    0.3402    0.9194 F   0  0  0  0  0  0  0  0  0  0  0  0
    1.6740   -0.5196   -3.9780 O   0  0  0  0  0  0  0  0  0  0  0  0
    0.3174   -0.3589   -3.7891 N   0  0  0  0  0  0  0  0  0  0  0  0
   -5.6783   -2.8267    0.3927 H   0  0  0  0  0  0  0  0  0  0  0  0
   -4.0867   -3.4354   -0.1059 H   0  0  0  0  0  0  0  0  0  0  0  0
   -4.3937   -2.9757    1.6088 H   0  0  0  0  0  0  0  0  0  0  0  0
   -3.3207    0.7234   -0.5633 H   0  0  0  0  0  0  0  0  0  0  0  0
   -1.7669    0.6576    2.1082 H   0  0  0  0  0  0  0  0  0  0  0  0
   -2.0654    2.1215    1.2054 H   0  0  0  0  0  0  0  0  0  0  0  0
   -3.4019   -0.1292    3.6770 H   0  0  0  0  0  0  0  0  0  0  0  0
   -5.5925    0.1519    4.7731 H   0  0  0  0  0  0  0  0  0  0  0  0
   -7.2633    1.7313    3.8436 H   0  0  0  0  0  0  0  0  0  0  0  0
   -6.7328    3.0387    1.8043 H   0  0  0  0  0  0  0  0  0  0  0  0
   -4.5474    2.7767    0.6918 H   0  0  0  0  0  0  0  0  0  0  0  0
   -0.4964   -0.0935   -0.0451 H   0  0  0  0  0  0  0  0  0  0  0  0
    1.6249    0.2500   -0.8069 H   0  0  0  0  0  0  0  0  0  0  0  0
    4.2044    0.3068   -3.5642 H   0  0  0  0  0  0  0  0  0  0  0  0
    4.0624   -1.4473   -3.1577 H   0  0  0  0  0  0  0  0  0  0  0  0
    8.7096   -0.7890   -2.6957 H   0  0  0  0  0  0  0  0  0  0  0  0
    9.4200   -0.3039   -0.3556 H   0  0  0  0  0  0  0  0  0  0  0  0
    7.6867    0.2351    1.3584 H   0  0  0  0  0  0  0  0  0  0  0  0
  1  2  1  0
  2  3  1  0
  3  4  2  0
  3  5  1  0
  5  6  1  0
  6  7  1  0
  7  8  2  0
  8  9  1  0
  9 10  2  0
 10 11  1  0
 11 12  2  0
  5 13  1  0
 13 14  1  0
 14 15  2  0
 14 16  1  0
 16 17  1  0
 17 18  2  0
 18 19  1  0
 19 20  1  0
 20 21  1  0
 21 22  2  0
 22 23  1  0
 22 24  1  0
 24 25  2  0
 25 26  1  0
 26 27  2  0
 27 28  1  0
 18 29  1  0
 29 30  1  0
 12  7  1  0
 30 16  2  0
 27 21  1  0
  1 31  1  0
  1 32  1  0
  1 33  1  0
  5 34  1  0
  6 35  1  0
  6 36  1  0
  8 37  1  0
  9 38  1  0
 10 39  1  0
 11 40  1  0
 12 41  1  0
 13 42  1  0
 17 43  1  0
 19 44  1  0
 19 45  1  0
 24 46  1  0
 25 47  1  0
 26 48  1  0
M  END
$$$$
