
     RDKit          3D

 50 53  0  0  0  0  0  0  0  0999 V2000
   -6.7187   -3.6015    1.1087 C   0  0  0  0  0  0  0  0  0  0  0  0
   -5.6300   -2.8371    0.3769 C   0  0  0  0  0  0  0  0  0  0  0  0
   -5.1940   -1.7749    1.2229 O   0  0  0  0  0  0  0  0  0  0  0  0
   -4.1916   -0.9746    0.7488 C   0  0  0  0  0  0  0  0  0  0  0  0
   -3.7718    0.0202    1.6347 C   0  0  0  0  0  0  0  0  0  0  0  0
   -2.7535    0.9089    1.2803 C   0  0  0  0  0  0  0  0  0  0  0  0
   -2.1479    0.8166    0.0234 C   0  0  0  0  0  0  0  0  0  0  0  0
   -1.0826    1.7378   -0.3521 C   0  0  0  0  0  0  0  0  0  0  0  0
    0.2925    1.5453   -0.3893 C   0  0  0  0  0  0  0  0  0  0  0  0
    1.0603    0.3409   -0.0801 C   0  0  0  0  0  0  0  0  0  0  0  0
    0.5373   -0.7257    0.2259 O   0  0  0  0  0  0  0  0  0  0  0  0
    2.4289    0.5558   -0.1839 N   0  0  0  0  0  0  0  0  0  0  0  0
    3.3145   -0.4504    0.0622 N   0  0  0  0  0  0  0  0  0  0  0  0
    4.5639   -0.1346   -0.0612 C   0  0  0  0  0  0  0  0  0  0  0  0
    5.6385   -1.1191    0.1745 C   0  0  0  0  0  0  0  0  0  0  0  0
    6.9687   -0.7173    0.0201 C   0  0  0  0  0  0  0  0  0  0  0  0
    7.9961   -1.6367    0.2396 C   0  0  0  0  0  0  0  0  0  0  0  0
    7.6880   -2.9424    0.6096 C   0  0  0  0  0  0  0  0  0  0  0  0
    8.7250   -3.8034    0.8129 O   0  0  0  0  0  0  0  0  0  0  0  0
    6.3663   -3.3506    0.7655 C   0  0  0  0  0  0  0  0  0  0  0  0
    5.3358   -2.4339    0.5467 C   0  0  0  0  0  0  0  0  0  0  0  0
    0.9045    2.7124   -0.7710 N   0  0  0  0  0  0  0  0  0  0  0  0
   -0.0285    3.6217   -0.9810 N   0  0  0  0  0  0  0  0  0  0  0  0
   -1.2579    3.0637   -0.7597 N   0  0  0  0  0  0  0  0  0  0  0  0
   -2.4497    3.8034   -0.9718 C   0  0  0  0  0  0  0  0  0  0  0  0
   -3.6502    3.2381   -0.8452 N   0  0  0  0  0  0  0  0  0  0  0  0
   -4.5444    4.2617   -1.1497 O   0  0  0  0  0  0  0  0  0  0  0  0
   -3.8745    5.4386   -1.4675 N   0  0  0  0  0  0  0  0  0  0  0  0
   -2.5785    5.1534   -1.3503 C   0  0  0  0  0  0  0  0  0  0  0  0
   -1.5860    6.0385   -1.5650 N   0  0  0  0  0  0  0  0  0  0  0  0
   -2.5628   -0.1841   -0.8617 C   0  0  0  0  0  0  0  0  0  0  0  0
   -3.5815   -1.0746   -0.5014 C   0  0  0  0  0  0  0  0  0  0  0  0
   -7.0896   -4.4307    0.4998 H   0  0  0  0  0  0  0  0  0  0  0  0
   -6.3399   -4.0000    2.0558 H   0  0  0  0  0  0  0  0  0  0  0  0
   -7.5563   -2.9400    1.3535 H   0  0  0  0  0  0  0  0  0  0  0  0
   -6.0413   -2.4354   -0.5563 H   0  0  0  0  0  0  0  0  0  0  0  0
   -4.7988   -3.5182    0.1606 H   0  0  0  0  0  0  0  0  0  0  0  0
   -4.2398    0.1005    2.6127 H   0  0  0  0  0  0  0  0  0  0  0  0
   -2.4441    1.6666    1.9955 H   0  0  0  0  0  0  0  0  0  0  0  0
    2.7615    1.4792   -0.4456 H   0  0  0  0  0  0  0  0  0  0  0  0
    4.8798    0.8849   -0.3480 H   0  0  0  0  0  0  0  0  0  0  0  0
    7.2193    0.2996   -0.2681 H   0  0  0  0  0  0  0  0  0  0  0  0
    9.0345   -1.3381    0.1233 H   0  0  0  0  0  0  0  0  0  0  0  0
    8.3650   -4.6696    1.0664 H   0  0  0  0  0  0  0  0  0  0  0  0
    6.1180   -4.3673    1.0541 H   0  0  0  0  0  0  0  0  0  0  0  0
    4.3007   -2.7480    0.6678 H   0  0  0  0  0  0  0  0  0  0  0  0
   -0.6205    5.7323   -1.6700 H   0  0  0  0  0  0  0  0  0  0  0  0
   -1.8034    6.9127   -2.0323 H   0  0  0  0  0  0  0  0  0  0  0  0
   -2.0932   -0.2890   -1.8368 H   0  0  0  0  0  0  0  0  0  0  0  0
   -3.8680   -1.8354   -1.2192 H   0  0  0  0  0  0  0  0  0  0  0  0
  1  2  1  0
  2  3  1  0
  3  4  1  0
  4  5  2  0
  5  6  1  0
  6  7  2  0
  7  8  1  0
  8  9  2  0
  9 10  1  0
 10 11  2  0
 10 12  1  0
 12 13  1  0
 13 14  2  3
 14 15  1  0
 15 16  2  0
 16 17  1  0
 17 18  2  0
 18 19  1  0
 18 20  1  0
 20 21  2  0
  9 22  1  0
 22 23  2  0
 23 24  1  0
 24 25  1  0
 25 26  2  0
 26 27  1  0
 27 28  1  0
 28 29  2  0
 29 30  1  0
  7 31  1  0
 31 32  2  0
 32  4  1  0
 24  8  1  0
 29 25  1  0
 21 15  1  0
  1 33  1  0
  1 34  1  0
  1 35  1  0
  2 36  1  0
  2 37  1  0
  5 38  1  0
  6 39  1  0
 12 40  1  0
 14 41  1  0
 16 42  1  0
 17 43  1  0
 19 44  1  0
 20 45  1  0
 21 46  1  0
 30 47  1  0
 30 48  1  0
 31 49  1  0
 32 50  1  0
M  END
$$$$
