
     RDKit          3D

 58 62  0  0  0  0  0  0  0  0999 V2000
    7.7595    2.4323    0.0554 C   0  0  0  0  0  0  0  0  0  0  0  0
    6.5322    3.1495    0.0672 O   0  0  0  0  0  0  0  0  0  0  0  0
    5.3989    2.4302    0.3307 C   0  0  0  0  0  0  0  0  0  0  0  0
    5.3341    1.0572    0.5684 C   0  0  0  0  0  0  0  0  0  0  0  0
    4.1024    0.4444    0.8253 C   0  0  0  0  0  0  0  0  0  0  0  0
    2.9227    1.1978    0.8521 C   0  0  0  0  0  0  0  0  0  0  0  0
    1.5918    0.5336    1.1070 C   0  0  0  0  0  0  0  0  0  0  0  0
    0.9022    0.1255   -0.1987 C   0  0  0  0  0  0  0  0  0  0  0  0
   -0.3908   -0.5325    0.0728 N   0  0  0  0  0  0  0  0  0  0  0  0
   -1.5318    0.2660    0.2258 C   0  0  0  0  0  0  0  0  0  0  0  0
   -1.4300    1.5660    0.2013 N   0  0  0  0  0  0  0  0  0  0  0  0
   -2.8657   -0.3930    0.4380 C   0  0  0  0  0  0  0  0  0  0  0  0
   -4.1831    0.2896    0.4169 C   0  0  0  0  0  0  0  0  0  0  0  0
   -5.1171   -0.0719    1.1242 O   0  0  0  0  0  0  0  0  0  0  0  0
   -4.2732    1.3232   -0.4781 N   0  0  0  0  0  0  0  0  0  0  0  0
   -5.4931    2.0855   -0.6108 C   0  0  0  0  0  0  0  0  0  0  0  0
   -5.3486    3.0389   -1.7362 C   0  0  0  0  0  0  0  0  0  0  0  0
   -6.0900    3.2823   -2.8739 C   0  0  0  0  0  0  0  0  0  0  0  0
   -5.4279    4.3239   -3.5679 C   0  0  0  0  0  0  0  0  0  0  0  0
   -4.3267    4.6495   -2.8119 C   0  0  0  0  0  0  0  0  0  0  0  0
   -4.2688    3.8749   -1.6986 O   0  0  0  0  0  0  0  0  0  0  0  0
   -2.8476   -1.7230    0.6267 C   0  0  0  0  0  0  0  0  0  0  0  0
   -1.6188   -2.5028    0.5947 C   0  0  0  0  0  0  0  0  0  0  0  0
   -1.6739   -3.9703    0.8487 C   0  0  0  0  0  0  0  0  0  0  0  0
   -2.7554   -4.5139    1.0827 O   0  0  0  0  0  0  0  0  0  0  0  0
   -0.4647   -4.6413    0.7966 N   0  0  0  0  0  0  0  0  0  0  0  0
   -0.4308   -6.0118    1.0333 C   0  0  0  0  0  0  0  0  0  0  0  0
    0.7124   -6.7068    0.9888 C   0  0  0  0  0  0  0  0  0  0  0  0
    1.9476   -6.0341    0.6881 C   0  0  0  0  0  0  0  0  0  0  0  0
    1.9608   -4.7168    0.4525 C   0  0  0  0  0  0  0  0  0  0  0  0
    0.6894   -3.9399    0.5022 C   0  0  0  0  0  0  0  0  0  0  0  0
    0.7339   -2.6678    0.2697 N   0  0  0  0  0  0  0  0  0  0  0  0
   -0.4265   -1.9280    0.3127 C   0  0  0  0  0  0  0  0  0  0  0  0
    2.9913    2.5733    0.6070 C   0  0  0  0  0  0  0  0  0  0  0  0
    4.2219    3.1815    0.3504 C   0  0  0  0  0  0  0  0  0  0  0  0
    7.7674    1.6766   -0.7370 H   0  0  0  0  0  0  0  0  0  0  0  0
    8.5615    3.1457   -0.1578 H   0  0  0  0  0  0  0  0  0  0  0  0
    7.9647    1.9835    1.0329 H   0  0  0  0  0  0  0  0  0  0  0  0
    6.2209    0.4330    0.5602 H   0  0  0  0  0  0  0  0  0  0  0  0
    4.0701   -0.6282    1.0049 H   0  0  0  0  0  0  0  0  0  0  0  0
    1.7405   -0.3419    1.7519 H   0  0  0  0  0  0  0  0  0  0  0  0
    0.9540    1.2139    1.6854 H   0  0  0  0  0  0  0  0  0  0  0  0
    1.5542   -0.5378   -0.7824 H   0  0  0  0  0  0  0  0  0  0  0  0
    0.7568    1.0002   -0.8463 H   0  0  0  0  0  0  0  0  0  0  0  0
   -2.3274    2.0256    0.3946 H   0  0  0  0  0  0  0  0  0  0  0  0
   -3.5151    1.5272   -1.1225 H   0  0  0  0  0  0  0  0  0  0  0  0
   -6.3253    1.3940   -0.7807 H   0  0  0  0  0  0  0  0  0  0  0  0
   -5.6737    2.6170    0.3295 H   0  0  0  0  0  0  0  0  0  0  0  0
   -6.9962    2.7696   -3.1662 H   0  0  0  0  0  0  0  0  0  0  0  0
   -5.7163    4.7820   -4.5035 H   0  0  0  0  0  0  0  0  0  0  0  0
   -3.5283    5.3705   -2.9214 H   0  0  0  0  0  0  0  0  0  0  0  0
   -3.7769   -2.2676    0.7865 H   0  0  0  0  0  0  0  0  0  0  0  0
   -1.3767   -6.4990    1.2579 H   0  0  0  0  0  0  0  0  0  0  0  0
    0.7285   -7.7758    1.1753 H   0  0  0  0  0  0  0  0  0  0  0  0
    2.8619   -6.6180    0.6564 H   0  0  0  0  0  0  0  0  0  0  0  0
    2.8683   -4.1734    0.2214 H   0  0  0  0  0  0  0  0  0  0  0  0
    2.0875    3.1797    0.6135 H   0  0  0  0  0  0  0  0  0  0  0  0
    4.2631    4.2518    0.1637 H   0  0  0  0  0  0  0  0  0  0  0  0
  1  2  1  0
  2  3  1  0
  3  4  2  0
  4  5  1  0
  5  6  2  0
  6  7  1  0
  7  8  1  0
  8  9  1  0
  9 10  1  0
 10 11  2  3
 10 12  1  0
 12 13  1  0
 13 14  2  0
 13 15  1  0
 15 16  1  0
 16 17  1  0
 17 18  2  0
 18 19  1  0
 19 20  2  0
 20 21  1  0
 12 22  2  0
 22 23  1  0
 23 24  1  0
 24 25  2  0
 24 26  1  0
 26 27  1  0
 27 28  2  0
 28 29  1  0
 29 30  2  0
 30 31  1  0
 31 32  2  0
 32 33  1  0
  6 34  1  0
 34 35  2  0
 35  3  1  0
 33  9  1  0
 21 17  1  0
 33 23  2  0
 31 26  1  0
  1 36  1  0
  1 37  1  0
  1 38  1  0
  4 39  1  0
  5 40  1  0
  7 41  1  0
  7 42  1  0
  8 43  1  0
  8 44  1  0
 11 45  1  0
 15 46  1  0
 16 47  1  0
 16 48  1  0
 18 49  1  0
 19 50  1  0
 20 51  1  0
 22 52  1  0
 27 53  1  0
 28 54  1  0
 29 55  1  0
 30 56  1  0
 34 57  1  0
 35 58  1  0
M  END
$$$$
