
     RDKit          3D

 37 39  0  0  0  0  0  0  0  0999 V2000
   -3.7398   -0.8221   -1.9856 C   0  0  0  0  0  0  0  0  0  0  0  0
   -3.3513    0.4564   -1.2647 C   0  0  0  0  0  0  0  0  0  0  0  0
   -3.7080    0.4231    0.1436 N   0  0  0  0  0  0  0  0  0  0  0  0
   -4.8720    0.9935    0.5302 N   0  0  0  0  0  0  0  0  0  0  0  0
   -4.9535    0.6985    1.8302 C   0  0  0  0  0  0  0  0  0  0  0  0
   -3.8417   -0.0291    2.2672 C   0  0  0  0  0  0  0  0  0  0  0  0
   -3.5796   -0.6190    4.0214 Br  0  0  0  0  0  0  0  0  0  0  0  0
   -3.0206   -0.1765    1.1732 C   0  0  0  0  0  0  0  0  0  0  0  0
   -1.7573   -0.8615    1.0660 C   0  0  0  0  0  0  0  0  0  0  0  0
   -1.6699   -2.0631    1.2758 O   0  0  0  0  0  0  0  0  0  0  0  0
   -0.7325   -0.0015    0.7292 N   0  0  0  0  0  0  0  0  0  0  0  0
    0.5995   -0.3081    0.4878 C   0  0  0  0  0  0  0  0  0  0  0  0
    1.1616   -1.9229    0.5266 S   0  0  0  0  0  0  0  0  0  0  0  0
    2.7019   -1.4266    0.1363 C   0  0  0  0  0  0  0  0  0  0  0  0
    2.8383   -0.0736   -0.0163 C   0  0  0  0  0  0  0  0  0  0  0  0
    1.6027    0.6191    0.1744 C   0  0  0  0  0  0  0  0  0  0  0  0
    1.3068    2.0465    0.0568 C   0  0  0  0  0  0  0  0  0  0  0  0
    2.3641    2.8999   -0.0503 N   0  0  0  0  0  0  0  0  0  0  0  0
    0.1603    2.4910    0.0740 O   0  0  0  0  0  0  0  0  0  0  0  0
    4.2405    0.2599   -0.3884 C   0  0  0  0  0  0  0  0  0  0  0  0
    5.0018   -1.0744   -0.1129 C   0  0  0  0  0  0  0  0  0  0  0  0
    3.9376   -2.2074   -0.0980 C   0  0  0  0  0  0  0  0  0  0  0  0
   -4.8170   -1.0048   -1.9109 H   0  0  0  0  0  0  0  0  0  0  0  0
   -3.2240   -1.6899   -1.5615 H   0  0  0  0  0  0  0  0  0  0  0  0
   -3.4769   -0.7548   -3.0457 H   0  0  0  0  0  0  0  0  0  0  0  0
   -3.8597    1.3164   -1.7157 H   0  0  0  0  0  0  0  0  0  0  0  0
   -2.2762    0.6382   -1.3445 H   0  0  0  0  0  0  0  0  0  0  0  0
   -5.8176    1.0293    2.3917 H   0  0  0  0  0  0  0  0  0  0  0  0
   -0.9505    0.9929    0.6682 H   0  0  0  0  0  0  0  0  0  0  0  0
    2.1449    3.8861   -0.0032 H   0  0  0  0  0  0  0  0  0  0  0  0
    3.2999    2.6203    0.1924 H   0  0  0  0  0  0  0  0  0  0  0  0
    4.3023    0.5255   -1.4489 H   0  0  0  0  0  0  0  0  0  0  0  0
    4.6691    1.0632    0.2155 H   0  0  0  0  0  0  0  0  0  0  0  0
    5.4753   -1.0164    0.8762 H   0  0  0  0  0  0  0  0  0  0  0  0
    5.7953   -1.2576   -0.8442 H   0  0  0  0  0  0  0  0  0  0  0  0
    3.9008   -2.7133   -1.0682 H   0  0  0  0  0  0  0  0  0  0  0  0
    4.1455   -2.9372    0.6892 H   0  0  0  0  0  0  0  0  0  0  0  0
  1  2  1  0
  2  3  1  0
  3  4  1  0
  4  5  2  0
  5  6  1  0
  6  7  1  0
  6  8  2  0
  8  9  1  0
  9 10  2  0
  9 11  1  0
 11 12  1  0
 12 13  1  0
 13 14  1  0
 14 15  2  0
 15 16  1  0
 16 17  1  0
 17 18  1  0
 17 19  2  0
 15 20  1  0
 20 21  1  0
 21 22  1  0
  8  3  1  0
 16 12  2  0
 22 14  1  0
  1 23  1  0
  1 24  1  0
  1 25  1  0
  2 26  1  0
  2 27  1  0
  5 28  1  0
 11 29  1  0
 18 30  1  0
 18 31  1  0
 20 32  1  0
 20 33  1  0
 21 34  1  0
 21 35  1  0
 22 36  1  0
 22 37  1  0
M  END
$$$$
