
     RDKit          3D

 54 57  0  0  0  0  0  0  0  0999 V2000
   -6.7291    2.0982   -0.2942 C   0  0  0  0  0  0  0  0  0  0  0  0
   -5.6259    1.1945    0.1692 C   0  0  0  0  0  0  0  0  0  0  0  0
   -5.6810    0.5876    1.4236 C   0  0  0  0  0  0  0  0  0  0  0  0
   -4.6407   -0.2374    1.8534 C   0  0  0  0  0  0  0  0  0  0  0  0
   -3.5155   -0.4669    1.0426 C   0  0  0  0  0  0  0  0  0  0  0  0
   -2.4387   -1.3862    1.5582 C   0  0  0  0  0  0  0  0  0  0  0  0
   -3.4204    0.1780   -0.2124 C   0  0  0  0  0  0  0  0  0  0  0  0
   -2.2551    0.0406   -1.1004 C   0  0  0  0  0  0  0  0  0  0  0  0
   -0.9891    0.4476   -0.7223 C   0  0  0  0  0  0  0  0  0  0  0  0
    0.0580    0.2767   -1.6290 C   0  0  0  0  0  0  0  0  0  0  0  0
    1.4154    0.6974   -1.1980 C   0  0  0  0  0  0  0  0  0  0  0  0
    2.0146    1.5108   -1.8868 O   0  0  0  0  0  0  0  0  0  0  0  0
    1.8242    0.0905   -0.0271 N   0  0  0  0  0  0  0  0  0  0  0  0
    3.0456    0.2287    0.6173 C   0  0  0  0  0  0  0  0  0  0  0  0
    4.2739    1.2001   -0.0153 S   0  0  0  0  0  0  0  0  0  0  0  0
    5.3615    0.7774    1.2258 C   0  0  0  0  0  0  0  0  0  0  0  0
    6.7450    1.3434    1.1980 C   0  0  0  0  0  0  0  0  0  0  0  0
    4.8034   -0.1148    2.1316 C   0  0  0  0  0  0  0  0  0  0  0  0
    5.5729   -0.7263    3.2625 C   0  0  0  0  0  0  0  0  0  0  0  0
    3.4049   -0.3816    1.8134 C   0  0  0  0  0  0  0  0  0  0  0  0
    2.4357   -1.1936    2.5561 C   0  0  0  0  0  0  0  0  0  0  0  0
    2.6429   -1.3272    3.8987 N   0  0  0  0  0  0  0  0  0  0  0  0
    1.4262   -1.6724    2.0421 O   0  0  0  0  0  0  0  0  0  0  0  0
   -0.1705   -0.2708   -2.9103 C   0  0  0  0  0  0  0  0  0  0  0  0
    0.8279   -0.4841   -3.8948 C   0  0  0  0  0  0  0  0  0  0  0  0
    0.5114   -1.0373   -5.1341 C   0  0  0  0  0  0  0  0  0  0  0  0
   -0.8019   -1.3884   -5.4088 C   0  0  0  0  0  0  0  0  0  0  0  0
   -1.7881   -1.1847   -4.4410 C   0  0  0  0  0  0  0  0  0  0  0  0
   -1.4990   -0.6356   -3.1988 C   0  0  0  0  0  0  0  0  0  0  0  0
   -2.5065   -0.4837   -2.3227 N   0  0  0  0  0  0  0  0  0  0  0  0
   -4.4933    0.9925   -0.6305 C   0  0  0  0  0  0  0  0  0  0  0  0
   -6.8494    2.0405   -1.3812 H   0  0  0  0  0  0  0  0  0  0  0  0
   -7.6861    1.8106    0.1538 H   0  0  0  0  0  0  0  0  0  0  0  0
   -6.5063    3.1330   -0.0163 H   0  0  0  0  0  0  0  0  0  0  0  0
   -6.5394    0.7437    2.0730 H   0  0  0  0  0  0  0  0  0  0  0  0
   -4.7186   -0.7118    2.8297 H   0  0  0  0  0  0  0  0  0  0  0  0
   -1.6097   -0.8032    1.9709 H   0  0  0  0  0  0  0  0  0  0  0  0
   -2.8228   -2.0379    2.3508 H   0  0  0  0  0  0  0  0  0  0  0  0
   -2.0678   -2.0437    0.7653 H   0  0  0  0  0  0  0  0  0  0  0  0
   -0.8240    0.9051    0.2478 H   0  0  0  0  0  0  0  0  0  0  0  0
    1.2012   -0.5918    0.4054 H   0  0  0  0  0  0  0  0  0  0  0  0
    7.4352    0.6243    0.7450 H   0  0  0  0  0  0  0  0  0  0  0  0
    7.0945    1.5639    2.2121 H   0  0  0  0  0  0  0  0  0  0  0  0
    6.7977    2.2737    0.6244 H   0  0  0  0  0  0  0  0  0  0  0  0
    5.2720   -1.7654    3.4261 H   0  0  0  0  0  0  0  0  0  0  0  0
    6.6472   -0.7412    3.0530 H   0  0  0  0  0  0  0  0  0  0  0  0
    5.4154   -0.1570    4.1835 H   0  0  0  0  0  0  0  0  0  0  0  0
    3.2322   -0.6733    4.3915 H   0  0  0  0  0  0  0  0  0  0  0  0
    1.8835   -1.7457    4.4197 H   0  0  0  0  0  0  0  0  0  0  0  0
    1.8643   -0.2097   -3.7034 H   0  0  0  0  0  0  0  0  0  0  0  0
    1.2887   -1.1875   -5.8789 H   0  0  0  0  0  0  0  0  0  0  0  0
   -1.0655   -1.8189   -6.3712 H   0  0  0  0  0  0  0  0  0  0  0  0
   -2.8159   -1.4648   -4.6625 H   0  0  0  0  0  0  0  0  0  0  0  0
   -4.4350    1.4784   -1.6048 H   0  0  0  0  0  0  0  0  0  0  0  0
  1  2  1  0
  2  3  2  0
  3  4  1  0
  4  5  2  0
  5  6  1  0
  5  7  1  0
  7  8  1  0
  8  9  2  0
  9 10  1  0
 10 11  1  0
 11 12  2  0
 11 13  1  0
 13 14  1  0
 14 15  1  0
 15 16  1  0
 16 17  1  0
 16 18  2  0
 18 19  1  0
 18 20  1  0
 20 21  1  0
 21 22  1  0
 21 23  2  0
 10 24  2  0
 24 25  1  0
 25 26  2  0
 26 27  1  0
 27 28  2  0
 28 29  1  0
 29 30  2  0
  7 31  2  0
 31  2  1  0
 30  8  1  0
 20 14  2  0
 29 24  1  0
  1 32  1  0
  1 33  1  0
  1 34  1  0
  3 35  1  0
  4 36  1  0
  6 37  1  0
  6 38  1  0
  6 39  1  0
  9 40  1  0
 13 41  1  0
 17 42  1  0
 17 43  1  0
 17 44  1  0
 19 45  1  0
 19 46  1  0
 19 47  1  0
 22 48  1  0
 22 49  1  0
 25 50  1  0
 26 51  1  0
 27 52  1  0
 28 53  1  0
 31 54  1  0
M  END
$$$$
