
     RDKit          3D

 42 44  0  0  0  0  0  0  0  0999 V2000
    4.7806   -3.3671   -1.3319 C   0  0  0  0  0  0  0  0  0  0  0  0
    3.4955   -2.7659   -1.2282 O   0  0  0  0  0  0  0  0  0  0  0  0
    3.4561   -1.4492   -0.8590 C   0  0  0  0  0  0  0  0  0  0  0  0
    4.5595   -0.6456   -0.5686 C   0  0  0  0  0  0  0  0  0  0  0  0
    4.3928    0.6990   -0.2166 C   0  0  0  0  0  0  0  0  0  0  0  0
    5.5594    1.3713    0.0307 O   0  0  0  0  0  0  0  0  0  0  0  0
    5.4506    2.7586    0.3292 C   0  0  0  0  0  0  0  0  0  0  0  0
    3.1092    1.2366   -0.1425 C   0  0  0  0  0  0  0  0  0  0  0  0
    1.9925    0.4329   -0.4139 C   0  0  0  0  0  0  0  0  0  0  0  0
    0.6383    1.0565   -0.3259 C   0  0  0  0  0  0  0  0  0  0  0  0
    0.5517    2.2563   -0.5607 O   0  0  0  0  0  0  0  0  0  0  0  0
   -0.3708    0.1973    0.0602 N   0  0  0  0  0  0  0  0  0  0  0  0
   -1.7261    0.4787    0.1743 C   0  0  0  0  0  0  0  0  0  0  0  0
   -2.3643    1.9975   -0.2930 S   0  0  0  0  0  0  0  0  0  0  0  0
   -3.9064    1.5018    0.0920 C   0  0  0  0  0  0  0  0  0  0  0  0
   -3.9825    0.2233    0.5716 C   0  0  0  0  0  0  0  0  0  0  0  0
   -2.7037   -0.4071    0.6449 C   0  0  0  0  0  0  0  0  0  0  0  0
   -2.3662   -1.7541    1.0997 C   0  0  0  0  0  0  0  0  0  0  0  0
   -3.3388   -2.4437    1.7633 N   0  0  0  0  0  0  0  0  0  0  0  0
   -1.2555   -2.2562    0.9416 O   0  0  0  0  0  0  0  0  0  0  0  0
   -5.3979   -0.1354    0.8572 C   0  0  0  0  0  0  0  0  0  0  0  0
   -6.1905    1.0028    0.1428 C   0  0  0  0  0  0  0  0  0  0  0  0
   -5.2079    2.1995   -0.0143 C   0  0  0  0  0  0  0  0  0  0  0  0
    2.1721   -0.9052   -0.7847 C   0  0  0  0  0  0  0  0  0  0  0  0
    4.6386   -4.4082   -1.6371 H   0  0  0  0  0  0  0  0  0  0  0  0
    5.2936   -3.3708   -0.3644 H   0  0  0  0  0  0  0  0  0  0  0  0
    5.3861   -2.8746   -2.0999 H   0  0  0  0  0  0  0  0  0  0  0  0
    5.5724   -1.0329   -0.6155 H   0  0  0  0  0  0  0  0  0  0  0  0
    4.9940    3.3074   -0.5011 H   0  0  0  0  0  0  0  0  0  0  0  0
    4.8994    2.9183    1.2617 H   0  0  0  0  0  0  0  0  0  0  0  0
    6.4629    3.1498    0.4701 H   0  0  0  0  0  0  0  0  0  0  0  0
    2.9431    2.2758    0.1266 H   0  0  0  0  0  0  0  0  0  0  0  0
   -0.1226   -0.7495    0.3439 H   0  0  0  0  0  0  0  0  0  0  0  0
   -4.1435   -1.9767    2.1496 H   0  0  0  0  0  0  0  0  0  0  0  0
   -3.0510   -3.3141    2.1898 H   0  0  0  0  0  0  0  0  0  0  0  0
   -5.5886   -0.1106    1.9353 H   0  0  0  0  0  0  0  0  0  0  0  0
   -5.6776   -1.1144    0.4584 H   0  0  0  0  0  0  0  0  0  0  0  0
   -6.4920    0.6548   -0.8542 H   0  0  0  0  0  0  0  0  0  0  0  0
   -7.1012    1.2786    0.6835 H   0  0  0  0  0  0  0  0  0  0  0  0
   -5.3353    2.9126    0.8066 H   0  0  0  0  0  0  0  0  0  0  0  0
   -5.3526    2.7090   -0.9708 H   0  0  0  0  0  0  0  0  0  0  0  0
    1.3264   -1.5371   -1.0442 H   0  0  0  0  0  0  0  0  0  0  0  0
  1  2  1  0
  2  3  1  0
  3  4  2  0
  4  5  1  0
  5  6  1  0
  6  7  1  0
  5  8  2  0
  8  9  1  0
  9 10  1  0
 10 11  2  0
 10 12  1  0
 12 13  1  0
 13 14  1  0
 14 15  1  0
 15 16  2  0
 16 17  1  0
 17 18  1  0
 18 19  1  0
 18 20  2  0
 16 21  1  0
 21 22  1  0
 22 23  1  0
  9 24  2  0
 24  3  1  0
 17 13  2  0
 23 15  1  0
  1 25  1  0
  1 26  1  0
  1 27  1  0
  4 28  1  0
  7 29  1  0
  7 30  1  0
  7 31  1  0
  8 32  1  0
 12 33  1  0
 19 34  1  0
 19 35  1  0
 21 36  1  0
 21 37  1  0
 22 38  1  0
 22 39  1  0
 23 40  1  0
 23 41  1  0
 24 42  1  0
M  END
$$$$
