
     RDKit          3D

 56 61  0  0  0  0  0  0  0  0999 V2000
    7.9093   -0.5437   -2.9965 C   0  0  0  0  0  0  0  0  0  0  0  0
    6.5074   -0.6187   -2.4575 C   0  0  0  0  0  0  0  0  0  0  0  0
    5.4523    0.0092   -3.1237 C   0  0  0  0  0  0  0  0  0  0  0  0
    4.1542   -0.0270   -2.5973 C   0  0  0  0  0  0  0  0  0  0  0  0
    3.8988   -0.6922   -1.3942 C   0  0  0  0  0  0  0  0  0  0  0  0
    2.4418   -0.7189   -0.8087 C   0  0  0  0  0  0  0  0  0  0  0  0
    1.3325   -0.0582   -1.3228 C   0  0  0  0  0  0  0  0  0  0  0  0
    0.2364   -0.2936   -0.4951 N   0  0  0  0  0  4  0  0  0  0  0  0
   -1.1214    0.2644   -0.6545 C   0  0  0  0  0  0  0  0  0  0  0  0
   -1.6138    0.9672    0.6299 C   0  0  0  0  0  0  0  0  0  0  0  0
   -0.8278    1.2595    1.5356 O   0  0  0  0  0  0  0  0  0  0  0  0
   -3.0085    1.0912    0.6795 N   0  0  0  0  0  0  0  0  0  0  0  0
   -3.6954    1.8468   -0.3371 C   0  0  0  0  0  0  0  0  0  0  0  0
   -2.9922    2.8446   -1.0437 C   0  0  0  0  0  0  0  0  0  0  0  0
   -3.6143    3.6301   -2.0181 C   0  0  0  0  0  0  0  0  0  0  0  0
   -4.9594    3.4417   -2.3038 C   0  0  0  0  0  0  0  0  0  0  0  0
   -5.6774    2.4721   -1.6116 C   0  0  0  0  0  0  0  0  0  0  0  0
   -5.0585    1.6856   -0.6248 C   0  0  0  0  0  0  0  0  0  0  0  0
   -6.0596    0.4726    0.1781 S   0  0  0  0  0  0  0  0  0  0  0  0
   -5.1383    0.2704    1.6843 C   0  0  0  0  0  0  0  0  0  0  0  0
   -5.8385   -0.2848    2.7701 C   0  0  0  0  0  0  0  0  0  0  0  0
   -5.1966   -0.5449    3.9756 C   0  0  0  0  0  0  0  0  0  0  0  0
   -3.8460   -0.2665    4.0991 C   0  0  0  0  0  0  0  0  0  0  0  0
   -3.1393    0.2707    3.0173 C   0  0  0  0  0  0  0  0  0  0  0  0
   -3.7657    0.5635    1.7890 C   0  0  0  0  0  0  0  0  0  0  0  0
    0.6517   -1.0786    0.4956 C   0  0  0  0  0  0  0  0  0  0  0  0
    1.9368   -1.3640    0.3042 N   0  0  0  0  0  0  0  0  0  0  0  0
    2.4542   -2.2544    1.3333 C   0  0  0  0  0  0  0  0  0  0  0  0
    1.1736   -2.7731    2.0406 C   0  0  0  0  0  0  0  0  0  0  0  0
    0.0845   -1.7377    1.6970 C   0  0  0  0  0  0  0  0  0  0  0  0
    4.9520   -1.3080   -0.7185 C   0  0  0  0  0  0  0  0  0  0  0  0
    6.2487   -1.2659   -1.2451 C   0  0  0  0  0  0  0  0  0  0  0  0
    7.9064   -0.4359   -4.0857 H   0  0  0  0  0  0  0  0  0  0  0  0
    8.4295    0.3148   -2.5589 H   0  0  0  0  0  0  0  0  0  0  0  0
    8.4652   -1.4567   -2.7600 H   0  0  0  0  0  0  0  0  0  0  0  0
    5.6370    0.5342   -4.0603 H   0  0  0  0  0  0  0  0  0  0  0  0
    3.3706    0.4713   -3.1588 H   0  0  0  0  0  0  0  0  0  0  0  0
    1.1883    0.5792   -2.1774 H   0  0  0  0  0  0  0  0  0  0  0  0
   -1.7880   -0.5707   -0.8984 H   0  0  0  0  0  0  0  0  0  0  0  0
   -1.1029    0.9697   -1.4889 H   0  0  0  0  0  0  0  0  0  0  0  0
   -1.9564    3.0817   -0.8121 H   0  0  0  0  0  0  0  0  0  0  0  0
   -3.0578    4.4101   -2.5330 H   0  0  0  0  0  0  0  0  0  0  0  0
   -5.4563    4.0572   -3.0511 H   0  0  0  0  0  0  0  0  0  0  0  0
   -6.7341    2.3405   -1.8411 H   0  0  0  0  0  0  0  0  0  0  0  0
   -6.8978   -0.5221    2.6799 H   0  0  0  0  0  0  0  0  0  0  0  0
   -5.7525   -0.9629    4.8118 H   0  0  0  0  0  0  0  0  0  0  0  0
   -3.3369   -0.4555    5.0418 H   0  0  0  0  0  0  0  0  0  0  0  0
   -2.0937    0.4935    3.2005 H   0  0  0  0  0  0  0  0  0  0  0  0
    3.0773   -1.6747    2.0195 H   0  0  0  0  0  0  0  0  0  0  0  0
    3.0196   -3.0777    0.8933 H   0  0  0  0  0  0  0  0  0  0  0  0
    0.8959   -3.7434    1.6134 H   0  0  0  0  0  0  0  0  0  0  0  0
    1.3101   -2.9062    3.1170 H   0  0  0  0  0  0  0  0  0  0  0  0
   -0.8769   -2.1837    1.4400 H   0  0  0  0  0  0  0  0  0  0  0  0
   -0.0057   -0.9735    2.4719 H   0  0  0  0  0  0  0  0  0  0  0  0
    4.8139   -1.8105    0.2294 H   0  0  0  0  0  0  0  0  0  0  0  0
    7.0638   -1.7380   -0.6986 H   0  0  0  0  0  0  0  0  0  0  0  0
  1  2  1  0
  2  3  2  0
  3  4  1  0
  4  5  2  0
  5  6  1  0
  6  7  2  0
  7  8  1  0
  8  9  1  0
  9 10  1  0
 10 11  2  0
 10 12  1  0
 12 13  1  0
 13 14  2  0
 14 15  1  0
 15 16  2  0
 16 17  1  0
 17 18  2  0
 18 19  1  0
 19 20  1  0
 20 21  2  0
 21 22  1  0
 22 23  2  0
 23 24  1  0
 24 25  2  0
  8 26  2  0
 26 27  1  0
 27 28  1  0
 28 29  1  0
 29 30  1  0
  5 31  1  0
 31 32  2  0
 32  2  1  0
 27  6  1  0
 25 12  1  0
 30 26  1  0
 18 13  1  0
 25 20  1  0
  1 33  1  0
  1 34  1  0
  1 35  1  0
  3 36  1  0
  4 37  1  0
  7 38  1  0
  9 39  1  0
  9 40  1  0
 14 41  1  0
 15 42  1  0
 16 43  1  0
 17 44  1  0
 21 45  1  0
 22 46  1  0
 23 47  1  0
 24 48  1  0
 28 49  1  0
 28 50  1  0
 29 51  1  0
 29 52  1  0
 30 53  1  0
 30 54  1  0
 31 55  1  0
 32 56  1  0
M  CHG  1   8   1
M  END
$$$$
