
     RDKit          3D

 48 51  0  0  0  0  0  0  0  0999 V2000
    1.3321    1.2893    1.4112 C   0  0  0  0  0  0  0  0  0  0  0  0
    1.9095    1.3515    0.0050 C   0  0  0  0  0  0  0  0  0  0  0  0
    2.2748    0.0214   -0.4728 N   0  0  0  0  0  0  0  0  0  0  0  0
    1.6028   -0.8075   -1.3780 C   0  0  0  0  0  0  0  0  0  0  0  0
    0.3311   -0.8053   -1.8217 C   0  0  0  0  0  0  0  0  0  0  0  0
   -0.7478    0.1060   -1.4352 C   0  0  0  0  0  0  0  0  0  0  0  0
   -0.9482    1.2005   -2.2654 C   0  0  0  0  0  0  0  0  0  0  0  0
   -1.9629    2.0845   -1.9940 C   0  0  0  0  0  0  0  0  0  0  0  0
   -2.7639    1.8801   -0.8824 C   0  0  0  0  0  0  0  0  0  0  0  0
   -3.7717    2.8241   -0.6655 C   0  0  0  0  0  0  0  0  0  0  0  0
   -4.6171    2.7144    0.4209 C   0  0  0  0  0  0  0  0  0  0  0  0
   -4.4454    1.6650    1.3078 C   0  0  0  0  0  0  0  0  0  0  0  0
   -3.4349    0.6840    1.1340 C   0  0  0  0  0  0  0  0  0  0  0  0
   -3.3905   -0.3127    2.2659 C   0  0  0  0  0  0  0  0  0  0  0  0
   -2.5665    0.7535   -0.0003 C   0  0  0  0  0  0  0  0  0  0  0  0
   -1.5567   -0.1413   -0.3515 N   0  0  0  0  0  4  0  0  0  0  0  0
   -1.3510   -1.4401    0.3572 C   0  0  0  0  0  0  0  0  0  0  0  0
   -2.2842   -2.4893   -0.2201 C   0  0  0  0  0  0  0  0  0  0  0  0
    2.6006   -2.1675   -1.9906 S   0  0  0  0  0  0  0  0  0  0  0  0
    3.9385   -1.6039   -0.9568 C   0  0  0  0  0  0  0  0  0  0  0  0
    5.1855   -2.2056   -0.8528 C   0  0  0  0  0  0  0  0  0  0  0  0
    6.1285   -1.6348   -0.0016 C   0  0  0  0  0  0  0  0  0  0  0  0
    5.8130   -0.4821    0.7262 C   0  0  0  0  0  0  0  0  0  0  0  0
    4.5512    0.1167    0.6119 C   0  0  0  0  0  0  0  0  0  0  0  0
    3.5968   -0.4386   -0.2367 C   0  0  0  0  0  0  0  0  0  0  0  0
    2.0625    0.9049    2.1296 H   0  0  0  0  0  0  0  0  0  0  0  0
    1.0295    2.2886    1.7394 H   0  0  0  0  0  0  0  0  0  0  0  0
    0.4555    0.6382    1.4561 H   0  0  0  0  0  0  0  0  0  0  0  0
    2.7649    2.0377   -0.0185 H   0  0  0  0  0  0  0  0  0  0  0  0
    1.1799    1.8165   -0.6621 H   0  0  0  0  0  0  0  0  0  0  0  0
    0.0104   -1.5605   -2.5400 H   0  0  0  0  0  0  0  0  0  0  0  0
   -0.3124    1.3662   -3.1348 H   0  0  0  0  0  0  0  0  0  0  0  0
   -2.1131    2.9356   -2.6587 H   0  0  0  0  0  0  0  0  0  0  0  0
   -3.9169    3.6658   -1.3436 H   0  0  0  0  0  0  0  0  0  0  0  0
   -5.4015    3.4512    0.5858 H   0  0  0  0  0  0  0  0  0  0  0  0
   -5.1188    1.6235    2.1666 H   0  0  0  0  0  0  0  0  0  0  0  0
   -2.4504   -0.2191    2.8177 H   0  0  0  0  0  0  0  0  0  0  0  0
   -4.1821   -0.1328    3.0037 H   0  0  0  0  0  0  0  0  0  0  0  0
   -3.5566   -1.3315    1.9132 H   0  0  0  0  0  0  0  0  0  0  0  0
   -0.3166   -1.7734    0.2567 H   0  0  0  0  0  0  0  0  0  0  0  0
   -1.4476   -1.3011    1.4266 H   0  0  0  0  0  0  0  0  0  0  0  0
   -2.1905   -3.4265    0.3369 H   0  0  0  0  0  0  0  0  0  0  0  0
   -3.3301   -2.1719   -0.1877 H   0  0  0  0  0  0  0  0  0  0  0  0
   -2.0418   -2.6947   -1.2677 H   0  0  0  0  0  0  0  0  0  0  0  0
    5.4269   -3.0983   -1.4214 H   0  0  0  0  0  0  0  0  0  0  0  0
    7.1140   -2.0851    0.0974 H   0  0  0  0  0  0  0  0  0  0  0  0
    6.5591   -0.0466    1.3886 H   0  0  0  0  0  0  0  0  0  0  0  0
    4.3522    1.0046    1.2016 H   0  0  0  0  0  0  0  0  0  0  0  0
  1  2  1  0
  2  3  1  0
  3  4  1  0
  4  5  2  3
  5  6  1  0
  6  7  2  0
  7  8  1  0
  8  9  2  0
  9 10  1  0
 10 11  2  0
 11 12  1  0
 12 13  2  0
 13 14  1  0
 13 15  1  0
 15 16  2  0
 16 17  1  0
 17 18  1  0
  4 19  1  0
 19 20  1  0
 20 21  2  0
 21 22  1  0
 22 23  2  0
 23 24  1  0
 24 25  2  0
 25  3  1  0
 16  6  1  0
 25 20  1  0
 15  9  1  0
  1 26  1  0
  1 27  1  0
  1 28  1  0
  2 29  1  0
  2 30  1  0
  5 31  1  0
  7 32  1  0
  8 33  1  0
 10 34  1  0
 11 35  1  0
 12 36  1  0
 14 37  1  0
 14 38  1  0
 14 39  1  0
 17 40  1  0
 17 41  1  0
 18 42  1  0
 18 43  1  0
 18 44  1  0
 21 45  1  0
 22 46  1  0
 23 47  1  0
 24 48  1  0
M  CHG  1  16   1
M  END
$$$$
