
     RDKit          3D

 43 44  0  0  0  0  0  0  0  0999 V2000
   -2.5303   -2.5986    0.0830 C   0  0  0  0  0  0  0  0  0  0  0  0
   -2.8350   -1.5301    1.1152 C   0  0  0  0  0  0  0  0  0  0  0  0
   -3.3249   -0.3010    0.4344 N   0  0  0  0  0  4  0  0  0  0  0  0
   -4.6609   -0.1835    0.2241 C   0  0  0  0  0  0  0  0  0  0  0  0
   -5.2053    0.9258   -0.4194 C   0  0  0  0  0  0  0  0  0  0  0  0
   -6.6821    1.0168   -0.6706 C   0  0  0  0  0  0  0  0  0  0  0  0
   -4.3468    1.9185   -0.8773 C   0  0  0  0  0  0  0  0  0  0  0  0
   -2.9808    1.7934   -0.6605 C   0  0  0  0  0  0  0  0  0  0  0  0
   -2.4723    0.6710    0.0042 C   0  0  0  0  0  0  0  0  0  0  0  0
   -1.0314    0.5629    0.2421 C   0  0  0  0  0  0  0  0  0  0  0  0
   -0.1482    0.4259   -0.7598 C   0  0  0  0  0  0  0  0  0  0  0  0
    1.2957    0.2814   -0.5383 C   0  0  0  0  0  0  0  0  0  0  0  0
    2.0182   -0.6109   -1.3283 C   0  0  0  0  0  0  0  0  0  0  0  0
    3.4017   -0.7683   -1.1491 C   0  0  0  0  0  0  0  0  0  0  0  0
    4.1271   -0.0329   -0.1964 C   0  0  0  0  0  0  0  0  0  0  0  0
    5.4997   -0.2130   -0.0042 N   0  0  0  0  0  0  0  0  0  0  0  0
    6.2481    0.7674    0.7826 C   0  0  0  0  0  0  0  0  0  0  0  0
    6.2771   -0.9279   -1.0170 C   0  0  0  0  0  0  0  0  0  0  0  0
    3.3741    0.8652    0.5790 C   0  0  0  0  0  0  0  0  0  0  0  0
    1.9900    1.0312    0.4099 C   0  0  0  0  0  0  0  0  0  0  0  0
   -1.7532   -2.2731   -0.6146 H   0  0  0  0  0  0  0  0  0  0  0  0
   -3.4211   -2.8431   -0.5046 H   0  0  0  0  0  0  0  0  0  0  0  0
   -2.1853   -3.5129    0.5752 H   0  0  0  0  0  0  0  0  0  0  0  0
   -3.6192   -1.8673    1.8028 H   0  0  0  0  0  0  0  0  0  0  0  0
   -1.9628   -1.2893    1.7278 H   0  0  0  0  0  0  0  0  0  0  0  0
   -5.2902   -0.9982    0.5746 H   0  0  0  0  0  0  0  0  0  0  0  0
   -6.9249    0.5698   -1.6395 H   0  0  0  0  0  0  0  0  0  0  0  0
   -7.2440    0.4945    0.1109 H   0  0  0  0  0  0  0  0  0  0  0  0
   -7.0144    2.0603   -0.6678 H   0  0  0  0  0  0  0  0  0  0  0  0
   -4.7326    2.7932   -1.4007 H   0  0  0  0  0  0  0  0  0  0  0  0
   -2.3115    2.5791   -1.0093 H   0  0  0  0  0  0  0  0  0  0  0  0
   -0.7109    0.5857    1.2806 H   0  0  0  0  0  0  0  0  0  0  0  0
   -0.4664    0.3787   -1.8004 H   0  0  0  0  0  0  0  0  0  0  0  0
    1.5251   -1.2104   -2.0902 H   0  0  0  0  0  0  0  0  0  0  0  0
    3.8976   -1.4944   -1.7868 H   0  0  0  0  0  0  0  0  0  0  0  0
    6.1835    1.7642    0.3329 H   0  0  0  0  0  0  0  0  0  0  0  0
    5.8861    0.8045    1.8155 H   0  0  0  0  0  0  0  0  0  0  0  0
    7.3093    0.5018    0.8464 H   0  0  0  0  0  0  0  0  0  0  0  0
    6.2243   -0.4176   -1.9851 H   0  0  0  0  0  0  0  0  0  0  0  0
    5.9313   -1.9612   -1.1258 H   0  0  0  0  0  0  0  0  0  0  0  0
    7.3340   -0.9940   -0.7352 H   0  0  0  0  0  0  0  0  0  0  0  0
    3.8494    1.4715    1.3449 H   0  0  0  0  0  0  0  0  0  0  0  0
    1.4826    1.7647    1.0308 H   0  0  0  0  0  0  0  0  0  0  0  0
  1  2  1  0
  2  3  1  0
  3  4  2  0
  4  5  1  0
  5  6  1  0
  5  7  2  0
  7  8  1  0
  8  9  2  0
  9 10  1  0
 10 11  2  3
 11 12  1  0
 12 13  2  0
 13 14  1  0
 14 15  2  0
 15 16  1  0
 16 17  1  0
 16 18  1  0
 15 19  1  0
 19 20  2  0
  9  3  1  0
 20 12  1  0
  1 21  1  0
  1 22  1  0
  1 23  1  0
  2 24  1  0
  2 25  1  0
  4 26  1  0
  6 27  1  0
  6 28  1  0
  6 29  1  0
  7 30  1  0
  8 31  1  0
 10 32  1  0
 11 33  1  0
 13 34  1  0
 14 35  1  0
 17 36  1  0
 17 37  1  0
 17 38  1  0
 18 39  1  0
 18 40  1  0
 18 41  1  0
 19 42  1  0
 20 43  1  0
M  CHG  1   3   1
M  END
$$$$
