
     RDKit          3D

 47 50  0  0  0  0  0  0  0  0999 V2000
   -2.5891   -3.3420    1.5585 C   0  0  0  0  0  0  0  0  0  0  0  0
   -1.4927   -2.3443    1.3148 C   0  0  0  0  0  0  0  0  0  0  0  0
   -0.2633   -2.7023    1.5649 N   0  0  0  0  0  0  0  0  0  0  0  0
    0.8039   -1.8198    1.3600 N   0  0  0  0  0  0  0  0  0  0  0  0
    2.1297   -2.3153    1.7031 C   0  0  0  0  0  0  0  0  0  0  0  0
    2.9201   -2.6390    0.4363 C   0  0  0  0  0  0  0  0  0  0  0  0
    2.9265   -3.7619   -0.0761 O   0  0  0  0  0  0  0  0  0  0  0  0
    3.6001   -1.5588   -0.0930 N   0  0  0  0  0  0  0  0  0  0  0  0
    4.2484   -1.6579   -1.3784 C   0  0  0  0  0  0  0  0  0  0  0  0
    5.2297   -0.5329   -1.4983 C   0  0  0  0  0  0  0  0  0  0  0  0
    4.9930    0.7893   -1.8408 C   0  0  0  0  0  0  0  0  0  0  0  0
    6.1854    1.5751   -1.8426 C   0  0  0  0  0  0  0  0  0  0  0  0
    7.2938    0.8285   -1.5027 C   0  0  0  0  0  0  0  0  0  0  0  0
    6.8960   -0.8066   -1.1815 S   0  0  0  0  0  0  0  0  0  0  0  0
    0.6800   -0.4943    0.9049 C   0  0  0  0  0  0  0  0  0  0  0  0
    1.6459    0.2527    0.7430 O   0  0  0  0  0  0  0  0  0  0  0  0
   -0.6980   -0.1189    0.6279 C   0  0  0  0  0  0  0  0  0  0  0  0
   -1.1123    1.0507    0.1412 N   0  0  0  0  0  0  0  0  0  0  0  0
   -2.4717    0.9679    0.1241 N   0  0  0  0  0  0  0  0  0  0  0  0
   -3.2203    2.1563   -0.1542 C   0  0  0  0  0  0  0  0  0  0  0  0
   -2.5515    3.2613   -0.7115 C   0  0  0  0  0  0  0  0  0  0  0  0
   -3.2363    4.4475   -0.9878 C   0  0  0  0  0  0  0  0  0  0  0  0
   -4.5928    4.5513   -0.6968 C   0  0  0  0  0  0  0  0  0  0  0  0
   -5.2620    3.4725   -0.1250 C   0  0  0  0  0  0  0  0  0  0  0  0
   -4.5801    2.2817    0.1527 C   0  0  0  0  0  0  0  0  0  0  0  0
   -2.8937   -0.3387    0.4055 C   0  0  0  0  0  0  0  0  0  0  0  0
   -4.2800   -0.8366    0.2137 C   0  0  0  0  0  0  0  0  0  0  0  0
   -1.7556   -1.0133    0.8197 C   0  0  0  0  0  0  0  0  0  0  0  0
   -3.3965   -2.8831    2.1344 H   0  0  0  0  0  0  0  0  0  0  0  0
   -2.9744   -3.7024    0.6029 H   0  0  0  0  0  0  0  0  0  0  0  0
   -2.2052   -4.1990    2.1196 H   0  0  0  0  0  0  0  0  0  0  0  0
    2.6622   -1.5588    2.2911 H   0  0  0  0  0  0  0  0  0  0  0  0
    2.0486   -3.2203    2.3148 H   0  0  0  0  0  0  0  0  0  0  0  0
    3.2710   -0.6330    0.1857 H   0  0  0  0  0  0  0  0  0  0  0  0
    4.7243   -2.6410   -1.4820 H   0  0  0  0  0  0  0  0  0  0  0  0
    3.4727   -1.5796   -2.1514 H   0  0  0  0  0  0  0  0  0  0  0  0
    4.0060    1.1756   -2.0746 H   0  0  0  0  0  0  0  0  0  0  0  0
    6.2283    2.6343   -2.0788 H   0  0  0  0  0  0  0  0  0  0  0  0
    8.3213    1.1623   -1.4247 H   0  0  0  0  0  0  0  0  0  0  0  0
   -1.4894    3.2113   -0.9478 H   0  0  0  0  0  0  0  0  0  0  0  0
   -2.7047    5.2886   -1.4240 H   0  0  0  0  0  0  0  0  0  0  0  0
   -5.1255    5.4747   -0.9080 H   0  0  0  0  0  0  0  0  0  0  0  0
   -6.3173    3.5634    0.1208 H   0  0  0  0  0  0  0  0  0  0  0  0
   -5.1397    1.5000    0.6496 H   0  0  0  0  0  0  0  0  0  0  0  0
   -4.7566   -0.3812   -0.6634 H   0  0  0  0  0  0  0  0  0  0  0  0
   -4.8862   -0.6457    1.1087 H   0  0  0  0  0  0  0  0  0  0  0  0
   -4.2920   -1.9184    0.0299 H   0  0  0  0  0  0  0  0  0  0  0  0
  1  2  1  0
  2  3  2  0
  3  4  1  0
  4  5  1  0
  5  6  1  0
  6  7  2  0
  6  8  1  0
  8  9  1  0
  9 10  1  0
 10 11  2  0
 11 12  1  0
 12 13  2  0
 13 14  1  0
  4 15  1  0
 15 16  2  0
 15 17  1  0
 17 18  2  0
 18 19  1  0
 19 20  1  0
 20 21  2  0
 21 22  1  0
 22 23  2  0
 23 24  1  0
 24 25  2  0
 19 26  1  0
 26 27  1  0
 26 28  2  0
 28  2  1  0
 14 10  1  0
 28 17  1  0
 25 20  1  0
  1 29  1  0
  1 30  1  0
  1 31  1  0
  5 32  1  0
  5 33  1  0
  8 34  1  0
  9 35  1  0
  9 36  1  0
 11 37  1  0
 12 38  1  0
 13 39  1  0
 21 40  1  0
 22 41  1  0
 23 42  1  0
 24 43  1  0
 25 44  1  0
 27 45  1  0
 27 46  1  0
 27 47  1  0
M  END
$$$$
