
     RDKit          3D

 58 61  0  0  0  0  0  0  0  0999 V2000
   -4.2614    5.1130    2.7995 C   0  0  0  0  0  0  0  0  0  0  0  0
   -3.9547    3.7269    2.8791 O   0  0  0  0  0  0  0  0  0  0  0  0
   -3.7557    3.0685    1.6963 C   0  0  0  0  0  0  0  0  0  0  0  0
   -3.7923    3.6398    0.4242 C   0  0  0  0  0  0  0  0  0  0  0  0
   -3.5645    2.8501   -0.7055 C   0  0  0  0  0  0  0  0  0  0  0  0
   -3.3003    1.4871   -0.5684 C   0  0  0  0  0  0  0  0  0  0  0  0
   -3.2616    0.8983    0.7007 C   0  0  0  0  0  0  0  0  0  0  0  0
   -2.9650   -0.5328    0.8448 C   0  0  0  0  0  0  0  0  0  0  0  0
   -4.1744   -1.5513    1.4998 S   0  0  0  0  0  0  0  0  0  0  0  0
   -3.2049   -2.9587    1.3423 C   0  0  0  0  0  0  0  0  0  0  0  0
   -3.5591   -4.2728    1.7038 C   0  0  0  0  0  0  0  0  0  0  0  0
   -2.6381   -5.3086    1.5099 C   0  0  0  0  0  0  0  0  0  0  0  0
   -1.3861   -5.0494    0.9699 C   0  0  0  0  0  0  0  0  0  0  0  0
   -0.4036   -5.9723    0.7360 O   0  0  0  0  0  0  0  0  0  0  0  0
   -0.6895   -7.3212    1.0829 C   0  0  0  0  0  0  0  0  0  0  0  0
   -1.0472   -3.7381    0.6147 C   0  0  0  0  0  0  0  0  0  0  0  0
   -1.9582   -2.6630    0.7911 C   0  0  0  0  0  0  0  0  0  0  0  0
   -1.8288   -1.2507    0.5006 C   0  0  0  0  0  0  0  0  0  0  0  0
   -0.6571   -0.6049   -0.0848 C   0  0  0  0  0  0  0  0  0  0  0  0
    0.1015    0.3045    0.6603 C   0  0  0  0  0  0  0  0  0  0  0  0
    1.2221    0.9238    0.0947 C   0  0  0  0  0  0  0  0  0  0  0  0
    1.5956    0.6338   -1.2178 C   0  0  0  0  0  0  0  0  0  0  0  0
    2.6589    1.1688   -1.8897 O   0  0  0  0  0  0  0  0  0  0  0  0
    3.5262    2.0351   -1.1564 C   0  0  0  0  0  0  0  0  0  0  0  0
    4.6799    2.5040   -2.0657 C   0  0  0  0  0  0  0  0  0  0  0  0
    5.5829    1.4414   -2.5566 N   0  0  0  0  0  0  0  0  0  0  0  0
    6.3102    0.7824   -1.4731 C   0  0  0  0  0  0  0  0  0  0  0  0
    6.5253    1.9926   -3.5320 C   0  0  0  0  0  0  0  0  0  0  0  0
    0.8389   -0.2777   -1.9586 C   0  0  0  0  0  0  0  0  0  0  0  0
   -0.2806   -0.8976   -1.3986 C   0  0  0  0  0  0  0  0  0  0  0  0
   -3.4897    1.7016    1.8273 C   0  0  0  0  0  0  0  0  0  0  0  0
   -4.4060    5.4824    3.8194 H   0  0  0  0  0  0  0  0  0  0  0  0
   -3.4329    5.6753    2.3564 H   0  0  0  0  0  0  0  0  0  0  0  0
   -5.1933    5.2809    2.2495 H   0  0  0  0  0  0  0  0  0  0  0  0
   -3.9924    4.6954    0.2755 H   0  0  0  0  0  0  0  0  0  0  0  0
   -3.5905    3.2978   -1.6958 H   0  0  0  0  0  0  0  0  0  0  0  0
   -3.1237    0.8871   -1.4584 H   0  0  0  0  0  0  0  0  0  0  0  0
   -4.5364   -4.4823    2.1300 H   0  0  0  0  0  0  0  0  0  0  0  0
   -2.9401   -6.3103    1.7980 H   0  0  0  0  0  0  0  0  0  0  0  0
    0.1906   -7.9233    0.8371 H   0  0  0  0  0  0  0  0  0  0  0  0
   -1.5313   -7.7088    0.4997 H   0  0  0  0  0  0  0  0  0  0  0  0
   -0.8724   -7.4222    2.1578 H   0  0  0  0  0  0  0  0  0  0  0  0
   -0.0614   -3.5429    0.1974 H   0  0  0  0  0  0  0  0  0  0  0  0
   -0.1751    0.5404    1.6856 H   0  0  0  0  0  0  0  0  0  0  0  0
    1.7755    1.6276    0.7065 H   0  0  0  0  0  0  0  0  0  0  0  0
    3.9179    1.5323   -0.2654 H   0  0  0  0  0  0  0  0  0  0  0  0
    2.9655    2.9247   -0.8433 H   0  0  0  0  0  0  0  0  0  0  0  0
    4.2195    2.9865   -2.9380 H   0  0  0  0  0  0  0  0  0  0  0  0
    5.2567    3.2719   -1.5342 H   0  0  0  0  0  0  0  0  0  0  0  0
    6.9985    0.0288   -1.8733 H   0  0  0  0  0  0  0  0  0  0  0  0
    6.8921    1.4927   -0.8749 H   0  0  0  0  0  0  0  0  0  0  0  0
    5.6289    0.2416   -0.8092 H   0  0  0  0  0  0  0  0  0  0  0  0
    7.1606    1.2011   -3.9452 H   0  0  0  0  0  0  0  0  0  0  0  0
    5.9902    2.4350   -4.3797 H   0  0  0  0  0  0  0  0  0  0  0  0
    7.1722    2.7606   -3.0925 H   0  0  0  0  0  0  0  0  0  0  0  0
    1.1277   -0.5080   -2.9814 H   0  0  0  0  0  0  0  0  0  0  0  0
   -0.8538   -1.6028   -1.9955 H   0  0  0  0  0  0  0  0  0  0  0  0
   -3.4553    1.2659    2.8235 H   0  0  0  0  0  0  0  0  0  0  0  0
  1  2  1  0
  2  3  1  0
  3  4  2  0
  4  5  1  0
  5  6  2  0
  6  7  1  0
  7  8  1  0
  8  9  1  0
  9 10  1  0
 10 11  2  0
 11 12  1  0
 12 13  2  0
 13 14  1  0
 14 15  1  0
 13 16  1  0
 16 17  2  0
 17 18  1  0
 18 19  1  0
 19 20  2  0
 20 21  1  0
 21 22  2  0
 22 23  1  0
 23 24  1  0
 24 25  1  0
 25 26  1  0
 26 27  1  0
 26 28  1  0
 22 29  1  0
 29 30  2  0
  7 31  2  0
 31  3  1  0
 18  8  2  0
 30 19  1  0
 17 10  1  0
  1 32  1  0
  1 33  1  0
  1 34  1  0
  4 35  1  0
  5 36  1  0
  6 37  1  0
 11 38  1  0
 12 39  1  0
 15 40  1  0
 15 41  1  0
 15 42  1  0
 16 43  1  0
 20 44  1  0
 21 45  1  0
 24 46  1  0
 24 47  1  0
 25 48  1  0
 25 49  1  0
 27 50  1  0
 27 51  1  0
 27 52  1  0
 28 53  1  0
 28 54  1  0
 28 55  1  0
 29 56  1  0
 30 57  1  0
 31 58  1  0
M  END
$$$$
