
     RDKit          3D

 42 45  0  0  0  0  0  0  0  0999 V2000
    3.7937   -1.7533    1.5947 O   0  0  0  0  0  0  0  0  0  0  0  0
    3.2928   -1.0132    0.7521 C   0  0  0  0  0  0  0  0  0  0  0  0
    4.0748    0.1652    0.3210 C   0  0  0  0  0  0  0  0  0  0  0  0
    4.3810    0.3667   -1.0319 C   0  0  0  0  0  0  0  0  0  0  0  0
    5.1408    1.4741   -1.4141 C   0  0  0  0  0  0  0  0  0  0  0  0
    5.6012    2.3656   -0.4446 C   0  0  0  0  0  0  0  0  0  0  0  0
    5.3092    2.1389    0.8982 C   0  0  0  0  0  0  0  0  0  0  0  0
    5.7641    2.9950    1.8221 F   0  0  0  0  0  0  0  0  0  0  0  0
    4.5560    1.0421    1.2948 C   0  0  0  0  0  0  0  0  0  0  0  0
    2.0401   -1.2337    0.1903 N   0  0  0  0  0  0  0  0  0  0  0  0
    1.2764   -0.2431   -0.5789 C   0  0  0  0  0  0  0  0  0  0  0  0
   -0.2419   -0.3402   -0.3502 C   0  0  0  0  0  0  0  0  0  0  0  0
   -0.7693   -1.6976   -0.5296 N   0  0  0  0  0  0  0  0  0  0  0  0
   -2.0902   -2.0116   -0.8682 C   0  0  0  0  0  0  0  0  0  0  0  0
   -2.3874   -3.1558   -1.2196 O   0  0  0  0  0  0  0  0  0  0  0  0
   -3.1453   -0.9734   -0.8003 C   0  0  0  0  0  0  0  0  0  0  0  0
   -4.4420   -1.1068   -1.3642 C   0  0  0  0  0  0  0  0  0  0  0  0
   -5.1184    0.0441   -1.0468 C   0  0  0  0  0  0  0  0  0  0  0  0
   -6.3888    0.4643   -1.3293 N   0  0  0  0  0  0  0  0  0  0  0  0
   -6.7163    1.6284   -0.8480 C   0  0  0  0  0  0  0  0  0  0  0  0
   -5.8381    2.5239   -0.0340 C   0  0  0  0  0  0  0  0  0  0  0  0
   -6.4865    4.1483    0.5613 Br  0  0  0  0  0  0  0  0  0  0  0  0
   -4.6072    2.0520    0.2011 C   0  0  0  0  0  0  0  0  0  0  0  0
   -4.2276    0.8122   -0.2979 N   0  0  0  0  0  0  0  0  0  0  0  0
   -3.0293    0.2006   -0.1508 N   0  0  0  0  0  0  0  0  0  0  0  0
    0.1923   -2.7962   -0.4105 C   0  0  0  0  0  0  0  0  0  0  0  0
    1.3374   -2.4665    0.5516 C   0  0  0  0  0  0  0  0  0  0  0  0
    4.0461   -0.3442   -1.7833 H   0  0  0  0  0  0  0  0  0  0  0  0
    5.3834    1.6357   -2.4616 H   0  0  0  0  0  0  0  0  0  0  0  0
    6.1970    3.2295   -0.7236 H   0  0  0  0  0  0  0  0  0  0  0  0
    4.3530    0.8748    2.3480 H   0  0  0  0  0  0  0  0  0  0  0  0
    1.4959   -0.4354   -1.6358 H   0  0  0  0  0  0  0  0  0  0  0  0
    1.6134    0.7699   -0.3395 H   0  0  0  0  0  0  0  0  0  0  0  0
   -0.4737   -0.0415    0.6786 H   0  0  0  0  0  0  0  0  0  0  0  0
   -0.7370    0.3457   -1.0435 H   0  0  0  0  0  0  0  0  0  0  0  0
   -4.8274   -1.9456   -1.9269 H   0  0  0  0  0  0  0  0  0  0  0  0
   -7.7325    2.0081   -1.0492 H   0  0  0  0  0  0  0  0  0  0  0  0
   -3.8578    2.5813    0.7733 H   0  0  0  0  0  0  0  0  0  0  0  0
    0.5866   -2.9820   -1.4169 H   0  0  0  0  0  0  0  0  0  0  0  0
   -0.3173   -3.7074   -0.0791 H   0  0  0  0  0  0  0  0  0  0  0  0
    0.9457   -2.3236    1.5664 H   0  0  0  0  0  0  0  0  0  0  0  0
    2.0533   -3.2953    0.5857 H   0  0  0  0  0  0  0  0  0  0  0  0
  1  2  2  0
  2  3  1  0
  3  4  2  0
  4  5  1  0
  5  6  2  0
  6  7  1  0
  7  8  1  0
  7  9  2  0
  2 10  1  0
 10 11  1  0
 11 12  1  0
 12 13  1  0
 13 14  1  0
 14 15  2  0
 14 16  1  0
 16 17  1  0
 17 18  2  0
 18 19  1  0
 19 20  2  0
 20 21  1  0
 21 22  1  0
 21 23  2  0
 23 24  1  0
 24 25  1  0
 13 26  1  0
 26 27  1  0
  9  3  1  0
 27 10  1  0
 25 16  2  0
 24 18  1  0
  4 28  1  0
  5 29  1  0
  6 30  1  0
  9 31  1  0
 11 32  1  0
 11 33  1  0
 12 34  1  0
 12 35  1  0
 17 36  1  0
 20 37  1  0
 23 38  1  0
 26 39  1  0
 26 40  1  0
 27 41  1  0
 27 42  1  0
M  END
$$$$
