
     RDKit          3D

 40 42  0  0  0  0  0  0  0  0999 V2000
   -5.9079    0.9798    1.8689 C   0  0  0  0  0  0  0  0  0  0  0  0
   -5.3639    0.0964    0.7252 C   0  0  0  0  0  0  0  0  0  0  0  0
   -5.8155   -1.3523    0.9877 C   0  0  0  0  0  0  0  0  0  0  0  0
   -5.9754    0.5991   -0.5955 C   0  0  0  0  0  0  0  0  0  0  0  0
   -3.8455    0.1870    0.6815 C   0  0  0  0  0  0  0  0  0  0  0  0
   -3.1126    0.9232    1.4961 N   0  0  0  0  0  0  0  0  0  0  0  0
   -1.7634    0.8208    1.2306 N   0  0  0  0  0  0  0  0  0  0  0  0
   -1.5147    0.0098    0.2280 C   0  0  0  0  0  0  0  0  0  0  0  0
   -0.2413   -0.2424   -0.2076 N   0  0  0  0  0  0  0  0  0  0  0  0
    0.1474   -1.0676   -1.2363 C   0  0  0  0  0  0  0  0  0  0  0  0
   -0.5806   -1.7410   -1.9601 O   0  0  0  0  0  0  0  0  0  0  0  0
    1.6671   -1.0996   -1.4294 C   0  0  0  0  0  0  0  0  0  0  0  0
    2.3204   -0.2094   -0.5277 O   0  0  0  0  0  0  0  0  0  0  0  0
    3.6843   -0.1282   -0.6125 C   0  0  0  0  0  0  0  0  0  0  0  0
    4.4983   -0.8698   -1.4901 C   0  0  0  0  0  0  0  0  0  0  0  0
    5.8894   -0.7016   -1.4869 C   0  0  0  0  0  0  0  0  0  0  0  0
    6.4273    0.2063   -0.6020 C   0  0  0  0  0  0  0  0  0  0  0  0
    5.6363    0.9312    0.2553 C   0  0  0  0  0  0  0  0  0  0  0  0
    4.2654    0.7861    0.2743 C   0  0  0  0  0  0  0  0  0  0  0  0
    6.3591    1.7718    1.0428 O   0  0  0  0  0  0  0  0  0  0  0  0
    7.6980    1.4871    0.5863 C   0  0  0  0  0  0  0  0  0  0  0  0
    7.7476    0.4968   -0.4625 O   0  0  0  0  0  0  0  0  0  0  0  0
   -2.9005   -0.6863   -0.4693 S   0  0  0  0  0  0  0  0  0  0  0  0
   -5.5150    0.6610    2.8417 H   0  0  0  0  0  0  0  0  0  0  0  0
   -5.6303    2.0314    1.7290 H   0  0  0  0  0  0  0  0  0  0  0  0
   -7.0017    0.9316    1.9228 H   0  0  0  0  0  0  0  0  0  0  0  0
   -6.9048   -1.4128    1.0940 H   0  0  0  0  0  0  0  0  0  0  0  0
   -5.5329   -2.0238    0.1688 H   0  0  0  0  0  0  0  0  0  0  0  0
   -5.3676   -1.7475    1.9074 H   0  0  0  0  0  0  0  0  0  0  0  0
   -5.6460    1.6198   -0.8229 H   0  0  0  0  0  0  0  0  0  0  0  0
   -5.6931   -0.0344   -1.4438 H   0  0  0  0  0  0  0  0  0  0  0  0
   -7.0704    0.6048   -0.5464 H   0  0  0  0  0  0  0  0  0  0  0  0
    0.4847    0.2502    0.3015 H   0  0  0  0  0  0  0  0  0  0  0  0
    1.8648   -0.8010   -2.4655 H   0  0  0  0  0  0  0  0  0  0  0  0
    1.9915   -2.1303   -1.2439 H   0  0  0  0  0  0  0  0  0  0  0  0
    4.0813   -1.5891   -2.1886 H   0  0  0  0  0  0  0  0  0  0  0  0
    6.5253   -1.2671   -2.1588 H   0  0  0  0  0  0  0  0  0  0  0  0
    3.6595    1.3700    0.9582 H   0  0  0  0  0  0  0  0  0  0  0  0
    8.2892    1.1273    1.4363 H   0  0  0  0  0  0  0  0  0  0  0  0
    8.1461    2.4152    0.2137 H   0  0  0  0  0  0  0  0  0  0  0  0
  1  2  1  0
  2  3  1  0
  2  4  1  0
  2  5  1  0
  5  6  2  0
  6  7  1  0
  7  8  2  0
  8  9  1  0
  9 10  1  0
 10 11  2  0
 10 12  1  0
 12 13  1  0
 13 14  1  0
 14 15  2  0
 15 16  1  0
 16 17  2  0
 17 18  1  0
 18 19  2  0
 18 20  1  0
 20 21  1  0
 21 22  1  0
  8 23  1  0
 23  5  1  0
 19 14  1  0
 22 17  1  0
  1 24  1  0
  1 25  1  0
  1 26  1  0
  3 27  1  0
  3 28  1  0
  3 29  1  0
  4 30  1  0
  4 31  1  0
  4 32  1  0
  9 33  1  0
 12 34  1  0
 12 35  1  0
 15 36  1  0
 16 37  1  0
 19 38  1  0
 21 39  1  0
 21 40  1  0
M  END
$$$$
