
     RDKit          3D

 58 61  0  0  0  0  0  0  0  0999 V2000
    6.8542   -4.0642   -0.8084 C   0  0  0  0  0  0  0  0  0  0  0  0
    6.4514   -2.7878   -1.5025 C   0  0  0  0  0  0  0  0  0  0  0  0
    7.4091   -2.1393   -2.2935 C   0  0  0  0  0  0  0  0  0  0  0  0
    7.0929   -0.9642   -2.9660 C   0  0  0  0  0  0  0  0  0  0  0  0
    5.8116   -0.4255   -2.8648 C   0  0  0  0  0  0  0  0  0  0  0  0
    4.8284   -1.0443   -2.0832 C   0  0  0  0  0  0  0  0  0  0  0  0
    3.5147   -0.5215   -1.9828 N   0  0  0  0  0  0  0  0  0  0  0  0
    3.0131    0.6383   -2.5569 C   0  0  0  0  0  0  0  0  0  0  0  0
    3.5829    1.3953   -3.3335 O   0  0  0  0  0  0  0  0  0  0  0  0
    1.6116    0.9372   -2.1420 C   0  0  0  0  0  0  0  0  0  0  0  0
    0.6605    1.1195   -3.1785 C   0  0  0  0  0  0  0  0  0  0  0  0
   -0.1217    1.2524   -4.0277 N   0  0  0  0  0  0  0  0  0  0  0  0
    1.3752    1.0623   -0.8215 C   0  0  0  0  0  0  0  0  0  0  0  0
    0.1573    1.3643   -0.1341 C   0  0  0  0  0  0  0  0  0  0  0  0
   -0.9191    2.0708   -0.6216 C   0  0  0  0  0  0  0  0  0  0  0  0
   -1.8583    2.1674    0.3778 N   0  0  0  0  0  0  0  0  0  0  0  0
   -3.1225    2.8690    0.2388 C   0  0  0  0  0  0  0  0  0  0  0  0
   -4.2211    1.9519   -0.2564 C   0  0  0  0  0  0  0  0  0  0  0  0
   -4.3442    1.6458   -1.4396 O   0  0  0  0  0  0  0  0  0  0  0  0
   -5.0882    1.5044    0.7214 N   0  0  0  0  0  0  0  0  0  0  0  0
   -6.1026    0.5293    0.3922 C   0  0  0  0  0  0  0  0  0  0  0  0
   -7.0420    0.4372    1.5334 C   0  0  0  0  0  0  0  0  0  0  0  0
   -8.3406    0.8551    1.7327 C   0  0  0  0  0  0  0  0  0  0  0  0
   -8.6880    0.4726    3.0505 C   0  0  0  0  0  0  0  0  0  0  0  0
   -7.5805   -0.1557    3.5701 C   0  0  0  0  0  0  0  0  0  0  0  0
   -6.5698   -0.1689    2.6631 O   0  0  0  0  0  0  0  0  0  0  0  0
   -1.3946    1.5628    1.5288 C   0  0  0  0  0  0  0  0  0  0  0  0
   -1.9640    1.4379    2.8070 C   0  0  0  0  0  0  0  0  0  0  0  0
   -1.2464    0.7493    3.7892 C   0  0  0  0  0  0  0  0  0  0  0  0
    0.0036    0.2069    3.5129 C   0  0  0  0  0  0  0  0  0  0  0  0
    0.5704    0.3441    2.2424 C   0  0  0  0  0  0  0  0  0  0  0  0
   -0.1321    1.0350    1.2280 C   0  0  0  0  0  0  0  0  0  0  0  0
    5.1556   -2.2243   -1.3652 C   0  0  0  0  0  0  0  0  0  0  0  0
    4.1321   -2.9036   -0.4859 C   0  0  0  0  0  0  0  0  0  0  0  0
    6.9068   -3.9063    0.2750 H   0  0  0  0  0  0  0  0  0  0  0  0
    7.8386   -4.4120   -1.1419 H   0  0  0  0  0  0  0  0  0  0  0  0
    6.1397   -4.8642   -1.0343 H   0  0  0  0  0  0  0  0  0  0  0  0
    8.4133   -2.5459   -2.3932 H   0  0  0  0  0  0  0  0  0  0  0  0
    7.8403   -0.4684   -3.5800 H   0  0  0  0  0  0  0  0  0  0  0  0
    5.6144    0.4828   -3.4256 H   0  0  0  0  0  0  0  0  0  0  0  0
    2.8612   -1.0703   -1.4470 H   0  0  0  0  0  0  0  0  0  0  0  0
    2.2268    0.9242   -0.1545 H   0  0  0  0  0  0  0  0  0  0  0  0
   -1.1145    2.5257   -1.5873 H   0  0  0  0  0  0  0  0  0  0  0  0
   -3.3843    3.3208    1.2003 H   0  0  0  0  0  0  0  0  0  0  0  0
   -2.9895    3.6866   -0.4786 H   0  0  0  0  0  0  0  0  0  0  0  0
   -4.7597    1.4820    1.6776 H   0  0  0  0  0  0  0  0  0  0  0  0
   -6.6158    0.8262   -0.5278 H   0  0  0  0  0  0  0  0  0  0  0  0
   -5.6074   -0.4310    0.2155 H   0  0  0  0  0  0  0  0  0  0  0  0
   -8.9601    1.3728    1.0136 H   0  0  0  0  0  0  0  0  0  0  0  0
   -9.6310    0.6245    3.5578 H   0  0  0  0  0  0  0  0  0  0  0  0
   -7.3595   -0.6328    4.5180 H   0  0  0  0  0  0  0  0  0  0  0  0
   -2.9317    1.8646    3.0488 H   0  0  0  0  0  0  0  0  0  0  0  0
   -1.6703    0.6404    4.7843 H   0  0  0  0  0  0  0  0  0  0  0  0
    0.5482   -0.3233    4.2924 H   0  0  0  0  0  0  0  0  0  0  0  0
    1.5511   -0.0796    2.0468 H   0  0  0  0  0  0  0  0  0  0  0  0
    3.4243   -3.4660   -1.1026 H   0  0  0  0  0  0  0  0  0  0  0  0
    3.5883   -2.1701    0.1189 H   0  0  0  0  0  0  0  0  0  0  0  0
    4.5817   -3.5902    0.2363 H   0  0  0  0  0  0  0  0  0  0  0  0
  1  2  1  0
  2  3  2  0
  3  4  1  0
  4  5  2  0
  5  6  1  0
  6  7  1  0
  7  8  1  0
  8  9  2  0
  8 10  1  0
 10 11  1  0
 11 12  3  0
 10 13  2  3
 13 14  1  0
 14 15  2  0
 15 16  1  0
 16 17  1  0
 17 18  1  0
 18 19  2  0
 18 20  1  0
 20 21  1  0
 21 22  1  0
 22 23  2  0
 23 24  1  0
 24 25  2  0
 25 26  1  0
 16 27  1  0
 27 28  2  0
 28 29  1  0
 29 30  2  0
 30 31  1  0
 31 32  2  0
  6 33  2  0
 33 34  1  0
 33  2  1  0
 32 14  1  0
 26 22  1  0
 32 27  1  0
  1 35  1  0
  1 36  1  0
  1 37  1  0
  3 38  1  0
  4 39  1  0
  5 40  1  0
  7 41  1  0
 13 42  1  0
 15 43  1  0
 17 44  1  0
 17 45  1  0
 20 46  1  0
 21 47  1  0
 21 48  1  0
 23 49  1  0
 24 50  1  0
 25 51  1  0
 28 52  1  0
 29 53  1  0
 30 54  1  0
 31 55  1  0
 34 56  1  0
 34 57  1  0
 34 58  1  0
M  END
$$$$
