
     RDKit          3D

 42 44  0  0  0  0  0  0  0  0999 V2000
   -2.1752    1.8515   -1.8215 C   0  0  0  0  0  0  0  0  0  0  0  0
   -2.9495    1.5479   -0.5527 C   0  0  0  0  0  0  0  0  0  0  0  0
   -3.2087    2.4773    0.2173 O   0  0  0  0  0  0  0  0  0  0  0  0
   -3.3761    0.2147   -0.3750 N   0  0  0  0  0  0  0  0  0  0  0  0
   -2.6242   -0.8695   -0.8347 C   0  0  0  0  0  0  0  0  0  0  0  0
   -1.2920   -1.0401   -0.8071 C   0  0  0  0  0  0  0  0  0  0  0  0
   -0.3070   -0.2053   -0.1525 C   0  0  0  0  0  0  0  0  0  0  0  0
    1.0140   -0.4076   -0.2810 C   0  0  0  0  0  0  0  0  0  0  0  0
    2.0000    0.4138    0.3916 C   0  0  0  0  0  0  0  0  0  0  0  0
    3.3355    0.2951    0.3257 C   0  0  0  0  0  0  0  0  0  0  0  0
    4.3931    1.3775    1.2070 S   0  0  0  0  0  0  0  0  0  0  0  0
    5.8387    0.5637    0.5927 C   0  0  0  0  0  0  0  0  0  0  0  0
    7.1540    0.8967    0.8854 C   0  0  0  0  0  0  0  0  0  0  0  0
    8.1857    0.1455    0.3117 C   0  0  0  0  0  0  0  0  0  0  0  0
    7.8976   -0.9267   -0.5454 C   0  0  0  0  0  0  0  0  0  0  0  0
    6.5742   -1.2585   -0.8374 C   0  0  0  0  0  0  0  0  0  0  0  0
    5.5639   -0.5006   -0.2579 C   0  0  0  0  0  0  0  0  0  0  0  0
    4.1248   -0.7118   -0.4568 C   0  0  0  0  0  0  0  0  0  0  0  0
    3.6841   -1.5971   -1.1698 O   0  0  0  0  0  0  0  0  0  0  0  0
   -4.6706   -0.0260    0.2409 C   0  0  0  0  0  0  0  0  0  0  0  0
   -5.6565    0.9713    0.3177 C   0  0  0  0  0  0  0  0  0  0  0  0
   -6.9053    0.7180    0.8978 C   0  0  0  0  0  0  0  0  0  0  0  0
   -7.1956   -0.5395    1.4154 C   0  0  0  0  0  0  0  0  0  0  0  0
   -6.2363   -1.5439    1.3558 C   0  0  0  0  0  0  0  0  0  0  0  0
   -4.9887   -1.2895    0.7748 C   0  0  0  0  0  0  0  0  0  0  0  0
   -2.6013    2.7544   -2.2716 H   0  0  0  0  0  0  0  0  0  0  0  0
   -2.2568    1.0587   -2.5681 H   0  0  0  0  0  0  0  0  0  0  0  0
   -1.1265    2.0432   -1.5857 H   0  0  0  0  0  0  0  0  0  0  0  0
   -3.2222   -1.6930   -1.2236 H   0  0  0  0  0  0  0  0  0  0  0  0
   -0.9047   -1.9598   -1.2475 H   0  0  0  0  0  0  0  0  0  0  0  0
   -0.6707    0.5910    0.4936 H   0  0  0  0  0  0  0  0  0  0  0  0
    1.3718   -1.2156   -0.9153 H   0  0  0  0  0  0  0  0  0  0  0  0
    1.5886    1.2091    1.0142 H   0  0  0  0  0  0  0  0  0  0  0  0
    7.3855    1.7257    1.5483 H   0  0  0  0  0  0  0  0  0  0  0  0
    9.2218    0.3950    0.5321 H   0  0  0  0  0  0  0  0  0  0  0  0
    8.7101   -1.5020   -0.9843 H   0  0  0  0  0  0  0  0  0  0  0  0
    6.3368   -2.0864   -1.4995 H   0  0  0  0  0  0  0  0  0  0  0  0
   -5.4892    1.9668   -0.0849 H   0  0  0  0  0  0  0  0  0  0  0  0
   -7.6482    1.5106    0.9434 H   0  0  0  0  0  0  0  0  0  0  0  0
   -8.1637   -0.7330    1.8694 H   0  0  0  0  0  0  0  0  0  0  0  0
   -6.4512   -2.5256    1.7700 H   0  0  0  0  0  0  0  0  0  0  0  0
   -4.2602   -2.0958    0.7835 H   0  0  0  0  0  0  0  0  0  0  0  0
  1  2  1  0
  2  3  2  0
  2  4  1  0
  4  5  1  0
  5  6  2  3
  6  7  1  0
  7  8  2  3
  8  9  1  0
  9 10  2  3
 10 11  1  0
 11 12  1  0
 12 13  2  0
 13 14  1  0
 14 15  2  0
 15 16  1  0
 16 17  2  0
 17 18  1  0
 18 19  2  0
  4 20  1  0
 20 21  2  0
 21 22  1  0
 22 23  2  0
 23 24  1  0
 24 25  2  0
 18 10  1  0
 25 20  1  0
 17 12  1  0
  1 26  1  0
  1 27  1  0
  1 28  1  0
  5 29  1  0
  6 30  1  0
  7 31  1  0
  8 32  1  0
  9 33  1  0
 13 34  1  0
 14 35  1  0
 15 36  1  0
 16 37  1  0
 21 38  1  0
 22 39  1  0
 23 40  1  0
 24 41  1  0
 25 42  1  0
M  END
$$$$
