
     RDKit          3D

 58 62  0  0  0  0  0  0  0  0999 V2000
    0.7066    1.3714   -2.7106 O   0  0  0  0  0  0  0  0  0  0  0  0
    0.2004    0.5518   -1.9492 C   0  0  0  0  0  0  0  0  0  0  0  0
   -1.2879    0.2458   -2.0219 C   0  0  0  0  0  0  0  0  0  0  0  0
   -2.0680    0.4488   -0.3915 S   0  0  0  0  0  0  0  0  0  0  0  0
   -3.7479    0.0961   -0.7956 C   0  0  0  0  0  0  0  0  0  0  0  0
   -3.9538   -0.5675   -1.8870 N   0  0  0  0  0  0  0  0  0  0  0  0
   -5.2677   -0.7849   -2.3040 C   0  0  0  0  0  0  0  0  0  0  0  0
   -5.4912   -1.5296   -3.4648 C   0  0  0  0  0  0  0  0  0  0  0  0
   -6.7898   -1.7487   -3.9312 C   0  0  0  0  0  0  0  0  0  0  0  0
   -7.8778   -1.2199   -3.2388 C   0  0  0  0  0  0  0  0  0  0  0  0
   -7.6657   -0.4745   -2.0798 C   0  0  0  0  0  0  0  0  0  0  0  0
   -6.3595   -0.2618   -1.6204 C   0  0  0  0  0  0  0  0  0  0  0  0
   -6.0999    0.5003   -0.3856 C   0  0  0  0  0  0  0  0  0  0  0  0
   -7.0644    0.9653    0.2210 O   0  0  0  0  0  0  0  0  0  0  0  0
   -4.7635    0.6037    0.0166 N   0  0  0  0  0  0  0  0  0  0  0  0
   -4.5162    1.1919    1.2992 C   0  0  0  0  0  0  0  0  0  0  0  0
   -5.0045    2.4729    1.6017 C   0  0  0  0  0  0  0  0  0  0  0  0
   -4.7747    3.0354    2.8603 C   0  0  0  0  0  0  0  0  0  0  0  0
   -4.0731    2.3137    3.8209 C   0  0  0  0  0  0  0  0  0  0  0  0
   -3.8609    2.8561    5.0264 F   0  0  0  0  0  0  0  0  0  0  0  0
   -3.6040    1.0355    3.5553 C   0  0  0  0  0  0  0  0  0  0  0  0
   -3.8353    0.4809    2.3010 C   0  0  0  0  0  0  0  0  0  0  0  0
   -3.4391   -0.7830    2.0815 F   0  0  0  0  0  0  0  0  0  0  0  0
    0.8686   -0.2226   -1.0138 N   0  0  0  0  0  0  0  0  0  0  0  0
    2.2483   -0.2462   -0.7366 C   0  0  0  0  0  0  0  0  0  0  0  0
    3.2001    0.4885   -1.4335 C   0  0  0  0  0  0  0  0  0  0  0  0
    4.5595    0.3992   -1.0915 C   0  0  0  0  0  0  0  0  0  0  0  0
    5.0204   -0.4226   -0.0522 C   0  0  0  0  0  0  0  0  0  0  0  0
    6.3598   -0.5054    0.2776 N   0  0  0  0  0  0  0  0  0  0  0  0
    7.3321    0.5204   -0.1343 C   0  0  0  0  0  0  0  0  0  0  0  0
    8.5150    0.5503    0.8491 C   0  0  0  0  0  0  0  0  0  0  0  0
    9.2202   -0.6944    0.9570 O   0  0  0  0  0  0  0  0  0  0  0  0
    8.3959   -1.8372    0.6886 C   0  0  0  0  0  0  0  0  0  0  0  0
    6.9116   -1.6368    1.0399 C   0  0  0  0  0  0  0  0  0  0  0  0
    4.0407   -1.1545    0.6338 C   0  0  0  0  0  0  0  0  0  0  0  0
    2.6800   -1.0712    0.3022 C   0  0  0  0  0  0  0  0  0  0  0  0
   -1.4041   -0.7799   -2.3867 H   0  0  0  0  0  0  0  0  0  0  0  0
   -1.7512    0.9360   -2.7351 H   0  0  0  0  0  0  0  0  0  0  0  0
   -4.6455   -1.9391   -4.0115 H   0  0  0  0  0  0  0  0  0  0  0  0
   -6.9501   -2.3303   -4.8360 H   0  0  0  0  0  0  0  0  0  0  0  0
   -8.8895   -1.3894   -3.6002 H   0  0  0  0  0  0  0  0  0  0  0  0
   -8.5149   -0.0657   -1.5361 H   0  0  0  0  0  0  0  0  0  0  0  0
   -5.5610    3.0441    0.8613 H   0  0  0  0  0  0  0  0  0  0  0  0
   -5.1454    4.0282    3.0980 H   0  0  0  0  0  0  0  0  0  0  0  0
   -3.0796    0.4726    4.3184 H   0  0  0  0  0  0  0  0  0  0  0  0
    0.2814   -0.7910   -0.4134 H   0  0  0  0  0  0  0  0  0  0  0  0
    2.9295    1.1417   -2.2569 H   0  0  0  0  0  0  0  0  0  0  0  0
    5.2572    0.9820   -1.6872 H   0  0  0  0  0  0  0  0  0  0  0  0
    6.8783    1.5182   -0.1420 H   0  0  0  0  0  0  0  0  0  0  0  0
    7.6913    0.2864   -1.1435 H   0  0  0  0  0  0  0  0  0  0  0  0
    9.2391    1.3128    0.5434 H   0  0  0  0  0  0  0  0  0  0  0  0
    8.1646    0.8181    1.8533 H   0  0  0  0  0  0  0  0  0  0  0  0
    8.5038   -2.0796   -0.3755 H   0  0  0  0  0  0  0  0  0  0  0  0
    8.8062   -2.6784    1.2566 H   0  0  0  0  0  0  0  0  0  0  0  0
    6.8061   -1.4284    2.1110 H   0  0  0  0  0  0  0  0  0  0  0  0
    6.3839   -2.5690    0.8071 H   0  0  0  0  0  0  0  0  0  0  0  0
    4.3137   -1.7953    1.4676 H   0  0  0  0  0  0  0  0  0  0  0  0
    1.9719   -1.6610    0.8785 H   0  0  0  0  0  0  0  0  0  0  0  0
  1  2  2  0
  2  3  1  0
  3  4  1  0
  4  5  1  0
  5  6  2  0
  6  7  1  0
  7  8  2  0
  8  9  1  0
  9 10  2  0
 10 11  1  0
 11 12  2  0
 12 13  1  0
 13 14  2  0
 13 15  1  0
 15 16  1  0
 16 17  2  0
 17 18  1  0
 18 19  2  0
 19 20  1  0
 19 21  1  0
 21 22  2  0
 22 23  1  0
  2 24  1  0
 24 25  1  0
 25 26  2  0
 26 27  1  0
 27 28  2  0
 28 29  1  0
 29 30  1  0
 30 31  1  0
 31 32  1  0
 32 33  1  0
 33 34  1  0
 28 35  1  0
 35 36  2  0
 15  5  1  0
 22 16  1  0
 36 25  1  0
 12  7  1  0
 34 29  1  0
  3 37  1  0
  3 38  1  0
  8 39  1  0
  9 40  1  0
 10 41  1  0
 11 42  1  0
 17 43  1  0
 18 44  1  0
 21 45  1  0
 24 46  1  0
 26 47  1  0
 27 48  1  0
 30 49  1  0
 30 50  1  0
 31 51  1  0
 31 52  1  0
 33 53  1  0
 33 54  1  0
 34 55  1  0
 34 56  1  0
 35 57  1  0
 36 58  1  0
M  END
$$$$
