
     RDKit          3D

 35 37  0  0  0  0  0  0  0  0999 V2000
    7.3609    1.2650   -1.0616 C   0  0  0  0  0  0  0  0  0  0  0  0
    5.9771    1.1489   -0.7273 O   0  0  0  0  0  0  0  0  0  0  0  0
    5.3623    0.0809   -1.2946 C   0  0  0  0  0  0  0  0  0  0  0  0
    5.8904   -0.7416   -2.0261 O   0  0  0  0  0  0  0  0  0  0  0  0
    3.9261    0.0328   -0.9052 C   0  0  0  0  0  0  0  0  0  0  0  0
    3.3521    0.9614   -0.0270 C   0  0  0  0  0  0  0  0  0  0  0  0
    1.9970    0.8693    0.3085 C   0  0  0  0  0  0  0  0  0  0  0  0
    1.2017   -0.1462   -0.2332 C   0  0  0  0  0  0  0  0  0  0  0  0
   -0.2156   -0.2266    0.1389 C   0  0  0  0  0  0  0  0  0  0  0  0
   -1.2614    0.0176   -0.6816 C   0  0  0  0  0  0  0  0  0  0  0  0
   -1.0533    0.4004   -2.0441 C   0  0  0  0  0  0  0  0  0  0  0  0
   -0.8902    0.7062   -3.1523 N   0  0  0  0  0  0  0  0  0  0  0  0
   -2.5881   -0.1044   -0.1325 C   0  0  0  0  0  0  0  0  0  0  0  0
   -2.8777   -0.4137    1.1213 N   0  0  0  0  0  0  0  0  0  0  0  0
   -4.2448   -0.4531    1.3338 C   0  0  0  0  0  0  0  0  0  0  0  0
   -4.8835   -0.7508    2.5546 C   0  0  0  0  0  0  0  0  0  0  0  0
   -6.2804   -0.7546    2.6252 C   0  0  0  0  0  0  0  0  0  0  0  0
   -7.0428   -0.4663    1.4979 C   0  0  0  0  0  0  0  0  0  0  0  0
   -6.4311   -0.1682    0.2763 C   0  0  0  0  0  0  0  0  0  0  0  0
   -5.0274   -0.1679    0.2187 C   0  0  0  0  0  0  0  0  0  0  0  0
   -3.9982    0.1537   -1.1159 S   0  0  0  0  0  0  0  0  0  0  0  0
    1.7750   -1.0790   -1.1041 C   0  0  0  0  0  0  0  0  0  0  0  0
    3.1293   -0.9883   -1.4397 C   0  0  0  0  0  0  0  0  0  0  0  0
    7.4853    1.3935   -2.1414 H   0  0  0  0  0  0  0  0  0  0  0  0
    7.7570    2.1521   -0.5597 H   0  0  0  0  0  0  0  0  0  0  0  0
    7.9155    0.3902   -0.7078 H   0  0  0  0  0  0  0  0  0  0  0  0
    3.9462    1.7630    0.4052 H   0  0  0  0  0  0  0  0  0  0  0  0
    1.5707    1.6006    0.9925 H   0  0  0  0  0  0  0  0  0  0  0  0
   -0.3805   -0.4945    1.1826 H   0  0  0  0  0  0  0  0  0  0  0  0
   -4.2852   -0.9755    3.4320 H   0  0  0  0  0  0  0  0  0  0  0  0
   -6.7706   -0.9848    3.5685 H   0  0  0  0  0  0  0  0  0  0  0  0
   -8.1290   -0.4725    1.5655 H   0  0  0  0  0  0  0  0  0  0  0  0
   -7.0274    0.0565   -0.6031 H   0  0  0  0  0  0  0  0  0  0  0  0
    1.1804   -1.8850   -1.5294 H   0  0  0  0  0  0  0  0  0  0  0  0
    3.5600   -1.7193   -2.1223 H   0  0  0  0  0  0  0  0  0  0  0  0
  1  2  1  0
  2  3  1  0
  3  4  2  0
  3  5  1  0
  5  6  2  0
  6  7  1  0
  7  8  2  0
  8  9  1  0
  9 10  2  3
 10 11  1  0
 11 12  3  0
 10 13  1  0
 13 14  2  0
 14 15  1  0
 15 16  2  0
 16 17  1  0
 17 18  2  0
 18 19  1  0
 19 20  2  0
 20 21  1  0
  8 22  1  0
 22 23  2  0
 23  5  1  0
 21 13  1  0
 20 15  1  0
  1 24  1  0
  1 25  1  0
  1 26  1  0
  6 27  1  0
  7 28  1  0
  9 29  1  0
 16 30  1  0
 17 31  1  0
 18 32  1  0
 19 33  1  0
 22 34  1  0
 23 35  1  0
M  END
$$$$
