
     RDKit          3D

 60 63  0  0  0  0  0  0  0  0999 V2000
   -5.3622    2.8724   -2.9000 C   0  0  0  0  0  0  0  0  0  0  0  0
   -4.2511    2.0189   -3.1506 O   0  0  0  0  0  0  0  0  0  0  0  0
   -3.4758    1.6858   -2.0737 C   0  0  0  0  0  0  0  0  0  0  0  0
   -2.4047    0.8380   -2.3649 C   0  0  0  0  0  0  0  0  0  0  0  0
   -1.5288    0.4149   -1.3610 C   0  0  0  0  0  0  0  0  0  0  0  0
   -1.7246    0.8471   -0.0464 C   0  0  0  0  0  0  0  0  0  0  0  0
   -0.8421    0.4353    0.9831 N   0  0  0  0  0  0  0  0  0  0  0  0
   -0.3691   -0.8464    1.2462 C   0  0  0  0  0  0  0  0  0  0  0  0
   -0.8214   -2.1097    0.5900 C   0  0  0  0  0  0  0  0  0  0  0  0
   -2.2481   -2.4541    0.8959 C   0  0  0  0  0  0  0  0  0  0  0  0
   -3.3479   -2.4346    0.0551 C   0  0  0  0  0  0  0  0  0  0  0  0
   -4.4744   -2.8419    0.8029 C   0  0  0  0  0  0  0  0  0  0  0  0
   -4.0418   -3.1101    2.0801 C   0  0  0  0  0  0  0  0  0  0  0  0
   -2.6910   -2.8816    2.1321 N   0  0  0  0  0  0  0  0  0  0  0  0
   -1.8874   -3.0598    3.3235 C   0  0  0  0  0  0  0  0  0  0  0  0
    0.4663   -0.8063    2.2691 N   0  0  0  0  0  0  0  0  0  0  0  0
    0.5362    0.4790    2.7204 N   0  0  0  0  0  0  0  0  0  0  0  0
   -0.2351    1.2149    1.9535 C   0  0  0  0  0  0  0  0  0  0  0  0
   -0.2782    2.9496    2.0152 S   0  0  0  0  0  0  0  0  0  0  0  0
    1.4116    3.3125    2.5773 C   0  0  0  0  0  0  0  0  0  0  0  0
    2.4253    2.8817    1.5295 C   0  0  0  0  0  0  0  0  0  0  0  0
    2.6840    3.5635    0.5416 O   0  0  0  0  0  0  0  0  0  0  0  0
    3.0134    1.6564    1.7767 N   0  0  0  0  0  0  0  0  0  0  0  0
    3.9020    1.0374    0.8118 C   0  0  0  0  0  0  0  0  0  0  0  0
    3.1281    0.2862   -0.2723 C   0  0  0  0  0  0  0  0  0  0  0  0
    4.0499   -0.3962   -1.2507 C   0  0  0  0  0  0  0  0  0  0  0  0
    4.4371    0.2544   -2.4298 C   0  0  0  0  0  0  0  0  0  0  0  0
    5.3160   -0.3627   -3.3217 C   0  0  0  0  0  0  0  0  0  0  0  0
    5.8233   -1.6291   -3.0373 C   0  0  0  0  0  0  0  0  0  0  0  0
    5.4436   -2.2847   -1.8676 C   0  0  0  0  0  0  0  0  0  0  0  0
    4.5613   -1.6713   -0.9764 C   0  0  0  0  0  0  0  0  0  0  0  0
   -2.7921    1.7019    0.2505 C   0  0  0  0  0  0  0  0  0  0  0  0
   -3.6655    2.1162   -0.7611 C   0  0  0  0  0  0  0  0  0  0  0  0
   -6.0754    2.4032   -2.2128 H   0  0  0  0  0  0  0  0  0  0  0  0
   -5.0340    3.8476   -2.5260 H   0  0  0  0  0  0  0  0  0  0  0  0
   -5.8776    3.0387   -3.8498 H   0  0  0  0  0  0  0  0  0  0  0  0
   -2.2450    0.5130   -3.3906 H   0  0  0  0  0  0  0  0  0  0  0  0
   -0.6828   -0.2032   -1.6463 H   0  0  0  0  0  0  0  0  0  0  0  0
   -0.1815   -2.9298    0.9368 H   0  0  0  0  0  0  0  0  0  0  0  0
   -0.6597   -2.0716   -0.4889 H   0  0  0  0  0  0  0  0  0  0  0  0
   -3.3449   -2.1419   -0.9879 H   0  0  0  0  0  0  0  0  0  0  0  0
   -5.4925   -2.9274    0.4478 H   0  0  0  0  0  0  0  0  0  0  0  0
   -4.5889   -3.4444    2.9525 H   0  0  0  0  0  0  0  0  0  0  0  0
   -2.4462   -3.6582    4.0480 H   0  0  0  0  0  0  0  0  0  0  0  0
   -0.9668   -3.5844    3.0585 H   0  0  0  0  0  0  0  0  0  0  0  0
   -1.6748   -2.0748    3.7434 H   0  0  0  0  0  0  0  0  0  0  0  0
    1.5160    4.3921    2.7267 H   0  0  0  0  0  0  0  0  0  0  0  0
    1.6131    2.8319    3.5403 H   0  0  0  0  0  0  0  0  0  0  0  0
    2.5241    1.0300    2.4184 H   0  0  0  0  0  0  0  0  0  0  0  0
    4.5474    0.3516    1.3716 H   0  0  0  0  0  0  0  0  0  0  0  0
    4.5394    1.8101    0.3650 H   0  0  0  0  0  0  0  0  0  0  0  0
    2.4746   -0.4662    0.1872 H   0  0  0  0  0  0  0  0  0  0  0  0
    2.4530    0.9679   -0.8084 H   0  0  0  0  0  0  0  0  0  0  0  0
    4.0594    1.2503   -2.6572 H   0  0  0  0  0  0  0  0  0  0  0  0
    5.6142    0.1497   -4.2314 H   0  0  0  0  0  0  0  0  0  0  0  0
    6.5182   -2.1049   -3.7249 H   0  0  0  0  0  0  0  0  0  0  0  0
    5.8454   -3.2714   -1.6428 H   0  0  0  0  0  0  0  0  0  0  0  0
    4.2822   -2.1923   -0.0630 H   0  0  0  0  0  0  0  0  0  0  0  0
   -2.9898    2.0338    1.2679 H   0  0  0  0  0  0  0  0  0  0  0  0
   -4.4838    2.7731   -0.4856 H   0  0  0  0  0  0  0  0  0  0  0  0
  1  2  1  0
  2  3  1  0
  3  4  2  0
  4  5  1  0
  5  6  2  0
  6  7  1  0
  7  8  1  0
  8  9  1  0
  9 10  1  0
 10 11  2  0
 11 12  1  0
 12 13  2  0
 13 14  1  0
 14 15  1  0
  8 16  2  0
 16 17  1  0
 17 18  2  0
 18 19  1  0
 19 20  1  0
 20 21  1  0
 21 22  2  0
 21 23  1  0
 23 24  1  0
 24 25  1  0
 25 26  1  0
 26 27  2  0
 27 28  1  0
 28 29  2  0
 29 30  1  0
 30 31  2  0
  6 32  1  0
 32 33  2  0
 33  3  1  0
 18  7  1  0
 31 26  1  0
 14 10  1  0
  1 34  1  0
  1 35  1  0
  1 36  1  0
  4 37  1  0
  5 38  1  0
  9 39  1  0
  9 40  1  0
 11 41  1  0
 12 42  1  0
 13 43  1  0
 15 44  1  0
 15 45  1  0
 15 46  1  0
 20 47  1  0
 20 48  1  0
 23 49  1  0
 24 50  1  0
 24 51  1  0
 25 52  1  0
 25 53  1  0
 27 54  1  0
 28 55  1  0
 29 56  1  0
 30 57  1  0
 31 58  1  0
 32 59  1  0
 33 60  1  0
M  END
$$$$
