
     RDKit          3D

 74 78  0  0  0  0  0  0  0  0999 V2000
   -2.6818    2.1437    2.4957 C   0  0  0  0  0  0  0  0  0  0  0  0
   -2.7921    1.3204    1.2074 C   0  0  0  0  0  0  0  0  0  0  0  0
   -3.4076    2.1143    0.0394 C   0  0  0  0  0  0  0  0  0  0  0  0
   -2.9040    3.4763   -0.1543 N   0  0  0  0  0  0  0  0  0  0  0  0
   -3.7844    4.5856    0.3187 C   0  0  0  0  0  0  0  0  0  0  0  0
   -4.6853    5.0885   -0.8143 C   0  0  0  0  0  0  0  0  0  0  0  0
   -3.0485    5.7679    0.9970 C   0  0  0  0  0  0  0  0  0  0  0  0
   -2.4606    5.3605    2.2282 O   0  0  0  0  0  0  0  0  0  0  0  0
   -1.8633    3.7869   -1.0317 C   0  0  0  0  0  0  0  0  0  0  0  0
   -1.6196    4.9317   -1.4119 O   0  0  0  0  0  0  0  0  0  0  0  0
   -0.9835    2.7358   -1.5953 C   0  0  0  0  0  0  0  0  0  0  0  0
   -0.7600    2.7853   -2.9763 C   0  0  0  0  0  0  0  0  0  0  0  0
    0.2398    1.9987   -3.5553 C   0  0  0  0  0  0  0  0  0  0  0  0
    1.0438    1.1954   -2.7521 C   0  0  0  0  0  0  0  0  0  0  0  0
    0.8477    1.1480   -1.3732 C   0  0  0  0  0  0  0  0  0  0  0  0
    1.6548    0.3883   -0.4959 N   0  0  0  0  0  0  0  0  0  0  0  0
    2.8781   -0.1934   -0.7687 C   0  0  0  0  0  0  0  0  0  0  0  0
    3.5322   -0.0238   -1.7852 O   0  0  0  0  0  0  0  0  0  0  0  0
    3.2286   -1.0559    0.2606 N   0  0  0  0  0  0  0  0  0  0  0  0
    4.4577   -1.7345    0.3609 C   0  0  0  0  0  0  0  0  0  0  0  0
    5.6643   -1.1602   -0.1002 C   0  0  0  0  0  0  0  0  0  0  0  0
    6.8820   -1.8361    0.0529 C   0  0  0  0  0  0  0  0  0  0  0  0
    6.8575   -3.0764    0.6560 C   0  0  0  0  0  0  0  0  0  0  0  0
    5.6826   -3.6436    1.0980 C   0  0  0  0  0  0  0  0  0  0  0  0
    4.4740   -2.9869    0.9969 C   0  0  0  0  0  0  0  0  0  0  0  0
    5.8734   -4.8859    1.6259 O   0  0  0  0  0  0  0  0  0  0  0  0
    7.3040   -5.0257    1.4756 C   0  0  0  0  0  0  0  0  0  0  0  0
    7.9377   -3.8766    0.8709 O   0  0  0  0  0  0  0  0  0  0  0  0
   -0.2331    1.8605   -0.8113 C   0  0  0  0  0  0  0  0  0  0  0  0
   -0.4624    1.7104    0.5297 O   0  0  0  0  0  0  0  0  0  0  0  0
   -1.4241    0.6814    0.8638 C   0  0  0  0  0  0  0  0  0  0  0  0
   -1.5558   -0.5329   -0.1126 C   0  0  0  0  0  0  0  0  0  0  0  0
   -2.2662   -1.6652    0.5474 N   0  0  0  0  0  0  0  0  0  0  0  0
   -3.3964   -2.2193   -0.2181 C   0  0  0  0  0  0  0  0  0  0  0  0
   -1.3090   -2.7892    1.4104 S   0  0  0  0  0  6  0  0  0  0  0  0
   -0.1615   -2.0994    1.9605 O   0  0  0  0  0  0  0  0  0  0  0  0
   -2.1921   -3.5738    2.2460 O   0  0  0  0  0  0  0  0  0  0  0  0
   -0.6406   -3.9868    0.2553 C   0  0  0  0  0  0  0  0  0  0  0  0
   -1.0144   -5.2845   -0.0397 C   0  0  0  0  0  0  0  0  0  0  0  0
   -0.1575   -5.8985   -1.0057 C   0  0  0  0  0  0  0  0  0  0  0  0
    0.8385   -5.0443   -1.4339 C   0  0  0  0  0  0  0  0  0  0  0  0
    0.7273   -3.5190   -0.6672 S   0  0  0  0  0  0  0  0  0  0  0  0
   -3.6348    2.6193    2.7497 H   0  0  0  0  0  0  0  0  0  0  0  0
   -2.4072    1.5035    3.3411 H   0  0  0  0  0  0  0  0  0  0  0  0
   -1.9103    2.9124    2.4067 H   0  0  0  0  0  0  0  0  0  0  0  0
   -3.4923    0.5033    1.4284 H   0  0  0  0  0  0  0  0  0  0  0  0
   -4.4911    2.1791    0.1993 H   0  0  0  0  0  0  0  0  0  0  0  0
   -3.3029    1.5719   -0.9032 H   0  0  0  0  0  0  0  0  0  0  0  0
   -4.4323    4.1524    1.0910 H   0  0  0  0  0  0  0  0  0  0  0  0
   -5.3589    5.8685   -0.4395 H   0  0  0  0  0  0  0  0  0  0  0  0
   -4.1025    5.5035   -1.6429 H   0  0  0  0  0  0  0  0  0  0  0  0
   -5.3008    4.2774   -1.2208 H   0  0  0  0  0  0  0  0  0  0  0  0
   -3.7636    6.5600    1.2402 H   0  0  0  0  0  0  0  0  0  0  0  0
   -2.2812    6.2255    0.3671 H   0  0  0  0  0  0  0  0  0  0  0  0
   -1.6997    5.9467    2.3833 H   0  0  0  0  0  0  0  0  0  0  0  0
   -1.3250    3.4801   -3.5936 H   0  0  0  0  0  0  0  0  0  0  0  0
    0.4184    2.0512   -4.6269 H   0  0  0  0  0  0  0  0  0  0  0  0
    1.8325    0.6193   -3.2300 H   0  0  0  0  0  0  0  0  0  0  0  0
    1.4679    0.5378    0.4840 H   0  0  0  0  0  0  0  0  0  0  0  0
    2.4363   -1.4977    0.7226 H   0  0  0  0  0  0  0  0  0  0  0  0
    5.6677   -0.1798   -0.5748 H   0  0  0  0  0  0  0  0  0  0  0  0
    7.8110   -1.3973   -0.2953 H   0  0  0  0  0  0  0  0  0  0  0  0
    3.5666   -3.4640    1.3639 H   0  0  0  0  0  0  0  0  0  0  0  0
    7.7343   -5.1787    2.4748 H   0  0  0  0  0  0  0  0  0  0  0  0
    7.5072   -5.9107    0.8611 H   0  0  0  0  0  0  0  0  0  0  0  0
   -1.0356    0.2701    1.8066 H   0  0  0  0  0  0  0  0  0  0  0  0
   -2.0737   -0.2446   -1.0330 H   0  0  0  0  0  0  0  0  0  0  0  0
   -0.5740   -0.8804   -0.4330 H   0  0  0  0  0  0  0  0  0  0  0  0
   -3.9925   -2.8930    0.4061 H   0  0  0  0  0  0  0  0  0  0  0  0
   -3.0333   -2.7562   -1.1047 H   0  0  0  0  0  0  0  0  0  0  0  0
   -4.0655   -1.4125   -0.5496 H   0  0  0  0  0  0  0  0  0  0  0  0
   -1.8573   -5.7706    0.4426 H   0  0  0  0  0  0  0  0  0  0  0  0
   -0.2575   -6.9144   -1.3654 H   0  0  0  0  0  0  0  0  0  0  0  0
    1.6296   -5.2497   -2.1505 H   0  0  0  0  0  0  0  0  0  0  0  0
  1  2  1  0
  2  3  1  0
  3  4  1  0
  4  5  1  0
  5  6  1  0
  5  7  1  0
  7  8  1  0
  4  9  1  0
  9 10  2  0
  9 11  1  0
 11 12  2  0
 12 13  1  0
 13 14  2  0
 14 15  1  0
 15 16  1  0
 16 17  1  0
 17 18  2  0
 17 19  1  0
 19 20  1  0
 20 21  2  0
 21 22  1  0
 22 23  2  0
 23 24  1  0
 24 25  2  0
 24 26  1  0
 26 27  1  0
 27 28  1  0
 15 29  2  0
 29 30  1  0
 30 31  1  0
 31 32  1  0
 32 33  1  0
 33 34  1  0
 33 35  1  0
 35 36  2  0
 35 37  2  0
 35 38  1  0
 38 39  2  0
 39 40  1  0
 40 41  2  0
 41 42  1  0
 31  2  1  0
 42 38  1  0
 29 11  1  0
 25 20  1  0
 28 23  1  0
  1 43  1  0
  1 44  1  0
  1 45  1  0
  2 46  1  0
  3 47  1  0
  3 48  1  0
  5 49  1  0
  6 50  1  0
  6 51  1  0
  6 52  1  0
  7 53  1  0
  7 54  1  0
  8 55  1  0
 12 56  1  0
 13 57  1  0
 14 58  1  0
 16 59  1  0
 19 60  1  0
 21 61  1  0
 22 62  1  0
 25 63  1  0
 27 64  1  0
 27 65  1  0
 31 66  1  0
 32 67  1  0
 32 68  1  0
 34 69  1  0
 34 70  1  0
 34 71  1  0
 39 72  1  0
 40 73  1  0
 41 74  1  0
M  END
$$$$
