
     RDKit          3D

 50 51  0  0  0  0  0  0  0  0999 V2000
   -5.5064   -2.8211   -1.6808 C   0  0  0  0  0  0  0  0  0  0  0  0
   -5.3227   -2.4122   -0.3327 O   0  0  0  0  0  0  0  0  0  0  0  0
   -4.1503   -1.7724   -0.0162 C   0  0  0  0  0  0  0  0  0  0  0  0
   -3.1491   -1.4550   -0.9394 C   0  0  0  0  0  0  0  0  0  0  0  0
   -1.9880   -0.7984   -0.5254 C   0  0  0  0  0  0  0  0  0  0  0  0
   -1.8263   -0.4421    0.8112 C   0  0  0  0  0  0  0  0  0  0  0  0
   -0.6373    0.2024    1.2993 N   0  0  0  0  0  0  0  0  0  0  0  0
    0.5579   -0.6717    1.4431 C   0  0  0  0  0  0  0  0  0  0  0  0
    1.4071   -0.8445    0.1892 C   0  0  0  0  0  0  0  0  0  0  0  0
    1.1916   -1.7778   -0.5807 O   0  0  0  0  0  0  0  0  0  0  0  0
    2.3914    0.1242    0.0470 N   0  0  0  0  0  0  0  0  0  0  0  0
    3.4066    0.1915   -0.9414 C   0  0  0  0  0  0  0  0  0  0  0  0
    3.6557   -0.8806   -1.8153 C   0  0  0  0  0  0  0  0  0  0  0  0
    4.6755   -0.8292   -2.7701 C   0  0  0  0  0  0  0  0  0  0  0  0
    5.4819    0.2946   -2.8589 C   0  0  0  0  0  0  0  0  0  0  0  0
    5.2486    1.3631   -1.9860 C   0  0  0  0  0  0  0  0  0  0  0  0
    6.1540    2.4935   -2.0986 N   0  0  0  0  0  4  0  0  0  0  0  0
    6.1141    3.1443   -3.1508 O   0  0  0  0  0  0  0  0  0  0  0  0
    6.9116    2.7065   -1.1421 O   0  0  0  0  0  1  0  0  0  0  0  0
    4.2096    1.3551   -1.0280 C   0  0  0  0  0  0  0  0  0  0  0  0
    3.9424    2.5475   -0.1440 C   0  0  0  0  0  0  0  0  0  0  0  0
   -0.3302    1.7808    0.7592 S   0  0  0  0  0  6  0  0  0  0  0  0
   -1.6538    2.7010    1.5182 C   0  0  0  0  0  0  0  0  0  0  0  0
   -0.4649    1.8470   -0.6780 O   0  0  0  0  0  0  0  0  0  0  0  0
    0.9136    2.1888    1.3889 O   0  0  0  0  0  0  0  0  0  0  0  0
   -2.8114   -0.7719    1.7458 C   0  0  0  0  0  0  0  0  0  0  0  0
   -3.9785   -1.4292    1.3409 C   0  0  0  0  0  0  0  0  0  0  0  0
   -5.0032   -1.7801    2.1850 O   0  0  0  0  0  0  0  0  0  0  0  0
   -4.8573   -1.4835    3.5659 C   0  0  0  0  0  0  0  0  0  0  0  0
   -5.5404   -1.9580   -2.3535 H   0  0  0  0  0  0  0  0  0  0  0  0
   -6.4722   -3.3314   -1.7460 H   0  0  0  0  0  0  0  0  0  0  0  0
   -4.7335   -3.5335   -1.9874 H   0  0  0  0  0  0  0  0  0  0  0  0
   -3.2357   -1.7079   -1.9911 H   0  0  0  0  0  0  0  0  0  0  0  0
   -1.2186   -0.5773   -1.2623 H   0  0  0  0  0  0  0  0  0  0  0  0
    1.1830   -0.2878    2.2590 H   0  0  0  0  0  0  0  0  0  0  0  0
    0.2508   -1.6719    1.7757 H   0  0  0  0  0  0  0  0  0  0  0  0
    2.3077    0.9282    0.6685 H   0  0  0  0  0  0  0  0  0  0  0  0
    3.0704   -1.7949   -1.7752 H   0  0  0  0  0  0  0  0  0  0  0  0
    4.8365   -1.6756   -3.4338 H   0  0  0  0  0  0  0  0  0  0  0  0
    6.2825    0.3326   -3.5942 H   0  0  0  0  0  0  0  0  0  0  0  0
    4.5536    3.4198   -0.3875 H   0  0  0  0  0  0  0  0  0  0  0  0
    2.9043    2.8728   -0.2638 H   0  0  0  0  0  0  0  0  0  0  0  0
    4.1333    2.2928    0.9032 H   0  0  0  0  0  0  0  0  0  0  0  0
   -1.6341    2.5265    2.5957 H   0  0  0  0  0  0  0  0  0  0  0  0
   -2.6055    2.3924    1.0834 H   0  0  0  0  0  0  0  0  0  0  0  0
   -1.4829    3.7602    1.3134 H   0  0  0  0  0  0  0  0  0  0  0  0
   -2.6453   -0.5062    2.7833 H   0  0  0  0  0  0  0  0  0  0  0  0
   -3.9931   -2.0030    3.9933 H   0  0  0  0  0  0  0  0  0  0  0  0
   -5.7513   -1.8454    4.0827 H   0  0  0  0  0  0  0  0  0  0  0  0
   -4.7916   -0.4033    3.7319 H   0  0  0  0  0  0  0  0  0  0  0  0
  1  2  1  0
  2  3  1  0
  3  4  2  0
  4  5  1  0
  5  6  2  0
  6  7  1  0
  7  8  1  0
  8  9  1  0
  9 10  2  0
  9 11  1  0
 11 12  1  0
 12 13  2  0
 13 14  1  0
 14 15  2  0
 15 16  1  0
 16 17  1  0
 17 18  2  0
 17 19  1  0
 16 20  2  0
 20 21  1  0
  7 22  1  0
 22 23  1  0
 22 24  2  0
 22 25  2  0
  6 26  1  0
 26 27  2  0
 27 28  1  0
 28 29  1  0
 27  3  1  0
 20 12  1  0
  1 30  1  0
  1 31  1  0
  1 32  1  0
  4 33  1  0
  5 34  1  0
  8 35  1  0
  8 36  1  0
 11 37  1  0
 13 38  1  0
 14 39  1  0
 15 40  1  0
 21 41  1  0
 21 42  1  0
 21 43  1  0
 23 44  1  0
 23 45  1  0
 23 46  1  0
 26 47  1  0
 29 48  1  0
 29 49  1  0
 29 50  1  0
M  CHG  2  17   1  19  -1
M  END
$$$$
