
     RDKit          3D

 50 53  0  0  0  0  0  0  0  0999 V2000
    7.9158    2.8250    0.3902 C   0  0  0  0  0  0  0  0  0  0  0  0
    7.5221    1.5683    0.9274 O   0  0  0  0  0  0  0  0  0  0  0  0
    6.2803    1.1121    0.5834 C   0  0  0  0  0  0  0  0  0  0  0  0
    5.3653    1.7613   -0.2412 C   0  0  0  0  0  0  0  0  0  0  0  0
    4.1175    1.1781   -0.5105 C   0  0  0  0  0  0  0  0  0  0  0  0
    3.7494   -0.0645    0.0370 C   0  0  0  0  0  0  0  0  0  0  0  0
    2.4363   -0.6875   -0.2335 C   0  0  0  0  0  0  0  0  0  0  0  0
    1.2861    0.0456   -0.4647 C   0  0  0  0  0  0  0  0  0  0  0  0
    0.0956   -0.6404   -0.7075 C   0  0  0  0  0  0  0  0  0  0  0  0
   -1.1114    0.1965   -0.8955 C   0  0  0  0  0  0  0  0  0  0  0  0
   -1.0937    1.0345   -1.7867 O   0  0  0  0  0  0  0  0  0  0  0  0
   -2.1100   -0.0445    0.0277 N   0  0  0  0  0  0  0  0  0  0  0  0
   -3.3786    0.5688    0.0960 C   0  0  0  0  0  0  0  0  0  0  0  0
   -3.8408    1.5005   -0.8277 C   0  0  0  0  0  0  0  0  0  0  0  0
   -5.1295    2.0279   -0.7089 C   0  0  0  0  0  0  0  0  0  0  0  0
   -5.9732    1.6467    0.3456 C   0  0  0  0  0  0  0  0  0  0  0  0
   -7.3655    2.2108    0.4067 C   0  0  0  0  0  0  0  0  0  0  0  0
   -5.4916    0.7591    1.3214 C   0  0  0  0  0  0  0  0  0  0  0  0
   -6.3262    0.2603    2.3354 N   0  0  0  0  0  0  0  0  0  0  0  0
   -4.2194    0.1909    1.1521 C   0  0  0  0  0  0  0  0  0  0  0  0
    0.0582   -2.0493   -0.7617 C   0  0  0  0  0  0  0  0  0  0  0  0
   -1.0870   -2.8263   -1.0763 C   0  0  0  0  0  0  0  0  0  0  0  0
   -1.0281   -4.2183   -1.0926 C   0  0  0  0  0  0  0  0  0  0  0  0
    0.1712   -4.8530   -0.8052 C   0  0  0  0  0  0  0  0  0  0  0  0
    1.3047   -4.0906   -0.5139 C   0  0  0  0  0  0  0  0  0  0  0  0
    1.2739   -2.7027   -0.4948 C   0  0  0  0  0  0  0  0  0  0  0  0
    2.4136   -2.0439   -0.2247 N   0  0  0  0  0  0  0  0  0  0  0  0
    4.6947   -0.7054    0.8561 C   0  0  0  0  0  0  0  0  0  0  0  0
    5.9388   -0.1245    1.1277 C   0  0  0  0  0  0  0  0  0  0  0  0
    8.9230    3.0445    0.7574 H   0  0  0  0  0  0  0  0  0  0  0  0
    7.2542    3.6263    0.7354 H   0  0  0  0  0  0  0  0  0  0  0  0
    7.9603    2.7912   -0.7034 H   0  0  0  0  0  0  0  0  0  0  0  0
    5.5866    2.7203   -0.6984 H   0  0  0  0  0  0  0  0  0  0  0  0
    3.4423    1.7101   -1.1780 H   0  0  0  0  0  0  0  0  0  0  0  0
    1.2893    1.1307   -0.4394 H   0  0  0  0  0  0  0  0  0  0  0  0
   -1.9092   -0.7243    0.7519 H   0  0  0  0  0  0  0  0  0  0  0  0
   -3.2339    1.8251   -1.6670 H   0  0  0  0  0  0  0  0  0  0  0  0
   -5.4743    2.7327   -1.4626 H   0  0  0  0  0  0  0  0  0  0  0  0
   -7.4882    2.8192    1.3084 H   0  0  0  0  0  0  0  0  0  0  0  0
   -8.1043    1.4031    0.4063 H   0  0  0  0  0  0  0  0  0  0  0  0
   -7.5803    2.8508   -0.4559 H   0  0  0  0  0  0  0  0  0  0  0  0
   -5.8251   -0.0966    3.1425 H   0  0  0  0  0  0  0  0  0  0  0  0
   -7.0691    0.8964    2.6057 H   0  0  0  0  0  0  0  0  0  0  0  0
   -3.8850   -0.5573    1.8657 H   0  0  0  0  0  0  0  0  0  0  0  0
   -2.0330   -2.3518   -1.3320 H   0  0  0  0  0  0  0  0  0  0  0  0
   -1.9124   -4.8013   -1.3385 H   0  0  0  0  0  0  0  0  0  0  0  0
    0.2355   -5.9379   -0.8183 H   0  0  0  0  0  0  0  0  0  0  0  0
    2.2455   -4.5960   -0.3047 H   0  0  0  0  0  0  0  0  0  0  0  0
    4.4640   -1.6746    1.2959 H   0  0  0  0  0  0  0  0  0  0  0  0
    6.6453   -0.6465    1.7680 H   0  0  0  0  0  0  0  0  0  0  0  0
  1  2  1  0
  2  3  1  0
  3  4  2  0
  4  5  1  0
  5  6  2  0
  6  7  1  0
  7  8  2  0
  8  9  1  0
  9 10  1  0
 10 11  2  0
 10 12  1  0
 12 13  1  0
 13 14  2  0
 14 15  1  0
 15 16  2  0
 16 17  1  0
 16 18  1  0
 18 19  1  0
 18 20  2  0
  9 21  2  0
 21 22  1  0
 22 23  2  0
 23 24  1  0
 24 25  2  0
 25 26  1  0
 26 27  2  0
  6 28  1  0
 28 29  2  0
 29  3  1  0
 27  7  1  0
 20 13  1  0
 26 21  1  0
  1 30  1  0
  1 31  1  0
  1 32  1  0
  4 33  1  0
  5 34  1  0
  8 35  1  0
 12 36  1  0
 14 37  1  0
 15 38  1  0
 17 39  1  0
 17 40  1  0
 17 41  1  0
 19 42  1  0
 19 43  1  0
 20 44  1  0
 22 45  1  0
 23 46  1  0
 24 47  1  0
 25 48  1  0
 28 49  1  0
 29 50  1  0
M  END
$$$$
