
     RDKit          3D

 46 49  0  0  0  0  0  0  0  0999 V2000
   -6.5133    2.4052   -0.8659 C   0  0  0  0  0  0  0  0  0  0  0  0
   -6.2604    1.2852   -0.0270 O   0  0  0  0  0  0  0  0  0  0  0  0
   -4.9556    0.9059    0.1232 C   0  0  0  0  0  0  0  0  0  0  0  0
   -4.7653   -0.2253    0.9192 C   0  0  0  0  0  0  0  0  0  0  0  0
   -3.4823   -0.7272    1.1555 C   0  0  0  0  0  0  0  0  0  0  0  0
   -2.3688   -0.0897    0.5976 C   0  0  0  0  0  0  0  0  0  0  0  0
   -1.0625   -0.6053    0.8361 N   0  0  0  0  0  0  0  0  0  0  0  0
    0.1065    0.0905    1.1269 C   0  0  0  0  0  0  0  0  0  0  0  0
    0.1989    1.8057    1.4163 S   0  0  0  0  0  0  0  0  0  0  0  0
    1.8730    1.9772    2.0965 C   0  0  0  0  0  0  0  0  0  0  0  0
    2.9299    2.1036    1.0098 C   0  0  0  0  0  0  0  0  0  0  0  0
    3.6855    3.0738    0.9847 O   0  0  0  0  0  0  0  0  0  0  0  0
    3.0224    1.0119    0.1765 N   0  0  0  0  0  0  0  0  0  0  0  0
    3.9331    0.8462   -0.8706 C   0  0  0  0  0  0  0  0  0  0  0  0
    4.3887   -0.4298   -0.9585 N   0  0  0  0  0  0  0  0  0  0  0  0
    5.3161   -0.7002   -1.9086 C   0  0  0  0  0  0  0  0  0  0  0  0
    5.7944    0.2392   -2.8047 C   0  0  0  0  0  0  0  0  0  0  0  0
    6.9687   -0.1834   -3.9820 Cl  0  0  0  0  0  0  0  0  0  0  0  0
    5.2770    1.5258   -2.7500 C   0  0  0  0  0  0  0  0  0  0  0  0
    4.3170    1.8403   -1.7829 C   0  0  0  0  0  0  0  0  0  0  0  0
    3.5462    3.3796   -1.9347 Cl  0  0  0  0  0  0  0  0  0  0  0  0
    1.1458   -0.7009    1.2784 N   0  0  0  0  0  0  0  0  0  0  0  0
    0.6621   -1.9656    1.0966 C   0  0  0  0  0  0  0  0  0  0  0  0
    1.3597   -3.1828    1.1432 C   0  0  0  0  0  0  0  0  0  0  0  0
    0.6668   -4.3714    0.8932 C   0  0  0  0  0  0  0  0  0  0  0  0
   -0.6924   -4.3478    0.5888 C   0  0  0  0  0  0  0  0  0  0  0  0
   -1.4026   -3.1425    0.5361 C   0  0  0  0  0  0  0  0  0  0  0  0
   -0.7046   -1.9549    0.8213 C   0  0  0  0  0  0  0  0  0  0  0  0
   -2.5556    1.0454   -0.2000 C   0  0  0  0  0  0  0  0  0  0  0  0
   -3.8455    1.5397   -0.4347 C   0  0  0  0  0  0  0  0  0  0  0  0
   -7.5960    2.5600   -0.9001 H   0  0  0  0  0  0  0  0  0  0  0  0
   -6.1721    2.2173   -1.8897 H   0  0  0  0  0  0  0  0  0  0  0  0
   -6.0584    3.3147   -0.4590 H   0  0  0  0  0  0  0  0  0  0  0  0
   -5.6264   -0.7164    1.3672 H   0  0  0  0  0  0  0  0  0  0  0  0
   -3.3786   -1.5867    1.8132 H   0  0  0  0  0  0  0  0  0  0  0  0
    2.1313    1.1596    2.7771 H   0  0  0  0  0  0  0  0  0  0  0  0
    1.8869    2.9020    2.6834 H   0  0  0  0  0  0  0  0  0  0  0  0
    2.6739    0.1302    0.5530 H   0  0  0  0  0  0  0  0  0  0  0  0
    5.6703   -1.7273   -1.9239 H   0  0  0  0  0  0  0  0  0  0  0  0
    5.5962    2.2748   -3.4698 H   0  0  0  0  0  0  0  0  0  0  0  0
    2.4225   -3.1929    1.3597 H   0  0  0  0  0  0  0  0  0  0  0  0
    1.1988   -5.3196    0.9235 H   0  0  0  0  0  0  0  0  0  0  0  0
   -1.2104   -5.2819    0.3776 H   0  0  0  0  0  0  0  0  0  0  0  0
   -2.4524   -3.1441    0.2628 H   0  0  0  0  0  0  0  0  0  0  0  0
   -1.7217    1.5436   -0.6902 H   0  0  0  0  0  0  0  0  0  0  0  0
   -3.9466    2.4178   -1.0650 H   0  0  0  0  0  0  0  0  0  0  0  0
  1  2  1  0
  2  3  1  0
  3  4  2  0
  4  5  1  0
  5  6  2  0
  6  7  1  0
  7  8  1  0
  8  9  1  0
  9 10  1  0
 10 11  1  0
 11 12  2  0
 11 13  1  0
 13 14  1  0
 14 15  2  0
 15 16  1  0
 16 17  2  0
 17 18  1  0
 17 19  1  0
 19 20  2  0
 20 21  1  0
  8 22  2  0
 22 23  1  0
 23 24  2  0
 24 25  1  0
 25 26  2  0
 26 27  1  0
 27 28  2  0
  6 29  1  0
 29 30  2  0
 30  3  1  0
 28  7  1  0
 20 14  1  0
 28 23  1  0
  1 31  1  0
  1 32  1  0
  1 33  1  0
  4 34  1  0
  5 35  1  0
 10 36  1  0
 10 37  1  0
 13 38  1  0
 16 39  1  0
 19 40  1  0
 24 41  1  0
 25 42  1  0
 26 43  1  0
 27 44  1  0
 29 45  1  0
 30 46  1  0
M  END
$$$$
