
     RDKit          3D

 53 56  0  0  0  0  0  0  0  0999 V2000
    4.2972    3.0124    1.1434 C   0  0  0  0  0  0  0  0  0  0  0  0
    5.2576    2.7719    0.1203 O   0  0  0  0  0  0  0  0  0  0  0  0
    5.1353    1.6017   -0.5779 C   0  0  0  0  0  0  0  0  0  0  0  0
    6.0372    1.4518   -1.6313 C   0  0  0  0  0  0  0  0  0  0  0  0
    6.0123    0.3070   -2.4258 C   0  0  0  0  0  0  0  0  0  0  0  0
    5.0789   -0.6994   -2.1762 C   0  0  0  0  0  0  0  0  0  0  0  0
    4.1668   -0.5620   -1.1311 C   0  0  0  0  0  0  0  0  0  0  0  0
    3.1886   -1.5209   -0.8151 N   0  0  0  0  0  0  0  0  0  0  0  0
    2.8163   -2.6350   -1.5459 C   0  0  0  0  0  0  0  0  0  0  0  0
    3.2764   -2.9745   -2.6342 O   0  0  0  0  0  0  0  0  0  0  0  0
    1.7497   -3.4802   -0.8574 C   0  0  0  0  0  0  0  0  0  0  0  0
    0.0866   -2.7851   -1.0973 S   0  0  0  0  0  0  0  0  0  0  0  0
    0.0053   -1.6266    0.1902 C   0  0  0  0  0  0  0  0  0  0  0  0
    1.0427   -1.2668    0.9136 N   0  0  0  0  0  0  0  0  0  0  0  0
    0.6101   -0.4116    1.8771 N   0  0  0  0  0  0  0  0  0  0  0  0
   -0.6972   -0.2647    1.7468 C   0  0  0  0  0  0  0  0  0  0  0  0
   -1.5104    0.7214    2.5301 C   0  0  0  0  0  0  0  0  0  0  0  0
   -1.9661    1.9001    1.7117 C   0  0  0  0  0  0  0  0  0  0  0  0
   -3.2447    2.2126    1.2894 C   0  0  0  0  0  0  0  0  0  0  0  0
   -3.2906    3.4223    0.5323 C   0  0  0  0  0  0  0  0  0  0  0  0
   -2.0474    4.0000    0.4090 C   0  0  0  0  0  0  0  0  0  0  0  0
   -0.8353    3.0906    1.2036 S   0  0  0  0  0  0  0  0  0  0  0  0
   -1.1517   -1.0424    0.6838 N   0  0  0  0  0  0  0  0  0  0  0  0
   -2.4862   -1.1899    0.2288 C   0  0  0  0  0  0  0  0  0  0  0  0
   -2.7822   -1.0600   -1.1340 C   0  0  0  0  0  0  0  0  0  0  0  0
   -4.1064   -1.1457   -1.5678 C   0  0  0  0  0  0  0  0  0  0  0  0
   -5.1428   -1.3686   -0.6520 C   0  0  0  0  0  0  0  0  0  0  0  0
   -6.5593   -1.4793   -1.1284 C   0  0  0  0  0  0  0  0  0  0  0  0
   -4.8337   -1.5368    0.7041 C   0  0  0  0  0  0  0  0  0  0  0  0
   -3.5134   -1.4436    1.1470 C   0  0  0  0  0  0  0  0  0  0  0  0
    4.2102    0.5888   -0.3267 C   0  0  0  0  0  0  0  0  0  0  0  0
    4.3954    2.2821    1.9537 H   0  0  0  0  0  0  0  0  0  0  0  0
    4.4968    4.0042    1.5631 H   0  0  0  0  0  0  0  0  0  0  0  0
    3.2788    3.0237    0.7354 H   0  0  0  0  0  0  0  0  0  0  0  0
    6.7561    2.2382   -1.8385 H   0  0  0  0  0  0  0  0  0  0  0  0
    6.7202    0.1973   -3.2439 H   0  0  0  0  0  0  0  0  0  0  0  0
    5.0943   -1.5810   -2.8079 H   0  0  0  0  0  0  0  0  0  0  0  0
    2.6079   -1.3041   -0.0023 H   0  0  0  0  0  0  0  0  0  0  0  0
    1.7711   -4.4788   -1.3077 H   0  0  0  0  0  0  0  0  0  0  0  0
    1.9866   -3.6117    0.2045 H   0  0  0  0  0  0  0  0  0  0  0  0
   -2.3686    0.2340    3.0039 H   0  0  0  0  0  0  0  0  0  0  0  0
   -0.9020    1.0906    3.3663 H   0  0  0  0  0  0  0  0  0  0  0  0
   -4.1161    1.6091    1.5088 H   0  0  0  0  0  0  0  0  0  0  0  0
   -4.1907    3.8457    0.1052 H   0  0  0  0  0  0  0  0  0  0  0  0
   -1.7869    4.9221   -0.1073 H   0  0  0  0  0  0  0  0  0  0  0  0
   -2.0112   -0.8415   -1.8712 H   0  0  0  0  0  0  0  0  0  0  0  0
   -4.3255   -1.0281   -2.6289 H   0  0  0  0  0  0  0  0  0  0  0  0
   -7.2624   -1.2399   -0.3245 H   0  0  0  0  0  0  0  0  0  0  0  0
   -6.7608   -2.4946   -1.4773 H   0  0  0  0  0  0  0  0  0  0  0  0
   -6.7525   -0.7772   -1.9446 H   0  0  0  0  0  0  0  0  0  0  0  0
   -5.6239   -1.7469    1.4250 H   0  0  0  0  0  0  0  0  0  0  0  0
   -3.3089   -1.6126    2.2026 H   0  0  0  0  0  0  0  0  0  0  0  0
    3.4985    0.6817    0.4869 H   0  0  0  0  0  0  0  0  0  0  0  0
  1  2  1  0
  2  3  1  0
  3  4  2  0
  4  5  1  0
  5  6  2  0
  6  7  1  0
  7  8  1  0
  8  9  1  0
  9 10  2  0
  9 11  1  0
 11 12  1  0
 12 13  1  0
 13 14  2  0
 14 15  1  0
 15 16  2  0
 16 17  1  0
 17 18  1  0
 18 19  2  0
 19 20  1  0
 20 21  2  0
 21 22  1  0
 16 23  1  0
 23 24  1  0
 24 25  2  0
 25 26  1  0
 26 27  2  0
 27 28  1  0
 27 29  1  0
 29 30  2  0
  7 31  2  0
 31  3  1  0
 23 13  1  0
 30 24  1  0
 22 18  1  0
  1 32  1  0
  1 33  1  0
  1 34  1  0
  4 35  1  0
  5 36  1  0
  6 37  1  0
  8 38  1  0
 11 39  1  0
 11 40  1  0
 17 41  1  0
 17 42  1  0
 19 43  1  0
 20 44  1  0
 21 45  1  0
 25 46  1  0
 26 47  1  0
 28 48  1  0
 28 49  1  0
 28 50  1  0
 29 51  1  0
 30 52  1  0
 31 53  1  0
M  END
$$$$
