
     RDKit          3D

 33 33  0  0  0  0  0  0  0  0999 V2000
   -4.8587    1.0494    0.3574 C   0  0  0  0  0  0  0  0  0  0  0  0
   -3.5740    0.3974   -0.1618 C   0  0  0  0  0  0  0  0  0  0  0  0
   -3.9082   -0.9489   -0.8065 C   0  0  0  0  0  0  0  0  0  0  0  0
   -2.6406    0.2532    0.9651 N   0  0  0  0  0  0  0  0  0  0  0  0
   -1.2820   -0.0952    0.5366 C   0  0  0  0  0  0  0  0  0  0  0  0
   -0.3550   -0.1231    1.7558 C   0  0  0  0  0  0  0  0  0  0  0  0
    1.0610   -0.5570    1.3817 C   0  0  0  0  0  0  0  0  0  0  0  0
    1.6077    0.3958    0.4721 O   0  0  0  0  0  0  0  0  0  0  0  0
    2.8528    0.1558   -0.0431 C   0  0  0  0  0  0  0  0  0  0  0  0
    3.6835   -0.8982    0.3517 C   0  0  0  0  0  0  0  0  0  0  0  0
    4.9458   -1.0608   -0.2298 C   0  0  0  0  0  0  0  0  0  0  0  0
    5.3839   -0.1699   -1.2064 C   0  0  0  0  0  0  0  0  0  0  0  0
    6.9373   -0.3777   -1.9156 Cl  0  0  0  0  0  0  0  0  0  0  0  0
    4.5742    0.8861   -1.6104 C   0  0  0  0  0  0  0  0  0  0  0  0
    3.3137    1.0465   -1.0282 C   0  0  0  0  0  0  0  0  0  0  0  0
    2.2467    2.5051   -1.6211 Br  0  0  0  0  0  0  0  0  0  0  0  0
   -5.3408    0.4337    1.1253 H   0  0  0  0  0  0  0  0  0  0  0  0
   -4.6535    2.0343    0.7917 H   0  0  0  0  0  0  0  0  0  0  0  0
   -5.5764    1.1931   -0.4578 H   0  0  0  0  0  0  0  0  0  0  0  0
   -3.1454    1.0655   -0.9192 H   0  0  0  0  0  0  0  0  0  0  0  0
   -4.2904   -1.6623   -0.0677 H   0  0  0  0  0  0  0  0  0  0  0  0
   -4.6749   -0.8265   -1.5796 H   0  0  0  0  0  0  0  0  0  0  0  0
   -3.0332   -1.3949   -1.2894 H   0  0  0  0  0  0  0  0  0  0  0  0
   -2.6021    1.1359    1.4765 H   0  0  0  0  0  0  0  0  0  0  0  0
   -1.2714   -1.0826    0.0636 H   0  0  0  0  0  0  0  0  0  0  0  0
   -0.9168    0.6385   -0.1913 H   0  0  0  0  0  0  0  0  0  0  0  0
   -0.3185    0.8782    2.2033 H   0  0  0  0  0  0  0  0  0  0  0  0
   -0.7495   -0.8123    2.5123 H   0  0  0  0  0  0  0  0  0  0  0  0
    1.0296   -1.5522    0.9218 H   0  0  0  0  0  0  0  0  0  0  0  0
    1.6687   -0.5898    2.2936 H   0  0  0  0  0  0  0  0  0  0  0  0
    3.3831   -1.6107    1.1134 H   0  0  0  0  0  0  0  0  0  0  0  0
    5.5813   -1.8845    0.0867 H   0  0  0  0  0  0  0  0  0  0  0  0
    4.9222    1.5781   -2.3723 H   0  0  0  0  0  0  0  0  0  0  0  0
  1  2  1  0
  2  3  1  0
  2  4  1  0
  4  5  1  0
  5  6  1  0
  6  7  1  0
  7  8  1  0
  8  9  1  0
  9 10  2  0
 10 11  1  0
 11 12  2  0
 12 13  1  0
 12 14  1  0
 14 15  2  0
 15 16  1  0
 15  9  1  0
  1 17  1  0
  1 18  1  0
  1 19  1  0
  2 20  1  0
  3 21  1  0
  3 22  1  0
  3 23  1  0
  4 24  1  0
  5 25  1  0
  5 26  1  0
  6 27  1  0
  6 28  1  0
  7 29  1  0
  7 30  1  0
 10 31  1  0
 11 32  1  0
 14 33  1  0
M  END
$$$$
