
     RDKit          3D

 32 34  0  0  0  0  0  0  0  0999 V2000
   -1.8995    0.3224    1.2588 O   0  0  0  0  0  0  0  0  0  0  0  0
   -3.0042   -0.1904    1.2159 C   0  0  0  0  0  0  0  0  0  0  0  0
   -3.6137   -0.7167    2.3233 N   0  0  0  0  0  0  0  0  0  0  0  0
   -4.9060   -1.1221    2.2239 C   0  0  0  0  0  0  0  0  0  0  0  0
   -5.7872   -1.7094    3.4955 S   0  0  0  0  0  0  0  0  0  0  0  0
   -5.4597   -0.9162    0.5827 S   0  0  0  0  0  0  0  0  0  0  0  0
   -3.9214   -0.2937    0.0382 C   0  0  0  0  0  0  0  0  0  0  0  0
   -3.7269    0.0160   -1.2513 C   0  0  0  0  0  0  0  0  0  0  0  0
   -2.5042    0.4645   -1.8165 C   0  0  0  0  0  0  0  0  0  0  0  0
   -2.3158    1.2010   -2.9800 C   0  0  0  0  0  0  0  0  0  0  0  0
   -0.9232    1.3854   -3.1564 C   0  0  0  0  0  0  0  0  0  0  0  0
   -0.3103    0.7491   -2.1019 C   0  0  0  0  0  0  0  0  0  0  0  0
    1.3925    0.6345   -1.7579 S   0  0  0  0  0  0  0  0  0  0  0  0
    1.3330    0.0953   -0.0209 C   0  0  0  0  0  0  0  0  0  0  0  0
    2.7197   -0.0746    0.5508 C   0  0  0  0  0  0  0  0  0  0  0  0
    3.3567    0.9909    1.2037 C   0  0  0  0  0  0  0  0  0  0  0  0
    4.6431    0.8362    1.7230 C   0  0  0  0  0  0  0  0  0  0  0  0
    5.3076   -0.3817    1.5909 C   0  0  0  0  0  0  0  0  0  0  0  0
    4.6884   -1.4453    0.9371 C   0  0  0  0  0  0  0  0  0  0  0  0
    3.4020   -1.2930    0.4171 C   0  0  0  0  0  0  0  0  0  0  0  0
   -1.2608    0.1746   -1.3167 O   0  0  0  0  0  0  0  0  0  0  0  0
   -3.1304   -0.7043    3.2087 H   0  0  0  0  0  0  0  0  0  0  0  0
   -4.5561   -0.0884   -1.9475 H   0  0  0  0  0  0  0  0  0  0  0  0
   -3.1013    1.5705   -3.6253 H   0  0  0  0  0  0  0  0  0  0  0  0
   -0.4249    1.9212   -3.9520 H   0  0  0  0  0  0  0  0  0  0  0  0
    0.7895   -0.8537    0.0560 H   0  0  0  0  0  0  0  0  0  0  0  0
    0.7798    0.8329    0.5715 H   0  0  0  0  0  0  0  0  0  0  0  0
    2.8526    1.9494    1.3078 H   0  0  0  0  0  0  0  0  0  0  0  0
    5.1278    1.6679    2.2273 H   0  0  0  0  0  0  0  0  0  0  0  0
    6.3100   -0.5003    1.9933 H   0  0  0  0  0  0  0  0  0  0  0  0
    5.2088   -2.3931    0.8279 H   0  0  0  0  0  0  0  0  0  0  0  0
    2.9341   -2.1290   -0.0982 H   0  0  0  0  0  0  0  0  0  0  0  0
  1  2  2  0
  2  3  1  0
  3  4  1  0
  4  5  2  0
  4  6  1  0
  6  7  1  0
  7  8  2  3
  8  9  1  0
  9 10  2  0
 10 11  1  0
 11 12  2  0
 12 13  1  0
 13 14  1  0
 14 15  1  0
 15 16  2  0
 16 17  1  0
 17 18  2  0
 18 19  1  0
 19 20  2  0
 12 21  1  0
  7  2  1  0
 21  9  1  0
 20 15  1  0
  3 22  1  0
  8 23  1  0
 10 24  1  0
 11 25  1  0
 14 26  1  0
 14 27  1  0
 16 28  1  0
 17 29  1  0
 18 30  1  0
 19 31  1  0
 20 32  1  0
M  END
$$$$
