
     RDKit          3D

 59 64  0  0  0  0  0  0  0  0999 V2000
   -5.2984   -1.6221   -2.1688 C   0  0  0  0  0  0  0  0  0  0  0  0
   -4.6022   -0.6427   -1.4148 O   0  0  0  0  0  0  0  0  0  0  0  0
   -5.2513   -0.0540   -0.3566 C   0  0  0  0  0  0  0  0  0  0  0  0
   -6.6013   -0.3201   -0.0579 C   0  0  0  0  0  0  0  0  0  0  0  0
   -7.2283    0.2683    1.0398 C   0  0  0  0  0  0  0  0  0  0  0  0
   -6.5177    1.1379    1.8501 C   0  0  0  0  0  0  0  0  0  0  0  0
   -5.1806    1.4124    1.5581 C   0  0  0  0  0  0  0  0  0  0  0  0
   -4.5043    0.8299    0.4618 C   0  0  0  0  0  0  0  0  0  0  0  0
   -3.1723    1.2022    0.2654 N   0  0  0  0  0  0  0  0  0  0  0  0
   -2.5277    1.1964   -1.0625 C   0  0  0  0  0  0  0  0  0  0  0  0
   -1.5885   -0.0124   -1.2818 C   0  0  0  0  0  0  0  0  0  0  0  0
   -0.6571   -0.2573   -0.1488 N   0  0  0  0  0  0  0  0  0  0  0  0
    0.5712    0.3449   -0.1755 C   0  0  0  0  0  0  0  0  0  0  0  0
    0.8831    1.6905   -0.2132 C   0  0  0  0  0  0  0  0  0  0  0  0
    2.2853    1.8200   -0.1632 C   0  0  0  0  0  0  0  0  0  0  0  0
    2.8222    0.5473   -0.1372 C   0  0  0  0  0  0  0  0  0  0  0  0
    4.1912    0.0794   -0.0789 C   0  0  0  0  0  0  0  0  0  0  0  0
    5.3289    1.0346   -0.1201 C   0  0  0  0  0  0  0  0  0  0  0  0
    6.3558    0.9026    0.8244 C   0  0  0  0  0  0  0  0  0  0  0  0
    7.4478    1.7707    0.7910 C   0  0  0  0  0  0  0  0  0  0  0  0
    7.5215    2.7608   -0.1915 C   0  0  0  0  0  0  0  0  0  0  0  0
    6.5093    2.8804   -1.1471 C   0  0  0  0  0  0  0  0  0  0  0  0
    5.4154    2.0137   -1.1183 C   0  0  0  0  0  0  0  0  0  0  0  0
    4.4587   -1.1880    0.0234 N   0  0  0  0  0  0  0  0  0  0  0  0
    3.4015   -2.1176    0.0204 C   0  0  0  0  0  0  0  0  0  0  0  0
    3.7384   -3.4730    0.0919 C   0  0  0  0  0  0  0  0  0  0  0  0
    2.7517   -4.4582    0.0696 C   0  0  0  0  0  0  0  0  0  0  0  0
    1.4127   -4.0922   -0.0286 C   0  0  0  0  0  0  0  0  0  0  0  0
    1.0557   -2.7432   -0.1001 C   0  0  0  0  0  0  0  0  0  0  0  0
    2.0457   -1.7562   -0.0699 C   0  0  0  0  0  0  0  0  0  0  0  0
    1.7740   -0.3640   -0.1293 N   0  0  0  0  0  0  0  0  0  0  0  0
   -1.3658   -0.2816    1.1566 C   0  0  0  0  0  0  0  0  0  0  0  0
   -2.2292    0.9775    1.3858 C   0  0  0  0  0  0  0  0  0  0  0  0
   -4.6086   -2.0095   -2.9241 H   0  0  0  0  0  0  0  0  0  0  0  0
   -5.6083   -2.4616   -1.5366 H   0  0  0  0  0  0  0  0  0  0  0  0
   -6.1497   -1.1814   -2.6925 H   0  0  0  0  0  0  0  0  0  0  0  0
   -7.1998   -0.9887   -0.6669 H   0  0  0  0  0  0  0  0  0  0  0  0
   -8.2718    0.0511    1.2536 H   0  0  0  0  0  0  0  0  0  0  0  0
   -6.9987    1.6140    2.6998 H   0  0  0  0  0  0  0  0  0  0  0  0
   -4.6591    2.1320    2.1863 H   0  0  0  0  0  0  0  0  0  0  0  0
   -1.9309    2.1139   -1.1290 H   0  0  0  0  0  0  0  0  0  0  0  0
   -3.2533    1.2838   -1.8789 H   0  0  0  0  0  0  0  0  0  0  0  0
   -2.1761   -0.9271   -1.4099 H   0  0  0  0  0  0  0  0  0  0  0  0
   -1.0278    0.1209   -2.2157 H   0  0  0  0  0  0  0  0  0  0  0  0
    0.1715    2.5039   -0.2367 H   0  0  0  0  0  0  0  0  0  0  0  0
    2.8353    2.7519   -0.1422 H   0  0  0  0  0  0  0  0  0  0  0  0
    6.3056    0.1232    1.5833 H   0  0  0  0  0  0  0  0  0  0  0  0
    8.2443    1.6688    1.5257 H   0  0  0  0  0  0  0  0  0  0  0  0
    8.3758    3.4327   -0.2202 H   0  0  0  0  0  0  0  0  0  0  0  0
    6.5789    3.6412   -1.9220 H   0  0  0  0  0  0  0  0  0  0  0  0
    4.6498    2.0951   -1.8867 H   0  0  0  0  0  0  0  0  0  0  0  0
    4.7848   -3.7575    0.1584 H   0  0  0  0  0  0  0  0  0  0  0  0
    3.0303   -5.5070    0.1227 H   0  0  0  0  0  0  0  0  0  0  0  0
    0.6404   -4.8569   -0.0537 H   0  0  0  0  0  0  0  0  0  0  0  0
    0.0042   -2.5025   -0.1891 H   0  0  0  0  0  0  0  0  0  0  0  0
   -0.6504   -0.3977    1.9807 H   0  0  0  0  0  0  0  0  0  0  0  0
   -2.0115   -1.1691    1.1736 H   0  0  0  0  0  0  0  0  0  0  0  0
   -1.5837    1.8607    1.4668 H   0  0  0  0  0  0  0  0  0  0  0  0
   -2.7366    0.8787    2.3524 H   0  0  0  0  0  0  0  0  0  0  0  0
  1  2  1  0
  2  3  1  0
  3  4  2  0
  4  5  1  0
  5  6  2  0
  6  7  1  0
  7  8  2  0
  8  9  1  0
  9 10  1  0
 10 11  1  0
 11 12  1  0
 12 13  1  0
 13 14  2  0
 14 15  1  0
 15 16  2  0
 16 17  1  0
 17 18  1  0
 18 19  2  0
 19 20  1  0
 20 21  2  0
 21 22  1  0
 22 23  2  0
 17 24  2  0
 24 25  1  0
 25 26  2  0
 26 27  1  0
 27 28  2  0
 28 29  1  0
 29 30  2  0
 30 31  1  0
 12 32  1  0
 32 33  1  0
  8  3  1  0
 33  9  1  0
 31 13  1  0
 31 16  1  0
 23 18  1  0
 30 25  1  0
  1 34  1  0
  1 35  1  0
  1 36  1  0
  4 37  1  0
  5 38  1  0
  6 39  1  0
  7 40  1  0
 10 41  1  0
 10 42  1  0
 11 43  1  0
 11 44  1  0
 14 45  1  0
 15 46  1  0
 19 47  1  0
 20 48  1  0
 21 49  1  0
 22 50  1  0
 23 51  1  0
 26 52  1  0
 27 53  1  0
 28 54  1  0
 29 55  1  0
 32 56  1  0
 32 57  1  0
 33 58  1  0
 33 59  1  0
M  END
$$$$
