
     RDKit          3D

 61 66  0  0  0  0  0  0  0  0999 V2000
    8.1067   -2.2421    0.9834 C   0  0  0  0  0  0  0  0  0  0  0  0
    8.3248   -0.8810    1.1902 C   0  0  0  0  0  0  0  0  0  0  0  0
    7.4036    0.0536    0.7210 C   0  0  0  0  0  0  0  0  0  0  0  0
    6.2556   -0.3629    0.0348 C   0  0  0  0  0  0  0  0  0  0  0  0
    5.2600    0.6529   -0.4730 C   0  0  0  0  0  0  0  0  0  0  0  0
    3.9677    0.7333    0.3624 C   0  0  0  0  0  0  0  0  0  0  0  0
    3.0109   -0.3675    0.1379 N   0  0  0  0  0  0  0  0  0  0  0  0
    1.9114   -0.3465    1.1314 C   0  0  0  0  0  0  0  0  0  0  0  0
    0.6379    0.4110    0.6881 C   0  0  0  0  0  0  0  0  0  0  0  0
    0.0897   -0.1210   -0.5930 N   0  0  0  0  0  0  0  0  0  0  0  0
   -1.2270   -0.5064   -0.5738 C   0  0  0  0  0  0  0  0  0  0  0  0
   -1.7645   -1.7792   -0.6370 C   0  0  0  0  0  0  0  0  0  0  0  0
   -3.1476   -1.6869   -0.3726 C   0  0  0  0  0  0  0  0  0  0  0  0
   -3.4446   -0.3515   -0.1823 C   0  0  0  0  0  0  0  0  0  0  0  0
   -4.6762    0.3284    0.1464 C   0  0  0  0  0  0  0  0  0  0  0  0
   -5.8796   -0.4440    0.5419 C   0  0  0  0  0  0  0  0  0  0  0  0
   -7.0950   -0.1695   -0.0923 C   0  0  0  0  0  0  0  0  0  0  0  0
   -8.2432   -0.8749    0.2670 C   0  0  0  0  0  0  0  0  0  0  0  0
   -8.1808   -1.8428    1.2694 C   0  0  0  0  0  0  0  0  0  0  0  0
   -6.9719   -2.1037    1.9166 C   0  0  0  0  0  0  0  0  0  0  0  0
   -5.8196   -1.4032    1.5568 C   0  0  0  0  0  0  0  0  0  0  0  0
   -4.7572    1.6252    0.0964 N   0  0  0  0  0  0  0  0  0  0  0  0
   -3.6250    2.3683   -0.2914 C   0  0  0  0  0  0  0  0  0  0  0  0
   -3.7666    3.7537   -0.4038 C   0  0  0  0  0  0  0  0  0  0  0  0
   -2.7012    4.5484   -0.8271 C   0  0  0  0  0  0  0  0  0  0  0  0
   -1.4832    3.9588   -1.1549 C   0  0  0  0  0  0  0  0  0  0  0  0
   -1.3206    2.5771   -1.0435 C   0  0  0  0  0  0  0  0  0  0  0  0
   -2.3791    1.7880   -0.5866 C   0  0  0  0  0  0  0  0  0  0  0  0
   -2.3002    0.3800   -0.4535 N   0  0  0  0  0  0  0  0  0  0  0  0
    1.0480   -0.9505   -1.3586 C   0  0  0  0  0  0  0  0  0  0  0  0
    2.4716   -0.3611   -1.2451 C   0  0  0  0  0  0  0  0  0  0  0  0
    6.0485   -1.7340   -0.1682 C   0  0  0  0  0  0  0  0  0  0  0  0
    6.9688   -2.6684    0.3043 C   0  0  0  0  0  0  0  0  0  0  0  0
    8.8224   -2.9686    1.3535 H   0  0  0  0  0  0  0  0  0  0  0  0
    9.2124   -0.5487    1.7205 H   0  0  0  0  0  0  0  0  0  0  0  0
    7.5897    1.1105    0.8961 H   0  0  0  0  0  0  0  0  0  0  0  0
    5.0488    0.4547   -1.5298 H   0  0  0  0  0  0  0  0  0  0  0  0
    5.7312    1.6452   -0.4585 H   0  0  0  0  0  0  0  0  0  0  0  0
    4.2549    0.7547    1.4219 H   0  0  0  0  0  0  0  0  0  0  0  0
    3.4769    1.6927    0.1526 H   0  0  0  0  0  0  0  0  0  0  0  0
    1.6386   -1.3915    1.3250 H   0  0  0  0  0  0  0  0  0  0  0  0
    2.2563    0.0428    2.0960 H   0  0  0  0  0  0  0  0  0  0  0  0
   -0.1074    0.3518    1.4946 H   0  0  0  0  0  0  0  0  0  0  0  0
    0.8808    1.4733    0.5533 H   0  0  0  0  0  0  0  0  0  0  0  0
   -1.2082   -2.6961   -0.7790 H   0  0  0  0  0  0  0  0  0  0  0  0
   -3.8407   -2.5170   -0.3097 H   0  0  0  0  0  0  0  0  0  0  0  0
   -7.1478    0.5909   -0.8673 H   0  0  0  0  0  0  0  0  0  0  0  0
   -9.1833   -0.6617   -0.2331 H   0  0  0  0  0  0  0  0  0  0  0  0
   -9.0783   -2.3862    1.5559 H   0  0  0  0  0  0  0  0  0  0  0  0
   -6.9294   -2.8451    2.7091 H   0  0  0  0  0  0  0  0  0  0  0  0
   -4.8902   -1.5964    2.0819 H   0  0  0  0  0  0  0  0  0  0  0  0
   -4.7233    4.2107   -0.1672 H   0  0  0  0  0  0  0  0  0  0  0  0
   -2.8304    5.6229   -0.9177 H   0  0  0  0  0  0  0  0  0  0  0  0
   -0.6607    4.5725   -1.5105 H   0  0  0  0  0  0  0  0  0  0  0  0
   -0.3763    2.1439   -1.3482 H   0  0  0  0  0  0  0  0  0  0  0  0
    0.7499   -0.9638   -2.4133 H   0  0  0  0  0  0  0  0  0  0  0  0
    1.0534   -1.9877   -0.9987 H   0  0  0  0  0  0  0  0  0  0  0  0
    3.1447   -0.9389   -1.8886 H   0  0  0  0  0  0  0  0  0  0  0  0
    2.4388    0.6632   -1.6406 H   0  0  0  0  0  0  0  0  0  0  0  0
    5.1583   -2.0802   -0.6870 H   0  0  0  0  0  0  0  0  0  0  0  0
    6.7969   -3.7292    0.1462 H   0  0  0  0  0  0  0  0  0  0  0  0
  1  2  2  0
  2  3  1  0
  3  4  2  0
  4  5  1  0
  5  6  1  0
  6  7  1  0
  7  8  1  0
  8  9  1  0
  9 10  1  0
 10 11  1  0
 11 12  2  0
 12 13  1  0
 13 14  2  0
 14 15  1  0
 15 16  1  0
 16 17  2  0
 17 18  1  0
 18 19  2  0
 19 20  1  0
 20 21  2  0
 15 22  2  0
 22 23  1  0
 23 24  2  0
 24 25  1  0
 25 26  2  0
 26 27  1  0
 27 28  2  0
 28 29  1  0
 10 30  1  0
 30 31  1  0
  4 32  1  0
 32 33  2  0
 33  1  1  0
 31  7  1  0
 29 11  1  0
 29 14  1  0
 21 16  1  0
 28 23  1  0
  1 34  1  0
  2 35  1  0
  3 36  1  0
  5 37  1  0
  5 38  1  0
  6 39  1  0
  6 40  1  0
  8 41  1  0
  8 42  1  0
  9 43  1  0
  9 44  1  0
 12 45  1  0
 13 46  1  0
 17 47  1  0
 18 48  1  0
 19 49  1  0
 20 50  1  0
 21 51  1  0
 24 52  1  0
 25 53  1  0
 26 54  1  0
 27 55  1  0
 30 56  1  0
 30 57  1  0
 31 58  1  0
 31 59  1  0
 32 60  1  0
 33 61  1  0
M  END
$$$$
