
     RDKit          3D

 51 55  0  0  0  0  0  0  0  0999 V2000
    4.3407   -2.5899    0.3957 F   0  0  0  0  0  0  0  0  0  0  0  0
    5.4150   -1.7901    0.4678 C   0  0  0  0  0  0  0  0  0  0  0  0
    6.5496   -2.2469    1.1312 C   0  0  0  0  0  0  0  0  0  0  0  0
    7.6715   -1.4253    1.2224 C   0  0  0  0  0  0  0  0  0  0  0  0
    7.6485   -0.1526    0.6504 C   0  0  0  0  0  0  0  0  0  0  0  0
    6.5058    0.3004   -0.0144 C   0  0  0  0  0  0  0  0  0  0  0  0
    5.3745   -0.5198   -0.1150 C   0  0  0  0  0  0  0  0  0  0  0  0
    4.1285   -0.0417   -0.8178 C   0  0  0  0  0  0  0  0  0  0  0  0
    3.0464    0.3994    0.1830 C   0  0  0  0  0  0  0  0  0  0  0  0
    1.8402    0.9184   -0.4835 N   0  0  0  0  0  0  0  0  0  0  0  0
    1.0034   -0.1469   -1.0805 C   0  0  0  0  0  0  0  0  0  0  0  0
   -0.1937   -0.6185   -0.2226 C   0  0  0  0  0  0  0  0  0  0  0  0
   -1.0740    0.4952    0.1598 N   0  0  0  0  0  0  0  0  0  0  0  0
   -2.4606    0.3898    0.1022 C   0  0  0  0  0  0  0  0  0  0  0  0
   -3.1395    1.4394   -0.2944 N   0  0  0  0  0  0  0  0  0  0  0  0
   -4.5404    1.3930   -0.4166 C   0  0  0  0  0  0  0  0  0  0  0  0
   -5.2052    2.5373   -0.8622 C   0  0  0  0  0  0  0  0  0  0  0  0
   -6.5944    2.5427   -1.0135 C   0  0  0  0  0  0  0  0  0  0  0  0
   -7.3345    1.3971   -0.7194 C   0  0  0  0  0  0  0  0  0  0  0  0
   -6.6908    0.2426   -0.2724 C   0  0  0  0  0  0  0  0  0  0  0  0
   -5.3001    0.2528   -0.1267 C   0  0  0  0  0  0  0  0  0  0  0  0
   -4.5736   -0.8583    0.3306 N   0  0  0  0  0  0  0  0  0  0  0  0
   -5.0294   -2.0959    0.7192 C   0  0  0  0  0  0  0  0  0  0  0  0
   -3.9536   -2.8299    1.1664 C   0  0  0  0  0  0  0  0  0  0  0  0
   -2.8062   -2.0147    1.0288 C   0  0  0  0  0  0  0  0  0  0  0  0
   -3.2019   -0.8111    0.4697 C   0  0  0  0  0  0  0  0  0  0  0  0
   -0.4499    1.8289    0.0966 C   0  0  0  0  0  0  0  0  0  0  0  0
    1.0455    1.7411    0.4594 C   0  0  0  0  0  0  0  0  0  0  0  0
    6.5508   -3.2383    1.5724 H   0  0  0  0  0  0  0  0  0  0  0  0
    8.5621   -1.7746    1.7385 H   0  0  0  0  0  0  0  0  0  0  0  0
    8.5233    0.4897    0.7221 H   0  0  0  0  0  0  0  0  0  0  0  0
    6.5048    1.2963   -0.4527 H   0  0  0  0  0  0  0  0  0  0  0  0
    3.7707   -0.8466   -1.4702 H   0  0  0  0  0  0  0  0  0  0  0  0
    4.3792    0.7946   -1.4834 H   0  0  0  0  0  0  0  0  0  0  0  0
    2.7867   -0.4183    0.8680 H   0  0  0  0  0  0  0  0  0  0  0  0
    3.4835    1.1952    0.8024 H   0  0  0  0  0  0  0  0  0  0  0  0
    0.6056    0.2550   -2.0220 H   0  0  0  0  0  0  0  0  0  0  0  0
    1.5984   -1.0205   -1.3674 H   0  0  0  0  0  0  0  0  0  0  0  0
    0.1781   -1.1067    0.6855 H   0  0  0  0  0  0  0  0  0  0  0  0
   -0.7432   -1.3642   -0.8082 H   0  0  0  0  0  0  0  0  0  0  0  0
   -4.6304    3.4298   -1.0944 H   0  0  0  0  0  0  0  0  0  0  0  0
   -7.0962    3.4418   -1.3617 H   0  0  0  0  0  0  0  0  0  0  0  0
   -8.4153    1.4056   -0.8380 H   0  0  0  0  0  0  0  0  0  0  0  0
   -7.2878   -0.6346   -0.0474 H   0  0  0  0  0  0  0  0  0  0  0  0
   -6.0758   -2.3592    0.6707 H   0  0  0  0  0  0  0  0  0  0  0  0
   -3.9942   -3.8373    1.5604 H   0  0  0  0  0  0  0  0  0  0  0  0
   -1.7996   -2.2855    1.3140 H   0  0  0  0  0  0  0  0  0  0  0  0
   -0.9398    2.4999    0.8125 H   0  0  0  0  0  0  0  0  0  0  0  0
   -0.5720    2.2575   -0.9060 H   0  0  0  0  0  0  0  0  0  0  0  0
    1.1187    1.3330    1.4772 H   0  0  0  0  0  0  0  0  0  0  0  0
    1.4707    2.7511    0.4826 H   0  0  0  0  0  0  0  0  0  0  0  0
  1  2  1  0
  2  3  2  0
  3  4  1  0
  4  5  2  0
  5  6  1  0
  6  7  2  0
  7  8  1  0
  8  9  1  0
  9 10  1  0
 10 11  1  0
 11 12  1  0
 12 13  1  0
 13 14  1  0
 14 15  2  0
 15 16  1  0
 16 17  2  0
 17 18  1  0
 18 19  2  0
 19 20  1  0
 20 21  2  0
 21 22  1  0
 22 23  1  0
 23 24  2  0
 24 25  1  0
 25 26  2  0
 13 27  1  0
 27 28  1  0
  7  2  1  0
 28 10  1  0
 26 14  1  0
 21 16  1  0
 26 22  1  0
  3 29  1  0
  4 30  1  0
  5 31  1  0
  6 32  1  0
  8 33  1  0
  8 34  1  0
  9 35  1  0
  9 36  1  0
 11 37  1  0
 11 38  1  0
 12 39  1  0
 12 40  1  0
 17 41  1  0
 18 42  1  0
 19 43  1  0
 20 44  1  0
 23 45  1  0
 24 46  1  0
 25 47  1  0
 27 48  1  0
 27 49  1  0
 28 50  1  0
 28 51  1  0
M  END
$$$$
