
     RDKit          3D

 33 35  0  0  0  0  0  0  0  0999 V2000
    5.0147   -1.0003   -0.4395 C   0  0  0  0  0  0  0  0  0  0  0  0
    4.1548   -0.5578   -1.6096 C   0  0  0  0  0  0  0  0  0  0  0  0
    2.7525   -0.5261   -1.2580 N   0  0  0  0  0  0  0  0  0  0  0  0
    2.1663    0.5414   -0.6316 C   0  0  0  0  0  0  0  0  0  0  0  0
    2.7806    1.5774   -0.3716 O   0  0  0  0  0  0  0  0  0  0  0  0
    0.7198    0.3958   -0.2668 C   0  0  0  0  0  0  0  0  0  0  0  0
    0.0995    1.4522    0.3226 C   0  0  0  0  0  0  0  0  0  0  0  0
    0.6989    2.6643    0.6195 O   0  0  0  0  0  0  0  0  0  0  0  0
   -1.3176    1.3774    0.7024 C   0  0  0  0  0  0  0  0  0  0  0  0
   -2.0794    2.3756    1.3092 C   0  0  0  0  0  0  0  0  0  0  0  0
   -3.4404    2.1495    1.6141 C   0  0  0  0  0  0  0  0  0  0  0  0
   -4.0616    0.9251    1.3186 C   0  0  0  0  0  0  0  0  0  0  0  0
   -3.3032   -0.0596    0.7183 C   0  0  0  0  0  0  0  0  0  0  0  0
   -1.9720    0.1959    0.4329 C   0  0  0  0  0  0  0  0  0  0  0  0
   -1.3610   -0.8899   -0.1633 N   0  0  0  0  0  0  0  0  0  0  0  0
   -0.0444   -0.8830   -0.5364 C   0  0  0  0  0  0  0  0  0  0  0  0
    0.4963   -1.8571   -1.0600 O   0  0  0  0  0  0  0  0  0  0  0  0
   -2.3317   -1.9760   -0.2982 C   0  0  0  0  0  0  0  0  0  0  0  0
   -3.6668   -1.4467    0.2850 C   0  0  0  0  0  0  0  0  0  0  0  0
    4.7167   -1.9944   -0.0900 H   0  0  0  0  0  0  0  0  0  0  0  0
    4.9209   -0.3090    0.4043 H   0  0  0  0  0  0  0  0  0  0  0  0
    6.0678   -1.0407   -0.7337 H   0  0  0  0  0  0  0  0  0  0  0  0
    4.2651   -1.2560   -2.4451 H   0  0  0  0  0  0  0  0  0  0  0  0
    4.4647    0.4364   -1.9484 H   0  0  0  0  0  0  0  0  0  0  0  0
    2.1990   -1.3731   -1.3967 H   0  0  0  0  0  0  0  0  0  0  0  0
    1.6422    2.6187    0.3406 H   0  0  0  0  0  0  0  0  0  0  0  0
   -1.6290    3.3357    1.5515 H   0  0  0  0  0  0  0  0  0  0  0  0
   -4.0159    2.9428    2.0877 H   0  0  0  0  0  0  0  0  0  0  0  0
   -5.1080    0.7656    1.5586 H   0  0  0  0  0  0  0  0  0  0  0  0
   -2.4239   -2.2444   -1.3562 H   0  0  0  0  0  0  0  0  0  0  0  0
   -1.9651   -2.8523    0.2477 H   0  0  0  0  0  0  0  0  0  0  0  0
   -4.4482   -1.4309   -0.4808 H   0  0  0  0  0  0  0  0  0  0  0  0
   -3.9915   -2.0564    1.1335 H   0  0  0  0  0  0  0  0  0  0  0  0
  1  2  1  0
  2  3  1  0
  3  4  1  0
  4  5  2  0
  4  6  1  0
  6  7  2  0
  7  8  1  0
  7  9  1  0
  9 10  2  0
 10 11  1  0
 11 12  2  0
 12 13  1  0
 13 14  2  0
 14 15  1  0
 15 16  1  0
 16 17  2  0
 15 18  1  0
 18 19  1  0
 16  6  1  0
 14  9  1  0
 19 13  1  0
  1 20  1  0
  1 21  1  0
  1 22  1  0
  2 23  1  0
  2 24  1  0
  3 25  1  0
  8 26  1  0
 10 27  1  0
 11 28  1  0
 12 29  1  0
 18 30  1  0
 18 31  1  0
 19 32  1  0
 19 33  1  0
M  END
$$$$
