
     RDKit          3D

 55 58  0  0  0  0  0  0  0  0999 V2000
    8.3638    1.6064   -1.7431 C   0  0  0  0  0  0  0  0  0  0  0  0
    7.7640    0.8267   -0.7187 O   0  0  0  0  0  0  0  0  0  0  0  0
    6.3927    0.7955   -0.6599 C   0  0  0  0  0  0  0  0  0  0  0  0
    5.5486    1.3850   -1.6077 C   0  0  0  0  0  0  0  0  0  0  0  0
    4.1600    1.2991   -1.4710 C   0  0  0  0  0  0  0  0  0  0  0  0
    3.6057    0.6138   -0.3869 C   0  0  0  0  0  0  0  0  0  0  0  0
    2.1311    0.4992   -0.2025 C   0  0  0  0  0  0  0  0  0  0  0  0
    1.3077    0.3191   -1.4418 C   0  0  0  0  0  0  0  0  0  0  0  0
   -0.0242    0.2148   -1.2658 C   0  0  0  0  0  0  0  0  0  0  0  0
   -0.9906    0.0139   -2.3694 C   0  0  0  0  0  0  0  0  0  0  0  0
   -1.6639   -1.1579   -2.2671 F   0  0  0  0  0  0  0  0  0  0  0  0
   -1.9023    1.0132   -2.4622 F   0  0  0  0  0  0  0  0  0  0  0  0
   -0.3589   -0.0246   -3.5777 F   0  0  0  0  0  0  0  0  0  0  0  0
   -0.5548    0.2790    0.0170 N   0  0  0  0  0  0  0  0  0  0  0  0
   -1.8523    0.2033    0.3924 N   0  0  0  0  0  0  0  0  0  0  0  0
   -1.8557    0.3035    1.7324 C   0  0  0  0  0  0  0  0  0  0  0  0
   -3.0816    0.3241    2.5603 C   0  0  0  0  0  0  0  0  0  0  0  0
   -3.0459    0.8541    3.6732 O   0  0  0  0  0  0  0  0  0  0  0  0
   -4.2687   -0.2405    2.0682 N   0  0  0  0  0  0  0  0  0  0  0  0
   -5.4717   -0.0503    2.8635 C   0  0  0  0  0  0  0  0  0  0  0  0
   -4.2987   -1.3520    1.1141 C   0  0  0  0  0  0  0  0  0  0  0  0
   -5.2210   -1.1165   -0.0604 C   0  0  0  0  0  0  0  0  0  0  0  0
   -5.0871    0.0242   -0.8653 C   0  0  0  0  0  0  0  0  0  0  0  0
   -5.9237    0.2218   -1.9652 C   0  0  0  0  0  0  0  0  0  0  0  0
   -6.9012   -0.7205   -2.2772 C   0  0  0  0  0  0  0  0  0  0  0  0
   -7.0403   -1.8623   -1.4915 C   0  0  0  0  0  0  0  0  0  0  0  0
   -6.2028   -2.0625   -0.3919 C   0  0  0  0  0  0  0  0  0  0  0  0
   -0.5368    0.4681    2.2215 C   0  0  0  0  0  0  0  0  0  0  0  0
    0.2837    0.4341    1.1215 C   0  0  0  0  0  0  0  0  0  0  0  0
    1.6391    0.5343    1.0036 N   0  0  0  0  0  0  0  0  0  0  0  0
    4.4450    0.0354    0.5749 C   0  0  0  0  0  0  0  0  0  0  0  0
    5.8355    0.1155    0.4426 C   0  0  0  0  0  0  0  0  0  0  0  0
    6.7310   -0.4367    1.3259 O   0  0  0  0  0  0  0  0  0  0  0  0
    6.2088   -1.0555    2.4944 C   0  0  0  0  0  0  0  0  0  0  0  0
    8.1365    1.1968   -2.7332 H   0  0  0  0  0  0  0  0  0  0  0  0
    9.4491    1.5616   -1.6060 H   0  0  0  0  0  0  0  0  0  0  0  0
    8.0618    2.6572   -1.6693 H   0  0  0  0  0  0  0  0  0  0  0  0
    5.9416    1.9231   -2.4638 H   0  0  0  0  0  0  0  0  0  0  0  0
    3.5345    1.7952   -2.2077 H   0  0  0  0  0  0  0  0  0  0  0  0
    1.7791    0.2441   -2.4135 H   0  0  0  0  0  0  0  0  0  0  0  0
   -5.5625   -0.8820    3.5693 H   0  0  0  0  0  0  0  0  0  0  0  0
   -6.3506   -0.0207    2.2142 H   0  0  0  0  0  0  0  0  0  0  0  0
   -5.4314    0.8876    3.4256 H   0  0  0  0  0  0  0  0  0  0  0  0
   -3.3085   -1.6295    0.7491 H   0  0  0  0  0  0  0  0  0  0  0  0
   -4.6375   -2.2286    1.6831 H   0  0  0  0  0  0  0  0  0  0  0  0
   -4.3251    0.7678   -0.6389 H   0  0  0  0  0  0  0  0  0  0  0  0
   -5.8071    1.1116   -2.5786 H   0  0  0  0  0  0  0  0  0  0  0  0
   -7.5499   -0.5681   -3.1350 H   0  0  0  0  0  0  0  0  0  0  0  0
   -7.7977   -2.6018   -1.7387 H   0  0  0  0  0  0  0  0  0  0  0  0
   -6.3221   -2.9657    0.2022 H   0  0  0  0  0  0  0  0  0  0  0  0
   -0.2299    0.6017    3.2498 H   0  0  0  0  0  0  0  0  0  0  0  0
    3.9884   -0.4790    1.4150 H   0  0  0  0  0  0  0  0  0  0  0  0
    7.0550   -1.4108    3.0919 H   0  0  0  0  0  0  0  0  0  0  0  0
    5.6471   -0.3388    3.1042 H   0  0  0  0  0  0  0  0  0  0  0  0
    5.5949   -1.9265    2.2390 H   0  0  0  0  0  0  0  0  0  0  0  0
  1  2  1  0
  2  3  1  0
  3  4  2  0
  4  5  1  0
  5  6  2  0
  6  7  1  0
  7  8  1  0
  8  9  2  0
  9 10  1  0
 10 11  1  0
 10 12  1  0
 10 13  1  0
  9 14  1  0
 14 15  1  0
 15 16  2  0
 16 17  1  0
 17 18  2  0
 17 19  1  0
 19 20  1  0
 19 21  1  0
 21 22  1  0
 22 23  2  0
 23 24  1  0
 24 25  2  0
 25 26  1  0
 26 27  2  0
 16 28  1  0
 28 29  2  0
 29 30  1  0
  6 31  1  0
 31 32  2  0
 32 33  1  0
 33 34  1  0
 32  3  1  0
 30  7  2  0
 29 14  1  0
 27 22  1  0
  1 35  1  0
  1 36  1  0
  1 37  1  0
  4 38  1  0
  5 39  1  0
  8 40  1  0
 20 41  1  0
 20 42  1  0
 20 43  1  0
 21 44  1  0
 21 45  1  0
 23 46  1  0
 24 47  1  0
 25 48  1  0
 26 49  1  0
 27 50  1  0
 28 51  1  0
 31 52  1  0
 34 53  1  0
 34 54  1  0
 34 55  1  0
M  END
$$$$
