
     RDKit          3D

 41 43  0  0  0  0  0  0  0  0999 V2000
    1.1598    1.8003   -2.8477 O   0  0  0  0  0  0  0  0  0  0  0  0
    0.7547    1.7864   -1.6876 C   0  0  0  0  0  0  0  0  0  0  0  0
    0.9596    2.9837   -0.7707 C   0  0  0  0  0  0  0  0  0  0  0  0
    2.7027    3.1362   -0.2421 S   0  0  0  0  0  0  0  0  0  0  0  0
    3.0693    1.4982    0.4077 C   0  0  0  0  0  0  0  0  0  0  0  0
    4.3366    0.9635    0.1125 C   0  0  0  0  0  0  0  0  0  0  0  0
    4.7096   -0.2916    0.5892 C   0  0  0  0  0  0  0  0  0  0  0  0
    3.8289   -1.0241    1.3713 C   0  0  0  0  0  0  0  0  0  0  0  0
    2.5813   -0.4871    1.6727 C   0  0  0  0  0  0  0  0  0  0  0  0
    2.1860    0.7640    1.2117 N   0  0  0  0  0  4  0  0  0  0  0  0
    1.0177    1.1864    1.5195 O   0  0  0  0  0  1  0  0  0  0  0  0
    0.1118    0.7338   -1.0628 N   0  0  0  0  0  0  0  0  0  0  0  0
   -0.2113   -0.5339   -1.5949 C   0  0  0  0  0  0  0  0  0  0  0  0
    0.0274   -0.8993   -2.9212 C   0  0  0  0  0  0  0  0  0  0  0  0
   -0.2733   -2.1917   -3.3698 C   0  0  0  0  0  0  0  0  0  0  0  0
   -0.8111   -3.1366   -2.4977 C   0  0  0  0  0  0  0  0  0  0  0  0
   -1.0657   -2.7873   -1.1751 C   0  0  0  0  0  0  0  0  0  0  0  0
   -0.7926   -1.4872   -0.7387 C   0  0  0  0  0  0  0  0  0  0  0  0
   -1.0512   -1.1934    0.5820 O   0  0  0  0  0  0  0  0  0  0  0  0
   -2.2080   -0.4929    0.8618 C   0  0  0  0  0  0  0  0  0  0  0  0
   -2.2113    0.1958    2.0774 C   0  0  0  0  0  0  0  0  0  0  0  0
   -3.3305    0.9318    2.4682 C   0  0  0  0  0  0  0  0  0  0  0  0
   -4.4556    0.9749    1.6470 C   0  0  0  0  0  0  0  0  0  0  0  0
   -4.4609    0.2824    0.4366 C   0  0  0  0  0  0  0  0  0  0  0  0
   -3.3401   -0.4535    0.0431 C   0  0  0  0  0  0  0  0  0  0  0  0
    0.2828    2.9720    0.0870 H   0  0  0  0  0  0  0  0  0  0  0  0
    0.7012    3.8816   -1.3432 H   0  0  0  0  0  0  0  0  0  0  0  0
    5.0370    1.5261   -0.5026 H   0  0  0  0  0  0  0  0  0  0  0  0
    5.6899   -0.6959    0.3440 H   0  0  0  0  0  0  0  0  0  0  0  0
    4.1051   -2.0066    1.7443 H   0  0  0  0  0  0  0  0  0  0  0  0
    1.8270   -0.9806    2.2675 H   0  0  0  0  0  0  0  0  0  0  0  0
   -0.0446    0.8359   -0.0527 H   0  0  0  0  0  0  0  0  0  0  0  0
    0.4550   -0.2035   -3.6362 H   0  0  0  0  0  0  0  0  0  0  0  0
   -0.0763   -2.4582   -4.4058 H   0  0  0  0  0  0  0  0  0  0  0  0
   -1.0321   -4.1406   -2.8504 H   0  0  0  0  0  0  0  0  0  0  0  0
   -1.4869   -3.5150   -0.4874 H   0  0  0  0  0  0  0  0  0  0  0  0
   -1.3300    0.1754    2.7145 H   0  0  0  0  0  0  0  0  0  0  0  0
   -3.3203    1.4737    3.4101 H   0  0  0  0  0  0  0  0  0  0  0  0
   -5.3278    1.5487    1.9494 H   0  0  0  0  0  0  0  0  0  0  0  0
   -5.3388    0.3148   -0.2036 H   0  0  0  0  0  0  0  0  0  0  0  0
   -3.3751   -0.9867   -0.9019 H   0  0  0  0  0  0  0  0  0  0  0  0
  1  2  2  0
  2  3  1  0
  3  4  1  0
  4  5  1  0
  5  6  2  0
  6  7  1  0
  7  8  2  0
  8  9  1  0
  9 10  2  0
 10 11  1  0
  2 12  1  0
 12 13  1  0
 13 14  2  0
 14 15  1  0
 15 16  2  0
 16 17  1  0
 17 18  2  0
 18 19  1  0
 19 20  1  0
 20 21  2  0
 21 22  1  0
 22 23  2  0
 23 24  1  0
 24 25  2  0
 10  5  1  0
 18 13  1  0
 25 20  1  0
  3 26  1  0
  3 27  1  0
  6 28  1  0
  7 29  1  0
  8 30  1  0
  9 31  1  0
 12 32  1  0
 14 33  1  0
 15 34  1  0
 16 35  1  0
 17 36  1  0
 21 37  1  0
 22 38  1  0
 23 39  1  0
 24 40  1  0
 25 41  1  0
M  CHG  2  10   1  11  -1
M  END
$$$$
