
     RDKit          3D

 38 39  0  0  0  0  0  0  0  0999 V2000
    1.9073   -1.5176   -0.3320 C   0  0  0  0  0  0  0  0  0  0  0  0
    1.0613   -0.6214   -1.2105 C   0  0  0  0  0  0  0  0  0  0  0  0
    1.7018    0.0461   -2.3767 C   0  0  0  0  0  0  0  0  0  0  0  0
    2.8170    0.7911   -2.3402 C   0  0  0  0  0  0  0  0  0  0  0  0
    3.6009    1.1460   -1.1529 C   0  0  0  0  0  0  0  0  0  0  0  0
    3.0061    1.7601   -0.0436 C   0  0  0  0  0  0  0  0  0  0  0  0
    3.7762    2.1077    1.0681 C   0  0  0  0  0  0  0  0  0  0  0  0
    5.1469    1.8558    1.0739 C   0  0  0  0  0  0  0  0  0  0  0  0
    5.7498    1.2605   -0.0330 C   0  0  0  0  0  0  0  0  0  0  0  0
    4.9806    0.9116   -1.1454 C   0  0  0  0  0  0  0  0  0  0  0  0
   -0.2132   -0.4156   -1.0342 N   0  0  0  0  0  0  0  0  0  0  0  0
   -0.8017   -1.0370    0.0282 N   0  0  0  0  0  0  0  0  0  0  0  0
   -2.1733   -0.8186    0.2559 C   0  0  0  0  0  0  0  0  0  0  0  0
   -2.8220   -1.8212    0.8769 N   0  0  0  0  0  0  0  0  0  0  0  0
   -4.1371   -1.6543    1.1233 C   0  0  0  0  0  0  0  0  0  0  0  0
   -4.8551   -2.7744    1.8135 C   0  0  0  0  0  0  0  0  0  0  0  0
   -4.8179   -0.5099    0.7647 C   0  0  0  0  0  0  0  0  0  0  0  0
   -4.0800    0.4698    0.1353 C   0  0  0  0  0  0  0  0  0  0  0  0
   -4.7275    1.7515   -0.2921 C   0  0  0  0  0  0  0  0  0  0  0  0
   -2.7662    0.3282   -0.1196 N   0  0  0  0  0  0  0  0  0  0  0  0
    2.9260   -1.6141   -0.7152 H   0  0  0  0  0  0  0  0  0  0  0  0
    1.4723   -2.5211   -0.3049 H   0  0  0  0  0  0  0  0  0  0  0  0
    1.9428   -1.1127    0.6831 H   0  0  0  0  0  0  0  0  0  0  0  0
    1.1562   -0.0686   -3.3085 H   0  0  0  0  0  0  0  0  0  0  0  0
    3.1833    1.2226   -3.2696 H   0  0  0  0  0  0  0  0  0  0  0  0
    1.9384    1.9739   -0.0356 H   0  0  0  0  0  0  0  0  0  0  0  0
    3.3039    2.5780    1.9267 H   0  0  0  0  0  0  0  0  0  0  0  0
    5.7454    2.1280    1.9394 H   0  0  0  0  0  0  0  0  0  0  0  0
    6.8197    1.0694   -0.0313 H   0  0  0  0  0  0  0  0  0  0  0  0
    5.4661    0.4491   -2.0015 H   0  0  0  0  0  0  0  0  0  0  0  0
   -0.6503   -2.0311    0.1710 H   0  0  0  0  0  0  0  0  0  0  0  0
   -5.2807   -2.4253    2.7594 H   0  0  0  0  0  0  0  0  0  0  0  0
   -5.6587   -3.1576    1.1770 H   0  0  0  0  0  0  0  0  0  0  0  0
   -4.1707   -3.6003    2.0324 H   0  0  0  0  0  0  0  0  0  0  0  0
   -5.8740   -0.3863    0.9664 H   0  0  0  0  0  0  0  0  0  0  0  0
   -5.1292    2.2805    0.5777 H   0  0  0  0  0  0  0  0  0  0  0  0
   -5.5400    1.5488   -0.9967 H   0  0  0  0  0  0  0  0  0  0  0  0
   -4.0046    2.4084   -0.7865 H   0  0  0  0  0  0  0  0  0  0  0  0
  1  2  1  0
  2  3  1  0
  3  4  2  3
  4  5  1  0
  5  6  2  0
  6  7  1  0
  7  8  2  0
  8  9  1  0
  9 10  2  0
  2 11  2  3
 11 12  1  0
 12 13  1  0
 13 14  2  0
 14 15  1  0
 15 16  1  0
 15 17  2  0
 17 18  1  0
 18 19  1  0
 18 20  2  0
 10  5  1  0
 20 13  1  0
  1 21  1  0
  1 22  1  0
  1 23  1  0
  3 24  1  0
  4 25  1  0
  6 26  1  0
  7 27  1  0
  8 28  1  0
  9 29  1  0
 10 30  1  0
 12 31  1  0
 16 32  1  0
 16 33  1  0
 16 34  1  0
 17 35  1  0
 19 36  1  0
 19 37  1  0
 19 38  1  0
M  END
$$$$
