
     RDKit          3D

 74 75  0  0  0  0  0  0  0  0999 V2000
    0.6127    4.2002    6.1340 C   0  0  0  0  0  0  0  0  0  0  0  0
    0.4142    4.2896    4.7220 O   0  0  0  0  0  0  0  0  0  0  0  0
    0.8044    3.1391    4.0815 C   0  0  0  0  0  0  0  0  0  0  0  0
    2.1553    2.7709    4.1409 C   0  0  0  0  0  0  0  0  0  0  0  0
    2.6106    1.6561    3.4499 C   0  0  0  0  0  0  0  0  0  0  0  0
    1.7166    0.9081    2.6912 C   0  0  0  0  0  0  0  0  0  0  0  0
    0.3492    1.2614    2.5960 C   0  0  0  0  0  0  0  0  0  0  0  0
   -0.5348    0.3356    1.7444 C   0  0  0  0  0  0  0  0  0  0  0  0
   -2.0517    0.1917    2.0800 C   0  0  0  0  0  0  0  0  0  0  0  0
   -2.5113    0.2913    3.2162 O   0  0  0  0  0  0  0  0  0  0  0  0
   -2.8242   -0.2131    1.0000 N   0  0  0  0  0  0  0  0  0  0  0  0
   -4.2329   -0.6235    1.0782 C   0  0  0  0  0  0  0  0  0  0  0  0
   -5.1167    0.5041    1.6351 C   0  0  0  0  0  0  0  0  0  0  0  0
   -4.3829   -1.8907    1.9347 C   0  0  0  0  0  0  0  0  0  0  0  0
   -4.7072   -0.9408   -0.3517 C   0  0  0  0  0  0  0  0  0  0  0  0
   -0.1476    0.3127    0.2806 N   0  0  0  0  0  0  0  0  0  0  0  0
    0.2074   -0.9583   -0.1893 C   0  0  0  0  0  0  0  0  0  0  0  0
   -0.2304   -1.9795    0.3492 O   0  0  0  0  0  0  0  0  0  0  0  0
    1.1879   -1.0743   -1.3398 C   0  0  0  0  0  0  0  0  0  0  0  0
    1.5243   -2.5342   -1.6407 C   0  0  0  0  0  0  0  0  0  0  0  0
    2.5542   -2.6534   -2.7466 C   0  0  0  0  0  0  0  0  0  0  0  0
    3.1965   -1.6873   -3.1501 O   0  0  0  0  0  0  0  0  0  0  0  0
    2.6750   -3.9473   -3.1965 N   0  0  0  0  0  0  0  0  0  0  0  0
    3.5304   -4.3688   -4.1896 C   0  0  0  0  0  0  0  0  0  0  0  0
    4.4669   -3.6290   -4.9459 C   0  0  0  0  0  0  0  0  0  0  0  0
    5.0362   -4.5526   -5.7870 C   0  0  0  0  0  0  0  0  0  0  0  0
    6.0658   -4.4926   -6.8374 C   0  0  0  0  0  0  0  0  0  0  0  0
    4.4749   -5.7697   -5.5575 O   0  0  0  0  0  0  0  0  0  0  0  0
    3.5397   -5.6589   -4.5441 N   0  0  0  0  0  0  0  0  0  0  0  0
   -0.3170    1.5284   -0.6135 C   0  0  0  0  0  0  0  0  0  0  0  0
   -0.9468    2.7585    0.0758 C   0  0  0  0  0  0  0  0  0  0  0  0
   -1.2845    1.2005   -1.7791 C   0  0  0  0  0  0  0  0  0  0  0  0
    1.0384    2.0192   -1.1675 C   0  0  0  0  0  0  0  0  0  0  0  0
   -0.1044    2.4035    3.2945 C   0  0  0  0  0  0  0  0  0  0  0  0
   -1.4073    2.7466    3.0637 O   0  0  0  0  0  0  0  0  0  0  0  0
   -2.1087    3.4879    4.0548 C   0  0  0  0  0  0  0  0  0  0  0  0
    1.6530    4.4176    6.3938 H   0  0  0  0  0  0  0  0  0  0  0  0
   -0.0197    4.9559    6.6087 H   0  0  0  0  0  0  0  0  0  0  0  0
    0.3148    3.2221    6.5280 H   0  0  0  0  0  0  0  0  0  0  0  0
    2.8682    3.3703    4.6992 H   0  0  0  0  0  0  0  0  0  0  0  0
    3.6595    1.3743    3.4967 H   0  0  0  0  0  0  0  0  0  0  0  0
    2.0907    0.0331    2.1621 H   0  0  0  0  0  0  0  0  0  0  0  0
   -0.2114   -0.6434    2.1385 H   0  0  0  0  0  0  0  0  0  0  0  0
   -2.2763   -0.6263    0.2529 H   0  0  0  0  0  0  0  0  0  0  0  0
   -4.9761    1.4300    1.0673 H   0  0  0  0  0  0  0  0  0  0  0  0
   -4.8912    0.7291    2.6817 H   0  0  0  0  0  0  0  0  0  0  0  0
   -6.1775    0.2332    1.5850 H   0  0  0  0  0  0  0  0  0  0  0  0
   -5.4127   -2.2636    1.9160 H   0  0  0  0  0  0  0  0  0  0  0  0
   -4.1224   -1.7093    2.9814 H   0  0  0  0  0  0  0  0  0  0  0  0
   -3.7280   -2.6898    1.5714 H   0  0  0  0  0  0  0  0  0  0  0  0
   -4.6255   -0.0593   -0.9983 H   0  0  0  0  0  0  0  0  0  0  0  0
   -4.0968   -1.7318   -0.8026 H   0  0  0  0  0  0  0  0  0  0  0  0
   -5.7497   -1.2753   -0.3626 H   0  0  0  0  0  0  0  0  0  0  0  0
    2.1052   -0.5434   -1.0547 H   0  0  0  0  0  0  0  0  0  0  0  0
    0.7819   -0.6270   -2.2496 H   0  0  0  0  0  0  0  0  0  0  0  0
    1.9292   -3.0267   -0.7488 H   0  0  0  0  0  0  0  0  0  0  0  0
    0.6155   -3.0693   -1.9402 H   0  0  0  0  0  0  0  0  0  0  0  0
    2.1143   -4.6904   -2.7997 H   0  0  0  0  0  0  0  0  0  0  0  0
    4.7008   -2.5749   -4.8897 H   0  0  0  0  0  0  0  0  0  0  0  0
    6.4811   -3.4834   -6.9238 H   0  0  0  0  0  0  0  0  0  0  0  0
    6.8855   -5.1820   -6.6114 H   0  0  0  0  0  0  0  0  0  0  0  0
    5.6405   -4.7679   -7.8078 H   0  0  0  0  0  0  0  0  0  0  0  0
   -1.1797    3.5415   -0.6586 H   0  0  0  0  0  0  0  0  0  0  0  0
   -1.8888    2.5156    0.5734 H   0  0  0  0  0  0  0  0  0  0  0  0
   -0.2569    3.2191    0.7854 H   0  0  0  0  0  0  0  0  0  0  0  0
   -1.0450    0.2812   -2.3108 H   0  0  0  0  0  0  0  0  0  0  0  0
   -1.3199    2.0154   -2.5150 H   0  0  0  0  0  0  0  0  0  0  0  0
   -2.3059    1.0764   -1.4070 H   0  0  0  0  0  0  0  0  0  0  0  0
    1.4146    1.4049   -1.9880 H   0  0  0  0  0  0  0  0  0  0  0  0
    0.9584    3.0327   -1.5807 H   0  0  0  0  0  0  0  0  0  0  0  0
    1.7997    2.0415   -0.3782 H   0  0  0  0  0  0  0  0  0  0  0  0
   -3.1792    3.3696    3.8571 H   0  0  0  0  0  0  0  0  0  0  0  0
   -1.8848    4.5575    3.9648 H   0  0  0  0  0  0  0  0  0  0  0  0
   -1.9177    3.1113    5.0670 H   0  0  0  0  0  0  0  0  0  0  0  0
  1  2  1  0
  2  3  1  0
  3  4  2  0
  4  5  1  0
  5  6  2  0
  6  7  1  0
  7  8  1  0
  8  9  1  0
  9 10  2  0
  9 11  1  0
 11 12  1  0
 12 13  1  0
 12 14  1  0
 12 15  1  0
  8 16  1  0
 16 17  1  0
 17 18  2  0
 17 19  1  0
 19 20  1  0
 20 21  1  0
 21 22  2  0
 21 23  1  0
 23 24  1  0
 24 25  1  0
 25 26  2  0
 26 27  1  0
 26 28  1  0
 28 29  1  0
 16 30  1  0
 30 31  1  0
 30 32  1  0
 30 33  1  0
  7 34  2  0
 34 35  1  0
 35 36  1  0
 34  3  1  0
 29 24  2  0
  1 37  1  0
  1 38  1  0
  1 39  1  0
  4 40  1  0
  5 41  1  0
  6 42  1  0
  8 43  1  0
 11 44  1  0
 13 45  1  0
 13 46  1  0
 13 47  1  0
 14 48  1  0
 14 49  1  0
 14 50  1  0
 15 51  1  0
 15 52  1  0
 15 53  1  0
 19 54  1  0
 19 55  1  0
 20 56  1  0
 20 57  1  0
 23 58  1  0
 25 59  1  0
 27 60  1  0
 27 61  1  0
 27 62  1  0
 31 63  1  0
 31 64  1  0
 31 65  1  0
 32 66  1  0
 32 67  1  0
 32 68  1  0
 33 69  1  0
 33 70  1  0
 33 71  1  0
 36 72  1  0
 36 73  1  0
 36 74  1  0
M  END
$$$$
