
     RDKit          3D

 42 44  0  0  0  0  0  0  0  0999 V2000
   -3.3002    3.9835    0.2532 C   0  0  0  0  0  0  0  0  0  0  0  0
   -1.9990    3.2172    0.1157 C   0  0  0  0  0  0  0  0  0  0  0  0
   -2.2945    1.8197    0.2092 O   0  0  0  0  0  0  0  0  0  0  0  0
   -1.2078    1.0031    0.0827 C   0  0  0  0  0  0  0  0  0  0  0  0
   -0.0643    1.4094   -0.0958 O   0  0  0  0  0  0  0  0  0  0  0  0
   -1.5501   -0.4127    0.1867 C   0  0  0  0  0  0  0  0  0  0  0  0
   -0.6044   -1.4404    0.1151 C   0  0  0  0  0  0  0  0  0  0  0  0
    0.7589   -1.2905   -0.0686 N   0  0  0  0  0  0  0  0  0  0  0  0
    1.7290   -2.2715   -0.1459 C   0  0  0  0  0  0  0  0  0  0  0  0
    1.5803   -3.4847   -0.0594 O   0  0  0  0  0  0  0  0  0  0  0  0
    3.0683   -1.6876   -0.3593 C   0  0  0  0  0  0  0  0  0  0  0  0
    4.2964   -2.3861   -0.4956 C   0  0  0  0  0  0  0  0  0  0  0  0
    5.2517   -1.4154   -0.6772 C   0  0  0  0  0  0  0  0  0  0  0  0
    4.5872   -0.2257   -0.6407 N   0  0  0  0  0  0  0  0  0  0  0  0
    5.1670    1.0955   -0.7896 C   0  0  0  0  0  0  0  0  0  0  0  0
    5.4448    1.7524    0.5505 C   0  0  0  0  0  0  0  0  0  0  0  0
    3.2604   -0.3548   -0.4527 N   0  0  0  0  0  0  0  0  0  0  0  0
   -1.3028   -2.9994    0.2844 S   0  0  0  0  0  0  0  0  0  0  0  0
   -2.8226   -2.3394    0.4438 C   0  0  0  0  0  0  0  0  0  0  0  0
   -2.8466   -0.9757    0.3731 C   0  0  0  0  0  0  0  0  0  0  0  0
   -4.2355   -0.4657    0.5231 C   0  0  0  0  0  0  0  0  0  0  0  0
   -5.0899   -1.7609    0.3513 C   0  0  0  0  0  0  0  0  0  0  0  0
   -4.1479   -2.9656    0.6503 C   0  0  0  0  0  0  0  0  0  0  0  0
   -3.1277    5.0615    0.1889 H   0  0  0  0  0  0  0  0  0  0  0  0
   -4.0048    3.6902   -0.5322 H   0  0  0  0  0  0  0  0  0  0  0  0
   -3.7805    3.7583    1.2113 H   0  0  0  0  0  0  0  0  0  0  0  0
   -1.3135    3.5047    0.9207 H   0  0  0  0  0  0  0  0  0  0  0  0
   -1.5419    3.4366   -0.8555 H   0  0  0  0  0  0  0  0  0  0  0  0
    1.1161   -0.3363   -0.1663 H   0  0  0  0  0  0  0  0  0  0  0  0
    4.4432   -3.4571   -0.4629 H   0  0  0  0  0  0  0  0  0  0  0  0
    6.3213   -1.4735   -0.8225 H   0  0  0  0  0  0  0  0  0  0  0  0
    4.4701    1.6983   -1.3824 H   0  0  0  0  0  0  0  0  0  0  0  0
    6.0934    0.9906   -1.3650 H   0  0  0  0  0  0  0  0  0  0  0  0
    6.1373    1.1511    1.1489 H   0  0  0  0  0  0  0  0  0  0  0  0
    4.5231    1.8743    1.1295 H   0  0  0  0  0  0  0  0  0  0  0  0
    5.8890    2.7417    0.4039 H   0  0  0  0  0  0  0  0  0  0  0  0
   -4.3809   -0.0406    1.5217 H   0  0  0  0  0  0  0  0  0  0  0  0
   -4.5016    0.2780   -0.2330 H   0  0  0  0  0  0  0  0  0  0  0  0
   -5.4320   -1.8257   -0.6902 H   0  0  0  0  0  0  0  0  0  0  0  0
   -5.9796   -1.7593    0.9889 H   0  0  0  0  0  0  0  0  0  0  0  0
   -4.2650   -3.2964    1.6873 H   0  0  0  0  0  0  0  0  0  0  0  0
   -4.3447   -3.8010   -0.0272 H   0  0  0  0  0  0  0  0  0  0  0  0
  1  2  1  0
  2  3  1  0
  3  4  1  0
  4  5  2  0
  4  6  1  0
  6  7  2  0
  7  8  1  0
  8  9  1  0
  9 10  2  0
  9 11  1  0
 11 12  1  0
 12 13  2  0
 13 14  1  0
 14 15  1  0
 15 16  1  0
 14 17  1  0
  7 18  1  0
 18 19  1  0
 19 20  2  0
 20 21  1  0
 21 22  1  0
 22 23  1  0
 20  6  1  0
 17 11  2  0
 23 19  1  0
  1 24  1  0
  1 25  1  0
  1 26  1  0
  2 27  1  0
  2 28  1  0
  8 29  1  0
 12 30  1  0
 13 31  1  0
 15 32  1  0
 15 33  1  0
 16 34  1  0
 16 35  1  0
 16 36  1  0
 21 37  1  0
 21 38  1  0
 22 39  1  0
 22 40  1  0
 23 41  1  0
 23 42  1  0
M  END
$$$$
