
     RDKit          3D

 60 63  0  0  0  0  0  0  0  0999 V2000
   -7.3824    2.6707   -3.5863 C   0  0  0  0  0  0  0  0  0  0  0  0
   -6.2192    2.8939   -2.9609 C   0  0  0  0  0  0  0  0  0  0  0  0
   -6.0819    3.6191   -1.6525 C   0  0  0  0  0  0  0  0  0  0  0  0
   -5.6838    2.6743   -0.6192 N   0  0  0  0  0  0  0  0  0  0  0  0
   -6.6548    2.1058    0.1967 C   0  0  0  0  0  0  0  0  0  0  0  0
   -7.8520    2.3730    0.1113 O   0  0  0  0  0  0  0  0  0  0  0  0
   -6.2097    1.1323    1.2368 C   0  0  0  0  0  0  0  0  0  0  0  0
   -7.1813    0.5733    2.0836 C   0  0  0  0  0  0  0  0  0  0  0  0
   -6.8118   -0.3270    3.0795 C   0  0  0  0  0  0  0  0  0  0  0  0
   -5.4721   -0.6703    3.2335 C   0  0  0  0  0  0  0  0  0  0  0  0
   -4.4951   -0.1211    2.3935 C   0  0  0  0  0  0  0  0  0  0  0  0
   -4.8578    0.7794    1.3867 C   0  0  0  0  0  0  0  0  0  0  0  0
   -3.9426    1.3855    0.4962 N   0  0  0  0  0  0  0  0  0  0  0  0
   -2.5766    1.3046    0.2920 C   0  0  0  0  0  0  0  0  0  0  0  0
   -1.4515    0.2734    1.1062 S   0  0  0  0  0  0  0  0  0  0  0  0
    0.0904    1.1920    0.8278 C   0  0  0  0  0  0  0  0  0  0  0  0
    1.2173    0.5277    1.6070 C   0  0  0  0  0  0  0  0  0  0  0  0
    1.2514    0.6000    2.8325 O   0  0  0  0  0  0  0  0  0  0  0  0
    2.1211   -0.1206    0.7801 N   0  0  0  0  0  0  0  0  0  0  0  0
    3.2722   -0.8091    1.1471 C   0  0  0  0  0  0  0  0  0  0  0  0
    3.7339   -0.9423    2.7664 S   0  0  0  0  0  0  0  0  0  0  0  0
    5.1323   -1.8312    2.3865 C   0  0  0  0  0  0  0  0  0  0  0  0
    6.0395   -2.2683    3.4931 C   0  0  0  0  0  0  0  0  0  0  0  0
    5.2644   -2.0493    1.0201 C   0  0  0  0  0  0  0  0  0  0  0  0
    6.4250   -2.8101    0.4238 C   0  0  0  0  0  0  0  0  0  0  0  0
    7.5260   -1.8868   -0.0791 C   0  0  0  0  0  0  0  0  0  0  0  0
    4.1575   -1.4438    0.2800 C   0  0  0  0  0  0  0  0  0  0  0  0
    3.9153   -1.4372   -1.1715 C   0  0  0  0  0  0  0  0  0  0  0  0
    2.9542   -0.8605   -1.6749 O   0  0  0  0  0  0  0  0  0  0  0  0
    4.8444   -2.1252   -1.8911 O   0  0  0  0  0  0  0  0  0  0  0  0
    4.6537   -2.1593   -3.3125 C   0  0  0  0  0  0  0  0  0  0  0  0
    5.3251   -0.9587   -3.9536 C   0  0  0  0  0  0  0  0  0  0  0  0
   -2.2134    2.1260   -0.6685 N   0  0  0  0  0  0  0  0  0  0  0  0
   -3.3318    2.7534   -1.1351 N   0  0  0  0  0  0  0  0  0  0  0  0
   -4.3607    2.3050   -0.4508 C   0  0  0  0  0  0  0  0  0  0  0  0
   -7.4127    2.1472   -4.5356 H   0  0  0  0  0  0  0  0  0  0  0  0
   -8.3273    2.9924   -3.1582 H   0  0  0  0  0  0  0  0  0  0  0  0
   -5.2949    2.5507   -3.4222 H   0  0  0  0  0  0  0  0  0  0  0  0
   -5.3272    4.4097   -1.7370 H   0  0  0  0  0  0  0  0  0  0  0  0
   -7.0221    4.1071   -1.3722 H   0  0  0  0  0  0  0  0  0  0  0  0
   -8.2308    0.8414    1.9721 H   0  0  0  0  0  0  0  0  0  0  0  0
   -7.5665   -0.7560    3.7361 H   0  0  0  0  0  0  0  0  0  0  0  0
   -5.1810   -1.3695    4.0161 H   0  0  0  0  0  0  0  0  0  0  0  0
   -3.4750   -0.4284    2.5839 H   0  0  0  0  0  0  0  0  0  0  0  0
   -0.0022    2.2239    1.1851 H   0  0  0  0  0  0  0  0  0  0  0  0
    0.3195    1.2239   -0.2418 H   0  0  0  0  0  0  0  0  0  0  0  0
    1.9469   -0.1053   -0.2246 H   0  0  0  0  0  0  0  0  0  0  0  0
    7.0547   -1.8939    3.3209 H   0  0  0  0  0  0  0  0  0  0  0  0
    5.7144   -1.9039    4.4732 H   0  0  0  0  0  0  0  0  0  0  0  0
    6.0764   -3.3609    3.5414 H   0  0  0  0  0  0  0  0  0  0  0  0
    6.8542   -3.4838    1.1757 H   0  0  0  0  0  0  0  0  0  0  0  0
    6.0819   -3.4693   -0.3796 H   0  0  0  0  0  0  0  0  0  0  0  0
    7.1619   -1.2061   -0.8553 H   0  0  0  0  0  0  0  0  0  0  0  0
    7.9290   -1.2754    0.7357 H   0  0  0  0  0  0  0  0  0  0  0  0
    8.3489   -2.4728   -0.5005 H   0  0  0  0  0  0  0  0  0  0  0  0
    5.1204   -3.0818   -3.6744 H   0  0  0  0  0  0  0  0  0  0  0  0
    3.5907   -2.2115   -3.5768 H   0  0  0  0  0  0  0  0  0  0  0  0
    4.8544   -0.0286   -3.6233 H   0  0  0  0  0  0  0  0  0  0  0  0
    6.3800   -0.9044   -3.6649 H   0  0  0  0  0  0  0  0  0  0  0  0
    5.2612   -1.0129   -5.0437 H   0  0  0  0  0  0  0  0  0  0  0  0
  1  2  2  0
  2  3  1  0
  3  4  1  0
  4  5  1  0
  5  6  2  0
  5  7  1  0
  7  8  2  0
  8  9  1  0
  9 10  2  0
 10 11  1  0
 11 12  2  0
 12 13  1  0
 13 14  1  0
 14 15  1  0
 15 16  1  0
 16 17  1  0
 17 18  2  0
 17 19  1  0
 19 20  1  0
 20 21  1  0
 21 22  1  0
 22 23  1  0
 22 24  2  0
 24 25  1  0
 25 26  1  0
 24 27  1  0
 27 28  1  0
 28 29  2  0
 28 30  1  0
 30 31  1  0
 31 32  1  0
 14 33  2  0
 33 34  1  0
 34 35  2  0
 35  4  1  0
 12  7  1  0
 35 13  1  0
 27 20  2  0
  1 36  1  0
  1 37  1  0
  2 38  1  0
  3 39  1  0
  3 40  1  0
  8 41  1  0
  9 42  1  0
 10 43  1  0
 11 44  1  0
 16 45  1  0
 16 46  1  0
 19 47  1  0
 23 48  1  0
 23 49  1  0
 23 50  1  0
 25 51  1  0
 25 52  1  0
 26 53  1  0
 26 54  1  0
 26 55  1  0
 31 56  1  0
 31 57  1  0
 32 58  1  0
 32 59  1  0
 32 60  1  0
M  END
$$$$
