
     RDKit          3D

 57 60  0  0  0  0  0  0  0  0999 V2000
   -0.9203    0.5939    5.2546 C   0  0  0  0  0  0  0  0  0  0  0  0
   -0.9076   -0.1820    4.0541 O   0  0  0  0  0  0  0  0  0  0  0  0
   -0.0214    0.3278    3.1464 C   0  0  0  0  0  0  0  0  0  0  0  0
    1.3475    0.1410    3.3598 C   0  0  0  0  0  0  0  0  0  0  0  0
    2.2754    0.6050    2.4234 C   0  0  0  0  0  0  0  0  0  0  0  0
    1.8356    1.2425    1.2560 C   0  0  0  0  0  0  0  0  0  0  0  0
    2.7894    1.7536    0.2331 C   0  0  0  0  0  0  0  0  0  0  0  0
    2.4749    2.7032   -0.4739 O   0  0  0  0  0  0  0  0  0  0  0  0
    3.9861    1.0784    0.1232 N   0  0  0  0  0  0  0  0  0  0  0  0
    4.9216    1.3810   -0.9378 C   0  0  0  0  0  0  0  0  0  0  0  0
    4.7641    0.4069   -2.0783 C   0  0  0  0  0  0  0  0  0  0  0  0
    3.7487    0.6081   -3.0432 C   0  0  0  0  0  0  0  0  0  0  0  0
    3.5640   -0.2941   -4.0955 C   0  0  0  0  0  0  0  0  0  0  0  0
    4.4008   -1.3865   -4.1550 C   0  0  0  0  0  0  0  0  0  0  0  0
    5.3859   -1.5958   -3.2190 C   0  0  0  0  0  0  0  0  0  0  0  0
    5.5922   -0.7241   -2.1699 C   0  0  0  0  0  0  0  0  0  0  0  0
    6.0947   -2.7322   -3.4568 O   0  0  0  0  0  0  0  0  0  0  0  0
    5.4505   -3.2066   -4.6580 C   0  0  0  0  0  0  0  0  0  0  0  0
    4.3670   -2.3637   -5.0998 O   0  0  0  0  0  0  0  0  0  0  0  0
    0.4644    1.4277    1.0393 C   0  0  0  0  0  0  0  0  0  0  0  0
   -0.4619    0.9536    1.9781 C   0  0  0  0  0  0  0  0  0  0  0  0
   -2.1956    1.1941    1.6801 S   0  0  0  0  0  6  0  0  0  0  0  0
   -2.7455    1.8434    2.8523 O   0  0  0  0  0  0  0  0  0  0  0  0
   -2.3373    1.8013    0.3724 O   0  0  0  0  0  0  0  0  0  0  0  0
   -2.7935   -0.3889    1.5742 N   0  0  0  0  0  0  0  0  0  0  0  0
   -2.3575   -1.1807    0.4120 C   0  0  0  0  0  0  0  0  0  0  0  0
   -4.2119   -0.5760    1.9516 C   0  0  0  0  0  0  0  0  0  0  0  0
   -5.2325   -0.2491    0.8866 C   0  0  0  0  0  0  0  0  0  0  0  0
   -5.7839   -1.2639    0.0892 C   0  0  0  0  0  0  0  0  0  0  0  0
   -6.7223   -0.9603   -0.8990 C   0  0  0  0  0  0  0  0  0  0  0  0
   -7.1186    0.3597   -1.1024 C   0  0  0  0  0  0  0  0  0  0  0  0
   -6.5783    1.3763   -0.3182 C   0  0  0  0  0  0  0  0  0  0  0  0
   -5.6413    1.0745    0.6716 C   0  0  0  0  0  0  0  0  0  0  0  0
   -0.0628    0.3361    5.8850 H   0  0  0  0  0  0  0  0  0  0  0  0
   -1.8331    0.3447    5.8039 H   0  0  0  0  0  0  0  0  0  0  0  0
   -0.9290    1.6711    5.0498 H   0  0  0  0  0  0  0  0  0  0  0  0
    1.6955   -0.3705    4.2539 H   0  0  0  0  0  0  0  0  0  0  0  0
    3.3347    0.4801    2.6307 H   0  0  0  0  0  0  0  0  0  0  0  0
    4.0792    0.1735    0.5609 H   0  0  0  0  0  0  0  0  0  0  0  0
    5.9287    1.3087   -0.5124 H   0  0  0  0  0  0  0  0  0  0  0  0
    4.7925    2.4092   -1.2932 H   0  0  0  0  0  0  0  0  0  0  0  0
    3.0947    1.4775   -2.9662 H   0  0  0  0  0  0  0  0  0  0  0  0
    2.7879   -0.1405   -4.8369 H   0  0  0  0  0  0  0  0  0  0  0  0
    6.3763   -0.9176   -1.4457 H   0  0  0  0  0  0  0  0  0  0  0  0
    5.0575   -4.2125   -4.4712 H   0  0  0  0  0  0  0  0  0  0  0  0
    6.1982   -3.2646   -5.4572 H   0  0  0  0  0  0  0  0  0  0  0  0
    0.1269    1.9372    0.1373 H   0  0  0  0  0  0  0  0  0  0  0  0
   -2.7288   -0.7559   -0.5244 H   0  0  0  0  0  0  0  0  0  0  0  0
   -2.7217   -2.2095    0.4975 H   0  0  0  0  0  0  0  0  0  0  0  0
   -1.2665   -1.2360    0.3718 H   0  0  0  0  0  0  0  0  0  0  0  0
   -4.3361   -1.6237    2.2586 H   0  0  0  0  0  0  0  0  0  0  0  0
   -4.4439   -0.0121    2.8634 H   0  0  0  0  0  0  0  0  0  0  0  0
   -5.4856   -2.2999    0.2328 H   0  0  0  0  0  0  0  0  0  0  0  0
   -7.1428   -1.7528   -1.5123 H   0  0  0  0  0  0  0  0  0  0  0  0
   -7.8462    0.5979   -1.8738 H   0  0  0  0  0  0  0  0  0  0  0  0
   -6.8808    2.4079   -0.4788 H   0  0  0  0  0  0  0  0  0  0  0  0
   -5.2282    1.8837    1.2709 H   0  0  0  0  0  0  0  0  0  0  0  0
  1  2  1  0
  2  3  1  0
  3  4  2  0
  4  5  1  0
  5  6  2  0
  6  7  1  0
  7  8  2  0
  7  9  1  0
  9 10  1  0
 10 11  1  0
 11 12  2  0
 12 13  1  0
 13 14  2  0
 14 15  1  0
 15 16  2  0
 15 17  1  0
 17 18  1  0
 18 19  1  0
  6 20  1  0
 20 21  2  0
 21 22  1  0
 22 23  2  0
 22 24  2  0
 22 25  1  0
 25 26  1  0
 25 27  1  0
 27 28  1  0
 28 29  2  0
 29 30  1  0
 30 31  2  0
 31 32  1  0
 32 33  2  0
 21  3  1  0
 33 28  1  0
 16 11  1  0
 19 14  1  0
  1 34  1  0
  1 35  1  0
  1 36  1  0
  4 37  1  0
  5 38  1  0
  9 39  1  0
 10 40  1  0
 10 41  1  0
 12 42  1  0
 13 43  1  0
 16 44  1  0
 18 45  1  0
 18 46  1  0
 20 47  1  0
 26 48  1  0
 26 49  1  0
 26 50  1  0
 27 51  1  0
 27 52  1  0
 29 53  1  0
 30 54  1  0
 31 55  1  0
 32 56  1  0
 33 57  1  0
M  END
$$$$
