
     RDKit          3D

 68 70  0  0  0  0  0  0  0  0999 V2000
   -5.2524    3.2050    1.9497 C   0  0  0  0  0  0  0  0  0  0  0  0
   -4.7603    2.1007    2.6981 O   0  0  0  0  0  0  0  0  0  0  0  0
   -3.9088    1.2493    2.0510 C   0  0  0  0  0  0  0  0  0  0  0  0
   -3.3434    0.2611    2.8564 C   0  0  0  0  0  0  0  0  0  0  0  0
   -2.4541   -0.6749    2.3208 C   0  0  0  0  0  0  0  0  0  0  0  0
   -2.1174   -0.6516    0.9583 C   0  0  0  0  0  0  0  0  0  0  0  0
   -1.1415   -1.6941    0.4083 C   0  0  0  0  0  0  0  0  0  0  0  0
   -1.4904   -2.3326   -0.9699 C   0  0  0  0  0  0  0  0  0  0  0  0
   -0.6175   -2.7347   -1.7411 O   0  0  0  0  0  0  0  0  0  0  0  0
   -2.8412   -2.5370   -1.2029 N   0  0  0  0  0  0  0  0  0  0  0  0
   -3.4106   -3.0869   -2.4416 C   0  0  0  0  0  0  0  0  0  0  0  0
   -2.9338   -4.5278   -2.6803 C   0  0  0  0  0  0  0  0  0  0  0  0
   -3.0542   -2.2019   -3.6462 C   0  0  0  0  0  0  0  0  0  0  0  0
   -4.9433   -3.1074   -2.2910 C   0  0  0  0  0  0  0  0  0  0  0  0
    0.2729   -1.2665    0.4777 N   0  0  0  0  0  0  0  0  0  0  0  0
    1.1816   -2.1553    1.2018 C   0  0  0  0  0  0  0  0  0  0  0  0
    0.9972   -1.9854    2.6671 C   0  0  0  0  0  0  0  0  0  0  0  0
    1.2751   -0.9620    3.5503 C   0  0  0  0  0  0  0  0  0  0  0  0
    0.8688   -1.4153    4.8283 C   0  0  0  0  0  0  0  0  0  0  0  0
    0.3713   -2.6834    4.6456 C   0  0  0  0  0  0  0  0  0  0  0  0
    0.4377   -3.0359    3.3362 O   0  0  0  0  0  0  0  0  0  0  0  0
    0.7012   -0.2177   -0.3258 C   0  0  0  0  0  0  0  0  0  0  0  0
   -0.0449    0.3671   -1.1128 O   0  0  0  0  0  0  0  0  0  0  0  0
    2.1534    0.2097   -0.2051 C   0  0  0  0  0  0  0  0  0  0  0  0
    2.4269    1.4746   -1.0139 C   0  0  0  0  0  0  0  0  0  0  0  0
    3.8260    2.0063   -0.7817 C   0  0  0  0  0  0  0  0  0  0  0  0
    4.5869    1.5180    0.0474 O   0  0  0  0  0  0  0  0  0  0  0  0
    4.1009    3.0828   -1.5931 N   0  0  0  0  0  0  0  0  0  0  0  0
    5.2760    3.7995   -1.5980 C   0  0  0  0  0  0  0  0  0  0  0  0
    6.4265    3.6468   -0.7941 C   0  0  0  0  0  0  0  0  0  0  0  0
    7.2792    4.6341   -1.2201 C   0  0  0  0  0  0  0  0  0  0  0  0
    8.6308    5.0677   -0.8281 C   0  0  0  0  0  0  0  0  0  0  0  0
    6.6842    5.3336   -2.2213 O   0  0  0  0  0  0  0  0  0  0  0  0
    5.4277    4.8108   -2.4615 N   0  0  0  0  0  0  0  0  0  0  0  0
   -2.6933    0.3476    0.1595 C   0  0  0  0  0  0  0  0  0  0  0  0
   -3.5795    1.2890    0.6988 C   0  0  0  0  0  0  0  0  0  0  0  0
   -5.8792    2.8700    1.1174 H   0  0  0  0  0  0  0  0  0  0  0  0
   -4.4330    3.8395    1.5972 H   0  0  0  0  0  0  0  0  0  0  0  0
   -5.8778    3.8077    2.6150 H   0  0  0  0  0  0  0  0  0  0  0  0
   -3.5894    0.2237    3.9148 H   0  0  0  0  0  0  0  0  0  0  0  0
   -2.0255   -1.4236    2.9839 H   0  0  0  0  0  0  0  0  0  0  0  0
   -1.2413   -2.5606    1.0804 H   0  0  0  0  0  0  0  0  0  0  0  0
   -3.4922   -2.1272   -0.5419 H   0  0  0  0  0  0  0  0  0  0  0  0
   -3.4277   -4.9673   -3.5544 H   0  0  0  0  0  0  0  0  0  0  0  0
   -1.8561   -4.5827   -2.8570 H   0  0  0  0  0  0  0  0  0  0  0  0
   -3.1550   -5.1622   -1.8147 H   0  0  0  0  0  0  0  0  0  0  0  0
   -3.3655   -1.1645   -3.4763 H   0  0  0  0  0  0  0  0  0  0  0  0
   -1.9770   -2.1903   -3.8423 H   0  0  0  0  0  0  0  0  0  0  0  0
   -3.5481   -2.5572   -4.5576 H   0  0  0  0  0  0  0  0  0  0  0  0
   -5.2475   -3.7267   -1.4387 H   0  0  0  0  0  0  0  0  0  0  0  0
   -5.4297   -3.5062   -3.1887 H   0  0  0  0  0  0  0  0  0  0  0  0
   -5.3361   -2.0989   -2.1154 H   0  0  0  0  0  0  0  0  0  0  0  0
    2.2273   -1.9652    0.9528 H   0  0  0  0  0  0  0  0  0  0  0  0
    0.9752   -3.1862    0.8901 H   0  0  0  0  0  0  0  0  0  0  0  0
    1.7158   -0.0061    3.3014 H   0  0  0  0  0  0  0  0  0  0  0  0
    0.9332   -0.8840    5.7675 H   0  0  0  0  0  0  0  0  0  0  0  0
   -0.0482   -3.4264    5.3098 H   0  0  0  0  0  0  0  0  0  0  0  0
    2.7958   -0.5943   -0.5797 H   0  0  0  0  0  0  0  0  0  0  0  0
    2.3808    0.3872    0.8512 H   0  0  0  0  0  0  0  0  0  0  0  0
    2.3006    1.2679   -2.0834 H   0  0  0  0  0  0  0  0  0  0  0  0
    1.7181    2.2640   -0.7354 H   0  0  0  0  0  0  0  0  0  0  0  0
    3.4195    3.4058   -2.2678 H   0  0  0  0  0  0  0  0  0  0  0  0
    6.6089    2.9286   -0.0088 H   0  0  0  0  0  0  0  0  0  0  0  0
    9.2818    5.1459   -1.7043 H   0  0  0  0  0  0  0  0  0  0  0  0
    8.5894    6.0459   -0.3397 H   0  0  0  0  0  0  0  0  0  0  0  0
    9.0849    4.3566   -0.1314 H   0  0  0  0  0  0  0  0  0  0  0  0
   -2.4521    0.4141   -0.9010 H   0  0  0  0  0  0  0  0  0  0  0  0
   -3.9878    2.0397    0.0308 H   0  0  0  0  0  0  0  0  0  0  0  0
  1  2  1  0
  2  3  1  0
  3  4  2  0
  4  5  1  0
  5  6  2  0
  6  7  1  0
  7  8  1  0
  8  9  2  0
  8 10  1  0
 10 11  1  0
 11 12  1  0
 11 13  1  0
 11 14  1  0
  7 15  1  0
 15 16  1  0
 16 17  1  0
 17 18  2  0
 18 19  1  0
 19 20  2  0
 20 21  1  0
 15 22  1  0
 22 23  2  0
 22 24  1  0
 24 25  1  0
 25 26  1  0
 26 27  2  0
 26 28  1  0
 28 29  1  0
 29 30  1  0
 30 31  2  0
 31 32  1  0
 31 33  1  0
 33 34  1  0
  6 35  1  0
 35 36  2  0
 36  3  1  0
 21 17  1  0
 34 29  2  0
  1 37  1  0
  1 38  1  0
  1 39  1  0
  4 40  1  0
  5 41  1  0
  7 42  1  0
 10 43  1  0
 12 44  1  0
 12 45  1  0
 12 46  1  0
 13 47  1  0
 13 48  1  0
 13 49  1  0
 14 50  1  0
 14 51  1  0
 14 52  1  0
 16 53  1  0
 16 54  1  0
 18 55  1  0
 19 56  1  0
 20 57  1  0
 24 58  1  0
 24 59  1  0
 25 60  1  0
 25 61  1  0
 28 62  1  0
 30 63  1  0
 32 64  1  0
 32 65  1  0
 32 66  1  0
 35 67  1  0
 36 68  1  0
M  END
$$$$
