
     RDKit          3D

 58 63  0  0  0  0  0  0  0  0999 V2000
    7.8425    2.3913    0.4177 C   0  0  0  0  0  0  0  0  0  0  0  0
    6.6032    1.5728    0.5403 C   0  0  0  0  0  0  0  0  0  0  0  0
    5.9978    0.7830   -0.4151 C   0  0  0  0  0  0  0  0  0  0  0  0
    4.8235    0.1447    0.0800 C   0  0  0  0  0  0  0  0  0  0  0  0
    4.5562    0.4844    1.3930 C   0  0  0  0  0  0  0  0  0  0  0  0
    3.4760    0.0354    2.2549 C   0  0  0  0  0  0  0  0  0  0  0  0
    3.6865   -0.4462    3.3693 O   0  0  0  0  0  0  0  0  0  0  0  0
    2.1646    0.1285    1.7633 N   0  0  0  0  0  0  0  0  0  0  0  0
    1.7344    1.0297    0.7045 C   0  0  0  0  0  0  0  0  0  0  0  0
    0.8058    0.3217   -0.2818 C   0  0  0  0  0  0  0  0  0  0  0  0
   -0.2055   -0.6527    0.4028 C   0  0  0  0  0  0  0  0  0  0  0  0
   -0.2701   -0.3676    1.9228 C   0  0  0  0  0  0  0  0  0  0  0  0
    1.1105   -0.4641    2.5741 C   0  0  0  0  0  0  0  0  0  0  0  0
    0.4026   -1.9608    0.2143 O   0  0  0  0  0  0  0  0  0  0  0  0
   -0.3944   -3.0605    0.3130 C   0  0  0  0  0  0  0  0  0  0  0  0
    0.2640   -4.2878    0.3936 C   0  0  0  0  0  0  0  0  0  0  0  0
   -0.4690   -5.4709    0.5171 C   0  0  0  0  0  0  0  0  0  0  0  0
   -1.8622   -5.4229    0.5574 C   0  0  0  0  0  0  0  0  0  0  0  0
   -2.7616   -6.8802    0.7154 Cl  0  0  0  0  0  0  0  0  0  0  0  0
   -2.5287   -4.2039    0.4681 C   0  0  0  0  0  0  0  0  0  0  0  0
   -1.7840   -3.0273    0.3349 C   0  0  0  0  0  0  0  0  0  0  0  0
   -2.4578   -1.7277    0.2218 C   0  0  0  0  0  0  0  0  0  0  0  0
   -3.6418   -1.6256    0.5326 O   0  0  0  0  0  0  0  0  0  0  0  0
   -1.6001   -0.5706   -0.2762 C   0  0  0  0  0  0  0  0  0  0  0  0
   -2.3203    0.7599   -0.0991 C   0  0  0  0  0  0  0  0  0  0  0  0
   -2.9074    0.8849   -1.4640 C   0  0  0  0  0  0  0  0  0  0  0  0
   -3.9570    1.8814   -1.7831 C   0  0  0  0  0  0  0  0  0  0  0  0
   -4.5310    1.8744   -3.0622 C   0  0  0  0  0  0  0  0  0  0  0  0
   -5.5204    2.8029   -3.3974 C   0  0  0  0  0  0  0  0  0  0  0  0
   -5.9356    3.7406   -2.4550 C   0  0  0  0  0  0  0  0  0  0  0  0
   -7.1511    4.8862   -2.8648 Cl  0  0  0  0  0  0  0  0  0  0  0  0
   -5.3700    3.7573   -1.1807 C   0  0  0  0  0  0  0  0  0  0  0  0
   -4.3800    2.8283   -0.8424 C   0  0  0  0  0  0  0  0  0  0  0  0
   -2.4044    0.0826   -2.3473 N   0  0  0  0  0  0  0  0  0  0  0  0
   -1.4507   -0.7297   -1.6968 O   0  0  0  0  0  0  0  0  0  0  0  0
    5.7493    1.5352    2.0232 S   0  0  0  0  0  0  0  0  0  0  0  0
    8.5218    2.2086    1.2573 H   0  0  0  0  0  0  0  0  0  0  0  0
    8.3819    2.1471   -0.5050 H   0  0  0  0  0  0  0  0  0  0  0  0
    7.5957    3.4584    0.3924 H   0  0  0  0  0  0  0  0  0  0  0  0
    6.3842    0.6575   -1.4197 H   0  0  0  0  0  0  0  0  0  0  0  0
    4.2081   -0.5369   -0.4956 H   0  0  0  0  0  0  0  0  0  0  0  0
    2.5691    1.4873    0.1708 H   0  0  0  0  0  0  0  0  0  0  0  0
    1.2057    1.8605    1.1893 H   0  0  0  0  0  0  0  0  0  0  0  0
    0.3009    1.0985   -0.8660 H   0  0  0  0  0  0  0  0  0  0  0  0
    1.4235   -0.2375   -0.9974 H   0  0  0  0  0  0  0  0  0  0  0  0
   -0.6781    0.6356    2.0976 H   0  0  0  0  0  0  0  0  0  0  0  0
   -0.9362   -1.0683    2.4389 H   0  0  0  0  0  0  0  0  0  0  0  0
    1.3754   -1.5126    2.7577 H   0  0  0  0  0  0  0  0  0  0  0  0
    1.0947    0.0396    3.5481 H   0  0  0  0  0  0  0  0  0  0  0  0
    1.3510   -4.3250    0.3680 H   0  0  0  0  0  0  0  0  0  0  0  0
    0.0520   -6.4231    0.5832 H   0  0  0  0  0  0  0  0  0  0  0  0
   -3.6154   -4.1672    0.4914 H   0  0  0  0  0  0  0  0  0  0  0  0
   -3.0762    0.7585    0.6894 H   0  0  0  0  0  0  0  0  0  0  0  0
   -1.6436    1.6048    0.0578 H   0  0  0  0  0  0  0  0  0  0  0  0
   -4.2152    1.1441   -3.8055 H   0  0  0  0  0  0  0  0  0  0  0  0
   -5.9599    2.7858   -4.3916 H   0  0  0  0  0  0  0  0  0  0  0  0
   -5.6958    4.4902   -0.4466 H   0  0  0  0  0  0  0  0  0  0  0  0
   -3.9573    2.8676    0.1570 H   0  0  0  0  0  0  0  0  0  0  0  0
  1  2  1  0
  2  3  2  0
  3  4  1  0
  4  5  2  0
  5  6  1  0
  6  7  2  0
  6  8  1  0
  8  9  1  0
  9 10  1  0
 10 11  1  0
 11 12  1  0
 12 13  1  0
 11 14  1  0
 14 15  1  0
 15 16  2  0
 16 17  1  0
 17 18  2  0
 18 19  1  0
 18 20  1  0
 20 21  2  0
 21 22  1  0
 22 23  2  0
 22 24  1  0
 24 25  1  0
 25 26  1  0
 26 27  1  0
 27 28  2  0
 28 29  1  0
 29 30  2  0
 30 31  1  0
 30 32  1  0
 32 33  2  0
 26 34  2  0
 34 35  1  0
  5 36  1  0
 36  2  1  0
 13  8  1  0
 21 15  1  0
 35 24  1  0
 24 11  1  0
 33 27  1  0
  1 37  1  0
  1 38  1  0
  1 39  1  0
  3 40  1  0
  4 41  1  0
  9 42  1  0
  9 43  1  0
 10 44  1  0
 10 45  1  0
 12 46  1  0
 12 47  1  0
 13 48  1  0
 13 49  1  0
 16 50  1  0
 17 51  1  0
 20 52  1  0
 25 53  1  0
 25 54  1  0
 28 55  1  0
 29 56  1  0
 32 57  1  0
 33 58  1  0
M  END
$$$$
