
     RDKit          3D

 57 61  0  0  0  0  0  0  0  0999 V2000
    1.0628    1.0240    3.3200 O   0  0  0  0  0  0  0  0  0  0  0  0
    1.4640    0.4599    2.3092 C   0  0  0  0  0  0  0  0  0  0  0  0
    0.6800    0.3149    1.1695 N   0  0  0  0  0  0  0  0  0  0  0  0
    1.1114   -0.2832   -0.0090 C   0  0  0  0  0  0  0  0  0  0  0  0
    0.1185   -0.3349   -1.1686 C   0  0  0  0  0  0  0  0  0  0  0  0
   -0.9720   -1.3846   -0.9150 C   0  0  0  0  0  0  0  0  0  0  0  0
   -2.0207   -0.9513    0.1121 C   0  0  0  0  0  0  0  0  0  0  0  0
   -2.1883    0.5197    0.1003 N   0  0  0  0  0  0  0  0  0  0  0  0
   -3.2651    1.2046    1.2216 S   0  0  0  0  0  6  0  0  0  0  0  0
   -2.9009    0.5849    2.4746 O   0  0  0  0  0  0  0  0  0  0  0  0
   -3.2545    2.6367    1.0395 O   0  0  0  0  0  0  0  0  0  0  0  0
   -4.9041    0.6329    0.7960 C   0  0  0  0  0  0  0  0  0  0  0  0
   -5.2462    0.4786   -0.5555 C   0  0  0  0  0  0  0  0  0  0  0  0
   -6.4971   -0.0208   -0.9193 C   0  0  0  0  0  0  0  0  0  0  0  0
   -7.4198   -0.3624    0.0609 C   0  0  0  0  0  0  0  0  0  0  0  0
   -7.1019   -0.1801    1.4058 C   0  0  0  0  0  0  0  0  0  0  0  0
   -5.8505    0.3391    1.7998 C   0  0  0  0  0  0  0  0  0  0  0  0
   -5.6097    0.5776    3.2763 C   0  0  0  0  0  0  0  0  0  0  0  0
   -4.9860    1.7534    3.5426 F   0  0  0  0  0  0  0  0  0  0  0  0
   -4.8991   -0.4190    3.8646 F   0  0  0  0  0  0  0  0  0  0  0  0
   -6.7811    0.6392    3.9808 F   0  0  0  0  0  0  0  0  0  0  0  0
   -1.9455    1.1668   -1.1973 C   0  0  0  0  0  0  0  0  0  0  0  0
   -0.4538    1.0545   -1.5048 C   0  0  0  0  0  0  0  0  0  0  0  0
    2.2945   -0.8126   -0.1703 N   0  0  0  0  0  0  0  0  0  0  0  0
    3.0770   -0.6947    0.9303 C   0  0  0  0  0  0  0  0  0  0  0  0
    2.7709   -0.1157    2.1380 C   0  0  0  0  0  0  0  0  0  0  0  0
    3.8264   -0.2042    2.9932 N   0  0  0  0  0  0  0  0  0  0  0  0
    4.8091   -0.8327    2.3468 N   0  0  0  0  0  0  0  0  0  0  0  0
    4.3663   -1.1122    1.0958 N   0  0  0  0  0  0  0  0  0  0  0  0
    5.2064   -1.8160    0.1508 C   0  0  0  0  0  0  0  0  0  0  0  0
    5.9353   -0.8601   -0.7598 C   0  0  0  0  0  0  0  0  0  0  0  0
    7.1384   -0.2607   -0.3520 C   0  0  0  0  0  0  0  0  0  0  0  0
    7.8083    0.6342   -1.1907 C   0  0  0  0  0  0  0  0  0  0  0  0
    7.2806    0.9431   -2.4429 C   0  0  0  0  0  0  0  0  0  0  0  0
    6.0846    0.3599   -2.8435 C   0  0  0  0  0  0  0  0  0  0  0  0
    5.5718    0.6629   -4.0438 F   0  0  0  0  0  0  0  0  0  0  0  0
    5.4086   -0.5327   -2.0177 C   0  0  0  0  0  0  0  0  0  0  0  0
   -0.2501    0.7120    1.2434 H   0  0  0  0  0  0  0  0  0  0  0  0
    0.6978   -0.6682   -2.0420 H   0  0  0  0  0  0  0  0  0  0  0  0
   -0.5315   -2.3393   -0.6027 H   0  0  0  0  0  0  0  0  0  0  0  0
   -1.4814   -1.5835   -1.8676 H   0  0  0  0  0  0  0  0  0  0  0  0
   -1.6917   -1.2686    1.1074 H   0  0  0  0  0  0  0  0  0  0  0  0
   -2.9698   -1.4523   -0.1029 H   0  0  0  0  0  0  0  0  0  0  0  0
   -4.5633    0.7584   -1.3470 H   0  0  0  0  0  0  0  0  0  0  0  0
   -6.7546   -0.1379   -1.9695 H   0  0  0  0  0  0  0  0  0  0  0  0
   -8.3960   -0.7526   -0.2197 H   0  0  0  0  0  0  0  0  0  0  0  0
   -7.8521   -0.4292    2.1574 H   0  0  0  0  0  0  0  0  0  0  0  0
   -2.5197    0.6694   -1.9858 H   0  0  0  0  0  0  0  0  0  0  0  0
   -2.2333    2.2217   -1.1965 H   0  0  0  0  0  0  0  0  0  0  0  0
    0.0923    1.8427   -0.9705 H   0  0  0  0  0  0  0  0  0  0  0  0
   -0.3068    1.2624   -2.5727 H   0  0  0  0  0  0  0  0  0  0  0  0
    4.5720   -2.5021   -0.4223 H   0  0  0  0  0  0  0  0  0  0  0  0
    5.9157   -2.4340    0.7142 H   0  0  0  0  0  0  0  0  0  0  0  0
    7.5573   -0.4808    0.6296 H   0  0  0  0  0  0  0  0  0  0  0  0
    8.7382    1.0933   -0.8631 H   0  0  0  0  0  0  0  0  0  0  0  0
    7.7887    1.6379   -3.1036 H   0  0  0  0  0  0  0  0  0  0  0  0
    4.4700   -0.9582   -2.3625 H   0  0  0  0  0  0  0  0  0  0  0  0
  1  2  2  0
  2  3  1  0
  3  4  1  0
  4  5  1  0
  5  6  1  0
  6  7  1  0
  7  8  1  0
  8  9  1  0
  9 10  2  0
  9 11  2  0
  9 12  1  0
 12 13  2  0
 13 14  1  0
 14 15  2  0
 15 16  1  0
 16 17  2  0
 17 18  1  0
 18 19  1  0
 18 20  1  0
 18 21  1  0
  8 22  1  0
 22 23  1  0
  4 24  2  0
 24 25  1  0
 25 26  2  0
 26 27  1  0
 27 28  2  0
 28 29  1  0
 29 30  1  0
 30 31  1  0
 31 32  2  0
 32 33  1  0
 33 34  2  0
 34 35  1  0
 35 36  1  0
 35 37  2  0
 26  2  1  0
 37 31  1  0
 23  5  1  0
 29 25  1  0
 17 12  1  0
  3 38  1  0
  5 39  1  0
  6 40  1  0
  6 41  1  0
  7 42  1  0
  7 43  1  0
 13 44  1  0
 14 45  1  0
 15 46  1  0
 16 47  1  0
 22 48  1  0
 22 49  1  0
 23 50  1  0
 23 51  1  0
 30 52  1  0
 30 53  1  0
 32 54  1  0
 33 55  1  0
 34 56  1  0
 37 57  1  0
M  END
$$$$
