
     RDKit          3D

 68 69  0  0  0  0  0  0  0  0999 V2000
    0.3296    4.5876   -0.0797 C   0  0  0  0  0  0  0  0  0  0  0  0
   -0.5382    4.1332   -1.1049 O   0  0  0  0  0  0  0  0  0  0  0  0
   -1.4928    3.1772   -0.6464 C   0  0  0  0  0  0  0  0  0  0  0  0
   -1.0824    1.7294   -0.9716 C   0  0  0  0  0  0  0  0  0  0  0  0
    0.0388    1.2000   -0.1702 N   0  0  0  0  0  0  0  0  0  0  0  0
    1.3025    1.2241   -0.7600 C   0  0  0  0  0  0  0  0  0  0  0  0
    1.5364    1.8258   -1.8120 O   0  0  0  0  0  0  0  0  0  0  0  0
    2.4288    0.4959   -0.0404 C   0  0  0  0  0  0  0  0  0  0  0  0
    3.7184    0.5087   -0.8535 C   0  0  0  0  0  0  0  0  0  0  0  0
    3.6086   -0.4598   -2.0172 C   0  0  0  0  0  0  0  0  0  0  0  0
    3.5640   -1.6704   -1.8104 O   0  0  0  0  0  0  0  0  0  0  0  0
    3.5734    0.1602   -3.2408 N   0  0  0  0  0  0  0  0  0  0  0  0
    3.4569   -0.4752   -4.4571 C   0  0  0  0  0  0  0  0  0  0  0  0
    3.2651   -1.8459   -4.7337 C   0  0  0  0  0  0  0  0  0  0  0  0
    3.2065   -1.9185   -6.1044 C   0  0  0  0  0  0  0  0  0  0  0  0
    3.0277   -3.0134   -7.0711 C   0  0  0  0  0  0  0  0  0  0  0  0
    3.3752   -0.6700   -6.6206 O   0  0  0  0  0  0  0  0  0  0  0  0
    3.5427    0.2382   -5.5902 N   0  0  0  0  0  0  0  0  0  0  0  0
   -0.2730    0.3997    1.0405 C   0  0  0  0  0  0  0  0  0  0  0  0
   -0.6830   -1.0600    0.6867 C   0  0  0  0  0  0  0  0  0  0  0  0
   -1.0034   -1.4048   -0.4504 O   0  0  0  0  0  0  0  0  0  0  0  0
   -0.6511   -1.9314    1.7655 N   0  0  0  0  0  0  0  0  0  0  0  0
   -0.8446   -3.3888    1.6728 C   0  0  0  0  0  0  0  0  0  0  0  0
    0.2555   -4.0237    0.8033 C   0  0  0  0  0  0  0  0  0  0  0  0
   -2.2346   -3.7375    1.1056 C   0  0  0  0  0  0  0  0  0  0  0  0
   -0.7495   -3.9713    3.0959 C   0  0  0  0  0  0  0  0  0  0  0  0
   -1.2395    1.1002    1.9926 C   0  0  0  0  0  0  0  0  0  0  0  0
   -0.7462    2.0858    2.8638 C   0  0  0  0  0  0  0  0  0  0  0  0
   -1.6094    2.7712    3.7208 C   0  0  0  0  0  0  0  0  0  0  0  0
   -2.9778    2.4922    3.7282 C   0  0  0  0  0  0  0  0  0  0  0  0
   -3.7075    3.2457    4.6027 O   0  0  0  0  0  0  0  0  0  0  0  0
   -5.1099    3.0137    4.6453 C   0  0  0  0  0  0  0  0  0  0  0  0
   -3.4779    1.5133    2.8692 C   0  0  0  0  0  0  0  0  0  0  0  0
   -2.6167    0.8216    2.0097 C   0  0  0  0  0  0  0  0  0  0  0  0
    1.0699    5.2569   -0.5223 H   0  0  0  0  0  0  0  0  0  0  0  0
   -0.2352    5.1440    0.6757 H   0  0  0  0  0  0  0  0  0  0  0  0
    0.8585    3.7600    0.3973 H   0  0  0  0  0  0  0  0  0  0  0  0
   -2.4160    3.3884   -1.1968 H   0  0  0  0  0  0  0  0  0  0  0  0
   -1.7190    3.3258    0.4129 H   0  0  0  0  0  0  0  0  0  0  0  0
   -1.9461    1.0705   -0.8403 H   0  0  0  0  0  0  0  0  0  0  0  0
   -0.8124    1.6721   -2.0334 H   0  0  0  0  0  0  0  0  0  0  0  0
    2.1243   -0.5369    0.1606 H   0  0  0  0  0  0  0  0  0  0  0  0
    2.6101    1.0115    0.9087 H   0  0  0  0  0  0  0  0  0  0  0  0
    4.5596    0.1730   -0.2358 H   0  0  0  0  0  0  0  0  0  0  0  0
    3.9692    1.5199   -1.1968 H   0  0  0  0  0  0  0  0  0  0  0  0
    3.5685    1.1717   -3.3056 H   0  0  0  0  0  0  0  0  0  0  0  0
    3.1639   -2.6676   -4.0384 H   0  0  0  0  0  0  0  0  0  0  0  0
    3.9618   -3.1934   -7.6157 H   0  0  0  0  0  0  0  0  0  0  0  0
    2.7357   -3.9440   -6.5656 H   0  0  0  0  0  0  0  0  0  0  0  0
    2.2470   -2.7664   -7.7986 H   0  0  0  0  0  0  0  0  0  0  0  0
    0.6547    0.2824    1.6139 H   0  0  0  0  0  0  0  0  0  0  0  0
   -0.3141   -1.5680    2.6489 H   0  0  0  0  0  0  0  0  0  0  0  0
    1.2520   -3.7119    1.1359 H   0  0  0  0  0  0  0  0  0  0  0  0
    0.2121   -5.1177    0.8402 H   0  0  0  0  0  0  0  0  0  0  0  0
    0.1585   -3.7305   -0.2501 H   0  0  0  0  0  0  0  0  0  0  0  0
   -2.3506   -3.4051    0.0659 H   0  0  0  0  0  0  0  0  0  0  0  0
   -2.4023   -4.8173    1.1230 H   0  0  0  0  0  0  0  0  0  0  0  0
   -3.0279   -3.2565    1.6956 H   0  0  0  0  0  0  0  0  0  0  0  0
    0.2130   -3.7292    3.5622 H   0  0  0  0  0  0  0  0  0  0  0  0
   -1.5394   -3.5565    3.7339 H   0  0  0  0  0  0  0  0  0  0  0  0
   -0.8590   -5.0623    3.0913 H   0  0  0  0  0  0  0  0  0  0  0  0
    0.3106    2.3415    2.8683 H   0  0  0  0  0  0  0  0  0  0  0  0
   -1.2173    3.5370    4.3846 H   0  0  0  0  0  0  0  0  0  0  0  0
   -5.3285    2.0028    4.9986 H   0  0  0  0  0  0  0  0  0  0  0  0
   -5.5418    3.7172    5.3641 H   0  0  0  0  0  0  0  0  0  0  0  0
   -5.5738    3.2001    3.6713 H   0  0  0  0  0  0  0  0  0  0  0  0
   -4.5354    1.2638    2.8364 H   0  0  0  0  0  0  0  0  0  0  0  0
   -3.0427    0.0713    1.3419 H   0  0  0  0  0  0  0  0  0  0  0  0
  1  2  1  0
  2  3  1  0
  3  4  1  0
  4  5  1  0
  5  6  1  0
  6  7  2  0
  6  8  1  0
  8  9  1  0
  9 10  1  0
 10 11  2  0
 10 12  1  0
 12 13  1  0
 13 14  1  0
 14 15  2  0
 15 16  1  0
 15 17  1  0
 17 18  1  0
  5 19  1  0
 19 20  1  0
 20 21  2  0
 20 22  1  0
 22 23  1  0
 23 24  1  0
 23 25  1  0
 23 26  1  0
 19 27  1  0
 27 28  2  0
 28 29  1  0
 29 30  2  0
 30 31  1  0
 31 32  1  0
 30 33  1  0
 33 34  2  0
 18 13  2  0
 34 27  1  0
  1 35  1  0
  1 36  1  0
  1 37  1  0
  3 38  1  0
  3 39  1  0
  4 40  1  0
  4 41  1  0
  8 42  1  0
  8 43  1  0
  9 44  1  0
  9 45  1  0
 12 46  1  0
 14 47  1  0
 16 48  1  0
 16 49  1  0
 16 50  1  0
 19 51  1  0
 22 52  1  0
 24 53  1  0
 24 54  1  0
 24 55  1  0
 25 56  1  0
 25 57  1  0
 25 58  1  0
 26 59  1  0
 26 60  1  0
 26 61  1  0
 28 62  1  0
 29 63  1  0
 32 64  1  0
 32 65  1  0
 32 66  1  0
 33 67  1  0
 34 68  1  0
M  END
$$$$
