
     RDKit          3D

 51 54  0  0  0  0  0  0  0  0999 V2000
    4.6761    1.7054   -1.6851 O   0  0  0  0  0  0  0  0  0  0  0  0
    3.7476    1.0194   -1.2661 C   0  0  0  0  0  0  0  0  0  0  0  0
    2.3829    1.0291   -1.9764 C   0  0  0  0  0  0  0  0  0  0  0  0
    1.3354    0.2554   -1.3207 N   0  0  0  0  0  0  0  0  0  0  0  0
    0.6142    0.8201   -0.2856 C   0  0  0  0  0  0  0  0  0  0  0  0
    0.9410    1.8180    0.3315 O   0  0  0  0  0  0  0  0  0  0  0  0
   -0.6788    0.0687    0.0245 C   0  0  0  0  0  0  0  0  0  0  0  0
   -1.3382   -0.3451   -1.0187 N   0  0  0  0  0  0  0  0  0  0  0  0
   -2.5219   -1.0246   -0.8281 N   0  0  0  0  0  0  0  0  0  0  0  0
   -3.2722   -1.3760   -2.0319 C   0  0  0  0  0  0  0  0  0  0  0  0
   -4.1493   -0.2411   -2.5077 C   0  0  0  0  0  0  0  0  0  0  0  0
   -5.4691   -0.1217   -2.0489 C   0  0  0  0  0  0  0  0  0  0  0  0
   -6.2743    0.9355   -2.4753 C   0  0  0  0  0  0  0  0  0  0  0  0
   -5.7672    1.8871   -3.3580 C   0  0  0  0  0  0  0  0  0  0  0  0
   -4.4533    1.7860   -3.8116 C   0  0  0  0  0  0  0  0  0  0  0  0
   -3.6465    0.7295   -3.3861 C   0  0  0  0  0  0  0  0  0  0  0  0
   -3.0700   -1.3067    0.4207 C   0  0  0  0  0  0  0  0  0  0  0  0
   -4.1311   -1.9024    0.5909 O   0  0  0  0  0  0  0  0  0  0  0  0
   -2.2933   -0.8643    1.5946 C   0  0  0  0  0  0  0  0  0  0  0  0
   -2.7569   -1.1478    2.8869 C   0  0  0  0  0  0  0  0  0  0  0  0
   -2.0138   -0.7495    3.9970 C   0  0  0  0  0  0  0  0  0  0  0  0
   -0.8093   -0.0727    3.8177 C   0  0  0  0  0  0  0  0  0  0  0  0
   -0.3466    0.2118    2.5297 C   0  0  0  0  0  0  0  0  0  0  0  0
   -1.0960   -0.1787    1.4129 C   0  0  0  0  0  0  0  0  0  0  0  0
    3.8069    0.1412   -0.2030 N   0  0  0  0  0  0  0  0  0  0  0  0
    4.8841   -0.1104    0.6680 C   0  0  0  0  0  0  0  0  0  0  0  0
    6.1420    0.4890    0.5572 C   0  0  0  0  0  0  0  0  0  0  0  0
    7.1531    0.1774    1.4747 C   0  0  0  0  0  0  0  0  0  0  0  0
    6.9054   -0.7306    2.4998 C   0  0  0  0  0  0  0  0  0  0  0  0
    7.8814   -1.0197    3.3707 F   0  0  0  0  0  0  0  0  0  0  0  0
    5.6614   -1.3307    2.6208 C   0  0  0  0  0  0  0  0  0  0  0  0
    5.4250   -2.2038    3.6102 F   0  0  0  0  0  0  0  0  0  0  0  0
    4.6596   -1.0211    1.7104 C   0  0  0  0  0  0  0  0  0  0  0  0
    3.4512   -1.5983    1.8287 F   0  0  0  0  0  0  0  0  0  0  0  0
    2.0499    2.0675   -2.0747 H   0  0  0  0  0  0  0  0  0  0  0  0
    2.5246    0.5965   -2.9718 H   0  0  0  0  0  0  0  0  0  0  0  0
    0.7825   -0.3714   -1.9018 H   0  0  0  0  0  0  0  0  0  0  0  0
   -2.5583   -1.6578   -2.8160 H   0  0  0  0  0  0  0  0  0  0  0  0
   -3.8855   -2.2652   -1.8424 H   0  0  0  0  0  0  0  0  0  0  0  0
   -5.8738   -0.8511   -1.3488 H   0  0  0  0  0  0  0  0  0  0  0  0
   -7.2957    1.0183   -2.1133 H   0  0  0  0  0  0  0  0  0  0  0  0
   -6.3943    2.7114   -3.6871 H   0  0  0  0  0  0  0  0  0  0  0  0
   -4.0551    2.5335   -4.4925 H   0  0  0  0  0  0  0  0  0  0  0  0
   -2.6186    0.6696   -3.7361 H   0  0  0  0  0  0  0  0  0  0  0  0
   -3.6952   -1.6810    3.0300 H   0  0  0  0  0  0  0  0  0  0  0  0
   -2.3733   -0.9688    4.9999 H   0  0  0  0  0  0  0  0  0  0  0  0
   -0.2274    0.2374    4.6836 H   0  0  0  0  0  0  0  0  0  0  0  0
    0.5975    0.7418    2.4340 H   0  0  0  0  0  0  0  0  0  0  0  0
    2.9435   -0.3541    0.0007 H   0  0  0  0  0  0  0  0  0  0  0  0
    6.3679    1.2031   -0.2299 H   0  0  0  0  0  0  0  0  0  0  0  0
    8.1319    0.6420    1.3924 H   0  0  0  0  0  0  0  0  0  0  0  0
  1  2  2  0
  2  3  1  0
  3  4  1  0
  4  5  1  0
  5  6  2  0
  5  7  1  0
  7  8  2  0
  8  9  1  0
  9 10  1  0
 10 11  1  0
 11 12  2  0
 12 13  1  0
 13 14  2  0
 14 15  1  0
 15 16  2  0
  9 17  1  0
 17 18  2  0
 17 19  1  0
 19 20  2  0
 20 21  1  0
 21 22  2  0
 22 23  1  0
 23 24  2  0
  2 25  1  0
 25 26  1  0
 26 27  2  0
 27 28  1  0
 28 29  2  0
 29 30  1  0
 29 31  1  0
 31 32  1  0
 31 33  2  0
 33 34  1  0
 24  7  1  0
 33 26  1  0
 16 11  1  0
 24 19  1  0
  3 35  1  0
  3 36  1  0
  4 37  1  0
 10 38  1  0
 10 39  1  0
 12 40  1  0
 13 41  1  0
 14 42  1  0
 15 43  1  0
 16 44  1  0
 20 45  1  0
 21 46  1  0
 22 47  1  0
 23 48  1  0
 25 49  1  0
 27 50  1  0
 28 51  1  0
M  END
$$$$
