
     RDKit          3D

 56 60  0  0  0  0  0  0  0  0999 V2000
   -5.7877   -1.9780   -0.3869 C   0  0  0  0  0  0  0  0  0  0  0  0
   -4.5616   -1.4462   -0.9235 N   0  0  0  0  0  0  0  0  0  0  0  0
   -3.4880   -2.1499   -1.3970 C   0  0  0  0  0  0  0  0  0  0  0  0
   -3.3302   -3.8671   -1.3131 S   0  0  0  0  0  0  0  0  0  0  0  0
   -1.7740   -4.1238   -2.2201 C   0  0  0  0  0  0  0  0  0  0  0  0
   -0.5696   -3.8953   -1.3168 C   0  0  0  0  0  0  0  0  0  0  0  0
   -0.0002   -4.8440   -0.7804 O   0  0  0  0  0  0  0  0  0  0  0  0
   -0.2239   -2.5624   -1.1825 N   0  0  0  0  0  0  0  0  0  0  0  0
    0.8319   -2.0222   -0.4255 C   0  0  0  0  0  0  0  0  0  0  0  0
    0.8053   -0.6429   -0.2065 C   0  0  0  0  0  0  0  0  0  0  0  0
    1.8016   -0.0087    0.5460 C   0  0  0  0  0  0  0  0  0  0  0  0
    2.8588   -0.7689    1.0821 C   0  0  0  0  0  0  0  0  0  0  0  0
    3.9147   -0.2764    1.8369 N   0  0  0  0  0  0  0  0  0  0  0  0
    4.7177   -1.2656    2.1629 C   0  0  0  0  0  0  0  0  0  0  0  0
    6.1668   -1.0138    3.1073 S   0  0  0  0  0  0  0  0  0  0  0  0
    5.9217    0.6704    3.7190 C   0  0  0  0  0  0  0  0  0  0  0  0
    6.3773    1.6937    2.6970 C   0  0  0  0  0  0  0  0  0  0  0  0
    7.5206    2.1437    2.6827 O   0  0  0  0  0  0  0  0  0  0  0  0
    5.3885    2.0881    1.8155 N   0  0  0  0  0  0  0  0  0  0  0  0
    5.6186    3.0501    0.7878 C   0  0  0  0  0  0  0  0  0  0  0  0
    4.6159    3.2312   -0.3182 C   0  0  0  0  0  0  0  0  0  0  0  0
    5.9562    2.6266   -0.6143 C   0  0  0  0  0  0  0  0  0  0  0  0
    4.2752   -2.8180    1.5958 S   0  0  0  0  0  0  0  0  0  0  0  0
    2.8787   -2.1439    0.8455 C   0  0  0  0  0  0  0  0  0  0  0  0
    1.8778   -2.7912    0.0949 C   0  0  0  0  0  0  0  0  0  0  0  0
   -2.6016   -1.3247   -1.9021 N   0  0  0  0  0  0  0  0  0  0  0  0
   -3.0743   -0.0501   -1.7232 N   0  0  0  0  0  0  0  0  0  0  0  0
   -4.2459   -0.1154   -1.1107 C   0  0  0  0  0  0  0  0  0  0  0  0
   -5.0729    1.0292   -0.7484 C   0  0  0  0  0  0  0  0  0  0  0  0
   -5.3957    1.9767   -1.7247 C   0  0  0  0  0  0  0  0  0  0  0  0
   -6.1911    3.0796   -1.4071 C   0  0  0  0  0  0  0  0  0  0  0  0
   -6.6598    3.2491   -0.1073 C   0  0  0  0  0  0  0  0  0  0  0  0
   -6.3284    2.3217    0.8777 C   0  0  0  0  0  0  0  0  0  0  0  0
   -5.5350    1.2167    0.5604 C   0  0  0  0  0  0  0  0  0  0  0  0
   -6.0479   -2.9046   -0.9053 H   0  0  0  0  0  0  0  0  0  0  0  0
   -6.6021   -1.2652   -0.5416 H   0  0  0  0  0  0  0  0  0  0  0  0
   -5.6409   -2.1697    0.6775 H   0  0  0  0  0  0  0  0  0  0  0  0
   -1.7127   -3.4948   -3.1153 H   0  0  0  0  0  0  0  0  0  0  0  0
   -1.7456   -5.1646   -2.5637 H   0  0  0  0  0  0  0  0  0  0  0  0
   -0.8980   -1.8865   -1.5468 H   0  0  0  0  0  0  0  0  0  0  0  0
   -0.0055   -0.0347   -0.6061 H   0  0  0  0  0  0  0  0  0  0  0  0
    1.7564    1.0608    0.7213 H   0  0  0  0  0  0  0  0  0  0  0  0
    6.5225    0.8085    4.6240 H   0  0  0  0  0  0  0  0  0  0  0  0
    4.8768    0.8529    4.0045 H   0  0  0  0  0  0  0  0  0  0  0  0
    4.5825    1.4643    1.7296 H   0  0  0  0  0  0  0  0  0  0  0  0
    6.1034    3.9537    1.1565 H   0  0  0  0  0  0  0  0  0  0  0  0
    3.7519    2.5769   -0.3580 H   0  0  0  0  0  0  0  0  0  0  0  0
    4.4246    4.2398   -0.6571 H   0  0  0  0  0  0  0  0  0  0  0  0
    6.6841    3.2254   -1.1596 H   0  0  0  0  0  0  0  0  0  0  0  0
    6.0050    1.5661   -0.8357 H   0  0  0  0  0  0  0  0  0  0  0  0
    1.9509   -3.8583   -0.0783 H   0  0  0  0  0  0  0  0  0  0  0  0
   -5.0279    1.8604   -2.7425 H   0  0  0  0  0  0  0  0  0  0  0  0
   -6.4397    3.8060   -2.1758 H   0  0  0  0  0  0  0  0  0  0  0  0
   -7.2756    4.1107    0.1405 H   0  0  0  0  0  0  0  0  0  0  0  0
   -6.6820    2.4652    1.8942 H   0  0  0  0  0  0  0  0  0  0  0  0
   -5.2677    0.5196    1.3481 H   0  0  0  0  0  0  0  0  0  0  0  0
  1  2  1  0
  2  3  1  0
  3  4  1  0
  4  5  1  0
  5  6  1  0
  6  7  2  0
  6  8  1  0
  8  9  1  0
  9 10  2  0
 10 11  1  0
 11 12  2  0
 12 13  1  0
 13 14  2  0
 14 15  1  0
 15 16  1  0
 16 17  1  0
 17 18  2  0
 17 19  1  0
 19 20  1  0
 20 21  1  0
 21 22  1  0
 14 23  1  0
 23 24  1  0
 24 25  2  0
  3 26  2  0
 26 27  1  0
 27 28  2  0
 28 29  1  0
 29 30  2  0
 30 31  1  0
 31 32  2  0
 32 33  1  0
 33 34  2  0
 28  2  1  0
 34 29  1  0
 25  9  1  0
 24 12  1  0
 22 20  1  0
  1 35  1  0
  1 36  1  0
  1 37  1  0
  5 38  1  0
  5 39  1  0
  8 40  1  0
 10 41  1  0
 11 42  1  0
 16 43  1  0
 16 44  1  0
 19 45  1  0
 20 46  1  0
 21 47  1  0
 21 48  1  0
 22 49  1  0
 22 50  1  0
 25 51  1  0
 30 52  1  0
 31 53  1  0
 32 54  1  0
 33 55  1  0
 34 56  1  0
M  END
$$$$
