
     RDKit          3D

 40 42  0  0  0  0  0  0  0  0999 V2000
   -6.8129    0.8274    1.5653 C   0  0  0  0  0  0  0  0  0  0  0  0
   -6.2803    1.1418   -0.1034 S   0  0  0  0  0  6  0  0  0  0  0  0
   -5.2848    2.1895   -0.0923 O   0  0  0  0  0  0  0  0  0  0  0  0
   -7.4706    1.2413   -0.9216 O   0  0  0  0  0  0  0  0  0  0  0  0
   -5.5852   -0.3372   -0.5071 N   0  0  0  0  0  0  0  0  0  0  0  0
   -4.1694   -0.5246   -0.5216 C   0  0  0  0  0  0  0  0  0  0  0  0
   -3.3255   -0.0141    0.4677 C   0  0  0  0  0  0  0  0  0  0  0  0
   -1.9541   -0.2957    0.4486 C   0  0  0  0  0  0  0  0  0  0  0  0
   -1.4212   -1.1143   -0.5532 C   0  0  0  0  0  0  0  0  0  0  0  0
    0.0306   -1.4431   -0.6072 C   0  0  0  0  0  0  0  0  0  0  0  0
    0.3539   -2.5670   -0.9708 O   0  0  0  0  0  0  0  0  0  0  0  0
    0.8729   -0.4012   -0.2652 N   0  0  0  0  0  0  0  0  0  0  0  0
    2.2816   -0.4301   -0.1867 C   0  0  0  0  0  0  0  0  0  0  0  0
    3.0494   -1.5846   -0.3614 C   0  0  0  0  0  0  0  0  0  0  0  0
    4.4451   -1.5319   -0.2684 C   0  0  0  0  0  0  0  0  0  0  0  0
    5.0809   -0.3242   -0.0006 C   0  0  0  0  0  0  0  0  0  0  0  0
    4.3205    0.8281    0.2064 C   0  0  0  0  0  0  0  0  0  0  0  0
    2.9298    0.7787    0.1003 C   0  0  0  0  0  0  0  0  0  0  0  0
    4.8712    2.0479    0.5097 O   0  0  0  0  0  0  0  0  0  0  0  0
    6.2376    1.9153    0.9199 C   0  0  0  0  0  0  0  0  0  0  0  0
    6.9913    0.9815   -0.0127 C   0  0  0  0  0  0  0  0  0  0  0  0
    6.4503   -0.3428    0.0539 O   0  0  0  0  0  0  0  0  0  0  0  0
   -2.2729   -1.6774   -1.5084 C   0  0  0  0  0  0  0  0  0  0  0  0
   -3.6407   -1.3879   -1.4864 C   0  0  0  0  0  0  0  0  0  0  0  0
   -5.9420    0.6427    2.1952 H   0  0  0  0  0  0  0  0  0  0  0  0
   -7.4867   -0.0315    1.5666 H   0  0  0  0  0  0  0  0  0  0  0  0
   -7.3435    1.7138    1.9201 H   0  0  0  0  0  0  0  0  0  0  0  0
   -6.1039   -0.7608   -1.2787 H   0  0  0  0  0  0  0  0  0  0  0  0
   -3.7090    0.6100    1.2689 H   0  0  0  0  0  0  0  0  0  0  0  0
   -1.3256    0.1043    1.2401 H   0  0  0  0  0  0  0  0  0  0  0  0
    0.4471    0.5057   -0.1217 H   0  0  0  0  0  0  0  0  0  0  0  0
    2.5932   -2.5468   -0.5730 H   0  0  0  0  0  0  0  0  0  0  0  0
    5.0306   -2.4351   -0.4164 H   0  0  0  0  0  0  0  0  0  0  0  0
    2.3655    1.6942    0.2524 H   0  0  0  0  0  0  0  0  0  0  0  0
    6.6874    2.9129    0.9013 H   0  0  0  0  0  0  0  0  0  0  0  0
    6.2566    1.5509    1.9546 H   0  0  0  0  0  0  0  0  0  0  0  0
    6.9423    1.3267   -1.0529 H   0  0  0  0  0  0  0  0  0  0  0  0
    8.0447    0.9245    0.2787 H   0  0  0  0  0  0  0  0  0  0  0  0
   -1.8732   -2.3438   -2.2709 H   0  0  0  0  0  0  0  0  0  0  0  0
   -4.2810   -1.8432   -2.2376 H   0  0  0  0  0  0  0  0  0  0  0  0
  1  2  1  0
  2  3  2  0
  2  4  2  0
  2  5  1  0
  5  6  1  0
  6  7  2  0
  7  8  1  0
  8  9  2  0
  9 10  1  0
 10 11  2  0
 10 12  1  0
 12 13  1  0
 13 14  2  0
 14 15  1  0
 15 16  2  0
 16 17  1  0
 17 18  2  0
 17 19  1  0
 19 20  1  0
 20 21  1  0
 21 22  1  0
  9 23  1  0
 23 24  2  0
 24  6  1  0
 18 13  1  0
 22 16  1  0
  1 25  1  0
  1 26  1  0
  1 27  1  0
  5 28  1  0
  7 29  1  0
  8 30  1  0
 12 31  1  0
 14 32  1  0
 15 33  1  0
 18 34  1  0
 20 35  1  0
 20 36  1  0
 21 37  1  0
 21 38  1  0
 23 39  1  0
 24 40  1  0
M  END
$$$$
