
     RDKit          3D

 40 42  0  0  0  0  0  0  0  0999 V2000
   -5.0253   -0.9896    1.0404 C   0  0  0  0  0  0  0  0  0  0  0  0
   -5.3896   -0.1797    0.0359 C   0  0  0  0  0  0  0  0  0  0  0  0
   -4.5440    0.8206   -0.7062 C   0  0  0  0  0  0  0  0  0  0  0  0
   -3.1433    0.8882   -0.2958 N   0  0  0  0  0  0  0  0  0  0  0  0
   -2.1265    0.1969   -0.9085 C   0  0  0  0  0  0  0  0  0  0  0  0
   -0.9467    0.5209   -0.2760 C   0  0  0  0  0  0  0  0  0  0  0  0
    0.3062   -0.0483   -0.6589 C   0  0  0  0  0  0  0  0  0  0  0  0
    1.3134   -0.3389    0.1814 C   0  0  0  0  0  0  0  0  0  0  0  0
    2.5870   -0.9360   -0.2342 C   0  0  0  0  0  0  0  0  0  0  0  0
    3.7663   -0.5072    0.3724 C   0  0  0  0  0  0  0  0  0  0  0  0
    4.9790   -1.0819    0.0084 C   0  0  0  0  0  0  0  0  0  0  0  0
    5.0250   -2.0592   -0.9240 N   0  0  0  0  0  4  0  0  0  0  0  0
    6.3196   -2.6610   -1.2854 C   0  0  0  0  0  0  0  0  0  0  0  0
    3.8921   -2.5095   -1.5075 C   0  0  0  0  0  0  0  0  0  0  0  0
    2.6580   -1.9618   -1.1755 C   0  0  0  0  0  0  0  0  0  0  0  0
   -1.2486    1.4850    0.7362 C   0  0  0  0  0  0  0  0  0  0  0  0
   -0.4846    2.2257    1.6667 C   0  0  0  0  0  0  0  0  0  0  0  0
   -1.1174    3.1075    2.5498 C   0  0  0  0  0  0  0  0  0  0  0  0
   -2.4972    3.2678    2.5182 C   0  0  0  0  0  0  0  0  0  0  0  0
   -3.2789    2.5639    1.5997 C   0  0  0  0  0  0  0  0  0  0  0  0
   -2.6351    1.6858    0.7114 C   0  0  0  0  0  0  0  0  0  0  0  0
   -5.7440   -1.6669    1.4932 H   0  0  0  0  0  0  0  0  0  0  0  0
   -4.0179   -1.0001    1.4459 H   0  0  0  0  0  0  0  0  0  0  0  0
   -6.4239   -0.2318   -0.3019 H   0  0  0  0  0  0  0  0  0  0  0  0
   -4.9694    1.8244   -0.6004 H   0  0  0  0  0  0  0  0  0  0  0  0
   -4.5535    0.5793   -1.7757 H   0  0  0  0  0  0  0  0  0  0  0  0
   -2.3374   -0.4797   -1.7266 H   0  0  0  0  0  0  0  0  0  0  0  0
    0.4091   -0.2739   -1.7182 H   0  0  0  0  0  0  0  0  0  0  0  0
    1.2083   -0.1343    1.2450 H   0  0  0  0  0  0  0  0  0  0  0  0
    3.7504    0.2801    1.1243 H   0  0  0  0  0  0  0  0  0  0  0  0
    5.9163   -0.7685    0.4596 H   0  0  0  0  0  0  0  0  0  0  0  0
    6.2815   -2.9948   -2.3256 H   0  0  0  0  0  0  0  0  0  0  0  0
    6.4881   -3.5043   -0.6112 H   0  0  0  0  0  0  0  0  0  0  0  0
    7.1067   -1.9105   -1.1756 H   0  0  0  0  0  0  0  0  0  0  0  0
    3.9820   -3.3125   -2.2338 H   0  0  0  0  0  0  0  0  0  0  0  0
    1.7577   -2.3520   -1.6465 H   0  0  0  0  0  0  0  0  0  0  0  0
    0.5950    2.1282    1.6993 H   0  0  0  0  0  0  0  0  0  0  0  0
   -0.5254    3.6738    3.2644 H   0  0  0  0  0  0  0  0  0  0  0  0
   -2.9767    3.9543    3.2127 H   0  0  0  0  0  0  0  0  0  0  0  0
   -4.3560    2.6999    1.5834 H   0  0  0  0  0  0  0  0  0  0  0  0
  1  2  2  0
  2  3  1  0
  3  4  1  0
  4  5  1  0
  5  6  2  0
  6  7  1  0
  7  8  2  3
  8  9  1  0
  9 10  2  0
 10 11  1  0
 11 12  2  0
 12 13  1  0
 12 14  1  0
 14 15  2  0
  6 16  1  0
 16 17  2  0
 17 18  1  0
 18 19  2  0
 19 20  1  0
 20 21  2  0
 21  4  1  0
 15  9  1  0
 21 16  1  0
  1 22  1  0
  1 23  1  0
  2 24  1  0
  3 25  1  0
  3 26  1  0
  5 27  1  0
  7 28  1  0
  8 29  1  0
 10 30  1  0
 11 31  1  0
 13 32  1  0
 13 33  1  0
 13 34  1  0
 14 35  1  0
 15 36  1  0
 17 37  1  0
 18 38  1  0
 19 39  1  0
 20 40  1  0
M  CHG  1  12   1
M  END
$$$$
