
     RDKit          3D

 39 40  0  0  0  0  0  0  0  0999 V2000
   -1.2593   -3.0407    1.4218 C   0  0  0  0  0  0  0  0  0  0  0  0
   -1.3915   -1.9886    0.3268 C   0  0  0  0  0  0  0  0  0  0  0  0
   -1.9836   -0.8181    0.9168 O   0  0  0  0  0  0  0  0  0  0  0  0
   -2.8812   -0.2249    0.0658 C   0  0  0  0  0  0  0  0  0  0  0  0
   -2.4075    0.6237   -0.9384 C   0  0  0  0  0  0  0  0  0  0  0  0
   -3.3113    1.2725   -1.7827 C   0  0  0  0  0  0  0  0  0  0  0  0
   -4.6888    1.0771   -1.6050 C   0  0  0  0  0  0  0  0  0  0  0  0
   -5.6400    1.7652   -2.4868 N   0  0  0  0  0  4  0  0  0  0  0  0
   -6.8441    1.5153   -2.3389 O   0  0  0  0  0  0  0  0  0  0  0  0
   -5.1811    2.5552   -3.3232 O   0  0  0  0  0  1  0  0  0  0  0  0
   -5.1690    0.2396   -0.5893 C   0  0  0  0  0  0  0  0  0  0  0  0
   -4.2588   -0.4037    0.2499 C   0  0  0  0  0  0  0  0  0  0  0  0
   -4.8676   -1.4191    1.5047 Cl  0  0  0  0  0  0  0  0  0  0  0  0
    0.0041   -1.6605   -0.2293 C   0  0  0  0  0  0  0  0  0  0  0  0
    0.4042   -2.1761   -1.2685 O   0  0  0  0  0  0  0  0  0  0  0  0
    0.7022   -0.7735    0.5754 N   0  0  0  0  0  0  0  0  0  0  0  0
    2.0081   -0.2832    0.3923 C   0  0  0  0  0  0  0  0  0  0  0  0
    2.8612   -0.7004   -0.6301 C   0  0  0  0  0  0  0  0  0  0  0  0
    4.1501   -0.1638   -0.7420 C   0  0  0  0  0  0  0  0  0  0  0  0
    4.5975    0.8036    0.1628 C   0  0  0  0  0  0  0  0  0  0  0  0
    5.9739    1.3429    0.0011 C   0  0  0  0  0  0  0  0  0  0  0  0
    6.2389    2.5687    0.5472 N   0  0  0  0  0  0  0  0  0  0  0  0
    6.8340    0.7387   -0.6261 O   0  0  0  0  0  0  0  0  0  0  0  0
    3.7525    1.2140    1.1985 C   0  0  0  0  0  0  0  0  0  0  0  0
    2.4658    0.6730    1.3085 C   0  0  0  0  0  0  0  0  0  0  0  0
   -2.2458   -3.3200    1.8060 H   0  0  0  0  0  0  0  0  0  0  0  0
   -0.7608   -3.9412    1.0495 H   0  0  0  0  0  0  0  0  0  0  0  0
   -0.6851   -2.6595    2.2738 H   0  0  0  0  0  0  0  0  0  0  0  0
   -2.0079   -2.3911   -0.4890 H   0  0  0  0  0  0  0  0  0  0  0  0
   -1.3409    0.7936   -1.0675 H   0  0  0  0  0  0  0  0  0  0  0  0
   -2.9284    1.9267   -2.5644 H   0  0  0  0  0  0  0  0  0  0  0  0
   -6.2368    0.0891   -0.4425 H   0  0  0  0  0  0  0  0  0  0  0  0
    0.1760   -0.3970    1.3582 H   0  0  0  0  0  0  0  0  0  0  0  0
    2.5630   -1.4502   -1.3564 H   0  0  0  0  0  0  0  0  0  0  0  0
    4.8031   -0.5070   -1.5430 H   0  0  0  0  0  0  0  0  0  0  0  0
    7.1369    2.9667    0.3008 H   0  0  0  0  0  0  0  0  0  0  0  0
    5.5016    3.2156    0.7852 H   0  0  0  0  0  0  0  0  0  0  0  0
    4.0853    1.9306    1.9435 H   0  0  0  0  0  0  0  0  0  0  0  0
    1.8313    1.0065    2.1264 H   0  0  0  0  0  0  0  0  0  0  0  0
  1  2  1  0
  2  3  1  0
  3  4  1  0
  4  5  2  0
  5  6  1  0
  6  7  2  0
  7  8  1  0
  8  9  2  0
  8 10  1  0
  7 11  1  0
 11 12  2  0
 12 13  1  0
  2 14  1  0
 14 15  2  0
 14 16  1  0
 16 17  1  0
 17 18  2  0
 18 19  1  0
 19 20  2  0
 20 21  1  0
 21 22  1  0
 21 23  2  0
 20 24  1  0
 24 25  2  0
 12  4  1  0
 25 17  1  0
  1 26  1  0
  1 27  1  0
  1 28  1  0
  2 29  1  0
  5 30  1  0
  6 31  1  0
 11 32  1  0
 16 33  1  0
 18 34  1  0
 19 35  1  0
 22 36  1  0
 22 37  1  0
 24 38  1  0
 25 39  1  0
M  CHG  2   8   1  10  -1
M  END
$$$$
