
     RDKit          3D

 57 59  0  0  0  0  0  0  0  0999 V2000
   -1.9792   -0.7701   -6.1383 C   0  0  0  0  0  0  0  0  0  0  0  0
   -1.7890   -0.1505   -4.8363 N   0  0  0  0  0  0  0  0  0  0  0  0
   -2.7611    0.0236   -3.8663 C   0  0  0  0  0  0  0  0  0  0  0  0
   -4.3373   -0.5492   -4.0740 S   0  0  0  0  0  0  0  0  0  0  0  0
   -2.2989    0.7344   -2.7359 N   0  0  0  0  0  0  0  0  0  0  0  0
   -3.1118    0.8570   -1.5018 C   0  0  0  0  0  0  0  0  0  0  0  0
   -3.0538   -0.4111   -0.6223 C   0  0  0  0  0  0  0  0  0  0  0  0
   -2.6910   -0.1481    0.8245 C   0  0  0  0  0  0  0  0  0  0  0  0
   -3.3368    0.8447    1.5743 C   0  0  0  0  0  0  0  0  0  0  0  0
   -2.9852    1.0713    2.9080 C   0  0  0  0  0  0  0  0  0  0  0  0
   -2.0020    0.2909    3.5172 C   0  0  0  0  0  0  0  0  0  0  0  0
   -1.3776   -0.7409    2.8030 C   0  0  0  0  0  0  0  0  0  0  0  0
   -0.3255   -1.5972    3.4493 C   0  0  0  0  0  0  0  0  0  0  0  0
   -1.7211   -0.9447    1.4572 C   0  0  0  0  0  0  0  0  0  0  0  0
   -1.0205    1.4784   -2.7303 C   0  0  0  0  0  0  0  0  0  0  0  0
    0.0012    0.8354   -1.8348 C   0  0  0  0  0  0  0  0  0  0  0  0
    0.3067    1.2920   -0.6029 C   0  0  0  0  0  0  0  0  0  0  0  0
    1.3705    0.6771    0.1951 C   0  0  0  0  0  0  0  0  0  0  0  0
    1.7079    1.1476    1.4677 C   0  0  0  0  0  0  0  0  0  0  0  0
    2.7563    0.5488    2.1799 C   0  0  0  0  0  0  0  0  0  0  0  0
    3.0722    0.9691    3.4536 O   0  0  0  0  0  0  0  0  0  0  0  0
    3.5031    2.3315    3.4635 C   0  0  0  0  0  0  0  0  0  0  0  0
    3.4556   -0.5485    1.6434 C   0  0  0  0  0  0  0  0  0  0  0  0
    4.4668   -1.0587    2.4157 O   0  0  0  0  0  0  0  0  0  0  0  0
    5.1156   -2.2343    1.9588 C   0  0  0  0  0  0  0  0  0  0  0  0
    3.1120   -1.0216    0.3602 C   0  0  0  0  0  0  0  0  0  0  0  0
    2.0782   -0.4044   -0.3474 C   0  0  0  0  0  0  0  0  0  0  0  0
    1.7489   -0.8645   -1.6333 N   0  0  0  0  0  0  0  0  0  0  0  0
    0.7761   -0.3054   -2.4139 C   0  0  0  0  0  0  0  0  0  0  0  0
    0.5689   -0.7238   -3.5532 O   0  0  0  0  0  0  0  0  0  0  0  0
   -2.3045   -1.8072   -6.0060 H   0  0  0  0  0  0  0  0  0  0  0  0
   -1.0248   -0.7424   -6.6807 H   0  0  0  0  0  0  0  0  0  0  0  0
   -2.7245   -0.2109   -6.7011 H   0  0  0  0  0  0  0  0  0  0  0  0
   -0.8690   -0.3548   -4.4321 H   0  0  0  0  0  0  0  0  0  0  0  0
   -4.1649    1.0650   -1.7728 H   0  0  0  0  0  0  0  0  0  0  0  0
   -2.7682    1.7615   -0.9567 H   0  0  0  0  0  0  0  0  0  0  0  0
   -4.0330   -0.9134   -0.6354 H   0  0  0  0  0  0  0  0  0  0  0  0
   -2.3369   -1.1263   -1.0453 H   0  0  0  0  0  0  0  0  0  0  0  0
   -4.1202    1.4538    1.1285 H   0  0  0  0  0  0  0  0  0  0  0  0
   -3.4876    1.8532    3.4775 H   0  0  0  0  0  0  0  0  0  0  0  0
   -1.7354    0.4820    4.5556 H   0  0  0  0  0  0  0  0  0  0  0  0
    0.6736   -1.2594    3.1558 H   0  0  0  0  0  0  0  0  0  0  0  0
   -0.4531   -2.6431    3.1514 H   0  0  0  0  0  0  0  0  0  0  0  0
   -0.3973   -1.5617    4.5427 H   0  0  0  0  0  0  0  0  0  0  0  0
   -1.2218   -1.7348    0.8953 H   0  0  0  0  0  0  0  0  0  0  0  0
   -0.6139    1.5911   -3.7525 H   0  0  0  0  0  0  0  0  0  0  0  0
   -1.2352    2.5053   -2.4078 H   0  0  0  0  0  0  0  0  0  0  0  0
   -0.2233    2.1396   -0.1636 H   0  0  0  0  0  0  0  0  0  0  0  0
    1.1379    1.9512    1.9304 H   0  0  0  0  0  0  0  0  0  0  0  0
    2.6526    3.0150    3.3555 H   0  0  0  0  0  0  0  0  0  0  0  0
    3.9717    2.5298    4.4375 H   0  0  0  0  0  0  0  0  0  0  0  0
    4.2494    2.5217    2.6844 H   0  0  0  0  0  0  0  0  0  0  0  0
    5.6277   -2.0730    1.0124 H   0  0  0  0  0  0  0  0  0  0  0  0
    5.8653   -2.5109    2.7032 H   0  0  0  0  0  0  0  0  0  0  0  0
    4.4077   -3.0585    1.8728 H   0  0  0  0  0  0  0  0  0  0  0  0
    3.6340   -1.8573   -0.0955 H   0  0  0  0  0  0  0  0  0  0  0  0
    2.2444   -1.6442   -2.0484 H   0  0  0  0  0  0  0  0  0  0  0  0
  1  2  1  0
  2  3  1  0
  3  4  2  0
  3  5  1  0
  5  6  1  0
  6  7  1  0
  7  8  1  0
  8  9  2  0
  9 10  1  0
 10 11  2  0
 11 12  1  0
 12 13  1  0
 12 14  2  0
  5 15  1  0
 15 16  1  0
 16 17  2  0
 17 18  1  0
 18 19  2  0
 19 20  1  0
 20 21  1  0
 21 22  1  0
 20 23  2  0
 23 24  1  0
 24 25  1  0
 23 26  1  0
 26 27  2  0
 27 28  1  0
 28 29  1  0
 29 30  2  0
 14  8  1  0
 29 16  1  0
 27 18  1  0
  1 31  1  0
  1 32  1  0
  1 33  1  0
  2 34  1  0
  6 35  1  0
  6 36  1  0
  7 37  1  0
  7 38  1  0
  9 39  1  0
 10 40  1  0
 11 41  1  0
 13 42  1  0
 13 43  1  0
 13 44  1  0
 14 45  1  0
 15 46  1  0
 15 47  1  0
 17 48  1  0
 19 49  1  0
 22 50  1  0
 22 51  1  0
 22 52  1  0
 25 53  1  0
 25 54  1  0
 25 55  1  0
 26 56  1  0
 28 57  1  0
M  END
$$$$
