
     RDKit          3D

 57 60  0  0  0  0  0  0  0  0999 V2000
    8.8712    2.4260   -1.6937 C   0  0  0  0  0  0  0  0  0  0  0  0
    7.6126    1.6193   -1.4192 C   0  0  0  0  0  0  0  0  0  0  0  0
    7.0442    2.0865   -0.1968 O   0  0  0  0  0  0  0  0  0  0  0  0
    5.8778    1.4938    0.2001 C   0  0  0  0  0  0  0  0  0  0  0  0
    5.1503    2.2019    1.1618 C   0  0  0  0  0  0  0  0  0  0  0  0
    3.9578    1.6789    1.6806 C   0  0  0  0  0  0  0  0  0  0  0  0
    3.4728    0.4379    1.2492 C   0  0  0  0  0  0  0  0  0  0  0  0
    2.3250   -0.0688    1.8940 N   0  0  0  0  0  0  0  0  0  0  0  0
    1.7459   -1.3155    1.7177 C   0  0  0  0  0  0  0  0  0  0  0  0
    2.0425   -2.1229    0.8445 O   0  0  0  0  0  0  0  0  0  0  0  0
    0.7255   -1.6495    2.7970 C   0  0  0  0  0  0  0  0  0  0  0  0
   -0.8206   -2.2620    2.0878 S   0  0  0  0  0  0  0  0  0  0  0  0
   -1.5202   -0.7915    1.4865 C   0  0  0  0  0  0  0  0  0  0  0  0
   -0.9514    0.3878    1.5609 N   0  0  0  0  0  0  0  0  0  0  0  0
   -1.8432    1.3179    1.1036 N   0  0  0  0  0  0  0  0  0  0  0  0
   -2.9481    0.6866    0.7422 C   0  0  0  0  0  0  0  0  0  0  0  0
   -4.0950    1.3341    0.0332 C   0  0  0  0  0  0  0  0  0  0  0  0
   -4.2946    0.8356   -1.3659 C   0  0  0  0  0  0  0  0  0  0  0  0
   -5.3528    0.1138   -1.8937 C   0  0  0  0  0  0  0  0  0  0  0  0
   -5.0803   -0.1245   -3.2607 C   0  0  0  0  0  0  0  0  0  0  0  0
   -3.8754    0.4700   -3.5410 C   0  0  0  0  0  0  0  0  0  0  0  0
   -3.4038    1.0586   -2.3950 N   0  0  0  0  0  0  0  0  0  0  0  0
   -2.1552    1.7914   -2.3172 C   0  0  0  0  0  0  0  0  0  0  0  0
   -2.8141   -0.6723    1.0092 N   0  0  0  0  0  0  0  0  0  0  0  0
   -3.7870   -1.6914    0.8298 C   0  0  0  0  0  0  0  0  0  0  0  0
   -5.0873   -1.5147    1.3319 C   0  0  0  0  0  0  0  0  0  0  0  0
   -6.0399   -2.5192    1.1543 C   0  0  0  0  0  0  0  0  0  0  0  0
   -5.6933   -3.6796    0.4752 C   0  0  0  0  0  0  0  0  0  0  0  0
   -6.6133   -4.6385    0.3088 F   0  0  0  0  0  0  0  0  0  0  0  0
   -4.4080   -3.8622   -0.0284 C   0  0  0  0  0  0  0  0  0  0  0  0
   -3.4466   -2.8689    0.1531 C   0  0  0  0  0  0  0  0  0  0  0  0
    4.1831   -0.2463    0.2619 C   0  0  0  0  0  0  0  0  0  0  0  0
    5.3771    0.2761   -0.2604 C   0  0  0  0  0  0  0  0  0  0  0  0
    9.3101    2.1429   -2.6577 H   0  0  0  0  0  0  0  0  0  0  0  0
    9.6077    2.2599   -0.8981 H   0  0  0  0  0  0  0  0  0  0  0  0
    8.6585    3.4998   -1.7127 H   0  0  0  0  0  0  0  0  0  0  0  0
    7.8867    0.5597   -1.3396 H   0  0  0  0  0  0  0  0  0  0  0  0
    6.9042    1.7603   -2.2462 H   0  0  0  0  0  0  0  0  0  0  0  0
    5.5064    3.1669    1.5005 H   0  0  0  0  0  0  0  0  0  0  0  0
    3.4244    2.2621    2.4274 H   0  0  0  0  0  0  0  0  0  0  0  0
    1.8824    0.5517    2.5639 H   0  0  0  0  0  0  0  0  0  0  0  0
    0.5257   -0.7967    3.4530 H   0  0  0  0  0  0  0  0  0  0  0  0
    1.1600   -2.4411    3.4177 H   0  0  0  0  0  0  0  0  0  0  0  0
   -5.0122    1.2150    0.6097 H   0  0  0  0  0  0  0  0  0  0  0  0
   -3.9228    2.4142   -0.0006 H   0  0  0  0  0  0  0  0  0  0  0  0
   -6.2292   -0.2160   -1.3510 H   0  0  0  0  0  0  0  0  0  0  0  0
   -5.6991   -0.6664   -3.9649 H   0  0  0  0  0  0  0  0  0  0  0  0
   -3.3144    0.5309   -4.4645 H   0  0  0  0  0  0  0  0  0  0  0  0
   -1.7783    1.9759   -3.3295 H   0  0  0  0  0  0  0  0  0  0  0  0
   -1.4351    1.1881   -1.7584 H   0  0  0  0  0  0  0  0  0  0  0  0
   -2.3408    2.7466   -1.8172 H   0  0  0  0  0  0  0  0  0  0  0  0
   -5.3658   -0.6301    1.8987 H   0  0  0  0  0  0  0  0  0  0  0  0
   -7.0508   -2.4077    1.5458 H   0  0  0  0  0  0  0  0  0  0  0  0
   -4.1661   -4.7699   -0.5688 H   0  0  0  0  0  0  0  0  0  0  0  0
   -2.4539   -3.0166   -0.2746 H   0  0  0  0  0  0  0  0  0  0  0  0
    3.8477   -1.2020   -0.1195 H   0  0  0  0  0  0  0  0  0  0  0  0
    5.8991   -0.3158   -0.9959 H   0  0  0  0  0  0  0  0  0  0  0  0
  1  2  1  0
  2  3  1  0
  3  4  1  0
  4  5  2  0
  5  6  1  0
  6  7  2  0
  7  8  1  0
  8  9  1  0
  9 10  2  0
  9 11  1  0
 11 12  1  0
 12 13  1  0
 13 14  2  0
 14 15  1  0
 15 16  2  0
 16 17  1  0
 17 18  1  0
 18 19  2  0
 19 20  1  0
 20 21  2  0
 21 22  1  0
 22 23  1  0
 16 24  1  0
 24 25  1  0
 25 26  2  0
 26 27  1  0
 27 28  2  0
 28 29  1  0
 28 30  1  0
 30 31  2  0
  7 32  1  0
 32 33  2  0
 33  4  1  0
 24 13  1  0
 31 25  1  0
 22 18  1  0
  1 34  1  0
  1 35  1  0
  1 36  1  0
  2 37  1  0
  2 38  1  0
  5 39  1  0
  6 40  1  0
  8 41  1  0
 11 42  1  0
 11 43  1  0
 17 44  1  0
 17 45  1  0
 19 46  1  0
 20 47  1  0
 21 48  1  0
 23 49  1  0
 23 50  1  0
 23 51  1  0
 26 52  1  0
 27 53  1  0
 30 54  1  0
 31 55  1  0
 32 56  1  0
 33 57  1  0
M  END
$$$$
