
     RDKit          3D

 39 41  0  0  0  0  0  0  0  0999 V2000
   -1.0118   -2.3854   -1.2887 O   0  0  0  0  0  0  0  0  0  0  0  0
   -1.3491   -1.5148   -0.1856 S   0  0  0  0  0  6  0  0  0  0  0  0
   -1.4608   -2.0021    1.1714 O   0  0  0  0  0  0  0  0  0  0  0  0
   -0.2804   -0.2293   -0.2129 N   0  0  0  0  0  0  0  0  0  0  0  0
   -0.0594    0.5577    1.0137 C   0  0  0  0  0  0  0  0  0  0  0  0
    1.0901   -0.0209    1.8450 C   0  0  0  0  0  0  0  0  0  0  0  0
    2.4130    0.0640    1.1546 C   0  0  0  0  0  0  0  0  0  0  0  0
    3.6342    0.4468    1.6704 C   0  0  0  0  0  0  0  0  0  0  0  0
    4.5299    0.3289    0.6381 N   0  0  0  0  0  0  0  0  0  0  0  0
    5.8983    0.5871    0.6152 C   0  0  0  0  0  0  0  0  0  0  0  0
    6.5802    0.3958   -0.5272 C   0  0  0  0  0  0  0  0  0  0  0  0
    5.8651   -0.0775   -1.7037 C   0  0  0  0  0  0  0  0  0  0  0  0
    4.5406   -0.3252   -1.6721 C   0  0  0  0  0  0  0  0  0  0  0  0
    3.8129   -0.1217   -0.4652 C   0  0  0  0  0  0  0  0  0  0  0  0
    2.5385   -0.2845   -0.1758 N   0  0  0  0  0  0  0  0  0  0  0  0
   -2.8757   -0.7037   -0.6124 C   0  0  0  0  0  0  0  0  0  0  0  0
   -3.1096   -0.3519   -1.9456 C   0  0  0  0  0  0  0  0  0  0  0  0
   -4.3103    0.2675   -2.2890 C   0  0  0  0  0  0  0  0  0  0  0  0
   -5.2635    0.5229   -1.3044 C   0  0  0  0  0  0  0  0  0  0  0  0
   -6.4087    1.1203   -1.6588 F   0  0  0  0  0  0  0  0  0  0  0  0
   -5.0480    0.1694    0.0278 C   0  0  0  0  0  0  0  0  0  0  0  0
   -6.1119    0.4653    1.0422 C   0  0  0  0  0  0  0  0  0  0  0  0
   -5.7579    0.0943    2.3063 F   0  0  0  0  0  0  0  0  0  0  0  0
   -6.4103    1.7909    1.1251 F   0  0  0  0  0  0  0  0  0  0  0  0
   -7.2838   -0.1773    0.7872 F   0  0  0  0  0  0  0  0  0  0  0  0
   -3.8390   -0.4564    0.3738 C   0  0  0  0  0  0  0  0  0  0  0  0
    0.5850   -0.4325   -0.7360 H   0  0  0  0  0  0  0  0  0  0  0  0
   -0.9779    0.6089    1.6076 H   0  0  0  0  0  0  0  0  0  0  0  0
    0.1758    1.5847    0.7098 H   0  0  0  0  0  0  0  0  0  0  0  0
    1.1445    0.5285    2.7928 H   0  0  0  0  0  0  0  0  0  0  0  0
    0.8962   -1.0703    2.0937 H   0  0  0  0  0  0  0  0  0  0  0  0
    3.9354    0.7747    2.6546 H   0  0  0  0  0  0  0  0  0  0  0  0
    6.3585    0.9340    1.5311 H   0  0  0  0  0  0  0  0  0  0  0  0
    7.6468    0.5804   -0.5986 H   0  0  0  0  0  0  0  0  0  0  0  0
    6.4345   -0.2301   -2.6159 H   0  0  0  0  0  0  0  0  0  0  0  0
    4.0071   -0.6814   -2.5458 H   0  0  0  0  0  0  0  0  0  0  0  0
   -2.3641   -0.5582   -2.7112 H   0  0  0  0  0  0  0  0  0  0  0  0
   -4.5120    0.5512   -3.3182 H   0  0  0  0  0  0  0  0  0  0  0  0
   -3.6523   -0.7499    1.4066 H   0  0  0  0  0  0  0  0  0  0  0  0
  1  2  2  0
  2  3  2  0
  2  4  1  0
  4  5  1  0
  5  6  1  0
  6  7  1  0
  7  8  2  0
  8  9  1  0
  9 10  1  0
 10 11  2  0
 11 12  1  0
 12 13  2  0
 13 14  1  0
 14 15  2  0
  2 16  1  0
 16 17  2  0
 17 18  1  0
 18 19  2  0
 19 20  1  0
 19 21  1  0
 21 22  1  0
 22 23  1  0
 22 24  1  0
 22 25  1  0
 21 26  2  0
 15  7  1  0
 26 16  1  0
 14  9  1  0
  4 27  1  0
  5 28  1  0
  5 29  1  0
  6 30  1  0
  6 31  1  0
  8 32  1  0
 10 33  1  0
 11 34  1  0
 12 35  1  0
 13 36  1  0
 17 37  1  0
 18 38  1  0
 26 39  1  0
M  END
$$$$
