
     RDKit          3D

 42 44  0  0  0  0  0  0  0  0999 V2000
    3.3833    1.9274    0.8534 O   0  0  0  0  0  0  0  0  0  0  0  0
    2.3449    1.3923    0.4759 C   0  0  0  0  0  0  0  0  0  0  0  0
    2.1784    0.0467    0.2163 N   0  0  0  0  0  0  0  0  0  0  0  0
    3.1241   -0.9977    0.3728 C   0  0  0  0  0  0  0  0  0  0  0  0
    4.4580   -0.7725    0.7280 C   0  0  0  0  0  0  0  0  0  0  0  0
    5.3556   -1.8388    0.8603 C   0  0  0  0  0  0  0  0  0  0  0  0
    4.9329   -3.1469    0.6427 C   0  0  0  0  0  0  0  0  0  0  0  0
    3.6073   -3.3931    0.2956 C   0  0  0  0  0  0  0  0  0  0  0  0
    2.7098   -2.3279    0.1635 C   0  0  0  0  0  0  0  0  0  0  0  0
    1.0660   -2.7137   -0.2240 Cl  0  0  0  0  0  0  0  0  0  0  0  0
    1.1489    2.2716    0.2700 C   0  0  0  0  0  0  0  0  0  0  0  0
    1.4068    3.6126   -0.0656 C   0  0  0  0  0  0  0  0  0  0  0  0
    0.3630    4.5226   -0.2331 C   0  0  0  0  0  0  0  0  0  0  0  0
   -0.9519    4.1095   -0.0467 C   0  0  0  0  0  0  0  0  0  0  0  0
   -1.2268    2.7850    0.2982 C   0  0  0  0  0  0  0  0  0  0  0  0
   -0.1846    1.8532    0.4384 C   0  0  0  0  0  0  0  0  0  0  0  0
   -0.4136    0.5389    0.7966 O   0  0  0  0  0  0  0  0  0  0  0  0
   -1.6229   -0.0341    0.4863 C   0  0  0  0  0  0  0  0  0  0  0  0
   -2.3983   -0.4428    1.5754 C   0  0  0  0  0  0  0  0  0  0  0  0
   -3.6387   -1.0558    1.3718 C   0  0  0  0  0  0  0  0  0  0  0  0
   -4.1187   -1.2925    0.0735 C   0  0  0  0  0  0  0  0  0  0  0  0
   -5.4710   -1.9336   -0.1439 C   0  0  0  0  0  0  0  0  0  0  0  0
   -6.4573   -1.0082   -0.2868 F   0  0  0  0  0  0  0  0  0  0  0  0
   -5.5130   -2.7081   -1.2618 F   0  0  0  0  0  0  0  0  0  0  0  0
   -5.8523   -2.7382    0.8851 F   0  0  0  0  0  0  0  0  0  0  0  0
   -3.3323   -0.8984   -1.0219 C   0  0  0  0  0  0  0  0  0  0  0  0
   -2.0846   -0.2875   -0.8106 C   0  0  0  0  0  0  0  0  0  0  0  0
   -1.2885    0.0622   -1.9798 N   0  0  0  0  0  4  0  0  0  0  0  0
   -0.0655   -0.1206   -1.9228 O   0  0  0  0  0  0  0  0  0  0  0  0
   -1.8979    0.5076   -2.9618 O   0  0  0  0  0  1  0  0  0  0  0  0
    1.2729   -0.2494   -0.1409 H   0  0  0  0  0  0  0  0  0  0  0  0
    4.8412    0.2283    0.9002 H   0  0  0  0  0  0  0  0  0  0  0  0
    6.3895   -1.6382    1.1326 H   0  0  0  0  0  0  0  0  0  0  0  0
    5.6339   -3.9711    0.7461 H   0  0  0  0  0  0  0  0  0  0  0  0
    3.2765   -4.4155    0.1335 H   0  0  0  0  0  0  0  0  0  0  0  0
    2.4332    3.9541   -0.1944 H   0  0  0  0  0  0  0  0  0  0  0  0
    0.5808    5.5554   -0.4951 H   0  0  0  0  0  0  0  0  0  0  0  0
   -1.7649    4.8232   -0.1594 H   0  0  0  0  0  0  0  0  0  0  0  0
   -2.2638    2.5093    0.4694 H   0  0  0  0  0  0  0  0  0  0  0  0
   -2.0387   -0.2779    2.5900 H   0  0  0  0  0  0  0  0  0  0  0  0
   -4.2305   -1.3554    2.2375 H   0  0  0  0  0  0  0  0  0  0  0  0
   -3.6915   -1.0821   -2.0357 H   0  0  0  0  0  0  0  0  0  0  0  0
  1  2  2  0
  2  3  1  0
  3  4  1  0
  4  5  2  0
  5  6  1  0
  6  7  2  0
  7  8  1  0
  8  9  2  0
  9 10  1  0
  2 11  1  0
 11 12  2  0
 12 13  1  0
 13 14  2  0
 14 15  1  0
 15 16  2  0
 16 17  1  0
 17 18  1  0
 18 19  2  0
 19 20  1  0
 20 21  2  0
 21 22  1  0
 22 23  1  0
 22 24  1  0
 22 25  1  0
 21 26  1  0
 26 27  2  0
 27 28  1  0
 28 29  2  0
 28 30  1  0
  9  4  1  0
 16 11  1  0
 27 18  1  0
  3 31  1  0
  5 32  1  0
  6 33  1  0
  7 34  1  0
  8 35  1  0
 12 36  1  0
 13 37  1  0
 14 38  1  0
 15 39  1  0
 19 40  1  0
 20 41  1  0
 26 42  1  0
M  CHG  2  28   1  30  -1
M  END
$$$$
