
     RDKit          3D

 39 39  0  0  0  0  0  0  0  0999 V2000
   -1.5251    3.9028   -0.1057 C   0  0  0  0  0  0  0  0  0  0  0  0
   -1.6716    2.4959    0.3864 C   0  0  0  0  0  0  0  0  0  0  0  0
   -1.0757    2.0326    1.3480 O   0  0  0  0  0  0  0  0  0  0  0  0
   -2.5489    1.8183   -0.3995 O   0  0  0  0  0  0  0  0  0  0  0  0
   -2.8347    0.4538   -0.0431 C   0  0  0  0  0  0  0  0  0  0  0  0
   -2.0684   -0.5035   -0.9555 C   0  0  0  0  0  0  0  0  0  0  0  0
   -0.6140   -0.7404   -0.5057 C   0  0  0  0  0  0  0  0  0  0  0  0
    0.1065   -1.4199   -1.6095 N   0  0  0  0  0  0  0  0  0  0  0  0
    1.2310   -0.4943   -2.4328 S   0  0  0  0  0  6  0  0  0  0  0  0
    0.6051    0.7462   -2.8244 O   0  0  0  0  0  0  0  0  0  0  0  0
    1.8655   -1.3634   -3.3948 O   0  0  0  0  0  0  0  0  0  0  0  0
    2.3275   -0.1632   -1.2891 O   0  0  0  0  0  0  0  0  0  0  0  0
    3.4056    0.7065   -1.6302 C   0  0  0  0  0  0  0  0  0  0  0  0
    3.5600    1.8449   -0.6104 C   0  0  0  0  0  0  0  0  0  0  0  0
    3.8377    1.1846    1.0323 Cl  0  0  0  0  0  0  0  0  0  0  0  0
    4.9684    2.8591   -1.0583 Cl  0  0  0  0  0  0  0  0  0  0  0  0
    2.1023    2.8798   -0.5751 Cl  0  0  0  0  0  0  0  0  0  0  0  0
   -0.5102   -1.5735    0.7631 C   0  0  0  0  0  0  0  0  0  0  0  0
    0.1548   -1.0577    1.8859 C   0  0  0  0  0  0  0  0  0  0  0  0
    0.2805   -1.8165    3.0505 C   0  0  0  0  0  0  0  0  0  0  0  0
   -0.2508   -3.1026    3.1075 C   0  0  0  0  0  0  0  0  0  0  0  0
   -0.9085   -3.6322    2.0001 C   0  0  0  0  0  0  0  0  0  0  0  0
   -1.0363   -2.8747    0.8345 C   0  0  0  0  0  0  0  0  0  0  0  0
   -2.4954    4.4056   -0.0862 H   0  0  0  0  0  0  0  0  0  0  0  0
   -1.1135    3.9003   -1.1180 H   0  0  0  0  0  0  0  0  0  0  0  0
   -0.8395    4.4466    0.5503 H   0  0  0  0  0  0  0  0  0  0  0  0
   -3.9079    0.3220   -0.2199 H   0  0  0  0  0  0  0  0  0  0  0  0
   -2.6691    0.2572    1.0216 H   0  0  0  0  0  0  0  0  0  0  0  0
   -2.6094   -1.4560   -1.0057 H   0  0  0  0  0  0  0  0  0  0  0  0
   -2.0686   -0.0916   -1.9734 H   0  0  0  0  0  0  0  0  0  0  0  0
   -0.1465    0.2320   -0.3188 H   0  0  0  0  0  0  0  0  0  0  0  0
    0.5173   -2.3156   -1.3485 H   0  0  0  0  0  0  0  0  0  0  0  0
    4.3133    0.0917   -1.6592 H   0  0  0  0  0  0  0  0  0  0  0  0
    3.2735    1.1176   -2.6396 H   0  0  0  0  0  0  0  0  0  0  0  0
    0.5735   -0.0521    1.8695 H   0  0  0  0  0  0  0  0  0  0  0  0
    0.7920   -1.3993    3.9145 H   0  0  0  0  0  0  0  0  0  0  0  0
   -0.1522   -3.6912    4.0160 H   0  0  0  0  0  0  0  0  0  0  0  0
   -1.3213   -4.6368    2.0440 H   0  0  0  0  0  0  0  0  0  0  0  0
   -1.5468   -3.3129   -0.0207 H   0  0  0  0  0  0  0  0  0  0  0  0
  1  2  1  0
  2  3  2  0
  2  4  1  0
  4  5  1  0
  5  6  1  0
  6  7  1  0
  7  8  1  0
  8  9  1  0
  9 10  2  0
  9 11  2  0
  9 12  1  0
 12 13  1  0
 13 14  1  0
 14 15  1  0
 14 16  1  0
 14 17  1  0
  7 18  1  0
 18 19  2  0
 19 20  1  0
 20 21  2  0
 21 22  1  0
 22 23  2  0
 23 18  1  0
  1 24  1  0
  1 25  1  0
  1 26  1  0
  5 27  1  0
  5 28  1  0
  6 29  1  0
  6 30  1  0
  7 31  1  0
  8 32  1  0
 13 33  1  0
 13 34  1  0
 19 35  1  0
 20 36  1  0
 21 37  1  0
 22 38  1  0
 23 39  1  0
M  END
$$$$
