
     RDKit          3D

 38 39  0  0  0  0  0  0  0  0999 V2000
   -3.2238    1.3285    2.1169 C   0  0  0  0  0  0  0  0  0  0  0  0
   -3.5959    1.5045    0.7453 O   0  0  0  0  0  0  0  0  0  0  0  0
   -4.1523    0.3559    0.2540 C   0  0  0  0  0  0  0  0  0  0  0  0
   -5.5409    0.2228    0.3424 C   0  0  0  0  0  0  0  0  0  0  0  0
   -6.1614   -0.9451   -0.1032 C   0  0  0  0  0  0  0  0  0  0  0  0
   -5.3985   -1.9715   -0.6539 C   0  0  0  0  0  0  0  0  0  0  0  0
   -4.0150   -1.8251   -0.7747 C   0  0  0  0  0  0  0  0  0  0  0  0
   -3.3861   -0.6513   -0.3385 C   0  0  0  0  0  0  0  0  0  0  0  0
   -1.9149   -0.5643   -0.4995 C   0  0  0  0  0  0  0  0  0  0  0  0
   -1.2406   -1.5592   -0.2315 O   0  0  0  0  0  0  0  0  0  0  0  0
   -1.3163    0.7080   -1.0897 C   0  0  0  0  0  0  0  0  0  0  0  0
    0.1136    0.6801   -1.0227 O   0  0  0  0  0  0  0  0  0  0  0  0
    0.6154    0.9975    0.1953 C   0  0  0  0  0  0  0  0  0  0  0  0
   -0.0256    1.4013    1.1556 O   0  0  0  0  0  0  0  0  0  0  0  0
    2.0850    0.8605    0.2392 C   0  0  0  0  0  0  0  0  0  0  0  0
    2.7979    0.1389   -0.6396 C   0  0  0  0  0  0  0  0  0  0  0  0
    4.2631   -0.0096   -0.6110 C   0  0  0  0  0  0  0  0  0  0  0  0
    5.0210    0.1029    0.5648 C   0  0  0  0  0  0  0  0  0  0  0  0
    6.4095   -0.0614    0.5384 C   0  0  0  0  0  0  0  0  0  0  0  0
    7.0559   -0.3537   -0.6610 C   0  0  0  0  0  0  0  0  0  0  0  0
    6.3149   -0.4852   -1.8328 C   0  0  0  0  0  0  0  0  0  0  0  0
    4.9270   -0.3180   -1.8075 C   0  0  0  0  0  0  0  0  0  0  0  0
   -2.4756    0.5348    2.2297 H   0  0  0  0  0  0  0  0  0  0  0  0
   -2.7828    2.2674    2.4668 H   0  0  0  0  0  0  0  0  0  0  0  0
   -4.1019    1.1136    2.7363 H   0  0  0  0  0  0  0  0  0  0  0  0
   -6.1377    1.0231    0.7777 H   0  0  0  0  0  0  0  0  0  0  0  0
   -7.2396   -1.0554   -0.0121 H   0  0  0  0  0  0  0  0  0  0  0  0
   -5.8773   -2.8893   -0.9829 H   0  0  0  0  0  0  0  0  0  0  0  0
   -3.4262   -2.6314   -1.2082 H   0  0  0  0  0  0  0  0  0  0  0  0
   -1.5835    0.7368   -2.1499 H   0  0  0  0  0  0  0  0  0  0  0  0
   -1.6933    1.6224   -0.6281 H   0  0  0  0  0  0  0  0  0  0  0  0
    2.5429    1.3823    1.0723 H   0  0  0  0  0  0  0  0  0  0  0  0
    2.2926   -0.3777   -1.4510 H   0  0  0  0  0  0  0  0  0  0  0  0
    4.5463    0.3100    1.5191 H   0  0  0  0  0  0  0  0  0  0  0  0
    6.9841    0.0347    1.4577 H   0  0  0  0  0  0  0  0  0  0  0  0
    8.1349   -0.4842   -0.6795 H   0  0  0  0  0  0  0  0  0  0  0  0
    6.8154   -0.7197   -2.7686 H   0  0  0  0  0  0  0  0  0  0  0  0
    4.3702   -0.4236   -2.7366 H   0  0  0  0  0  0  0  0  0  0  0  0
  1  2  1  0
  2  3  1  0
  3  4  2  0
  4  5  1  0
  5  6  2  0
  6  7  1  0
  7  8  2  0
  8  9  1  0
  9 10  2  0
  9 11  1  0
 11 12  1  0
 12 13  1  0
 13 14  2  0
 13 15  1  0
 15 16  2  3
 16 17  1  0
 17 18  2  0
 18 19  1  0
 19 20  2  0
 20 21  1  0
 21 22  2  0
  8  3  1  0
 22 17  1  0
  1 23  1  0
  1 24  1  0
  1 25  1  0
  4 26  1  0
  5 27  1  0
  6 28  1  0
  7 29  1  0
 11 30  1  0
 11 31  1  0
 15 32  1  0
 16 33  1  0
 18 34  1  0
 19 35  1  0
 20 36  1  0
 21 37  1  0
 22 38  1  0
M  END
$$$$
