
     RDKit          3D

 63 66  0  0  0  0  0  0  0  0999 V2000
    1.8400    1.2919   -3.2241 C   0  0  0  0  0  0  0  0  0  0  0  0
    2.0432    1.6174   -1.7721 C   0  0  0  0  0  0  0  0  0  0  0  0
    1.0149    1.5438   -0.9741 N   0  0  0  0  0  0  0  0  0  0  0  0
    1.1392    1.8318    0.3895 N   0  0  0  0  0  0  0  0  0  0  0  0
   -0.0863    1.7117    1.1747 C   0  0  0  0  0  0  0  0  0  0  0  0
   -0.2522    0.3094    1.7444 C   0  0  0  0  0  0  0  0  0  0  0  0
   -1.5563    0.1849    2.4977 C   0  0  0  0  0  0  0  0  0  0  0  0
   -2.3450    1.1125    2.6423 O   0  0  0  0  0  0  0  0  0  0  0  0
   -1.7652   -1.0786    3.0063 N   0  0  0  0  0  0  0  0  0  0  0  0
   -3.0036   -1.4392    3.6594 C   0  0  0  0  0  0  0  0  0  0  0  0
   -3.9440   -2.1114    2.6933 C   0  0  0  0  0  0  0  0  0  0  0  0
   -4.7236   -1.3445    1.8172 C   0  0  0  0  0  0  0  0  0  0  0  0
   -5.5871   -1.9560    0.9011 C   0  0  0  0  0  0  0  0  0  0  0  0
   -5.6781   -3.3451    0.8429 C   0  0  0  0  0  0  0  0  0  0  0  0
   -6.4762   -4.0754    0.0081 O   0  0  0  0  0  0  0  0  0  0  0  0
   -7.2529   -3.4014   -0.9875 C   0  0  0  0  0  0  0  0  0  0  0  0
   -7.4686   -4.4006   -2.1233 C   0  0  0  0  0  0  0  0  0  0  0  0
   -8.5987   -2.9784   -0.4040 C   0  0  0  0  0  0  0  0  0  0  0  0
   -4.8996   -4.1130    1.7130 C   0  0  0  0  0  0  0  0  0  0  0  0
   -4.0355   -3.5062    2.6284 C   0  0  0  0  0  0  0  0  0  0  0  0
    2.3488    2.1468    1.0481 C   0  0  0  0  0  0  0  0  0  0  0  0
    2.4403    2.3111    2.2647 O   0  0  0  0  0  0  0  0  0  0  0  0
    3.4754    2.2501    0.1293 C   0  0  0  0  0  0  0  0  0  0  0  0
    4.7234    2.6051    0.4437 N   0  0  0  0  0  0  0  0  0  0  0  0
    5.4250    2.5100   -0.7196 N   0  0  0  0  0  0  0  0  0  0  0  0
    6.8464    2.6660   -0.6719 C   0  0  0  0  0  0  0  0  0  0  0  0
    7.4235    3.2422    0.4723 C   0  0  0  0  0  0  0  0  0  0  0  0
    8.8063    3.4186    0.5639 C   0  0  0  0  0  0  0  0  0  0  0  0
    9.6308    3.0088   -0.4780 C   0  0  0  0  0  0  0  0  0  0  0  0
    9.0743    2.4101   -1.6048 C   0  0  0  0  0  0  0  0  0  0  0  0
    7.6892    2.2318   -1.7015 C   0  0  0  0  0  0  0  0  0  0  0  0
    4.5676    2.2658   -1.8023 C   0  0  0  0  0  0  0  0  0  0  0  0
    4.9588    2.3618   -3.2332 C   0  0  0  0  0  0  0  0  0  0  0  0
    3.3287    2.0045   -1.2403 C   0  0  0  0  0  0  0  0  0  0  0  0
    0.8716    0.8043   -3.3716 H   0  0  0  0  0  0  0  0  0  0  0  0
    1.8541    2.2143   -3.8101 H   0  0  0  0  0  0  0  0  0  0  0  0
    2.6252    0.6184   -3.5751 H   0  0  0  0  0  0  0  0  0  0  0  0
   -0.9332    1.9756    0.5281 H   0  0  0  0  0  0  0  0  0  0  0  0
   -0.0606    2.4498    1.9863 H   0  0  0  0  0  0  0  0  0  0  0  0
    0.5718    0.0737    2.4273 H   0  0  0  0  0  0  0  0  0  0  0  0
   -0.2421   -0.4302    0.9349 H   0  0  0  0  0  0  0  0  0  0  0  0
   -1.1608   -1.8314    2.7062 H   0  0  0  0  0  0  0  0  0  0  0  0
   -2.7520   -2.1172    4.4825 H   0  0  0  0  0  0  0  0  0  0  0  0
   -3.4805   -0.5570    4.1007 H   0  0  0  0  0  0  0  0  0  0  0  0
   -4.6593   -0.2565    1.8441 H   0  0  0  0  0  0  0  0  0  0  0  0
   -6.1739   -1.3107    0.2566 H   0  0  0  0  0  0  0  0  0  0  0  0
   -6.7172   -2.5449   -1.4113 H   0  0  0  0  0  0  0  0  0  0  0  0
   -7.9719   -5.3056   -1.7634 H   0  0  0  0  0  0  0  0  0  0  0  0
   -6.5050   -4.7213   -2.5352 H   0  0  0  0  0  0  0  0  0  0  0  0
   -8.0641   -3.9634   -2.9323 H   0  0  0  0  0  0  0  0  0  0  0  0
   -9.1259   -3.8349    0.0284 H   0  0  0  0  0  0  0  0  0  0  0  0
   -9.2372   -2.5249   -1.1682 H   0  0  0  0  0  0  0  0  0  0  0  0
   -8.4683   -2.2543    0.4026 H   0  0  0  0  0  0  0  0  0  0  0  0
   -4.9685   -5.1974    1.6751 H   0  0  0  0  0  0  0  0  0  0  0  0
   -3.4408   -4.1314    3.2891 H   0  0  0  0  0  0  0  0  0  0  0  0
    6.8042    3.5743    1.3040 H   0  0  0  0  0  0  0  0  0  0  0  0
    9.2334    3.8760    1.4514 H   0  0  0  0  0  0  0  0  0  0  0  0
   10.7067    3.1439   -0.4060 H   0  0  0  0  0  0  0  0  0  0  0  0
    9.7217    2.0685   -2.4078 H   0  0  0  0  0  0  0  0  0  0  0  0
    7.3197    1.7080   -2.5739 H   0  0  0  0  0  0  0  0  0  0  0  0
    5.7287    3.1219   -3.3956 H   0  0  0  0  0  0  0  0  0  0  0  0
    4.1117    2.6725   -3.8532 H   0  0  0  0  0  0  0  0  0  0  0  0
    5.3095    1.3934   -3.6064 H   0  0  0  0  0  0  0  0  0  0  0  0
  1  2  1  0
  2  3  2  0
  3  4  1  0
  4  5  1  0
  5  6  1  0
  6  7  1  0
  7  8  2  0
  7  9  1  0
  9 10  1  0
 10 11  1  0
 11 12  2  0
 12 13  1  0
 13 14  2  0
 14 15  1  0
 15 16  1  0
 16 17  1  0
 16 18  1  0
 14 19  1  0
 19 20  2  0
  4 21  1  0
 21 22  2  0
 21 23  1  0
 23 24  2  0
 24 25  1  0
 25 26  1  0
 26 27  2  0
 27 28  1  0
 28 29  2  0
 29 30  1  0
 30 31  2  0
 25 32  1  0
 32 33  1  0
 32 34  2  0
 34  2  1  0
 20 11  1  0
 34 23  1  0
 31 26  1  0
  1 35  1  0
  1 36  1  0
  1 37  1  0
  5 38  1  0
  5 39  1  0
  6 40  1  0
  6 41  1  0
  9 42  1  0
 10 43  1  0
 10 44  1  0
 12 45  1  0
 13 46  1  0
 16 47  1  0
 17 48  1  0
 17 49  1  0
 17 50  1  0
 18 51  1  0
 18 52  1  0
 18 53  1  0
 19 54  1  0
 20 55  1  0
 27 56  1  0
 28 57  1  0
 29 58  1  0
 30 59  1  0
 31 60  1  0
 33 61  1  0
 33 62  1  0
 33 63  1  0
M  END
$$$$
