
     RDKit          3D

 57 60  0  0  0  0  0  0  0  0999 V2000
   -1.7280    0.3419   -2.0537 C   0  0  0  0  0  0  0  0  0  0  0  0
   -0.6638    1.0543   -1.2316 C   0  0  0  0  0  0  0  0  0  0  0  0
   -1.0688    1.3132    0.2295 C   0  0  0  0  0  0  0  0  0  0  0  0
   -0.8945   -0.1857    1.2848 S   0  0  0  0  0  0  0  0  0  0  0  0
   -2.4170   -1.0076    0.9675 C   0  0  0  0  0  0  0  0  0  0  0  0
   -3.4681   -0.2481    0.9046 N   0  0  0  0  0  0  0  0  0  0  0  0
   -4.6633   -0.9165    0.6569 C   0  0  0  0  0  0  0  0  0  0  0  0
   -5.9156   -0.2758    0.5376 C   0  0  0  0  0  0  0  0  0  0  0  0
   -6.9157   -1.1957    0.2886 C   0  0  0  0  0  0  0  0  0  0  0  0
   -6.3080   -2.8042    0.2062 S   0  0  0  0  0  0  0  0  0  0  0  0
   -4.7275   -2.2671    0.5029 C   0  0  0  0  0  0  0  0  0  0  0  0
   -3.5734   -3.1105    0.5846 C   0  0  0  0  0  0  0  0  0  0  0  0
   -3.6068   -4.3319    0.4489 O   0  0  0  0  0  0  0  0  0  0  0  0
   -2.3885   -2.3995    0.8268 N   0  0  0  0  0  0  0  0  0  0  0  0
   -1.1663   -3.2066    0.9195 C   0  0  0  0  0  0  0  0  0  0  0  0
   -0.3444   -3.1931   -0.3570 C   0  0  0  0  0  0  0  0  0  0  0  0
    0.9933   -2.7675   -0.3348 C   0  0  0  0  0  0  0  0  0  0  0  0
    1.7549   -2.7418   -1.5074 C   0  0  0  0  0  0  0  0  0  0  0  0
    1.1918   -3.1555   -2.7195 C   0  0  0  0  0  0  0  0  0  0  0  0
    1.9564   -3.1408   -3.9901 C   0  0  0  0  0  0  0  0  0  0  0  0
    1.5422   -3.5012   -5.0764 O   0  0  0  0  0  0  0  0  0  0  0  0
    3.2053   -2.6639   -3.8406 O   0  0  0  0  0  0  0  0  0  0  0  0
   -0.1321   -3.6056   -2.7463 C   0  0  0  0  0  0  0  0  0  0  0  0
   -0.8916   -3.6309   -1.5730 C   0  0  0  0  0  0  0  0  0  0  0  0
   -0.1796    2.4272    0.8110 C   0  0  0  0  0  0  0  0  0  0  0  0
   -0.6489    3.5402    1.0383 O   0  0  0  0  0  0  0  0  0  0  0  0
    1.1477    2.0592    0.9748 N   0  0  0  0  0  0  0  0  0  0  0  0
    2.2195    2.8564    1.4238 C   0  0  0  0  0  0  0  0  0  0  0  0
    2.1136    4.2154    1.7154 C   0  0  0  0  0  0  0  0  0  0  0  0
    3.2287    4.9387    2.1564 C   0  0  0  0  0  0  0  0  0  0  0  0
    4.4747    4.3176    2.3146 C   0  0  0  0  0  0  0  0  0  0  0  0
    5.6519    5.1250    2.7826 C   0  0  0  0  0  0  0  0  0  0  0  0
    4.5777    2.9537    2.0121 C   0  0  0  0  0  0  0  0  0  0  0  0
    6.0761    2.1043    2.1656 Cl  0  0  0  0  0  0  0  0  0  0  0  0
    3.4619    2.2313    1.5721 C   0  0  0  0  0  0  0  0  0  0  0  0
   -1.4222    0.3006   -3.1044 H   0  0  0  0  0  0  0  0  0  0  0  0
   -1.8816   -0.6855   -1.7183 H   0  0  0  0  0  0  0  0  0  0  0  0
   -2.6842    0.8723   -2.0033 H   0  0  0  0  0  0  0  0  0  0  0  0
    0.2765    0.4928   -1.2876 H   0  0  0  0  0  0  0  0  0  0  0  0
   -0.4641    2.0172   -1.7199 H   0  0  0  0  0  0  0  0  0  0  0  0
   -2.0944    1.6941    0.2800 H   0  0  0  0  0  0  0  0  0  0  0  0
   -6.0830    0.7897    0.6280 H   0  0  0  0  0  0  0  0  0  0  0  0
   -7.9717   -1.0080    0.1500 H   0  0  0  0  0  0  0  0  0  0  0  0
   -0.5691   -2.8522    1.7669 H   0  0  0  0  0  0  0  0  0  0  0  0
   -1.4026   -4.2512    1.1552 H   0  0  0  0  0  0  0  0  0  0  0  0
    1.4573   -2.4513    0.5976 H   0  0  0  0  0  0  0  0  0  0  0  0
    2.7879   -2.4043   -1.4637 H   0  0  0  0  0  0  0  0  0  0  0  0
    3.5830   -2.7127   -4.7438 H   0  0  0  0  0  0  0  0  0  0  0  0
   -0.5778   -3.9441   -3.6805 H   0  0  0  0  0  0  0  0  0  0  0  0
   -1.9138   -4.0032   -1.6225 H   0  0  0  0  0  0  0  0  0  0  0  0
    1.3489    1.0769    0.8238 H   0  0  0  0  0  0  0  0  0  0  0  0
    1.1753    4.7524    1.6090 H   0  0  0  0  0  0  0  0  0  0  0  0
    3.1085    5.9987    2.3751 H   0  0  0  0  0  0  0  0  0  0  0  0
    6.0917    4.6804    3.6816 H   0  0  0  0  0  0  0  0  0  0  0  0
    6.4079    5.1859    1.9938 H   0  0  0  0  0  0  0  0  0  0  0  0
    5.3581    6.1482    3.0399 H   0  0  0  0  0  0  0  0  0  0  0  0
    3.5755    1.1740    1.3483 H   0  0  0  0  0  0  0  0  0  0  0  0
  1  2  1  0
  2  3  1  0
  3  4  1  0
  4  5  1  0
  5  6  2  0
  6  7  1  0
  7  8  1  0
  8  9  2  0
  9 10  1  0
 10 11  1  0
 11 12  1  0
 12 13  2  0
 12 14  1  0
 14 15  1  0
 15 16  1  0
 16 17  2  0
 17 18  1  0
 18 19  2  0
 19 20  1  0
 20 21  2  0
 20 22  1  0
 19 23  1  0
 23 24  2  0
  3 25  1  0
 25 26  2  0
 25 27  1  0
 27 28  1  0
 28 29  2  0
 29 30  1  0
 30 31  2  0
 31 32  1  0
 31 33  1  0
 33 34  1  0
 33 35  2  0
 14  5  1  0
 24 16  1  0
 35 28  1  0
 11  7  2  0
  1 36  1  0
  1 37  1  0
  1 38  1  0
  2 39  1  0
  2 40  1  0
  3 41  1  0
  8 42  1  0
  9 43  1  0
 15 44  1  0
 15 45  1  0
 17 46  1  0
 18 47  1  0
 22 48  1  0
 23 49  1  0
 24 50  1  0
 27 51  1  0
 29 52  1  0
 30 53  1  0
 32 54  1  0
 32 55  1  0
 32 56  1  0
 35 57  1  0
M  END
$$$$
