
     RDKit          3D

 52 55  0  0  0  0  0  0  0  0999 V2000
   -4.5870   -2.6664   -2.6268 C   0  0  0  0  0  0  0  0  0  0  0  0
   -3.2373   -2.1717   -2.1480 C   0  0  0  0  0  0  0  0  0  0  0  0
   -3.4493   -1.3691   -0.9820 O   0  0  0  0  0  0  0  0  0  0  0  0
   -2.3192   -0.8850   -0.3990 C   0  0  0  0  0  0  0  0  0  0  0  0
   -1.1883   -1.1015   -0.8242 O   0  0  0  0  0  0  0  0  0  0  0  0
   -2.5769   -0.0555    0.7812 C   0  0  0  0  0  0  0  0  0  0  0  0
   -3.8433    0.1598    1.4508 C   0  0  0  0  0  0  0  0  0  0  0  0
   -5.1432   -0.4216    1.1517 C   0  0  0  0  0  0  0  0  0  0  0  0
   -6.1107    0.3272    0.4719 C   0  0  0  0  0  0  0  0  0  0  0  0
   -7.3554   -0.2368    0.1853 C   0  0  0  0  0  0  0  0  0  0  0  0
   -7.6354   -1.5468    0.5747 C   0  0  0  0  0  0  0  0  0  0  0  0
   -6.6729   -2.2962    1.2497 C   0  0  0  0  0  0  0  0  0  0  0  0
   -5.4279   -1.7354    1.5408 C   0  0  0  0  0  0  0  0  0  0  0  0
   -3.7239    1.0235    2.5202 C   0  0  0  0  0  0  0  0  0  0  0  0
   -2.1258    1.5621    2.7354 S   0  0  0  0  0  0  0  0  0  0  0  0
   -1.5621    0.6558    1.4150 C   0  0  0  0  0  0  0  0  0  0  0  0
   -0.2208    0.6664    1.0617 N   0  0  0  0  0  0  0  0  0  0  0  0
    0.8130    1.3742    1.6486 C   0  0  0  0  0  0  0  0  0  0  0  0
    0.7371    2.1560    2.5891 O   0  0  0  0  0  0  0  0  0  0  0  0
    2.1111    1.1042    1.0159 C   0  0  0  0  0  0  0  0  0  0  0  0
    3.3676    1.6569    1.3701 C   0  0  0  0  0  0  0  0  0  0  0  0
    4.2627    1.0964    0.4908 C   0  0  0  0  0  0  0  0  0  0  0  0
    5.7085    1.1841    0.3116 C   0  0  0  0  0  0  0  0  0  0  0  0
    6.5179    1.2878    1.4572 C   0  0  0  0  0  0  0  0  0  0  0  0
    7.9070    1.3667    1.3523 C   0  0  0  0  0  0  0  0  0  0  0  0
    8.5060    1.3504    0.0982 C   0  0  0  0  0  0  0  0  0  0  0  0
    7.7203    1.2558   -1.0518 C   0  0  0  0  0  0  0  0  0  0  0  0
    6.3240    1.1710   -0.9589 C   0  0  0  0  0  0  0  0  0  0  0  0
    5.4943    1.1238   -2.0511 O   0  0  0  0  0  0  0  0  0  0  0  0
    6.0827    0.8402   -3.3137 C   0  0  0  0  0  0  0  0  0  0  0  0
    3.5876    0.2465   -0.3335 O   0  0  0  0  0  0  0  0  0  0  0  0
    2.2409    0.2494   -0.0134 N   0  0  0  0  0  0  0  0  0  0  0  0
   -5.0840   -3.2420   -1.8393 H   0  0  0  0  0  0  0  0  0  0  0  0
   -5.2398   -1.8205   -2.8688 H   0  0  0  0  0  0  0  0  0  0  0  0
   -4.4806   -3.2962   -3.5140 H   0  0  0  0  0  0  0  0  0  0  0  0
   -2.5920   -3.0189   -1.9036 H   0  0  0  0  0  0  0  0  0  0  0  0
   -2.7691   -1.5649   -2.9301 H   0  0  0  0  0  0  0  0  0  0  0  0
   -5.8997    1.3460    0.1557 H   0  0  0  0  0  0  0  0  0  0  0  0
   -8.1056    0.3453   -0.3437 H   0  0  0  0  0  0  0  0  0  0  0  0
   -8.6049   -1.9844    0.3489 H   0  0  0  0  0  0  0  0  0  0  0  0
   -6.8914   -3.3174    1.5489 H   0  0  0  0  0  0  0  0  0  0  0  0
   -4.6841   -2.3285    2.0671 H   0  0  0  0  0  0  0  0  0  0  0  0
   -4.5012    1.3593    3.1941 H   0  0  0  0  0  0  0  0  0  0  0  0
    0.0450    0.0725    0.2715 H   0  0  0  0  0  0  0  0  0  0  0  0
    3.5730    2.3665    2.1573 H   0  0  0  0  0  0  0  0  0  0  0  0
    6.0702    1.2930    2.4491 H   0  0  0  0  0  0  0  0  0  0  0  0
    8.5178    1.4395    2.2484 H   0  0  0  0  0  0  0  0  0  0  0  0
    9.5873    1.4178    0.0112 H   0  0  0  0  0  0  0  0  0  0  0  0
    8.2283    1.2660   -2.0107 H   0  0  0  0  0  0  0  0  0  0  0  0
    6.6866    1.6838   -3.6616 H   0  0  0  0  0  0  0  0  0  0  0  0
    5.2721    0.6945   -4.0346 H   0  0  0  0  0  0  0  0  0  0  0  0
    6.6708   -0.0836   -3.2830 H   0  0  0  0  0  0  0  0  0  0  0  0
  1  2  1  0
  2  3  1  0
  3  4  1  0
  4  5  2  0
  4  6  1  0
  6  7  1  0
  7  8  1  0
  8  9  2  0
  9 10  1  0
 10 11  2  0
 11 12  1  0
 12 13  2  0
  7 14  2  0
 14 15  1  0
 15 16  1  0
 16 17  1  0
 17 18  1  0
 18 19  2  0
 18 20  1  0
 20 21  1  0
 21 22  2  0
 22 23  1  0
 23 24  2  0
 24 25  1  0
 25 26  2  0
 26 27  1  0
 27 28  2  0
 28 29  1  0
 29 30  1  0
 22 31  1  0
 31 32  1  0
 16  6  2  0
 32 20  2  0
 13  8  1  0
 28 23  1  0
  1 33  1  0
  1 34  1  0
  1 35  1  0
  2 36  1  0
  2 37  1  0
  9 38  1  0
 10 39  1  0
 11 40  1  0
 12 41  1  0
 13 42  1  0
 14 43  1  0
 17 44  1  0
 21 45  1  0
 24 46  1  0
 25 47  1  0
 26 48  1  0
 27 49  1  0
 30 50  1  0
 30 51  1  0
 30 52  1  0
M  END
$$$$
