
     RDKit          3D

 53 57  0  0  0  0  0  0  0  0999 V2000
    6.1258    2.2307    1.7184 C   0  0  0  0  0  0  0  0  0  0  0  0
    5.8337    0.8396    1.6731 O   0  0  0  0  0  0  0  0  0  0  0  0
    4.8097    0.4517    0.8539 C   0  0  0  0  0  0  0  0  0  0  0  0
    4.0169    1.2927    0.0750 C   0  0  0  0  0  0  0  0  0  0  0  0
    2.9945    0.7609   -0.7197 C   0  0  0  0  0  0  0  0  0  0  0  0
    2.7435   -0.6183   -0.7425 C   0  0  0  0  0  0  0  0  0  0  0  0
    1.6368   -1.1929   -1.6027 C   0  0  0  0  0  0  0  0  0  0  0  0
    0.3028   -0.7186   -1.2096 N   0  0  0  0  0  0  0  0  0  0  0  0
   -0.4271   -1.2651   -0.1765 C   0  0  0  0  0  0  0  0  0  0  0  0
    0.1214   -2.4147    0.5716 C   0  0  0  0  0  0  0  0  0  0  0  0
    0.7041   -2.1974    1.8223 C   0  0  0  0  0  0  0  0  0  0  0  0
    1.2036   -3.2823    2.5420 C   0  0  0  0  0  0  0  0  0  0  0  0
    1.1026   -4.5733    2.0186 C   0  0  0  0  0  0  0  0  0  0  0  0
    0.4945   -4.7866    0.7793 C   0  0  0  0  0  0  0  0  0  0  0  0
   -0.0066   -3.7064    0.0534 C   0  0  0  0  0  0  0  0  0  0  0  0
   -1.5869   -0.8317    0.1878 N   0  0  0  0  0  0  0  0  0  0  0  0
   -2.1674    0.2463   -0.4427 C   0  0  0  0  0  0  0  0  0  0  0  0
   -1.5451    0.8530   -1.4759 C   0  0  0  0  0  0  0  0  0  0  0  0
   -2.1781    2.0303   -2.1206 C   0  0  0  0  0  0  0  0  0  0  0  0
   -1.6190    2.7062   -2.9785 O   0  0  0  0  0  0  0  0  0  0  0  0
   -3.5413    2.4036   -1.6998 C   0  0  0  0  0  0  0  0  0  0  0  0
   -4.2058    3.4401   -2.3771 C   0  0  0  0  0  0  0  0  0  0  0  0
   -5.4911    3.8096   -1.9979 C   0  0  0  0  0  0  0  0  0  0  0  0
   -6.1077    3.1447   -0.9457 C   0  0  0  0  0  0  0  0  0  0  0  0
   -5.4379    2.1145   -0.2726 C   0  0  0  0  0  0  0  0  0  0  0  0
   -4.1352    1.7200   -0.6310 C   0  0  0  0  0  0  0  0  0  0  0  0
   -3.4208    0.6926    0.0237 N   0  0  0  0  0  0  0  0  0  0  0  0
   -4.0731    0.0451    1.1677 C   0  0  0  0  0  0  0  0  0  0  0  0
   -0.2358    0.3286   -1.9364 C   0  0  0  0  0  0  0  0  0  0  0  0
    0.3327    0.7962   -2.9214 O   0  0  0  0  0  0  0  0  0  0  0  0
    3.5564   -1.4577    0.0297 C   0  0  0  0  0  0  0  0  0  0  0  0
    4.5744   -0.9238    0.8239 C   0  0  0  0  0  0  0  0  0  0  0  0
    6.9651    2.3735    2.4058 H   0  0  0  0  0  0  0  0  0  0  0  0
    6.4339    2.6021    0.7354 H   0  0  0  0  0  0  0  0  0  0  0  0
    5.2757    2.8000    2.1086 H   0  0  0  0  0  0  0  0  0  0  0  0
    4.1661    2.3672    0.0560 H   0  0  0  0  0  0  0  0  0  0  0  0
    2.4001    1.4393   -1.3306 H   0  0  0  0  0  0  0  0  0  0  0  0
    1.8498   -0.9382   -2.6479 H   0  0  0  0  0  0  0  0  0  0  0  0
    1.6574   -2.2864   -1.5634 H   0  0  0  0  0  0  0  0  0  0  0  0
    0.7764   -1.1919    2.2293 H   0  0  0  0  0  0  0  0  0  0  0  0
    1.6683   -3.1224    3.5119 H   0  0  0  0  0  0  0  0  0  0  0  0
    1.4895   -5.4177    2.5848 H   0  0  0  0  0  0  0  0  0  0  0  0
    0.4040   -5.7963    0.3861 H   0  0  0  0  0  0  0  0  0  0  0  0
   -0.4975   -3.8725   -0.9017 H   0  0  0  0  0  0  0  0  0  0  0  0
   -3.7184    3.9574   -3.2016 H   0  0  0  0  0  0  0  0  0  0  0  0
   -6.0068    4.6102   -2.5216 H   0  0  0  0  0  0  0  0  0  0  0  0
   -7.1142    3.4242   -0.6427 H   0  0  0  0  0  0  0  0  0  0  0  0
   -5.9736    1.6294    0.5382 H   0  0  0  0  0  0  0  0  0  0  0  0
   -4.3717    0.7856    1.9190 H   0  0  0  0  0  0  0  0  0  0  0  0
   -3.4205   -0.6595    1.6938 H   0  0  0  0  0  0  0  0  0  0  0  0
   -4.9536   -0.5194    0.8404 H   0  0  0  0  0  0  0  0  0  0  0  0
    3.4032   -2.5349    0.0291 H   0  0  0  0  0  0  0  0  0  0  0  0
    5.1922   -1.5875    1.4240 H   0  0  0  0  0  0  0  0  0  0  0  0
  1  2  1  0
  2  3  1  0
  3  4  2  0
  4  5  1  0
  5  6  2  0
  6  7  1  0
  7  8  1  0
  8  9  1  0
  9 10  1  0
 10 11  2  0
 11 12  1  0
 12 13  2  0
 13 14  1  0
 14 15  2  0
  9 16  2  0
 16 17  1  0
 17 18  2  0
 18 19  1  0
 19 20  2  0
 19 21  1  0
 21 22  2  0
 22 23  1  0
 23 24  2  0
 24 25  1  0
 25 26  2  0
 26 27  1  0
 27 28  1  0
 18 29  1  0
 29 30  2  0
  6 31  1  0
 31 32  2  0
 32  3  1  0
 29  8  1  0
 15 10  1  0
 27 17  1  0
 26 21  1  0
  1 33  1  0
  1 34  1  0
  1 35  1  0
  4 36  1  0
  5 37  1  0
  7 38  1  0
  7 39  1  0
 11 40  1  0
 12 41  1  0
 13 42  1  0
 14 43  1  0
 15 44  1  0
 22 45  1  0
 23 46  1  0
 24 47  1  0
 25 48  1  0
 28 49  1  0
 28 50  1  0
 28 51  1  0
 31 52  1  0
 32 53  1  0
M  END
$$$$
