
     RDKit          3D

 44 47  0  0  0  0  0  0  0  0999 V2000
   -3.4111    5.0754    0.4177 N   0  0  0  0  0  0  0  0  0  0  0  0
   -4.1285    3.9474    0.2576 C   0  0  0  0  0  0  0  0  0  0  0  0
   -5.4565    3.9109    0.1640 N   0  0  0  0  0  0  0  0  0  0  0  0
   -5.7829    2.5660    0.0260 O   0  0  0  0  0  0  0  0  0  0  0  0
   -4.6425    1.7652    0.0343 N   0  0  0  0  0  0  0  0  0  0  0  0
   -3.6367    2.6307    0.1604 C   0  0  0  0  0  0  0  0  0  0  0  0
   -2.2863    2.1953    0.1932 N   0  0  0  0  0  0  0  0  0  0  0  0
   -1.2634    3.0859    0.3646 N   0  0  0  0  0  0  0  0  0  0  0  0
   -0.1195    2.4301    0.4223 N   0  0  0  0  0  0  0  0  0  0  0  0
   -0.3793    1.0948    0.2570 C   0  0  0  0  0  0  0  0  0  0  0  0
    0.6845    0.0919    0.2922 C   0  0  0  0  0  0  0  0  0  0  0  0
    0.4562   -1.1111    0.2210 O   0  0  0  0  0  0  0  0  0  0  0  0
    1.9399    0.6660    0.4347 N   0  0  0  0  0  0  0  0  0  0  0  0
    3.0518   -0.1111    0.5731 N   0  0  0  0  0  0  0  0  0  0  0  0
    4.1650    0.5340    0.7058 C   0  0  0  0  0  0  0  0  0  0  0  0
    5.4556   -0.1652    0.8635 C   0  0  0  0  0  0  0  0  0  0  0  0
    5.6068   -1.2632    1.7248 C   0  0  0  0  0  0  0  0  0  0  0  0
    4.3472   -1.8468    2.7562 Cl  0  0  0  0  0  0  0  0  0  0  0  0
    6.8495   -1.9010    1.8356 C   0  0  0  0  0  0  0  0  0  0  0  0
    7.9450   -1.4476    1.1027 C   0  0  0  0  0  0  0  0  0  0  0  0
    7.8047   -0.3474    0.2592 C   0  0  0  0  0  0  0  0  0  0  0  0
    6.5670    0.2955    0.1404 C   0  0  0  0  0  0  0  0  0  0  0  0
    6.4813    1.6436   -0.9425 Cl  0  0  0  0  0  0  0  0  0  0  0  0
   -1.7437    0.9151    0.0703 C   0  0  0  0  0  0  0  0  0  0  0  0
   -2.5196   -0.3238   -0.2103 C   0  0  0  0  0  0  0  0  0  0  0  0
   -2.9295   -0.4157   -1.9772 S   0  0  0  0  0  0  0  0  0  0  0  0
   -3.7911   -1.9139   -1.9411 C   0  0  0  0  0  0  0  0  0  0  0  0
   -3.1981   -3.0542   -2.0578 N   0  0  0  0  0  0  0  0  0  0  0  0
   -4.2202   -4.1211   -2.0675 C   0  0  0  0  0  0  0  0  0  0  0  0
   -5.4665   -3.6541   -1.3260 C   0  0  0  0  0  0  0  0  0  0  0  0
   -5.5167   -1.8928   -1.7127 S   0  0  0  0  0  0  0  0  0  0  0  0
   -2.3979    5.0784    0.3095 H   0  0  0  0  0  0  0  0  0  0  0  0
   -3.8573    5.9718    0.2490 H   0  0  0  0  0  0  0  0  0  0  0  0
    2.0098    1.6783    0.4910 H   0  0  0  0  0  0  0  0  0  0  0  0
    4.1988    1.6385    0.6727 H   0  0  0  0  0  0  0  0  0  0  0  0
    6.9708   -2.7518    2.5048 H   0  0  0  0  0  0  0  0  0  0  0  0
    8.9067   -1.9483    1.1935 H   0  0  0  0  0  0  0  0  0  0  0  0
    8.6646    0.0025   -0.3092 H   0  0  0  0  0  0  0  0  0  0  0  0
   -3.4251   -0.3733    0.4018 H   0  0  0  0  0  0  0  0  0  0  0  0
   -1.9430   -1.2145    0.0526 H   0  0  0  0  0  0  0  0  0  0  0  0
   -4.4574   -4.3747   -3.1101 H   0  0  0  0  0  0  0  0  0  0  0  0
   -3.8154   -5.0266   -1.5976 H   0  0  0  0  0  0  0  0  0  0  0  0
   -6.3672   -4.1780   -1.6559 H   0  0  0  0  0  0  0  0  0  0  0  0
   -5.3497   -3.7810   -0.2438 H   0  0  0  0  0  0  0  0  0  0  0  0
  1  2  1  0
  2  3  2  0
  3  4  1  0
  4  5  1  0
  5  6  2  0
  6  7  1  0
  7  8  1  0
  8  9  2  0
  9 10  1  0
 10 11  1  0
 11 12  2  0
 11 13  1  0
 13 14  1  0
 14 15  2  3
 15 16  1  0
 16 17  2  0
 17 18  1  0
 17 19  1  0
 19 20  2  0
 20 21  1  0
 21 22  2  0
 22 23  1  0
 10 24  2  0
 24 25  1  0
 25 26  1  0
 26 27  1  0
 27 28  2  0
 28 29  1  0
 29 30  1  0
 30 31  1  0
  6  2  1  0
 24  7  1  0
 31 27  1  0
 22 16  1  0
  1 32  1  0
  1 33  1  0
 13 34  1  0
 15 35  1  0
 19 36  1  0
 20 37  1  0
 21 38  1  0
 25 39  1  0
 25 40  1  0
 29 41  1  0
 29 42  1  0
 30 43  1  0
 30 44  1  0
M  END
$$$$
