
     RDKit          3D

 72 77  0  0  0  0  0  0  0  0999 V2000
   -5.3063   -0.0536    3.7839 C   0  0  0  0  0  0  0  0  0  0  0  0
   -5.8761    0.7182    2.6314 C   0  0  0  0  0  0  0  0  0  0  0  0
   -6.5664    1.9109    2.8442 C   0  0  0  0  0  0  0  0  0  0  0  0
   -7.1070    2.6152    1.7674 C   0  0  0  0  0  0  0  0  0  0  0  0
   -6.9821    2.1383    0.4527 C   0  0  0  0  0  0  0  0  0  0  0  0
   -7.5669    2.9540   -0.6682 C   0  0  0  0  0  0  0  0  0  0  0  0
   -6.3011    0.9248    0.2246 C   0  0  0  0  0  0  0  0  0  0  0  0
   -6.1045    0.3452   -1.1595 C   0  0  0  0  0  0  0  0  0  0  0  0
   -4.8465    0.7619   -1.7459 N   0  0  0  0  0  0  0  0  0  0  0  0
   -4.7883    1.8073   -2.6089 N   0  0  0  0  0  0  0  0  0  0  0  0
   -3.5207    1.9383   -3.0050 N   0  0  0  0  0  0  0  0  0  0  0  0
   -2.8067    0.9461   -2.4086 C   0  0  0  0  0  0  0  0  0  0  0  0
   -1.4122    0.6068   -2.4928 C   0  0  0  0  0  0  0  0  0  0  0  0
   -0.5726    1.2147   -3.1483 O   0  0  0  0  0  0  0  0  0  0  0  0
   -1.1007   -0.5100   -1.7233 N   0  0  0  0  0  0  0  0  0  0  0  0
   -2.0202   -1.2175   -0.9586 C   0  0  0  0  0  0  0  0  0  0  0  0
   -1.5090   -2.3836   -0.1133 C   0  0  0  0  0  0  0  0  0  0  0  0
   -0.7563   -1.8756    1.1251 C   0  0  0  0  0  0  0  0  0  0  0  0
    0.7126   -1.5695    0.8614 C   0  0  0  0  0  0  0  0  0  0  0  0
    1.4011   -2.6504    0.1009 N   0  0  0  0  0  0  0  0  0  0  0  0
    2.3950   -2.1420   -1.1933 S   0  0  0  0  0  6  0  0  0  0  0  0
    3.1025   -3.2920   -1.7110 O   0  0  0  0  0  0  0  0  0  0  0  0
    1.5366   -1.3325   -2.0373 O   0  0  0  0  0  0  0  0  0  0  0  0
    3.5796   -1.0893   -0.4006 C   0  0  0  0  0  0  0  0  0  0  0  0
    3.6794    0.2558   -0.7726 C   0  0  0  0  0  0  0  0  0  0  0  0
    4.6146    1.0727   -0.1362 C   0  0  0  0  0  0  0  0  0  0  0  0
    5.4405    0.5330    0.8571 C   0  0  0  0  0  0  0  0  0  0  0  0
    6.6343    1.5680    1.6696 S   0  0  0  0  0  6  0  0  0  0  0  0
    6.6825    1.1712    3.0593 O   0  0  0  0  0  0  0  0  0  0  0  0
    6.3931    2.9403    1.2833 O   0  0  0  0  0  0  0  0  0  0  0  0
    8.0702    1.0247    0.9607 N   0  0  0  0  0  0  0  0  0  0  0  0
    8.6414    1.8625   -0.0933 C   0  0  0  0  0  0  0  0  0  0  0  0
    9.6315    1.2841   -1.0623 C   0  0  0  0  0  0  0  0  0  0  0  0
    8.2552    1.6583   -1.5298 C   0  0  0  0  0  0  0  0  0  0  0  0
    5.3331   -0.8110    1.2345 C   0  0  0  0  0  0  0  0  0  0  0  0
    4.4010   -1.6287    0.5968 C   0  0  0  0  0  0  0  0  0  0  0  0
    0.5615   -3.8372   -0.2000 C   0  0  0  0  0  0  0  0  0  0  0  0
   -0.7198   -3.4255   -0.9132 C   0  0  0  0  0  0  0  0  0  0  0  0
   -3.2883   -0.9129   -0.8786 N   0  0  0  0  0  0  0  0  0  0  0  0
   -3.6208    0.1712   -1.6195 C   0  0  0  0  0  0  0  0  0  0  0  0
   -5.7605    0.2287    1.3254 C   0  0  0  0  0  0  0  0  0  0  0  0
   -5.9940   -0.8517    4.0785 H   0  0  0  0  0  0  0  0  0  0  0  0
   -4.3409   -0.4950    3.5137 H   0  0  0  0  0  0  0  0  0  0  0  0
   -5.1352    0.5970    4.6474 H   0  0  0  0  0  0  0  0  0  0  0  0
   -6.6847    2.3079    3.8502 H   0  0  0  0  0  0  0  0  0  0  0  0
   -7.6274    3.5507    1.9646 H   0  0  0  0  0  0  0  0  0  0  0  0
   -8.2603    2.3515   -1.2635 H   0  0  0  0  0  0  0  0  0  0  0  0
   -8.1346    3.8096   -0.2856 H   0  0  0  0  0  0  0  0  0  0  0  0
   -6.7717    3.3461   -1.3084 H   0  0  0  0  0  0  0  0  0  0  0  0
   -6.9119    0.6250   -1.8439 H   0  0  0  0  0  0  0  0  0  0  0  0
   -6.1089   -0.7510   -1.1203 H   0  0  0  0  0  0  0  0  0  0  0  0
   -0.1328   -0.8115   -1.8245 H   0  0  0  0  0  0  0  0  0  0  0  0
   -2.4109   -2.8881    0.2638 H   0  0  0  0  0  0  0  0  0  0  0  0
   -1.2434   -0.9840    1.5383 H   0  0  0  0  0  0  0  0  0  0  0  0
   -0.8180   -2.6434    1.9077 H   0  0  0  0  0  0  0  0  0  0  0  0
    0.7850   -0.6086    0.3410 H   0  0  0  0  0  0  0  0  0  0  0  0
    1.2361   -1.4437    1.8171 H   0  0  0  0  0  0  0  0  0  0  0  0
    3.0439    0.6719   -1.5536 H   0  0  0  0  0  0  0  0  0  0  0  0
    4.7004    2.1194   -0.4229 H   0  0  0  0  0  0  0  0  0  0  0  0
    8.7253    0.6867    1.6687 H   0  0  0  0  0  0  0  0  0  0  0  0
    8.8221    2.8866    0.2320 H   0  0  0  0  0  0  0  0  0  0  0  0
   10.4626    1.9068   -1.3711 H   0  0  0  0  0  0  0  0  0  0  0  0
    9.8702    0.2287   -0.9906 H   0  0  0  0  0  0  0  0  0  0  0  0
    8.1476    2.5382   -2.1537 H   0  0  0  0  0  0  0  0  0  0  0  0
    7.5724    0.8513   -1.7741 H   0  0  0  0  0  0  0  0  0  0  0  0
    5.9746   -1.2220    2.0120 H   0  0  0  0  0  0  0  0  0  0  0  0
    4.3178   -2.6782    0.8736 H   0  0  0  0  0  0  0  0  0  0  0  0
    0.3361   -4.3542    0.7410 H   0  0  0  0  0  0  0  0  0  0  0  0
    1.1153   -4.5654   -0.8024 H   0  0  0  0  0  0  0  0  0  0  0  0
   -1.3436   -4.3180   -1.0503 H   0  0  0  0  0  0  0  0  0  0  0  0
   -0.4945   -3.0751   -1.9264 H   0  0  0  0  0  0  0  0  0  0  0  0
   -5.2292   -0.7083    1.1588 H   0  0  0  0  0  0  0  0  0  0  0  0
  1  2  1  0
  2  3  2  0
  3  4  1  0
  4  5  2  0
  5  6  1  0
  5  7  1  0
  7  8  1  0
  8  9  1  0
  9 10  1  0
 10 11  2  0
 11 12  1  0
 12 13  1  0
 13 14  2  0
 13 15  1  0
 15 16  1  0
 16 17  1  0
 17 18  1  0
 18 19  1  0
 19 20  1  0
 20 21  1  0
 21 22  2  0
 21 23  2  0
 21 24  1  0
 24 25  2  0
 25 26  1  0
 26 27  2  0
 27 28  1  0
 28 29  2  0
 28 30  2  0
 28 31  1  0
 31 32  1  0
 32 33  1  0
 33 34  1  0
 27 35  1  0
 35 36  2  0
 20 37  1  0
 37 38  1  0
 16 39  2  0
 39 40  1  0
  7 41  2  0
 41  2  1  0
 40  9  1  0
 40 12  2  0
 38 17  1  0
 36 24  1  0
 34 32  1  0
  1 42  1  0
  1 43  1  0
  1 44  1  0
  3 45  1  0
  4 46  1  0
  6 47  1  0
  6 48  1  0
  6 49  1  0
  8 50  1  0
  8 51  1  0
 15 52  1  0
 17 53  1  0
 18 54  1  0
 18 55  1  0
 19 56  1  0
 19 57  1  0
 25 58  1  0
 26 59  1  0
 31 60  1  0
 32 61  1  0
 33 62  1  0
 33 63  1  0
 34 64  1  0
 34 65  1  0
 35 66  1  0
 36 67  1  0
 37 68  1  0
 37 69  1  0
 38 70  1  0
 38 71  1  0
 41 72  1  0
M  END
$$$$
