
     RDKit          3D

 53 56  0  0  0  0  0  0  0  0999 V2000
    9.0997   -1.4657   -0.7173 C   0  0  0  0  0  0  0  0  0  0  0  0
    7.9605   -0.6152   -0.7341 O   0  0  0  0  0  0  0  0  0  0  0  0
    6.7427   -1.2022   -0.5170 C   0  0  0  0  0  0  0  0  0  0  0  0
    6.5308   -2.5353   -0.1641 C   0  0  0  0  0  0  0  0  0  0  0  0
    5.2324   -3.0007    0.0483 C   0  0  0  0  0  0  0  0  0  0  0  0
    4.1448   -2.1373   -0.0955 C   0  0  0  0  0  0  0  0  0  0  0  0
    4.3415   -0.7981   -0.4551 C   0  0  0  0  0  0  0  0  0  0  0  0
    3.1918    0.0067   -0.5801 N   0  0  0  0  0  0  0  0  0  0  0  0
    3.1050    1.3106   -1.0349 C   0  0  0  0  0  0  0  0  0  0  0  0
    4.0527    2.0026   -1.4062 O   0  0  0  0  0  0  0  0  0  0  0  0
    1.7051    1.9166   -0.9998 C   0  0  0  0  0  0  0  0  0  0  0  0
    0.3711    0.6742   -1.0082 S   0  0  0  0  0  0  0  0  0  0  0  0
   -1.0198    1.7092   -0.8974 C   0  0  0  0  0  0  0  0  0  0  0  0
   -0.9592    3.0194   -0.8997 N   0  0  0  0  0  0  0  0  0  0  0  0
   -2.2133    3.4986   -0.6592 N   0  0  0  0  0  0  0  0  0  0  0  0
   -3.0309    2.4729   -0.5050 C   0  0  0  0  0  0  0  0  0  0  0  0
   -4.5146    2.6041   -0.3600 C   0  0  0  0  0  0  0  0  0  0  0  0
   -4.9586    2.8852    1.0516 C   0  0  0  0  0  0  0  0  0  0  0  0
   -4.3490    3.6605    2.0217 C   0  0  0  0  0  0  0  0  0  0  0  0
   -5.0898    3.6956    3.2376 C   0  0  0  0  0  0  0  0  0  0  0  0
   -6.2499    2.9592    3.1553 C   0  0  0  0  0  0  0  0  0  0  0  0
   -6.4436    2.2362    1.6199 S   0  0  0  0  0  0  0  0  0  0  0  0
   -2.3158    1.2864   -0.6460 N   0  0  0  0  0  0  0  0  0  0  0  0
   -2.8139   -0.0401   -0.5637 C   0  0  0  0  0  0  0  0  0  0  0  0
   -3.6853   -0.3987    0.4695 C   0  0  0  0  0  0  0  0  0  0  0  0
   -4.1851   -1.7013    0.5448 C   0  0  0  0  0  0  0  0  0  0  0  0
   -3.8126   -2.6621   -0.4014 C   0  0  0  0  0  0  0  0  0  0  0  0
   -4.3793   -4.0499   -0.3370 C   0  0  0  0  0  0  0  0  0  0  0  0
   -2.9469   -2.2959   -1.4378 C   0  0  0  0  0  0  0  0  0  0  0  0
   -2.4431   -0.9948   -1.5180 C   0  0  0  0  0  0  0  0  0  0  0  0
    5.6456   -0.3407   -0.6583 C   0  0  0  0  0  0  0  0  0  0  0  0
    9.0291   -2.2354   -1.4952 H   0  0  0  0  0  0  0  0  0  0  0  0
    9.9786   -0.8512   -0.9377 H   0  0  0  0  0  0  0  0  0  0  0  0
    9.2469   -1.9132    0.2723 H   0  0  0  0  0  0  0  0  0  0  0  0
    7.3520   -3.2316   -0.0354 H   0  0  0  0  0  0  0  0  0  0  0  0
    5.0672   -4.0378    0.3314 H   0  0  0  0  0  0  0  0  0  0  0  0
    3.1446   -2.5278    0.0763 H   0  0  0  0  0  0  0  0  0  0  0  0
    2.3041   -0.4415   -0.3828 H   0  0  0  0  0  0  0  0  0  0  0  0
    1.5955    2.5484   -1.8871 H   0  0  0  0  0  0  0  0  0  0  0  0
    1.6352    2.5350   -0.0996 H   0  0  0  0  0  0  0  0  0  0  0  0
   -4.8413    3.4479   -0.9836 H   0  0  0  0  0  0  0  0  0  0  0  0
   -5.0215    1.7242   -0.7710 H   0  0  0  0  0  0  0  0  0  0  0  0
   -3.4118    4.1852    1.8654 H   0  0  0  0  0  0  0  0  0  0  0  0
   -4.7899    4.2406    4.1241 H   0  0  0  0  0  0  0  0  0  0  0  0
   -6.9991    2.8174    3.9223 H   0  0  0  0  0  0  0  0  0  0  0  0
   -3.9552    0.2985    1.2579 H   0  0  0  0  0  0  0  0  0  0  0  0
   -4.8624   -1.9635    1.3557 H   0  0  0  0  0  0  0  0  0  0  0  0
   -4.5558   -4.3511    0.7010 H   0  0  0  0  0  0  0  0  0  0  0  0
   -5.3250   -4.0938   -0.8853 H   0  0  0  0  0  0  0  0  0  0  0  0
   -3.6848   -4.7765   -0.7721 H   0  0  0  0  0  0  0  0  0  0  0  0
   -2.6669   -3.0232   -2.1985 H   0  0  0  0  0  0  0  0  0  0  0  0
   -1.8003   -0.7446   -2.3595 H   0  0  0  0  0  0  0  0  0  0  0  0
    5.8475    0.6941   -0.9206 H   0  0  0  0  0  0  0  0  0  0  0  0
  1  2  1  0
  2  3  1  0
  3  4  2  0
  4  5  1  0
  5  6  2  0
  6  7  1  0
  7  8  1  0
  8  9  1  0
  9 10  2  0
  9 11  1  0
 11 12  1  0
 12 13  1  0
 13 14  2  0
 14 15  1  0
 15 16  2  0
 16 17  1  0
 17 18  1  0
 18 19  2  0
 19 20  1  0
 20 21  2  0
 21 22  1  0
 16 23  1  0
 23 24  1  0
 24 25  2  0
 25 26  1  0
 26 27  2  0
 27 28  1  0
 27 29  1  0
 29 30  2  0
  7 31  2  0
 31  3  1  0
 23 13  1  0
 30 24  1  0
 22 18  1  0
  1 32  1  0
  1 33  1  0
  1 34  1  0
  4 35  1  0
  5 36  1  0
  6 37  1  0
  8 38  1  0
 11 39  1  0
 11 40  1  0
 17 41  1  0
 17 42  1  0
 19 43  1  0
 20 44  1  0
 21 45  1  0
 25 46  1  0
 26 47  1  0
 28 48  1  0
 28 49  1  0
 28 50  1  0
 29 51  1  0
 30 52  1  0
 31 53  1  0
M  END
$$$$
