
     RDKit          3D

 37 39  0  0  0  0  0  0  0  0999 V2000
   -3.5306   -1.6208    1.2493 C   0  0  0  0  0  0  0  0  0  0  0  0
   -4.3722   -0.4310    0.8772 C   0  0  0  0  0  0  0  0  0  0  0  0
   -5.7552   -0.4602    1.1118 C   0  0  0  0  0  0  0  0  0  0  0  0
   -6.5538    0.6309    0.7747 C   0  0  0  0  0  0  0  0  0  0  0  0
   -5.9778    1.7599    0.2008 C   0  0  0  0  0  0  0  0  0  0  0  0
   -4.6019    1.8023   -0.0383 C   0  0  0  0  0  0  0  0  0  0  0  0
   -3.7923    0.7122    0.2965 C   0  0  0  0  0  0  0  0  0  0  0  0
   -2.4371    0.6539    0.1036 O   0  0  0  0  0  0  0  0  0  0  0  0
   -1.8073    1.7903   -0.4821 C   0  0  0  0  0  0  0  0  0  0  0  0
   -0.2995    1.5614   -0.6267 C   0  0  0  0  0  0  0  0  0  0  0  0
    0.4161    2.4324   -1.1132 O   0  0  0  0  0  0  0  0  0  0  0  0
    0.0977    0.3283   -0.1647 N   0  0  0  0  0  0  0  0  0  0  0  0
    1.3643   -0.1911   -0.1467 C   0  0  0  0  0  0  0  0  0  0  0  0
    1.6235   -1.3896    0.3227 N   0  0  0  0  0  0  0  0  0  0  0  0
    2.9654   -1.6988    0.2389 N   0  0  0  0  0  0  0  0  0  0  0  0
    3.6822   -0.7232   -0.2921 C   0  0  0  0  0  0  0  0  0  0  0  0
    5.1395   -0.7817   -0.5012 C   0  0  0  0  0  0  0  0  0  0  0  0
    5.8829    0.2617   -1.0650 C   0  0  0  0  0  0  0  0  0  0  0  0
    7.2523    0.1038   -1.2177 C   0  0  0  0  0  0  0  0  0  0  0  0
    7.9262   -1.0052   -0.8536 N   0  0  0  0  0  0  0  0  0  0  0  0
    7.2010   -2.0034   -0.3120 C   0  0  0  0  0  0  0  0  0  0  0  0
    5.8310   -1.9392   -0.1193 C   0  0  0  0  0  0  0  0  0  0  0  0
    2.7275    0.6447   -0.7220 S   0  0  0  0  0  0  0  0  0  0  0  0
   -4.1358   -2.4211    1.6880 H   0  0  0  0  0  0  0  0  0  0  0  0
   -2.7745   -1.3338    1.9874 H   0  0  0  0  0  0  0  0  0  0  0  0
   -3.0359   -2.0274    0.3613 H   0  0  0  0  0  0  0  0  0  0  0  0
   -6.2194   -1.3361    1.5599 H   0  0  0  0  0  0  0  0  0  0  0  0
   -7.6244    0.5993    0.9602 H   0  0  0  0  0  0  0  0  0  0  0  0
   -6.6008    2.6113   -0.0622 H   0  0  0  0  0  0  0  0  0  0  0  0
   -4.1993    2.7041   -0.4875 H   0  0  0  0  0  0  0  0  0  0  0  0
   -2.2036    1.9667   -1.4886 H   0  0  0  0  0  0  0  0  0  0  0  0
   -1.9388    2.6692    0.1593 H   0  0  0  0  0  0  0  0  0  0  0  0
   -0.6195   -0.2832    0.2112 H   0  0  0  0  0  0  0  0  0  0  0  0
    5.4306    1.1927   -1.3888 H   0  0  0  0  0  0  0  0  0  0  0  0
    7.8608    0.8929   -1.6514 H   0  0  0  0  0  0  0  0  0  0  0  0
    7.7655   -2.8867   -0.0265 H   0  0  0  0  0  0  0  0  0  0  0  0
    5.3136   -2.7855    0.3242 H   0  0  0  0  0  0  0  0  0  0  0  0
  1  2  1  0
  2  3  2  0
  3  4  1  0
  4  5  2  0
  5  6  1  0
  6  7  2  0
  7  8  1  0
  8  9  1  0
  9 10  1  0
 10 11  2  0
 10 12  1  0
 12 13  1  0
 13 14  2  0
 14 15  1  0
 15 16  2  0
 16 17  1  0
 17 18  2  0
 18 19  1  0
 19 20  2  0
 20 21  1  0
 21 22  2  0
 16 23  1  0
  7  2  1  0
 23 13  1  0
 22 17  1  0
  1 24  1  0
  1 25  1  0
  1 26  1  0
  3 27  1  0
  4 28  1  0
  5 29  1  0
  6 30  1  0
  9 31  1  0
  9 32  1  0
 12 33  1  0
 18 34  1  0
 19 35  1  0
 21 36  1  0
 22 37  1  0
M  END
$$$$
