
     RDKit          3D

 58 62  0  0  0  0  0  0  0  0999 V2000
    7.3762    3.3633    2.4538 C   0  0  0  0  0  0  0  0  0  0  0  0
    6.9139    2.2518    1.6903 O   0  0  0  0  0  0  0  0  0  0  0  0
    5.5917    1.9046    1.8129 C   0  0  0  0  0  0  0  0  0  0  0  0
    4.6424    2.6437    2.5258 C   0  0  0  0  0  0  0  0  0  0  0  0
    3.3110    2.2181    2.5870 C   0  0  0  0  0  0  0  0  0  0  0  0
    2.9021    1.0504    1.9311 C   0  0  0  0  0  0  0  0  0  0  0  0
    1.5135    0.5971    1.9529 C   0  0  0  0  0  0  0  0  0  0  0  0
    0.9867   -0.4974    1.4365 N   0  0  0  0  0  0  0  0  0  0  0  0
   -0.3651   -0.3809    1.6858 C   0  0  0  0  0  0  0  0  0  0  0  0
   -1.3221   -1.4112    1.2085 C   0  0  0  0  0  0  0  0  0  0  0  0
   -1.3397   -1.4656   -0.2463 N   0  0  0  0  0  0  0  0  0  0  0  0
   -2.1560   -0.7642   -1.0999 C   0  0  0  0  0  0  0  0  0  0  0  0
   -3.2469    0.4691   -0.5586 S   0  0  0  0  0  0  0  0  0  0  0  0
   -3.9224    1.0950   -2.1330 C   0  0  0  0  0  0  0  0  0  0  0  0
   -5.2633    0.4804   -2.4644 C   0  0  0  0  0  0  0  0  0  0  0  0
   -5.3469   -0.7125   -3.1964 C   0  0  0  0  0  0  0  0  0  0  0  0
   -6.5907   -1.2806   -3.5004 C   0  0  0  0  0  0  0  0  0  0  0  0
   -7.7630   -0.6581   -3.0742 C   0  0  0  0  0  0  0  0  0  0  0  0
   -7.6812    0.5164   -2.3427 C   0  0  0  0  0  0  0  0  0  0  0  0
   -8.8072    1.1087   -1.9222 F   0  0  0  0  0  0  0  0  0  0  0  0
   -6.4506    1.0833   -2.0293 C   0  0  0  0  0  0  0  0  0  0  0  0
   -1.9831   -1.1262   -2.3500 N   0  0  0  0  0  0  0  0  0  0  0  0
   -0.9748   -2.0556   -2.3236 C   0  0  0  0  0  0  0  0  0  0  0  0
   -0.3757   -2.7425   -3.3782 C   0  0  0  0  0  0  0  0  0  0  0  0
    0.6516   -3.6057   -3.0264 C   0  0  0  0  0  0  0  0  0  0  0  0
    1.0934   -3.8109   -1.7641 N   0  0  0  0  0  0  0  0  0  0  0  0
    0.5097   -3.1403   -0.7434 C   0  0  0  0  0  0  0  0  0  0  0  0
   -0.5369   -2.2744   -1.0242 C   0  0  0  0  0  0  0  0  0  0  0  0
   -0.5964    0.7735    2.4050 C   0  0  0  0  0  0  0  0  0  0  0  0
   -1.7868    1.4316    2.9753 C   0  0  0  0  0  0  0  0  0  0  0  0
    0.6014    1.4107    2.5726 O   0  0  0  0  0  0  0  0  0  0  0  0
    3.8596    0.3080    1.2199 C   0  0  0  0  0  0  0  0  0  0  0  0
    5.1975    0.7224    1.1574 C   0  0  0  0  0  0  0  0  0  0  0  0
    6.1833    0.0536    0.4731 O   0  0  0  0  0  0  0  0  0  0  0  0
    5.8794   -1.2510   -0.0057 C   0  0  0  0  0  0  0  0  0  0  0  0
    7.2166    3.1993    3.5287 H   0  0  0  0  0  0  0  0  0  0  0  0
    8.4529    3.4627    2.2880 H   0  0  0  0  0  0  0  0  0  0  0  0
    6.9047    4.2953    2.1168 H   0  0  0  0  0  0  0  0  0  0  0  0
    4.9014    3.5629    3.0396 H   0  0  0  0  0  0  0  0  0  0  0  0
    2.5943    2.8175    3.1462 H   0  0  0  0  0  0  0  0  0  0  0  0
   -1.0316   -2.4014    1.5824 H   0  0  0  0  0  0  0  0  0  0  0  0
   -2.3429   -1.2309    1.5612 H   0  0  0  0  0  0  0  0  0  0  0  0
   -3.2192    0.9761   -2.9642 H   0  0  0  0  0  0  0  0  0  0  0  0
   -4.0509    2.1792   -2.0218 H   0  0  0  0  0  0  0  0  0  0  0  0
   -4.4367   -1.2089   -3.5315 H   0  0  0  0  0  0  0  0  0  0  0  0
   -6.6411   -2.2041   -4.0651 H   0  0  0  0  0  0  0  0  0  0  0  0
   -8.7360   -1.0871   -3.2979 H   0  0  0  0  0  0  0  0  0  0  0  0
   -6.4296    1.9958   -1.4422 H   0  0  0  0  0  0  0  0  0  0  0  0
   -0.6844   -2.5983   -4.4041 H   0  0  0  0  0  0  0  0  0  0  0  0
    1.1757   -4.1763   -3.7879 H   0  0  0  0  0  0  0  0  0  0  0  0
    0.9054   -3.3125    0.2482 H   0  0  0  0  0  0  0  0  0  0  0  0
   -1.5392    1.9420    3.9124 H   0  0  0  0  0  0  0  0  0  0  0  0
   -2.1844    2.1710    2.2747 H   0  0  0  0  0  0  0  0  0  0  0  0
   -2.5743    0.7019    3.1917 H   0  0  0  0  0  0  0  0  0  0  0  0
    3.5293   -0.5898    0.7067 H   0  0  0  0  0  0  0  0  0  0  0  0
    5.5507   -1.9086    0.8087 H   0  0  0  0  0  0  0  0  0  0  0  0
    6.7973   -1.6768   -0.4249 H   0  0  0  0  0  0  0  0  0  0  0  0
    5.1371   -1.2138   -0.8089 H   0  0  0  0  0  0  0  0  0  0  0  0
  1  2  1  0
  2  3  1  0
  3  4  2  0
  4  5  1  0
  5  6  2  0
  6  7  1  0
  7  8  2  0
  8  9  1  0
  9 10  1  0
 10 11  1  0
 11 12  1  0
 12 13  1  0
 13 14  1  0
 14 15  1  0
 15 16  2  0
 16 17  1  0
 17 18  2  0
 18 19  1  0
 19 20  1  0
 19 21  2  0
 12 22  2  0
 22 23  1  0
 23 24  2  0
 24 25  1  0
 25 26  2  0
 26 27  1  0
 27 28  2  0
  9 29  2  0
 29 30  1  0
 29 31  1  0
  6 32  1  0
 32 33  2  0
 33 34  1  0
 34 35  1  0
 33  3  1  0
 31  7  1  0
 28 11  1  0
 21 15  1  0
 28 23  1  0
  1 36  1  0
  1 37  1  0
  1 38  1  0
  4 39  1  0
  5 40  1  0
 10 41  1  0
 10 42  1  0
 14 43  1  0
 14 44  1  0
 16 45  1  0
 17 46  1  0
 18 47  1  0
 21 48  1  0
 24 49  1  0
 25 50  1  0
 27 51  1  0
 30 52  1  0
 30 53  1  0
 30 54  1  0
 32 55  1  0
 35 56  1  0
 35 57  1  0
 35 58  1  0
M  END
$$$$
