
     RDKit          3D

 47 50  0  0  0  0  0  0  0  0999 V2000
   -7.6592   -2.2982    2.1560 C   0  0  0  0  0  0  0  0  0  0  0  0
   -6.9181   -1.9310    0.9897 O   0  0  0  0  0  0  0  0  0  0  0  0
   -5.8759   -1.1017    1.2388 C   0  0  0  0  0  0  0  0  0  0  0  0
   -5.5348   -0.6876    2.3354 O   0  0  0  0  0  0  0  0  0  0  0  0
   -5.1701   -0.7407   -0.0213 C   0  0  0  0  0  0  0  0  0  0  0  0
   -5.5418   -1.2652   -1.2639 C   0  0  0  0  0  0  0  0  0  0  0  0
   -4.8566   -0.8787   -2.4135 C   0  0  0  0  0  0  0  0  0  0  0  0
   -3.7909    0.0188   -2.3273 C   0  0  0  0  0  0  0  0  0  0  0  0
   -3.3844    0.5329   -1.0839 C   0  0  0  0  0  0  0  0  0  0  0  0
   -2.2799    1.4294   -1.0434 N   0  0  0  0  0  0  0  0  0  0  0  0
   -1.8648    2.0461   -2.1836 N   0  0  0  0  0  0  0  0  0  0  0  0
   -0.9046    2.8856   -1.8326 N   0  0  0  0  0  0  0  0  0  0  0  0
   -0.6426    2.8006   -0.4962 N   0  0  0  0  0  0  0  0  0  0  0  0
   -1.4588    1.8869   -0.0202 C   0  0  0  0  0  0  0  0  0  0  0  0
   -1.3526    1.3172    1.6131 S   0  0  0  0  0  0  0  0  0  0  0  0
   -0.7383   -0.3724    1.3833 C   0  0  0  0  0  0  0  0  0  0  0  0
    0.4670   -0.4145    0.4614 C   0  0  0  0  0  0  0  0  0  0  0  0
    0.3336   -0.8247   -0.6882 O   0  0  0  0  0  0  0  0  0  0  0  0
    1.6195    0.0275    1.0674 N   0  0  0  0  0  0  0  0  0  0  0  0
    2.8679    0.1189    0.5110 C   0  0  0  0  0  0  0  0  0  0  0  0
    3.8826    0.5684    1.2175 N   0  0  0  0  0  0  0  0  0  0  0  0
    5.0166    0.5602    0.4329 C   0  0  0  0  0  0  0  0  0  0  0  0
    4.8380    0.0951   -0.8532 C   0  0  0  0  0  0  0  0  0  0  0  0
    3.2147   -0.3462   -1.0936 S   0  0  0  0  0  0  0  0  0  0  0  0
    5.9082   -0.0393   -1.8793 C   0  0  0  0  0  0  0  0  0  0  0  0
    7.1495    0.7691   -1.4583 C   0  0  0  0  0  0  0  0  0  0  0  0
    7.4821    0.5914    0.0338 C   0  0  0  0  0  0  0  0  0  0  0  0
    6.3280    1.0526    0.9423 C   0  0  0  0  0  0  0  0  0  0  0  0
   -4.0965    0.1639    0.0630 C   0  0  0  0  0  0  0  0  0  0  0  0
   -7.0035   -2.7439    2.9098 H   0  0  0  0  0  0  0  0  0  0  0  0
   -8.1779   -1.4237    2.5613 H   0  0  0  0  0  0  0  0  0  0  0  0
   -8.4016   -3.0444    1.8643 H   0  0  0  0  0  0  0  0  0  0  0  0
   -6.3652   -1.9681   -1.3548 H   0  0  0  0  0  0  0  0  0  0  0  0
   -5.1496   -1.2792   -3.3818 H   0  0  0  0  0  0  0  0  0  0  0  0
   -3.2719    0.2889   -3.2468 H   0  0  0  0  0  0  0  0  0  0  0  0
   -0.4669   -0.7922    2.3567 H   0  0  0  0  0  0  0  0  0  0  0  0
   -1.5258   -1.0093    0.9686 H   0  0  0  0  0  0  0  0  0  0  0  0
    1.5894    0.3830    2.0136 H   0  0  0  0  0  0  0  0  0  0  0  0
    6.1820   -1.0980   -1.9734 H   0  0  0  0  0  0  0  0  0  0  0  0
    5.5632    0.3006   -2.8606 H   0  0  0  0  0  0  0  0  0  0  0  0
    8.0055    0.4626   -2.0686 H   0  0  0  0  0  0  0  0  0  0  0  0
    6.9757    1.8332   -1.6617 H   0  0  0  0  0  0  0  0  0  0  0  0
    7.6975   -0.4680    0.2260 H   0  0  0  0  0  0  0  0  0  0  0  0
    8.3892    1.1518    0.2848 H   0  0  0  0  0  0  0  0  0  0  0  0
    6.4981    0.7023    1.9658 H   0  0  0  0  0  0  0  0  0  0  0  0
    6.3022    2.1488    0.9683 H   0  0  0  0  0  0  0  0  0  0  0  0
   -3.8782    0.5913    1.0368 H   0  0  0  0  0  0  0  0  0  0  0  0
  1  2  1  0
  2  3  1  0
  3  4  2  0
  3  5  1  0
  5  6  2  0
  6  7  1  0
  7  8  2  0
  8  9  1  0
  9 10  1  0
 10 11  1  0
 11 12  2  0
 12 13  1  0
 13 14  2  0
 14 15  1  0
 15 16  1  0
 16 17  1  0
 17 18  2  0
 17 19  1  0
 19 20  1  0
 20 21  2  0
 21 22  1  0
 22 23  2  0
 23 24  1  0
 23 25  1  0
 25 26  1  0
 26 27  1  0
 27 28  1  0
  9 29  2  0
 29  5  1  0
 14 10  1  0
 24 20  1  0
 28 22  1  0
  1 30  1  0
  1 31  1  0
  1 32  1  0
  6 33  1  0
  7 34  1  0
  8 35  1  0
 16 36  1  0
 16 37  1  0
 19 38  1  0
 25 39  1  0
 25 40  1  0
 26 41  1  0
 26 42  1  0
 27 43  1  0
 27 44  1  0
 28 45  1  0
 28 46  1  0
 29 47  1  0
M  END
$$$$
