
     RDKit          3D

 46 49  0  0  0  0  0  0  0  0999 V2000
    4.4296   -0.1259   -0.1401 O   0  0  0  0  0  0  0  0  0  0  0  0
    3.5829   -0.4671    0.6826 C   0  0  0  0  0  0  0  0  0  0  0  0
    3.3128   -1.9427    0.9531 C   0  0  0  0  0  0  0  0  0  0  0  0
    1.9782   -2.5582   -0.1251 S   0  0  0  0  0  0  0  0  0  0  0  0
    0.6151   -1.7750    0.5911 C   0  0  0  0  0  0  0  0  0  0  0  0
    0.5777   -1.3114    1.8182 N   0  0  0  0  0  0  0  0  0  0  0  0
   -0.6192   -0.6722    1.9844 N   0  0  0  0  0  0  0  0  0  0  0  0
   -1.3026   -0.7672    0.8578 C   0  0  0  0  0  0  0  0  0  0  0  0
   -2.6655   -0.1963    0.6244 C   0  0  0  0  0  0  0  0  0  0  0  0
   -2.6670    1.0179   -0.2652 C   0  0  0  0  0  0  0  0  0  0  0  0
   -3.3332    1.1970   -1.4638 C   0  0  0  0  0  0  0  0  0  0  0  0
   -3.0970    2.4822   -2.0312 C   0  0  0  0  0  0  0  0  0  0  0  0
   -2.2689    3.2477   -1.2429 C   0  0  0  0  0  0  0  0  0  0  0  0
   -1.7956    2.4279    0.1784 S   0  0  0  0  0  0  0  0  0  0  0  0
   -0.5523   -1.4798   -0.0564 N   0  0  0  0  0  0  0  0  0  0  0  0
   -0.9071   -1.7991   -1.4253 C   0  0  0  0  0  0  0  0  0  0  0  0
   -1.6662   -3.0715   -1.4820 C   0  0  0  0  0  0  0  0  0  0  0  0
   -1.2965   -4.4002   -1.5341 C   0  0  0  0  0  0  0  0  0  0  0  0
   -2.4978   -5.1479   -1.5649 C   0  0  0  0  0  0  0  0  0  0  0  0
   -3.5223   -4.2317   -1.5425 C   0  0  0  0  0  0  0  0  0  0  0  0
   -3.0273   -2.9680   -1.4959 O   0  0  0  0  0  0  0  0  0  0  0  0
    2.7824    0.3856    1.4263 N   0  0  0  0  0  0  0  0  0  0  0  0
    2.7723    1.7958    1.4045 C   0  0  0  0  0  0  0  0  0  0  0  0
    3.7306    2.5727    0.7507 C   0  0  0  0  0  0  0  0  0  0  0  0
    3.6429    3.9664    0.7848 C   0  0  0  0  0  0  0  0  0  0  0  0
    4.8352    4.9174   -0.0196 Cl  0  0  0  0  0  0  0  0  0  0  0  0
    2.6069    4.6001    1.4636 C   0  0  0  0  0  0  0  0  0  0  0  0
    1.6533    3.8242    2.1163 C   0  0  0  0  0  0  0  0  0  0  0  0
    0.3663    4.5932    2.9621 Cl  0  0  0  0  0  0  0  0  0  0  0  0
    1.7326    2.4326    2.0944 C   0  0  0  0  0  0  0  0  0  0  0  0
    4.2285   -2.5029    0.7333 H   0  0  0  0  0  0  0  0  0  0  0  0
    3.0832   -2.1115    2.0093 H   0  0  0  0  0  0  0  0  0  0  0  0
   -3.1085    0.0756    1.5915 H   0  0  0  0  0  0  0  0  0  0  0  0
   -3.3199   -0.9688    0.2060 H   0  0  0  0  0  0  0  0  0  0  0  0
   -3.9584    0.4357   -1.9198 H   0  0  0  0  0  0  0  0  0  0  0  0
   -3.5135    2.8272   -2.9692 H   0  0  0  0  0  0  0  0  0  0  0  0
   -1.9178    4.2542   -1.4262 H   0  0  0  0  0  0  0  0  0  0  0  0
    0.0030   -1.8588   -2.0293 H   0  0  0  0  0  0  0  0  0  0  0  0
   -1.4925   -0.9738   -1.8375 H   0  0  0  0  0  0  0  0  0  0  0  0
   -0.2845   -4.7843   -1.5407 H   0  0  0  0  0  0  0  0  0  0  0  0
   -2.6061   -6.2234   -1.6003 H   0  0  0  0  0  0  0  0  0  0  0  0
   -4.6007   -4.3142   -1.5502 H   0  0  0  0  0  0  0  0  0  0  0  0
    2.0143   -0.0528    1.9414 H   0  0  0  0  0  0  0  0  0  0  0  0
    4.5597    2.1196    0.2161 H   0  0  0  0  0  0  0  0  0  0  0  0
    2.5446    5.6836    1.4844 H   0  0  0  0  0  0  0  0  0  0  0  0
    0.9687    1.8482    2.6059 H   0  0  0  0  0  0  0  0  0  0  0  0
  1  2  2  0
  2  3  1  0
  3  4  1  0
  4  5  1  0
  5  6  2  0
  6  7  1  0
  7  8  2  0
  8  9  1  0
  9 10  1  0
 10 11  2  0
 11 12  1  0
 12 13  2  0
 13 14  1  0
  8 15  1  0
 15 16  1  0
 16 17  1  0
 17 18  2  0
 18 19  1  0
 19 20  2  0
 20 21  1  0
  2 22  1  0
 22 23  1  0
 23 24  2  0
 24 25  1  0
 25 26  1  0
 25 27  2  0
 27 28  1  0
 28 29  1  0
 28 30  2  0
 15  5  1  0
 21 17  1  0
 30 23  1  0
 14 10  1  0
  3 31  1  0
  3 32  1  0
  9 33  1  0
  9 34  1  0
 11 35  1  0
 12 36  1  0
 13 37  1  0
 16 38  1  0
 16 39  1  0
 18 40  1  0
 19 41  1  0
 20 42  1  0
 22 43  1  0
 24 44  1  0
 27 45  1  0
 30 46  1  0
M  END
$$$$
