
     RDKit          3D

 53 58  0  0  0  0  0  0  0  0999 V2000
   -1.4305   -1.3291   -1.1468 O   0  0  0  0  0  0  0  0  0  0  0  0
   -1.5597   -0.1402   -0.8518 C   0  0  0  0  0  0  0  0  0  0  0  0
   -0.4129    0.8607   -1.0839 C   0  0  0  0  0  0  0  0  0  0  0  0
    0.8985    0.2586   -0.7948 N   0  0  0  0  0  4  0  0  0  0  0  0
    1.7164    0.5196    0.3030 C   0  0  0  0  0  0  0  0  0  0  0  0
    2.8498   -0.2811    0.2239 C   0  0  0  0  0  0  0  0  0  0  0  0
    4.0487   -0.3025    1.2418 C   0  0  0  0  0  0  0  0  0  0  0  0
    4.0073    0.5065    2.3860 C   0  0  0  0  0  0  0  0  0  0  0  0
    5.0691    0.4938    3.2970 C   0  0  0  0  0  0  0  0  0  0  0  0
    6.1723   -0.3233    3.0670 C   0  0  0  0  0  0  0  0  0  0  0  0
    7.4757   -0.3386    4.1861 Cl  0  0  0  0  0  0  0  0  0  0  0  0
    6.2226   -1.1264    1.9309 C   0  0  0  0  0  0  0  0  0  0  0  0
    5.1623   -1.1157    1.0172 C   0  0  0  0  0  0  0  0  0  0  0  0
    2.6443   -1.0069   -0.9354 N   0  0  0  0  0  0  0  0  0  0  0  0
    1.5072   -0.6634   -1.5368 C   0  0  0  0  0  0  0  0  0  0  0  0
    1.2928   -1.3711   -2.8215 C   0  0  0  0  0  0  0  0  0  0  0  0
    2.3301   -2.5072   -2.7392 C   0  0  0  0  0  0  0  0  0  0  0  0
    3.3614   -2.0341   -1.6798 C   0  0  0  0  0  0  0  0  0  0  0  0
   -2.7271    0.4582   -0.3675 N   0  0  0  0  0  0  0  0  0  0  0  0
   -2.7288    1.0274    0.9562 C   0  0  0  0  0  0  0  0  0  0  0  0
   -1.7358    0.6239    1.8781 C   0  0  0  0  0  0  0  0  0  0  0  0
   -1.6779    1.1471    3.1725 C   0  0  0  0  0  0  0  0  0  0  0  0
   -2.6170    2.0825    3.5794 C   0  0  0  0  0  0  0  0  0  0  0  0
   -3.6212    2.4742    2.6980 C   0  0  0  0  0  0  0  0  0  0  0  0
   -3.6922    1.9435    1.3985 C   0  0  0  0  0  0  0  0  0  0  0  0
   -5.0088    2.5202    0.3721 S   0  0  0  0  0  0  0  0  0  0  0  0
   -5.0551    1.2269   -0.8406 C   0  0  0  0  0  0  0  0  0  0  0  0
   -6.2349    1.1357   -1.6012 C   0  0  0  0  0  0  0  0  0  0  0  0
   -6.3435    0.2237   -2.6452 C   0  0  0  0  0  0  0  0  0  0  0  0
   -5.2667   -0.5951   -2.9456 C   0  0  0  0  0  0  0  0  0  0  0  0
   -4.0888   -0.5071   -2.1953 C   0  0  0  0  0  0  0  0  0  0  0  0
   -3.9585    0.3891   -1.1137 C   0  0  0  0  0  0  0  0  0  0  0  0
   -0.4277    1.1519   -2.1400 H   0  0  0  0  0  0  0  0  0  0  0  0
   -0.5272    1.7690   -0.4859 H   0  0  0  0  0  0  0  0  0  0  0  0
    1.3865    1.2608    1.0114 H   0  0  0  0  0  0  0  0  0  0  0  0
    3.1659    1.1577    2.6042 H   0  0  0  0  0  0  0  0  0  0  0  0
    5.0318    1.1230    4.1839 H   0  0  0  0  0  0  0  0  0  0  0  0
    7.0873   -1.7618    1.7505 H   0  0  0  0  0  0  0  0  0  0  0  0
    5.2497   -1.7465    0.1418 H   0  0  0  0  0  0  0  0  0  0  0  0
    1.5248   -0.6523   -3.6105 H   0  0  0  0  0  0  0  0  0  0  0  0
    0.2683   -1.7301   -2.8931 H   0  0  0  0  0  0  0  0  0  0  0  0
    2.7883   -2.7382   -3.7045 H   0  0  0  0  0  0  0  0  0  0  0  0
    1.8376   -3.4161   -2.3734 H   0  0  0  0  0  0  0  0  0  0  0  0
    4.2353   -1.5791   -2.1550 H   0  0  0  0  0  0  0  0  0  0  0  0
    3.6561   -2.8576   -1.0255 H   0  0  0  0  0  0  0  0  0  0  0  0
   -1.0216   -0.1589    1.6330 H   0  0  0  0  0  0  0  0  0  0  0  0
   -0.9197    0.8036    3.8729 H   0  0  0  0  0  0  0  0  0  0  0  0
   -2.5889    2.4903    4.5876 H   0  0  0  0  0  0  0  0  0  0  0  0
   -4.3636    3.1954    3.0391 H   0  0  0  0  0  0  0  0  0  0  0  0
   -7.0808    1.7884   -1.3891 H   0  0  0  0  0  0  0  0  0  0  0  0
   -7.2626    0.1597   -3.2230 H   0  0  0  0  0  0  0  0  0  0  0  0
   -5.3417   -1.3132   -3.7598 H   0  0  0  0  0  0  0  0  0  0  0  0
   -3.2968   -1.1960   -2.4733 H   0  0  0  0  0  0  0  0  0  0  0  0
  1  2  2  0
  2  3  1  0
  3  4  1  0
  4  5  1  0
  5  6  2  0
  6  7  1  0
  7  8  2  0
  8  9  1  0
  9 10  2  0
 10 11  1  0
 10 12  1  0
 12 13  2  0
  6 14  1  0
 14 15  1  0
 15 16  1  0
 16 17  1  0
 17 18  1  0
  2 19  1  0
 19 20  1  0
 20 21  2  0
 21 22  1  0
 22 23  2  0
 23 24  1  0
 24 25  2  0
 25 26  1  0
 26 27  1  0
 27 28  2  0
 28 29  1  0
 29 30  2  0
 30 31  1  0
 31 32  2  0
 15  4  2  0
 32 19  1  0
 13  7  1  0
 18 14  1  0
 25 20  1  0
 32 27  1  0
  3 33  1  0
  3 34  1  0
  5 35  1  0
  8 36  1  0
  9 37  1  0
 12 38  1  0
 13 39  1  0
 16 40  1  0
 16 41  1  0
 17 42  1  0
 17 43  1  0
 18 44  1  0
 18 45  1  0
 21 46  1  0
 22 47  1  0
 23 48  1  0
 24 49  1  0
 28 50  1  0
 29 51  1  0
 30 52  1  0
 31 53  1  0
M  CHG  1   4   1
M  END
$$$$
