
     RDKit          3D

 51 55  0  0  0  0  0  0  0  0999 V2000
   -7.5922    1.0892   -1.1149 F   0  0  0  0  0  0  0  0  0  0  0  0
   -6.3750    0.5837   -1.3549 C   0  0  0  0  0  0  0  0  0  0  0  0
   -5.9034    0.5283   -2.6610 C   0  0  0  0  0  0  0  0  0  0  0  0
   -4.6356    0.0064   -2.9105 C   0  0  0  0  0  0  0  0  0  0  0  0
   -3.8510   -0.4568   -1.8508 C   0  0  0  0  0  0  0  0  0  0  0  0
   -4.3293   -0.4055   -0.5323 C   0  0  0  0  0  0  0  0  0  0  0  0
   -3.4704   -0.8884    0.6126 C   0  0  0  0  0  0  0  0  0  0  0  0
   -2.5151    0.2129    1.1059 C   0  0  0  0  0  0  0  0  0  0  0  0
   -1.6993   -0.2089    2.2593 N   0  0  0  0  0  0  0  0  0  0  0  0
   -0.9655    0.9322    2.8498 C   0  0  0  0  0  0  0  0  0  0  0  0
    0.4166    1.2348    2.2277 C   0  0  0  0  0  0  0  0  0  0  0  0
    1.2907    0.0414    2.1515 N   0  0  0  0  0  0  0  0  0  0  0  0
    2.2042   -0.0191    1.0959 C   0  0  0  0  0  0  0  0  0  0  0  0
    2.1804   -1.0574    0.2968 N   0  0  0  0  0  0  0  0  0  0  0  0
    3.0517   -1.1390   -0.8062 C   0  0  0  0  0  0  0  0  0  0  0  0
    2.9757   -2.2646   -1.6290 C   0  0  0  0  0  0  0  0  0  0  0  0
    3.8078   -2.3906   -2.7446 C   0  0  0  0  0  0  0  0  0  0  0  0
    4.7274   -1.3864   -3.0490 C   0  0  0  0  0  0  0  0  0  0  0  0
    4.8211   -0.2532   -2.2402 C   0  0  0  0  0  0  0  0  0  0  0  0
    3.9818   -0.1414   -1.1276 C   0  0  0  0  0  0  0  0  0  0  0  0
    4.0188    0.9566   -0.2533 N   0  0  0  0  0  0  0  0  0  0  0  0
    4.8246    2.0701   -0.2830 C   0  0  0  0  0  0  0  0  0  0  0  0
    4.5403    2.8365    0.8260 C   0  0  0  0  0  0  0  0  0  0  0  0
    3.5179    2.1721    1.5427 C   0  0  0  0  0  0  0  0  0  0  0  0
    3.1817    1.0290    0.8389 C   0  0  0  0  0  0  0  0  0  0  0  0
    0.6158   -1.2053    2.5690 C   0  0  0  0  0  0  0  0  0  0  0  0
   -0.7674   -1.3092    1.8968 C   0  0  0  0  0  0  0  0  0  0  0  0
   -5.6029    0.1257   -0.2919 C   0  0  0  0  0  0  0  0  0  0  0  0
   -6.5246    0.8919   -3.4728 H   0  0  0  0  0  0  0  0  0  0  0  0
   -4.2566   -0.0401   -3.9282 H   0  0  0  0  0  0  0  0  0  0  0  0
   -2.8614   -0.8596   -2.0598 H   0  0  0  0  0  0  0  0  0  0  0  0
   -4.1141   -1.2229    1.4365 H   0  0  0  0  0  0  0  0  0  0  0  0
   -2.9167   -1.7759    0.2829 H   0  0  0  0  0  0  0  0  0  0  0  0
   -3.1295    1.0734    1.4030 H   0  0  0  0  0  0  0  0  0  0  0  0
   -1.8741    0.5591    0.2841 H   0  0  0  0  0  0  0  0  0  0  0  0
   -1.5793    1.8416    2.8403 H   0  0  0  0  0  0  0  0  0  0  0  0
   -0.8197    0.7058    3.9147 H   0  0  0  0  0  0  0  0  0  0  0  0
    0.9054    2.0008    2.8373 H   0  0  0  0  0  0  0  0  0  0  0  0
    0.2639    1.6493    1.2232 H   0  0  0  0  0  0  0  0  0  0  0  0
    2.2600   -3.0481   -1.3951 H   0  0  0  0  0  0  0  0  0  0  0  0
    3.7369   -3.2737   -3.3745 H   0  0  0  0  0  0  0  0  0  0  0  0
    5.3737   -1.4892   -3.9174 H   0  0  0  0  0  0  0  0  0  0  0  0
    5.5463    0.5124   -2.4947 H   0  0  0  0  0  0  0  0  0  0  0  0
    5.5483    2.2297   -1.0689 H   0  0  0  0  0  0  0  0  0  0  0  0
    5.0266    3.7655    1.0948 H   0  0  0  0  0  0  0  0  0  0  0  0
    3.0821    2.4940    2.4780 H   0  0  0  0  0  0  0  0  0  0  0  0
    0.5098   -1.2053    3.6612 H   0  0  0  0  0  0  0  0  0  0  0  0
    1.2195   -2.0900    2.3344 H   0  0  0  0  0  0  0  0  0  0  0  0
   -0.6081   -1.3413    0.8110 H   0  0  0  0  0  0  0  0  0  0  0  0
   -1.2337   -2.2588    2.1828 H   0  0  0  0  0  0  0  0  0  0  0  0
   -6.0041    0.1882    0.7154 H   0  0  0  0  0  0  0  0  0  0  0  0
  1  2  1  0
  2  3  2  0
  3  4  1  0
  4  5  2  0
  5  6  1  0
  6  7  1  0
  7  8  1  0
  8  9  1  0
  9 10  1  0
 10 11  1  0
 11 12  1  0
 12 13  1  0
 13 14  2  0
 14 15  1  0
 15 16  2  0
 16 17  1  0
 17 18  2  0
 18 19  1  0
 19 20  2  0
 20 21  1  0
 21 22  1  0
 22 23  2  0
 23 24  1  0
 24 25  2  0
 12 26  1  0
 26 27  1  0
  6 28  2  0
 28  2  1  0
 27  9  1  0
 25 13  1  0
 20 15  1  0
 25 21  1  0
  3 29  1  0
  4 30  1  0
  5 31  1  0
  7 32  1  0
  7 33  1  0
  8 34  1  0
  8 35  1  0
 10 36  1  0
 10 37  1  0
 11 38  1  0
 11 39  1  0
 16 40  1  0
 17 41  1  0
 18 42  1  0
 19 43  1  0
 22 44  1  0
 23 45  1  0
 24 46  1  0
 26 47  1  0
 26 48  1  0
 27 49  1  0
 27 50  1  0
 28 51  1  0
M  END
$$$$
