
     RDKit          3D

 52 55  0  0  0  0  0  0  0  0999 V2000
    7.5793   -0.1781   -0.7984 C   0  0  0  0  0  0  0  0  0  0  0  0
    6.1690   -0.2917   -0.3569 C   0  0  0  0  0  0  0  0  0  0  0  0
    5.3774    0.6853    0.2810 C   0  0  0  0  0  0  0  0  0  0  0  0
    4.1335    0.1062    0.4595 C   0  0  0  0  0  0  0  0  0  0  0  0
    2.9635    0.7056    1.0477 C   0  0  0  0  0  0  0  0  0  0  0  0
    3.0131    1.4747    2.0017 O   0  0  0  0  0  0  0  0  0  0  0  0
    1.7797    0.3952    0.4193 N   0  0  0  0  0  0  0  0  0  0  0  0
    0.5210    0.9534    0.8719 C   0  0  0  0  0  0  0  0  0  0  0  0
    0.0044    0.1852    2.1126 C   0  0  0  0  0  0  0  0  0  0  0  0
   -1.5168    0.3717    2.3838 C   0  0  0  0  0  0  0  0  0  0  0  0
   -1.9117   -0.4789    3.6055 C   0  0  0  0  0  0  0  0  0  0  0  0
   -1.8320    1.8456    2.7106 C   0  0  0  0  0  0  0  0  0  0  0  0
   -2.3501   -0.1055    1.1526 C   0  0  0  0  0  0  0  0  0  0  0  0
   -1.7494    0.3753   -0.1280 C   0  0  0  0  0  0  0  0  0  0  0  0
   -0.4619    0.8696   -0.2464 C   0  0  0  0  0  0  0  0  0  0  0  0
   -0.3851    1.3415   -1.5607 C   0  0  0  0  0  0  0  0  0  0  0  0
   -1.5028    1.1172   -2.2449 N   0  0  0  0  0  0  0  0  0  0  0  0
   -2.3409    0.4720   -1.3815 N   0  0  0  0  0  0  0  0  0  0  0  0
   -3.6077    0.0184   -1.8631 C   0  0  0  0  0  0  0  0  0  0  0  0
   -4.0415    0.4441   -3.1350 C   0  0  0  0  0  0  0  0  0  0  0  0
   -5.2694    0.0240   -3.6565 C   0  0  0  0  0  0  0  0  0  0  0  0
   -6.0761   -0.8345   -2.9184 C   0  0  0  0  0  0  0  0  0  0  0  0
   -5.6435   -1.2668   -1.6717 C   0  0  0  0  0  0  0  0  0  0  0  0
   -6.4093   -2.1111   -0.9685 F   0  0  0  0  0  0  0  0  0  0  0  0
   -4.4228   -0.8545   -1.1383 C   0  0  0  0  0  0  0  0  0  0  0  0
    4.2850   -1.1841    0.0169 N   0  0  0  0  0  0  0  0  0  0  0  0
    3.3511   -2.2805    0.1372 C   0  0  0  0  0  0  0  0  0  0  0  0
    5.4882   -1.4278   -0.5379 N   0  0  0  0  0  0  0  0  0  0  0  0
    7.8216    0.8560   -1.0643 H   0  0  0  0  0  0  0  0  0  0  0  0
    7.7715   -0.8039   -1.6763 H   0  0  0  0  0  0  0  0  0  0  0  0
    8.2538   -0.4932    0.0043 H   0  0  0  0  0  0  0  0  0  0  0  0
    5.6579    1.6929    0.5570 H   0  0  0  0  0  0  0  0  0  0  0  0
    1.8033   -0.0896   -0.4664 H   0  0  0  0  0  0  0  0  0  0  0  0
    0.6754    2.0076    1.1325 H   0  0  0  0  0  0  0  0  0  0  0  0
    0.2023   -0.8884    1.9778 H   0  0  0  0  0  0  0  0  0  0  0  0
    0.5878    0.4852    2.9930 H   0  0  0  0  0  0  0  0  0  0  0  0
   -1.3617   -0.1660    4.5002 H   0  0  0  0  0  0  0  0  0  0  0  0
   -2.9823   -0.3871    3.8209 H   0  0  0  0  0  0  0  0  0  0  0  0
   -1.6957   -1.5399    3.4386 H   0  0  0  0  0  0  0  0  0  0  0  0
   -2.8877    1.9713    2.9765 H   0  0  0  0  0  0  0  0  0  0  0  0
   -1.6298    2.5134    1.8679 H   0  0  0  0  0  0  0  0  0  0  0  0
   -1.2332    2.1938    3.5599 H   0  0  0  0  0  0  0  0  0  0  0  0
   -2.3639   -1.2024    1.1328 H   0  0  0  0  0  0  0  0  0  0  0  0
   -3.3801    0.2531    1.2599 H   0  0  0  0  0  0  0  0  0  0  0  0
    0.4359    1.8500   -2.0517 H   0  0  0  0  0  0  0  0  0  0  0  0
   -3.4298    1.1159   -3.7370 H   0  0  0  0  0  0  0  0  0  0  0  0
   -5.5879    0.3654   -4.6389 H   0  0  0  0  0  0  0  0  0  0  0  0
   -7.0299   -1.1752   -3.3076 H   0  0  0  0  0  0  0  0  0  0  0  0
   -4.1497   -1.2741   -0.1817 H   0  0  0  0  0  0  0  0  0  0  0  0
    2.7049   -2.2760   -0.7433 H   0  0  0  0  0  0  0  0  0  0  0  0
    2.7661   -2.1596    1.0517 H   0  0  0  0  0  0  0  0  0  0  0  0
    3.9070   -3.2205    0.1909 H   0  0  0  0  0  0  0  0  0  0  0  0
  1  2  1  0
  2  3  1  0
  3  4  2  0
  4  5  1  0
  5  6  2  0
  5  7  1  0
  7  8  1  0
  8  9  1  0
  9 10  1  0
 10 11  1  0
 10 12  1  0
 10 13  1  0
 13 14  1  0
 14 15  2  0
 15 16  1  0
 16 17  2  0
 17 18  1  0
 18 19  1  0
 19 20  2  0
 20 21  1  0
 21 22  2  0
 22 23  1  0
 23 24  1  0
 23 25  2  0
  4 26  1  0
 26 27  1  0
 26 28  1  0
 28  2  2  0
 15  8  1  0
 25 19  1  0
 18 14  1  0
  1 29  1  0
  1 30  1  0
  1 31  1  0
  3 32  1  0
  7 33  1  0
  8 34  1  0
  9 35  1  0
  9 36  1  0
 11 37  1  0
 11 38  1  0
 11 39  1  0
 12 40  1  0
 12 41  1  0
 12 42  1  0
 13 43  1  0
 13 44  1  0
 16 45  1  0
 20 46  1  0
 21 47  1  0
 22 48  1  0
 25 49  1  0
 27 50  1  0
 27 51  1  0
 27 52  1  0
M  END
$$$$
