
     RDKit          3D

 44 46  0  0  0  0  0  0  0  0999 V2000
    6.7489   -1.7943    0.3700 C   0  0  0  0  0  0  0  0  0  0  0  0
    6.8833   -0.8602   -0.6944 O   0  0  0  0  0  0  0  0  0  0  0  0
    5.7251   -0.2909   -1.1638 C   0  0  0  0  0  0  0  0  0  0  0  0
    4.4295   -0.5841   -0.7361 C   0  0  0  0  0  0  0  0  0  0  0  0
    3.3310    0.0804   -1.3110 C   0  0  0  0  0  0  0  0  0  0  0  0
    1.9660   -0.2209   -0.8703 C   0  0  0  0  0  0  0  0  0  0  0  0
    1.3899    0.2669    0.2364 C   0  0  0  0  0  0  0  0  0  0  0  0
    2.0751    1.3368    1.4054 S   0  0  0  0  0  0  0  0  0  0  0  0
    0.5938    1.4115    2.3587 C   0  0  0  0  0  0  0  0  0  0  0  0
    0.4459    2.2979    3.7592 S   0  0  0  0  0  0  0  0  0  0  0  0
   -0.3476    0.6008    1.7621 N   0  0  0  0  0  0  0  0  0  0  0  0
   -1.7844    0.5128    2.2389 N   0  0  0  0  0  0  0  0  0  0  0  0
   -2.7917    1.7036    1.5254 S   0  0  0  0  0  6  0  0  0  0  0  0
   -2.1119    2.2248    0.3571 O   0  0  0  0  0  0  0  0  0  0  0  0
   -3.2614    2.5757    2.5779 O   0  0  0  0  0  0  0  0  0  0  0  0
   -4.1561    0.7131    0.9733 C   0  0  0  0  0  0  0  0  0  0  0  0
   -4.0727    0.0508   -0.2537 C   0  0  0  0  0  0  0  0  0  0  0  0
   -5.1477   -0.7256   -0.6900 C   0  0  0  0  0  0  0  0  0  0  0  0
   -6.3049   -0.8409    0.0925 C   0  0  0  0  0  0  0  0  0  0  0  0
   -7.4759   -1.6366   -0.4070 C   0  0  0  0  0  0  0  0  0  0  0  0
   -6.3829   -0.1504    1.3097 C   0  0  0  0  0  0  0  0  0  0  0  0
   -5.3109    0.6256    1.7547 C   0  0  0  0  0  0  0  0  0  0  0  0
   -0.0096   -0.0715    0.6013 C   0  0  0  0  0  0  0  0  0  0  0  0
   -0.7364   -0.8455   -0.0100 O   0  0  0  0  0  0  0  0  0  0  0  0
    3.5331    1.0361   -2.3164 C   0  0  0  0  0  0  0  0  0  0  0  0
    4.8250    1.3301   -2.7484 C   0  0  0  0  0  0  0  0  0  0  0  0
    5.9025    0.6664   -2.1714 C   0  0  0  0  0  0  0  0  0  0  0  0
    7.1603    0.9740   -2.6139 O   0  0  0  0  0  0  0  0  0  0  0  0
    6.3115   -1.3215    1.2560 H   0  0  0  0  0  0  0  0  0  0  0  0
    6.1644   -2.6663    0.0575 H   0  0  0  0  0  0  0  0  0  0  0  0
    7.7523   -2.1442    0.6360 H   0  0  0  0  0  0  0  0  0  0  0  0
    4.2471   -1.3225    0.0390 H   0  0  0  0  0  0  0  0  0  0  0  0
    1.4064   -0.8723   -1.5394 H   0  0  0  0  0  0  0  0  0  0  0  0
   -2.1748   -0.4245    2.0957 H   0  0  0  0  0  0  0  0  0  0  0  0
   -3.1831    0.1327   -0.8756 H   0  0  0  0  0  0  0  0  0  0  0  0
   -5.0817   -1.2350   -1.6502 H   0  0  0  0  0  0  0  0  0  0  0  0
   -7.1355   -2.5423   -0.9279 H   0  0  0  0  0  0  0  0  0  0  0  0
   -8.1171   -1.9576    0.4244 H   0  0  0  0  0  0  0  0  0  0  0  0
   -8.0742   -1.0286   -1.1001 H   0  0  0  0  0  0  0  0  0  0  0  0
   -7.2850   -0.2088    1.9169 H   0  0  0  0  0  0  0  0  0  0  0  0
   -5.3900    1.1577    2.7014 H   0  0  0  0  0  0  0  0  0  0  0  0
    2.6911    1.5610   -2.7656 H   0  0  0  0  0  0  0  0  0  0  0  0
    4.9923    2.0710   -3.5256 H   0  0  0  0  0  0  0  0  0  0  0  0
    7.7609    0.4149   -2.0791 H   0  0  0  0  0  0  0  0  0  0  0  0
  1  2  1  0
  2  3  1  0
  3  4  2  0
  4  5  1  0
  5  6  1  0
  6  7  2  3
  7  8  1  0
  8  9  1  0
  9 10  2  0
  9 11  1  0
 11 12  1  0
 12 13  1  0
 13 14  2  0
 13 15  2  0
 13 16  1  0
 16 17  2  0
 17 18  1  0
 18 19  2  0
 19 20  1  0
 19 21  1  0
 21 22  2  0
 11 23  1  0
 23 24  2  0
  5 25  2  0
 25 26  1  0
 26 27  2  0
 27 28  1  0
 27  3  1  0
 23  7  1  0
 22 16  1  0
  1 29  1  0
  1 30  1  0
  1 31  1  0
  4 32  1  0
  6 33  1  0
 12 34  1  0
 17 35  1  0
 18 36  1  0
 20 37  1  0
 20 38  1  0
 20 39  1  0
 21 40  1  0
 22 41  1  0
 25 42  1  0
 26 43  1  0
 28 44  1  0
M  END
$$$$
