
     RDKit          3D

 43 46  0  0  0  0  0  0  0  0999 V2000
    6.3903    2.1876   -0.5832 C   0  0  0  0  0  0  0  0  0  0  0  0
    5.0172    1.5808   -0.5945 C   0  0  0  0  0  0  0  0  0  0  0  0
    4.6207    0.7044    0.4200 C   0  0  0  0  0  0  0  0  0  0  0  0
    3.3316    0.1615    0.4299 C   0  0  0  0  0  0  0  0  0  0  0  0
    2.4209    0.4968   -0.5722 C   0  0  0  0  0  0  0  0  0  0  0  0
    0.9699   -0.1049   -0.5731 C   0  0  0  0  0  0  0  0  0  0  0  0
   -0.0504    0.2044   -1.4654 C   0  0  0  0  0  0  0  0  0  0  0  0
   -1.1973   -0.5079   -1.1106 N   0  0  0  0  0  4  0  0  0  0  0  0
   -2.4934   -0.4698   -1.7836 C   0  0  0  0  0  0  0  0  0  0  0  0
   -3.5534   -0.0199   -0.8117 C   0  0  0  0  0  0  0  0  0  0  0  0
   -4.7130   -0.7868   -0.6167 C   0  0  0  0  0  0  0  0  0  0  0  0
   -5.6965   -0.3710    0.2843 C   0  0  0  0  0  0  0  0  0  0  0  0
   -5.5367    0.8168    0.9971 C   0  0  0  0  0  0  0  0  0  0  0  0
   -4.3964    1.5898    0.8013 C   0  0  0  0  0  0  0  0  0  0  0  0
   -4.1894    3.0535    1.6784 Cl  0  0  0  0  0  0  0  0  0  0  0  0
   -3.4118    1.1828   -0.0997 C   0  0  0  0  0  0  0  0  0  0  0  0
   -0.8889   -1.2483   -0.0505 C   0  0  0  0  0  0  0  0  0  0  0  0
    0.3847   -1.0354    0.2669 N   0  0  0  0  0  0  0  0  0  0  0  0
    0.7990   -1.8328    1.4125 C   0  0  0  0  0  0  0  0  0  0  0  0
   -0.3607   -2.8528    1.5823 C   0  0  0  0  0  0  0  0  0  0  0  0
   -1.5571   -2.2262    0.8393 C   0  0  0  0  0  0  0  0  0  0  0  0
    2.8061    1.3897   -1.5788 C   0  0  0  0  0  0  0  0  0  0  0  0
    4.0957    1.9299   -1.5857 C   0  0  0  0  0  0  0  0  0  0  0  0
    6.7317    2.3996   -1.6019 H   0  0  0  0  0  0  0  0  0  0  0  0
    7.1162    1.5020   -0.1337 H   0  0  0  0  0  0  0  0  0  0  0  0
    6.3821    3.1203   -0.0109 H   0  0  0  0  0  0  0  0  0  0  0  0
    5.3180    0.4410    1.2141 H   0  0  0  0  0  0  0  0  0  0  0  0
    3.0753   -0.5034    1.2441 H   0  0  0  0  0  0  0  0  0  0  0  0
   -0.1122    0.8661   -2.3127 H   0  0  0  0  0  0  0  0  0  0  0  0
   -2.4538    0.2175   -2.6356 H   0  0  0  0  0  0  0  0  0  0  0  0
   -2.6964   -1.4765   -2.1659 H   0  0  0  0  0  0  0  0  0  0  0  0
   -4.8714   -1.7141   -1.1661 H   0  0  0  0  0  0  0  0  0  0  0  0
   -6.5950   -0.9688    0.4277 H   0  0  0  0  0  0  0  0  0  0  0  0
   -6.3073    1.1366    1.6951 H   0  0  0  0  0  0  0  0  0  0  0  0
   -2.5330    1.8080   -0.2422 H   0  0  0  0  0  0  0  0  0  0  0  0
    1.7437   -2.3440    1.2146 H   0  0  0  0  0  0  0  0  0  0  0  0
    0.8815   -1.1793    2.2858 H   0  0  0  0  0  0  0  0  0  0  0  0
   -0.0837   -3.7914    1.0877 H   0  0  0  0  0  0  0  0  0  0  0  0
   -0.5787   -3.0768    2.6300 H   0  0  0  0  0  0  0  0  0  0  0  0
   -2.1145   -2.9398    0.2316 H   0  0  0  0  0  0  0  0  0  0  0  0
   -2.2065   -1.6546    1.5055 H   0  0  0  0  0  0  0  0  0  0  0  0
    2.1328    1.6883   -2.3765 H   0  0  0  0  0  0  0  0  0  0  0  0
    4.3803    2.6272   -2.3725 H   0  0  0  0  0  0  0  0  0  0  0  0
  1  2  1  0
  2  3  2  0
  3  4  1  0
  4  5  2  0
  5  6  1  0
  6  7  2  0
  7  8  1  0
  8  9  1  0
  9 10  1  0
 10 11  2  0
 11 12  1  0
 12 13  2  0
 13 14  1  0
 14 15  1  0
 14 16  2  0
  8 17  2  0
 17 18  1  0
 18 19  1  0
 19 20  1  0
 20 21  1  0
  5 22  1  0
 22 23  2  0
 23  2  1  0
 18  6  1  0
 16 10  1  0
 21 17  1  0
  1 24  1  0
  1 25  1  0
  1 26  1  0
  3 27  1  0
  4 28  1  0
  7 29  1  0
  9 30  1  0
  9 31  1  0
 11 32  1  0
 12 33  1  0
 13 34  1  0
 16 35  1  0
 19 36  1  0
 19 37  1  0
 20 38  1  0
 20 39  1  0
 21 40  1  0
 21 41  1  0
 22 42  1  0
 23 43  1  0
M  CHG  1   8   1
M  END
$$$$
