
     RDKit          3D

 33 34  0  0  0  0  0  0  0  0999 V2000
   -6.5431    1.0434    0.8258 N   0  0  0  0  0  0  0  0  0  0  0  0
   -5.1557    0.9671    0.6696 C   0  0  0  0  0  0  0  0  0  0  0  0
   -4.5630   -0.2124    0.2118 C   0  0  0  0  0  0  0  0  0  0  0  0
   -3.1918   -0.2669   -0.0644 C   0  0  0  0  0  0  0  0  0  0  0  0
   -2.4008    0.8792    0.0763 C   0  0  0  0  0  0  0  0  0  0  0  0
   -0.9393    0.8842   -0.2040 C   0  0  0  0  0  0  0  0  0  0  0  0
   -0.2366    1.8773   -0.1018 O   0  0  0  0  0  0  0  0  0  0  0  0
   -0.5181   -0.3527   -0.5688 O   0  0  0  0  0  0  0  0  0  0  0  0
    0.8821   -0.4627   -0.8780 C   0  0  0  0  0  0  0  0  0  0  0  0
    1.6978   -0.6577    0.3989 C   0  0  0  0  0  0  0  0  0  0  0  0
    3.1644   -0.8400    0.1081 C   0  0  0  0  0  0  0  0  0  0  0  0
    3.7124   -2.1226   -0.0229 C   0  0  0  0  0  0  0  0  0  0  0  0
    5.0682   -2.2846   -0.3125 C   0  0  0  0  0  0  0  0  0  0  0  0
    5.8858   -1.1679   -0.4774 C   0  0  0  0  0  0  0  0  0  0  0  0
    5.3488    0.1121   -0.3539 C   0  0  0  0  0  0  0  0  0  0  0  0
    3.9937    0.2765   -0.0642 C   0  0  0  0  0  0  0  0  0  0  0  0
   -3.0027    2.0773    0.4776 C   0  0  0  0  0  0  0  0  0  0  0  0
   -4.3740    2.1216    0.7506 C   0  0  0  0  0  0  0  0  0  0  0  0
   -6.8504    1.7978    1.4320 H   0  0  0  0  0  0  0  0  0  0  0  0
   -6.9836    0.1589    1.0588 H   0  0  0  0  0  0  0  0  0  0  0  0
   -5.1660   -1.1049    0.0645 H   0  0  0  0  0  0  0  0  0  0  0  0
   -2.7626   -1.2068   -0.4015 H   0  0  0  0  0  0  0  0  0  0  0  0
    1.2207    0.4058   -1.4570 H   0  0  0  0  0  0  0  0  0  0  0  0
    0.9913   -1.3345   -1.5333 H   0  0  0  0  0  0  0  0  0  0  0  0
    1.3118   -1.5219    0.9550 H   0  0  0  0  0  0  0  0  0  0  0  0
    1.5604    0.1928    1.0782 H   0  0  0  0  0  0  0  0  0  0  0  0
    3.0875   -3.0041    0.1009 H   0  0  0  0  0  0  0  0  0  0  0  0
    5.4870   -3.2827   -0.4097 H   0  0  0  0  0  0  0  0  0  0  0  0
    6.9413   -1.2949   -0.7025 H   0  0  0  0  0  0  0  0  0  0  0  0
    5.9849    0.9838   -0.4836 H   0  0  0  0  0  0  0  0  0  0  0  0
    3.5864    1.2819    0.0269 H   0  0  0  0  0  0  0  0  0  0  0  0
   -2.4115    2.9868    0.5669 H   0  0  0  0  0  0  0  0  0  0  0  0
   -4.8253    3.0707    1.0285 H   0  0  0  0  0  0  0  0  0  0  0  0
  1  2  1  0
  2  3  2  0
  3  4  1  0
  4  5  2  0
  5  6  1  0
  6  7  2  0
  6  8  1  0
  8  9  1  0
  9 10  1  0
 10 11  1  0
 11 12  2  0
 12 13  1  0
 13 14  2  0
 14 15  1  0
 15 16  2  0
  5 17  1  0
 17 18  2  0
 18  2  1  0
 16 11  1  0
  1 19  1  0
  1 20  1  0
  3 21  1  0
  4 22  1  0
  9 23  1  0
  9 24  1  0
 10 25  1  0
 10 26  1  0
 12 27  1  0
 13 28  1  0
 14 29  1  0
 15 30  1  0
 16 31  1  0
 17 32  1  0
 18 33  1  0
M  END
$$$$
