
     RDKit          3D

 31 33  0  0  0  0  0  0  0  0999 V2000
   -3.9439   -2.8567   -2.7919 C   0  0  0  0  0  0  0  0  0  0  0  0
   -2.5056   -2.7320   -2.7726 N   0  0  0  0  0  0  0  0  0  0  0  0
   -1.6193   -3.4031   -3.5563 C   0  0  0  0  0  0  0  0  0  0  0  0
   -0.3815   -2.9535   -3.1757 C   0  0  0  0  0  0  0  0  0  0  0  0
    1.2534   -3.5091   -3.8956 Br  0  0  0  0  0  0  0  0  0  0  0  0
   -0.5982   -2.0047   -2.1494 C   0  0  0  0  0  0  0  0  0  0  0  0
    0.3800   -1.2105   -1.3815 C   0  0  0  0  0  0  0  0  0  0  0  0
    1.5868   -1.2915   -1.5592 O   0  0  0  0  0  0  0  0  0  0  0  0
   -0.2454   -0.3948   -0.4665 N   0  0  0  0  0  0  0  0  0  0  0  0
    0.3484    0.4767    0.4140 C   0  0  0  0  0  0  0  0  0  0  0  0
   -0.8589    1.2704    1.3700 S   0  0  0  0  0  0  0  0  0  0  0  0
    0.3125    2.1270    2.1881 C   0  0  0  0  0  0  0  0  0  0  0  0
    1.5857    1.8507    1.7793 C   0  0  0  0  0  0  0  0  0  0  0  0
    1.6353    0.8857    0.7366 C   0  0  0  0  0  0  0  0  0  0  0  0
    2.8761    0.4597    0.1605 C   0  0  0  0  0  0  0  0  0  0  0  0
    3.9424    0.2013   -0.2213 N   0  0  0  0  0  0  0  0  0  0  0  0
    2.5762    2.6520    2.5458 C   0  0  0  0  0  0  0  0  0  0  0  0
    1.7162    3.1998    3.7281 C   0  0  0  0  0  0  0  0  0  0  0  0
    0.2264    3.1328    3.2717 C   0  0  0  0  0  0  0  0  0  0  0  0
   -1.9270   -1.8756   -1.9072 N   0  0  0  0  0  0  0  0  0  0  0  0
   -4.2357   -3.5894   -3.5483 H   0  0  0  0  0  0  0  0  0  0  0  0
   -4.3704   -1.8799   -3.0335 H   0  0  0  0  0  0  0  0  0  0  0  0
   -4.2736   -3.1876   -1.8040 H   0  0  0  0  0  0  0  0  0  0  0  0
   -1.9307   -4.1243   -4.2989 H   0  0  0  0  0  0  0  0  0  0  0  0
   -1.2609   -0.4615   -0.4527 H   0  0  0  0  0  0  0  0  0  0  0  0
    2.9558    3.4773    1.9341 H   0  0  0  0  0  0  0  0  0  0  0  0
    3.4151    2.0540    2.9122 H   0  0  0  0  0  0  0  0  0  0  0  0
    1.8516    2.5451    4.5993 H   0  0  0  0  0  0  0  0  0  0  0  0
    2.0151    4.2093    4.0267 H   0  0  0  0  0  0  0  0  0  0  0  0
   -0.4271    2.8304    4.0944 H   0  0  0  0  0  0  0  0  0  0  0  0
   -0.0988    4.1016    2.8789 H   0  0  0  0  0  0  0  0  0  0  0  0
  1  2  1  0
  2  3  1  0
  3  4  2  0
  4  5  1  0
  4  6  1  0
  6  7  1  0
  7  8  2  0
  7  9  1  0
  9 10  1  0
 10 11  1  0
 11 12  1  0
 12 13  2  0
 13 14  1  0
 14 15  1  0
 15 16  3  0
 13 17  1  0
 17 18  1  0
 18 19  1  0
  6 20  2  0
 20  2  1  0
 14 10  2  0
 19 12  1  0
  1 21  1  0
  1 22  1  0
  1 23  1  0
  3 24  1  0
  9 25  1  0
 17 26  1  0
 17 27  1  0
 18 28  1  0
 18 29  1  0
 19 30  1  0
 19 31  1  0
M  END
$$$$
