
     RDKit          3D

 42 44  0  0  0  0  0  0  0  0999 V2000
   -5.8997    2.6451   -0.7016 C   0  0  0  0  0  0  0  0  0  0  0  0
   -4.8945    1.8504   -1.3210 O   0  0  0  0  0  0  0  0  0  0  0  0
   -4.1033    1.0999   -0.4942 C   0  0  0  0  0  0  0  0  0  0  0  0
   -4.2000    1.0374    0.8925 C   0  0  0  0  0  0  0  0  0  0  0  0
   -3.3232    0.2242    1.6074 C   0  0  0  0  0  0  0  0  0  0  0  0
   -3.5091    0.1850    2.9665 O   0  0  0  0  0  0  0  0  0  0  0  0
   -2.3174   -0.5081    0.9561 C   0  0  0  0  0  0  0  0  0  0  0  0
   -1.3931   -1.3051    1.7967 C   0  0  0  0  0  0  0  0  0  0  0  0
   -1.8481   -1.8906    2.7807 O   0  0  0  0  0  0  0  0  0  0  0  0
    0.0703   -1.3429    1.5453 C   0  0  0  0  0  0  0  0  0  0  0  0
    0.7643   -0.3368    0.9908 C   0  0  0  0  0  0  0  0  0  0  0  0
    2.2042   -0.3582    0.7641 C   0  0  0  0  0  0  0  0  0  0  0  0
    2.7137    0.4593   -0.1920 C   0  0  0  0  0  0  0  0  0  0  0  0
    4.1982    0.5347   -0.3441 C   0  0  2  0  0  0  0  0  0  0  0  0
    4.7256    0.8721   -1.6195 O   0  0  0  0  0  0  0  0  0  0  0  0
    6.0792    0.3628   -1.5083 C   0  0  0  0  0  0  0  0  0  0  0  0
    6.1817   -0.5537   -0.3894 O   0  0  0  0  0  0  0  0  0  0  0  0
    4.8140   -0.8373   -0.1369 C   0  0  1  0  0  0  0  0  0  0  0  0
    4.4312   -1.3409    1.2128 C   0  0  0  0  0  0  0  0  0  0  0  0
    3.1649   -1.1023    1.6155 C   0  0  0  0  0  0  0  0  0  0  0  0
   -2.2441   -0.4848   -0.4472 C   0  0  0  0  0  0  0  0  0  0  0  0
   -1.3178   -1.3013   -1.0402 O   0  0  0  0  0  0  0  0  0  0  0  0
   -1.1893   -1.2467   -2.4559 C   0  0  0  0  0  0  0  0  0  0  0  0
   -3.1352    0.3323   -1.1560 C   0  0  0  0  0  0  0  0  0  0  0  0
   -6.4338    3.1826   -1.4911 H   0  0  0  0  0  0  0  0  0  0  0  0
   -6.6270    2.0195   -0.1737 H   0  0  0  0  0  0  0  0  0  0  0  0
   -5.4571    3.3900   -0.0321 H   0  0  0  0  0  0  0  0  0  0  0  0
   -4.9480    1.5942    1.4466 H   0  0  0  0  0  0  0  0  0  0  0  0
   -3.0375   -0.6066    3.3122 H   0  0  0  0  0  0  0  0  0  0  0  0
    0.5540   -2.2429    1.9099 H   0  0  0  0  0  0  0  0  0  0  0  0
    0.2485    0.5650    0.6667 H   0  0  0  0  0  0  0  0  0  0  0  0
    2.0986    1.0965   -0.8166 H   0  0  0  0  0  0  0  0  0  0  0  0
    4.5847    1.2840    0.3635 H   0  0  0  0  0  0  0  0  0  0  0  0
    6.3382   -0.1607   -2.4337 H   0  0  0  0  0  0  0  0  0  0  0  0
    6.7704    1.1960   -1.3491 H   0  0  0  0  0  0  0  0  0  0  0  0
    4.4947   -1.5676   -0.8956 H   0  0  0  0  0  0  0  0  0  0  0  0
    5.1353   -1.9087    1.8077 H   0  0  0  0  0  0  0  0  0  0  0  0
    2.8190   -1.4664    2.5791 H   0  0  0  0  0  0  0  0  0  0  0  0
   -2.1059   -1.5883   -2.9474 H   0  0  0  0  0  0  0  0  0  0  0  0
   -0.9093   -0.2418   -2.7886 H   0  0  0  0  0  0  0  0  0  0  0  0
   -0.3833   -1.9285   -2.7437 H   0  0  0  0  0  0  0  0  0  0  0  0
   -3.1140    0.3894   -2.2404 H   0  0  0  0  0  0  0  0  0  0  0  0
  1  2  1  0
  2  3  1  0
  3  4  2  0
  4  5  1  0
  5  6  1  0
  5  7  2  0
  7  8  1  0
  8  9  2  0
  8 10  1  0
 10 11  2  0
 11 12  1  0
 12 13  2  0
 13 14  1  0
 14 15  1  0
 15 16  1  0
 16 17  1  0
 17 18  1  0
 18 19  1  0
 19 20  2  0
  7 21  1  0
 21 22  1  0
 22 23  1  0
 21 24  2  0
 24  3  1  0
 20 12  1  0
 18 14  1  0
  1 25  1  0
  1 26  1  0
  1 27  1  0
  4 28  1  0
  6 29  1  0
 10 30  1  0
 11 31  1  0
 13 32  1  0
 14 33  1  1
 16 34  1  0
 16 35  1  0
 18 36  1  6
 19 37  1  0
 20 38  1  0
 23 39  1  0
 23 40  1  0
 23 41  1  0
 24 42  1  0
M  END
$$$$
