
     RDKit          3D

 62 66  0  0  0  0  0  0  0  0999 V2000
   -3.5458    6.0602   -2.2801 C   0  0  0  0  0  0  0  0  0  0  0  0
   -2.7947    4.9666   -1.7690 O   0  0  0  0  0  0  0  0  0  0  0  0
   -3.5021    3.9088   -1.2660 C   0  0  0  0  0  0  0  0  0  0  0  0
   -4.8851    3.8075   -1.2030 C   0  0  0  0  0  0  0  0  0  0  0  0
   -5.4929    2.6674   -0.6645 C   0  0  0  0  0  0  0  0  0  0  0  0
   -4.6862    1.6186   -0.1827 C   0  0  0  0  0  0  0  0  0  0  0  0
   -5.2223    0.1419    0.5122 S   0  0  0  0  0  0  0  0  0  0  0  0
   -3.6271   -0.4230    0.7548 C   0  0  0  0  0  0  0  0  0  0  0  0
   -3.4415   -1.7345    1.3905 C   0  0  0  0  0  0  0  0  0  0  0  0
   -3.1623   -1.7798    2.7663 C   0  0  0  0  0  0  0  0  0  0  0  0
   -2.9719   -3.0003    3.4113 C   0  0  0  0  0  0  0  0  0  0  0  0
   -3.0556   -4.1851    2.6865 C   0  0  0  0  0  0  0  0  0  0  0  0
   -3.3269   -4.1548    1.3153 C   0  0  0  0  0  0  0  0  0  0  0  0
   -3.5216   -2.9354    0.6553 C   0  0  0  0  0  0  0  0  0  0  0  0
   -3.7680   -2.8147   -0.6896 O   0  0  0  0  0  0  0  0  0  0  0  0
   -4.0046   -4.0081   -1.4229 C   0  0  0  0  0  0  0  0  0  0  0  0
   -2.6860    0.4973    0.3229 C   0  0  0  0  0  0  0  0  0  0  0  0
   -1.2551    0.2425    0.4441 C   0  0  0  0  0  0  0  0  0  0  0  0
   -0.6364   -0.7224   -0.3577 C   0  0  0  0  0  0  0  0  0  0  0  0
    0.7375   -0.9629   -0.2436 C   0  0  0  0  0  0  0  0  0  0  0  0
    1.5026   -0.2358    0.6689 C   0  0  0  0  0  0  0  0  0  0  0  0
    2.8458   -0.3728    0.8829 O   0  0  0  0  0  0  0  0  0  0  0  0
    3.5576   -1.2558    0.0144 C   0  0  0  0  0  0  0  0  0  0  0  0
    5.0577   -1.2289    0.3654 C   0  0  0  0  0  0  0  0  0  0  0  0
    5.7233    0.0583    0.1194 N   0  0  0  0  0  0  0  0  0  0  0  0
    7.1225    0.0462    0.5460 C   0  0  0  0  0  0  0  0  0  0  0  0
    7.6759    1.3130   -0.0841 C   0  0  0  0  0  0  0  0  0  0  0  0
    6.8276    1.5354   -1.3308 C   0  0  0  0  0  0  0  0  0  0  0  0
    5.7549    0.4549   -1.2876 C   0  0  0  0  0  0  0  0  0  0  0  0
    0.8820    0.7286    1.4675 C   0  0  0  0  0  0  0  0  0  0  0  0
   -0.4890    0.9718    1.3571 C   0  0  0  0  0  0  0  0  0  0  0  0
   -3.2932    1.6890   -0.2274 C   0  0  0  0  0  0  0  0  0  0  0  0
   -2.7116    2.8588   -0.7835 C   0  0  0  0  0  0  0  0  0  0  0  0
   -4.1515    6.5245   -1.4948 H   0  0  0  0  0  0  0  0  0  0  0  0
   -4.1658    5.7515   -3.1283 H   0  0  0  0  0  0  0  0  0  0  0  0
   -2.8376    6.8119   -2.6420 H   0  0  0  0  0  0  0  0  0  0  0  0
   -5.5332    4.5984   -1.5660 H   0  0  0  0  0  0  0  0  0  0  0  0
   -6.5760    2.5936   -0.6202 H   0  0  0  0  0  0  0  0  0  0  0  0
   -3.0908   -0.8573    3.3385 H   0  0  0  0  0  0  0  0  0  0  0  0
   -2.7555   -3.0242    4.4761 H   0  0  0  0  0  0  0  0  0  0  0  0
   -2.9040   -5.1380    3.1877 H   0  0  0  0  0  0  0  0  0  0  0  0
   -3.3712   -5.1026    0.7898 H   0  0  0  0  0  0  0  0  0  0  0  0
   -4.8521   -4.5667   -1.0119 H   0  0  0  0  0  0  0  0  0  0  0  0
   -3.1033   -4.6281   -1.4646 H   0  0  0  0  0  0  0  0  0  0  0  0
   -4.2596   -3.7247   -2.4485 H   0  0  0  0  0  0  0  0  0  0  0  0
   -1.2218   -1.2945   -1.0745 H   0  0  0  0  0  0  0  0  0  0  0  0
    1.1735   -1.7253   -0.8792 H   0  0  0  0  0  0  0  0  0  0  0  0
    3.4068   -0.9758   -1.0346 H   0  0  0  0  0  0  0  0  0  0  0  0
    3.1952   -2.2800    0.1670 H   0  0  0  0  0  0  0  0  0  0  0  0
    5.5621   -2.0299   -0.1900 H   0  0  0  0  0  0  0  0  0  0  0  0
    5.1517   -1.4600    1.4341 H   0  0  0  0  0  0  0  0  0  0  0  0
    7.2238    0.0623    1.6357 H   0  0  0  0  0  0  0  0  0  0  0  0
    7.6576   -0.8292    0.1561 H   0  0  0  0  0  0  0  0  0  0  0  0
    7.5612    2.1646    0.5973 H   0  0  0  0  0  0  0  0  0  0  0  0
    8.7392    1.2170   -0.3250 H   0  0  0  0  0  0  0  0  0  0  0  0
    6.3803    2.5358   -1.3040 H   0  0  0  0  0  0  0  0  0  0  0  0
    7.4277    1.4602   -2.2436 H   0  0  0  0  0  0  0  0  0  0  0  0
    4.7924    0.8446   -1.6331 H   0  0  0  0  0  0  0  0  0  0  0  0
    6.0472   -0.3806   -1.9362 H   0  0  0  0  0  0  0  0  0  0  0  0
    1.4750    1.2977    2.1794 H   0  0  0  0  0  0  0  0  0  0  0  0
   -0.9502    1.7280    1.9872 H   0  0  0  0  0  0  0  0  0  0  0  0
   -1.6283    2.9427   -0.8406 H   0  0  0  0  0  0  0  0  0  0  0  0
  1  2  1  0
  2  3  1  0
  3  4  2  0
  4  5  1  0
  5  6  2  0
  6  7  1  0
  7  8  1  0
  8  9  1  0
  9 10  2  0
 10 11  1  0
 11 12  2  0
 12 13  1  0
 13 14  2  0
 14 15  1  0
 15 16  1  0
  8 17  2  0
 17 18  1  0
 18 19  2  0
 19 20  1  0
 20 21  2  0
 21 22  1  0
 22 23  1  0
 23 24  1  0
 24 25  1  0
 25 26  1  0
 26 27  1  0
 27 28  1  0
 28 29  1  0
 21 30  1  0
 30 31  2  0
 17 32  1  0
 32 33  2  0
 33  3  1  0
 32  6  1  0
 14  9  1  0
 31 18  1  0
 29 25  1  0
  1 34  1  0
  1 35  1  0
  1 36  1  0
  4 37  1  0
  5 38  1  0
 10 39  1  0
 11 40  1  0
 12 41  1  0
 13 42  1  0
 16 43  1  0
 16 44  1  0
 16 45  1  0
 19 46  1  0
 20 47  1  0
 23 48  1  0
 23 49  1  0
 24 50  1  0
 24 51  1  0
 26 52  1  0
 26 53  1  0
 27 54  1  0
 27 55  1  0
 28 56  1  0
 28 57  1  0
 29 58  1  0
 29 59  1  0
 30 60  1  0
 31 61  1  0
 33 62  1  0
M  END
$$$$
