
     RDKit          3D

 68 70  0  0  0  0  0  0  0  0999 V2000
   -6.5714    1.1153    3.8173 C   0  0  0  0  0  0  0  0  0  0  0  0
   -5.8197    1.9285    2.9260 O   0  0  0  0  0  0  0  0  0  0  0  0
   -4.8346    1.3100    2.2078 C   0  0  0  0  0  0  0  0  0  0  0  0
   -4.5137   -0.0451    2.2511 C   0  0  0  0  0  0  0  0  0  0  0  0
   -3.4814   -0.5531    1.4529 C   0  0  0  0  0  0  0  0  0  0  0  0
   -2.7560    0.2842    0.5909 C   0  0  0  0  0  0  0  0  0  0  0  0
   -1.6375   -0.2245   -0.3099 C   0  0  0  0  0  0  0  0  0  0  0  0
   -1.7716   -1.7301   -0.6866 C   0  0  0  0  0  0  0  0  0  0  0  0
   -1.0672   -2.6098   -0.1874 O   0  0  0  0  0  0  0  0  0  0  0  0
   -2.7762   -1.9911   -1.6040 N   0  0  0  0  0  0  0  0  0  0  0  0
   -3.1292   -3.3220   -2.1157 C   0  0  0  0  0  0  0  0  0  0  0  0
   -1.9396   -3.9696   -2.8420 C   0  0  0  0  0  0  0  0  0  0  0  0
   -4.2793   -3.1539   -3.1247 C   0  0  0  0  0  0  0  0  0  0  0  0
   -3.6103   -4.2347   -0.9774 C   0  0  0  0  0  0  0  0  0  0  0  0
   -0.2770    0.0643    0.1902 N   0  0  0  0  0  0  0  0  0  0  0  0
    0.0747   -0.4150    1.5334 C   0  0  0  0  0  0  0  0  0  0  0  0
    0.2250    0.7182    2.4873 C   0  0  0  0  0  0  0  0  0  0  0  0
    1.3123    1.3904    3.0149 C   0  0  0  0  0  0  0  0  0  0  0  0
    0.7901    2.3675    3.8968 C   0  0  0  0  0  0  0  0  0  0  0  0
   -0.5788    2.2179    3.8704 C   0  0  0  0  0  0  0  0  0  0  0  0
   -0.9273    1.2121    3.0319 O   0  0  0  0  0  0  0  0  0  0  0  0
    0.6684    0.3784   -0.7780 C   0  0  0  0  0  0  0  0  0  0  0  0
    0.3578    0.5151   -1.9646 O   0  0  0  0  0  0  0  0  0  0  0  0
    2.1061    0.5924   -0.3411 C   0  0  0  0  0  0  0  0  0  0  0  0
    3.0081    0.8655   -1.5427 C   0  0  0  0  0  0  0  0  0  0  0  0
    4.4345    1.1617   -1.1283 C   0  0  0  0  0  0  0  0  0  0  0  0
    4.7802    1.2245    0.0480 O   0  0  0  0  0  0  0  0  0  0  0  0
    5.2477    1.3515   -2.2214 N   0  0  0  0  0  0  0  0  0  0  0  0
    6.5913    1.6418   -2.1753 C   0  0  0  0  0  0  0  0  0  0  0  0
    7.4452    1.7886   -1.0622 C   0  0  0  0  0  0  0  0  0  0  0  0
    8.6730    2.0779   -1.6014 C   0  0  0  0  0  0  0  0  0  0  0  0
   10.0066    2.3546   -1.0397 C   0  0  0  0  0  0  0  0  0  0  0  0
    8.5705    2.0881   -2.9555 O   0  0  0  0  0  0  0  0  0  0  0  0
    7.2657    1.8090   -3.3187 N   0  0  0  0  0  0  0  0  0  0  0  0
   -3.0777    1.6501    0.5686 C   0  0  0  0  0  0  0  0  0  0  0  0
   -4.1077    2.1530    1.3661 C   0  0  0  0  0  0  0  0  0  0  0  0
   -5.9280    0.6551    4.5763 H   0  0  0  0  0  0  0  0  0  0  0  0
   -7.2866    1.7634    4.3341 H   0  0  0  0  0  0  0  0  0  0  0  0
   -7.1441    0.3566    3.2698 H   0  0  0  0  0  0  0  0  0  0  0  0
   -5.0445   -0.7404    2.8939 H   0  0  0  0  0  0  0  0  0  0  0  0
   -3.2541   -1.6157    1.5234 H   0  0  0  0  0  0  0  0  0  0  0  0
   -1.7705    0.3090   -1.2623 H   0  0  0  0  0  0  0  0  0  0  0  0
   -3.3020   -1.1974   -1.9578 H   0  0  0  0  0  0  0  0  0  0  0  0
   -2.2283   -4.9236   -3.3018 H   0  0  0  0  0  0  0  0  0  0  0  0
   -1.1073   -4.1765   -2.1604 H   0  0  0  0  0  0  0  0  0  0  0  0
   -1.5592   -3.3136   -3.6354 H   0  0  0  0  0  0  0  0  0  0  0  0
   -5.1504   -2.6820   -2.6543 H   0  0  0  0  0  0  0  0  0  0  0  0
   -4.6005   -4.1198   -3.5335 H   0  0  0  0  0  0  0  0  0  0  0  0
   -3.9764   -2.5162   -3.9642 H   0  0  0  0  0  0  0  0  0  0  0  0
   -3.9451   -5.2044   -1.3655 H   0  0  0  0  0  0  0  0  0  0  0  0
   -2.8197   -4.4314   -0.2485 H   0  0  0  0  0  0  0  0  0  0  0  0
   -4.4469   -3.7816   -0.4348 H   0  0  0  0  0  0  0  0  0  0  0  0
   -0.6916   -1.1055    1.9023 H   0  0  0  0  0  0  0  0  0  0  0  0
    1.0021   -0.9922    1.4887 H   0  0  0  0  0  0  0  0  0  0  0  0
    2.3558    1.2022    2.7885 H   0  0  0  0  0  0  0  0  0  0  0  0
    1.3390    3.0867    4.4855 H   0  0  0  0  0  0  0  0  0  0  0  0
   -1.4031    2.7178    4.3651 H   0  0  0  0  0  0  0  0  0  0  0  0
    2.4797   -0.2917    0.1827 H   0  0  0  0  0  0  0  0  0  0  0  0
    2.1344    1.4514    0.3330 H   0  0  0  0  0  0  0  0  0  0  0  0
    2.6360    1.7262   -2.1123 H   0  0  0  0  0  0  0  0  0  0  0  0
    3.0146   -0.0048   -2.2096 H   0  0  0  0  0  0  0  0  0  0  0  0
    4.8766    1.2883   -3.1600 H   0  0  0  0  0  0  0  0  0  0  0  0
    7.2080    1.6988   -0.0142 H   0  0  0  0  0  0  0  0  0  0  0  0
    9.9660    2.4220    0.0528 H   0  0  0  0  0  0  0  0  0  0  0  0
   10.7074    1.5557   -1.3042 H   0  0  0  0  0  0  0  0  0  0  0  0
   10.3976    3.3039   -1.4218 H   0  0  0  0  0  0  0  0  0  0  0  0
   -2.5174    2.3351   -0.0653 H   0  0  0  0  0  0  0  0  0  0  0  0
   -4.3423    3.2128    1.3326 H   0  0  0  0  0  0  0  0  0  0  0  0
  1  2  1  0
  2  3  1  0
  3  4  2  0
  4  5  1  0
  5  6  2  0
  6  7  1  0
  7  8  1  0
  8  9  2  0
  8 10  1  0
 10 11  1  0
 11 12  1  0
 11 13  1  0
 11 14  1  0
  7 15  1  0
 15 16  1  0
 16 17  1  0
 17 18  2  0
 18 19  1  0
 19 20  2  0
 20 21  1  0
 15 22  1  0
 22 23  2  0
 22 24  1  0
 24 25  1  0
 25 26  1  0
 26 27  2  0
 26 28  1  0
 28 29  1  0
 29 30  1  0
 30 31  2  0
 31 32  1  0
 31 33  1  0
 33 34  1  0
  6 35  1  0
 35 36  2  0
 36  3  1  0
 21 17  1  0
 34 29  2  0
  1 37  1  0
  1 38  1  0
  1 39  1  0
  4 40  1  0
  5 41  1  0
  7 42  1  0
 10 43  1  0
 12 44  1  0
 12 45  1  0
 12 46  1  0
 13 47  1  0
 13 48  1  0
 13 49  1  0
 14 50  1  0
 14 51  1  0
 14 52  1  0
 16 53  1  0
 16 54  1  0
 18 55  1  0
 19 56  1  0
 20 57  1  0
 24 58  1  0
 24 59  1  0
 25 60  1  0
 25 61  1  0
 28 62  1  0
 30 63  1  0
 32 64  1  0
 32 65  1  0
 32 66  1  0
 35 67  1  0
 36 68  1  0
M  END
$$$$
