
     RDKit          3D

 40 42  0  0  0  0  0  0  0  0999 V2000
    1.9230    0.7289    2.2118 O   0  0  0  0  0  0  0  0  0  0  0  0
    2.4596    0.4364    1.1520 C   0  0  0  0  0  0  0  0  0  0  0  0
    1.9111   -0.2974    0.1161 N   0  0  0  0  0  0  0  0  0  0  0  0
    0.6123   -0.8464    0.0555 C   0  0  0  0  0  0  0  0  0  0  0  0
    0.3071   -1.6463   -1.0573 C   0  0  0  0  0  0  0  0  0  0  0  0
   -0.9539   -2.2359   -1.1914 C   0  0  0  0  0  0  0  0  0  0  0  0
   -1.9228   -2.0116   -0.2117 C   0  0  0  0  0  0  0  0  0  0  0  0
   -3.5273   -2.7656   -0.3765 S   0  0  0  0  0  6  0  0  0  0  0  0
   -3.3278   -4.0702   -0.9728 O   0  0  0  0  0  0  0  0  0  0  0  0
   -4.2220   -2.6232    0.8860 O   0  0  0  0  0  0  0  0  0  0  0  0
   -4.2963   -1.8184   -1.5322 N   0  0  0  0  0  0  0  0  0  0  0  0
   -4.2945   -0.4271   -1.3274 C   0  0  0  0  0  0  0  0  0  0  0  0
   -4.8698    0.1965   -0.2329 C   0  0  0  0  0  0  0  0  0  0  0  0
   -4.7561    1.5788   -0.1395 C   0  0  0  0  0  0  0  0  0  0  0  0
   -4.0929    2.2765   -1.1462 C   0  0  0  0  0  0  0  0  0  0  0  0
   -3.5800    1.5570   -2.2135 C   0  0  0  0  0  0  0  0  0  0  0  0
   -3.6656    0.2140   -2.3294 N   0  0  0  0  0  0  0  0  0  0  0  0
   -1.6309   -1.2276    0.9066 C   0  0  0  0  0  0  0  0  0  0  0  0
   -0.3669   -0.6409    1.0313 C   0  0  0  0  0  0  0  0  0  0  0  0
    3.8698    0.8682    0.9391 C   0  0  0  0  0  0  0  0  0  0  0  0
    4.3371    1.2708   -0.3212 C   0  0  0  0  0  0  0  0  0  0  0  0
    5.6680    1.6677   -0.4770 C   0  0  0  0  0  0  0  0  0  0  0  0
    6.5290    1.6724    0.6222 C   0  0  0  0  0  0  0  0  0  0  0  0
    6.0547    1.2900    1.8783 C   0  0  0  0  0  0  0  0  0  0  0  0
    7.2224    1.3120    3.3669 Br  0  0  0  0  0  0  0  0  0  0  0  0
    4.7295    0.8923    2.0449 C   0  0  0  0  0  0  0  0  0  0  0  0
    2.5301   -0.5562   -0.6407 H   0  0  0  0  0  0  0  0  0  0  0  0
    1.0482   -1.8292   -1.8318 H   0  0  0  0  0  0  0  0  0  0  0  0
   -1.1691   -2.8632   -2.0537 H   0  0  0  0  0  0  0  0  0  0  0  0
   -3.9814   -2.0433   -2.4706 H   0  0  0  0  0  0  0  0  0  0  0  0
   -5.3953   -0.3682    0.5300 H   0  0  0  0  0  0  0  0  0  0  0  0
   -5.1799    2.1078    0.7119 H   0  0  0  0  0  0  0  0  0  0  0  0
   -3.9845    3.3553   -1.1010 H   0  0  0  0  0  0  0  0  0  0  0  0
   -3.0610    2.0601   -3.0259 H   0  0  0  0  0  0  0  0  0  0  0  0
   -2.3726   -1.0614    1.6852 H   0  0  0  0  0  0  0  0  0  0  0  0
   -0.1790   -0.0290    1.9096 H   0  0  0  0  0  0  0  0  0  0  0  0
    3.6727    1.3096   -1.1822 H   0  0  0  0  0  0  0  0  0  0  0  0
    6.0331    1.9821   -1.4532 H   0  0  0  0  0  0  0  0  0  0  0  0
    7.5633    1.9850    0.4932 H   0  0  0  0  0  0  0  0  0  0  0  0
    4.3589    0.5997    3.0261 H   0  0  0  0  0  0  0  0  0  0  0  0
  1  2  2  0
  2  3  1  0
  3  4  1  0
  4  5  2  0
  5  6  1  0
  6  7  2  0
  7  8  1  0
  8  9  2  0
  8 10  2  0
  8 11  1  0
 11 12  1  0
 12 13  2  0
 13 14  1  0
 14 15  2  0
 15 16  1  0
 16 17  2  0
  7 18  1  0
 18 19  2  0
  2 20  1  0
 20 21  2  0
 21 22  1  0
 22 23  2  0
 23 24  1  0
 24 25  1  0
 24 26  2  0
 19  4  1  0
 26 20  1  0
 17 12  1  0
  3 27  1  0
  5 28  1  0
  6 29  1  0
 11 30  1  0
 13 31  1  0
 14 32  1  0
 15 33  1  0
 16 34  1  0
 18 35  1  0
 19 36  1  0
 21 37  1  0
 22 38  1  0
 23 39  1  0
 26 40  1  0
M  END
$$$$
