
     RDKit          3D

 64 67  0  0  0  0  0  0  0  0999 V2000
    8.4750   -3.6512    0.1095 C   0  0  0  0  0  0  0  0  0  0  0  0
    8.1971   -2.3872    0.7059 O   0  0  0  0  0  0  0  0  0  0  0  0
    6.8778   -2.0763    0.8980 C   0  0  0  0  0  0  0  0  0  0  0  0
    5.7918   -2.9081    0.6242 C   0  0  0  0  0  0  0  0  0  0  0  0
    4.4841   -2.4616    0.8554 C   0  0  0  0  0  0  0  0  0  0  0  0
    4.2517   -1.1823    1.3620 C   0  0  0  0  0  0  0  0  0  0  0  0
    2.9637   -0.6615    1.6150 N   0  0  0  0  0  0  0  0  0  0  0  0
    1.7401   -1.2904    1.4846 C   0  0  0  0  0  0  0  0  0  0  0  0
    1.5614   -2.4745    1.2090 O   0  0  0  0  0  0  0  0  0  0  0  0
    0.5628   -0.4158    1.8831 C   0  0  0  0  0  0  0  0  0  0  0  0
    0.5169    1.1766    1.0115 S   0  0  0  0  0  0  0  0  0  0  0  0
   -0.0193    0.6448   -0.5426 C   0  0  0  0  0  0  0  0  0  0  0  0
    0.6217   -0.1936   -1.3187 N   0  0  0  0  0  0  0  0  0  0  0  0
   -0.1334   -0.3663   -2.4532 N   0  0  0  0  0  0  0  0  0  0  0  0
   -1.2162    0.3838   -2.3528 C   0  0  0  0  0  0  0  0  0  0  0  0
   -2.2719    0.5086   -3.3994 C   0  0  0  0  0  0  0  0  0  0  0  0
   -3.5631   -0.1698   -3.0402 C   0  0  0  0  0  0  0  0  0  0  0  0
   -4.8312    0.3783   -2.9367 C   0  0  0  0  0  0  0  0  0  0  0  0
   -5.7243   -0.6570   -2.5816 C   0  0  0  0  0  0  0  0  0  0  0  0
   -4.9883   -1.8142   -2.4834 C   0  0  0  0  0  0  0  0  0  0  0  0
   -3.6844   -1.5231   -2.7926 N   0  0  0  0  0  0  0  0  0  0  0  0
   -2.6266   -2.5127   -2.8623 C   0  0  0  0  0  0  0  0  0  0  0  0
   -1.1947    1.0301   -1.1350 N   0  0  0  0  0  0  0  0  0  0  0  0
   -2.2023    1.9245   -0.6000 C   0  0  0  0  0  0  0  0  0  0  0  0
   -3.1099    1.2448    0.4290 C   0  0  0  0  0  0  0  0  0  0  0  0
   -4.2126    2.1620    0.8989 C   0  0  0  0  0  0  0  0  0  0  0  0
   -3.9213    3.2862    1.6854 C   0  0  0  0  0  0  0  0  0  0  0  0
   -4.9427    4.1385    2.1071 C   0  0  0  0  0  0  0  0  0  0  0  0
   -6.2641    3.8745    1.7481 C   0  0  0  0  0  0  0  0  0  0  0  0
   -6.5654    2.7567    0.9721 C   0  0  0  0  0  0  0  0  0  0  0  0
   -5.5456    1.9022    0.5512 C   0  0  0  0  0  0  0  0  0  0  0  0
    5.3478   -0.3420    1.6476 C   0  0  0  0  0  0  0  0  0  0  0  0
    5.0294    0.9034    2.1404 O   0  0  0  0  0  0  0  0  0  0  0  0
    6.0908    1.6366    2.7428 C   0  0  0  0  0  0  0  0  0  0  0  0
    6.6496   -0.7965    1.4122 C   0  0  0  0  0  0  0  0  0  0  0  0
    8.0623   -3.7063   -0.9032 H   0  0  0  0  0  0  0  0  0  0  0  0
    8.1080   -4.4728    0.7336 H   0  0  0  0  0  0  0  0  0  0  0  0
    9.5630   -3.7585    0.0385 H   0  0  0  0  0  0  0  0  0  0  0  0
    5.9220   -3.9079    0.2236 H   0  0  0  0  0  0  0  0  0  0  0  0
    3.6660   -3.1362    0.6173 H   0  0  0  0  0  0  0  0  0  0  0  0
    2.9642    0.3198    1.8780 H   0  0  0  0  0  0  0  0  0  0  0  0
   -0.3707   -0.9623    1.7062 H   0  0  0  0  0  0  0  0  0  0  0  0
    0.6359   -0.2175    2.9590 H   0  0  0  0  0  0  0  0  0  0  0  0
   -1.8999    0.0822   -4.3407 H   0  0  0  0  0  0  0  0  0  0  0  0
   -2.4549    1.5718   -3.6090 H   0  0  0  0  0  0  0  0  0  0  0  0
   -5.0858    1.4198   -3.0900 H   0  0  0  0  0  0  0  0  0  0  0  0
   -6.7917   -0.5754   -2.4054 H   0  0  0  0  0  0  0  0  0  0  0  0
   -5.2916   -2.8236   -2.2351 H   0  0  0  0  0  0  0  0  0  0  0  0
   -3.0717   -3.5087   -2.9542 H   0  0  0  0  0  0  0  0  0  0  0  0
   -2.0144   -2.3131   -3.7467 H   0  0  0  0  0  0  0  0  0  0  0  0
   -2.0391   -2.4540   -1.9409 H   0  0  0  0  0  0  0  0  0  0  0  0
   -1.6815    2.7833   -0.1629 H   0  0  0  0  0  0  0  0  0  0  0  0
   -2.7877    2.3245   -1.4336 H   0  0  0  0  0  0  0  0  0  0  0  0
   -2.5351    0.9209    1.3070 H   0  0  0  0  0  0  0  0  0  0  0  0
   -3.5378    0.3271    0.0080 H   0  0  0  0  0  0  0  0  0  0  0  0
   -2.8970    3.5055    1.9825 H   0  0  0  0  0  0  0  0  0  0  0  0
   -4.7067    5.0061    2.7185 H   0  0  0  0  0  0  0  0  0  0  0  0
   -7.0617    4.5369    2.0746 H   0  0  0  0  0  0  0  0  0  0  0  0
   -7.5978    2.5496    0.7001 H   0  0  0  0  0  0  0  0  0  0  0  0
   -5.8001    1.0291   -0.0461 H   0  0  0  0  0  0  0  0  0  0  0  0
    5.6644    2.5466    3.1800 H   0  0  0  0  0  0  0  0  0  0  0  0
    6.8290    1.9482    1.9956 H   0  0  0  0  0  0  0  0  0  0  0  0
    6.5567    1.0611    3.5523 H   0  0  0  0  0  0  0  0  0  0  0  0
    7.5090   -0.1634    1.5987 H   0  0  0  0  0  0  0  0  0  0  0  0
  1  2  1  0
  2  3  1  0
  3  4  2  0
  4  5  1  0
  5  6  2  0
  6  7  1  0
  7  8  1  0
  8  9  2  0
  8 10  1  0
 10 11  1  0
 11 12  1  0
 12 13  2  0
 13 14  1  0
 14 15  2  0
 15 16  1  0
 16 17  1  0
 17 18  2  0
 18 19  1  0
 19 20  2  0
 20 21  1  0
 21 22  1  0
 15 23  1  0
 23 24  1  0
 24 25  1  0
 25 26  1  0
 26 27  2  0
 27 28  1  0
 28 29  2  0
 29 30  1  0
 30 31  2  0
  6 32  1  0
 32 33  1  0
 33 34  1  0
 32 35  2  0
 35  3  1  0
 23 12  1  0
 31 26  1  0
 21 17  1  0
  1 36  1  0
  1 37  1  0
  1 38  1  0
  4 39  1  0
  5 40  1  0
  7 41  1  0
 10 42  1  0
 10 43  1  0
 16 44  1  0
 16 45  1  0
 18 46  1  0
 19 47  1  0
 20 48  1  0
 22 49  1  0
 22 50  1  0
 22 51  1  0
 24 52  1  0
 24 53  1  0
 25 54  1  0
 25 55  1  0
 27 56  1  0
 28 57  1  0
 29 58  1  0
 30 59  1  0
 31 60  1  0
 34 61  1  0
 34 62  1  0
 34 63  1  0
 35 64  1  0
M  END
$$$$
