
     RDKit          3D

 55 58  0  0  0  0  0  0  0  0999 V2000
    2.1175   -1.1915   -1.6627 O   0  0  0  0  0  0  0  0  0  0  0  0
    2.0399    0.0299   -1.8069 C   0  0  0  0  0  0  0  0  0  0  0  0
    1.3331    0.6956   -2.9729 C   0  0  0  0  0  0  0  0  0  0  0  0
   -0.3837    0.1293   -3.1061 S   0  0  0  0  0  0  0  0  0  0  0  0
   -1.0813    0.9031   -1.7259 C   0  0  0  0  0  0  0  0  0  0  0  0
   -0.5139    1.8474   -1.0152 N   0  0  0  0  0  0  0  0  0  0  0  0
   -1.3942    2.2076   -0.0260 N   0  0  0  0  0  0  0  0  0  0  0  0
   -2.5010    1.4960   -0.1713 C   0  0  0  0  0  0  0  0  0  0  0  0
   -3.6787    1.5772    0.6867 C   0  0  0  0  0  0  0  0  0  0  0  0
   -3.5595    1.2220    2.0384 C   0  0  0  0  0  0  0  0  0  0  0  0
   -4.6668    1.2728    2.8880 C   0  0  0  0  0  0  0  0  0  0  0  0
   -5.9011    1.6968    2.3982 C   0  0  0  0  0  0  0  0  0  0  0  0
   -6.0313    2.0733    1.0623 C   0  0  0  0  0  0  0  0  0  0  0  0
   -4.9247    2.0125    0.2124 C   0  0  0  0  0  0  0  0  0  0  0  0
   -5.0645    2.3716   -1.1032 O   0  0  0  0  0  0  0  0  0  0  0  0
   -2.3207    0.6165   -1.2221 N   0  0  0  0  0  0  0  0  0  0  0  0
   -3.2451   -0.4110   -1.6625 C   0  0  0  0  0  0  0  0  0  0  0  0
   -3.3226   -1.5641   -0.6887 C   0  0  0  0  0  0  0  0  0  0  0  0
   -2.2008   -2.3634   -0.4221 C   0  0  0  0  0  0  0  0  0  0  0  0
   -2.2855   -3.4272    0.4789 C   0  0  0  0  0  0  0  0  0  0  0  0
   -3.4873   -3.7006    1.1278 C   0  0  0  0  0  0  0  0  0  0  0  0
   -4.6102   -2.9195    0.8678 C   0  0  0  0  0  0  0  0  0  0  0  0
   -4.5300   -1.8596   -0.0368 C   0  0  0  0  0  0  0  0  0  0  0  0
    2.6290    0.9133   -0.9189 N   0  0  0  0  0  0  0  0  0  0  0  0
    3.5887    0.3927   -0.0321 N   0  0  0  0  0  0  0  0  0  0  0  0
    4.8550    0.9462   -0.0974 C   0  0  0  0  0  0  0  0  0  0  0  0
    5.1127    1.9473   -0.7674 O   0  0  0  0  0  0  0  0  0  0  0  0
    5.9435    0.2541    0.6423 C   0  0  0  0  0  0  0  0  0  0  0  0
    5.6656   -0.6168    1.7094 C   0  0  0  0  0  0  0  0  0  0  0  0
    6.7098   -1.2634    2.3773 C   0  0  0  0  0  0  0  0  0  0  0  0
    8.0325   -1.0453    1.9913 C   0  0  0  0  0  0  0  0  0  0  0  0
    8.3188   -0.1654    0.9491 C   0  0  0  0  0  0  0  0  0  0  0  0
    7.2816    0.4882    0.2852 C   0  0  0  0  0  0  0  0  0  0  0  0
    7.6530    1.3560   -0.7079 O   0  0  0  0  0  0  0  0  0  0  0  0
    1.8689    0.4152   -3.8856 H   0  0  0  0  0  0  0  0  0  0  0  0
    1.3686    1.7868   -2.8971 H   0  0  0  0  0  0  0  0  0  0  0  0
   -2.5971    0.8975    2.4314 H   0  0  0  0  0  0  0  0  0  0  0  0
   -4.5646    0.9823    3.9311 H   0  0  0  0  0  0  0  0  0  0  0  0
   -6.7609    1.7378    3.0625 H   0  0  0  0  0  0  0  0  0  0  0  0
   -7.0020    2.4059    0.7002 H   0  0  0  0  0  0  0  0  0  0  0  0
   -5.9153    2.8352   -1.2147 H   0  0  0  0  0  0  0  0  0  0  0  0
   -2.9476   -0.7883   -2.6458 H   0  0  0  0  0  0  0  0  0  0  0  0
   -4.2241    0.0561   -1.8086 H   0  0  0  0  0  0  0  0  0  0  0  0
   -1.2480   -2.1734   -0.9137 H   0  0  0  0  0  0  0  0  0  0  0  0
   -1.4095   -4.0429    0.6728 H   0  0  0  0  0  0  0  0  0  0  0  0
   -3.5499   -4.5272    1.8297 H   0  0  0  0  0  0  0  0  0  0  0  0
   -5.5501   -3.1339    1.3701 H   0  0  0  0  0  0  0  0  0  0  0  0
   -5.4175   -1.2591   -0.2222 H   0  0  0  0  0  0  0  0  0  0  0  0
    2.7262    1.9044   -1.1363 H   0  0  0  0  0  0  0  0  0  0  0  0
    3.4606   -0.5909    0.2004 H   0  0  0  0  0  0  0  0  0  0  0  0
    4.6485   -0.7890    2.0508 H   0  0  0  0  0  0  0  0  0  0  0  0
    6.4915   -1.9403    3.2020 H   0  0  0  0  0  0  0  0  0  0  0  0
    8.8429   -1.5549    2.5060 H   0  0  0  0  0  0  0  0  0  0  0  0
    9.3507    0.0130    0.6509 H   0  0  0  0  0  0  0  0  0  0  0  0
    6.8504    1.8441   -1.0037 H   0  0  0  0  0  0  0  0  0  0  0  0
  1  2  2  0
  2  3  1  0
  3  4  1  0
  4  5  1  0
  5  6  2  0
  6  7  1  0
  7  8  2  0
  8  9  1  0
  9 10  2  0
 10 11  1  0
 11 12  2  0
 12 13  1  0
 13 14  2  0
 14 15  1  0
  8 16  1  0
 16 17  1  0
 17 18  1  0
 18 19  2  0
 19 20  1  0
 20 21  2  0
 21 22  1  0
 22 23  2  0
  2 24  1  0
 24 25  1  0
 25 26  1  0
 26 27  2  0
 26 28  1  0
 28 29  2  0
 29 30  1  0
 30 31  2  0
 31 32  1  0
 32 33  2  0
 33 34  1  0
 16  5  1  0
 23 18  1  0
 33 28  1  0
 14  9  1  0
  3 35  1  0
  3 36  1  0
 10 37  1  0
 11 38  1  0
 12 39  1  0
 13 40  1  0
 15 41  1  0
 17 42  1  0
 17 43  1  0
 19 44  1  0
 20 45  1  0
 21 46  1  0
 22 47  1  0
 23 48  1  0
 24 49  1  0
 25 50  1  0
 29 51  1  0
 30 52  1  0
 31 53  1  0
 32 54  1  0
 34 55  1  0
M  END
$$$$
