
     RDKit          3D

 53 55  0  0  0  0  0  0  0  0999 V2000
   -7.0216   -2.6404   -0.3737 C   0  0  0  0  0  0  0  0  0  0  0  0
   -5.8507   -2.0753    0.1974 O   0  0  0  0  0  0  0  0  0  0  0  0
   -4.9072   -1.5664   -0.6568 C   0  0  0  0  0  0  0  0  0  0  0  0
   -5.0715   -1.4655   -2.0416 C   0  0  0  0  0  0  0  0  0  0  0  0
   -4.0477   -0.9532   -2.8413 C   0  0  0  0  0  0  0  0  0  0  0  0
   -2.8519   -0.5434   -2.2660 C   0  0  0  0  0  0  0  0  0  0  0  0
   -2.6797   -0.6364   -0.8857 C   0  0  0  0  0  0  0  0  0  0  0  0
   -3.7062   -1.1295   -0.0594 C   0  0  0  0  0  0  0  0  0  0  0  0
   -3.5182   -1.2650    1.4381 C   0  0  0  0  0  0  0  0  0  0  0  0
   -2.5197   -0.3711    1.9773 N   0  0  0  0  0  0  0  0  0  0  0  0
   -1.3577   -0.8120    2.5596 C   0  0  0  0  0  0  0  0  0  0  0  0
   -1.0491   -1.9728    2.7907 O   0  0  0  0  0  0  0  0  0  0  0  0
   -0.3763    0.3294    2.9154 C   0  0  0  0  0  0  0  0  0  0  0  0
   -0.7333    1.4972    2.8532 O   0  0  0  0  0  0  0  0  0  0  0  0
    0.8783   -0.1218    3.2598 N   0  0  0  0  0  0  0  0  0  0  0  0
    2.0051    0.7761    3.4037 C   0  0  0  0  0  0  0  0  0  0  0  0
    2.8199    1.0084    2.1117 C   0  0  0  0  0  0  0  0  0  0  0  0
    3.8994    1.9117    2.4177 O   0  0  0  0  0  0  0  0  0  0  0  0
    3.9832    2.8482    1.3384 C   0  0  0  0  0  0  0  0  0  0  0  0
    2.5611    2.9876    0.8473 C   0  0  0  0  0  0  0  0  0  0  0  0
    2.0183    1.6476    1.0586 N   0  0  0  0  0  0  0  0  0  0  0  0
    1.5227    0.7248   -0.2460 S   0  0  0  0  0  6  0  0  0  0  0  0
    1.0508   -0.5515    0.2490 O   0  0  0  0  0  0  0  0  0  0  0  0
    0.6823    1.5460   -1.0922 O   0  0  0  0  0  0  0  0  0  0  0  0
    3.0237    0.4077   -1.1575 C   0  0  0  0  0  0  0  0  0  0  0  0
    3.4122    1.2850   -2.1771 C   0  0  0  0  0  0  0  0  0  0  0  0
    4.5625    1.0142   -2.9195 C   0  0  0  0  0  0  0  0  0  0  0  0
    5.3050   -0.1359   -2.6528 C   0  0  0  0  0  0  0  0  0  0  0  0
    6.8580   -0.5006   -3.6640 Br  0  0  0  0  0  0  0  0  0  0  0  0
    4.9046   -1.0248   -1.6550 C   0  0  0  0  0  0  0  0  0  0  0  0
    3.7545   -0.7590   -0.9092 C   0  0  0  0  0  0  0  0  0  0  0  0
   -7.6207   -1.8743   -0.8716 H   0  0  0  0  0  0  0  0  0  0  0  0
   -7.6237   -3.0599    0.4377 H   0  0  0  0  0  0  0  0  0  0  0  0
   -6.7741   -3.4558   -1.0601 H   0  0  0  0  0  0  0  0  0  0  0  0
   -5.9874   -1.7774   -2.5345 H   0  0  0  0  0  0  0  0  0  0  0  0
   -4.1812   -0.8816   -3.9153 H   0  0  0  0  0  0  0  0  0  0  0  0
   -2.0475   -0.1531   -2.8852 H   0  0  0  0  0  0  0  0  0  0  0  0
   -1.7263   -0.3256   -0.4663 H   0  0  0  0  0  0  0  0  0  0  0  0
   -4.4449   -0.9967    1.9560 H   0  0  0  0  0  0  0  0  0  0  0  0
   -3.2704   -2.3054    1.6794 H   0  0  0  0  0  0  0  0  0  0  0  0
   -2.6186    0.6287    1.8359 H   0  0  0  0  0  0  0  0  0  0  0  0
    1.0232   -1.1218    3.1332 H   0  0  0  0  0  0  0  0  0  0  0  0
    1.6520    1.7373    3.7999 H   0  0  0  0  0  0  0  0  0  0  0  0
    2.6614    0.3454    4.1692 H   0  0  0  0  0  0  0  0  0  0  0  0
    3.2656    0.0677    1.7789 H   0  0  0  0  0  0  0  0  0  0  0  0
    4.4064    3.7917    1.6926 H   0  0  0  0  0  0  0  0  0  0  0  0
    4.6407    2.4281    0.5720 H   0  0  0  0  0  0  0  0  0  0  0  0
    1.9965    3.6807    1.4792 H   0  0  0  0  0  0  0  0  0  0  0  0
    2.5097    3.3479   -0.1809 H   0  0  0  0  0  0  0  0  0  0  0  0
    2.8206    2.1677   -2.4063 H   0  0  0  0  0  0  0  0  0  0  0  0
    4.8645    1.6975   -3.7098 H   0  0  0  0  0  0  0  0  0  0  0  0
    5.4707   -1.9309   -1.4641 H   0  0  0  0  0  0  0  0  0  0  0  0
    3.4329   -1.4695   -0.1528 H   0  0  0  0  0  0  0  0  0  0  0  0
  1  2  1  0
  2  3  1  0
  3  4  2  0
  4  5  1  0
  5  6  2  0
  6  7  1  0
  7  8  2  0
  8  9  1  0
  9 10  1  0
 10 11  1  0
 11 12  2  0
 11 13  1  0
 13 14  2  0
 13 15  1  0
 15 16  1  0
 16 17  1  0
 17 18  1  0
 18 19  1  0
 19 20  1  0
 20 21  1  0
 21 22  1  0
 22 23  2  0
 22 24  2  0
 22 25  1  0
 25 26  2  0
 26 27  1  0
 27 28  2  0
 28 29  1  0
 28 30  1  0
 30 31  2  0
  8  3  1  0
 21 17  1  0
 31 25  1  0
  1 32  1  0
  1 33  1  0
  1 34  1  0
  4 35  1  0
  5 36  1  0
  6 37  1  0
  7 38  1  0
  9 39  1  0
  9 40  1  0
 10 41  1  0
 15 42  1  0
 16 43  1  0
 16 44  1  0
 17 45  1  0
 19 46  1  0
 19 47  1  0
 20 48  1  0
 20 49  1  0
 26 50  1  0
 27 51  1  0
 30 52  1  0
 31 53  1  0
M  END
$$$$
