
     RDKit          3D

 49 52  0  0  0  0  0  0  0  0999 V2000
    4.7865   -1.8637    1.2263 C   0  0  0  0  0  0  0  0  0  0  0  0
    4.2741   -0.6463    0.6050 N   0  0  0  0  0  0  0  0  0  0  0  0
    3.3216   -0.9634   -0.4745 C   0  0  0  0  0  0  0  0  0  0  0  0
    2.7095    0.3112   -1.1008 C   0  0  0  0  0  0  0  0  0  0  0  0
    2.0392    1.2140   -0.1360 N   0  0  0  0  0  0  0  0  0  0  0  0
    0.7669    0.6360    0.3319 C   0  0  0  0  0  0  0  0  0  0  0  0
   -0.1684    1.7106    0.9000 C   0  0  0  0  0  0  0  0  0  0  0  0
   -1.4443    1.1208    1.5236 C   0  0  0  0  0  0  0  0  0  0  0  0
   -2.2961    0.3798    0.5596 N   0  0  0  0  0  0  0  0  0  0  0  0
   -2.2005   -1.0371    0.5885 C   0  0  0  0  0  0  0  0  0  0  0  0
   -2.1508   -1.7382    1.8109 C   0  0  0  0  0  0  0  0  0  0  0  0
   -2.0623   -3.1329    1.8615 C   0  0  0  0  0  0  0  0  0  0  0  0
   -2.0392   -3.8684    0.6855 C   0  0  0  0  0  0  0  0  0  0  0  0
   -2.1233   -3.2073   -0.5364 C   0  0  0  0  0  0  0  0  0  0  0  0
   -2.2190   -1.8058   -0.5922 C   0  0  0  0  0  0  0  0  0  0  0  0
   -2.3214   -1.0764   -2.2140 S   0  0  0  0  0  0  0  0  0  0  0  0
   -2.8952    0.5663   -1.8316 C   0  0  0  0  0  0  0  0  0  0  0  0
   -3.4102    1.3175   -2.9028 C   0  0  0  0  0  0  0  0  0  0  0  0
   -3.8573    2.6216   -2.7075 C   0  0  0  0  0  0  0  0  0  0  0  0
   -3.7932    3.1758   -1.4374 C   0  0  0  0  0  0  0  0  0  0  0  0
   -4.3599    4.7802   -1.1771 Cl  0  0  0  0  0  0  0  0  0  0  0  0
   -3.2792    2.4406   -0.3670 C   0  0  0  0  0  0  0  0  0  0  0  0
   -2.8032    1.1250   -0.5397 C   0  0  0  0  0  0  0  0  0  0  0  0
    2.9895    1.4869    0.9658 C   0  0  0  0  0  0  0  0  0  0  0  0
    3.6404    0.2331    1.6030 C   0  0  0  0  0  0  0  0  0  0  0  0
    5.5260   -1.6196    1.9969 H   0  0  0  0  0  0  0  0  0  0  0  0
    5.2982   -2.4871    0.4848 H   0  0  0  0  0  0  0  0  0  0  0  0
    3.9918   -2.4604    1.6883 H   0  0  0  0  0  0  0  0  0  0  0  0
    3.8432   -1.5148   -1.2662 H   0  0  0  0  0  0  0  0  0  0  0  0
    2.5167   -1.6118   -0.1045 H   0  0  0  0  0  0  0  0  0  0  0  0
    2.0157    0.0309   -1.9031 H   0  0  0  0  0  0  0  0  0  0  0  0
    3.5091    0.8785   -1.5962 H   0  0  0  0  0  0  0  0  0  0  0  0
    0.9234   -0.1633    1.0646 H   0  0  0  0  0  0  0  0  0  0  0  0
    0.2563    0.1814   -0.5240 H   0  0  0  0  0  0  0  0  0  0  0  0
   -0.4164    2.4322    0.1130 H   0  0  0  0  0  0  0  0  0  0  0  0
    0.3397    2.2793    1.6871 H   0  0  0  0  0  0  0  0  0  0  0  0
   -1.1279    0.5015    2.3692 H   0  0  0  0  0  0  0  0  0  0  0  0
   -2.0231    1.9245    1.9932 H   0  0  0  0  0  0  0  0  0  0  0  0
   -2.2251   -1.2100    2.7575 H   0  0  0  0  0  0  0  0  0  0  0  0
   -2.0281   -3.6399    2.8225 H   0  0  0  0  0  0  0  0  0  0  0  0
   -1.9739   -4.9526    0.7165 H   0  0  0  0  0  0  0  0  0  0  0  0
   -2.1209   -3.7938   -1.4529 H   0  0  0  0  0  0  0  0  0  0  0  0
   -3.4637    0.8866   -3.9006 H   0  0  0  0  0  0  0  0  0  0  0  0
   -4.2545    3.1902   -3.5435 H   0  0  0  0  0  0  0  0  0  0  0  0
   -3.2813    2.9039    0.6142 H   0  0  0  0  0  0  0  0  0  0  0  0
    2.5162    2.0859    1.7510 H   0  0  0  0  0  0  0  0  0  0  0  0
    3.7895    2.1234    0.5639 H   0  0  0  0  0  0  0  0  0  0  0  0
    2.8844   -0.3171    2.1774 H   0  0  0  0  0  0  0  0  0  0  0  0
    4.4005    0.5721    2.3175 H   0  0  0  0  0  0  0  0  0  0  0  0
  1  2  1  0
  2  3  1  0
  3  4  1  0
  4  5  1  0
  5  6  1  0
  6  7  1  0
  7  8  1  0
  8  9  1  0
  9 10  1  0
 10 11  2  0
 11 12  1  0
 12 13  2  0
 13 14  1  0
 14 15  2  0
 15 16  1  0
 16 17  1  0
 17 18  2  0
 18 19  1  0
 19 20  2  0
 20 21  1  0
 20 22  1  0
 22 23  2  0
  5 24  1  0
 24 25  1  0
 25  2  1  0
 23  9  1  0
 15 10  1  0
 23 17  1  0
  1 26  1  0
  1 27  1  0
  1 28  1  0
  3 29  1  0
  3 30  1  0
  4 31  1  0
  4 32  1  0
  6 33  1  0
  6 34  1  0
  7 35  1  0
  7 36  1  0
  8 37  1  0
  8 38  1  0
 11 39  1  0
 12 40  1  0
 13 41  1  0
 14 42  1  0
 18 43  1  0
 19 44  1  0
 22 45  1  0
 24 46  1  0
 24 47  1  0
 25 48  1  0
 25 49  1  0
M  END
$$$$
