
     RDKit          3D

 50 53  0  0  0  0  0  0  0  0999 V2000
   -0.4622    1.8908    4.2938 C   0  0  0  0  0  0  0  0  0  0  0  0
   -0.5164    1.8111    2.7762 C   0  0  0  0  0  0  0  0  0  0  0  0
   -0.9627    0.4402    2.2871 C   0  0  0  0  0  0  0  0  0  0  0  0
   -1.3165   -0.4317    3.0837 O   0  0  0  0  0  0  0  0  0  0  0  0
   -0.9425    0.2153    0.9138 N   0  0  0  0  0  0  0  0  0  0  0  0
   -1.3859   -1.0910    0.4153 C   0  0  0  0  0  0  0  0  0  0  0  0
   -2.8236   -1.0759   -0.0459 C   0  0  0  0  0  0  0  0  0  0  0  0
   -3.8657   -1.1705    0.8876 C   0  0  0  0  0  0  0  0  0  0  0  0
   -5.1984   -1.1476    0.4685 C   0  0  0  0  0  0  0  0  0  0  0  0
   -5.5133   -1.0233   -0.8902 C   0  0  0  0  0  0  0  0  0  0  0  0
   -6.9486   -0.9758   -1.3242 C   0  0  0  0  0  0  0  0  0  0  0  0
   -4.4748   -0.9159   -1.8233 C   0  0  0  0  0  0  0  0  0  0  0  0
   -3.1426   -0.9476   -1.4063 C   0  0  0  0  0  0  0  0  0  0  0  0
   -0.5269    1.2031   -0.0920 C   0  0  0  0  0  0  0  0  0  0  0  0
    0.8791    0.9535   -0.5779 C   0  0  0  0  0  0  0  0  0  0  0  0
    1.8429    0.2846    0.0815 C   0  0  0  0  0  0  0  0  0  0  0  0
    3.1617    0.0654   -0.5127 C   0  0  0  0  0  0  0  0  0  0  0  0
    4.1563   -0.6369    0.1754 C   0  0  0  0  0  0  0  0  0  0  0  0
    5.3620   -0.8275   -0.4676 C   0  0  0  0  0  0  0  0  0  0  0  0
    5.5972   -0.3472   -1.7400 C   0  0  0  0  0  0  0  0  0  0  0  0
    4.6423    0.3519   -2.4439 C   0  0  0  0  0  0  0  0  0  0  0  0
    3.4134    0.5586   -1.8140 C   0  0  0  0  0  0  0  0  0  0  0  0
    2.4060    1.2697   -2.4744 N   0  0  0  0  0  0  0  0  0  0  0  0
    1.1721    1.5184   -1.9369 C   0  0  0  0  0  0  0  0  0  0  0  0
    0.3374    2.1755   -2.5530 O   0  0  0  0  0  0  0  0  0  0  0  0
    6.8441   -0.6554   -2.1866 O   0  0  0  0  0  0  0  0  0  0  0  0
    7.3725   -1.3701   -1.0477 C   0  0  0  0  0  0  0  0  0  0  0  0
    6.4307   -1.4909    0.0369 O   0  0  0  0  0  0  0  0  0  0  0  0
   -1.4542    1.7305    4.7315 H   0  0  0  0  0  0  0  0  0  0  0  0
    0.2134    1.1309    4.7002 H   0  0  0  0  0  0  0  0  0  0  0  0
   -0.1038    2.8717    4.6164 H   0  0  0  0  0  0  0  0  0  0  0  0
    0.4797    2.0289    2.3780 H   0  0  0  0  0  0  0  0  0  0  0  0
   -1.2235    2.5618    2.4124 H   0  0  0  0  0  0  0  0  0  0  0  0
   -0.7256   -1.4051   -0.4049 H   0  0  0  0  0  0  0  0  0  0  0  0
   -1.2694   -1.8556    1.1951 H   0  0  0  0  0  0  0  0  0  0  0  0
   -3.6424   -1.2632    1.9505 H   0  0  0  0  0  0  0  0  0  0  0  0
   -5.9895   -1.2231    1.2129 H   0  0  0  0  0  0  0  0  0  0  0  0
   -7.0404   -1.0364   -2.4144 H   0  0  0  0  0  0  0  0  0  0  0  0
   -7.4126   -0.0382   -0.9943 H   0  0  0  0  0  0  0  0  0  0  0  0
   -7.5022   -1.8192   -0.8994 H   0  0  0  0  0  0  0  0  0  0  0  0
   -4.6940   -0.8026   -2.8825 H   0  0  0  0  0  0  0  0  0  0  0  0
   -2.3555   -0.8629   -2.1541 H   0  0  0  0  0  0  0  0  0  0  0  0
   -1.2460    1.1503   -0.9166 H   0  0  0  0  0  0  0  0  0  0  0  0
   -0.5891    2.2191    0.3089 H   0  0  0  0  0  0  0  0  0  0  0  0
    1.6686   -0.1317    1.0673 H   0  0  0  0  0  0  0  0  0  0  0  0
    3.9990   -1.0239    1.1772 H   0  0  0  0  0  0  0  0  0  0  0  0
    4.8493    0.7102   -3.4458 H   0  0  0  0  0  0  0  0  0  0  0  0
    2.5693    1.6458   -3.3984 H   0  0  0  0  0  0  0  0  0  0  0  0
    8.2623   -0.8411   -0.6811 H   0  0  0  0  0  0  0  0  0  0  0  0
    7.6693   -2.3771   -1.3670 H   0  0  0  0  0  0  0  0  0  0  0  0
  1  2  1  0
  2  3  1  0
  3  4  2  0
  3  5  1  0
  5  6  1  0
  6  7  1  0
  7  8  2  0
  8  9  1  0
  9 10  2  0
 10 11  1  0
 10 12  1  0
 12 13  2  0
  5 14  1  0
 14 15  1  0
 15 16  2  0
 16 17  1  0
 17 18  2  0
 18 19  1  0
 19 20  2  0
 20 21  1  0
 21 22  2  0
 22 23  1  0
 23 24  1  0
 24 25  2  0
 20 26  1  0
 26 27  1  0
 27 28  1  0
 13  7  1  0
 24 15  1  0
 22 17  1  0
 28 19  1  0
  1 29  1  0
  1 30  1  0
  1 31  1  0
  2 32  1  0
  2 33  1  0
  6 34  1  0
  6 35  1  0
  8 36  1  0
  9 37  1  0
 11 38  1  0
 11 39  1  0
 11 40  1  0
 12 41  1  0
 13 42  1  0
 14 43  1  0
 14 44  1  0
 16 45  1  0
 18 46  1  0
 21 47  1  0
 23 48  1  0
 27 49  1  0
 27 50  1  0
M  END
$$$$
