
     RDKit          3D

 36 36  0  0  0  0  0  0  0  0999 V2000
    0.5013   -4.7891    3.3460 C   0  0  0  0  0  0  0  0  0  0  0  0
   -0.5312   -3.9964    2.5642 C   0  0  0  0  0  0  0  0  0  0  0  0
    0.0449   -2.8325    1.9738 O   0  0  0  0  0  0  0  0  0  0  0  0
    0.7237   -3.1002    0.7480 C   0  0  0  0  0  0  0  0  0  0  0  0
    1.2832   -1.7945    0.1968 C   0  0  0  0  0  0  0  0  0  0  0  0
    0.1778   -0.7794   -0.0817 C   0  0  0  0  0  0  0  0  0  0  0  0
    0.7094    0.4408   -0.6604 N   0  0  0  0  0  0  0  0  0  0  0  0
    0.9566    0.5558   -2.0090 C   0  0  0  0  0  0  0  0  0  0  0  0
    0.7303   -0.3233   -2.8306 O   0  0  0  0  0  0  0  0  0  0  0  0
    1.5577    1.8499   -2.4131 C   0  0  0  0  0  0  0  0  0  0  0  0
    2.8595    1.7873   -2.9827 C   0  0  0  0  0  0  0  0  0  0  0  0
    3.9308    1.7843   -3.4286 N   0  0  0  0  0  0  0  0  0  0  0  0
    0.9379    3.0359   -2.2744 C   0  0  0  0  0  0  0  0  0  0  0  0
   -0.3868    3.2277   -1.7930 C   0  0  0  0  0  0  0  0  0  0  0  0
   -1.5470    2.4678   -1.9491 C   0  0  0  0  0  0  0  0  0  0  0  0
   -2.6086    3.1301   -1.2816 C   0  0  0  0  0  0  0  0  0  0  0  0
   -2.0466    4.2682   -0.7672 C   0  0  0  0  0  0  0  0  0  0  0  0
   -2.5984    5.3433   -0.0056 N   0  0  0  0  0  4  0  0  0  0  0  0
   -3.8076    5.2676    0.2520 O   0  0  0  0  0  0  0  0  0  0  0  0
   -1.8386    6.2564    0.3392 O   0  0  0  0  0  1  0  0  0  0  0  0
   -0.7265    4.3513   -1.0666 O   0  0  0  0  0  0  0  0  0  0  0  0
    1.2655   -5.2076    2.6849 H   0  0  0  0  0  0  0  0  0  0  0  0
    1.0161   -4.1460    4.0674 H   0  0  0  0  0  0  0  0  0  0  0  0
    0.0259   -5.6142    3.8845 H   0  0  0  0  0  0  0  0  0  0  0  0
   -1.3083   -3.6508    3.2542 H   0  0  0  0  0  0  0  0  0  0  0  0
   -1.0201   -4.6168    1.8042 H   0  0  0  0  0  0  0  0  0  0  0  0
    0.0267   -3.5456    0.0291 H   0  0  0  0  0  0  0  0  0  0  0  0
    1.5478   -3.7994    0.9209 H   0  0  0  0  0  0  0  0  0  0  0  0
    1.8501   -2.0014   -0.7184 H   0  0  0  0  0  0  0  0  0  0  0  0
    1.9850   -1.3613    0.9206 H   0  0  0  0  0  0  0  0  0  0  0  0
   -0.3353   -0.4930    0.8418 H   0  0  0  0  0  0  0  0  0  0  0  0
   -0.5648   -1.2002   -0.7687 H   0  0  0  0  0  0  0  0  0  0  0  0
    0.9859    1.1803   -0.0259 H   0  0  0  0  0  0  0  0  0  0  0  0
    1.4705    3.9470   -2.5437 H   0  0  0  0  0  0  0  0  0  0  0  0
   -1.6243    1.5359   -2.4974 H   0  0  0  0  0  0  0  0  0  0  0  0
   -3.6423    2.8220   -1.2009 H   0  0  0  0  0  0  0  0  0  0  0  0
  1  2  1  0
  2  3  1  0
  3  4  1  0
  4  5  1  0
  5  6  1  0
  6  7  1  0
  7  8  1  0
  8  9  2  0
  8 10  1  0
 10 11  1  0
 11 12  3  0
 10 13  2  3
 13 14  1  0
 14 15  2  0
 15 16  1  0
 16 17  2  0
 17 18  1  0
 18 19  2  0
 18 20  1  0
 17 21  1  0
 21 14  1  0
  1 22  1  0
  1 23  1  0
  1 24  1  0
  2 25  1  0
  2 26  1  0
  4 27  1  0
  4 28  1  0
  5 29  1  0
  5 30  1  0
  6 31  1  0
  6 32  1  0
  7 33  1  0
 13 34  1  0
 15 35  1  0
 16 36  1  0
M  CHG  2  18   1  20  -1
M  END
$$$$
