
     RDKit          3D

 46 49  0  0  0  0  0  0  0  0999 V2000
    4.5400   -0.6921    1.9959 O   0  0  0  0  0  0  0  0  0  0  0  0
    3.6559   -0.8715    1.1607 C   0  0  0  0  0  0  0  0  0  0  0  0
    2.7282   -2.0752    1.2528 C   0  0  0  0  0  0  0  0  0  0  0  0
    1.1999   -1.6548    2.1355 S   0  0  0  0  0  0  0  0  0  0  0  0
    0.3112   -0.8263    0.9066 C   0  0  0  0  0  0  0  0  0  0  0  0
    0.7291   -0.6190   -0.3197 N   0  0  0  0  0  0  0  0  0  0  0  0
   -0.2079    0.1400   -0.9598 N   0  0  0  0  0  0  0  0  0  0  0  0
   -1.2165    0.3435   -0.1294 C   0  0  0  0  0  0  0  0  0  0  0  0
   -2.4545    1.1166   -0.4510 C   0  0  0  0  0  0  0  0  0  0  0  0
   -3.2973    0.4450   -1.4983 C   0  0  0  0  0  0  0  0  0  0  0  0
   -3.0346    0.3163   -2.8495 C   0  0  0  0  0  0  0  0  0  0  0  0
   -4.0723   -0.3695   -3.5431 C   0  0  0  0  0  0  0  0  0  0  0  0
   -5.0942   -0.7442   -2.7006 C   0  0  0  0  0  0  0  0  0  0  0  0
   -4.8044   -0.2592   -1.0875 S   0  0  0  0  0  0  0  0  0  0  0  0
   -0.9169   -0.2458    1.0838 N   0  0  0  0  0  0  0  0  0  0  0  0
   -1.6971   -0.1908    2.3054 C   0  0  0  0  0  0  0  0  0  0  0  0
   -2.7489   -1.2353    2.3300 C   0  0  0  0  0  0  0  0  0  0  0  0
   -4.1245   -1.1952    2.4387 C   0  0  0  0  0  0  0  0  0  0  0  0
   -4.5670   -2.5403    2.4138 C   0  0  0  0  0  0  0  0  0  0  0  0
   -3.4372   -3.3139    2.3066 C   0  0  0  0  0  0  0  0  0  0  0  0
   -2.3292   -2.5312    2.2653 O   0  0  0  0  0  0  0  0  0  0  0  0
    3.3925   -0.0582    0.0721 N   0  0  0  0  0  0  0  0  0  0  0  0
    4.0833    1.1000   -0.3359 C   0  0  0  0  0  0  0  0  0  0  0  0
    3.5370    1.8153   -1.4098 C   0  0  0  0  0  0  0  0  0  0  0  0
    4.1690    2.9664   -1.8831 C   0  0  0  0  0  0  0  0  0  0  0  0
    3.4841    3.8319   -3.2047 Cl  0  0  0  0  0  0  0  0  0  0  0  0
    5.3448    3.4212   -1.2973 C   0  0  0  0  0  0  0  0  0  0  0  0
    5.8857    2.7109   -0.2295 C   0  0  0  0  0  0  0  0  0  0  0  0
    7.3396    3.2688    0.5048 Cl  0  0  0  0  0  0  0  0  0  0  0  0
    5.2653    1.5552    0.2527 C   0  0  0  0  0  0  0  0  0  0  0  0
    2.5210   -2.4849    0.2599 H   0  0  0  0  0  0  0  0  0  0  0  0
    3.2493   -2.8583    1.8144 H   0  0  0  0  0  0  0  0  0  0  0  0
   -3.0476    1.3225    0.4463 H   0  0  0  0  0  0  0  0  0  0  0  0
   -2.1495    2.1001   -0.8326 H   0  0  0  0  0  0  0  0  0  0  0  0
   -2.1296    0.6899   -3.3169 H   0  0  0  0  0  0  0  0  0  0  0  0
   -4.0656   -0.5833   -4.6049 H   0  0  0  0  0  0  0  0  0  0  0  0
   -5.9989   -1.2794   -2.9554 H   0  0  0  0  0  0  0  0  0  0  0  0
   -2.1314    0.8107    2.3806 H   0  0  0  0  0  0  0  0  0  0  0  0
   -1.0318   -0.2990    3.1670 H   0  0  0  0  0  0  0  0  0  0  0  0
   -4.7383   -0.3089    2.5174 H   0  0  0  0  0  0  0  0  0  0  0  0
   -5.5843   -2.9023    2.4680 H   0  0  0  0  0  0  0  0  0  0  0  0
   -3.2602   -4.3797    2.2520 H   0  0  0  0  0  0  0  0  0  0  0  0
    2.5290   -0.2626   -0.4365 H   0  0  0  0  0  0  0  0  0  0  0  0
    2.6146    1.4806   -1.8814 H   0  0  0  0  0  0  0  0  0  0  0  0
    5.8351    4.3178   -1.6676 H   0  0  0  0  0  0  0  0  0  0  0  0
    5.7250    1.0281    1.0829 H   0  0  0  0  0  0  0  0  0  0  0  0
  1  2  2  0
  2  3  1  0
  3  4  1  0
  4  5  1  0
  5  6  2  0
  6  7  1  0
  7  8  2  0
  8  9  1  0
  9 10  1  0
 10 11  2  0
 11 12  1  0
 12 13  2  0
 13 14  1  0
  8 15  1  0
 15 16  1  0
 16 17  1  0
 17 18  2  0
 18 19  1  0
 19 20  2  0
 20 21  1  0
  2 22  1  0
 22 23  1  0
 23 24  2  0
 24 25  1  0
 25 26  1  0
 25 27  2  0
 27 28  1  0
 28 29  1  0
 28 30  2  0
 15  5  1  0
 21 17  1  0
 30 23  1  0
 14 10  1  0
  3 31  1  0
  3 32  1  0
  9 33  1  0
  9 34  1  0
 11 35  1  0
 12 36  1  0
 13 37  1  0
 16 38  1  0
 16 39  1  0
 18 40  1  0
 19 41  1  0
 20 42  1  0
 22 43  1  0
 24 44  1  0
 27 45  1  0
 30 46  1  0
M  END
$$$$
