
     RDKit          3D

 25 26  0  0  0  0  0  0  0  0999 V2000
    4.9520   -2.2153    0.7223 O   0  0  0  0  0  0  0  0  0  0  0  0
    4.7928   -1.0152    0.4589 N   0  0  0  0  0  4  0  0  0  0  0  0
    5.6983   -0.1701    0.4508 O   0  0  0  0  0  1  0  0  0  0  0  0
    3.4460   -0.5681    0.1384 C   0  0  0  0  0  0  0  0  0  0  0  0
    2.3765   -1.4595    0.1116 C   0  0  0  0  0  0  0  0  0  0  0  0
    1.1075   -0.9701   -0.2036 C   0  0  0  0  0  0  0  0  0  0  0  0
    0.9351    0.3875   -0.4699 C   0  0  0  0  0  0  0  0  0  0  0  0
   -0.3000    0.9338   -0.8183 N   0  0  0  0  0  0  0  0  0  0  0  0
   -1.6058    0.6530   -0.3767 C   0  0  0  0  0  0  0  0  0  0  0  0
   -1.8953   -0.1137    0.7574 C   0  0  0  0  0  0  0  0  0  0  0  0
   -3.2179   -0.3747    1.1305 C   0  0  0  0  0  0  0  0  0  0  0  0
   -4.2714    0.1253    0.3699 C   0  0  0  0  0  0  0  0  0  0  0  0
   -4.0031    0.8893   -0.7618 C   0  0  0  0  0  0  0  0  0  0  0  0
   -2.6804    1.1494   -1.1298 C   0  0  0  0  0  0  0  0  0  0  0  0
    1.9792    1.2474   -0.4659 N   0  0  0  0  0  0  0  0  0  0  0  0
    3.2095    0.7628   -0.1565 C   0  0  0  0  0  0  0  0  0  0  0  0
    2.5083   -2.5187    0.3179 H   0  0  0  0  0  0  0  0  0  0  0  0
    0.2677   -1.6553   -0.2672 H   0  0  0  0  0  0  0  0  0  0  0  0
   -0.1654    1.9194   -1.0268 H   0  0  0  0  0  0  0  0  0  0  0  0
   -1.1004   -0.4934    1.3920 H   0  0  0  0  0  0  0  0  0  0  0  0
   -3.4231   -0.9641    2.0206 H   0  0  0  0  0  0  0  0  0  0  0  0
   -5.2988   -0.0779    0.6601 H   0  0  0  0  0  0  0  0  0  0  0  0
   -4.8203    1.2809   -1.3616 H   0  0  0  0  0  0  0  0  0  0  0  0
   -2.4901    1.7372   -2.0250 H   0  0  0  0  0  0  0  0  0  0  0  0
    3.9993    1.5101   -0.1615 H   0  0  0  0  0  0  0  0  0  0  0  0
  1  2  2  0
  2  3  1  0
  2  4  1  0
  4  5  2  0
  5  6  1  0
  6  7  2  0
  7  8  1  0
  8  9  1  0
  9 10  2  0
 10 11  1  0
 11 12  2  0
 12 13  1  0
 13 14  2  0
  7 15  1  0
 15 16  2  0
 16  4  1  0
 14  9  1  0
  5 17  1  0
  6 18  1  0
  8 19  1  0
 10 20  1  0
 11 21  1  0
 12 22  1  0
 13 23  1  0
 14 24  1  0
 16 25  1  0
M  CHG  2   2   1   3  -1
M  END
$$$$
