
     RDKit          3D

 38 38  0  0  0  0  0  0  0  0999 V2000
    4.9845    0.2014   -3.5235 C   0  0  0  0  0  0  0  0  0  0  0  0
    5.0609   -0.9439   -2.5309 C   0  0  0  0  0  0  0  0  0  0  0  0
    4.1761   -0.7035   -1.4264 O   0  0  0  0  0  0  0  0  0  0  0  0
    2.8846   -1.0949   -1.6072 C   0  0  0  0  0  0  0  0  0  0  0  0
    2.4476   -1.6711   -2.5952 O   0  0  0  0  0  0  0  0  0  0  0  0
    2.0550   -0.7506   -0.4068 C   0  0  0  0  0  0  0  0  0  0  0  0
    1.0469    0.3286   -0.6987 C   0  0  0  0  0  0  0  0  0  0  0  0
    1.2487    1.2065   -1.5355 O   0  0  0  0  0  0  0  0  0  0  0  0
   -0.2276    0.3545    0.0767 C   0  0  0  0  0  0  0  0  0  0  0  0
   -1.3189    1.0422   -0.4778 C   0  0  0  0  0  0  0  0  0  0  0  0
   -2.5374    1.0974    0.1990 C   0  0  0  0  0  0  0  0  0  0  0  0
   -3.6606    1.7367   -0.2590 O   0  0  0  0  0  0  0  0  0  0  0  0
   -3.5296    2.5226   -1.4369 C   0  0  0  0  0  0  0  0  0  0  0  0
   -2.6518    0.4446    1.4378 C   0  0  0  0  0  0  0  0  0  0  0  0
   -3.8345    0.5295    2.1397 O   0  0  0  0  0  0  0  0  0  0  0  0
   -4.6910   -0.5551    1.7822 C   0  0  0  0  0  0  0  0  0  0  0  0
   -1.5571   -0.2191    2.0203 C   0  0  0  0  0  0  0  0  0  0  0  0
   -1.7821   -0.7982    3.2420 O   0  0  0  0  0  0  0  0  0  0  0  0
   -0.6536   -1.2569    3.9736 C   0  0  0  0  0  0  0  0  0  0  0  0
   -0.3445   -0.2662    1.3281 C   0  0  0  0  0  0  0  0  0  0  0  0
    5.2055    1.1525   -3.0292 H   0  0  0  0  0  0  0  0  0  0  0  0
    3.9801    0.2882   -3.9468 H   0  0  0  0  0  0  0  0  0  0  0  0
    5.6955    0.0553   -4.3411 H   0  0  0  0  0  0  0  0  0  0  0  0
    4.8487   -1.9062   -3.0095 H   0  0  0  0  0  0  0  0  0  0  0  0
    6.0733   -1.0059   -2.1206 H   0  0  0  0  0  0  0  0  0  0  0  0
    1.5641   -1.6780   -0.0947 H   0  0  0  0  0  0  0  0  0  0  0  0
    2.6975   -0.4157    0.4146 H   0  0  0  0  0  0  0  0  0  0  0  0
   -1.1912    1.5217   -1.4448 H   0  0  0  0  0  0  0  0  0  0  0  0
   -4.4923    3.0067   -1.6226 H   0  0  0  0  0  0  0  0  0  0  0  0
   -3.2998    1.8963   -2.3047 H   0  0  0  0  0  0  0  0  0  0  0  0
   -2.7804    3.3103   -1.3076 H   0  0  0  0  0  0  0  0  0  0  0  0
   -5.6068   -0.4680    2.3753 H   0  0  0  0  0  0  0  0  0  0  0  0
   -4.9696   -0.5126    0.7230 H   0  0  0  0  0  0  0  0  0  0  0  0
   -4.2304   -1.5218    2.0140 H   0  0  0  0  0  0  0  0  0  0  0  0
    0.0803   -0.4567    4.1187 H   0  0  0  0  0  0  0  0  0  0  0  0
   -1.0010   -1.5734    4.9617 H   0  0  0  0  0  0  0  0  0  0  0  0
   -0.1992   -2.1260    3.4865 H   0  0  0  0  0  0  0  0  0  0  0  0
    0.5100   -0.7714    1.7613 H   0  0  0  0  0  0  0  0  0  0  0  0
  1  2  1  0
  2  3  1  0
  3  4  1  0
  4  5  2  0
  4  6  1  0
  6  7  1  0
  7  8  2  0
  7  9  1  0
  9 10  2  0
 10 11  1  0
 11 12  1  0
 12 13  1  0
 11 14  2  0
 14 15  1  0
 15 16  1  0
 14 17  1  0
 17 18  1  0
 18 19  1  0
 17 20  2  0
 20  9  1  0
  1 21  1  0
  1 22  1  0
  1 23  1  0
  2 24  1  0
  2 25  1  0
  6 26  1  0
  6 27  1  0
 10 28  1  0
 13 29  1  0
 13 30  1  0
 13 31  1  0
 16 32  1  0
 16 33  1  0
 16 34  1  0
 19 35  1  0
 19 36  1  0
 19 37  1  0
 20 38  1  0
M  END
$$$$
