
     RDKit          3D

 92 94  0  0  0  0  0  0  0  0999 V2000
   -6.4209    0.0208   -0.4887 C   0  0  0  0  0  0  0  0  0  0  0  0
   -5.1990   -0.8166   -0.7165 C   0  0  0  0  0  0  0  0  0  0  0  0
   -5.1597   -1.7894   -1.4551 O   0  0  0  0  0  0  0  0  0  0  0  0
   -4.1598   -0.3203    0.0027 O   0  0  0  0  0  0  0  0  0  0  0  0
   -2.8874   -1.0107   -0.0790 C   0  0  1  0  0  0  0  0  0  0  0  0
   -1.9543   -0.3580   -1.1555 C   0  0  2  0  0  0  0  0  0  0  0  0
   -2.6829   -0.1808   -2.4036 O   0  0  0  0  0  0  0  0  0  0  0  0
   -3.3304    0.9926   -2.6029 C   0  0  0  0  0  0  0  0  0  0  0  0
   -3.9125    1.0175   -3.9829 C   0  0  0  0  0  0  0  0  0  0  0  0
   -3.4643    1.8942   -1.7870 O   0  0  0  0  0  0  0  0  0  0  0  0
   -0.7142   -1.1623   -1.5705 C   0  0  0  0  0  0  0  0  0  0  0  0
   -0.9813   -2.4054   -2.3907 C   0  0  0  0  0  0  0  0  0  0  0  0
    0.5669   -0.8012   -1.3245 C   0  0  0  0  0  0  0  0  0  0  0  0
    1.0485    0.3233   -0.4153 C   0  0  1  0  0  0  0  0  0  0  0  0
    2.5116    0.1198    0.0841 C   0  0  1  0  0  0  0  0  0  0  0  0
    2.8837   -1.2595    0.2043 O   0  0  0  0  0  0  0  0  0  0  0  0
    3.4451   -1.6467    1.3767 C   0  0  0  0  0  0  0  0  0  0  0  0
    3.5657   -0.9638    2.3818 O   0  0  0  0  0  0  0  0  0  0  0  0
    3.8956   -3.0625    1.2894 C   0  0  0  0  0  0  0  0  0  0  0  0
    3.9379   -3.7635    0.0755 C   0  0  0  0  0  0  0  0  0  0  0  0
    4.3665   -5.0932    0.0495 C   0  0  0  0  0  0  0  0  0  0  0  0
    4.7555   -5.7259    1.2299 C   0  0  0  0  0  0  0  0  0  0  0  0
    4.7203   -5.0327    2.4394 C   0  0  0  0  0  0  0  0  0  0  0  0
    4.2926   -3.7035    2.4708 C   0  0  0  0  0  0  0  0  0  0  0  0
    3.4123    0.8790   -0.9191 C   0  0  1  0  0  0  0  0  0  0  0  0
    4.3874    0.0235   -1.7201 C   0  0  0  0  0  0  0  0  0  0  0  0
    2.4448    1.6438   -1.8312 C   0  0  0  0  0  0  0  0  0  0  0  0
    1.1219    1.7509   -1.0402 C   0  0  1  0  0  0  0  0  0  0  0  0
    0.0817    1.9961   -1.9855 O   0  0  0  0  0  0  0  0  0  0  0  0
    1.1715    2.9272    0.0089 C   0  0  1  0  0  0  0  0  0  0  0  0
    1.5207    4.1292   -0.7419 O   0  0  0  0  0  0  0  0  0  0  0  0
    2.3212    5.0313   -0.1115 C   0  0  0  0  0  0  0  0  0  0  0  0
    2.5335    6.2259   -0.9888 C   0  0  0  0  0  0  0  0  0  0  0  0
    2.7911    4.9033    1.0084 O   0  0  0  0  0  0  0  0  0  0  0  0
   -0.1180    3.2521    0.8432 C   0  0  1  0  0  0  0  0  0  0  0  0
   -1.2126    3.9561    0.0265 C   0  0  0  0  0  0  0  0  0  0  0  0
   -0.6013    2.0844    1.6835 C   0  0  0  0  0  0  0  0  0  0  0  0
   -1.7750    1.4382    1.5543 C   0  0  0  0  0  0  0  0  0  0  0  0
   -2.2638    0.1964    2.2948 C   0  0  0  0  0  0  0  0  0  0  0  0
   -3.6749    0.5435    2.8357 C   0  0  0  0  0  0  0  0  0  0  0  0
   -1.3997   -0.1195    3.5454 C   0  0  0  0  0  0  0  0  0  0  0  0
   -2.3255   -1.1064    1.3777 C   0  0  2  0  0  0  0  0  0  0  0  0
   -1.0351   -1.7616    1.3782 O   0  0  0  0  0  0  0  0  0  0  0  0
   -1.0533   -3.1227    1.3542 C   0  0  0  0  0  0  0  0  0  0  0  0
    0.3399   -3.6619    1.4102 C   0  0  0  0  0  0  0  0  0  0  0  0
   -2.0557   -3.8175    1.2781 O   0  0  0  0  0  0  0  0  0  0  0  0
   -6.6933    0.0025    0.5695 H   0  0  0  0  0  0  0  0  0  0  0  0
   -6.2364    1.0458   -0.8200 H   0  0  0  0  0  0  0  0  0  0  0  0
   -7.2516   -0.3880   -1.0700 H   0  0  0  0  0  0  0  0  0  0  0  0
   -3.0767   -2.0401   -0.4070 H   0  0  0  0  0  0  0  0  0  0  0  0
   -1.6435    0.6287   -0.8255 H   0  0  0  0  0  0  0  0  0  0  0  0
   -4.6764    0.2410   -4.0756 H   0  0  0  0  0  0  0  0  0  0  0  0
   -3.1197    0.8687   -4.7209 H   0  0  0  0  0  0  0  0  0  0  0  0
   -4.3743    1.9921   -4.1646 H   0  0  0  0  0  0  0  0  0  0  0  0
   -0.0595   -2.9497   -2.6254 H   0  0  0  0  0  0  0  0  0  0  0  0
   -1.4578   -2.1531   -3.3433 H   0  0  0  0  0  0  0  0  0  0  0  0
   -1.6319   -3.0966   -1.8454 H   0  0  0  0  0  0  0  0  0  0  0  0
    1.3564   -1.4137   -1.7589 H   0  0  0  0  0  0  0  0  0  0  0  0
    0.4102    0.2753    0.4616 H   0  0  0  0  0  0  0  0  0  0  0  0
    2.5921    0.6236    1.0556 H   0  0  0  0  0  0  0  0  0  0  0  0
    3.6442   -3.2871   -0.8567 H   0  0  0  0  0  0  0  0  0  0  0  0
    4.4004   -5.6352   -0.8932 H   0  0  0  0  0  0  0  0  0  0  0  0
    5.0885   -6.7613    1.2075 H   0  0  0  0  0  0  0  0  0  0  0  0
    5.0278   -5.5250    3.3589 H   0  0  0  0  0  0  0  0  0  0  0  0
    4.2701   -3.1703    3.4199 H   0  0  0  0  0  0  0  0  0  0  0  0
    4.0030    1.6101   -0.3503 H   0  0  0  0  0  0  0  0  0  0  0  0
    5.1068   -0.4724   -1.0593 H   0  0  0  0  0  0  0  0  0  0  0  0
    3.8662   -0.7447   -2.3007 H   0  0  0  0  0  0  0  0  0  0  0  0
    4.9539    0.6441   -2.4222 H   0  0  0  0  0  0  0  0  0  0  0  0
    2.2733    1.0969   -2.7679 H   0  0  0  0  0  0  0  0  0  0  0  0
    2.8555    2.6140   -2.1300 H   0  0  0  0  0  0  0  0  0  0  0  0
    0.2105    2.9014   -2.3243 H   0  0  0  0  0  0  0  0  0  0  0  0
    1.9788    2.7123    0.7181 H   0  0  0  0  0  0  0  0  0  0  0  0
    1.5917    6.7675   -1.1092 H   0  0  0  0  0  0  0  0  0  0  0  0
    3.2667    6.8921   -0.5232 H   0  0  0  0  0  0  0  0  0  0  0  0
    2.9212    5.9125   -1.9628 H   0  0  0  0  0  0  0  0  0  0  0  0
    0.1894    4.0133    1.5766 H   0  0  0  0  0  0  0  0  0  0  0  0
   -1.6137    3.3191   -0.7617 H   0  0  0  0  0  0  0  0  0  0  0  0
   -2.0470    4.2542    0.6721 H   0  0  0  0  0  0  0  0  0  0  0  0
   -0.8371    4.8711   -0.4416 H   0  0  0  0  0  0  0  0  0  0  0  0
    0.1213    1.7417    2.4234 H   0  0  0  0  0  0  0  0  0  0  0  0
   -2.4857    1.8123    0.8159 H   0  0  0  0  0  0  0  0  0  0  0  0
   -4.1367   -0.3218    3.3248 H   0  0  0  0  0  0  0  0  0  0  0  0
   -3.6226    1.3468    3.5817 H   0  0  0  0  0  0  0  0  0  0  0  0
   -4.3585    0.8895    2.0552 H   0  0  0  0  0  0  0  0  0  0  0  0
   -1.8007   -0.9848    4.0869 H   0  0  0  0  0  0  0  0  0  0  0  0
   -1.3840    0.7254    4.2448 H   0  0  0  0  0  0  0  0  0  0  0  0
   -0.3599   -0.3482    3.2868 H   0  0  0  0  0  0  0  0  0  0  0  0
   -3.0263   -1.7625    1.9162 H   0  0  0  0  0  0  0  0  0  0  0  0
    0.8310   -3.5058    0.4485 H   0  0  0  0  0  0  0  0  0  0  0  0
    0.8931   -3.1720    2.2153 H   0  0  0  0  0  0  0  0  0  0  0  0
    0.3069   -4.7333    1.6275 H   0  0  0  0  0  0  0  0  0  0  0  0
  1  2  1  0
  2  3  2  0
  2  4  1  0
  4  5  1  0
  5  6  1  0
  6  7  1  0
  7  8  1  0
  8  9  1  0
  8 10  2  0
  6 11  1  0
 11 12  1  0
 11 13  2  0
 13 14  1  0
 14 15  1  0
 15 16  1  0
 16 17  1  0
 17 18  2  0
 17 19  1  0
 19 20  2  0
 20 21  1  0
 21 22  2  0
 22 23  1  0
 23 24  2  0
 15 25  1  0
 25 26  1  0
 25 27  1  0
 27 28  1  0
 28 29  1  6
 28 30  1  0
 30 31  1  0
 31 32  1  0
 32 33  1  0
 32 34  2  0
 30 35  1  0
 35 36  1  0
 35 37  1  0
 37 38  2  0
 38 39  1  0
 39 40  1  0
 39 41  1  0
 39 42  1  0
 42 43  1  0
 43 44  1  0
 44 45  1  0
 44 46  2  0
 42  5  1  0
 28 14  1  0
 24 19  1  0
  1 47  1  0
  1 48  1  0
  1 49  1  0
  5 50  1  6
  6 51  1  1
  9 52  1  0
  9 53  1  0
  9 54  1  0
 12 55  1  0
 12 56  1  0
 12 57  1  0
 13 58  1  0
 14 59  1  1
 15 60  1  1
 20 61  1  0
 21 62  1  0
 22 63  1  0
 23 64  1  0
 24 65  1  0
 25 66  1  1
 26 67  1  0
 26 68  1  0
 26 69  1  0
 27 70  1  0
 27 71  1  0
 29 72  1  0
 30 73  1  1
 33 74  1  0
 33 75  1  0
 33 76  1  0
 35 77  1  1
 36 78  1  0
 36 79  1  0
 36 80  1  0
 37 81  1  0
 38 82  1  0
 40 83  1  0
 40 84  1  0
 40 85  1  0
 41 86  1  0
 41 87  1  0
 41 88  1  0
 42 89  1  1
 45 90  1  0
 45 91  1  0
 45 92  1  0
M  END
$$$$
