
     RDKit          3D

 41 43  0  0  0  0  0  0  0  0999 V2000
    7.9189    0.6468    2.1789 C   0  0  0  0  0  0  0  0  0  0  0  0
    6.6321    0.4807    1.8368 C   0  0  0  0  0  0  0  0  0  0  0  0
    5.6410    1.4873    2.1966 C   0  0  0  0  0  0  0  0  0  0  0  0
    4.3498    1.3241    1.8554 C   0  0  0  0  0  0  0  0  0  0  0  0
    3.8975    0.1278    1.1104 C   0  0  0  0  0  0  0  0  0  0  0  0
    2.5950   -0.0357    0.7675 C   0  0  0  0  0  0  0  0  0  0  0  0
    1.5921    0.8494    1.0589 N   0  0  0  0  0  0  0  0  0  0  0  0
    0.3177    0.5562    0.6483 C   0  0  0  0  0  0  0  0  0  0  0  0
   -0.6415    1.2788    0.8573 O   0  0  0  0  0  0  0  0  0  0  0  0
    0.3291   -0.7497   -0.0647 C   0  0  0  0  0  0  0  0  0  0  0  0
   -0.7040   -1.3887   -0.6337 C   0  0  0  0  0  0  0  0  0  0  0  0
   -2.1019   -0.9477   -0.6686 C   0  0  0  0  0  0  0  0  0  0  0  0
   -2.8547   -0.8270    0.5007 C   0  0  0  0  0  0  0  0  0  0  0  0
   -4.1978   -0.4448    0.4415 C   0  0  0  0  0  0  0  0  0  0  0  0
   -4.8069   -0.1869   -0.7904 C   0  0  0  0  0  0  0  0  0  0  0  0
   -6.1193    0.1874   -0.9435 O   0  0  0  0  0  0  0  0  0  0  0  0
   -6.8701    0.4419    0.2347 C   0  0  0  0  0  0  0  0  0  0  0  0
   -4.0564   -0.3176   -1.9762 C   0  0  0  0  0  0  0  0  0  0  0  0
   -4.7284   -0.0589   -3.1463 O   0  0  0  0  0  0  0  0  0  0  0  0
   -3.9742   -0.0448   -4.3493 C   0  0  0  0  0  0  0  0  0  0  0  0
   -2.7111   -0.7024   -1.9060 C   0  0  0  0  0  0  0  0  0  0  0  0
    1.9430   -1.4003   -0.1095 S   0  0  0  0  0  0  0  0  0  0  0  0
    4.9263   -0.8763    0.7589 C   0  0  0  0  0  0  0  0  0  0  0  0
    6.2156   -0.7074    1.1028 C   0  0  0  0  0  0  0  0  0  0  0  0
    8.6778   -0.0864    1.9239 H   0  0  0  0  0  0  0  0  0  0  0  0
    8.2581    1.5213    2.7254 H   0  0  0  0  0  0  0  0  0  0  0  0
    5.9574    2.3704    2.7429 H   0  0  0  0  0  0  0  0  0  0  0  0
    3.6454    2.0948    2.1412 H   0  0  0  0  0  0  0  0  0  0  0  0
    1.7328    1.7136    1.5568 H   0  0  0  0  0  0  0  0  0  0  0  0
   -0.5324   -2.3322   -1.1489 H   0  0  0  0  0  0  0  0  0  0  0  0
   -2.4036   -1.0198    1.4714 H   0  0  0  0  0  0  0  0  0  0  0  0
   -4.7387   -0.3581    1.3774 H   0  0  0  0  0  0  0  0  0  0  0  0
   -7.8652    0.7805   -0.0696 H   0  0  0  0  0  0  0  0  0  0  0  0
   -6.9971   -0.4713    0.8253 H   0  0  0  0  0  0  0  0  0  0  0  0
   -6.4159    1.2402    0.8310 H   0  0  0  0  0  0  0  0  0  0  0  0
   -3.5840   -1.0414   -4.5801 H   0  0  0  0  0  0  0  0  0  0  0  0
   -3.1692    0.6963   -4.3058 H   0  0  0  0  0  0  0  0  0  0  0  0
   -4.6471    0.2439   -5.1625 H   0  0  0  0  0  0  0  0  0  0  0  0
   -2.1160   -0.8170   -2.8058 H   0  0  0  0  0  0  0  0  0  0  0  0
    4.6499   -1.7719    0.2129 H   0  0  0  0  0  0  0  0  0  0  0  0
    6.9561   -1.4549    0.8362 H   0  0  0  0  0  0  0  0  0  0  0  0
  1  2  2  0
  2  3  1  0
  3  4  2  0
  4  5  1  0
  5  6  2  3
  6  7  1  0
  7  8  1  0
  8  9  2  0
  8 10  1  0
 10 11  2  3
 11 12  1  0
 12 13  2  0
 13 14  1  0
 14 15  2  0
 15 16  1  0
 16 17  1  0
 15 18  1  0
 18 19  1  0
 19 20  1  0
 18 21  2  0
 10 22  1  0
  5 23  1  0
 23 24  2  0
 24  2  1  0
 22  6  1  0
 21 12  1  0
  1 25  1  0
  1 26  1  0
  3 27  1  0
  4 28  1  0
  7 29  1  0
 11 30  1  0
 13 31  1  0
 14 32  1  0
 17 33  1  0
 17 34  1  0
 17 35  1  0
 20 36  1  0
 20 37  1  0
 20 38  1  0
 21 39  1  0
 23 40  1  0
 24 41  1  0
M  END
$$$$
