
     RDKit          3D

 38 40  0  0  0  0  0  0  0  0999 V2000
    0.5902   -3.2094   -0.7911 S   0  0  0  0  0  0  0  0  0  0  0  0
    0.3111   -1.5541   -0.7600 C   0  0  0  0  0  0  0  0  0  0  0  0
    1.3486   -0.7720   -1.1779 N   0  0  0  0  0  0  0  0  0  0  0  0
    1.7458    0.4769   -0.5485 C   0  0  0  0  0  0  0  0  0  0  0  0
    3.2441    0.6375   -0.5762 C   0  0  0  0  0  0  0  0  0  0  0  0
    3.8746    1.2782   -1.6520 C   0  0  0  0  0  0  0  0  0  0  0  0
    5.2647    1.3984   -1.6866 C   0  0  0  0  0  0  0  0  0  0  0  0
    6.0371    0.8719   -0.6528 C   0  0  0  0  0  0  0  0  0  0  0  0
    5.4216    0.2206    0.4145 C   0  0  0  0  0  0  0  0  0  0  0  0
    4.0318    0.0995    0.4516 C   0  0  0  0  0  0  0  0  0  0  0  0
   -0.8650   -0.9450   -0.3591 N   0  0  0  0  0  0  0  0  0  0  0  0
   -1.2778    0.3688   -0.8804 C   0  0  0  0  0  0  0  0  0  0  0  0
   -2.7884    0.5205   -1.0724 C   0  0  0  0  0  0  0  0  0  0  0  0
   -3.4842    0.2139    0.2231 C   0  0  0  0  0  0  0  0  0  0  0  0
   -4.5976    0.9379    0.6585 C   0  0  0  0  0  0  0  0  0  0  0  0
   -5.2108    0.6092    1.8670 C   0  0  0  0  0  0  0  0  0  0  0  0
   -4.7229   -0.4478    2.6347 C   0  0  0  0  0  0  0  0  0  0  0  0
   -3.6217   -1.1834    2.1945 C   0  0  0  0  0  0  0  0  0  0  0  0
   -2.9904   -0.8538    0.9893 C   0  0  0  0  0  0  0  0  0  0  0  0
   -1.8501   -1.6862    0.4539 C   0  0  0  0  0  0  0  0  0  0  0  0
    2.1340   -1.3421   -1.4743 H   0  0  0  0  0  0  0  0  0  0  0  0
    1.2808    1.3039   -1.0946 H   0  0  0  0  0  0  0  0  0  0  0  0
    1.3799    0.5074    0.4844 H   0  0  0  0  0  0  0  0  0  0  0  0
    3.2855    1.6837   -2.4717 H   0  0  0  0  0  0  0  0  0  0  0  0
    5.7461    1.8989   -2.5229 H   0  0  0  0  0  0  0  0  0  0  0  0
    7.1197    0.9638   -0.6819 H   0  0  0  0  0  0  0  0  0  0  0  0
    6.0245   -0.1976    1.2165 H   0  0  0  0  0  0  0  0  0  0  0  0
    3.5650   -0.4217    1.2851 H   0  0  0  0  0  0  0  0  0  0  0  0
   -0.9290    1.1175   -0.1587 H   0  0  0  0  0  0  0  0  0  0  0  0
   -0.7812    0.5570   -1.8382 H   0  0  0  0  0  0  0  0  0  0  0  0
   -3.1509   -0.1695   -1.8436 H   0  0  0  0  0  0  0  0  0  0  0  0
   -3.0098    1.5424   -1.4002 H   0  0  0  0  0  0  0  0  0  0  0  0
   -4.9908    1.7590    0.0646 H   0  0  0  0  0  0  0  0  0  0  0  0
   -6.0740    1.1743    2.2091 H   0  0  0  0  0  0  0  0  0  0  0  0
   -5.2078   -0.7059    3.5726 H   0  0  0  0  0  0  0  0  0  0  0  0
   -3.2648   -2.0185    2.7930 H   0  0  0  0  0  0  0  0  0  0  0  0
   -1.3109   -2.1544    1.2861 H   0  0  0  0  0  0  0  0  0  0  0  0
   -2.2769   -2.4797   -0.1719 H   0  0  0  0  0  0  0  0  0  0  0  0
  1  2  2  0
  2  3  1  0
  3  4  1  0
  4  5  1  0
  5  6  2  0
  6  7  1  0
  7  8  2  0
  8  9  1  0
  9 10  2  0
  2 11  1  0
 11 12  1  0
 12 13  1  0
 13 14  1  0
 14 15  2  0
 15 16  1  0
 16 17  2  0
 17 18  1  0
 18 19  2  0
 19 20  1  0
 10  5  1  0
 20 11  1  0
 19 14  1  0
  3 21  1  0
  4 22  1  0
  4 23  1  0
  6 24  1  0
  7 25  1  0
  8 26  1  0
  9 27  1  0
 10 28  1  0
 12 29  1  0
 12 30  1  0
 13 31  1  0
 13 32  1  0
 15 33  1  0
 16 34  1  0
 17 35  1  0
 18 36  1  0
 20 37  1  0
 20 38  1  0
M  END
$$$$
