
     RDKit          3D

 61 65  0  0  0  0  0  0  0  0999 V2000
   -5.8807   -0.4063   -5.5127 C   0  0  0  0  0  0  0  0  0  0  0  0
   -5.2067   -0.3211   -4.1745 C   0  0  0  0  0  0  0  0  0  0  0  0
   -3.9689    0.3130   -4.0438 C   0  0  0  0  0  0  0  0  0  0  0  0
   -3.3290    0.3761   -2.8024 C   0  0  0  0  0  0  0  0  0  0  0  0
   -3.8975   -0.2233   -1.6727 C   0  0  0  0  0  0  0  0  0  0  0  0
   -3.2514   -0.1386   -0.3936 N   0  0  0  0  0  0  0  0  0  0  0  0
   -3.0269   -1.2501    0.4212 C   0  0  0  0  0  0  0  0  0  0  0  0
   -3.2344   -2.8711   -0.2359 S   0  0  0  0  0  0  0  0  0  0  0  0
   -1.7285   -3.6730    0.3793 C   0  0  0  0  0  0  0  0  0  0  0  0
   -0.4760   -2.9710   -0.1288 C   0  0  0  0  0  0  0  0  0  0  0  0
   -0.0459   -3.1857   -1.2597 O   0  0  0  0  0  0  0  0  0  0  0  0
    0.0700   -2.1007    0.8031 N   0  0  0  0  0  0  0  0  0  0  0  0
    1.2641   -1.3643    0.7009 C   0  0  0  0  0  0  0  0  0  0  0  0
    2.1600   -1.4655   -0.3570 C   0  0  0  0  0  0  0  0  0  0  0  0
    3.3466   -0.7123   -0.3627 C   0  0  0  0  0  0  0  0  0  0  0  0
    3.6888    0.1567    0.6835 C   0  0  0  0  0  0  0  0  0  0  0  0
    4.8650    0.8885    0.6894 N   0  0  0  0  0  0  0  0  0  0  0  0
    5.5005    1.2856    1.9643 C   0  0  0  0  0  0  0  0  0  0  0  0
    7.0333    1.1827    1.8622 C   0  0  0  0  0  0  0  0  0  0  0  0
    7.6007    1.9891    0.8220 O   0  0  0  0  0  0  0  0  0  0  0  0
    6.7422    2.1246   -0.3248 C   0  0  0  0  0  0  0  0  0  0  0  0
    5.7273    0.9790   -0.4997 C   0  0  0  0  0  0  0  0  0  0  0  0
    2.7567    0.2579    1.7260 C   0  0  0  0  0  0  0  0  0  0  0  0
    1.5717   -0.4914    1.7432 C   0  0  0  0  0  0  0  0  0  0  0  0
   -2.6008   -1.1940    1.6457 N   0  0  0  0  0  0  0  0  0  0  0  0
   -2.3333    0.0621    2.1968 C   0  0  0  0  0  0  0  0  0  0  0  0
   -1.9355    0.1337    3.5366 C   0  0  0  0  0  0  0  0  0  0  0  0
   -1.5921    1.3598    4.1113 C   0  0  0  0  0  0  0  0  0  0  0  0
   -1.6444    2.5268    3.3469 C   0  0  0  0  0  0  0  0  0  0  0  0
   -2.0522    2.4663    2.0132 C   0  0  0  0  0  0  0  0  0  0  0  0
   -2.3985    1.2322    1.4456 C   0  0  0  0  0  0  0  0  0  0  0  0
   -2.8793    1.1382    0.0535 C   0  0  0  0  0  0  0  0  0  0  0  0
   -2.9630    2.1849   -0.5894 O   0  0  0  0  0  0  0  0  0  0  0  0
   -5.1396   -0.8572   -1.8087 C   0  0  0  0  0  0  0  0  0  0  0  0
   -5.7827   -0.9138   -3.0485 C   0  0  0  0  0  0  0  0  0  0  0  0
   -6.9667   -0.4942   -5.4012 H   0  0  0  0  0  0  0  0  0  0  0  0
   -5.6879    0.4956   -6.1028 H   0  0  0  0  0  0  0  0  0  0  0  0
   -5.5136   -1.2776   -6.0631 H   0  0  0  0  0  0  0  0  0  0  0  0
   -3.4924    0.7715   -4.9075 H   0  0  0  0  0  0  0  0  0  0  0  0
   -2.3730    0.8861   -2.7366 H   0  0  0  0  0  0  0  0  0  0  0  0
   -1.7374   -3.7283    1.4747 H   0  0  0  0  0  0  0  0  0  0  0  0
   -1.7051   -4.7072    0.0124 H   0  0  0  0  0  0  0  0  0  0  0  0
   -0.4907   -1.9276    1.6347 H   0  0  0  0  0  0  0  0  0  0  0  0
    1.9809   -2.1305   -1.1969 H   0  0  0  0  0  0  0  0  0  0  0  0
    4.0126   -0.8528   -1.2103 H   0  0  0  0  0  0  0  0  0  0  0  0
    5.2119    2.3206    2.1904 H   0  0  0  0  0  0  0  0  0  0  0  0
    5.1850    0.6427    2.7950 H   0  0  0  0  0  0  0  0  0  0  0  0
    7.3345    0.1410    1.6822 H   0  0  0  0  0  0  0  0  0  0  0  0
    7.4953    1.4933    2.8076 H   0  0  0  0  0  0  0  0  0  0  0  0
    7.3863    2.1876   -1.2086 H   0  0  0  0  0  0  0  0  0  0  0  0
    6.2194    3.0881   -0.2332 H   0  0  0  0  0  0  0  0  0  0  0  0
    5.1301    1.1852   -1.3986 H   0  0  0  0  0  0  0  0  0  0  0  0
    6.2617    0.0284   -0.6366 H   0  0  0  0  0  0  0  0  0  0  0  0
    2.9269    0.9466    2.5487 H   0  0  0  0  0  0  0  0  0  0  0  0
    0.8995   -0.3679    2.5879 H   0  0  0  0  0  0  0  0  0  0  0  0
   -1.8866   -0.7753    4.1375 H   0  0  0  0  0  0  0  0  0  0  0  0
   -1.2830    1.4040    5.1548 H   0  0  0  0  0  0  0  0  0  0  0  0
   -1.3755    3.4825    3.7915 H   0  0  0  0  0  0  0  0  0  0  0  0
   -2.1072    3.3780    1.4212 H   0  0  0  0  0  0  0  0  0  0  0  0
   -5.6419   -1.2927   -0.9484 H   0  0  0  0  0  0  0  0  0  0  0  0
   -6.7428   -1.4144   -3.1245 H   0  0  0  0  0  0  0  0  0  0  0  0
  1  2  1  0
  2  3  2  0
  3  4  1  0
  4  5  2  0
  5  6  1  0
  6  7  1  0
  7  8  1  0
  8  9  1  0
  9 10  1  0
 10 11  2  0
 10 12  1  0
 12 13  1  0
 13 14  2  0
 14 15  1  0
 15 16  2  0
 16 17  1  0
 17 18  1  0
 18 19  1  0
 19 20  1  0
 20 21  1  0
 21 22  1  0
 16 23  1  0
 23 24  2  0
  7 25  2  0
 25 26  1  0
 26 27  2  0
 27 28  1  0
 28 29  2  0
 29 30  1  0
 30 31  2  0
 31 32  1  0
 32 33  2  0
  5 34  1  0
 34 35  2  0
 35  2  1  0
 32  6  1  0
 24 13  1  0
 31 26  1  0
 22 17  1  0
  1 36  1  0
  1 37  1  0
  1 38  1  0
  3 39  1  0
  4 40  1  0
  9 41  1  0
  9 42  1  0
 12 43  1  0
 14 44  1  0
 15 45  1  0
 18 46  1  0
 18 47  1  0
 19 48  1  0
 19 49  1  0
 21 50  1  0
 21 51  1  0
 22 52  1  0
 22 53  1  0
 23 54  1  0
 24 55  1  0
 27 56  1  0
 28 57  1  0
 29 58  1  0
 30 59  1  0
 34 60  1  0
 35 61  1  0
M  END
$$$$
