
     RDKit          3D

 34 34  0  0  0  0  0  0  0  0999 V2000
    6.1466   -0.3641   -1.2063 C   0  0  0  0  0  0  0  0  0  0  0  0
    5.3763    0.1166    0.0130 C   0  0  0  0  0  0  0  0  0  0  0  0
    3.8788   -0.1374   -0.1358 C   0  0  0  0  0  0  0  0  0  0  0  0
    3.1042    0.3414    1.0883 C   0  0  0  0  0  0  0  0  0  0  0  0
    1.7085    0.0375    0.9351 O   0  0  0  0  0  0  0  0  0  0  0  0
    0.9714    0.9701    0.2811 C   0  0  0  0  0  0  0  0  0  0  0  0
    1.3890    2.0204   -0.1795 O   0  0  0  0  0  0  0  0  0  0  0  0
   -0.4504    0.5389    0.1880 C   0  0  0  0  0  0  0  0  0  0  0  0
   -0.9070   -0.6740    0.7154 C   0  0  0  0  0  0  0  0  0  0  0  0
   -2.2562   -1.0294    0.5975 C   0  0  0  0  0  0  0  0  0  0  0  0
   -3.1688   -0.1832   -0.0460 C   0  0  0  0  0  0  0  0  0  0  0  0
   -4.5074   -0.6195   -0.1213 N   0  0  0  0  0  0  0  0  0  0  0  0
   -5.5785    0.0438   -0.6931 C   0  0  0  0  0  0  0  0  0  0  0  0
   -6.8621   -0.7403   -0.5774 C   0  0  0  0  0  0  0  0  0  0  0  0
   -5.5650    1.1484   -1.2236 O   0  0  0  0  0  0  0  0  0  0  0  0
   -2.7096    1.0255   -0.5713 C   0  0  0  0  0  0  0  0  0  0  0  0
   -1.3604    1.3849   -0.4555 C   0  0  0  0  0  0  0  0  0  0  0  0
    7.2167   -0.1731   -1.0782 H   0  0  0  0  0  0  0  0  0  0  0  0
    6.0091   -1.4394   -1.3585 H   0  0  0  0  0  0  0  0  0  0  0  0
    5.8145    0.1564   -2.1103 H   0  0  0  0  0  0  0  0  0  0  0  0
    5.7549   -0.3983    0.9036 H   0  0  0  0  0  0  0  0  0  0  0  0
    5.5597    1.1879    0.1550 H   0  0  0  0  0  0  0  0  0  0  0  0
    3.4999    0.3652   -1.0339 H   0  0  0  0  0  0  0  0  0  0  0  0
    3.6878   -1.2070   -0.2886 H   0  0  0  0  0  0  0  0  0  0  0  0
    3.4470   -0.1918    1.9818 H   0  0  0  0  0  0  0  0  0  0  0  0
    3.2576    1.4109    1.2760 H   0  0  0  0  0  0  0  0  0  0  0  0
   -0.2266   -1.3551    1.2207 H   0  0  0  0  0  0  0  0  0  0  0  0
   -2.5783   -1.9789    1.0181 H   0  0  0  0  0  0  0  0  0  0  0  0
   -4.7047   -1.5186    0.2995 H   0  0  0  0  0  0  0  0  0  0  0  0
   -6.6808   -1.8098   -0.7180 H   0  0  0  0  0  0  0  0  0  0  0  0
   -7.5605   -0.4107   -1.3521 H   0  0  0  0  0  0  0  0  0  0  0  0
   -7.3041   -0.5683    0.4073 H   0  0  0  0  0  0  0  0  0  0  0  0
   -3.3734    1.7175   -1.0810 H   0  0  0  0  0  0  0  0  0  0  0  0
   -1.0279    2.3336   -0.8743 H   0  0  0  0  0  0  0  0  0  0  0  0
  1  2  1  0
  2  3  1  0
  3  4  1  0
  4  5  1  0
  5  6  1  0
  6  7  2  0
  6  8  1  0
  8  9  2  0
  9 10  1  0
 10 11  2  0
 11 12  1  0
 12 13  1  0
 13 14  1  0
 13 15  2  0
 11 16  1  0
 16 17  2  0
 17  8  1  0
  1 18  1  0
  1 19  1  0
  1 20  1  0
  2 21  1  0
  2 22  1  0
  3 23  1  0
  3 24  1  0
  4 25  1  0
  4 26  1  0
  9 27  1  0
 10 28  1  0
 12 29  1  0
 14 30  1  0
 14 31  1  0
 14 32  1  0
 16 33  1  0
 17 34  1  0
M  END
$$$$
