
     RDKit          3D

 43 46  0  0  0  0  0  0  0  0999 V2000
   -1.6370   -1.3652    2.1285 O   0  0  0  0  0  0  0  0  0  0  0  0
   -1.9349   -0.8066    1.0800 C   0  0  0  0  0  0  0  0  0  0  0  0
   -1.0660   -0.3170    0.1215 N   0  0  0  0  0  0  0  0  0  0  0  0
    0.3421   -0.2831    0.1819 C   0  0  0  0  0  0  0  0  0  0  0  0
    1.0862   -0.6728    1.2931 C   0  0  0  0  0  0  0  0  0  0  0  0
    2.4854   -0.6011    1.2716 C   0  0  0  0  0  0  0  0  0  0  0  0
    3.1656   -0.1361    0.1411 C   0  0  0  0  0  0  0  0  0  0  0  0
    4.5711   -0.0984    0.2086 N   0  0  0  0  0  0  0  0  0  0  0  0
    5.4706    0.3180   -0.7591 C   0  0  0  0  0  0  0  0  0  0  0  0
    5.1516    0.7368   -1.8684 O   0  0  0  0  0  0  0  0  0  0  0  0
    6.8779    0.2260   -0.3636 C   0  0  0  0  0  0  0  0  0  0  0  0
    7.9740    0.5740   -1.1344 C   0  0  0  0  0  0  0  0  0  0  0  0
    9.2119    0.3663   -0.4608 C   0  0  0  0  0  0  0  0  0  0  0  0
    9.0271   -0.1349    0.8072 C   0  0  0  0  0  0  0  0  0  0  0  0
    7.3723   -0.3509    1.1759 S   0  0  0  0  0  0  0  0  0  0  0  0
    2.4212    0.2572   -0.9690 C   0  0  0  0  0  0  0  0  0  0  0  0
    1.0217    0.1850   -0.9475 C   0  0  0  0  0  0  0  0  0  0  0  0
   -3.3788   -0.6577    0.7457 C   0  0  0  0  0  0  0  0  0  0  0  0
   -4.2571   -1.6809    1.1116 C   0  0  0  0  0  0  0  0  0  0  0  0
   -5.6163   -1.5771    0.8095 C   0  0  0  0  0  0  0  0  0  0  0  0
   -6.1184   -0.4449    0.1490 C   0  0  0  0  0  0  0  0  0  0  0  0
   -7.4824   -0.3273   -0.1613 C   0  0  0  0  0  0  0  0  0  0  0  0
   -7.9711    0.8081   -0.8092 C   0  0  0  0  0  0  0  0  0  0  0  0
   -7.1038    1.8406   -1.1531 C   0  0  0  0  0  0  0  0  0  0  0  0
   -5.7445    1.7400   -0.8520 C   0  0  0  0  0  0  0  0  0  0  0  0
   -5.2351    0.6028   -0.2043 C   0  0  0  0  0  0  0  0  0  0  0  0
   -3.8691    0.4874    0.1035 C   0  0  0  0  0  0  0  0  0  0  0  0
   -1.4728   -0.0090   -0.7522 H   0  0  0  0  0  0  0  0  0  0  0  0
    0.6106   -1.0358    2.1990 H   0  0  0  0  0  0  0  0  0  0  0  0
    3.0276   -0.9164    2.1597 H   0  0  0  0  0  0  0  0  0  0  0  0
    4.9878   -0.4162    1.0753 H   0  0  0  0  0  0  0  0  0  0  0  0
    7.8814    0.9621   -2.1431 H   0  0  0  0  0  0  0  0  0  0  0  0
   10.1864    0.5744   -0.8860 H   0  0  0  0  0  0  0  0  0  0  0  0
    9.7857   -0.3854    1.5366 H   0  0  0  0  0  0  0  0  0  0  0  0
    2.8932    0.6262   -1.8739 H   0  0  0  0  0  0  0  0  0  0  0  0
    0.4790    0.5007   -1.8349 H   0  0  0  0  0  0  0  0  0  0  0  0
   -3.8847   -2.5621    1.6305 H   0  0  0  0  0  0  0  0  0  0  0  0
   -6.2820   -2.3876    1.0991 H   0  0  0  0  0  0  0  0  0  0  0  0
   -8.1777   -1.1212    0.1031 H   0  0  0  0  0  0  0  0  0  0  0  0
   -9.0301    0.8864   -1.0420 H   0  0  0  0  0  0  0  0  0  0  0  0
   -7.4852    2.7264   -1.6546 H   0  0  0  0  0  0  0  0  0  0  0  0
   -5.0860    2.5607   -1.1280 H   0  0  0  0  0  0  0  0  0  0  0  0
   -3.1975    1.3086   -0.1346 H   0  0  0  0  0  0  0  0  0  0  0  0
  1  2  2  0
  2  3  1  0
  3  4  1  0
  4  5  2  0
  5  6  1  0
  6  7  2  0
  7  8  1  0
  8  9  1  0
  9 10  2  0
  9 11  1  0
 11 12  2  0
 12 13  1  0
 13 14  2  0
 14 15  1  0
  7 16  1  0
 16 17  2  0
  2 18  1  0
 18 19  2  0
 19 20  1  0
 20 21  2  0
 21 22  1  0
 22 23  2  0
 23 24  1  0
 24 25  2  0
 25 26  1  0
 26 27  2  0
 17  4  1  0
 27 18  1  0
 15 11  1  0
 26 21  1  0
  3 28  1  0
  5 29  1  0
  6 30  1  0
  8 31  1  0
 12 32  1  0
 13 33  1  0
 14 34  1  0
 16 35  1  0
 17 36  1  0
 19 37  1  0
 20 38  1  0
 22 39  1  0
 23 40  1  0
 24 41  1  0
 25 42  1  0
 27 43  1  0
M  END
$$$$
