
     RDKit          3D

 45 46  0  0  0  0  0  0  0  0999 V2000
    6.8589    0.8444    3.1282 C   0  0  0  0  0  0  0  0  0  0  0  0
    6.7817   -0.1748    2.1399 O   0  0  0  0  0  0  0  0  0  0  0  0
    5.6158   -0.2717    1.4332 C   0  0  0  0  0  0  0  0  0  0  0  0
    4.4958    0.5469    1.5822 C   0  0  0  0  0  0  0  0  0  0  0  0
    3.3550    0.3393    0.7930 C   0  0  0  0  0  0  0  0  0  0  0  0
    3.3200   -0.6970   -0.1502 C   0  0  0  0  0  0  0  0  0  0  0  0
    2.1252   -0.9577   -0.9989 C   0  0  0  0  0  0  0  0  0  0  0  0
    2.2614   -1.5900   -2.0450 O   0  0  0  0  0  0  0  0  0  0  0  0
    0.7896   -0.4934   -0.5363 C   0  0  0  0  0  0  0  0  0  0  0  0
   -0.2577   -0.5679   -1.3722 C   0  0  0  0  0  0  0  0  0  0  0  0
   -1.6208   -0.1729   -0.9939 C   0  0  0  0  0  0  0  0  0  0  0  0
   -2.6855   -1.0184   -1.3397 C   0  0  0  0  0  0  0  0  0  0  0  0
   -4.0003   -0.6795   -1.0108 C   0  0  0  0  0  0  0  0  0  0  0  0
   -5.1016   -1.4449   -1.2955 O   0  0  0  0  0  0  0  0  0  0  0  0
   -4.9135   -2.5755   -2.1354 C   0  0  0  0  0  0  0  0  0  0  0  0
   -4.2377    0.5220   -0.3225 C   0  0  0  0  0  0  0  0  0  0  0  0
   -5.5332    0.8884   -0.0281 O   0  0  0  0  0  0  0  0  0  0  0  0
   -5.8960    0.3867    1.2568 C   0  0  0  0  0  0  0  0  0  0  0  0
   -3.1888    1.4017   -0.0074 C   0  0  0  0  0  0  0  0  0  0  0  0
   -3.5369    2.5594    0.6399 O   0  0  0  0  0  0  0  0  0  0  0  0
   -2.5735    3.6037    0.6620 C   0  0  0  0  0  0  0  0  0  0  0  0
   -1.8808    1.0412   -0.3406 C   0  0  0  0  0  0  0  0  0  0  0  0
    4.4620   -1.4954   -0.3106 C   0  0  0  0  0  0  0  0  0  0  0  0
    4.5452   -2.5072   -1.2317 O   0  0  0  0  0  0  0  0  0  0  0  0
    5.5923   -1.2912    0.4802 C   0  0  0  0  0  0  0  0  0  0  0  0
    6.1049    0.6958    3.9082 H   0  0  0  0  0  0  0  0  0  0  0  0
    6.7709    1.8383    2.6771 H   0  0  0  0  0  0  0  0  0  0  0  0
    7.8439    0.7789    3.6002 H   0  0  0  0  0  0  0  0  0  0  0  0
    4.4788    1.3612    2.3000 H   0  0  0  0  0  0  0  0  0  0  0  0
    2.5178    1.0183    0.9245 H   0  0  0  0  0  0  0  0  0  0  0  0
    0.6778   -0.1454    0.4819 H   0  0  0  0  0  0  0  0  0  0  0  0
   -0.1389   -0.9637   -2.3800 H   0  0  0  0  0  0  0  0  0  0  0  0
   -2.4616   -1.9468   -1.8563 H   0  0  0  0  0  0  0  0  0  0  0  0
   -4.3013   -3.3351   -1.6386 H   0  0  0  0  0  0  0  0  0  0  0  0
   -4.4827   -2.2878   -3.1002 H   0  0  0  0  0  0  0  0  0  0  0  0
   -5.8965   -3.0158   -2.3283 H   0  0  0  0  0  0  0  0  0  0  0  0
   -5.2543    0.7996    2.0429 H   0  0  0  0  0  0  0  0  0  0  0  0
   -6.9237    0.7020    1.4608 H   0  0  0  0  0  0  0  0  0  0  0  0
   -5.8681   -0.7081    1.2817 H   0  0  0  0  0  0  0  0  0  0  0  0
   -2.2159    3.8413   -0.3456 H   0  0  0  0  0  0  0  0  0  0  0  0
   -1.7415    3.3518    1.3272 H   0  0  0  0  0  0  0  0  0  0  0  0
   -3.0594    4.4986    1.0625 H   0  0  0  0  0  0  0  0  0  0  0  0
   -1.0498    1.6967   -0.1041 H   0  0  0  0  0  0  0  0  0  0  0  0
    3.7596   -2.4477   -1.8208 H   0  0  0  0  0  0  0  0  0  0  0  0
    6.4633   -1.9281    0.3461 H   0  0  0  0  0  0  0  0  0  0  0  0
  1  2  1  0
  2  3  1  0
  3  4  2  0
  4  5  1  0
  5  6  2  0
  6  7  1  0
  7  8  2  0
  7  9  1  0
  9 10  2  0
 10 11  1  0
 11 12  2  0
 12 13  1  0
 13 14  1  0
 14 15  1  0
 13 16  2  0
 16 17  1  0
 17 18  1  0
 16 19  1  0
 19 20  1  0
 20 21  1  0
 19 22  2  0
  6 23  1  0
 23 24  1  0
 23 25  2  0
 25  3  1  0
 22 11  1  0
  1 26  1  0
  1 27  1  0
  1 28  1  0
  4 29  1  0
  5 30  1  0
  9 31  1  0
 10 32  1  0
 12 33  1  0
 15 34  1  0
 15 35  1  0
 15 36  1  0
 18 37  1  0
 18 38  1  0
 18 39  1  0
 21 40  1  0
 21 41  1  0
 21 42  1  0
 22 43  1  0
 24 44  1  0
 25 45  1  0
M  END
$$$$
