
     RDKit          3D

 80 86  0  0  0  0  0  0  0  0999 V2000
    6.5258   -0.3588    2.1175 C   0  0  0  0  0  0  0  0  0  0  0  0
    6.2086   -0.5730    0.6335 C   0  0  0  0  0  0  0  0  0  0  0  0
    6.7686    0.6156   -0.1629 C   0  0  0  0  0  0  0  0  0  0  0  0
    6.8345   -1.8627    0.0915 C   0  0  0  0  0  0  0  0  0  0  0  0
    4.7795   -0.5345    0.3883 O   0  0  0  0  0  0  0  0  0  0  0  0
    3.9466   -1.4504    0.9462 C   0  0  0  0  0  0  0  0  0  0  0  0
    4.3109   -2.3664    1.6723 O   0  0  0  0  0  0  0  0  0  0  0  0
    2.6238   -1.2296    0.5979 N   0  0  0  0  0  0  0  0  0  0  0  0
    1.5936   -1.9903    1.3268 C   0  0  0  0  0  0  0  0  0  0  0  0
    0.2067   -2.0123    0.6364 C   0  0  0  0  0  0  0  0  0  0  0  0
   -0.1398   -0.6592    0.2321 N   0  0  0  0  0  0  0  0  0  0  0  0
    0.8646   -0.1361   -0.7467 C   0  0  2  0  0  0  0  0  0  0  0  0
    2.1953    0.0406   -0.0242 C   0  0  0  0  0  0  0  0  0  0  0  0
    0.1507    1.0603   -1.2406 C   0  0  0  0  0  0  0  0  0  0  0  0
   -1.2344    0.9259   -0.9919 C   0  0  0  0  0  0  0  0  0  0  0  0
   -1.8686    2.0380   -1.4812 C   0  0  0  0  0  0  0  0  0  0  0  0
   -3.1440    2.4059   -1.4904 O   0  0  0  0  0  0  0  0  0  0  0  0
   -0.8777    2.8479   -2.0199 N   0  0  0  0  0  0  0  0  0  0  0  0
   -1.1142    4.1359   -2.6604 C   0  0  0  0  0  0  0  0  0  0  0  0
   -0.9978    5.2785   -1.6806 C   0  0  0  0  0  0  0  0  0  0  0  0
   -2.1125    5.7014   -0.9418 C   0  0  0  0  0  0  0  0  0  0  0  0
   -2.0028    6.7538   -0.0313 C   0  0  0  0  0  0  0  0  0  0  0  0
   -0.7775    7.3913    0.1540 C   0  0  0  0  0  0  0  0  0  0  0  0
    0.3398    6.9746   -0.5673 C   0  0  0  0  0  0  0  0  0  0  0  0
    0.2315    5.9224   -1.4780 C   0  0  0  0  0  0  0  0  0  0  0  0
    0.3637    2.2359   -1.9061 C   0  0  0  0  0  0  0  0  0  0  0  0
    1.4589    2.7980   -2.4011 O   0  0  0  0  0  0  0  0  0  0  0  0
   -1.4941   -0.3573   -0.2862 C   0  0  1  0  0  0  0  0  0  0  0  0
   -2.0943   -1.4540   -1.2006 C   0  0  0  0  0  0  0  0  0  0  0  0
   -1.5815   -1.9618   -2.1902 O   0  0  0  0  0  0  0  0  0  0  0  0
   -3.3475   -1.7822   -0.6523 N   0  0  0  0  0  0  0  0  0  0  0  0
   -4.1564   -2.8746   -1.1415 C   0  0  0  0  0  0  0  0  0  0  0  0
   -3.7980   -4.1881   -0.4823 C   0  0  0  0  0  0  0  0  0  0  0  0
   -4.5641   -4.6990    0.5749 C   0  0  0  0  0  0  0  0  0  0  0  0
   -4.2062   -5.8973    1.1966 C   0  0  0  0  0  0  0  0  0  0  0  0
   -3.0801   -6.5981    0.7691 C   0  0  0  0  0  0  0  0  0  0  0  0
   -2.3105   -6.1025   -0.2807 C   0  0  0  0  0  0  0  0  0  0  0  0
   -2.6662   -4.9048   -0.9024 C   0  0  0  0  0  0  0  0  0  0  0  0
   -3.6161   -1.0208    0.4970 C   0  0  0  0  0  0  0  0  0  0  0  0
   -4.7339   -1.0455    1.3113 C   0  0  0  0  0  0  0  0  0  0  0  0
   -4.7679   -0.1808    2.4099 C   0  0  0  0  0  0  0  0  0  0  0  0
   -3.6951    0.6848    2.6782 C   0  0  0  0  0  0  0  0  0  0  0  0
   -2.5722    0.7017    1.8501 C   0  0  0  0  0  0  0  0  0  0  0  0
   -2.5489   -0.1520    0.7555 C   0  0  0  0  0  0  0  0  0  0  0  0
    5.9945    0.5175    2.5056 H   0  0  0  0  0  0  0  0  0  0  0  0
    7.5997   -0.2150    2.2789 H   0  0  0  0  0  0  0  0  0  0  0  0
    6.2143   -1.2103    2.7295 H   0  0  0  0  0  0  0  0  0  0  0  0
    7.8558    0.6971   -0.0623 H   0  0  0  0  0  0  0  0  0  0  0  0
    6.5253    0.5206   -1.2276 H   0  0  0  0  0  0  0  0  0  0  0  0
    6.3184    1.5569    0.1739 H   0  0  0  0  0  0  0  0  0  0  0  0
    6.5258   -2.7409    0.6663 H   0  0  0  0  0  0  0  0  0  0  0  0
    6.5231   -2.0404   -0.9441 H   0  0  0  0  0  0  0  0  0  0  0  0
    7.9286   -1.8189    0.1244 H   0  0  0  0  0  0  0  0  0  0  0  0
    1.5031   -1.5231    2.3160 H   0  0  0  0  0  0  0  0  0  0  0  0
    1.9393   -3.0184    1.4832 H   0  0  0  0  0  0  0  0  0  0  0  0
    0.2424   -2.6890   -0.2257 H   0  0  0  0  0  0  0  0  0  0  0  0
   -0.5293   -2.4119    1.3428 H   0  0  0  0  0  0  0  0  0  0  0  0
    0.9851   -0.8423   -1.5809 H   0  0  0  0  0  0  0  0  0  0  0  0
    2.9554    0.3917   -0.7302 H   0  0  0  0  0  0  0  0  0  0  0  0
    2.1265    0.7889    0.7758 H   0  0  0  0  0  0  0  0  0  0  0  0
   -3.6402    1.7544   -0.9625 H   0  0  0  0  0  0  0  0  0  0  0  0
   -0.3974    4.2479   -3.4822 H   0  0  0  0  0  0  0  0  0  0  0  0
   -2.1085    4.1157   -3.1217 H   0  0  0  0  0  0  0  0  0  0  0  0
   -3.0724    5.2048   -1.0701 H   0  0  0  0  0  0  0  0  0  0  0  0
   -2.8734    7.0720    0.5359 H   0  0  0  0  0  0  0  0  0  0  0  0
   -0.6921    8.2093    0.8641 H   0  0  0  0  0  0  0  0  0  0  0  0
    1.2978    7.4654   -0.4180 H   0  0  0  0  0  0  0  0  0  0  0  0
    1.1142    5.5994   -2.0268 H   0  0  0  0  0  0  0  0  0  0  0  0
    2.2025    2.1928   -2.2393 H   0  0  0  0  0  0  0  0  0  0  0  0
   -5.2187   -2.6426   -1.0059 H   0  0  0  0  0  0  0  0  0  0  0  0
   -4.0020   -2.9705   -2.2236 H   0  0  0  0  0  0  0  0  0  0  0  0
   -5.4460   -4.1696    0.9262 H   0  0  0  0  0  0  0  0  0  0  0  0
   -4.8060   -6.2840    2.0167 H   0  0  0  0  0  0  0  0  0  0  0  0
   -2.8019   -7.5300    1.2540 H   0  0  0  0  0  0  0  0  0  0  0  0
   -1.4317   -6.6471   -0.6170 H   0  0  0  0  0  0  0  0  0  0  0  0
   -2.0515   -4.5304   -1.7200 H   0  0  0  0  0  0  0  0  0  0  0  0
   -5.5727   -1.7038    1.1207 H   0  0  0  0  0  0  0  0  0  0  0  0
   -5.6335   -0.1791    3.0692 H   0  0  0  0  0  0  0  0  0  0  0  0
   -3.7380    1.3459    3.5413 H   0  0  0  0  0  0  0  0  0  0  0  0
   -1.7371    1.3665    2.0549 H   0  0  0  0  0  0  0  0  0  0  0  0
  1  2  1  0
  2  3  1  0
  2  4  1  0
  2  5  1  0
  5  6  1  0
  6  7  2  0
  6  8  1  0
  8  9  1  0
  9 10  1  0
 10 11  1  0
 11 12  1  0
 12 13  1  0
 12 14  1  0
 14 15  1  0
 15 16  2  0
 16 17  1  0
 16 18  1  0
 18 19  1  0
 19 20  1  0
 20 21  2  0
 21 22  1  0
 22 23  2  0
 23 24  1  0
 24 25  2  0
 18 26  1  0
 26 27  1  0
 15 28  1  0
 28 29  1  0
 29 30  2  0
 29 31  1  0
 31 32  1  0
 32 33  1  0
 33 34  2  0
 34 35  1  0
 35 36  2  0
 36 37  1  0
 37 38  2  0
 31 39  1  0
 39 40  2  0
 40 41  1  0
 41 42  2  0
 42 43  1  0
 43 44  2  0
 13  8  1  0
 26 14  2  0
 44 28  1  0
 28 11  1  1
 38 33  1  0
 44 39  1  0
 25 20  1  0
  1 45  1  0
  1 46  1  0
  1 47  1  0
  3 48  1  0
  3 49  1  0
  3 50  1  0
  4 51  1  0
  4 52  1  0
  4 53  1  0
  9 54  1  0
  9 55  1  0
 10 56  1  0
 10 57  1  0
 12 58  1  6
 13 59  1  0
 13 60  1  0
 17 61  1  0
 19 62  1  0
 19 63  1  0
 21 64  1  0
 22 65  1  0
 23 66  1  0
 24 67  1  0
 25 68  1  0
 27 69  1  0
 32 70  1  0
 32 71  1  0
 34 72  1  0
 35 73  1  0
 36 74  1  0
 37 75  1  0
 38 76  1  0
 40 77  1  0
 41 78  1  0
 42 79  1  0
 43 80  1  0
M  END
$$$$
