
     RDKit          3D

 62 67  0  0  0  0  0  0  0  0999 V2000
   -2.4985   -1.1078    4.0056 C   0  0  0  0  0  0  0  0  0  0  0  0
   -1.7511   -1.1308    2.7906 O   0  0  0  0  0  0  0  0  0  0  0  0
   -2.1648   -2.1721    1.9964 C   0  0  0  0  0  0  0  0  0  0  0  0
   -1.6569   -3.4494    2.2501 C   0  0  0  0  0  0  0  0  0  0  0  0
   -2.0371   -4.5225    1.4449 C   0  0  0  0  0  0  0  0  0  0  0  0
   -2.9115   -4.3173    0.3788 C   0  0  0  0  0  0  0  0  0  0  0  0
   -3.4008   -3.0362    0.1103 C   0  0  0  0  0  0  0  0  0  0  0  0
   -3.0261   -1.9448    0.9109 C   0  0  0  0  0  0  0  0  0  0  0  0
   -3.5257   -0.6020    0.5884 C   0  0  0  0  0  0  0  0  0  0  0  0
   -5.1666   -0.2512    0.9142 S   0  0  0  0  0  0  0  0  0  0  0  0
   -5.0278    1.3694    0.3592 C   0  0  0  0  0  0  0  0  0  0  0  0
   -6.0597    2.3337    0.3316 C   0  0  0  0  0  0  0  0  0  0  0  0
   -5.7292    3.5784   -0.1623 C   0  0  0  0  0  0  0  0  0  0  0  0
   -4.4711    3.8771   -0.6075 C   0  0  0  0  0  0  0  0  0  0  0  0
   -3.4480    2.9495   -0.5910 C   0  0  0  0  0  0  0  0  0  0  0  0
   -3.7258    1.6476   -0.0866 C   0  0  0  0  0  0  0  0  0  0  0  0
   -2.8646    0.4907    0.0512 C   0  0  0  0  0  0  0  0  0  0  0  0
   -1.4527    0.4301   -0.3160 C   0  0  0  0  0  0  0  0  0  0  0  0
   -1.0328   -0.3531   -1.3965 C   0  0  0  0  0  0  0  0  0  0  0  0
    0.3200   -0.4028   -1.7520 C   0  0  0  0  0  0  0  0  0  0  0  0
    1.2615    0.3370   -1.0353 C   0  0  0  0  0  0  0  0  0  0  0  0
    2.6046    0.3871   -1.2872 O   0  0  0  0  0  0  0  0  0  0  0  0
    3.1223   -0.5569   -2.2269 C   0  0  0  0  0  0  0  0  0  0  0  0
    4.6535   -0.4084   -2.3307 C   0  0  0  0  0  0  0  0  0  0  0  0
    5.4134   -1.0715   -1.2503 N   0  0  0  0  0  0  0  0  0  0  0  0
    5.1074   -0.4880    0.0772 C   0  0  0  0  0  0  0  0  0  0  0  0
    6.2457   -0.7183    1.0851 C   0  0  0  0  0  0  0  0  0  0  0  0
    7.4724   -0.0808    0.6970 O   0  0  0  0  0  0  0  0  0  0  0  0
    7.6027    0.0664   -0.7216 C   0  0  0  0  0  0  0  0  0  0  0  0
    6.8706   -1.0329   -1.5069 C   0  0  0  0  0  0  0  0  0  0  0  0
    0.8388    1.1255    0.0370 C   0  0  0  0  0  0  0  0  0  0  0  0
   -0.5096    1.1710    0.4007 C   0  0  0  0  0  0  0  0  0  0  0  0
   -4.3657    5.1583   -1.0523 O   0  0  0  0  0  0  0  0  0  0  0  0
   -5.7089    5.6337   -0.8309 C   0  0  0  0  0  0  0  0  0  0  0  0
   -6.5828    4.6332   -0.2689 O   0  0  0  0  0  0  0  0  0  0  0  0
   -2.2690   -1.9795    4.6255 H   0  0  0  0  0  0  0  0  0  0  0  0
   -3.5750   -1.0504    3.8146 H   0  0  0  0  0  0  0  0  0  0  0  0
   -2.2048   -0.2130    4.5616 H   0  0  0  0  0  0  0  0  0  0  0  0
   -0.9588   -3.6053    3.0671 H   0  0  0  0  0  0  0  0  0  0  0  0
   -1.6450   -5.5165    1.6436 H   0  0  0  0  0  0  0  0  0  0  0  0
   -3.2043   -5.1525   -0.2525 H   0  0  0  0  0  0  0  0  0  0  0  0
   -4.0680   -2.8895   -0.7370 H   0  0  0  0  0  0  0  0  0  0  0  0
   -7.0606    2.1067    0.6797 H   0  0  0  0  0  0  0  0  0  0  0  0
   -2.4598    3.2117   -0.9551 H   0  0  0  0  0  0  0  0  0  0  0  0
   -1.7551   -0.9289   -1.9699 H   0  0  0  0  0  0  0  0  0  0  0  0
    0.6001   -1.0231   -2.5956 H   0  0  0  0  0  0  0  0  0  0  0  0
    2.8642   -1.5818   -1.9349 H   0  0  0  0  0  0  0  0  0  0  0  0
    2.6996   -0.3432   -3.2153 H   0  0  0  0  0  0  0  0  0  0  0  0
    4.9218    0.6548   -2.3904 H   0  0  0  0  0  0  0  0  0  0  0  0
    4.9450   -0.8795   -3.2792 H   0  0  0  0  0  0  0  0  0  0  0  0
    4.9556    0.5963   -0.0082 H   0  0  0  0  0  0  0  0  0  0  0  0
    4.1881   -0.9366    0.4664 H   0  0  0  0  0  0  0  0  0  0  0  0
    6.4424   -1.7886    1.2168 H   0  0  0  0  0  0  0  0  0  0  0  0
    5.9664   -0.3158    2.0646 H   0  0  0  0  0  0  0  0  0  0  0  0
    7.2295    1.0582   -0.9995 H   0  0  0  0  0  0  0  0  0  0  0  0
    8.6713    0.0461   -0.9547 H   0  0  0  0  0  0  0  0  0  0  0  0
    7.2722   -2.0045   -1.1917 H   0  0  0  0  0  0  0  0  0  0  0  0
    7.0919   -0.9436   -2.5770 H   0  0  0  0  0  0  0  0  0  0  0  0
    1.5668    1.7034    0.6014 H   0  0  0  0  0  0  0  0  0  0  0  0
   -0.8137    1.7774    1.2499 H   0  0  0  0  0  0  0  0  0  0  0  0
   -5.6706    6.4903   -0.1478 H   0  0  0  0  0  0  0  0  0  0  0  0
   -6.1252    5.9655   -1.7888 H   0  0  0  0  0  0  0  0  0  0  0  0
  1  2  1  0
  2  3  1  0
  3  4  2  0
  4  5  1  0
  5  6  2  0
  6  7  1  0
  7  8  2  0
  8  9  1  0
  9 10  1  0
 10 11  1  0
 11 12  2  0
 12 13  1  0
 13 14  2  0
 14 15  1  0
 15 16  2  0
 16 17  1  0
 17 18  1  0
 18 19  2  0
 19 20  1  0
 20 21  2  0
 21 22  1  0
 22 23  1  0
 23 24  1  0
 24 25  1  0
 25 26  1  0
 26 27  1  0
 27 28  1  0
 28 29  1  0
 29 30  1  0
 21 31  1  0
 31 32  2  0
 14 33  1  0
 33 34  1  0
 34 35  1  0
  8  3  1  0
 17  9  2  0
 32 18  1  0
 16 11  1  0
 30 25  1  0
 35 13  1  0
  1 36  1  0
  1 37  1  0
  1 38  1  0
  4 39  1  0
  5 40  1  0
  6 41  1  0
  7 42  1  0
 12 43  1  0
 15 44  1  0
 19 45  1  0
 20 46  1  0
 23 47  1  0
 23 48  1  0
 24 49  1  0
 24 50  1  0
 26 51  1  0
 26 52  1  0
 27 53  1  0
 27 54  1  0
 29 55  1  0
 29 56  1  0
 30 57  1  0
 30 58  1  0
 31 59  1  0
 32 60  1  0
 34 61  1  0
 34 62  1  0
M  END
$$$$
