
     RDKit          3D

 52 55  0  0  0  0  0  0  0  0999 V2000
    7.6639   -2.4783    3.6522 C   0  0  0  0  0  0  0  0  0  0  0  0
    7.4099   -1.8127    2.4212 O   0  0  0  0  0  0  0  0  0  0  0  0
    6.1305   -1.3819    2.2068 C   0  0  0  0  0  0  0  0  0  0  0  0
    5.0546   -1.5317    3.0793 C   0  0  0  0  0  0  0  0  0  0  0  0
    3.7869   -1.0405    2.7343 C   0  0  0  0  0  0  0  0  0  0  0  0
    3.5803   -0.3963    1.5147 C   0  0  0  0  0  0  0  0  0  0  0  0
    2.3416    0.1250    1.0964 N   0  0  0  0  0  0  0  0  0  0  0  0
    1.1208    0.0549    1.7444 C   0  0  0  0  0  0  0  0  0  0  0  0
    0.9127   -0.4706    2.8358 O   0  0  0  0  0  0  0  0  0  0  0  0
   -0.0030    0.7922    1.0275 C   0  0  0  0  0  0  0  0  0  0  0  0
    0.0626    0.5650   -0.7770 S   0  0  0  0  0  0  0  0  0  0  0  0
   -1.4287    1.4070   -1.1765 C   0  0  0  0  0  0  0  0  0  0  0  0
   -1.4750    2.6575   -0.8297 N   0  0  0  0  0  0  0  0  0  0  0  0
   -2.6458    3.3095   -1.0798 C   0  0  0  0  0  0  0  0  0  0  0  0
   -3.7226    2.7665   -1.6443 C   0  0  0  0  0  0  0  0  0  0  0  0
   -3.6853    1.3532   -2.0719 C   0  0  0  0  0  0  0  0  0  0  0  0
   -4.6430    0.8455   -2.6541 O   0  0  0  0  0  0  0  0  0  0  0  0
   -2.4679    0.7150   -1.7984 N   0  0  0  0  0  0  0  0  0  0  0  0
   -2.3710   -0.6643   -2.1482 C   0  0  0  0  0  0  0  0  0  0  0  0
   -1.4952   -1.0701   -3.1655 C   0  0  0  0  0  0  0  0  0  0  0  0
   -1.4136   -2.4163   -3.5240 C   0  0  0  0  0  0  0  0  0  0  0  0
   -2.2011   -3.3624   -2.8690 C   0  0  0  0  0  0  0  0  0  0  0  0
   -3.0794   -2.9674   -1.8581 C   0  0  0  0  0  0  0  0  0  0  0  0
   -3.1806   -1.6184   -1.5079 C   0  0  0  0  0  0  0  0  0  0  0  0
   -3.9753   -1.1966   -0.4704 O   0  0  0  0  0  0  0  0  0  0  0  0
   -5.3168   -1.6737   -0.5720 C   0  0  0  0  0  0  0  0  0  0  0  0
   -5.0723    3.8110   -1.8256 S   0  0  0  0  0  0  0  0  0  0  0  0
   -4.0758    5.2739   -1.3701 C   0  0  0  0  0  0  0  0  0  0  0  0
   -2.8098    4.7472   -0.6858 C   0  0  0  0  0  0  0  0  0  0  0  0
    4.6634   -0.2463    0.6426 C   0  0  0  0  0  0  0  0  0  0  0  0
    5.9268   -0.7361    0.9876 C   0  0  0  0  0  0  0  0  0  0  0  0
    7.0738   -3.3971    3.7339 H   0  0  0  0  0  0  0  0  0  0  0  0
    8.7213   -2.7597    3.6679 H   0  0  0  0  0  0  0  0  0  0  0  0
    7.4836   -1.8145    4.5042 H   0  0  0  0  0  0  0  0  0  0  0  0
    5.1594   -2.0251    4.0399 H   0  0  0  0  0  0  0  0  0  0  0  0
    2.9812   -1.1799    3.4482 H   0  0  0  0  0  0  0  0  0  0  0  0
    2.3188    0.5483    0.1743 H   0  0  0  0  0  0  0  0  0  0  0  0
    0.0731    1.8537    1.2828 H   0  0  0  0  0  0  0  0  0  0  0  0
   -0.9580    0.4029    1.3954 H   0  0  0  0  0  0  0  0  0  0  0  0
   -0.8849   -0.3430   -3.6951 H   0  0  0  0  0  0  0  0  0  0  0  0
   -0.7345   -2.7283   -4.3137 H   0  0  0  0  0  0  0  0  0  0  0  0
   -2.1261   -4.4127   -3.1411 H   0  0  0  0  0  0  0  0  0  0  0  0
   -3.6596   -3.7238   -1.3384 H   0  0  0  0  0  0  0  0  0  0  0  0
   -5.6910   -1.6382   -1.6015 H   0  0  0  0  0  0  0  0  0  0  0  0
   -5.9489   -1.0213    0.0379 H   0  0  0  0  0  0  0  0  0  0  0  0
   -5.3930   -2.6881   -0.1683 H   0  0  0  0  0  0  0  0  0  0  0  0
   -4.6422    5.9430   -0.7159 H   0  0  0  0  0  0  0  0  0  0  0  0
   -3.8200    5.8174   -2.2859 H   0  0  0  0  0  0  0  0  0  0  0  0
   -1.9437    5.3476   -0.9852 H   0  0  0  0  0  0  0  0  0  0  0  0
   -2.9048    4.8214    0.4042 H   0  0  0  0  0  0  0  0  0  0  0  0
    4.5448    0.2504   -0.3165 H   0  0  0  0  0  0  0  0  0  0  0  0
    6.7591   -0.6126    0.2989 H   0  0  0  0  0  0  0  0  0  0  0  0
  1  2  1  0
  2  3  1  0
  3  4  2  0
  4  5  1  0
  5  6  2  0
  6  7  1  0
  7  8  1  0
  8  9  2  0
  8 10  1  0
 10 11  1  0
 11 12  1  0
 12 13  2  0
 13 14  1  0
 14 15  2  0
 15 16  1  0
 16 17  2  0
 16 18  1  0
 18 19  1  0
 19 20  2  0
 20 21  1  0
 21 22  2  0
 22 23  1  0
 23 24  2  0
 24 25  1  0
 25 26  1  0
 15 27  1  0
 27 28  1  0
 28 29  1  0
  6 30  1  0
 30 31  2  0
 31  3  1  0
 18 12  1  0
 24 19  1  0
 29 14  1  0
  1 32  1  0
  1 33  1  0
  1 34  1  0
  4 35  1  0
  5 36  1  0
  7 37  1  0
 10 38  1  0
 10 39  1  0
 20 40  1  0
 21 41  1  0
 22 42  1  0
 23 43  1  0
 26 44  1  0
 26 45  1  0
 26 46  1  0
 28 47  1  0
 28 48  1  0
 29 49  1  0
 29 50  1  0
 30 51  1  0
 31 52  1  0
M  END
$$$$
