
     RDKit          3D

 57 61  0  0  0  0  0  0  0  0999 V2000
   -6.6190   -1.2085   -3.3602 C   0  0  0  0  0  0  0  0  0  0  0  0
   -6.0756   -0.8464   -2.0100 C   0  0  0  0  0  0  0  0  0  0  0  0
   -6.6084    0.2357   -1.3015 C   0  0  0  0  0  0  0  0  0  0  0  0
   -6.1307    0.5552   -0.0287 C   0  0  0  0  0  0  0  0  0  0  0  0
   -5.1191   -0.2106    0.5649 C   0  0  0  0  0  0  0  0  0  0  0  0
   -4.5998    0.1378    1.9370 C   0  0  0  0  0  0  0  0  0  0  0  0
   -3.6330    1.2134    1.8832 N   0  0  0  0  0  0  0  0  0  0  0  0
   -4.0065    2.4968    2.1158 N   0  0  0  0  0  0  0  0  0  0  0  0
   -2.9171    3.2593    2.0268 N   0  0  0  0  0  0  0  0  0  0  0  0
   -1.8690    2.4360    1.7592 C   0  0  0  0  0  0  0  0  0  0  0  0
   -0.4740    2.7194    1.5678 C   0  0  0  0  0  0  0  0  0  0  0  0
    0.0516    3.8256    1.6042 O   0  0  0  0  0  0  0  0  0  0  0  0
    0.2652    1.5691    1.3232 N   0  0  0  0  0  0  0  0  0  0  0  0
   -0.2750    0.2887    1.2673 C   0  0  0  0  0  0  0  0  0  0  0  0
    0.6986   -0.8471    0.9792 C   0  0  0  0  0  0  0  0  0  0  0  0
    1.2945   -0.7024   -0.4260 C   0  0  0  0  0  0  0  0  0  0  0  0
    2.4585   -1.6608   -0.6430 C   0  0  0  0  0  0  0  0  0  0  0  0
    3.4789   -1.5343    0.4202 N   0  0  0  0  0  0  0  0  0  0  0  0
    5.1062   -1.7613   -0.0121 S   0  0  0  0  0  6  0  0  0  0  0  0
    5.1378   -2.8413   -0.9794 O   0  0  0  0  0  0  0  0  0  0  0  0
    5.9086   -1.8289    1.1903 O   0  0  0  0  0  0  0  0  0  0  0  0
    5.5257   -0.2752   -0.8744 C   0  0  0  0  0  0  0  0  0  0  0  0
    5.6582   -0.2860   -2.2689 C   0  0  0  0  0  0  0  0  0  0  0  0
    6.0355    0.8813   -2.9371 C   0  0  0  0  0  0  0  0  0  0  0  0
    6.2899    2.0506   -2.2168 C   0  0  0  0  0  0  0  0  0  0  0  0
    6.1674    2.0531   -0.8270 C   0  0  0  0  0  0  0  0  0  0  0  0
    5.7917    0.8874   -0.1608 C   0  0  0  0  0  0  0  0  0  0  0  0
    5.6697    0.9338    1.1718 F   0  0  0  0  0  0  0  0  0  0  0  0
    3.1713   -0.6432    1.5512 C   0  0  0  0  0  0  0  0  0  0  0  0
    1.7731   -0.9601    2.0727 C   0  0  0  0  0  0  0  0  0  0  0  0
   -1.5403    0.0216    1.4408 N   0  0  0  0  0  0  0  0  0  0  0  0
   -2.2856    1.1296    1.6771 C   0  0  0  0  0  0  0  0  0  0  0  0
   -4.5873   -1.2964   -0.1461 C   0  0  0  0  0  0  0  0  0  0  0  0
   -5.0682   -1.6159   -1.4181 C   0  0  0  0  0  0  0  0  0  0  0  0
   -5.8560   -1.7077   -3.9691 H   0  0  0  0  0  0  0  0  0  0  0  0
   -6.9375   -0.3131   -3.9045 H   0  0  0  0  0  0  0  0  0  0  0  0
   -7.4785   -1.8789   -3.2500 H   0  0  0  0  0  0  0  0  0  0  0  0
   -7.3997    0.8412   -1.7375 H   0  0  0  0  0  0  0  0  0  0  0  0
   -6.5524    1.4113    0.4954 H   0  0  0  0  0  0  0  0  0  0  0  0
   -4.1199   -0.7241    2.4122 H   0  0  0  0  0  0  0  0  0  0  0  0
   -5.4205    0.4462    2.5933 H   0  0  0  0  0  0  0  0  0  0  0  0
    1.2498    1.7351    1.1829 H   0  0  0  0  0  0  0  0  0  0  0  0
    0.1118   -1.7768    1.0025 H   0  0  0  0  0  0  0  0  0  0  0  0
    1.6394    0.3236   -0.6050 H   0  0  0  0  0  0  0  0  0  0  0  0
    0.5171   -0.8901   -1.1768 H   0  0  0  0  0  0  0  0  0  0  0  0
    2.8890   -1.4642   -1.6317 H   0  0  0  0  0  0  0  0  0  0  0  0
    2.0953   -2.6964   -0.6405 H   0  0  0  0  0  0  0  0  0  0  0  0
    5.4835   -1.1970   -2.8390 H   0  0  0  0  0  0  0  0  0  0  0  0
    6.1464    0.8760   -4.0206 H   0  0  0  0  0  0  0  0  0  0  0  0
    6.5971    2.9557   -2.7386 H   0  0  0  0  0  0  0  0  0  0  0  0
    6.3716    2.9567   -0.2570 H   0  0  0  0  0  0  0  0  0  0  0  0
    3.8836   -0.7972    2.3672 H   0  0  0  0  0  0  0  0  0  0  0  0
    3.2298    0.4037    1.2394 H   0  0  0  0  0  0  0  0  0  0  0  0
    1.5465   -0.3186    2.9332 H   0  0  0  0  0  0  0  0  0  0  0  0
    1.7702   -1.9903    2.4544 H   0  0  0  0  0  0  0  0  0  0  0  0
   -3.7924   -1.9016    0.2856 H   0  0  0  0  0  0  0  0  0  0  0  0
   -4.6481   -2.4697   -1.9461 H   0  0  0  0  0  0  0  0  0  0  0  0
  1  2  1  0
  2  3  2  0
  3  4  1  0
  4  5  2  0
  5  6  1  0
  6  7  1  0
  7  8  1  0
  8  9  2  0
  9 10  1  0
 10 11  1  0
 11 12  2  0
 11 13  1  0
 13 14  1  0
 14 15  1  0
 15 16  1  0
 16 17  1  0
 17 18  1  0
 18 19  1  0
 19 20  2  0
 19 21  2  0
 19 22  1  0
 22 23  2  0
 23 24  1  0
 24 25  2  0
 25 26  1  0
 26 27  2  0
 27 28  1  0
 18 29  1  0
 29 30  1  0
 14 31  2  0
 31 32  1  0
  5 33  1  0
 33 34  2  0
 34  2  1  0
 32  7  1  0
 32 10  2  0
 30 15  1  0
 27 22  1  0
  1 35  1  0
  1 36  1  0
  1 37  1  0
  3 38  1  0
  4 39  1  0
  6 40  1  0
  6 41  1  0
 13 42  1  0
 15 43  1  0
 16 44  1  0
 16 45  1  0
 17 46  1  0
 17 47  1  0
 23 48  1  0
 24 49  1  0
 25 50  1  0
 26 51  1  0
 29 52  1  0
 29 53  1  0
 30 54  1  0
 30 55  1  0
 33 56  1  0
 34 57  1  0
M  END
$$$$
