
     RDKit          3D

 65 66  0  0  0  0  0  0  0  0999 V2000
   -3.3190    6.5954   -0.8562 C   0  0  0  0  0  0  0  0  0  0  0  0
   -2.0491    6.0189   -1.1325 O   0  0  0  0  0  0  0  0  0  0  0  0
   -1.9537    4.6589   -1.0272 C   0  0  0  0  0  0  0  0  0  0  0  0
   -0.6992    4.1349   -1.3394 C   0  0  0  0  0  0  0  0  0  0  0  0
   -0.4650    2.7590   -1.2754 C   0  0  0  0  0  0  0  0  0  0  0  0
   -1.4890    1.8724   -0.9011 C   0  0  0  0  0  0  0  0  0  0  0  0
   -1.1746    0.3824   -0.8157 C   0  0  0  0  0  0  0  0  0  0  0  0
   -2.3968   -0.5727   -1.0264 C   0  0  0  0  0  0  0  0  0  0  0  0
   -3.3152   -0.3193   -1.8029 O   0  0  0  0  0  0  0  0  0  0  0  0
   -2.3041   -1.7865   -0.3643 N   0  0  0  0  0  0  0  0  0  0  0  0
   -3.3024   -2.8651   -0.4151 C   0  0  0  0  0  0  0  0  0  0  0  0
   -3.4765   -3.3903   -1.8486 C   0  0  0  0  0  0  0  0  0  0  0  0
   -4.6509   -2.3888    0.1451 C   0  0  0  0  0  0  0  0  0  0  0  0
   -2.7897   -4.0228    0.4615 C   0  0  0  0  0  0  0  0  0  0  0  0
   -0.3579    0.0398    0.3871 N   0  0  0  0  0  0  0  0  0  0  0  0
   -0.7378    0.6042    1.6980 C   0  0  0  0  0  0  0  0  0  0  0  0
   -1.8811   -0.1243    2.4045 C   0  0  0  0  0  0  0  0  0  0  0  0
   -2.1503    0.4952    3.6571 O   0  0  0  0  0  0  0  0  0  0  0  0
    0.6925   -0.8743    0.3685 C   0  0  0  0  0  0  0  0  0  0  0  0
    1.1370   -1.3619    1.4089 O   0  0  0  0  0  0  0  0  0  0  0  0
    1.2359   -1.3126   -0.9840 C   0  0  0  0  0  0  0  0  0  0  0  0
    2.5160   -2.1323   -0.8309 C   0  0  0  0  0  0  0  0  0  0  0  0
    3.6948   -1.2550   -0.4403 C   0  0  0  0  0  0  0  0  0  0  0  0
    3.6856   -0.0401   -0.6149 O   0  0  0  0  0  0  0  0  0  0  0  0
    4.7481   -1.9897    0.0521 N   0  0  0  0  0  0  0  0  0  0  0  0
    5.9527   -1.4706    0.4709 C   0  0  0  0  0  0  0  0  0  0  0  0
    6.3902   -0.1287    0.5083 C   0  0  0  0  0  0  0  0  0  0  0  0
    7.6643   -0.1943    1.0145 C   0  0  0  0  0  0  0  0  0  0  0  0
    8.6982    0.8091    1.3214 C   0  0  0  0  0  0  0  0  0  0  0  0
    7.9787   -1.4935    1.2590 O   0  0  0  0  0  0  0  0  0  0  0  0
    6.9043   -2.2959    0.9229 N   0  0  0  0  0  0  0  0  0  0  0  0
   -2.7421    2.4110   -0.5730 C   0  0  0  0  0  0  0  0  0  0  0  0
   -2.9736    3.7912   -0.6404 C   0  0  0  0  0  0  0  0  0  0  0  0
   -4.0811    6.2242   -1.5497 H   0  0  0  0  0  0  0  0  0  0  0  0
   -3.2344    7.6767   -1.0031 H   0  0  0  0  0  0  0  0  0  0  0  0
   -3.6122    6.4229    0.1847 H   0  0  0  0  0  0  0  0  0  0  0  0
    0.1059    4.8047   -1.6328 H   0  0  0  0  0  0  0  0  0  0  0  0
    0.5299    2.3854   -1.5121 H   0  0  0  0  0  0  0  0  0  0  0  0
   -0.5761    0.1676   -1.7077 H   0  0  0  0  0  0  0  0  0  0  0  0
   -1.5672   -1.8698    0.3254 H   0  0  0  0  0  0  0  0  0  0  0  0
   -4.1401   -4.2624   -1.8719 H   0  0  0  0  0  0  0  0  0  0  0  0
   -3.9097   -2.6367   -2.5133 H   0  0  0  0  0  0  0  0  0  0  0  0
   -2.5129   -3.6892   -2.2771 H   0  0  0  0  0  0  0  0  0  0  0  0
   -5.0880   -1.5901   -0.4629 H   0  0  0  0  0  0  0  0  0  0  0  0
   -5.3769   -3.2088    0.1787 H   0  0  0  0  0  0  0  0  0  0  0  0
   -4.5376   -1.9978    1.1627 H   0  0  0  0  0  0  0  0  0  0  0  0
   -3.4882   -4.8669    0.4601 H   0  0  0  0  0  0  0  0  0  0  0  0
   -1.8190   -4.3873    0.1048 H   0  0  0  0  0  0  0  0  0  0  0  0
   -2.6534   -3.7016    1.5010 H   0  0  0  0  0  0  0  0  0  0  0  0
    0.1380    0.5877    2.3597 H   0  0  0  0  0  0  0  0  0  0  0  0
   -0.9706    1.6685    1.5968 H   0  0  0  0  0  0  0  0  0  0  0  0
   -2.7969   -0.0835    1.8090 H   0  0  0  0  0  0  0  0  0  0  0  0
   -1.6215   -1.1726    2.5827 H   0  0  0  0  0  0  0  0  0  0  0  0
   -2.8247   -0.0426    4.1068 H   0  0  0  0  0  0  0  0  0  0  0  0
    0.4752   -1.9343   -1.4688 H   0  0  0  0  0  0  0  0  0  0  0  0
    1.4283   -0.4341   -1.6078 H   0  0  0  0  0  0  0  0  0  0  0  0
    2.3863   -2.9353   -0.0964 H   0  0  0  0  0  0  0  0  0  0  0  0
    2.7641   -2.5951   -1.7935 H   0  0  0  0  0  0  0  0  0  0  0  0
    4.6764   -2.9918    0.1613 H   0  0  0  0  0  0  0  0  0  0  0  0
    5.8565    0.7629    0.2151 H   0  0  0  0  0  0  0  0  0  0  0  0
    9.4307    0.4188    2.0351 H   0  0  0  0  0  0  0  0  0  0  0  0
    8.2479    1.7064    1.7580 H   0  0  0  0  0  0  0  0  0  0  0  0
    9.2293    1.0998    0.4095 H   0  0  0  0  0  0  0  0  0  0  0  0
   -3.5646    1.7686   -0.2637 H   0  0  0  0  0  0  0  0  0  0  0  0
   -3.9639    4.1522   -0.3821 H   0  0  0  0  0  0  0  0  0  0  0  0
  1  2  1  0
  2  3  1  0
  3  4  2  0
  4  5  1  0
  5  6  2  0
  6  7  1  0
  7  8  1  0
  8  9  2  0
  8 10  1  0
 10 11  1  0
 11 12  1  0
 11 13  1  0
 11 14  1  0
  7 15  1  0
 15 16  1  0
 16 17  1  0
 17 18  1  0
 15 19  1  0
 19 20  2  0
 19 21  1  0
 21 22  1  0
 22 23  1  0
 23 24  2  0
 23 25  1  0
 25 26  1  0
 26 27  1  0
 27 28  2  0
 28 29  1  0
 28 30  1  0
 30 31  1  0
  6 32  1  0
 32 33  2  0
 33  3  1  0
 31 26  2  0
  1 34  1  0
  1 35  1  0
  1 36  1  0
  4 37  1  0
  5 38  1  0
  7 39  1  0
 10 40  1  0
 12 41  1  0
 12 42  1  0
 12 43  1  0
 13 44  1  0
 13 45  1  0
 13 46  1  0
 14 47  1  0
 14 48  1  0
 14 49  1  0
 16 50  1  0
 16 51  1  0
 17 52  1  0
 17 53  1  0
 18 54  1  0
 21 55  1  0
 21 56  1  0
 22 57  1  0
 22 58  1  0
 25 59  1  0
 27 60  1  0
 29 61  1  0
 29 62  1  0
 29 63  1  0
 32 64  1  0
 33 65  1  0
M  END
$$$$
