
     RDKit          3D

 63 66  0  0  0  0  0  0  0  0999 V2000
   -5.9754    3.0399   -1.0801 C   0  0  0  0  0  0  0  0  0  0  0  0
   -4.6683    2.3051   -1.1510 C   0  0  0  0  0  0  0  0  0  0  0  0
   -3.9269    2.3814   -2.3397 C   0  0  0  0  0  0  0  0  0  0  0  0
   -2.6980    1.7248   -2.4773 C   0  0  0  0  0  0  0  0  0  0  0  0
   -2.1712    0.9786   -1.4262 C   0  0  0  0  0  0  0  0  0  0  0  0
   -0.9372    0.2974   -1.4845 N   0  0  0  0  0  0  0  0  0  0  0  0
   -0.1352    0.1223   -2.5981 C   0  0  0  0  0  0  0  0  0  0  0  0
   -0.3865    0.4539   -3.7495 O   0  0  0  0  0  0  0  0  0  0  0  0
    1.1443   -0.5923   -2.3382 C   0  0  0  0  0  0  0  0  0  0  0  0
    1.6093   -1.5066   -3.2942 C   0  0  0  0  0  0  0  0  0  0  0  0
    2.8039   -2.2000   -3.0842 C   0  0  0  0  0  0  0  0  0  0  0  0
    3.5488   -1.9687   -1.9287 C   0  0  0  0  0  0  0  0  0  0  0  0
    3.0976   -1.0303   -0.9945 C   0  0  0  0  0  0  0  0  0  0  0  0
    4.0844   -0.7161    0.4543 S   0  0  0  0  0  6  0  0  0  0  0  0
    3.4369    0.3499    1.1941 O   0  0  0  0  0  0  0  0  0  0  0  0
    4.3343   -2.0061    1.0605 O   0  0  0  0  0  0  0  0  0  0  0  0
    5.5330   -0.0997   -0.2229 N   0  0  0  0  0  0  0  0  0  0  0  0
    5.3963    1.1906   -0.9401 C   0  0  0  0  0  0  0  0  0  0  0  0
    6.6707   -0.1553    0.6608 C   0  0  0  0  0  0  0  0  0  0  0  0
    6.6953    0.5056    1.8928 C   0  0  0  0  0  0  0  0  0  0  0  0
    7.8538    0.4852    2.6730 C   0  0  0  0  0  0  0  0  0  0  0  0
    8.9933   -0.1787    2.2155 C   0  0  0  0  0  0  0  0  0  0  0  0
    8.9783   -0.8174    0.9752 C   0  0  0  0  0  0  0  0  0  0  0  0
    7.8207   -0.7975    0.1950 C   0  0  0  0  0  0  0  0  0  0  0  0
    1.8958   -0.3413   -1.1854 C   0  0  0  0  0  0  0  0  0  0  0  0
   -2.8940    0.8972   -0.2341 C   0  0  0  0  0  0  0  0  0  0  0  0
   -4.1430    1.5338   -0.1023 C   0  0  0  0  0  0  0  0  0  0  0  0
   -5.0075    1.2698    1.4357 S   0  0  0  0  0  6  0  0  0  0  0  0
   -4.2697    1.9726    2.4628 O   0  0  0  0  0  0  0  0  0  0  0  0
   -6.4282    1.4729    1.2524 O   0  0  0  0  0  0  0  0  0  0  0  0
   -4.8079   -0.4110    1.6998 N   0  0  0  0  0  0  0  0  0  0  0  0
   -5.4942   -1.3004    0.6992 C   0  0  0  0  0  0  0  0  0  0  0  0
   -6.7332   -1.9679    1.3048 C   0  0  0  0  0  0  0  0  0  0  0  0
   -6.4208   -2.8072    2.4264 O   0  0  0  0  0  0  0  0  0  0  0  0
   -5.3085   -2.3322    3.2003 C   0  0  0  0  0  0  0  0  0  0  0  0
   -5.1158   -0.8158    3.1137 C   0  0  0  0  0  0  0  0  0  0  0  0
   -6.0886    3.7336   -1.9197 H   0  0  0  0  0  0  0  0  0  0  0  0
   -6.0375    3.6408   -0.1671 H   0  0  0  0  0  0  0  0  0  0  0  0
   -6.8087    2.3337   -1.1270 H   0  0  0  0  0  0  0  0  0  0  0  0
   -4.2980    2.9618   -3.1837 H   0  0  0  0  0  0  0  0  0  0  0  0
   -2.1720    1.8318   -3.4217 H   0  0  0  0  0  0  0  0  0  0  0  0
   -0.6555   -0.1765   -0.6352 H   0  0  0  0  0  0  0  0  0  0  0  0
    1.0359   -1.6829   -4.2037 H   0  0  0  0  0  0  0  0  0  0  0  0
    3.1515   -2.9179   -3.8232 H   0  0  0  0  0  0  0  0  0  0  0  0
    4.4795   -2.5089   -1.7633 H   0  0  0  0  0  0  0  0  0  0  0  0
    5.0627    1.9896   -0.2724 H   0  0  0  0  0  0  0  0  0  0  0  0
    4.6945    1.0947   -1.7718 H   0  0  0  0  0  0  0  0  0  0  0  0
    6.3575    1.4840   -1.3773 H   0  0  0  0  0  0  0  0  0  0  0  0
    5.8223    1.0395    2.2564 H   0  0  0  0  0  0  0  0  0  0  0  0
    7.8681    0.9900    3.6356 H   0  0  0  0  0  0  0  0  0  0  0  0
    9.8964   -0.1937    2.8220 H   0  0  0  0  0  0  0  0  0  0  0  0
    9.8673   -1.3303    0.6163 H   0  0  0  0  0  0  0  0  0  0  0  0
    7.8155   -1.2902   -0.7730 H   0  0  0  0  0  0  0  0  0  0  0  0
    1.5678    0.3995   -0.4598 H   0  0  0  0  0  0  0  0  0  0  0  0
   -2.5016    0.3255    0.6051 H   0  0  0  0  0  0  0  0  0  0  0  0
   -5.7744   -0.7489   -0.2033 H   0  0  0  0  0  0  0  0  0  0  0  0
   -4.7661   -2.0622    0.3958 H   0  0  0  0  0  0  0  0  0  0  0  0
   -7.4633   -1.2190    1.6345 H   0  0  0  0  0  0  0  0  0  0  0  0
   -7.2256   -2.5963    0.5553 H   0  0  0  0  0  0  0  0  0  0  0  0
   -5.4808   -2.6345    4.2379 H   0  0  0  0  0  0  0  0  0  0  0  0
   -4.4126   -2.8563    2.8484 H   0  0  0  0  0  0  0  0  0  0  0  0
   -4.2806   -0.5146    3.7555 H   0  0  0  0  0  0  0  0  0  0  0  0
   -6.0288   -0.3124    3.4540 H   0  0  0  0  0  0  0  0  0  0  0  0
  1  2  1  0
  2  3  2  0
  3  4  1  0
  4  5  2  0
  5  6  1  0
  6  7  1  0
  7  8  2  0
  7  9  1  0
  9 10  2  0
 10 11  1  0
 11 12  2  0
 12 13  1  0
 13 14  1  0
 14 15  2  0
 14 16  2  0
 14 17  1  0
 17 18  1  0
 17 19  1  0
 19 20  2  0
 20 21  1  0
 21 22  2  0
 22 23  1  0
 23 24  2  0
 13 25  2  0
  5 26  1  0
 26 27  2  0
 27 28  1  0
 28 29  2  0
 28 30  2  0
 28 31  1  0
 31 32  1  0
 32 33  1  0
 33 34  1  0
 34 35  1  0
 35 36  1  0
 27  2  1  0
 36 31  1  0
 25  9  1  0
 24 19  1  0
  1 37  1  0
  1 38  1  0
  1 39  1  0
  3 40  1  0
  4 41  1  0
  6 42  1  0
 10 43  1  0
 11 44  1  0
 12 45  1  0
 18 46  1  0
 18 47  1  0
 18 48  1  0
 20 49  1  0
 21 50  1  0
 22 51  1  0
 23 52  1  0
 24 53  1  0
 25 54  1  0
 26 55  1  0
 32 56  1  0
 32 57  1  0
 33 58  1  0
 33 59  1  0
 35 60  1  0
 35 61  1  0
 36 62  1  0
 36 63  1  0
M  END
$$$$
