
     RDKit          3D

 33 34  0  0  0  0  0  0  0  0999 V2000
   -2.8442    2.2048    1.2962 C   0  0  0  0  0  0  0  0  0  0  0  0
   -1.7043    1.1967    1.2077 C   0  0  0  0  0  0  0  0  0  0  0  0
   -1.4766    0.7988   -0.1911 N   0  0  0  0  0  0  0  0  0  0  0  0
   -2.4673   -0.1018   -0.8130 C   0  0  0  0  0  0  0  0  0  0  0  0
   -2.4359   -1.5263   -0.2749 C   0  0  0  0  0  0  0  0  0  0  0  0
   -0.1336    0.4909   -0.5495 C   0  0  0  0  0  0  0  0  0  0  0  0
    0.2578    0.9176   -1.8366 C   0  0  0  0  0  0  0  0  0  0  0  0
    1.5407    0.6967   -2.3069 C   0  0  0  0  0  0  0  0  0  0  0  0
    2.4443    0.0372   -1.4759 C   0  0  0  0  0  0  0  0  0  0  0  0
    3.7807   -0.1617   -2.0060 N   0  0  0  0  0  4  0  0  0  0  0  0
    3.8817   -0.8502   -3.0300 O   0  0  0  0  0  0  0  0  0  0  0  0
    4.7175    0.3850   -1.4090 O   0  0  0  0  0  1  0  0  0  0  0  0
    2.1039   -0.4340   -0.1826 C   0  0  0  0  0  0  0  0  0  0  0  0
    2.9904   -1.1433    0.6681 C   0  0  0  0  0  0  0  0  0  0  0  0
    2.5813   -1.5909    1.9151 C   0  0  0  0  0  0  0  0  0  0  0  0
    1.2875   -1.3255    2.2888 C   0  0  0  0  0  0  0  0  0  0  0  0
    0.4116   -0.6582    1.5108 N   0  0  0  0  0  0  0  0  0  0  0  0
    0.7885   -0.2017    0.2900 C   0  0  0  0  0  0  0  0  0  0  0  0
   -2.9385    2.5775    2.3213 H   0  0  0  0  0  0  0  0  0  0  0  0
   -3.8027    1.7574    1.0171 H   0  0  0  0  0  0  0  0  0  0  0  0
   -2.6647    3.0599    0.6361 H   0  0  0  0  0  0  0  0  0  0  0  0
   -1.9325    0.3361    1.8449 H   0  0  0  0  0  0  0  0  0  0  0  0
   -0.8158    1.6955    1.6156 H   0  0  0  0  0  0  0  0  0  0  0  0
   -3.4723    0.3078   -0.6634 H   0  0  0  0  0  0  0  0  0  0  0  0
   -2.3265   -0.1260   -1.9009 H   0  0  0  0  0  0  0  0  0  0  0  0
   -1.4794   -2.0161   -0.4807 H   0  0  0  0  0  0  0  0  0  0  0  0
   -3.2199   -2.1216   -0.7546 H   0  0  0  0  0  0  0  0  0  0  0  0
   -2.6092   -1.5576    0.8045 H   0  0  0  0  0  0  0  0  0  0  0  0
   -0.4568    1.4511   -2.4609 H   0  0  0  0  0  0  0  0  0  0  0  0
    1.8249    1.0415   -3.2981 H   0  0  0  0  0  0  0  0  0  0  0  0
    4.0145   -1.3584    0.3683 H   0  0  0  0  0  0  0  0  0  0  0  0
    3.2546   -2.1315    2.5703 H   0  0  0  0  0  0  0  0  0  0  0  0
    0.9001   -1.6494    3.2503 H   0  0  0  0  0  0  0  0  0  0  0  0
  1  2  1  0
  2  3  1  0
  3  4  1  0
  4  5  1  0
  3  6  1  0
  6  7  2  0
  7  8  1  0
  8  9  2  0
  9 10  1  0
 10 11  2  0
 10 12  1  0
  9 13  1  0
 13 14  2  0
 14 15  1  0
 15 16  2  0
 16 17  1  0
 17 18  2  0
 18  6  1  0
 18 13  1  0
  1 19  1  0
  1 20  1  0
  1 21  1  0
  2 22  1  0
  2 23  1  0
  4 24  1  0
  4 25  1  0
  5 26  1  0
  5 27  1  0
  5 28  1  0
  7 29  1  0
  8 30  1  0
 14 31  1  0
 15 32  1  0
 16 33  1  0
M  CHG  2  10   1  12  -1
M  END
$$$$
