
     RDKit          3D

 55 58  0  0  0  0  0  0  0  0999 V2000
    4.1760   -2.8464   -1.0342 C   0  0  0  0  0  0  0  0  0  0  0  0
    4.2011   -2.2164    0.2611 N   0  0  0  0  0  0  0  0  0  0  0  0
    5.2968   -2.0529    1.0793 C   0  0  0  0  0  0  0  0  0  0  0  0
    6.6942   -2.4709    0.7544 C   0  0  0  0  0  0  0  0  0  0  0  0
    7.2976   -1.7282   -0.4189 C   0  0  0  0  0  0  0  0  0  0  0  0
    7.3606   -0.3257   -0.4208 C   0  0  0  0  0  0  0  0  0  0  0  0
    7.9212    0.3584   -1.4998 C   0  0  0  0  0  0  0  0  0  0  0  0
    8.4303   -0.3512   -2.5859 C   0  0  0  0  0  0  0  0  0  0  0  0
    8.3867   -1.7441   -2.5905 C   0  0  0  0  0  0  0  0  0  0  0  0
    7.8289   -2.4308   -1.5103 C   0  0  0  0  0  0  0  0  0  0  0  0
    4.9085   -1.4634    2.1943 N   0  0  0  0  0  0  0  0  0  0  0  0
    3.5632   -1.2074    2.1011 N   0  0  0  0  0  0  0  0  0  0  0  0
    3.1529   -1.6614    0.9412 C   0  0  0  0  0  0  0  0  0  0  0  0
    1.5452   -1.5516    0.3233 S   0  0  0  0  0  0  0  0  0  0  0  0
    0.6275   -1.3485    1.8784 C   0  0  0  0  0  0  0  0  0  0  0  0
   -0.8557   -1.2396    1.5640 C   0  0  0  0  0  0  0  0  0  0  0  0
   -1.5440   -2.2460    1.4212 O   0  0  0  0  0  0  0  0  0  0  0  0
   -1.2899    0.0731    1.4574 N   0  0  0  0  0  0  0  0  0  0  0  0
   -2.5899    0.5262    1.1513 C   0  0  0  0  0  0  0  0  0  0  0  0
   -2.8026    1.9056    1.1385 C   0  0  0  0  0  0  0  0  0  0  0  0
   -4.0665    2.4320    0.8362 C   0  0  0  0  0  0  0  0  0  0  0  0
   -5.1569    1.6067    0.5219 C   0  0  0  0  0  0  0  0  0  0  0  0
   -6.4042    2.1813    0.2308 N   0  0  0  0  0  0  0  0  0  0  0  0
   -6.3844    3.1170   -0.9220 C   0  0  0  0  0  0  0  0  0  0  0  0
   -7.7198    3.8742   -1.0088 C   0  0  0  0  0  0  0  0  0  0  0  0
   -8.8367    2.9744   -1.0919 O   0  0  0  0  0  0  0  0  0  0  0  0
   -8.8703    2.1295    0.0694 C   0  0  0  0  0  0  0  0  0  0  0  0
   -7.5874    1.2927    0.1917 C   0  0  0  0  0  0  0  0  0  0  0  0
   -4.9270    0.2254    0.5576 C   0  0  0  0  0  0  0  0  0  0  0  0
   -3.6643   -0.3093    0.8633 C   0  0  0  0  0  0  0  0  0  0  0  0
    4.9610   -3.6030   -1.0914 H   0  0  0  0  0  0  0  0  0  0  0  0
    4.3315   -2.0773   -1.7955 H   0  0  0  0  0  0  0  0  0  0  0  0
    3.2176   -3.3452   -1.1894 H   0  0  0  0  0  0  0  0  0  0  0  0
    6.7081   -3.5532    0.5735 H   0  0  0  0  0  0  0  0  0  0  0  0
    7.3362   -2.3028    1.6286 H   0  0  0  0  0  0  0  0  0  0  0  0
    6.9704    0.2415    0.4233 H   0  0  0  0  0  0  0  0  0  0  0  0
    7.9630    1.4449   -1.4911 H   0  0  0  0  0  0  0  0  0  0  0  0
    8.8679    0.1814   -3.4267 H   0  0  0  0  0  0  0  0  0  0  0  0
    8.7929   -2.2965   -3.4343 H   0  0  0  0  0  0  0  0  0  0  0  0
    7.8176   -3.5181   -1.5297 H   0  0  0  0  0  0  0  0  0  0  0  0
    0.9681   -0.4573    2.4169 H   0  0  0  0  0  0  0  0  0  0  0  0
    0.7790   -2.2165    2.5288 H   0  0  0  0  0  0  0  0  0  0  0  0
   -0.5970    0.7967    1.6054 H   0  0  0  0  0  0  0  0  0  0  0  0
   -1.9993    2.5983    1.3744 H   0  0  0  0  0  0  0  0  0  0  0  0
   -4.1980    3.5111    0.8785 H   0  0  0  0  0  0  0  0  0  0  0  0
   -5.5809    3.8564   -0.8422 H   0  0  0  0  0  0  0  0  0  0  0  0
   -6.2319    2.5424   -1.8450 H   0  0  0  0  0  0  0  0  0  0  0  0
   -7.8554    4.5307   -0.1399 H   0  0  0  0  0  0  0  0  0  0  0  0
   -7.7325    4.5014   -1.9057 H   0  0  0  0  0  0  0  0  0  0  0  0
   -9.0223    2.7523    0.9594 H   0  0  0  0  0  0  0  0  0  0  0  0
   -9.7369    1.4677   -0.0285 H   0  0  0  0  0  0  0  0  0  0  0  0
   -7.5177    0.6235   -0.6747 H   0  0  0  0  0  0  0  0  0  0  0  0
   -7.6515    0.6927    1.1061 H   0  0  0  0  0  0  0  0  0  0  0  0
   -5.7181   -0.4837    0.3315 H   0  0  0  0  0  0  0  0  0  0  0  0
   -3.5626   -1.3899    0.8562 H   0  0  0  0  0  0  0  0  0  0  0  0
  1  2  1  0
  2  3  1  0
  3  4  1  0
  4  5  1  0
  5  6  2  0
  6  7  1  0
  7  8  2  0
  8  9  1  0
  9 10  2  0
  3 11  2  0
 11 12  1  0
 12 13  2  0
 13 14  1  0
 14 15  1  0
 15 16  1  0
 16 17  2  0
 16 18  1  0
 18 19  1  0
 19 20  2  0
 20 21  1  0
 21 22  2  0
 22 23  1  0
 23 24  1  0
 24 25  1  0
 25 26  1  0
 26 27  1  0
 27 28  1  0
 22 29  1  0
 29 30  2  0
 13  2  1  0
 30 19  1  0
 10  5  1  0
 28 23  1  0
  1 31  1  0
  1 32  1  0
  1 33  1  0
  4 34  1  0
  4 35  1  0
  6 36  1  0
  7 37  1  0
  8 38  1  0
  9 39  1  0
 10 40  1  0
 15 41  1  0
 15 42  1  0
 18 43  1  0
 20 44  1  0
 21 45  1  0
 24 46  1  0
 24 47  1  0
 25 48  1  0
 25 49  1  0
 27 50  1  0
 27 51  1  0
 28 52  1  0
 28 53  1  0
 29 54  1  0
 30 55  1  0
M  END
$$$$
