
     RDKit          3D

 58 62  0  0  0  0  0  0  0  0999 V2000
   -0.8764    2.6173   -0.1129 O   0  0  0  0  0  0  0  0  0  0  0  0
   -0.7474    2.0653    0.9775 C   0  0  0  0  0  0  0  0  0  0  0  0
   -1.8238    2.2351    2.0405 C   0  0  0  0  0  0  0  0  0  0  0  0
   -2.3324    0.6715    2.8122 S   0  0  0  0  0  0  0  0  0  0  0  0
   -2.6956   -0.2395    1.3483 C   0  0  0  0  0  0  0  0  0  0  0  0
   -1.7105   -0.9539    0.9135 N   0  0  0  0  0  0  0  0  0  0  0  0
   -1.8384   -1.5760   -0.3289 C   0  0  0  0  0  0  0  0  0  0  0  0
   -0.7632   -2.3184   -0.8230 C   0  0  0  0  0  0  0  0  0  0  0  0
   -0.8378   -2.9298   -2.0765 C   0  0  0  0  0  0  0  0  0  0  0  0
   -1.9915   -2.8000   -2.8484 C   0  0  0  0  0  0  0  0  0  0  0  0
   -3.0683   -2.0561   -2.3668 C   0  0  0  0  0  0  0  0  0  0  0  0
   -2.9821   -1.4451   -1.1096 C   0  0  0  0  0  0  0  0  0  0  0  0
   -4.1035   -0.6544   -0.5675 C   0  0  0  0  0  0  0  0  0  0  0  0
   -5.1348   -0.5767   -1.2357 O   0  0  0  0  0  0  0  0  0  0  0  0
   -3.9144   -0.0809    0.6959 N   0  0  0  0  0  0  0  0  0  0  0  0
   -5.0394    0.5771    1.2898 C   0  0  0  0  0  0  0  0  0  0  0  0
   -5.7180    1.5899    0.5931 C   0  0  0  0  0  0  0  0  0  0  0  0
   -6.8204    2.2267    1.1701 C   0  0  0  0  0  0  0  0  0  0  0  0
   -7.2555    1.8424    2.4346 C   0  0  0  0  0  0  0  0  0  0  0  0
   -8.3136    2.4539    2.9815 F   0  0  0  0  0  0  0  0  0  0  0  0
   -6.6193    0.8262    3.1319 C   0  0  0  0  0  0  0  0  0  0  0  0
   -5.5232    0.1957    2.5520 C   0  0  0  0  0  0  0  0  0  0  0  0
   -4.9674   -0.8355    3.2058 F   0  0  0  0  0  0  0  0  0  0  0  0
    0.3338    1.3117    1.3967 N   0  0  0  0  0  0  0  0  0  0  0  0
    1.4859    0.9752    0.6602 C   0  0  0  0  0  0  0  0  0  0  0  0
    1.7936    1.4891   -0.5931 C   0  0  0  0  0  0  0  0  0  0  0  0
    2.9673    1.0936   -1.2564 C   0  0  0  0  0  0  0  0  0  0  0  0
    3.8744    0.1802   -0.6997 C   0  0  0  0  0  0  0  0  0  0  0  0
    5.0287   -0.2010   -1.3575 N   0  0  0  0  0  0  0  0  0  0  0  0
    5.7665   -1.4243   -1.0045 C   0  0  0  0  0  0  0  0  0  0  0  0
    6.5228   -1.9595   -2.2331 C   0  0  0  0  0  0  0  0  0  0  0  0
    7.4656   -1.0339   -2.7920 O   0  0  0  0  0  0  0  0  0  0  0  0
    7.1033    0.3386   -2.5822 C   0  0  0  0  0  0  0  0  0  0  0  0
    5.5868    0.5789   -2.4743 C   0  0  0  0  0  0  0  0  0  0  0  0
    3.5415   -0.3207    0.5659 C   0  0  0  0  0  0  0  0  0  0  0  0
    2.3718    0.0665    1.2370 C   0  0  0  0  0  0  0  0  0  0  0  0
   -1.4445    2.9104    2.8129 H   0  0  0  0  0  0  0  0  0  0  0  0
   -2.6998    2.7042    1.5829 H   0  0  0  0  0  0  0  0  0  0  0  0
    0.1445   -2.4083   -0.2309 H   0  0  0  0  0  0  0  0  0  0  0  0
    0.0090   -3.5002   -2.4511 H   0  0  0  0  0  0  0  0  0  0  0  0
   -2.0500   -3.2731   -3.8254 H   0  0  0  0  0  0  0  0  0  0  0  0
   -3.9677   -1.9521   -2.9696 H   0  0  0  0  0  0  0  0  0  0  0  0
   -5.3925    1.8952   -0.4000 H   0  0  0  0  0  0  0  0  0  0  0  0
   -7.3461    3.0132    0.6358 H   0  0  0  0  0  0  0  0  0  0  0  0
   -6.9813    0.5161    4.1059 H   0  0  0  0  0  0  0  0  0  0  0  0
    0.2027    0.8063    2.2676 H   0  0  0  0  0  0  0  0  0  0  0  0
    1.1451    2.1990   -1.0949 H   0  0  0  0  0  0  0  0  0  0  0  0
    3.1400    1.5120   -2.2438 H   0  0  0  0  0  0  0  0  0  0  0  0
    5.0891   -2.2139   -0.6592 H   0  0  0  0  0  0  0  0  0  0  0  0
    6.4756   -1.1914   -0.2018 H   0  0  0  0  0  0  0  0  0  0  0  0
    7.0729   -2.8681   -1.9690 H   0  0  0  0  0  0  0  0  0  0  0  0
    5.8143   -2.2269   -3.0262 H   0  0  0  0  0  0  0  0  0  0  0  0
    7.6058    0.6757   -1.6665 H   0  0  0  0  0  0  0  0  0  0  0  0
    7.5182    0.9185   -3.4138 H   0  0  0  0  0  0  0  0  0  0  0  0
    5.4286    1.6532   -2.3264 H   0  0  0  0  0  0  0  0  0  0  0  0
    5.0931    0.2721   -3.4041 H   0  0  0  0  0  0  0  0  0  0  0  0
    4.2039   -1.0131    1.0771 H   0  0  0  0  0  0  0  0  0  0  0  0
    2.1739   -0.3582    2.2173 H   0  0  0  0  0  0  0  0  0  0  0  0
  1  2  2  0
  2  3  1  0
  3  4  1  0
  4  5  1  0
  5  6  2  0
  6  7  1  0
  7  8  2  0
  8  9  1  0
  9 10  2  0
 10 11  1  0
 11 12  2  0
 12 13  1  0
 13 14  2  0
 13 15  1  0
 15 16  1  0
 16 17  2  0
 17 18  1  0
 18 19  2  0
 19 20  1  0
 19 21  1  0
 21 22  2  0
 22 23  1  0
  2 24  1  0
 24 25  1  0
 25 26  2  0
 26 27  1  0
 27 28  2  0
 28 29  1  0
 29 30  1  0
 30 31  1  0
 31 32  1  0
 32 33  1  0
 33 34  1  0
 28 35  1  0
 35 36  2  0
 15  5  1  0
 22 16  1  0
 36 25  1  0
 12  7  1  0
 34 29  1  0
  3 37  1  0
  3 38  1  0
  8 39  1  0
  9 40  1  0
 10 41  1  0
 11 42  1  0
 17 43  1  0
 18 44  1  0
 21 45  1  0
 24 46  1  0
 26 47  1  0
 27 48  1  0
 30 49  1  0
 30 50  1  0
 31 51  1  0
 31 52  1  0
 33 53  1  0
 33 54  1  0
 34 55  1  0
 34 56  1  0
 35 57  1  0
 36 58  1  0
M  END
$$$$
