
     RDKit          3D

 42 44  0  0  0  0  0  0  0  0999 V2000
    3.5009   -2.9201    1.6901 C   0  0  0  0  0  0  0  0  0  0  0  0
    4.3885   -2.2007    0.8425 O   0  0  0  0  0  0  0  0  0  0  0  0
    3.8862   -1.1000    0.2040 C   0  0  0  0  0  0  0  0  0  0  0  0
    4.7803   -0.4708   -0.6670 C   0  0  0  0  0  0  0  0  0  0  0  0
    4.4150    0.6738   -1.3806 C   0  0  0  0  0  0  0  0  0  0  0  0
    5.3951    1.1852   -2.1859 O   0  0  0  0  0  0  0  0  0  0  0  0
    5.0946    2.3917   -2.8776 C   0  0  0  0  0  0  0  0  0  0  0  0
    3.1294    1.1871   -1.2294 C   0  0  0  0  0  0  0  0  0  0  0  0
    2.2169    0.5561   -0.3705 C   0  0  0  0  0  0  0  0  0  0  0  0
    0.8494    1.1453   -0.2445 C   0  0  0  0  0  0  0  0  0  0  0  0
    0.7354    2.3557   -0.3940 O   0  0  0  0  0  0  0  0  0  0  0  0
   -0.1515    0.2253   -0.0055 N   0  0  0  0  0  0  0  0  0  0  0  0
   -1.4994    0.4729    0.2155 C   0  0  0  0  0  0  0  0  0  0  0  0
   -2.1152    2.0681    0.2891 S   0  0  0  0  0  0  0  0  0  0  0  0
   -3.6484    1.4932    0.5920 C   0  0  0  0  0  0  0  0  0  0  0  0
   -3.7378    0.1293    0.6420 C   0  0  0  0  0  0  0  0  0  0  0  0
   -2.4809   -0.5065    0.4122 C   0  0  0  0  0  0  0  0  0  0  0  0
   -2.1601   -1.9321    0.3897 C   0  0  0  0  0  0  0  0  0  0  0  0
   -3.2115   -2.7992    0.3256 N   0  0  0  0  0  0  0  0  0  0  0  0
   -1.0071   -2.3595    0.3900 O   0  0  0  0  0  0  0  0  0  0  0  0
   -5.1340   -0.2840    0.9475 C   0  0  0  0  0  0  0  0  0  0  0  0
   -5.7906    1.0503    1.4193 C   0  0  0  0  0  0  0  0  0  0  0  0
   -4.9239    2.2044    0.8362 C   0  0  0  0  0  0  0  0  0  0  0  0
    2.6032   -0.5784    0.3605 C   0  0  0  0  0  0  0  0  0  0  0  0
    3.1876   -2.3070    2.5414 H   0  0  0  0  0  0  0  0  0  0  0  0
    2.6363   -3.2945    1.1319 H   0  0  0  0  0  0  0  0  0  0  0  0
    4.0429   -3.7850    2.0844 H   0  0  0  0  0  0  0  0  0  0  0  0
    5.7834   -0.8751   -0.7859 H   0  0  0  0  0  0  0  0  0  0  0  0
    4.2787    2.2425   -3.5925 H   0  0  0  0  0  0  0  0  0  0  0  0
    5.9844    2.6821   -3.4444 H   0  0  0  0  0  0  0  0  0  0  0  0
    4.8658    3.2026   -2.1782 H   0  0  0  0  0  0  0  0  0  0  0  0
    2.8047    2.0733   -1.7669 H   0  0  0  0  0  0  0  0  0  0  0  0
    0.0841   -0.7653   -0.0205 H   0  0  0  0  0  0  0  0  0  0  0  0
   -2.9780   -3.7706    0.1703 H   0  0  0  0  0  0  0  0  0  0  0  0
   -4.1300   -2.4900    0.0490 H   0  0  0  0  0  0  0  0  0  0  0  0
   -5.1909   -1.0448    1.7308 H   0  0  0  0  0  0  0  0  0  0  0  0
   -5.6306   -0.6514    0.0432 H   0  0  0  0  0  0  0  0  0  0  0  0
   -5.7551    1.0960    2.5160 H   0  0  0  0  0  0  0  0  0  0  0  0
   -6.8409    1.1256    1.1213 H   0  0  0  0  0  0  0  0  0  0  0  0
   -4.8333    3.0305    1.5466 H   0  0  0  0  0  0  0  0  0  0  0  0
   -5.3515    2.5703   -0.1029 H   0  0  0  0  0  0  0  0  0  0  0  0
    1.9080   -1.0260    1.0619 H   0  0  0  0  0  0  0  0  0  0  0  0
  1  2  1  0
  2  3  1  0
  3  4  2  0
  4  5  1  0
  5  6  1  0
  6  7  1  0
  5  8  2  0
  8  9  1  0
  9 10  1  0
 10 11  2  0
 10 12  1  0
 12 13  1  0
 13 14  1  0
 14 15  1  0
 15 16  2  0
 16 17  1  0
 17 18  1  0
 18 19  1  0
 18 20  2  0
 16 21  1  0
 21 22  1  0
 22 23  1  0
  9 24  2  0
 24  3  1  0
 17 13  2  0
 23 15  1  0
  1 25  1  0
  1 26  1  0
  1 27  1  0
  4 28  1  0
  7 29  1  0
  7 30  1  0
  7 31  1  0
  8 32  1  0
 12 33  1  0
 19 34  1  0
 19 35  1  0
 21 36  1  0
 21 37  1  0
 22 38  1  0
 22 39  1  0
 23 40  1  0
 23 41  1  0
 24 42  1  0
M  END
$$$$
