
     RDKit          3D

 44 46  0  0  0  0  0  0  0  0999 V2000
   -4.8715   -0.2202    1.8548 C   0  0  0  0  0  0  0  0  0  0  0  0
   -3.3718   -0.2026    1.9797 C   0  0  0  0  0  0  0  0  0  0  0  0
   -2.6667    0.9611    1.6254 C   0  0  0  0  0  0  0  0  0  0  0  0
   -1.2646    1.0462    1.7162 C   0  0  0  0  0  0  0  0  0  0  0  0
   -0.6146    2.3468    1.3395 C   0  0  0  0  0  0  0  0  0  0  0  0
   -0.5665   -0.0843    2.1680 C   0  0  0  0  0  0  0  0  0  0  0  0
    1.2162   -0.1586    2.3324 S   0  0  0  0  0  6  0  0  0  0  0  0
    1.4998   -0.9509    3.5125 O   0  0  0  0  0  0  0  0  0  0  0  0
    1.7913    1.1584    2.1761 O   0  0  0  0  0  0  0  0  0  0  0  0
    1.6728   -1.1202    1.0162 N   0  0  0  0  0  0  0  0  0  0  0  0
    1.3050   -0.7194   -0.2974 C   0  0  0  0  0  0  0  0  0  0  0  0
    0.3190   -1.4368   -0.9764 C   0  0  0  0  0  0  0  0  0  0  0  0
   -0.0790   -1.0336   -2.2506 C   0  0  0  0  0  0  0  0  0  0  0  0
    0.5124    0.0816   -2.8364 C   0  0  0  0  0  0  0  0  0  0  0  0
    0.0715    0.4308   -4.0844 O   0  0  0  0  0  0  0  0  0  0  0  0
    1.5074    0.8062   -2.1677 C   0  0  0  0  0  0  0  0  0  0  0  0
    2.2450    2.2529   -2.9043 S   0  0  0  0  0  0  0  0  0  0  0  0
    3.6544    1.5831   -3.6868 C   0  0  0  0  0  0  0  0  0  0  0  0
    4.1467    0.3271   -3.4514 N   0  0  0  0  0  0  0  0  0  0  0  0
    5.1946    0.2641   -4.2379 C   0  0  0  0  0  0  0  0  0  0  0  0
    5.3180    1.4319   -4.9197 N   0  0  0  0  0  0  0  0  0  0  0  0
    4.3387    2.2893   -4.5935 N   0  0  0  0  0  0  0  0  0  0  0  0
    1.8952    0.4001   -0.8859 C   0  0  0  0  0  0  0  0  0  0  0  0
   -1.2662   -1.2474    2.5420 C   0  0  0  0  0  0  0  0  0  0  0  0
   -2.6625   -1.3220    2.4437 C   0  0  0  0  0  0  0  0  0  0  0  0
   -3.3668   -2.5845    2.8593 C   0  0  0  0  0  0  0  0  0  0  0  0
   -5.1807   -0.9630    1.1127 H   0  0  0  0  0  0  0  0  0  0  0  0
   -5.3325   -0.4532    2.8201 H   0  0  0  0  0  0  0  0  0  0  0  0
   -5.2606    0.7517    1.5329 H   0  0  0  0  0  0  0  0  0  0  0  0
   -3.2277    1.8268    1.2726 H   0  0  0  0  0  0  0  0  0  0  0  0
   -1.3505    3.0711    0.9712 H   0  0  0  0  0  0  0  0  0  0  0  0
    0.1092    2.2046    0.5340 H   0  0  0  0  0  0  0  0  0  0  0  0
   -0.1343    2.8005    2.2119 H   0  0  0  0  0  0  0  0  0  0  0  0
    1.6326   -2.1126    1.2396 H   0  0  0  0  0  0  0  0  0  0  0  0
   -0.1565   -2.3017   -0.5230 H   0  0  0  0  0  0  0  0  0  0  0  0
   -0.8503   -1.5818   -2.7844 H   0  0  0  0  0  0  0  0  0  0  0  0
    0.5866    1.2110   -4.3607 H   0  0  0  0  0  0  0  0  0  0  0  0
    5.8745   -0.5684   -4.3500 H   0  0  0  0  0  0  0  0  0  0  0  0
    6.0172    1.7080   -5.6001 H   0  0  0  0  0  0  0  0  0  0  0  0
    2.6649    0.9499   -0.3487 H   0  0  0  0  0  0  0  0  0  0  0  0
   -0.7144   -2.1070    2.9209 H   0  0  0  0  0  0  0  0  0  0  0  0
   -3.9832   -2.3995    3.7446 H   0  0  0  0  0  0  0  0  0  0  0  0
   -3.9975   -2.9566    2.0456 H   0  0  0  0  0  0  0  0  0  0  0  0
   -2.6548   -3.3789    3.1080 H   0  0  0  0  0  0  0  0  0  0  0  0
  1  2  1  0
  2  3  2  0
  3  4  1  0
  4  5  1  0
  4  6  2  0
  6  7  1  0
  7  8  2  0
  7  9  2  0
  7 10  1  0
 10 11  1  0
 11 12  2  0
 12 13  1  0
 13 14  2  0
 14 15  1  0
 14 16  1  0
 16 17  1  0
 17 18  1  0
 18 19  1  0
 19 20  2  0
 20 21  1  0
 21 22  1  0
 16 23  2  0
  6 24  1  0
 24 25  2  0
 25 26  1  0
 25  2  1  0
 23 11  1  0
 22 18  2  0
  1 27  1  0
  1 28  1  0
  1 29  1  0
  3 30  1  0
  5 31  1  0
  5 32  1  0
  5 33  1  0
 10 34  1  0
 12 35  1  0
 13 36  1  0
 15 37  1  0
 20 38  1  0
 21 39  1  0
 23 40  1  0
 24 41  1  0
 26 42  1  0
 26 43  1  0
 26 44  1  0
M  END
$$$$
