
     RDKit          3D

 36 37  0  0  0  0  0  0  0  0999 V2000
   -1.2940   -1.8822   -0.0587 O   0  0  0  0  0  0  0  0  0  0  0  0
   -1.0885   -1.6212   -1.2347 C   0  0  0  0  0  0  0  0  0  0  0  0
   -2.1777   -1.4786   -2.2274 C   0  0  0  0  0  0  0  0  0  0  0  0
   -3.2312   -0.6670   -2.0512 C   0  0  0  0  0  0  0  0  0  0  0  0
   -3.4354    0.2138   -0.8939 C   0  0  0  0  0  0  0  0  0  0  0  0
   -4.3079   -0.2174    0.1144 C   0  0  0  0  0  0  0  0  0  0  0  0
   -4.5455    0.5798    1.2359 C   0  0  0  0  0  0  0  0  0  0  0  0
   -3.9103    1.8137    1.3648 C   0  0  0  0  0  0  0  0  0  0  0  0
   -3.0312    2.2504    0.3747 C   0  0  0  0  0  0  0  0  0  0  0  0
   -2.7910    1.4550   -0.7497 C   0  0  0  0  0  0  0  0  0  0  0  0
   -1.6884    2.0547   -1.9408 Cl  0  0  0  0  0  0  0  0  0  0  0  0
    0.1494   -1.4115   -1.7939 N   0  0  0  0  0  0  0  0  0  0  0  0
    1.3397   -1.3397   -0.9669 C   0  0  0  0  0  0  0  0  0  0  0  0
    1.4713    0.0130   -0.2630 C   0  0  0  0  0  0  0  0  0  0  0  0
    2.7478    0.1030    0.5348 C   0  0  0  0  0  0  0  0  0  0  0  0
    2.7782   -0.3223    1.8697 C   0  0  0  0  0  0  0  0  0  0  0  0
    3.9629   -0.2561    2.6048 C   0  0  0  0  0  0  0  0  0  0  0  0
    5.1279    0.2314    2.0120 C   0  0  0  0  0  0  0  0  0  0  0  0
    5.1086    0.6505    0.6825 C   0  0  0  0  0  0  0  0  0  0  0  0
    3.9246    0.5845   -0.0551 C   0  0  0  0  0  0  0  0  0  0  0  0
   -2.0787   -2.0688   -3.1311 H   0  0  0  0  0  0  0  0  0  0  0  0
   -4.0015   -0.6075   -2.8152 H   0  0  0  0  0  0  0  0  0  0  0  0
   -4.7901   -1.1904    0.0400 H   0  0  0  0  0  0  0  0  0  0  0  0
   -5.2177    0.2279    2.0144 H   0  0  0  0  0  0  0  0  0  0  0  0
   -4.0900    2.4307    2.2420 H   0  0  0  0  0  0  0  0  0  0  0  0
   -2.5303    3.2073    0.4879 H   0  0  0  0  0  0  0  0  0  0  0  0
    0.2002   -1.0367   -2.7317 H   0  0  0  0  0  0  0  0  0  0  0  0
    2.1956   -1.5211   -1.6261 H   0  0  0  0  0  0  0  0  0  0  0  0
    1.3062   -2.1520   -0.2324 H   0  0  0  0  0  0  0  0  0  0  0  0
    1.4413    0.8260   -1.0008 H   0  0  0  0  0  0  0  0  0  0  0  0
    0.6116    0.1885    0.3974 H   0  0  0  0  0  0  0  0  0  0  0  0
    1.8762   -0.7049    2.3447 H   0  0  0  0  0  0  0  0  0  0  0  0
    3.9758   -0.5845    3.6410 H   0  0  0  0  0  0  0  0  0  0  0  0
    6.0498    0.2855    2.5861 H   0  0  0  0  0  0  0  0  0  0  0  0
    6.0162    1.0307    0.2200 H   0  0  0  0  0  0  0  0  0  0  0  0
    3.9263    0.9159   -1.0912 H   0  0  0  0  0  0  0  0  0  0  0  0
  1  2  2  0
  2  3  1  0
  3  4  2  3
  4  5  1  0
  5  6  2  0
  6  7  1  0
  7  8  2  0
  8  9  1  0
  9 10  2  0
 10 11  1  0
  2 12  1  0
 12 13  1  0
 13 14  1  0
 14 15  1  0
 15 16  2  0
 16 17  1  0
 17 18  2  0
 18 19  1  0
 19 20  2  0
 10  5  1  0
 20 15  1  0
  3 21  1  0
  4 22  1  0
  6 23  1  0
  7 24  1  0
  8 25  1  0
  9 26  1  0
 12 27  1  0
 13 28  1  0
 13 29  1  0
 14 30  1  0
 14 31  1  0
 16 32  1  0
 17 33  1  0
 18 34  1  0
 19 35  1  0
 20 36  1  0
M  END
$$$$
