
     RDKit          3D

 62 67  0  0  0  0  0  0  0  0999 V2000
   -1.2217   -2.9023   -1.4632 C   0  0  0  0  0  0  0  0  0  0  0  0
   -2.2899   -2.1906   -0.8527 O   0  0  0  0  0  0  0  0  0  0  0  0
   -2.6705   -2.5998    0.4014 C   0  0  0  0  0  0  0  0  0  0  0  0
   -2.3785   -3.8626    0.9316 C   0  0  0  0  0  0  0  0  0  0  0  0
   -2.8212   -4.2160    2.2092 C   0  0  0  0  0  0  0  0  0  0  0  0
   -3.5643   -3.3161    2.9668 C   0  0  0  0  0  0  0  0  0  0  0  0
   -3.8688   -2.0592    2.4467 C   0  0  0  0  0  0  0  0  0  0  0  0
   -3.4310   -1.6893    1.1632 C   0  0  0  0  0  0  0  0  0  0  0  0
   -3.7513   -0.3439    0.6626 C   0  0  0  0  0  0  0  0  0  0  0  0
   -5.3584   -0.0207    0.1788 S   0  0  0  0  0  0  0  0  0  0  0  0
   -4.9965    1.5994   -0.2687 C   0  0  0  0  0  0  0  0  0  0  0  0
   -5.9057    2.5440   -0.7947 C   0  0  0  0  0  0  0  0  0  0  0  0
   -5.4001    3.7948   -1.0820 C   0  0  0  0  0  0  0  0  0  0  0  0
   -4.0878    4.1184   -0.8721 C   0  0  0  0  0  0  0  0  0  0  0  0
   -3.1819    3.2110   -0.3590 C   0  0  0  0  0  0  0  0  0  0  0  0
   -3.6435    1.9017   -0.0465 C   0  0  0  0  0  0  0  0  0  0  0  0
   -2.9335    0.7620    0.4946 C   0  0  0  0  0  0  0  0  0  0  0  0
   -1.5138    0.7237    0.8295 C   0  0  0  0  0  0  0  0  0  0  0  0
   -0.5561    0.7380   -0.1898 C   0  0  0  0  0  0  0  0  0  0  0  0
    0.8087    0.7048    0.1182 C   0  0  0  0  0  0  0  0  0  0  0  0
    1.2262    0.6630    1.4487 C   0  0  0  0  0  0  0  0  0  0  0  0
    2.5183    0.6192    1.8924 O   0  0  0  0  0  0  0  0  0  0  0  0
    3.5758    0.7611    0.9391 C   0  0  0  0  0  0  0  0  0  0  0  0
    3.9874   -0.6088    0.3729 C   0  0  0  0  0  0  0  0  0  0  0  0
    4.9823   -0.5335   -0.7138 N   0  0  0  0  0  0  0  0  0  0  0  0
    6.2986   -0.0588   -0.2310 C   0  0  0  0  0  0  0  0  0  0  0  0
    7.3533   -0.0828   -1.3509 C   0  0  0  0  0  0  0  0  0  0  0  0
    7.4954   -1.3967   -1.9050 O   0  0  0  0  0  0  0  0  0  0  0  0
    6.2379   -1.8456   -2.4252 C   0  0  0  0  0  0  0  0  0  0  0  0
    5.1632   -1.8697   -1.3275 C   0  0  0  0  0  0  0  0  0  0  0  0
    0.2660    0.6480    2.4648 C   0  0  0  0  0  0  0  0  0  0  0  0
   -1.0974    0.6818    2.1619 C   0  0  0  0  0  0  0  0  0  0  0  0
   -3.8049    5.4026   -1.2213 O   0  0  0  0  0  0  0  0  0  0  0  0
   -5.0978    5.8508   -1.6762 C   0  0  0  0  0  0  0  0  0  0  0  0
   -6.1168    4.8339   -1.5916 O   0  0  0  0  0  0  0  0  0  0  0  0
   -1.5508   -3.8938   -1.7907 H   0  0  0  0  0  0  0  0  0  0  0  0
   -0.9147   -2.3443   -2.3532 H   0  0  0  0  0  0  0  0  0  0  0  0
   -0.3530   -2.9720   -0.7990 H   0  0  0  0  0  0  0  0  0  0  0  0
   -1.8179   -4.6005    0.3677 H   0  0  0  0  0  0  0  0  0  0  0  0
   -2.5886   -5.1995    2.6101 H   0  0  0  0  0  0  0  0  0  0  0  0
   -3.9091   -3.5919    3.9600 H   0  0  0  0  0  0  0  0  0  0  0  0
   -4.4481   -1.3619    3.0480 H   0  0  0  0  0  0  0  0  0  0  0  0
   -6.9475    2.2984   -0.9637 H   0  0  0  0  0  0  0  0  0  0  0  0
   -2.1471    3.4950   -0.1982 H   0  0  0  0  0  0  0  0  0  0  0  0
   -0.8688    0.7604   -1.2316 H   0  0  0  0  0  0  0  0  0  0  0  0
    1.5118    0.7028   -0.7078 H   0  0  0  0  0  0  0  0  0  0  0  0
    4.4173    1.1910    1.4936 H   0  0  0  0  0  0  0  0  0  0  0  0
    3.3314    1.4883    0.1560 H   0  0  0  0  0  0  0  0  0  0  0  0
    3.0853   -1.1035   -0.0079 H   0  0  0  0  0  0  0  0  0  0  0  0
    4.3426   -1.2464    1.1939 H   0  0  0  0  0  0  0  0  0  0  0  0
    6.6440   -0.6944    0.5949 H   0  0  0  0  0  0  0  0  0  0  0  0
    6.2225    0.9690    0.1387 H   0  0  0  0  0  0  0  0  0  0  0  0
    8.3273    0.2122   -0.9471 H   0  0  0  0  0  0  0  0  0  0  0  0
    7.0981    0.6223   -2.1515 H   0  0  0  0  0  0  0  0  0  0  0  0
    6.3857   -2.8556   -2.8210 H   0  0  0  0  0  0  0  0  0  0  0  0
    5.9398   -1.2011   -3.2610 H   0  0  0  0  0  0  0  0  0  0  0  0
    4.2190   -2.2076   -1.7697 H   0  0  0  0  0  0  0  0  0  0  0  0
    5.4578   -2.5958   -0.5584 H   0  0  0  0  0  0  0  0  0  0  0  0
    0.5827    0.6113    3.5044 H   0  0  0  0  0  0  0  0  0  0  0  0
   -1.8249    0.6734    2.9694 H   0  0  0  0  0  0  0  0  0  0  0  0
   -5.4063    6.7084   -1.0671 H   0  0  0  0  0  0  0  0  0  0  0  0
   -5.0101    6.1740   -2.7199 H   0  0  0  0  0  0  0  0  0  0  0  0
  1  2  1  0
  2  3  1  0
  3  4  2  0
  4  5  1  0
  5  6  2  0
  6  7  1  0
  7  8  2  0
  8  9  1  0
  9 10  1  0
 10 11  1  0
 11 12  2  0
 12 13  1  0
 13 14  2  0
 14 15  1  0
 15 16  2  0
 16 17  1  0
 17 18  1  0
 18 19  2  0
 19 20  1  0
 20 21  2  0
 21 22  1  0
 22 23  1  0
 23 24  1  0
 24 25  1  0
 25 26  1  0
 26 27  1  0
 27 28  1  0
 28 29  1  0
 29 30  1  0
 21 31  1  0
 31 32  2  0
 14 33  1  0
 33 34  1  0
 34 35  1  0
  8  3  1  0
 17  9  2  0
 32 18  1  0
 16 11  1  0
 30 25  1  0
 35 13  1  0
  1 36  1  0
  1 37  1  0
  1 38  1  0
  4 39  1  0
  5 40  1  0
  6 41  1  0
  7 42  1  0
 12 43  1  0
 15 44  1  0
 19 45  1  0
 20 46  1  0
 23 47  1  0
 23 48  1  0
 24 49  1  0
 24 50  1  0
 26 51  1  0
 26 52  1  0
 27 53  1  0
 27 54  1  0
 29 55  1  0
 29 56  1  0
 30 57  1  0
 30 58  1  0
 31 59  1  0
 32 60  1  0
 34 61  1  0
 34 62  1  0
M  END
$$$$
