
     RDKit          3D

 57 60  0  0  0  0  0  0  0  0999 V2000
   -7.8514    2.0745    3.1069 C   0  0  0  0  0  0  0  0  0  0  0  0
   -7.5160    0.6011    2.9329 C   0  0  0  0  0  0  0  0  0  0  0  0
   -6.3523    0.3981    1.9976 C   0  0  0  0  0  0  0  0  0  0  0  0
   -6.5607    0.2538    0.6239 C   0  0  0  0  0  0  0  0  0  0  0  0
   -5.4761    0.0827   -0.2438 C   0  0  0  0  0  0  0  0  0  0  0  0
   -4.1494    0.0586    0.2248 C   0  0  0  0  0  0  0  0  0  0  0  0
   -3.0211   -0.1176   -0.7165 C   0  0  0  0  0  0  0  0  0  0  0  0
   -1.7495    0.3741   -0.4798 C   0  0  0  0  0  0  0  0  0  0  0  0
   -0.7548    0.1413   -1.4313 C   0  0  0  0  0  0  0  0  0  0  0  0
    0.6021    0.6278   -1.0888 C   0  0  0  0  0  0  0  0  0  0  0  0
    0.7383    1.8137   -0.8232 O   0  0  0  0  0  0  0  0  0  0  0  0
    1.5618   -0.3662   -1.0532 N   0  0  0  0  0  0  0  0  0  0  0  0
    2.9375   -0.2184   -0.7846 C   0  0  0  0  0  0  0  0  0  0  0  0
    3.7165   -1.3847   -0.7865 C   0  0  0  0  0  0  0  0  0  0  0  0
    5.0919   -1.3267   -0.5427 C   0  0  0  0  0  0  0  0  0  0  0  0
    5.6938   -0.0934   -0.2850 C   0  0  0  0  0  0  0  0  0  0  0  0
    7.4477   -0.0066   -0.0337 S   0  0  0  0  0  6  0  0  0  0  0  0
    7.9179    1.3177   -0.3673 O   0  0  0  0  0  0  0  0  0  0  0  0
    8.0303   -1.1767   -0.6609 O   0  0  0  0  0  0  0  0  0  0  0  0
    7.6214   -0.2638    1.5974 N   0  0  0  0  0  0  0  0  0  0  0  0
    7.1941    0.6090    2.6034 C   0  0  0  0  0  0  0  0  0  0  0  0
    7.5929    0.1837    3.9882 C   0  0  0  0  0  0  0  0  0  0  0  0
    6.5354    1.6153    2.3908 O   0  0  0  0  0  0  0  0  0  0  0  0
    4.9333    1.0762   -0.2951 C   0  0  0  0  0  0  0  0  0  0  0  0
    3.5565    1.0096   -0.5379 C   0  0  0  0  0  0  0  0  0  0  0  0
   -1.0377   -0.5301   -2.6398 C   0  0  0  0  0  0  0  0  0  0  0  0
   -0.1136   -0.7404   -3.6969 C   0  0  0  0  0  0  0  0  0  0  0  0
   -0.4853   -1.4278   -4.8504 C   0  0  0  0  0  0  0  0  0  0  0  0
   -1.7816   -1.9060   -4.9707 C   0  0  0  0  0  0  0  0  0  0  0  0
   -2.6995   -1.6812   -3.9422 C   0  0  0  0  0  0  0  0  0  0  0  0
   -2.3557   -0.9954   -2.7848 C   0  0  0  0  0  0  0  0  0  0  0  0
   -3.3044   -0.8043   -1.8528 N   0  0  0  0  0  0  0  0  0  0  0  0
   -3.9601    0.2038    1.6111 C   0  0  0  0  0  0  0  0  0  0  0  0
   -5.0423    0.3752    2.4839 C   0  0  0  0  0  0  0  0  0  0  0  0
   -8.1182    2.5370    2.1507 H   0  0  0  0  0  0  0  0  0  0  0  0
   -7.0030    2.6285    3.5228 H   0  0  0  0  0  0  0  0  0  0  0  0
   -8.6996    2.1915    3.7887 H   0  0  0  0  0  0  0  0  0  0  0  0
   -7.2873    0.1556    3.9089 H   0  0  0  0  0  0  0  0  0  0  0  0
   -8.3934    0.0634    2.5526 H   0  0  0  0  0  0  0  0  0  0  0  0
   -7.5678    0.2736    0.2137 H   0  0  0  0  0  0  0  0  0  0  0  0
   -5.6750   -0.0281   -1.3091 H   0  0  0  0  0  0  0  0  0  0  0  0
   -1.5157    0.9388    0.4171 H   0  0  0  0  0  0  0  0  0  0  0  0
    1.2424   -1.3120   -1.2275 H   0  0  0  0  0  0  0  0  0  0  0  0
    3.2658   -2.3539   -0.9862 H   0  0  0  0  0  0  0  0  0  0  0  0
    5.6811   -2.2406   -0.5666 H   0  0  0  0  0  0  0  0  0  0  0  0
    8.1371   -1.1103    1.8131 H   0  0  0  0  0  0  0  0  0  0  0  0
    7.1300   -0.7779    4.2261 H   0  0  0  0  0  0  0  0  0  0  0  0
    7.2579    0.9300    4.7143 H   0  0  0  0  0  0  0  0  0  0  0  0
    8.6813    0.0955    4.0489 H   0  0  0  0  0  0  0  0  0  0  0  0
    5.3977    2.0436   -0.1084 H   0  0  0  0  0  0  0  0  0  0  0  0
    2.9977    1.9412   -0.5329 H   0  0  0  0  0  0  0  0  0  0  0  0
    0.9006   -0.3485   -3.6405 H   0  0  0  0  0  0  0  0  0  0  0  0
    0.2316   -1.5784   -5.6540 H   0  0  0  0  0  0  0  0  0  0  0  0
   -2.0895   -2.4410   -5.8655 H   0  0  0  0  0  0  0  0  0  0  0  0
   -3.7190   -2.0463   -4.0507 H   0  0  0  0  0  0  0  0  0  0  0  0
   -2.9628    0.1732    2.0432 H   0  0  0  0  0  0  0  0  0  0  0  0
   -4.8516    0.4883    3.5490 H   0  0  0  0  0  0  0  0  0  0  0  0
  1  2  1  0
  2  3  1  0
  3  4  2  0
  4  5  1  0
  5  6  2  0
  6  7  1  0
  7  8  2  0
  8  9  1  0
  9 10  1  0
 10 11  2  0
 10 12  1  0
 12 13  1  0
 13 14  2  0
 14 15  1  0
 15 16  2  0
 16 17  1  0
 17 18  2  0
 17 19  2  0
 17 20  1  0
 20 21  1  0
 21 22  1  0
 21 23  2  0
 16 24  1  0
 24 25  2  0
  9 26  2  0
 26 27  1  0
 27 28  2  0
 28 29  1  0
 29 30  2  0
 30 31  1  0
 31 32  2  0
  6 33  1  0
 33 34  2  0
 34  3  1  0
 32  7  1  0
 25 13  1  0
 31 26  1  0
  1 35  1  0
  1 36  1  0
  1 37  1  0
  2 38  1  0
  2 39  1  0
  4 40  1  0
  5 41  1  0
  8 42  1  0
 12 43  1  0
 14 44  1  0
 15 45  1  0
 20 46  1  0
 22 47  1  0
 22 48  1  0
 22 49  1  0
 24 50  1  0
 25 51  1  0
 27 52  1  0
 28 53  1  0
 29 54  1  0
 30 55  1  0
 33 56  1  0
 34 57  1  0
M  END
$$$$
