
     RDKit          3D

 54 58  0  0  0  0  0  0  0  0999 V2000
    6.3080   -1.3897   -1.9317 F   0  0  0  0  0  0  0  0  0  0  0  0
    6.0601   -1.4452   -0.5938 C   0  0  0  0  0  0  0  0  0  0  0  0
    5.0940   -2.3900   -0.4240 F   0  0  0  0  0  0  0  0  0  0  0  0
    7.1866   -1.9756   -0.0356 F   0  0  0  0  0  0  0  0  0  0  0  0
    5.6750   -0.1001   -0.0139 C   0  0  0  0  0  0  0  0  0  0  0  0
    6.5389    0.5132    0.9151 C   0  0  0  0  0  0  0  0  0  0  0  0
    6.2328    1.7528    1.4761 C   0  0  0  0  0  0  0  0  0  0  0  0
    5.0586    2.4037    1.1177 C   0  0  0  0  0  0  0  0  0  0  0  0
    4.1909    1.8172    0.1980 C   0  0  0  0  0  0  0  0  0  0  0  0
    4.4840    0.5682   -0.3809 C   0  0  0  0  0  0  0  0  0  0  0  0
    3.4844   -0.0155   -1.3622 C   0  0  0  0  0  0  0  0  0  0  0  0
    2.3210   -0.7213   -0.6406 C   0  0  0  0  0  0  0  0  0  0  0  0
    1.3852   -1.3758   -1.5730 N   0  0  0  0  0  0  0  0  0  0  0  0
    0.5387   -0.4168   -2.3219 C   0  0  0  0  0  0  0  0  0  0  0  0
   -0.5501    0.2949   -1.4887 C   0  0  0  0  0  0  0  0  0  0  0  0
   -1.3972   -0.6829   -0.7750 N   0  0  0  0  0  0  0  0  0  0  0  0
   -2.5758   -0.2079   -0.2014 C   0  0  0  0  0  0  0  0  0  0  0  0
   -2.6769    1.0654    0.0876 N   0  0  0  0  0  0  0  0  0  0  0  0
   -3.8431    1.5702    0.6972 C   0  0  0  0  0  0  0  0  0  0  0  0
   -3.8967    2.9324    0.9988 C   0  0  0  0  0  0  0  0  0  0  0  0
   -5.0249    3.4838    1.6123 C   0  0  0  0  0  0  0  0  0  0  0  0
   -6.1150    2.6734    1.9318 C   0  0  0  0  0  0  0  0  0  0  0  0
   -6.0841    1.3094    1.6394 C   0  0  0  0  0  0  0  0  0  0  0  0
   -4.9485    0.7722    1.0260 C   0  0  0  0  0  0  0  0  0  0  0  0
   -4.8386   -0.5858    0.6861 N   0  0  0  0  0  0  0  0  0  0  0  0
   -5.7439   -1.6075    0.8504 C   0  0  0  0  0  0  0  0  0  0  0  0
   -5.2070   -2.7511    0.2990 C   0  0  0  0  0  0  0  0  0  0  0  0
   -3.9289   -2.4138   -0.2035 C   0  0  0  0  0  0  0  0  0  0  0  0
   -3.7061   -1.0777    0.0779 C   0  0  0  0  0  0  0  0  0  0  0  0
   -0.5980   -1.6404    0.0160 C   0  0  0  0  0  0  0  0  0  0  0  0
    0.4853   -2.3115   -0.8564 C   0  0  0  0  0  0  0  0  0  0  0  0
    7.4657    0.0212    1.2096 H   0  0  0  0  0  0  0  0  0  0  0  0
    6.9120    2.2094    2.1919 H   0  0  0  0  0  0  0  0  0  0  0  0
    4.8171    3.3702    1.5533 H   0  0  0  0  0  0  0  0  0  0  0  0
    3.2767    2.3450   -0.0695 H   0  0  0  0  0  0  0  0  0  0  0  0
    3.9790   -0.7097   -2.0501 H   0  0  0  0  0  0  0  0  0  0  0  0
    3.1138    0.8023   -1.9920 H   0  0  0  0  0  0  0  0  0  0  0  0
    1.8068   -0.0172    0.0241 H   0  0  0  0  0  0  0  0  0  0  0  0
    2.7588   -1.4874    0.0130 H   0  0  0  0  0  0  0  0  0  0  0  0
    1.1537    0.3300   -2.8345 H   0  0  0  0  0  0  0  0  0  0  0  0
    0.0428   -0.9775   -3.1261 H   0  0  0  0  0  0  0  0  0  0  0  0
   -1.1699    0.8860   -2.1742 H   0  0  0  0  0  0  0  0  0  0  0  0
   -0.0902    0.9890   -0.7751 H   0  0  0  0  0  0  0  0  0  0  0  0
   -3.0490    3.5662    0.7525 H   0  0  0  0  0  0  0  0  0  0  0  0
   -5.0508    4.5464    1.8401 H   0  0  0  0  0  0  0  0  0  0  0  0
   -6.9908    3.1073    2.4083 H   0  0  0  0  0  0  0  0  0  0  0  0
   -6.9445    0.6998    1.8943 H   0  0  0  0  0  0  0  0  0  0  0  0
   -6.7013   -1.4499    1.3251 H   0  0  0  0  0  0  0  0  0  0  0  0
   -5.6899   -3.7188    0.2544 H   0  0  0  0  0  0  0  0  0  0  0  0
   -3.2432   -3.0729   -0.7194 H   0  0  0  0  0  0  0  0  0  0  0  0
   -0.1364   -1.1174    0.8626 H   0  0  0  0  0  0  0  0  0  0  0  0
   -1.2303   -2.4277    0.4378 H   0  0  0  0  0  0  0  0  0  0  0  0
   -0.0130   -2.9371   -1.6092 H   0  0  0  0  0  0  0  0  0  0  0  0
    1.0739   -3.0053   -0.2436 H   0  0  0  0  0  0  0  0  0  0  0  0
  1  2  1  0
  2  3  1  0
  2  4  1  0
  2  5  1  0
  5  6  2  0
  6  7  1  0
  7  8  2  0
  8  9  1  0
  9 10  2  0
 10 11  1  0
 11 12  1  0
 12 13  1  0
 13 14  1  0
 14 15  1  0
 15 16  1  0
 16 17  1  0
 17 18  2  0
 18 19  1  0
 19 20  2  0
 20 21  1  0
 21 22  2  0
 22 23  1  0
 23 24  2  0
 24 25  1  0
 25 26  1  0
 26 27  2  0
 27 28  1  0
 28 29  2  0
 16 30  1  0
 30 31  1  0
 10  5  1  0
 31 13  1  0
 29 17  1  0
 24 19  1  0
 29 25  1  0
  6 32  1  0
  7 33  1  0
  8 34  1  0
  9 35  1  0
 11 36  1  0
 11 37  1  0
 12 38  1  0
 12 39  1  0
 14 40  1  0
 14 41  1  0
 15 42  1  0
 15 43  1  0
 20 44  1  0
 21 45  1  0
 22 46  1  0
 23 47  1  0
 26 48  1  0
 27 49  1  0
 28 50  1  0
 30 51  1  0
 30 52  1  0
 31 53  1  0
 31 54  1  0
M  END
$$$$
