
     RDKit          3D

 56 59  0  0  0  0  0  0  0  0999 V2000
   -2.0234   -3.4597    3.0325 C   0  0  0  0  0  0  0  0  0  0  0  0
   -2.9020   -3.0770    1.8496 C   0  0  0  0  0  0  0  0  0  0  0  0
   -2.0902   -2.8550    0.5622 C   0  0  0  0  0  0  0  0  0  0  0  0
   -3.0608   -2.6703   -0.6248 C   0  0  0  0  0  0  0  0  0  0  0  0
   -3.6181   -3.6395   -1.1323 O   0  0  0  0  0  0  0  0  0  0  0  0
   -3.3631   -1.3428   -0.8764 N   0  0  0  0  0  0  0  0  0  0  0  0
   -4.1958   -0.8057   -1.8775 C   0  0  0  0  0  0  0  0  0  0  0  0
   -4.5935    0.5266   -1.7041 C   0  0  0  0  0  0  0  0  0  0  0  0
   -5.4239    1.1390   -2.6403 C   0  0  0  0  0  0  0  0  0  0  0  0
   -5.8020    2.4094   -2.4483 F   0  0  0  0  0  0  0  0  0  0  0  0
   -5.8644    0.4576   -3.7670 C   0  0  0  0  0  0  0  0  0  0  0  0
   -5.4547   -0.8580   -3.9647 C   0  0  0  0  0  0  0  0  0  0  0  0
   -4.6222   -1.4807   -3.0303 C   0  0  0  0  0  0  0  0  0  0  0  0
   -4.1951   -2.7128   -3.3298 F   0  0  0  0  0  0  0  0  0  0  0  0
   -1.1584   -1.7104    0.6571 N   0  0  0  0  0  0  0  0  0  0  0  0
   -1.6478   -0.5282    1.2498 N   0  0  0  0  0  0  0  0  0  0  0  0
   -0.8883    0.5260    1.3795 C   0  0  0  0  0  0  0  0  0  0  0  0
   -1.4649    1.7379    2.0545 C   0  0  0  0  0  0  0  0  0  0  0  0
    0.4550    0.5001    0.8600 C   0  0  0  0  0  0  0  0  0  0  0  0
    1.4725    1.4360    0.7693 C   0  0  0  0  0  0  0  0  0  0  0  0
    1.4659    2.8879    1.0859 C   0  0  0  0  0  0  0  0  0  0  0  0
    2.5659    0.7446    0.2306 N   0  0  0  0  0  0  0  0  0  0  0  0
    3.9375    1.1254    0.1006 C   0  0  0  0  0  0  0  0  0  0  0  0
    4.5041    2.1609    0.8513 C   0  0  0  0  0  0  0  0  0  0  0  0
    5.8558    2.4928    0.6937 C   0  0  0  0  0  0  0  0  0  0  0  0
    6.6632    1.7968   -0.2113 C   0  0  0  0  0  0  0  0  0  0  0  0
    8.1182    2.1319   -0.3534 C   0  0  0  0  0  0  0  0  0  0  0  0
    6.1094    0.7360   -0.9323 C   0  0  0  0  0  0  0  0  0  0  0  0
    4.7613    0.4006   -0.7767 C   0  0  0  0  0  0  0  0  0  0  0  0
    2.1864   -0.4824   -0.2178 N   0  0  0  0  0  0  0  0  0  0  0  0
    0.9404   -0.6483    0.2277 C   0  0  0  0  0  0  0  0  0  0  0  0
    0.1227   -1.8441    0.0738 C   0  0  0  0  0  0  0  0  0  0  0  0
    0.5080   -2.8619   -0.4945 O   0  0  0  0  0  0  0  0  0  0  0  0
   -2.6431   -3.6575    3.9129 H   0  0  0  0  0  0  0  0  0  0  0  0
   -1.3238   -2.6584    3.2889 H   0  0  0  0  0  0  0  0  0  0  0  0
   -1.4464   -4.3641    2.8148 H   0  0  0  0  0  0  0  0  0  0  0  0
   -3.6304   -3.8811    1.6847 H   0  0  0  0  0  0  0  0  0  0  0  0
   -3.4880   -2.1856    2.1042 H   0  0  0  0  0  0  0  0  0  0  0  0
   -1.5123   -3.7618    0.3459 H   0  0  0  0  0  0  0  0  0  0  0  0
   -2.9940   -0.7028   -0.1751 H   0  0  0  0  0  0  0  0  0  0  0  0
   -4.2844    1.1017   -0.8374 H   0  0  0  0  0  0  0  0  0  0  0  0
   -6.5090    0.9546   -4.4848 H   0  0  0  0  0  0  0  0  0  0  0  0
   -5.7619   -1.4085   -4.8491 H   0  0  0  0  0  0  0  0  0  0  0  0
   -0.7661    2.1259    2.7999 H   0  0  0  0  0  0  0  0  0  0  0  0
   -2.4023    1.4817    2.5576 H   0  0  0  0  0  0  0  0  0  0  0  0
   -1.6732    2.5069    1.3060 H   0  0  0  0  0  0  0  0  0  0  0  0
    2.1282    3.4550    0.4253 H   0  0  0  0  0  0  0  0  0  0  0  0
    0.4709    3.3163    0.9363 H   0  0  0  0  0  0  0  0  0  0  0  0
    1.7512    3.0595    2.1278 H   0  0  0  0  0  0  0  0  0  0  0  0
    3.9485    2.7034    1.6061 H   0  0  0  0  0  0  0  0  0  0  0  0
    6.2790    3.2943    1.2963 H   0  0  0  0  0  0  0  0  0  0  0  0
    8.4538    1.9741   -1.3839 H   0  0  0  0  0  0  0  0  0  0  0  0
    8.3044    3.1830   -0.1090 H   0  0  0  0  0  0  0  0  0  0  0  0
    8.7144    1.5035    0.3154 H   0  0  0  0  0  0  0  0  0  0  0  0
    6.7220    0.1577   -1.6209 H   0  0  0  0  0  0  0  0  0  0  0  0
    4.3652   -0.4307   -1.3590 H   0  0  0  0  0  0  0  0  0  0  0  0
  1  2  1  0
  2  3  1  0
  3  4  1  0
  4  5  2  0
  4  6  1  0
  6  7  1  0
  7  8  2  0
  8  9  1  0
  9 10  1  0
  9 11  2  0
 11 12  1  0
 12 13  2  0
 13 14  1  0
  3 15  1  0
 15 16  1  0
 16 17  2  0
 17 18  1  0
 17 19  1  0
 19 20  2  0
 20 21  1  0
 20 22  1  0
 22 23  1  0
 23 24  2  0
 24 25  1  0
 25 26  2  0
 26 27  1  0
 26 28  1  0
 28 29  2  0
 22 30  1  0
 30 31  2  0
 31 32  1  0
 32 33  2  0
 13  7  1  0
 32 15  1  0
 31 19  1  0
 29 23  1  0
  1 34  1  0
  1 35  1  0
  1 36  1  0
  2 37  1  0
  2 38  1  0
  3 39  1  0
  6 40  1  0
  8 41  1  0
 11 42  1  0
 12 43  1  0
 18 44  1  0
 18 45  1  0
 18 46  1  0
 21 47  1  0
 21 48  1  0
 21 49  1  0
 24 50  1  0
 25 51  1  0
 27 52  1  0
 27 53  1  0
 27 54  1  0
 28 55  1  0
 29 56  1  0
M  END
$$$$
