
     RDKit          3D

 38 40  0  0  0  0  0  0  0  0999 V2000
   -7.0258    1.3149   -2.4623 C   0  0  0  0  0  0  0  0  0  0  0  0
   -6.6038    0.0414   -1.7565 C   0  0  0  0  0  0  0  0  0  0  0  0
   -6.2576    0.3705   -0.4115 O   0  0  0  0  0  0  0  0  0  0  0  0
   -5.8512   -0.7705    0.3521 C   0  0  0  0  0  0  0  0  0  0  0  0
   -4.4188   -1.0779    0.0664 C   0  0  0  0  0  0  0  0  0  0  0  0
   -3.9984   -2.0714   -0.6925 N   0  0  0  0  0  0  0  0  0  0  0  0
   -2.6216   -2.1072   -0.7770 N   0  0  0  0  0  0  0  0  0  0  0  0
   -2.0555   -1.1489   -0.0766 C   0  0  0  0  0  0  0  0  0  0  0  0
   -0.6916   -1.0040   -0.0263 N   0  0  0  0  0  0  0  0  0  0  0  0
    0.0182   -0.0583    0.6900 C   0  0  0  0  0  0  0  0  0  0  0  0
   -0.4564    0.8088    1.4151 O   0  0  0  0  0  0  0  0  0  0  0  0
    1.5307   -0.2166    0.4759 C   0  0  0  0  0  0  0  0  0  0  0  0
    2.2644    0.7457    1.2166 O   0  0  0  0  0  0  0  0  0  0  0  0
    3.6284    0.7047    1.1191 C   0  0  0  0  0  0  0  0  0  0  0  0
    4.2931    1.6750    1.8964 C   0  0  0  0  0  0  0  0  0  0  0  0
    5.6886    1.7636    1.9064 C   0  0  0  0  0  0  0  0  0  0  0  0
    6.3868    0.8687    1.1287 C   0  0  0  0  0  0  0  0  0  0  0  0
    5.7437   -0.0789    0.3680 C   0  0  0  0  0  0  0  0  0  0  0  0
    4.3672   -0.1891    0.3393 C   0  0  0  0  0  0  0  0  0  0  0  0
    6.6134   -0.8632   -0.3254 O   0  0  0  0  0  0  0  0  0  0  0  0
    7.8763   -0.2983    0.0865 C   0  0  0  0  0  0  0  0  0  0  0  0
    7.7389    0.8007    1.0104 O   0  0  0  0  0  0  0  0  0  0  0  0
   -3.1508   -0.1317    0.7363 S   0  0  0  0  0  0  0  0  0  0  0  0
   -7.3077    1.1117   -3.4991 H   0  0  0  0  0  0  0  0  0  0  0  0
   -6.2117    2.0472   -2.4546 H   0  0  0  0  0  0  0  0  0  0  0  0
   -7.8753    1.7771   -1.9487 H   0  0  0  0  0  0  0  0  0  0  0  0
   -5.7450   -0.3981   -2.2745 H   0  0  0  0  0  0  0  0  0  0  0  0
   -7.4321   -0.6754   -1.7600 H   0  0  0  0  0  0  0  0  0  0  0  0
   -6.4960   -1.6304    0.1382 H   0  0  0  0  0  0  0  0  0  0  0  0
   -5.9803   -0.5221    1.4110 H   0  0  0  0  0  0  0  0  0  0  0  0
   -0.2020   -1.6930   -0.5805 H   0  0  0  0  0  0  0  0  0  0  0  0
    1.8026   -1.2281    0.8023 H   0  0  0  0  0  0  0  0  0  0  0  0
    1.7232   -0.0915   -0.5966 H   0  0  0  0  0  0  0  0  0  0  0  0
    3.7078    2.3672    2.4991 H   0  0  0  0  0  0  0  0  0  0  0  0
    6.2005    2.5089    2.5042 H   0  0  0  0  0  0  0  0  0  0  0  0
    3.9164   -0.9530   -0.2794 H   0  0  0  0  0  0  0  0  0  0  0  0
    8.4086    0.0565   -0.8036 H   0  0  0  0  0  0  0  0  0  0  0  0
    8.4729   -1.0846    0.5632 H   0  0  0  0  0  0  0  0  0  0  0  0
  1  2  1  0
  2  3  1  0
  3  4  1  0
  4  5  1  0
  5  6  2  0
  6  7  1  0
  7  8  2  0
  8  9  1  0
  9 10  1  0
 10 11  2  0
 10 12  1  0
 12 13  1  0
 13 14  1  0
 14 15  2  0
 15 16  1  0
 16 17  2  0
 17 18  1  0
 18 19  2  0
 18 20  1  0
 20 21  1  0
 21 22  1  0
  8 23  1  0
 23  5  1  0
 19 14  1  0
 22 17  1  0
  1 24  1  0
  1 25  1  0
  1 26  1  0
  2 27  1  0
  2 28  1  0
  4 29  1  0
  4 30  1  0
  9 31  1  0
 12 32  1  0
 12 33  1  0
 15 34  1  0
 16 35  1  0
 19 36  1  0
 21 37  1  0
 21 38  1  0
M  END
$$$$
