
     RDKit          3D

 33 35  0  0  0  0  0  0  0  0999 V2000
    2.7375   -2.6318   -0.6710 O   0  0  0  0  0  0  0  0  0  0  0  0
    3.5048   -1.5908   -0.2172 C   0  0  0  0  0  0  0  0  0  0  0  0
    4.8894   -1.7503   -0.1223 C   0  0  0  0  0  0  0  0  0  0  0  0
    5.6764   -0.6989    0.3452 C   0  0  0  0  0  0  0  0  0  0  0  0
    5.0798    0.5023    0.7217 C   0  0  0  0  0  0  0  0  0  0  0  0
    3.6940    0.6579    0.6245 C   0  0  0  0  0  0  0  0  0  0  0  0
    2.8859   -0.3812    0.1382 C   0  0  0  0  0  0  0  0  0  0  0  0
    1.4208   -0.2386    0.0604 C   0  0  0  0  0  0  0  0  0  0  0  0
    0.7834    0.8910   -0.2921 C   0  0  0  0  0  0  0  0  0  0  0  0
   -0.6797    1.0183   -0.3787 C   0  0  0  0  0  0  0  0  0  0  0  0
   -1.2470    2.2167   -0.7954 C   0  0  0  0  0  0  0  0  0  0  0  0
   -2.6345    2.3154   -0.8654 C   0  0  0  0  0  0  0  0  0  0  0  0
   -3.4267    1.2161   -0.5181 C   0  0  0  0  0  0  0  0  0  0  0  0
   -4.8335    1.2556   -0.5693 C   0  0  0  0  0  0  0  0  0  0  0  0
   -5.5864    0.1347   -0.2142 C   0  0  0  0  0  0  0  0  0  0  0  0
   -4.9422   -1.0291    0.1924 C   0  0  0  0  0  0  0  0  0  0  0  0
   -3.5516   -1.0541    0.2380 C   0  0  0  0  0  0  0  0  0  0  0  0
   -2.9376   -2.2163    0.6411 O   0  0  0  0  0  0  0  0  0  0  0  0
   -2.7675    0.0428   -0.1071 C   0  0  0  0  0  0  0  0  0  0  0  0
   -1.4239   -0.0591   -0.0354 N   0  0  0  0  0  0  0  0  0  0  0  0
    3.3167   -3.3785   -0.8909 H   0  0  0  0  0  0  0  0  0  0  0  0
    5.3680   -2.6832   -0.4034 H   0  0  0  0  0  0  0  0  0  0  0  0
    6.7540   -0.8182    0.4237 H   0  0  0  0  0  0  0  0  0  0  0  0
    5.6909    1.3183    1.0993 H   0  0  0  0  0  0  0  0  0  0  0  0
    3.2520    1.5968    0.9484 H   0  0  0  0  0  0  0  0  0  0  0  0
    0.8577   -1.1428    0.2826 H   0  0  0  0  0  0  0  0  0  0  0  0
    1.3496    1.7796   -0.5517 H   0  0  0  0  0  0  0  0  0  0  0  0
   -0.6301    3.0673   -1.0655 H   0  0  0  0  0  0  0  0  0  0  0  0
   -3.0886    3.2476   -1.1908 H   0  0  0  0  0  0  0  0  0  0  0  0
   -5.3483    2.1599   -0.8862 H   0  0  0  0  0  0  0  0  0  0  0  0
   -6.6721    0.1695   -0.2553 H   0  0  0  0  0  0  0  0  0  0  0  0
   -5.5110   -1.9110    0.4715 H   0  0  0  0  0  0  0  0  0  0  0  0
   -1.9800   -2.0059    0.5887 H   0  0  0  0  0  0  0  0  0  0  0  0
  1  2  1  0
  2  3  2  0
  3  4  1  0
  4  5  2  0
  5  6  1  0
  6  7  2  0
  7  8  1  0
  8  9  2  0
  9 10  1  0
 10 11  2  0
 11 12  1  0
 12 13  2  0
 13 14  1  0
 14 15  2  0
 15 16  1  0
 16 17  2  0
 17 18  1  0
 17 19  1  0
 19 20  2  0
  7  2  1  0
 20 10  1  0
 19 13  1  0
  1 21  1  0
  3 22  1  0
  4 23  1  0
  5 24  1  0
  6 25  1  0
  8 26  1  0
  9 27  1  0
 11 28  1  0
 12 29  1  0
 14 30  1  0
 15 31  1  0
 16 32  1  0
 18 33  1  0
M  END
$$$$
