
     RDKit          3D

 64 69  0  0  0  0  0  0  0  0999 V2000
   -8.9355    3.0452    1.3658 C   0  0  0  0  0  0  0  0  0  0  0  0
   -8.5501    2.0201    0.4585 O   0  0  0  0  0  0  0  0  0  0  0  0
   -7.2191    1.7137    0.4027 C   0  0  0  0  0  0  0  0  0  0  0  0
   -6.2040    2.3215    1.1379 C   0  0  0  0  0  0  0  0  0  0  0  0
   -4.8733    1.9096    0.9818 C   0  0  0  0  0  0  0  0  0  0  0  0
   -4.5392    0.8854    0.0844 C   0  0  0  0  0  0  0  0  0  0  0  0
   -3.1768    0.4625   -0.0689 N   0  0  0  0  0  0  0  0  0  0  0  0
   -2.0230    1.2450    0.0978 C   0  0  0  0  0  0  0  0  0  0  0  0
   -2.0510    2.5915    0.3005 N   0  0  0  0  0  0  0  0  0  0  0  0
   -0.8964    0.4409   -0.0353 C   0  0  0  0  0  0  0  0  0  0  0  0
    0.4936    0.8964    0.0717 C   0  0  0  0  0  0  0  0  0  0  0  0
    0.7490    2.0716    0.3003 O   0  0  0  0  0  0  0  0  0  0  0  0
    1.4188   -0.1178   -0.0770 N   0  0  0  0  0  0  0  0  0  0  0  0
    2.7853   -0.0344   -0.1126 C   0  0  0  0  0  0  0  0  0  0  0  0
    3.6374   -1.0766   -0.0608 C   0  0  0  0  0  0  0  0  0  0  0  0
    3.2845   -2.5238    0.0905 C   0  0  0  0  0  0  0  0  0  0  0  0
    4.9860   -0.7008   -0.1453 N   0  0  0  0  0  0  0  0  0  0  0  0
    5.7998   -1.3234   -1.2073 C   0  0  0  0  0  0  0  0  0  0  0  0
    4.9803    0.7218   -0.1996 N   0  0  0  0  0  0  0  0  0  0  0  0
    6.1179    1.4864    0.1735 C   0  0  0  0  0  0  0  0  0  0  0  0
    6.1552    2.8737   -0.0213 C   0  0  0  0  0  0  0  0  0  0  0  0
    7.2783    3.6250    0.3434 C   0  0  0  0  0  0  0  0  0  0  0  0
    8.3820    3.0011    0.9156 C   0  0  0  0  0  0  0  0  0  0  0  0
    8.3609    1.6269    1.1303 C   0  0  0  0  0  0  0  0  0  0  0  0
    7.2374    0.8783    0.7642 C   0  0  0  0  0  0  0  0  0  0  0  0
    3.6540    1.1849   -0.2702 C   0  0  0  0  0  0  0  0  0  0  0  0
    3.2636    2.3279   -0.4311 O   0  0  0  0  0  0  0  0  0  0  0  0
   -1.3717   -0.8557   -0.3364 C   0  0  0  0  0  0  0  0  0  0  0  0
   -0.6607   -1.9963   -0.5600 N   0  0  0  0  0  0  0  0  0  0  0  0
   -1.4131   -3.0771   -0.8265 C   0  0  0  0  0  0  0  0  0  0  0  0
   -0.7715   -4.2850   -1.0724 C   0  0  0  0  0  0  0  0  0  0  0  0
   -1.4876   -5.4494   -1.3540 C   0  0  0  0  0  0  0  0  0  0  0  0
   -2.8739   -5.4069   -1.3897 C   0  0  0  0  0  0  0  0  0  0  0  0
   -3.5307   -4.2005   -1.1449 C   0  0  0  0  0  0  0  0  0  0  0  0
   -2.8300   -3.0344   -0.8657 C   0  0  0  0  0  0  0  0  0  0  0  0
   -3.5283   -1.9122   -0.6430 N   0  0  0  0  0  0  0  0  0  0  0  0
   -2.7583   -0.8277   -0.3880 C   0  0  0  0  0  0  0  0  0  0  0  0
   -5.5649    0.2685   -0.6408 C   0  0  0  0  0  0  0  0  0  0  0  0
   -6.8911    0.6872   -0.4835 C   0  0  0  0  0  0  0  0  0  0  0  0
  -10.0214    3.1613    1.2968 H   0  0  0  0  0  0  0  0  0  0  0  0
   -8.4803    4.0037    1.0950 H   0  0  0  0  0  0  0  0  0  0  0  0
   -8.6956    2.7702    2.3983 H   0  0  0  0  0  0  0  0  0  0  0  0
   -6.4093    3.1122    1.8518 H   0  0  0  0  0  0  0  0  0  0  0  0
   -4.1215    2.3760    1.6149 H   0  0  0  0  0  0  0  0  0  0  0  0
   -1.1448    3.0771    0.2607 H   0  0  0  0  0  0  0  0  0  0  0  0
   -2.7817    3.1516   -0.1362 H   0  0  0  0  0  0  0  0  0  0  0  0
    1.0238   -1.0520   -0.1411 H   0  0  0  0  0  0  0  0  0  0  0  0
    2.2561   -2.6731    0.4302 H   0  0  0  0  0  0  0  0  0  0  0  0
    3.9360   -2.9964    0.8332 H   0  0  0  0  0  0  0  0  0  0  0  0
    3.4072   -3.0501   -0.8611 H   0  0  0  0  0  0  0  0  0  0  0  0
    6.8192   -0.9283   -1.2317 H   0  0  0  0  0  0  0  0  0  0  0  0
    5.3480   -1.1559   -2.1921 H   0  0  0  0  0  0  0  0  0  0  0  0
    5.8787   -2.4028   -1.0383 H   0  0  0  0  0  0  0  0  0  0  0  0
    5.3202    3.4007   -0.4760 H   0  0  0  0  0  0  0  0  0  0  0  0
    7.2829    4.6995    0.1774 H   0  0  0  0  0  0  0  0  0  0  0  0
    9.2515    3.5867    1.2017 H   0  0  0  0  0  0  0  0  0  0  0  0
    9.2125    1.1351    1.5926 H   0  0  0  0  0  0  0  0  0  0  0  0
    7.2387   -0.1861    0.9819 H   0  0  0  0  0  0  0  0  0  0  0  0
    0.3146   -4.3241   -1.0452 H   0  0  0  0  0  0  0  0  0  0  0  0
   -0.9621   -6.3824   -1.5429 H   0  0  0  0  0  0  0  0  0  0  0  0
   -3.4474   -6.3050   -1.6061 H   0  0  0  0  0  0  0  0  0  0  0  0
   -4.6178   -4.1680   -1.1719 H   0  0  0  0  0  0  0  0  0  0  0  0
   -5.3651   -0.5199   -1.3612 H   0  0  0  0  0  0  0  0  0  0  0  0
   -7.6760    0.2065   -1.0630 H   0  0  0  0  0  0  0  0  0  0  0  0
  1  2  1  0
  2  3  1  0
  3  4  2  0
  4  5  1  0
  5  6  2  0
  6  7  1  0
  7  8  1  0
  8  9  1  0
  8 10  2  0
 10 11  1  0
 11 12  2  0
 11 13  1  0
 13 14  1  0
 14 15  2  0
 15 16  1  0
 15 17  1  0
 17 18  1  0
 17 19  1  0
 19 20  1  0
 20 21  2  0
 21 22  1  0
 22 23  2  0
 23 24  1  0
 24 25  2  0
 19 26  1  0
 26 27  2  0
 10 28  1  0
 28 29  2  0
 29 30  1  0
 30 31  2  0
 31 32  1  0
 32 33  2  0
 33 34  1  0
 34 35  2  0
 35 36  1  0
 36 37  2  0
  6 38  1  0
 38 39  2  0
 39  3  1  0
 37  7  1  0
 26 14  1  0
 37 28  1  0
 25 20  1  0
 35 30  1  0
  1 40  1  0
  1 41  1  0
  1 42  1  0
  4 43  1  0
  5 44  1  0
  9 45  1  0
  9 46  1  0
 13 47  1  0
 16 48  1  0
 16 49  1  0
 16 50  1  0
 18 51  1  0
 18 52  1  0
 18 53  1  0
 21 54  1  0
 22 55  1  0
 23 56  1  0
 24 57  1  0
 25 58  1  0
 31 59  1  0
 32 60  1  0
 33 61  1  0
 34 62  1  0
 38 63  1  0
 39 64  1  0
M  END
$$$$
