
     RDKit          3D

 34 35  0  0  0  0  0  0  0  0999 V2000
   -3.4751    1.3126    1.7605 C   0  0  0  0  0  0  0  0  0  0  0  0
   -3.2669    0.1488    0.8284 C   0  0  0  0  0  0  0  0  0  0  0  0
   -4.0888   -0.9827    0.9749 C   0  0  0  0  0  0  0  0  0  0  0  0
   -3.9387   -2.0882    0.1401 C   0  0  0  0  0  0  0  0  0  0  0  0
   -2.9763   -2.0703   -0.8618 C   0  0  0  0  0  0  0  0  0  0  0  0
   -2.1551   -0.9520   -1.0219 C   0  0  0  0  0  0  0  0  0  0  0  0
   -2.2724    0.1562   -0.1723 C   0  0  0  0  0  0  0  0  0  0  0  0
   -1.4746    1.3126   -0.3307 N   0  0  0  0  0  0  0  0  0  0  0  0
   -0.2857    1.5188   -0.9748 C   0  0  0  0  0  0  0  0  0  0  0  0
    0.1128    3.0988   -1.3507 S   0  0  0  0  0  0  0  0  0  0  0  0
    0.4868    0.4200   -1.2065 N   0  0  0  0  0  0  0  0  0  0  0  0
    1.8177    0.3733   -1.7925 C   0  0  0  0  0  0  0  0  0  0  0  0
    2.8603    0.1132   -0.7354 C   0  0  0  0  0  0  0  0  0  0  0  0
    3.4694    1.1780   -0.0573 C   0  0  0  0  0  0  0  0  0  0  0  0
    4.4171    0.9351    0.9382 C   0  0  0  0  0  0  0  0  0  0  0  0
    4.7610   -0.3737    1.2705 C   0  0  0  0  0  0  0  0  0  0  0  0
    4.1557   -1.4412    0.6104 C   0  0  0  0  0  0  0  0  0  0  0  0
    3.2074   -1.2003   -0.3853 C   0  0  0  0  0  0  0  0  0  0  0  0
   -2.5377    1.5735    2.2625 H   0  0  0  0  0  0  0  0  0  0  0  0
   -3.8489    2.1790    1.2058 H   0  0  0  0  0  0  0  0  0  0  0  0
   -4.2057    1.0777    2.5420 H   0  0  0  0  0  0  0  0  0  0  0  0
   -4.8563   -1.0086    1.7459 H   0  0  0  0  0  0  0  0  0  0  0  0
   -4.5829   -2.9550    0.2631 H   0  0  0  0  0  0  0  0  0  0  0  0
   -2.8752   -2.9181   -1.5345 H   0  0  0  0  0  0  0  0  0  0  0  0
   -1.4650   -0.9499   -1.8604 H   0  0  0  0  0  0  0  0  0  0  0  0
   -1.8649    2.1724    0.0375 H   0  0  0  0  0  0  0  0  0  0  0  0
    0.2672   -0.3694   -0.6140 H   0  0  0  0  0  0  0  0  0  0  0  0
    1.8138   -0.4499   -2.5164 H   0  0  0  0  0  0  0  0  0  0  0  0
    2.0509    1.2827   -2.3536 H   0  0  0  0  0  0  0  0  0  0  0  0
    3.2058    2.2055   -0.3000 H   0  0  0  0  0  0  0  0  0  0  0  0
    4.8840    1.7689    1.4563 H   0  0  0  0  0  0  0  0  0  0  0  0
    5.4983   -0.5611    2.0466 H   0  0  0  0  0  0  0  0  0  0  0  0
    4.4212   -2.4620    0.8728 H   0  0  0  0  0  0  0  0  0  0  0  0
    2.7409   -2.0448   -0.8875 H   0  0  0  0  0  0  0  0  0  0  0  0
  1  2  1  0
  2  3  2  0
  3  4  1  0
  4  5  2  0
  5  6  1  0
  6  7  2  0
  7  8  1  0
  8  9  1  0
  9 10  2  0
  9 11  1  0
 11 12  1  0
 12 13  1  0
 13 14  2  0
 14 15  1  0
 15 16  2  0
 16 17  1  0
 17 18  2  0
  7  2  1  0
 18 13  1  0
  1 19  1  0
  1 20  1  0
  1 21  1  0
  3 22  1  0
  4 23  1  0
  5 24  1  0
  6 25  1  0
  8 26  1  0
 11 27  1  0
 12 28  1  0
 12 29  1  0
 14 30  1  0
 15 31  1  0
 16 32  1  0
 17 33  1  0
 18 34  1  0
M  END
$$$$
