
     RDKit          3D

 24 25  0  0  0  0  0  0  0  0999 V2000
    4.6519    0.4818    0.7615 C   0  0  0  0  0  0  0  0  0  0  0  0
    2.8488    0.6038    0.7929 S   0  0  0  0  0  0  0  0  0  0  0  0
    2.4169   -0.5025   -0.4692 C   0  0  0  0  0  0  0  0  0  0  0  0
    3.2961   -1.2060   -1.1502 N   0  0  0  0  0  0  0  0  0  0  0  0
    2.5814   -2.0400   -1.9551 N   0  0  0  0  0  0  0  0  0  0  0  0
    1.2824   -1.8694   -1.7814 N   0  0  0  0  0  0  0  0  0  0  0  0
    1.1333   -0.8640   -0.8708 N   0  0  0  0  0  0  0  0  0  0  0  0
   -0.1782   -0.4114   -0.5370 C   0  0  0  0  0  0  0  0  0  0  0  0
   -1.2818   -1.1563   -0.9907 C   0  0  0  0  0  0  0  0  0  0  0  0
   -2.5902   -0.7611   -0.6929 C   0  0  0  0  0  0  0  0  0  0  0  0
   -2.8349    0.3929    0.0591 C   0  0  0  0  0  0  0  0  0  0  0  0
   -4.2505    0.7947    0.3631 C   0  0  0  0  0  0  0  0  0  0  0  0
   -1.7365    1.1448    0.4964 C   0  0  0  0  0  0  0  0  0  0  0  0
   -1.9515    2.5974    1.4108 Cl  0  0  0  0  0  0  0  0  0  0  0  0
   -0.4222    0.7508    0.2004 C   0  0  0  0  0  0  0  0  0  0  0  0
    5.0429    0.7848   -0.2139 H   0  0  0  0  0  0  0  0  0  0  0  0
    5.0691    1.1475    1.5219 H   0  0  0  0  0  0  0  0  0  0  0  0
    4.9742   -0.5394    0.9833 H   0  0  0  0  0  0  0  0  0  0  0  0
   -1.1505   -2.0660   -1.5770 H   0  0  0  0  0  0  0  0  0  0  0  0
   -3.4177   -1.3682   -1.0569 H   0  0  0  0  0  0  0  0  0  0  0  0
   -4.4117    0.8387    1.4450 H   0  0  0  0  0  0  0  0  0  0  0  0
   -4.9680    0.0743   -0.0445 H   0  0  0  0  0  0  0  0  0  0  0  0
   -4.4746    1.7693   -0.0822 H   0  0  0  0  0  0  0  0  0  0  0  0
    0.3714    1.4035    0.5406 H   0  0  0  0  0  0  0  0  0  0  0  0
  1  2  1  0
  2  3  1  0
  3  4  2  0
  4  5  1  0
  5  6  2  0
  6  7  1  0
  7  8  1  0
  8  9  2  0
  9 10  1  0
 10 11  2  0
 11 12  1  0
 11 13  1  0
 13 14  1  0
 13 15  2  0
  7  3  1  0
 15  8  1  0
  1 16  1  0
  1 17  1  0
  1 18  1  0
  9 19  1  0
 10 20  1  0
 12 21  1  0
 12 22  1  0
 12 23  1  0
 15 24  1  0
M  END
$$$$
