
     RDKit          3D

 29 29  0  0  0  0  0  0  0  0999 V2000
   -5.3299   -2.0726    0.6377 C   0  0  0  0  0  0  0  0  0  0  0  0
   -4.4822   -1.2229    0.5892 C   0  0  0  0  0  0  0  0  0  0  0  0
   -3.4463   -0.1825    0.5299 C   0  0  0  0  0  0  0  0  0  0  0  0
   -2.4974   -0.4184   -0.5589 N   0  0  0  0  0  0  0  0  0  0  0  0
   -1.5781   -1.5205   -0.2621 C   0  0  0  0  0  0  0  0  0  0  0  0
   -0.5196   -1.6515   -1.3619 C   0  0  0  0  0  0  0  0  0  0  0  0
    0.4558   -0.4751   -1.4011 C   0  0  0  0  0  0  0  0  0  0  0  0
    1.2237   -0.4820   -0.1972 O   0  0  0  0  0  0  0  0  0  0  0  0
    2.1005    0.5481    0.0139 C   0  0  0  0  0  0  0  0  0  0  0  0
    2.3954    1.5431   -0.9241 C   0  0  0  0  0  0  0  0  0  0  0  0
    3.3126    2.5542   -0.6175 C   0  0  0  0  0  0  0  0  0  0  0  0
    3.9397    2.5739    0.6261 C   0  0  0  0  0  0  0  0  0  0  0  0
    5.0662    3.8209    0.9935 Cl  0  0  0  0  0  0  0  0  0  0  0  0
    3.6623    1.5917    1.5704 C   0  0  0  0  0  0  0  0  0  0  0  0
    2.7464    0.5827    1.2626 C   0  0  0  0  0  0  0  0  0  0  0  0
    2.4329   -0.6174    2.4697 Cl  0  0  0  0  0  0  0  0  0  0  0  0
   -6.0810   -2.8272    0.6828 H   0  0  0  0  0  0  0  0  0  0  0  0
   -3.9284    0.7853    0.3508 H   0  0  0  0  0  0  0  0  0  0  0  0
   -2.9251   -0.0915    1.4897 H   0  0  0  0  0  0  0  0  0  0  0  0
   -3.0245   -0.6293   -1.4056 H   0  0  0  0  0  0  0  0  0  0  0  0
   -1.0857   -1.3620    0.7044 H   0  0  0  0  0  0  0  0  0  0  0  0
   -2.1295   -2.4660   -0.2009 H   0  0  0  0  0  0  0  0  0  0  0  0
   -1.0062   -1.7574   -2.3390 H   0  0  0  0  0  0  0  0  0  0  0  0
    0.0451   -2.5740   -1.1782 H   0  0  0  0  0  0  0  0  0  0  0  0
    1.1260   -0.6088   -2.2586 H   0  0  0  0  0  0  0  0  0  0  0  0
   -0.0910    0.4686   -1.5086 H   0  0  0  0  0  0  0  0  0  0  0  0
    1.9319    1.5603   -1.9054 H   0  0  0  0  0  0  0  0  0  0  0  0
    3.5327    3.3220   -1.3557 H   0  0  0  0  0  0  0  0  0  0  0  0
    4.1535    1.6083    2.5390 H   0  0  0  0  0  0  0  0  0  0  0  0
  1  2  3  0
  2  3  1  0
  3  4  1  0
  4  5  1  0
  5  6  1  0
  6  7  1  0
  7  8  1  0
  8  9  1  0
  9 10  2  0
 10 11  1  0
 11 12  2  0
 12 13  1  0
 12 14  1  0
 14 15  2  0
 15 16  1  0
 15  9  1  0
  1 17  1  0
  3 18  1  0
  3 19  1  0
  4 20  1  0
  5 21  1  0
  5 22  1  0
  6 23  1  0
  6 24  1  0
  7 25  1  0
  7 26  1  0
 10 27  1  0
 11 28  1  0
 14 29  1  0
M  END
$$$$
