
     RDKit          3D

 67 72  0  0  0  0  0  0  0  0999 V2000
   -4.9423   -4.1361   -1.3265 C   0  0  0  0  0  0  0  0  0  0  0  0
   -4.0970   -3.3291   -0.3870 C   0  0  0  0  0  0  0  0  0  0  0  0
   -4.1970   -3.4823    1.0097 C   0  0  0  0  0  0  0  0  0  0  0  0
   -5.3058   -4.6115    1.7097 Cl  0  0  0  0  0  0  0  0  0  0  0  0
   -3.4029   -2.7267    1.8954 C   0  0  0  0  0  0  0  0  0  0  0  0
   -2.4862   -1.7920    1.4144 C   0  0  0  0  0  0  0  0  0  0  0  0
   -2.3876   -1.6254    0.0432 C   0  0  0  0  0  0  0  0  0  0  0  0
   -3.1777   -2.3871   -0.8319 C   0  0  0  0  0  0  0  0  0  0  0  0
   -2.8787   -2.0424   -2.1495 N   0  0  0  0  0  0  0  0  0  0  0  0
   -1.8818   -1.0659   -2.2212 C   0  0  0  0  0  0  0  0  0  0  0  0
   -1.4139   -0.6237   -3.2591 O   0  0  0  0  0  0  0  0  0  0  0  0
   -1.5093   -0.7115   -0.7603 C   0  0  1  0  0  0  0  0  0  0  0  0
   -1.8054    0.7023   -0.4002 C   0  0  0  0  0  0  0  0  0  0  0  0
   -0.6118    1.4406   -0.3572 C   0  0  0  0  0  0  0  0  0  0  0  0
   -0.9014    2.7371   -0.0300 C   0  0  0  0  0  0  0  0  0  0  0  0
   -0.0819    3.7695    0.1511 O   0  0  0  0  0  0  0  0  0  0  0  0
   -2.3029    2.8248    0.1520 N   0  0  0  0  0  0  0  0  0  0  0  0
   -3.0420    4.0038    0.5226 C   0  0  0  0  0  0  0  0  0  0  0  0
   -2.5348    5.2849    0.2596 C   0  0  0  0  0  0  0  0  0  0  0  0
   -3.2542    6.4290    0.6223 C   0  0  0  0  0  0  0  0  0  0  0  0
   -4.4881    6.3102    1.2537 C   0  0  0  0  0  0  0  0  0  0  0  0
   -5.0045    5.0467    1.5224 C   0  0  0  0  0  0  0  0  0  0  0  0
   -4.2880    3.9009    1.1593 C   0  0  0  0  0  0  0  0  0  0  0  0
   -2.8470    1.5412   -0.0966 C   0  0  0  0  0  0  0  0  0  0  0  0
   -4.1545    1.2924   -0.0655 O   0  0  0  0  0  0  0  0  0  0  0  0
    0.5304    0.5714   -0.7154 C   0  0  1  0  0  0  0  0  0  0  0  0
    1.8315    0.6869    0.0690 C   0  0  0  0  0  0  0  0  0  0  0  0
    2.7514   -0.4081   -0.2844 N   0  0  0  0  0  0  0  0  0  0  0  0
    4.1035   -0.2069   -0.0613 C   0  0  0  0  0  0  0  0  0  0  0  0
    4.5830    0.8839    0.2203 O   0  0  0  0  0  0  0  0  0  0  0  0
    4.8196   -1.3521   -0.1934 O   0  0  0  0  0  0  0  0  0  0  0  0
    6.2573   -1.3637   -0.0017 C   0  0  0  0  0  0  0  0  0  0  0  0
    6.9659   -0.4849   -1.0381 C   0  0  0  0  0  0  0  0  0  0  0  0
    6.6319   -0.9765    1.4331 C   0  0  0  0  0  0  0  0  0  0  0  0
    6.6673   -2.8258   -0.2371 C   0  0  0  0  0  0  0  0  0  0  0  0
    2.1734   -1.7641   -0.3562 C   0  0  0  0  0  0  0  0  0  0  0  0
    0.7690   -1.8200   -1.0126 C   0  0  0  0  0  0  0  0  0  0  0  0
   -0.0667   -0.7754   -0.4440 N   0  0  0  0  0  0  0  0  0  0  0  0
   -4.7727   -5.2064   -1.1684 H   0  0  0  0  0  0  0  0  0  0  0  0
   -4.7151   -3.9303   -2.3762 H   0  0  0  0  0  0  0  0  0  0  0  0
   -6.0023   -3.9083   -1.1734 H   0  0  0  0  0  0  0  0  0  0  0  0
   -3.5007   -2.8691    2.9701 H   0  0  0  0  0  0  0  0  0  0  0  0
   -1.8717   -1.2094    2.0954 H   0  0  0  0  0  0  0  0  0  0  0  0
   -3.2853   -2.4462   -2.9805 H   0  0  0  0  0  0  0  0  0  0  0  0
    0.8293    3.4804   -0.0240 H   0  0  0  0  0  0  0  0  0  0  0  0
   -1.5946    5.4316   -0.2624 H   0  0  0  0  0  0  0  0  0  0  0  0
   -2.8477    7.4129    0.4030 H   0  0  0  0  0  0  0  0  0  0  0  0
   -5.0451    7.1993    1.5353 H   0  0  0  0  0  0  0  0  0  0  0  0
   -5.9648    4.9465    2.0213 H   0  0  0  0  0  0  0  0  0  0  0  0
   -4.7173    2.9395    1.4227 H   0  0  0  0  0  0  0  0  0  0  0  0
   -4.2940    0.3507   -0.2632 H   0  0  0  0  0  0  0  0  0  0  0  0
    0.7323    0.6857   -1.7903 H   0  0  0  0  0  0  0  0  0  0  0  0
    1.6571    0.6320    1.1515 H   0  0  0  0  0  0  0  0  0  0  0  0
    2.3088    1.6528   -0.1305 H   0  0  0  0  0  0  0  0  0  0  0  0
    6.7673    0.5790   -0.8776 H   0  0  0  0  0  0  0  0  0  0  0  0
    8.0519   -0.6236   -1.0019 H   0  0  0  0  0  0  0  0  0  0  0  0
    6.6179   -0.7200   -2.0503 H   0  0  0  0  0  0  0  0  0  0  0  0
    6.4294    0.0788    1.6390 H   0  0  0  0  0  0  0  0  0  0  0  0
    7.6961   -1.1487    1.6272 H   0  0  0  0  0  0  0  0  0  0  0  0
    6.0474   -1.5554    2.1571 H   0  0  0  0  0  0  0  0  0  0  0  0
    6.1505   -3.4930    0.4626 H   0  0  0  0  0  0  0  0  0  0  0  0
    7.7465   -2.9701   -0.1195 H   0  0  0  0  0  0  0  0  0  0  0  0
    6.3818   -3.1533   -1.2436 H   0  0  0  0  0  0  0  0  0  0  0  0
    2.1137   -2.1315    0.6761 H   0  0  0  0  0  0  0  0  0  0  0  0
    2.8493   -2.4299   -0.9033 H   0  0  0  0  0  0  0  0  0  0  0  0
    0.3378   -2.8103   -0.8293 H   0  0  0  0  0  0  0  0  0  0  0  0
    0.8734   -1.6981   -2.0974 H   0  0  0  0  0  0  0  0  0  0  0  0
  1  2  1  0
  2  3  2  0
  3  4  1  0
  3  5  1  0
  5  6  2  0
  6  7  1  0
  7  8  2  0
  8  9  1  0
  9 10  1  0
 10 11  2  0
 10 12  1  0
 12 13  1  0
 13 14  1  0
 14 15  2  0
 15 16  1  0
 15 17  1  0
 17 18  1  0
 18 19  2  0
 19 20  1  0
 20 21  2  0
 21 22  1  0
 22 23  2  0
 17 24  1  0
 24 25  1  0
 14 26  1  0
 26 27  1  0
 27 28  1  0
 28 29  1  0
 29 30  2  0
 29 31  1  0
 31 32  1  0
 32 33  1  0
 32 34  1  0
 32 35  1  0
 28 36  1  0
 36 37  1  0
 37 38  1  0
  8  2  1  0
 12 38  1  6
 12  7  1  0
 24 13  2  0
 38 26  1  0
 23 18  1  0
  1 39  1  0
  1 40  1  0
  1 41  1  0
  5 42  1  0
  6 43  1  0
  9 44  1  0
 16 45  1  0
 19 46  1  0
 20 47  1  0
 21 48  1  0
 22 49  1  0
 23 50  1  0
 25 51  1  0
 26 52  1  6
 27 53  1  0
 27 54  1  0
 33 55  1  0
 33 56  1  0
 33 57  1  0
 34 58  1  0
 34 59  1  0
 34 60  1  0
 35 61  1  0
 35 62  1  0
 35 63  1  0
 36 64  1  0
 36 65  1  0
 37 66  1  0
 37 67  1  0
M  END
$$$$
