
     RDKit          3D

 71 72  0  0  0  0  0  0  0  0999 V2000
   -4.8043   -2.6252    4.2596 C   0  0  0  0  0  0  0  0  0  0  0  0
   -4.5878   -2.9727    2.8902 O   0  0  0  0  0  0  0  0  0  0  0  0
   -3.2577   -2.8755    2.5701 C   0  0  0  0  0  0  0  0  0  0  0  0
   -2.4023   -3.8692    3.0649 C   0  0  0  0  0  0  0  0  0  0  0  0
   -1.0437   -3.8349    2.7770 C   0  0  0  0  0  0  0  0  0  0  0  0
   -0.5338   -2.8060    1.9914 C   0  0  0  0  0  0  0  0  0  0  0  0
   -1.3777   -1.8021    1.4670 C   0  0  0  0  0  0  0  0  0  0  0  0
   -0.7241   -0.7160    0.6061 C   0  0  0  0  0  0  0  0  0  0  0  0
   -1.3006    0.7205    0.8020 C   0  0  0  0  0  0  0  0  0  0  0  0
   -1.5224    1.1980    1.9138 O   0  0  0  0  0  0  0  0  0  0  0  0
   -1.4563    1.4370   -0.3718 N   0  0  0  0  0  0  0  0  0  0  0  0
   -2.0611    2.7706   -0.4791 C   0  0  0  0  0  0  0  0  0  0  0  0
   -3.5286    2.7353   -0.0266 C   0  0  0  0  0  0  0  0  0  0  0  0
   -2.0126    3.1937   -1.9594 C   0  0  0  0  0  0  0  0  0  0  0  0
   -1.2772    3.8088    0.3399 C   0  0  0  0  0  0  0  0  0  0  0  0
   -0.5100   -1.1102   -0.8322 N   0  0  0  0  0  0  0  0  0  0  0  0
    0.6932   -0.8676   -1.5043 C   0  0  0  0  0  0  0  0  0  0  0  0
    0.8705   -1.2038   -2.6766 O   0  0  0  0  0  0  0  0  0  0  0  0
    1.8121   -0.1661   -0.7506 C   0  0  0  0  0  0  0  0  0  0  0  0
    2.9923    0.1463   -1.6686 C   0  0  0  0  0  0  0  0  0  0  0  0
    4.1631    0.7356   -0.9092 C   0  0  0  0  0  0  0  0  0  0  0  0
    4.1609    0.8560    0.3112 O   0  0  0  0  0  0  0  0  0  0  0  0
    5.1936    1.0815   -1.7541 N   0  0  0  0  0  0  0  0  0  0  0  0
    6.4107    1.5900   -1.3604 C   0  0  0  0  0  0  0  0  0  0  0  0
    6.8899    1.8744   -0.0631 C   0  0  0  0  0  0  0  0  0  0  0  0
    8.1666    2.3381   -0.2608 C   0  0  0  0  0  0  0  0  0  0  0  0
    9.2420    2.8070    0.6297 C   0  0  0  0  0  0  0  0  0  0  0  0
    8.4360    2.3425   -1.5931 O   0  0  0  0  0  0  0  0  0  0  0  0
    7.3354    1.8712   -2.2851 N   0  0  0  0  0  0  0  0  0  0  0  0
   -1.5825   -1.8644   -1.5352 C   0  0  0  0  0  0  0  0  0  0  0  0
   -1.1806   -3.3212   -1.7884 C   0  0  0  0  0  0  0  0  0  0  0  0
   -2.0782   -1.2062   -2.8301 C   0  0  0  0  0  0  0  0  0  0  0  0
   -2.7678   -1.8585    1.7327 C   0  0  0  0  0  0  0  0  0  0  0  0
   -3.5052   -0.8819    1.1157 O   0  0  0  0  0  0  0  0  0  0  0  0
   -4.9208   -0.9761    1.1049 C   0  0  0  0  0  0  0  0  0  0  0  0
   -4.4935   -3.4384    4.9233 H   0  0  0  0  0  0  0  0  0  0  0  0
   -4.2919   -1.6941    4.5298 H   0  0  0  0  0  0  0  0  0  0  0  0
   -5.8790   -2.4711    4.3941 H   0  0  0  0  0  0  0  0  0  0  0  0
   -2.7994   -4.6785    3.6713 H   0  0  0  0  0  0  0  0  0  0  0  0
   -0.3829   -4.6057    3.1660 H   0  0  0  0  0  0  0  0  0  0  0  0
    0.5338   -2.7919    1.7776 H   0  0  0  0  0  0  0  0  0  0  0  0
    0.2701   -0.5903    1.0504 H   0  0  0  0  0  0  0  0  0  0  0  0
   -1.3651    0.8928   -1.2199 H   0  0  0  0  0  0  0  0  0  0  0  0
   -3.6232    2.4750    1.0327 H   0  0  0  0  0  0  0  0  0  0  0  0
   -4.0971    1.9915   -0.5973 H   0  0  0  0  0  0  0  0  0  0  0  0
   -4.0102    3.7089   -0.1700 H   0  0  0  0  0  0  0  0  0  0  0  0
   -2.4539    4.1857   -2.1098 H   0  0  0  0  0  0  0  0  0  0  0  0
   -0.9804    3.2256   -2.3273 H   0  0  0  0  0  0  0  0  0  0  0  0
   -2.5621    2.4855   -2.5908 H   0  0  0  0  0  0  0  0  0  0  0  0
   -1.6658    4.8194    0.1727 H   0  0  0  0  0  0  0  0  0  0  0  0
   -1.3360    3.6165    1.4154 H   0  0  0  0  0  0  0  0  0  0  0  0
   -0.2163    3.8081    0.0639 H   0  0  0  0  0  0  0  0  0  0  0  0
    1.4398    0.7680   -0.3187 H   0  0  0  0  0  0  0  0  0  0  0  0
    2.1488   -0.8297    0.0537 H   0  0  0  0  0  0  0  0  0  0  0  0
    3.3420   -0.7698   -2.1621 H   0  0  0  0  0  0  0  0  0  0  0  0
    2.6820    0.8546   -2.4469 H   0  0  0  0  0  0  0  0  0  0  0  0
    5.1101    0.9488   -2.7530 H   0  0  0  0  0  0  0  0  0  0  0  0
    6.3837    1.7604    0.8836 H   0  0  0  0  0  0  0  0  0  0  0  0
    9.4127    3.8803    0.4945 H   0  0  0  0  0  0  0  0  0  0  0  0
   10.1767    2.2776    0.4149 H   0  0  0  0  0  0  0  0  0  0  0  0
    8.9879    2.6307    1.6803 H   0  0  0  0  0  0  0  0  0  0  0  0
   -2.4596   -1.8851   -0.8890 H   0  0  0  0  0  0  0  0  0  0  0  0
   -0.3707   -3.4038   -2.5201 H   0  0  0  0  0  0  0  0  0  0  0  0
   -0.8405   -3.8030   -0.8668 H   0  0  0  0  0  0  0  0  0  0  0  0
   -2.0322   -3.8939   -2.1712 H   0  0  0  0  0  0  0  0  0  0  0  0
   -1.3132   -1.1543   -3.6090 H   0  0  0  0  0  0  0  0  0  0  0  0
   -2.4367   -0.1898   -2.6438 H   0  0  0  0  0  0  0  0  0  0  0  0
   -2.9184   -1.7752   -3.2435 H   0  0  0  0  0  0  0  0  0  0  0  0
   -5.2950   -0.2028    0.4276 H   0  0  0  0  0  0  0  0  0  0  0  0
   -5.3344   -0.7604    2.0935 H   0  0  0  0  0  0  0  0  0  0  0  0
   -5.2611   -1.9403    0.7141 H   0  0  0  0  0  0  0  0  0  0  0  0
  1  2  1  0
  2  3  1  0
  3  4  2  0
  4  5  1  0
  5  6  2  0
  6  7  1  0
  7  8  1  0
  8  9  1  0
  9 10  2  0
  9 11  1  0
 11 12  1  0
 12 13  1  0
 12 14  1  0
 12 15  1  0
  8 16  1  0
 16 17  1  0
 17 18  2  0
 17 19  1  0
 19 20  1  0
 20 21  1  0
 21 22  2  0
 21 23  1  0
 23 24  1  0
 24 25  1  0
 25 26  2  0
 26 27  1  0
 26 28  1  0
 28 29  1  0
 16 30  1  0
 30 31  1  0
 30 32  1  0
  7 33  2  0
 33 34  1  0
 34 35  1  0
 33  3  1  0
 29 24  2  0
  1 36  1  0
  1 37  1  0
  1 38  1  0
  4 39  1  0
  5 40  1  0
  6 41  1  0
  8 42  1  0
 11 43  1  0
 13 44  1  0
 13 45  1  0
 13 46  1  0
 14 47  1  0
 14 48  1  0
 14 49  1  0
 15 50  1  0
 15 51  1  0
 15 52  1  0
 19 53  1  0
 19 54  1  0
 20 55  1  0
 20 56  1  0
 23 57  1  0
 25 58  1  0
 27 59  1  0
 27 60  1  0
 27 61  1  0
 30 62  1  0
 31 63  1  0
 31 64  1  0
 31 65  1  0
 32 66  1  0
 32 67  1  0
 32 68  1  0
 35 69  1  0
 35 70  1  0
 35 71  1  0
M  END
$$$$
