
     RDKit          3D

 36 37  0  0  0  0  0  0  0  0999 V2000
   -0.2317    1.3201    0.0652 O   0  0  0  0  0  0  0  0  0  0  0  0
   -0.2723    0.1158   -0.1778 C   0  0  0  0  0  0  0  0  0  0  0  0
    0.8566   -0.6418   -0.8856 C   0  0  0  0  0  0  0  0  0  0  0  0
    2.0980    0.0572   -0.8580 O   0  0  0  0  0  0  0  0  0  0  0  0
    2.6819    0.0703    0.3640 C   0  0  0  0  0  0  0  0  0  0  0  0
    2.2910   -0.4870    1.3753 O   0  0  0  0  0  0  0  0  0  0  0  0
    3.8498    0.9604    0.3170 C   0  0  0  0  0  0  0  0  0  0  0  0
    3.7847    2.1349    1.0788 C   0  0  0  0  0  0  0  0  0  0  0  0
    4.8587    3.0247    1.0790 C   0  0  0  0  0  0  0  0  0  0  0  0
    5.9979    2.7394    0.3269 C   0  0  0  0  0  0  0  0  0  0  0  0
    6.0689    1.5618   -0.4222 C   0  0  0  0  0  0  0  0  0  0  0  0
    4.9956    0.6648   -0.4274 C   0  0  0  0  0  0  0  0  0  0  0  0
    5.1892   -0.9382   -1.4246 Br  0  0  0  0  0  0  0  0  0  0  0  0
   -1.3584   -0.6704    0.1442 N   0  0  0  0  0  0  0  0  0  0  0  0
   -2.4767   -0.1273    0.8899 C   0  0  0  0  0  0  0  0  0  0  0  0
   -3.6257   -1.1254    1.0688 C   0  0  0  0  0  0  0  0  0  0  0  0
   -4.1958   -1.5634   -0.1941 N   0  0  0  0  0  0  0  0  0  0  0  0
   -5.3357   -1.0672   -0.7800 C   0  0  0  0  0  0  0  0  0  0  0  0
   -6.0319   -0.0329   -0.2323 O   0  0  0  0  0  0  0  0  0  0  0  0
   -5.6861   -1.6720   -1.9188 C   0  0  0  0  0  0  0  0  0  0  0  0
   -4.5595   -2.9191   -2.3510 S   0  0  0  0  0  0  0  0  0  0  0  0
   -3.5820   -2.5832   -0.9156 C   0  0  0  0  0  0  0  0  0  0  0  0
   -2.5365   -3.1568   -0.6465 O   0  0  0  0  0  0  0  0  0  0  0  0
    0.5675   -0.7543   -1.9359 H   0  0  0  0  0  0  0  0  0  0  0  0
    0.9740   -1.6478   -0.4651 H   0  0  0  0  0  0  0  0  0  0  0  0
    2.8941    2.3576    1.6640 H   0  0  0  0  0  0  0  0  0  0  0  0
    4.8065    3.9395    1.6649 H   0  0  0  0  0  0  0  0  0  0  0  0
    6.8359    3.4329    0.3275 H   0  0  0  0  0  0  0  0  0  0  0  0
    6.9700    1.3508   -0.9937 H   0  0  0  0  0  0  0  0  0  0  0  0
   -1.2823   -1.6827    0.0414 H   0  0  0  0  0  0  0  0  0  0  0  0
   -2.8267    0.7713    0.3688 H   0  0  0  0  0  0  0  0  0  0  0  0
   -2.0997    0.1829    1.8709 H   0  0  0  0  0  0  0  0  0  0  0  0
   -4.4097   -0.6954    1.7011 H   0  0  0  0  0  0  0  0  0  0  0  0
   -3.2486   -2.0129    1.5929 H   0  0  0  0  0  0  0  0  0  0  0  0
   -5.4115    0.5129    0.2740 H   0  0  0  0  0  0  0  0  0  0  0  0
   -6.5491   -1.4195   -2.5184 H   0  0  0  0  0  0  0  0  0  0  0  0
  1  2  2  0
  2  3  1  0
  3  4  1  0
  4  5  1  0
  5  6  2  0
  5  7  1  0
  7  8  2  0
  8  9  1  0
  9 10  2  0
 10 11  1  0
 11 12  2  0
 12 13  1  0
  2 14  1  0
 14 15  1  0
 15 16  1  0
 16 17  1  0
 17 18  1  0
 18 19  1  0
 18 20  2  0
 20 21  1  0
 21 22  1  0
 22 23  2  0
 12  7  1  0
 22 17  1  0
  3 24  1  0
  3 25  1  0
  8 26  1  0
  9 27  1  0
 10 28  1  0
 11 29  1  0
 14 30  1  0
 15 31  1  0
 15 32  1  0
 16 33  1  0
 16 34  1  0
 19 35  1  0
 20 36  1  0
M  END
$$$$
