
     RDKit          3D

 46 48  0  0  0  0  0  0  0  0999 V2000
    6.5522   -2.1415    2.7489 C   0  0  0  0  0  0  0  0  0  0  0  0
    6.1178   -2.6849    1.4009 C   0  0  0  0  0  0  0  0  0  0  0  0
    5.3225   -1.7125    0.7060 O   0  0  0  0  0  0  0  0  0  0  0  0
    6.0125   -0.8044   -0.0287 C   0  0  0  0  0  0  0  0  0  0  0  0
    7.2267   -0.7413   -0.1340 O   0  0  0  0  0  0  0  0  0  0  0  0
    5.0800    0.1342   -0.7102 C   0  0  0  0  0  0  0  0  0  0  0  0
    5.6285    1.1309   -1.5245 C   0  0  0  0  0  0  0  0  0  0  0  0
    4.7928    2.0307   -2.1824 C   0  0  0  0  0  0  0  0  0  0  0  0
    3.4059    1.9403   -2.0335 C   0  0  0  0  0  0  0  0  0  0  0  0
    2.8404    0.9502   -1.2279 C   0  0  0  0  0  0  0  0  0  0  0  0
    1.4514    0.7988   -1.0249 N   0  0  0  0  0  0  0  0  0  0  0  0
    0.4330    1.5070   -1.6383 C   0  0  0  0  0  0  0  0  0  0  0  0
    0.5501    2.3489   -2.5208 O   0  0  0  0  0  0  0  0  0  0  0  0
   -0.9422    1.1522   -1.1847 C   0  0  0  0  0  0  0  0  0  0  0  0
   -1.2217    0.8096    0.1417 C   0  0  0  0  0  0  0  0  0  0  0  0
   -2.5306    0.4887    0.5269 C   0  0  0  0  0  0  0  0  0  0  0  0
   -3.5744    0.5172   -0.4015 C   0  0  0  0  0  0  0  0  0  0  0  0
   -4.9189    0.2173   -0.0962 N   0  0  0  0  0  0  0  0  0  0  0  0
   -5.4512   -0.1731    1.1273 C   0  0  0  0  0  0  0  0  0  0  0  0
   -4.7837   -0.3350    2.1456 O   0  0  0  0  0  0  0  0  0  0  0  0
   -6.8952   -0.3825    1.1066 C   0  0  0  0  0  0  0  0  0  0  0  0
   -7.8649   -0.3091    0.1177 C   0  0  0  0  0  0  0  0  0  0  0  0
   -9.1059   -0.6225    0.7271 C   0  0  0  0  0  0  0  0  0  0  0  0
   -8.8287   -0.8714    2.0480 C   0  0  0  0  0  0  0  0  0  0  0  0
   -7.5024   -0.7309    2.2875 O   0  0  0  0  0  0  0  0  0  0  0  0
   -3.2900    0.8805   -1.7251 C   0  0  0  0  0  0  0  0  0  0  0  0
   -1.9851    1.1997   -2.1143 C   0  0  0  0  0  0  0  0  0  0  0  0
    3.6862    0.0506   -0.5635 C   0  0  0  0  0  0  0  0  0  0  0  0
    7.1926   -1.2621    2.6299 H   0  0  0  0  0  0  0  0  0  0  0  0
    7.1015   -2.8995    3.3138 H   0  0  0  0  0  0  0  0  0  0  0  0
    5.6824   -1.8253    3.3344 H   0  0  0  0  0  0  0  0  0  0  0  0
    6.9771   -2.9999    0.7983 H   0  0  0  0  0  0  0  0  0  0  0  0
    5.4871   -3.5675    1.5461 H   0  0  0  0  0  0  0  0  0  0  0  0
    6.7069    1.2110   -1.6493 H   0  0  0  0  0  0  0  0  0  0  0  0
    5.2178    2.8074   -2.8141 H   0  0  0  0  0  0  0  0  0  0  0  0
    2.7932    2.6662   -2.5600 H   0  0  0  0  0  0  0  0  0  0  0  0
    1.1772    0.0390   -0.4153 H   0  0  0  0  0  0  0  0  0  0  0  0
   -0.4458    0.8171    0.9029 H   0  0  0  0  0  0  0  0  0  0  0  0
   -2.6992    0.2384    1.5703 H   0  0  0  0  0  0  0  0  0  0  0  0
   -5.5674    0.3061   -0.8640 H   0  0  0  0  0  0  0  0  0  0  0  0
   -7.7154   -0.0628   -0.9229 H   0  0  0  0  0  0  0  0  0  0  0  0
  -10.0808   -0.6639    0.2618 H   0  0  0  0  0  0  0  0  0  0  0  0
   -9.4307   -1.1461    2.9031 H   0  0  0  0  0  0  0  0  0  0  0  0
   -4.0758    0.9266   -2.4749 H   0  0  0  0  0  0  0  0  0  0  0  0
   -1.7853    1.4900   -3.1444 H   0  0  0  0  0  0  0  0  0  0  0  0
    3.2592   -0.7224    0.0695 H   0  0  0  0  0  0  0  0  0  0  0  0
  1  2  1  0
  2  3  1  0
  3  4  1  0
  4  5  2  0
  4  6  1  0
  6  7  2  0
  7  8  1  0
  8  9  2  0
  9 10  1  0
 10 11  1  0
 11 12  1  0
 12 13  2  0
 12 14  1  0
 14 15  2  0
 15 16  1  0
 16 17  2  0
 17 18  1  0
 18 19  1  0
 19 20  2  0
 19 21  1  0
 21 22  2  0
 22 23  1  0
 23 24  2  0
 24 25  1  0
 17 26  1  0
 26 27  2  0
 10 28  2  0
 28  6  1  0
 27 14  1  0
 25 21  1  0
  1 29  1  0
  1 30  1  0
  1 31  1  0
  2 32  1  0
  2 33  1  0
  7 34  1  0
  8 35  1  0
  9 36  1  0
 11 37  1  0
 15 38  1  0
 16 39  1  0
 18 40  1  0
 22 41  1  0
 23 42  1  0
 24 43  1  0
 26 44  1  0
 27 45  1  0
 28 46  1  0
M  END
$$$$
