
     RDKit          3D

 36 38  0  0  0  0  0  0  0  0999 V2000
    5.9257   -0.9096    0.4355 C   0  0  0  0  0  0  0  0  0  0  0  0
    5.5385    0.5253    0.1391 C   0  0  0  0  0  0  0  0  0  0  0  0
    4.0664    0.6668    0.2340 N   0  0  0  0  0  4  0  0  0  0  0  0
    3.3017    0.4728   -0.8650 C   0  0  0  0  0  0  0  0  0  0  0  0
    1.9192    0.6023   -0.7993 C   0  0  0  0  0  0  0  0  0  0  0  0
    1.3123    0.9286    0.4124 C   0  0  0  0  0  0  0  0  0  0  0  0
   -0.1385    1.1054    0.5349 C   0  0  0  0  0  0  0  0  0  0  0  0
   -1.0386    0.2687   -0.0100 C   0  0  0  0  0  0  0  0  0  0  0  0
   -2.4617    0.3894    0.0803 C   0  0  0  0  0  0  0  0  0  0  0  0
   -3.1583    1.4266    0.6632 C   0  0  0  0  0  0  0  0  0  0  0  0
   -4.4979    1.1635    0.5335 N   0  0  0  0  0  0  0  0  0  0  0  0
   -4.6886   -0.0283   -0.1259 C   0  0  0  0  0  0  0  0  0  0  0  0
   -5.8773   -0.6808   -0.4747 C   0  0  0  0  0  0  0  0  0  0  0  0
   -5.7747   -1.8989   -1.1513 C   0  0  0  0  0  0  0  0  0  0  0  0
   -4.5319   -2.4411   -1.4653 C   0  0  0  0  0  0  0  0  0  0  0  0
   -3.3526   -1.7756   -1.1093 C   0  0  0  0  0  0  0  0  0  0  0  0
   -3.4251   -0.5419   -0.4253 C   0  0  0  0  0  0  0  0  0  0  0  0
    2.1208    1.1417    1.5268 C   0  0  0  0  0  0  0  0  0  0  0  0
    3.4992    0.9990    1.4165 C   0  0  0  0  0  0  0  0  0  0  0  0
    7.0109   -1.0323    0.3699 H   0  0  0  0  0  0  0  0  0  0  0  0
    5.6075   -1.2040    1.4408 H   0  0  0  0  0  0  0  0  0  0  0  0
    5.4591   -1.5986   -0.2758 H   0  0  0  0  0  0  0  0  0  0  0  0
    5.9947    1.2199    0.8523 H   0  0  0  0  0  0  0  0  0  0  0  0
    5.8458    0.8243   -0.8686 H   0  0  0  0  0  0  0  0  0  0  0  0
    3.8058    0.2151   -1.7924 H   0  0  0  0  0  0  0  0  0  0  0  0
    1.3255    0.4572   -1.7001 H   0  0  0  0  0  0  0  0  0  0  0  0
   -0.4662    1.9585    1.1246 H   0  0  0  0  0  0  0  0  0  0  0  0
   -0.6810   -0.5961   -0.5645 H   0  0  0  0  0  0  0  0  0  0  0  0
   -2.8361    2.3327    1.1571 H   0  0  0  0  0  0  0  0  0  0  0  0
   -5.2456    1.7555    0.8692 H   0  0  0  0  0  0  0  0  0  0  0  0
   -6.8489   -0.2623   -0.2316 H   0  0  0  0  0  0  0  0  0  0  0  0
   -6.6807   -2.4303   -1.4356 H   0  0  0  0  0  0  0  0  0  0  0  0
   -4.4766   -3.3912   -1.9914 H   0  0  0  0  0  0  0  0  0  0  0  0
   -2.3934   -2.2156   -1.3613 H   0  0  0  0  0  0  0  0  0  0  0  0
    1.6836    1.4078    2.4878 H   0  0  0  0  0  0  0  0  0  0  0  0
    4.1569    1.1460    2.2687 H   0  0  0  0  0  0  0  0  0  0  0  0
  1  2  1  0
  2  3  1  0
  3  4  2  0
  4  5  1  0
  5  6  2  0
  6  7  1  0
  7  8  2  3
  8  9  1  0
  9 10  2  0
 10 11  1  0
 11 12  1  0
 12 13  2  0
 13 14  1  0
 14 15  2  0
 15 16  1  0
 16 17  2  0
  6 18  1  0
 18 19  2  0
 19  3  1  0
 17  9  1  0
 17 12  1  0
  1 20  1  0
  1 21  1  0
  1 22  1  0
  2 23  1  0
  2 24  1  0
  4 25  1  0
  5 26  1  0
  7 27  1  0
  8 28  1  0
 10 29  1  0
 11 30  1  0
 13 31  1  0
 14 32  1  0
 15 33  1  0
 16 34  1  0
 18 35  1  0
 19 36  1  0
M  CHG  1   3   1
M  END
$$$$
