
     RDKit          3D

 53 57  0  0  0  0  0  0  0  0999 V2000
    6.0724    2.1923    1.9338 C   0  0  0  0  0  0  0  0  0  0  0  0
    5.7869    0.8021    1.8414 O   0  0  0  0  0  0  0  0  0  0  0  0
    4.7846    0.4348    0.9866 C   0  0  0  0  0  0  0  0  0  0  0  0
    4.0090    1.2952    0.2116 C   0  0  0  0  0  0  0  0  0  0  0  0
    3.0082    0.7834   -0.6226 C   0  0  0  0  0  0  0  0  0  0  0  0
    2.7617   -0.5952   -0.6895 C   0  0  0  0  0  0  0  0  0  0  0  0
    1.6784   -1.1483   -1.5926 C   0  0  0  0  0  0  0  0  0  0  0  0
    0.3338   -0.6868   -1.2207 N   0  0  0  0  0  0  0  0  0  0  0  0
   -0.4206   -1.2617   -0.2212 C   0  0  0  0  0  0  0  0  0  0  0  0
    0.1117   -2.4298    0.5097 C   0  0  0  0  0  0  0  0  0  0  0  0
    0.6625   -2.2448    1.7800 C   0  0  0  0  0  0  0  0  0  0  0  0
    1.1463   -3.3476    2.4829 C   0  0  0  0  0  0  0  0  0  0  0  0
    1.0612   -4.6245    1.9233 C   0  0  0  0  0  0  0  0  0  0  0  0
    0.4847   -4.8057    0.6639 C   0  0  0  0  0  0  0  0  0  0  0  0
   -0.0005   -3.7075   -0.0455 C   0  0  0  0  0  0  0  0  0  0  0  0
   -1.5900   -0.8399    0.1252 N   0  0  0  0  0  0  0  0  0  0  0  0
   -2.1570    0.2535   -0.4909 C   0  0  0  0  0  0  0  0  0  0  0  0
   -1.5105    0.8884   -1.4918 C   0  0  0  0  0  0  0  0  0  0  0  0
   -2.1297    2.0813   -2.1209 C   0  0  0  0  0  0  0  0  0  0  0  0
   -1.5509    2.7804   -2.9464 O   0  0  0  0  0  0  0  0  0  0  0  0
   -3.5039    2.4411   -1.7246 C   0  0  0  0  0  0  0  0  0  0  0  0
   -4.1535    3.4942   -2.3908 C   0  0  0  0  0  0  0  0  0  0  0  0
   -5.4488    3.8515   -2.0342 C   0  0  0  0  0  0  0  0  0  0  0  0
   -6.0900    3.1580   -1.0157 C   0  0  0  0  0  0  0  0  0  0  0  0
   -5.4349    2.1114   -0.3535 C   0  0  0  0  0  0  0  0  0  0  0  0
   -4.1228    1.7286   -0.6895 C   0  0  0  0  0  0  0  0  0  0  0  0
   -3.4227    0.6854   -0.0444 N   0  0  0  0  0  0  0  0  0  0  0  0
   -4.1018    0.0069    1.0654 C   0  0  0  0  0  0  0  0  0  0  0  0
   -0.1888    0.3785   -1.9329 C   0  0  0  0  0  0  0  0  0  0  0  0
    0.4033    0.8730   -2.8906 O   0  0  0  0  0  0  0  0  0  0  0  0
    3.5576   -1.4538    0.0793 C   0  0  0  0  0  0  0  0  0  0  0  0
    4.5540   -0.9398    0.9130 C   0  0  0  0  0  0  0  0  0  0  0  0
    5.2108    2.7474    2.3190 H   0  0  0  0  0  0  0  0  0  0  0  0
    6.8941    2.3179    2.6456 H   0  0  0  0  0  0  0  0  0  0  0  0
    6.4032    2.5928    0.9698 H   0  0  0  0  0  0  0  0  0  0  0  0
    4.1557    2.3701    0.2259 H   0  0  0  0  0  0  0  0  0  0  0  0
    2.4274    1.4771   -1.2294 H   0  0  0  0  0  0  0  0  0  0  0  0
    1.7004   -2.2424   -1.5820 H   0  0  0  0  0  0  0  0  0  0  0  0
    1.9172   -0.8653   -2.6248 H   0  0  0  0  0  0  0  0  0  0  0  0
    0.7225   -1.2503    2.2150 H   0  0  0  0  0  0  0  0  0  0  0  0
    1.5863   -3.2127    3.4680 H   0  0  0  0  0  0  0  0  0  0  0  0
    1.4356   -5.4830    2.4764 H   0  0  0  0  0  0  0  0  0  0  0  0
    0.4062   -5.8048    0.2421 H   0  0  0  0  0  0  0  0  0  0  0  0
   -0.4671   -3.8490   -1.0166 H   0  0  0  0  0  0  0  0  0  0  0  0
   -3.6468    4.0339   -3.1888 H   0  0  0  0  0  0  0  0  0  0  0  0
   -5.9529    4.6649   -2.5494 H   0  0  0  0  0  0  0  0  0  0  0  0
   -7.1043    3.4279   -0.7307 H   0  0  0  0  0  0  0  0  0  0  0  0
   -5.9896    1.6042    0.4305 H   0  0  0  0  0  0  0  0  0  0  0  0
   -3.4610   -0.7102    1.5891 H   0  0  0  0  0  0  0  0  0  0  0  0
   -4.9726   -0.5502    0.7015 H   0  0  0  0  0  0  0  0  0  0  0  0
   -4.4208    0.7268    1.8283 H   0  0  0  0  0  0  0  0  0  0  0  0
    3.4073   -2.5309    0.0454 H   0  0  0  0  0  0  0  0  0  0  0  0
    5.1586   -1.6185    1.5098 H   0  0  0  0  0  0  0  0  0  0  0  0
  1  2  1  0
  2  3  1  0
  3  4  2  0
  4  5  1  0
  5  6  2  0
  6  7  1  0
  7  8  1  0
  8  9  1  0
  9 10  1  0
 10 11  2  0
 11 12  1  0
 12 13  2  0
 13 14  1  0
 14 15  2  0
  9 16  2  0
 16 17  1  0
 17 18  2  0
 18 19  1  0
 19 20  2  0
 19 21  1  0
 21 22  2  0
 22 23  1  0
 23 24  2  0
 24 25  1  0
 25 26  2  0
 26 27  1  0
 27 28  1  0
 18 29  1  0
 29 30  2  0
  6 31  1  0
 31 32  2  0
 32  3  1  0
 29  8  1  0
 15 10  1  0
 27 17  1  0
 26 21  1  0
  1 33  1  0
  1 34  1  0
  1 35  1  0
  4 36  1  0
  5 37  1  0
  7 38  1  0
  7 39  1  0
 11 40  1  0
 12 41  1  0
 13 42  1  0
 14 43  1  0
 15 44  1  0
 22 45  1  0
 23 46  1  0
 24 47  1  0
 25 48  1  0
 28 49  1  0
 28 50  1  0
 28 51  1  0
 31 52  1  0
 32 53  1  0
M  END
$$$$
