
     RDKit          3D

 53 55  0  0  0  0  0  0  0  0999 V2000
   -4.8437   -4.7295   -1.4108 C   0  0  0  0  0  0  0  0  0  0  0  0
   -5.1115   -3.5475   -2.1504 O   0  0  0  0  0  0  0  0  0  0  0  0
   -4.6171   -2.3740   -1.6533 C   0  0  0  0  0  0  0  0  0  0  0  0
   -3.8369   -2.2282   -0.5047 C   0  0  0  0  0  0  0  0  0  0  0  0
   -3.3708   -0.9632   -0.1120 C   0  0  0  0  0  0  0  0  0  0  0  0
   -2.5598   -0.9099    1.0471 N   0  0  0  0  0  0  0  0  0  0  0  0
   -1.9268    0.1997    1.5826 C   0  0  0  0  0  0  0  0  0  0  0  0
   -1.9940    1.3525    1.1666 O   0  0  0  0  0  0  0  0  0  0  0  0
   -1.0732   -0.1319    2.7923 C   0  0  0  0  0  0  0  0  0  0  0  0
    0.3233    0.4485    2.5825 C   0  0  0  0  0  0  0  0  0  0  0  0
    1.2019    0.0473    3.6885 N   0  0  0  0  0  0  0  0  0  0  0  0
    2.6479    0.8807    3.9234 S   0  0  0  0  0  6  0  0  0  0  0  0
    3.3842    0.1421    4.9241 O   0  0  0  0  0  0  0  0  0  0  0  0
    2.3425    2.2866    4.0726 O   0  0  0  0  0  0  0  0  0  0  0  0
    3.4700    0.6505    2.3627 C   0  0  0  0  0  0  0  0  0  0  0  0
    4.1658   -0.5387    2.1241 C   0  0  0  0  0  0  0  0  0  0  0  0
    4.7753   -0.7410    0.8851 C   0  0  0  0  0  0  0  0  0  0  0  0
    4.7033    0.2518   -0.0933 C   0  0  0  0  0  0  0  0  0  0  0  0
    4.0240    1.4512    0.1499 C   0  0  0  0  0  0  0  0  0  0  0  0
    3.4045    1.6518    1.3884 C   0  0  0  0  0  0  0  0  0  0  0  0
    3.8723    2.4511   -0.9612 C   0  0  0  0  0  0  0  0  0  0  0  0
    5.0457    2.4005   -1.9254 C   0  0  0  0  0  0  0  0  0  0  0  0
    5.4007    0.9857   -2.3186 C   0  0  0  0  0  0  0  0  0  0  0  0
    5.8593    0.7060   -3.4253 O   0  0  0  0  0  0  0  0  0  0  0  0
    5.2892    0.0323   -1.3419 N   0  0  0  0  0  0  0  0  0  0  0  0
   -3.7135    0.1575   -0.8744 C   0  0  0  0  0  0  0  0  0  0  0  0
   -4.5083    0.0222   -2.0155 C   0  0  0  0  0  0  0  0  0  0  0  0
   -4.9127    1.0394   -2.8375 O   0  0  0  0  0  0  0  0  0  0  0  0
   -4.6585    2.3665   -2.3875 C   0  0  0  0  0  0  0  0  0  0  0  0
   -4.9449   -1.2451   -2.4015 C   0  0  0  0  0  0  0  0  0  0  0  0
   -3.7686   -4.9270   -1.3483 H   0  0  0  0  0  0  0  0  0  0  0  0
   -5.3031   -5.5631   -1.9460 H   0  0  0  0  0  0  0  0  0  0  0  0
   -5.2892   -4.6840   -0.4148 H   0  0  0  0  0  0  0  0  0  0  0  0
   -3.5735   -3.0943    0.0891 H   0  0  0  0  0  0  0  0  0  0  0  0
   -2.4118   -1.7966    1.5128 H   0  0  0  0  0  0  0  0  0  0  0  0
   -1.0156   -1.2173    2.9518 H   0  0  0  0  0  0  0  0  0  0  0  0
   -1.5506    0.3028    3.6819 H   0  0  0  0  0  0  0  0  0  0  0  0
    0.2719    1.5415    2.5170 H   0  0  0  0  0  0  0  0  0  0  0  0
    0.7361    0.0646    1.6418 H   0  0  0  0  0  0  0  0  0  0  0  0
    1.2722   -0.9361    3.9375 H   0  0  0  0  0  0  0  0  0  0  0  0
    4.2312   -1.3079    2.8911 H   0  0  0  0  0  0  0  0  0  0  0  0
    5.3060   -1.6694    0.6958 H   0  0  0  0  0  0  0  0  0  0  0  0
    2.8561    2.5716    1.5830 H   0  0  0  0  0  0  0  0  0  0  0  0
    3.7915    3.4630   -0.5526 H   0  0  0  0  0  0  0  0  0  0  0  0
    2.9406    2.2306   -1.4931 H   0  0  0  0  0  0  0  0  0  0  0  0
    5.9382    2.8488   -1.4711 H   0  0  0  0  0  0  0  0  0  0  0  0
    4.8048    2.9719   -2.8298 H   0  0  0  0  0  0  0  0  0  0  0  0
    5.6573   -0.8796   -1.5809 H   0  0  0  0  0  0  0  0  0  0  0  0
   -3.3600    1.1383   -0.5865 H   0  0  0  0  0  0  0  0  0  0  0  0
   -3.5839    2.5770   -2.3731 H   0  0  0  0  0  0  0  0  0  0  0  0
   -5.1225    3.0554   -3.1000 H   0  0  0  0  0  0  0  0  0  0  0  0
   -5.1121    2.5463   -1.4059 H   0  0  0  0  0  0  0  0  0  0  0  0
   -5.5530   -1.3514   -3.2971 H   0  0  0  0  0  0  0  0  0  0  0  0
  1  2  1  0
  2  3  1  0
  3  4  2  0
  4  5  1  0
  5  6  1  0
  6  7  1  0
  7  8  2  0
  7  9  1  0
  9 10  1  0
 10 11  1  0
 11 12  1  0
 12 13  2  0
 12 14  2  0
 12 15  1  0
 15 16  2  0
 16 17  1  0
 17 18  2  0
 18 19  1  0
 19 20  2  0
 19 21  1  0
 21 22  1  0
 22 23  1  0
 23 24  2  0
 23 25  1  0
  5 26  2  0
 26 27  1  0
 27 28  1  0
 28 29  1  0
 27 30  2  0
 30  3  1  0
 20 15  1  0
 25 18  1  0
  1 31  1  0
  1 32  1  0
  1 33  1  0
  4 34  1  0
  6 35  1  0
  9 36  1  0
  9 37  1  0
 10 38  1  0
 10 39  1  0
 11 40  1  0
 16 41  1  0
 17 42  1  0
 20 43  1  0
 21 44  1  0
 21 45  1  0
 22 46  1  0
 22 47  1  0
 25 48  1  0
 26 49  1  0
 29 50  1  0
 29 51  1  0
 29 52  1  0
 30 53  1  0
M  END
$$$$
