
     RDKit          3D

 57 61  0  0  0  0  0  0  0  0999 V2000
    5.9492    2.2290    0.3467 C   0  0  0  0  0  0  0  0  0  0  0  0
    4.9509    1.1829   -0.1594 C   0  0  0  0  0  0  0  0  0  0  0  0
    5.6850   -0.1273   -0.4371 C   0  0  0  0  0  0  0  0  0  0  0  0
    3.8277    0.9699    0.8624 C   0  0  0  0  0  0  0  0  0  0  0  0
    3.9242    1.4202    2.0072 O   0  0  0  0  0  0  0  0  0  0  0  0
    2.7078    0.2341    0.4824 N   0  0  0  0  0  0  0  0  0  0  0  0
    2.3729   -0.1566   -0.8881 C   0  0  0  0  0  0  0  0  0  0  0  0
    0.8712   -0.0417   -1.1326 C   0  0  0  0  0  0  0  0  0  0  0  0
    0.0788   -1.0164   -0.2202 C   0  0  0  0  0  0  0  0  0  0  0  0
    0.7938   -1.2026    1.1460 C   0  0  0  0  0  0  0  0  0  0  0  0
    1.7114   -0.0429    1.5126 C   0  0  0  0  0  0  0  0  0  0  0  0
    0.1881   -2.2828   -0.9353 O   0  0  0  0  0  0  0  0  0  0  0  0
   -0.7182   -3.2589   -0.6490 C   0  0  0  0  0  0  0  0  0  0  0  0
   -0.4203   -4.5328   -1.1371 C   0  0  0  0  0  0  0  0  0  0  0  0
   -1.2806   -5.6006   -0.8757 C   0  0  0  0  0  0  0  0  0  0  0  0
   -2.4353   -5.3859   -0.1304 C   0  0  0  0  0  0  0  0  0  0  0  0
   -3.2558   -6.4132    0.1222 F   0  0  0  0  0  0  0  0  0  0  0  0
   -2.7509   -4.1228    0.3517 C   0  0  0  0  0  0  0  0  0  0  0  0
   -1.8881   -3.0585    0.0763 C   0  0  0  0  0  0  0  0  0  0  0  0
   -2.2007   -1.7051    0.5501 C   0  0  0  0  0  0  0  0  0  0  0  0
   -3.0531   -1.5475    1.4205 O   0  0  0  0  0  0  0  0  0  0  0  0
   -1.4047   -0.5695   -0.0864 C   0  0  0  0  0  0  0  0  0  0  0  0
   -1.6320    0.7358    0.6636 C   0  0  0  0  0  0  0  0  0  0  0  0
   -2.7443    1.2826   -0.1666 C   0  0  0  0  0  0  0  0  0  0  0  0
   -3.5736    2.4271    0.2794 C   0  0  0  0  0  0  0  0  0  0  0  0
   -4.6574    2.8275   -0.5144 C   0  0  0  0  0  0  0  0  0  0  0  0
   -5.4579    3.9051   -0.1253 C   0  0  0  0  0  0  0  0  0  0  0  0
   -5.1749    4.5845    1.0570 C   0  0  0  0  0  0  0  0  0  0  0  0
   -6.1572    5.9118    1.5380 Cl  0  0  0  0  0  0  0  0  0  0  0  0
   -4.0981    4.1957    1.8527 C   0  0  0  0  0  0  0  0  0  0  0  0
   -3.2954    3.1172    1.4653 C   0  0  0  0  0  0  0  0  0  0  0  0
   -2.8986    0.7030   -1.3146 N   0  0  0  0  0  0  0  0  0  0  0  0
   -1.9552   -0.3438   -1.3953 O   0  0  0  0  0  0  0  0  0  0  0  0
    6.7216    2.4248   -0.4046 H   0  0  0  0  0  0  0  0  0  0  0  0
    6.4464    1.8995    1.2658 H   0  0  0  0  0  0  0  0  0  0  0  0
    5.4434    3.1764    0.5631 H   0  0  0  0  0  0  0  0  0  0  0  0
    4.5247    1.5816   -1.0845 H   0  0  0  0  0  0  0  0  0  0  0  0
    6.0929   -0.5529    0.4867 H   0  0  0  0  0  0  0  0  0  0  0  0
    5.0268   -0.8808   -0.8771 H   0  0  0  0  0  0  0  0  0  0  0  0
    6.5150    0.0311   -1.1339 H   0  0  0  0  0  0  0  0  0  0  0  0
    2.7100   -1.1895   -1.0294 H   0  0  0  0  0  0  0  0  0  0  0  0
    2.8993    0.4672   -1.6120 H   0  0  0  0  0  0  0  0  0  0  0  0
    0.5782    0.9997   -0.9646 H   0  0  0  0  0  0  0  0  0  0  0  0
    0.6708   -0.2634   -2.1886 H   0  0  0  0  0  0  0  0  0  0  0  0
    0.0693   -1.3506    1.9549 H   0  0  0  0  0  0  0  0  0  0  0  0
    1.3995   -2.1191    1.1226 H   0  0  0  0  0  0  0  0  0  0  0  0
    2.2201   -0.2685    2.4573 H   0  0  0  0  0  0  0  0  0  0  0  0
    1.1388    0.8770    1.6718 H   0  0  0  0  0  0  0  0  0  0  0  0
    0.4853   -4.6967   -1.7162 H   0  0  0  0  0  0  0  0  0  0  0  0
   -1.0579   -6.5965   -1.2467 H   0  0  0  0  0  0  0  0  0  0  0  0
   -3.6630   -3.9767    0.9229 H   0  0  0  0  0  0  0  0  0  0  0  0
   -0.7980    1.4374    0.5952 H   0  0  0  0  0  0  0  0  0  0  0  0
   -1.9058    0.6073    1.7132 H   0  0  0  0  0  0  0  0  0  0  0  0
   -4.8884    2.3020   -1.4395 H   0  0  0  0  0  0  0  0  0  0  0  0
   -6.2968    4.2049   -0.7481 H   0  0  0  0  0  0  0  0  0  0  0  0
   -3.8785    4.7276    2.7753 H   0  0  0  0  0  0  0  0  0  0  0  0
   -2.4622    2.8407    2.1045 H   0  0  0  0  0  0  0  0  0  0  0  0
  1  2  1  0
  2  3  1  0
  2  4  1  0
  4  5  2  0
  4  6  1  0
  6  7  1  0
  7  8  1  0
  8  9  1  0
  9 10  1  0
 10 11  1  0
  9 12  1  0
 12 13  1  0
 13 14  2  0
 14 15  1  0
 15 16  2  0
 16 17  1  0
 16 18  1  0
 18 19  2  0
 19 20  1  0
 20 21  2  0
 20 22  1  0
 22 23  1  0
 23 24  1  0
 24 25  1  0
 25 26  2  0
 26 27  1  0
 27 28  2  0
 28 29  1  0
 28 30  1  0
 30 31  2  0
 24 32  2  0
 32 33  1  0
 11  6  1  0
 19 13  1  0
 33 22  1  0
 22  9  1  0
 31 25  1  0
  1 34  1  0
  1 35  1  0
  1 36  1  0
  2 37  1  0
  3 38  1  0
  3 39  1  0
  3 40  1  0
  7 41  1  0
  7 42  1  0
  8 43  1  0
  8 44  1  0
 10 45  1  0
 10 46  1  0
 11 47  1  0
 11 48  1  0
 14 49  1  0
 15 50  1  0
 18 51  1  0
 23 52  1  0
 23 53  1  0
 26 54  1  0
 27 55  1  0
 30 56  1  0
 31 57  1  0
M  END
$$$$
