
     RDKit          3D

 56 59  0  0  0  0  0  0  0  0999 V2000
   -3.2058   -4.9168    0.2488 C   0  0  0  0  0  0  0  0  0  0  0  0
   -2.4185   -3.6939    0.7000 C   0  0  0  0  0  0  0  0  0  0  0  0
   -1.9040   -2.8499   -0.4775 C   0  0  0  0  0  0  0  0  0  0  0  0
   -3.0710   -2.1403   -1.1996 C   0  0  0  0  0  0  0  0  0  0  0  0
   -3.6332   -2.6740   -2.1485 O   0  0  0  0  0  0  0  0  0  0  0  0
   -3.4448   -0.9632   -0.5750 N   0  0  0  0  0  0  0  0  0  0  0  0
   -4.5070   -0.0823   -0.8689 C   0  0  0  0  0  0  0  0  0  0  0  0
   -4.4923    1.1392   -0.1780 C   0  0  0  0  0  0  0  0  0  0  0  0
   -5.4920    2.0865   -0.3942 C   0  0  0  0  0  0  0  0  0  0  0  0
   -5.4497    3.2473    0.2727 F   0  0  0  0  0  0  0  0  0  0  0  0
   -6.5275    1.8480   -1.2868 C   0  0  0  0  0  0  0  0  0  0  0  0
   -6.5633    0.6347   -1.9684 C   0  0  0  0  0  0  0  0  0  0  0  0
   -5.5644   -0.3224   -1.7578 C   0  0  0  0  0  0  0  0  0  0  0  0
   -5.7047   -1.4820   -2.4075 F   0  0  0  0  0  0  0  0  0  0  0  0
   -0.9125   -1.8415   -0.0324 N   0  0  0  0  0  0  0  0  0  0  0  0
   -1.1927   -1.1442    1.1605 N   0  0  0  0  0  0  0  0  0  0  0  0
   -0.3660   -0.2496    1.6312 C   0  0  0  0  0  0  0  0  0  0  0  0
   -0.7121    0.4232    2.9287 C   0  0  0  0  0  0  0  0  0  0  0  0
    0.8252    0.0737    0.8884 C   0  0  0  0  0  0  0  0  0  0  0  0
    1.8422    1.0008    1.0507 C   0  0  0  0  0  0  0  0  0  0  0  0
    1.9780    2.1072    2.0336 C   0  0  0  0  0  0  0  0  0  0  0  0
    2.7556    0.7351    0.0203 N   0  0  0  0  0  0  0  0  0  0  0  0
    4.0833    1.2195   -0.2000 C   0  0  0  0  0  0  0  0  0  0  0  0
    4.6682    1.0410   -1.4657 C   0  0  0  0  0  0  0  0  0  0  0  0
    5.9664    1.4918   -1.7254 C   0  0  0  0  0  0  0  0  0  0  0  0
    6.7085    2.1262   -0.7267 C   0  0  0  0  0  0  0  0  0  0  0  0
    8.1138    2.5796   -0.9906 C   0  0  0  0  0  0  0  0  0  0  0  0
    6.1443    2.2701    0.5447 C   0  0  0  0  0  0  0  0  0  0  0  0
    4.8438    1.8194    0.8090 C   0  0  0  0  0  0  0  0  0  0  0  0
    2.2252   -0.1387   -0.8775 N   0  0  0  0  0  0  0  0  0  0  0  0
    1.0992   -0.5799   -0.3168 C   0  0  0  0  0  0  0  0  0  0  0  0
    0.2041   -1.5914   -0.8636 C   0  0  0  0  0  0  0  0  0  0  0  0
    0.3998   -2.1656   -1.9315 O   0  0  0  0  0  0  0  0  0  0  0  0
   -2.6151   -5.5355   -0.4346 H   0  0  0  0  0  0  0  0  0  0  0  0
   -3.4738   -5.5310    1.1146 H   0  0  0  0  0  0  0  0  0  0  0  0
   -4.1337   -4.6303   -0.2557 H   0  0  0  0  0  0  0  0  0  0  0  0
   -3.0526   -3.0942    1.3629 H   0  0  0  0  0  0  0  0  0  0  0  0
   -1.5660   -4.0360    1.2993 H   0  0  0  0  0  0  0  0  0  0  0  0
   -1.4213   -3.5058   -1.2108 H   0  0  0  0  0  0  0  0  0  0  0  0
   -2.7942   -0.6792    0.1572 H   0  0  0  0  0  0  0  0  0  0  0  0
   -3.7043    1.3811    0.5279 H   0  0  0  0  0  0  0  0  0  0  0  0
   -7.2966    2.5966   -1.4390 H   0  0  0  0  0  0  0  0  0  0  0  0
   -7.3681    0.4125   -2.6626 H   0  0  0  0  0  0  0  0  0  0  0  0
    0.1642    0.4660    3.5815 H   0  0  0  0  0  0  0  0  0  0  0  0
   -1.0749    1.4342    2.7279 H   0  0  0  0  0  0  0  0  0  0  0  0
   -1.5009   -0.1326    3.4446 H   0  0  0  0  0  0  0  0  0  0  0  0
    0.9991    2.4558    2.3727 H   0  0  0  0  0  0  0  0  0  0  0  0
    2.5364    1.7766    2.9146 H   0  0  0  0  0  0  0  0  0  0  0  0
    2.4636    2.9836    1.5952 H   0  0  0  0  0  0  0  0  0  0  0  0
    4.1207    0.5545   -2.2724 H   0  0  0  0  0  0  0  0  0  0  0  0
    6.3907    1.3396   -2.7168 H   0  0  0  0  0  0  0  0  0  0  0  0
    8.2641    2.7962   -2.0540 H   0  0  0  0  0  0  0  0  0  0  0  0
    8.8217    1.8018   -0.6866 H   0  0  0  0  0  0  0  0  0  0  0  0
    8.3341    3.4983   -0.4371 H   0  0  0  0  0  0  0  0  0  0  0  0
    6.7218    2.7252    1.3471 H   0  0  0  0  0  0  0  0  0  0  0  0
    4.4894    1.9153    1.8276 H   0  0  0  0  0  0  0  0  0  0  0  0
  1  2  1  0
  2  3  1  0
  3  4  1  0
  4  5  2  0
  4  6  1  0
  6  7  1  0
  7  8  2  0
  8  9  1  0
  9 10  1  0
  9 11  2  0
 11 12  1  0
 12 13  2  0
 13 14  1  0
  3 15  1  0
 15 16  1  0
 16 17  2  0
 17 18  1  0
 17 19  1  0
 19 20  2  0
 20 21  1  0
 20 22  1  0
 22 23  1  0
 23 24  2  0
 24 25  1  0
 25 26  2  0
 26 27  1  0
 26 28  1  0
 28 29  2  0
 22 30  1  0
 30 31  2  0
 31 32  1  0
 32 33  2  0
 13  7  1  0
 32 15  1  0
 31 19  1  0
 29 23  1  0
  1 34  1  0
  1 35  1  0
  1 36  1  0
  2 37  1  0
  2 38  1  0
  3 39  1  0
  6 40  1  0
  8 41  1  0
 11 42  1  0
 12 43  1  0
 18 44  1  0
 18 45  1  0
 18 46  1  0
 21 47  1  0
 21 48  1  0
 21 49  1  0
 24 50  1  0
 25 51  1  0
 27 52  1  0
 27 53  1  0
 27 54  1  0
 28 55  1  0
 29 56  1  0
M  END
$$$$
