
     RDKit          3D

 37 39  0  0  0  0  0  0  0  0999 V2000
    6.4303   -0.2428    0.3784 C   0  0  0  0  0  0  0  0  0  0  0  0
    5.3355    0.0627   -0.4777 O   0  0  0  0  0  0  0  0  0  0  0  0
    4.0776   -0.0644    0.0475 C   0  0  0  0  0  0  0  0  0  0  0  0
    3.7734   -0.4850    1.3491 C   0  0  0  0  0  0  0  0  0  0  0  0
    2.4443   -0.5745    1.7710 C   0  0  0  0  0  0  0  0  0  0  0  0
    1.4397   -0.2409    0.8750 C   0  0  0  0  0  0  0  0  0  0  0  0
    1.7188    0.1836   -0.4399 C   0  0  0  0  0  0  0  0  0  0  0  0
    3.0467    0.2692   -0.8443 C   0  0  0  0  0  0  0  0  0  0  0  0
    0.5672    0.4739   -1.2055 N   0  0  0  0  0  0  0  0  0  0  0  0
    0.7341    1.1066   -2.5035 C   0  0  0  0  0  0  0  0  0  0  0  0
   -0.6011    0.3350   -0.4539 C   0  0  0  0  0  0  0  0  0  0  0  0
   -1.8566    0.5853   -0.8712 C   0  0  0  0  0  0  0  0  0  0  0  0
   -3.0685    0.4295   -0.0617 C   0  0  0  0  0  0  0  0  0  0  0  0
   -3.5582    1.5250    0.6594 C   0  0  0  0  0  0  0  0  0  0  0  0
   -4.6961    1.3887    1.4430 C   0  0  0  0  0  0  0  0  0  0  0  0
   -5.3314    0.1588    1.5015 C   0  0  0  0  0  0  0  0  0  0  0  0
   -4.8209   -0.9085    0.7732 C   0  0  0  0  0  0  0  0  0  0  0  0
   -3.7172   -0.7664    0.0007 N   0  0  0  0  0  4  0  0  0  0  0  0
   -3.2209   -1.9402   -0.7467 C   0  0  0  0  0  0  0  0  0  0  0  0
   -0.3149   -0.2628    1.2100 S   0  0  0  0  0  0  0  0  0  0  0  0
    6.4065   -1.2927    0.6885 H   0  0  0  0  0  0  0  0  0  0  0  0
    7.3524   -0.0836   -0.1887 H   0  0  0  0  0  0  0  0  0  0  0  0
    6.4518    0.4261    1.2450 H   0  0  0  0  0  0  0  0  0  0  0  0
    4.5520   -0.7477    2.0589 H   0  0  0  0  0  0  0  0  0  0  0  0
    2.2112   -0.8944    2.7818 H   0  0  0  0  0  0  0  0  0  0  0  0
    3.3163    0.5905   -1.8451 H   0  0  0  0  0  0  0  0  0  0  0  0
   -0.2122    1.1876   -3.0464 H   0  0  0  0  0  0  0  0  0  0  0  0
    1.1396    2.1182   -2.3915 H   0  0  0  0  0  0  0  0  0  0  0  0
    1.4030    0.5225   -3.1452 H   0  0  0  0  0  0  0  0  0  0  0  0
   -2.0415    0.9504   -1.8760 H   0  0  0  0  0  0  0  0  0  0  0  0
   -3.0453    2.4851    0.6219 H   0  0  0  0  0  0  0  0  0  0  0  0
   -5.0779    2.2357    2.0115 H   0  0  0  0  0  0  0  0  0  0  0  0
   -6.2194    0.0293    2.1171 H   0  0  0  0  0  0  0  0  0  0  0  0
   -5.2940   -1.8863    0.8063 H   0  0  0  0  0  0  0  0  0  0  0  0
   -3.9751   -2.7316   -0.7351 H   0  0  0  0  0  0  0  0  0  0  0  0
   -3.0392   -1.6474   -1.7838 H   0  0  0  0  0  0  0  0  0  0  0  0
   -2.3099   -2.2948   -0.2601 H   0  0  0  0  0  0  0  0  0  0  0  0
  1  2  1  0
  2  3  1  0
  3  4  2  0
  4  5  1  0
  5  6  2  0
  6  7  1  0
  7  8  2  0
  7  9  1  0
  9 10  1  0
  9 11  1  0
 11 12  2  3
 12 13  1  0
 13 14  2  0
 14 15  1  0
 15 16  2  0
 16 17  1  0
 17 18  2  0
 18 19  1  0
 11 20  1  0
  8  3  1  0
 18 13  1  0
 20  6  1  0
  1 21  1  0
  1 22  1  0
  1 23  1  0
  4 24  1  0
  5 25  1  0
  8 26  1  0
 10 27  1  0
 10 28  1  0
 10 29  1  0
 12 30  1  0
 14 31  1  0
 15 32  1  0
 16 33  1  0
 17 34  1  0
 19 35  1  0
 19 36  1  0
 19 37  1  0
M  CHG  1  18   1
M  END
$$$$
