
     RDKit          3D

 44 46  0  0  0  0  0  0  0  0999 V2000
   -3.6284   -0.4918   -1.5702 C   0  0  0  0  0  0  0  0  0  0  0  0
   -2.7318   -0.3477   -0.3706 C   0  0  0  0  0  0  0  0  0  0  0  0
   -1.9104    0.7877   -0.2619 C   0  0  0  0  0  0  0  0  0  0  0  0
   -1.0378    0.9833    0.8245 C   0  0  0  0  0  0  0  0  0  0  0  0
   -0.2187    2.2421    0.8482 C   0  0  0  0  0  0  0  0  0  0  0  0
   -0.9950   -0.0071    1.8171 C   0  0  0  0  0  0  0  0  0  0  0  0
    0.0827    0.0614    3.2470 S   0  0  0  0  0  6  0  0  0  0  0  0
    0.5985    1.4004    3.4237 O   0  0  0  0  0  0  0  0  0  0  0  0
   -0.6091   -0.6094    4.3302 O   0  0  0  0  0  0  0  0  0  0  0  0
    1.3529   -0.9761    2.8027 N   0  0  0  0  0  0  0  0  0  0  0  0
    2.1394   -0.6201    1.6713 C   0  0  0  0  0  0  0  0  0  0  0  0
    3.1357    0.3452    1.8076 C   0  0  0  0  0  0  0  0  0  0  0  0
    3.8827    0.7384    0.6974 C   0  0  0  0  0  0  0  0  0  0  0  0
    3.6101    0.1783   -0.5515 C   0  0  0  0  0  0  0  0  0  0  0  0
    4.3510    0.5632   -1.6363 O   0  0  0  0  0  0  0  0  0  0  0  0
    2.5892   -0.7719   -0.7042 C   0  0  0  0  0  0  0  0  0  0  0  0
    2.1712   -1.4902   -2.2841 S   0  0  0  0  0  0  0  0  0  0  0  0
    1.4113   -0.1475   -3.1030 C   0  0  0  0  0  0  0  0  0  0  0  0
    0.9489    0.9866   -2.4802 N   0  0  0  0  0  0  0  0  0  0  0  0
    0.4714    1.6986   -3.4727 C   0  0  0  0  0  0  0  0  0  0  0  0
    0.6217    1.0125   -4.6343 N   0  0  0  0  0  0  0  0  0  0  0  0
    1.1968   -0.1795   -4.4248 N   0  0  0  0  0  0  0  0  0  0  0  0
    1.8654   -1.1803    0.4235 C   0  0  0  0  0  0  0  0  0  0  0  0
   -1.8264   -1.1397    1.7254 C   0  0  0  0  0  0  0  0  0  0  0  0
   -2.6847   -1.3281    0.6332 C   0  0  0  0  0  0  0  0  0  0  0  0
   -3.5540   -2.5544    0.5809 C   0  0  0  0  0  0  0  0  0  0  0  0
   -4.6628   -0.6662   -1.2555 H   0  0  0  0  0  0  0  0  0  0  0  0
   -3.2906   -1.3237   -2.1964 H   0  0  0  0  0  0  0  0  0  0  0  0
   -3.6256    0.4137   -2.1865 H   0  0  0  0  0  0  0  0  0  0  0  0
   -1.9464    1.5389   -1.0504 H   0  0  0  0  0  0  0  0  0  0  0  0
   -0.3511    2.8237   -0.0716 H   0  0  0  0  0  0  0  0  0  0  0  0
    0.8476    2.0193    0.9202 H   0  0  0  0  0  0  0  0  0  0  0  0
   -0.5331    2.8837    1.6766 H   0  0  0  0  0  0  0  0  0  0  0  0
    1.0624   -1.9502    2.8691 H   0  0  0  0  0  0  0  0  0  0  0  0
    3.3324    0.7946    2.7785 H   0  0  0  0  0  0  0  0  0  0  0  0
    4.6626    1.4828    0.8247 H   0  0  0  0  0  0  0  0  0  0  0  0
    4.9405    1.2900   -1.3771 H   0  0  0  0  0  0  0  0  0  0  0  0
    0.0230    2.6794   -3.4118 H   0  0  0  0  0  0  0  0  0  0  0  0
    0.3675    1.2818   -5.5782 H   0  0  0  0  0  0  0  0  0  0  0  0
    1.0712   -1.9139    0.3154 H   0  0  0  0  0  0  0  0  0  0  0  0
   -1.8045   -1.8893    2.5156 H   0  0  0  0  0  0  0  0  0  0  0  0
   -4.5996   -2.2823    0.7560 H   0  0  0  0  0  0  0  0  0  0  0  0
   -3.2621   -3.2847    1.3434 H   0  0  0  0  0  0  0  0  0  0  0  0
   -3.4641   -3.0515   -0.3905 H   0  0  0  0  0  0  0  0  0  0  0  0
  1  2  1  0
  2  3  2  0
  3  4  1  0
  4  5  1  0
  4  6  2  0
  6  7  1  0
  7  8  2  0
  7  9  2  0
  7 10  1  0
 10 11  1  0
 11 12  2  0
 12 13  1  0
 13 14  2  0
 14 15  1  0
 14 16  1  0
 16 17  1  0
 17 18  1  0
 18 19  1  0
 19 20  2  0
 20 21  1  0
 21 22  1  0
 16 23  2  0
  6 24  1  0
 24 25  2  0
 25 26  1  0
 25  2  1  0
 23 11  1  0
 22 18  2  0
  1 27  1  0
  1 28  1  0
  1 29  1  0
  3 30  1  0
  5 31  1  0
  5 32  1  0
  5 33  1  0
 10 34  1  0
 12 35  1  0
 13 36  1  0
 15 37  1  0
 20 38  1  0
 21 39  1  0
 23 40  1  0
 24 41  1  0
 26 42  1  0
 26 43  1  0
 26 44  1  0
M  END
$$$$
