
     RDKit          3D

 58 63  0  0  0  0  0  0  0  0999 V2000
    7.7850    1.0898   -0.1607 C   0  0  0  0  0  0  0  0  0  0  0  0
    6.7339    0.1596    0.3392 C   0  0  0  0  0  0  0  0  0  0  0  0
    6.7679   -1.2170    0.4057 C   0  0  0  0  0  0  0  0  0  0  0  0
    5.5724   -1.7570    0.9618 C   0  0  0  0  0  0  0  0  0  0  0  0
    4.6415   -0.7816    1.2644 C   0  0  0  0  0  0  0  0  0  0  0  0
    3.3406   -0.9835    1.8864 C   0  0  0  0  0  0  0  0  0  0  0  0
    3.2095   -1.7545    2.8390 O   0  0  0  0  0  0  0  0  0  0  0  0
    2.2191   -0.3183    1.3627 N   0  0  0  0  0  0  0  0  0  0  0  0
    2.1571    0.2214    0.0060 C   0  0  0  0  0  0  0  0  0  0  0  0
    0.7613    0.0669   -0.5935 C   0  0  0  0  0  0  0  0  0  0  0  0
   -0.2913    0.8487    0.2339 C   0  0  0  0  0  0  0  0  0  0  0  0
   -0.0042    0.6989    1.7594 C   0  0  0  0  0  0  0  0  0  0  0  0
    0.9646   -0.4305    2.0942 C   0  0  0  0  0  0  0  0  0  0  0  0
   -0.0767    2.2706   -0.0097 O   0  0  0  0  0  0  0  0  0  0  0  0
   -0.6253    2.8215   -1.1299 C   0  0  0  0  0  0  0  0  0  0  0  0
   -0.2040    4.1123   -1.4481 C   0  0  0  0  0  0  0  0  0  0  0  0
   -0.6915    4.7460   -2.5942 C   0  0  0  0  0  0  0  0  0  0  0  0
   -1.6020    4.0858   -3.4196 C   0  0  0  0  0  0  0  0  0  0  0  0
   -2.1938    4.8678   -4.8325 Cl  0  0  0  0  0  0  0  0  0  0  0  0
   -2.0364    2.8012   -3.1055 C   0  0  0  0  0  0  0  0  0  0  0  0
   -1.5502    2.1827   -1.9498 C   0  0  0  0  0  0  0  0  0  0  0  0
   -2.0016    0.8366   -1.5752 C   0  0  0  0  0  0  0  0  0  0  0  0
   -2.5247    0.1101   -2.4151 O   0  0  0  0  0  0  0  0  0  0  0  0
   -1.7478    0.4387   -0.1266 C   0  0  0  0  0  0  0  0  0  0  0  0
   -2.0963   -1.0197    0.1235 C   0  0  0  0  0  0  0  0  0  0  0  0
   -3.5013   -0.8409    0.5915 C   0  0  0  0  0  0  0  0  0  0  0  0
   -4.4453   -1.9774    0.7034 C   0  0  0  0  0  0  0  0  0  0  0  0
   -5.7759   -1.7203    1.0570 C   0  0  0  0  0  0  0  0  0  0  0  0
   -6.6890   -2.7700    1.1738 C   0  0  0  0  0  0  0  0  0  0  0  0
   -6.2773   -4.0806    0.9403 C   0  0  0  0  0  0  0  0  0  0  0  0
   -4.9534   -4.3435    0.5908 C   0  0  0  0  0  0  0  0  0  0  0  0
   -4.0361   -3.2957    0.4725 C   0  0  0  0  0  0  0  0  0  0  0  0
   -3.8098    0.3731    0.9221 N   0  0  0  0  0  0  0  0  0  0  0  0
   -2.6780    1.1815    0.6807 O   0  0  0  0  0  0  0  0  0  0  0  0
    5.2691    0.7829    0.9659 S   0  0  0  0  0  0  0  0  0  0  0  0
    8.2450    1.6319    0.6722 H   0  0  0  0  0  0  0  0  0  0  0  0
    8.5753    0.5403   -0.6835 H   0  0  0  0  0  0  0  0  0  0  0  0
    7.3655    1.8169   -0.8636 H   0  0  0  0  0  0  0  0  0  0  0  0
    7.6166   -1.8115    0.0889 H   0  0  0  0  0  0  0  0  0  0  0  0
    5.3959   -2.8124    1.1320 H   0  0  0  0  0  0  0  0  0  0  0  0
    2.4338    1.2800    0.0540 H   0  0  0  0  0  0  0  0  0  0  0  0
    2.8787   -0.2959   -0.6344 H   0  0  0  0  0  0  0  0  0  0  0  0
    0.5094   -0.9998   -0.6306 H   0  0  0  0  0  0  0  0  0  0  0  0
    0.7958    0.4256   -1.6285 H   0  0  0  0  0  0  0  0  0  0  0  0
   -0.9276    0.5429    2.3279 H   0  0  0  0  0  0  0  0  0  0  0  0
    0.4224    1.6332    2.1502 H   0  0  0  0  0  0  0  0  0  0  0  0
    0.5315   -1.4079    1.8550 H   0  0  0  0  0  0  0  0  0  0  0  0
    1.1693   -0.4277    3.1714 H   0  0  0  0  0  0  0  0  0  0  0  0
    0.5085    4.6261   -0.8070 H   0  0  0  0  0  0  0  0  0  0  0  0
   -0.3570    5.7518   -2.8368 H   0  0  0  0  0  0  0  0  0  0  0  0
   -2.7535    2.2891   -3.7425 H   0  0  0  0  0  0  0  0  0  0  0  0
   -1.5308   -1.4656    0.9447 H   0  0  0  0  0  0  0  0  0  0  0  0
   -2.0189   -1.6568   -0.7600 H   0  0  0  0  0  0  0  0  0  0  0  0
   -6.1116   -0.7015    1.2410 H   0  0  0  0  0  0  0  0  0  0  0  0
   -7.7209   -2.5624    1.4459 H   0  0  0  0  0  0  0  0  0  0  0  0
   -6.9891   -4.8976    1.0302 H   0  0  0  0  0  0  0  0  0  0  0  0
   -4.6357   -5.3677    0.4096 H   0  0  0  0  0  0  0  0  0  0  0  0
   -3.0127   -3.5363    0.2028 H   0  0  0  0  0  0  0  0  0  0  0  0
  1  2  1  0
  2  3  2  0
  3  4  1  0
  4  5  2  0
  5  6  1  0
  6  7  2  0
  6  8  1  0
  8  9  1  0
  9 10  1  0
 10 11  1  0
 11 12  1  0
 12 13  1  0
 11 14  1  0
 14 15  1  0
 15 16  2  0
 16 17  1  0
 17 18  2  0
 18 19  1  0
 18 20  1  0
 20 21  2  0
 21 22  1  0
 22 23  2  0
 22 24  1  0
 24 25  1  0
 25 26  1  0
 26 27  1  0
 27 28  2  0
 28 29  1  0
 29 30  2  0
 30 31  1  0
 31 32  2  0
 26 33  2  0
 33 34  1  0
  5 35  1  0
 35  2  1  0
 13  8  1  0
 21 15  1  0
 34 24  1  0
 24 11  1  0
 32 27  1  0
  1 36  1  0
  1 37  1  0
  1 38  1  0
  3 39  1  0
  4 40  1  0
  9 41  1  0
  9 42  1  0
 10 43  1  0
 10 44  1  0
 12 45  1  0
 12 46  1  0
 13 47  1  0
 13 48  1  0
 16 49  1  0
 17 50  1  0
 20 51  1  0
 25 52  1  0
 25 53  1  0
 28 54  1  0
 29 55  1  0
 30 56  1  0
 31 57  1  0
 32 58  1  0
M  END
$$$$
