
     RDKit          3D

 37 38  0  0  0  0  0  0  0  0999 V2000
   -5.3964   -0.6199   -2.6154 C   0  0  0  0  0  0  0  0  0  0  0  0
   -5.0184   -0.0276   -1.3327 N   0  0  0  0  0  0  0  0  0  0  0  0
   -6.0787    0.0248   -0.3268 C   0  0  0  0  0  0  0  0  0  0  0  0
   -3.6840   -0.0850   -0.9196 C   0  0  0  0  0  0  0  0  0  0  0  0
   -3.2956    0.1993    0.4007 C   0  0  0  0  0  0  0  0  0  0  0  0
   -1.9545    0.1652    0.8152 C   0  0  0  0  0  0  0  0  0  0  0  0
   -0.9373   -0.1358   -0.0888 C   0  0  0  0  0  0  0  0  0  0  0  0
    0.4530   -0.1829    0.3840 C   0  0  0  0  0  0  0  0  0  0  0  0
    1.4887    0.2950   -0.3252 C   0  0  0  0  0  0  0  0  0  0  0  0
    2.8816    0.2630    0.1350 C   0  0  0  0  0  0  0  0  0  0  0  0
    3.8974    0.0425   -0.7937 C   0  0  0  0  0  0  0  0  0  0  0  0
    5.2245    0.0360   -0.3785 C   0  0  0  0  0  0  0  0  0  0  0  0
    5.5409    0.2493    0.9180 N   0  0  0  0  0  4  0  0  0  0  0  0
    6.9540    0.2492    1.3328 C   0  0  0  0  0  0  0  0  0  0  0  0
    4.5757    0.4906    1.8325 C   0  0  0  0  0  0  0  0  0  0  0  0
    3.2357    0.5040    1.4617 C   0  0  0  0  0  0  0  0  0  0  0  0
   -1.2934   -0.4262   -1.4048 C   0  0  0  0  0  0  0  0  0  0  0  0
   -2.6384   -0.3906   -1.8075 C   0  0  0  0  0  0  0  0  0  0  0  0
   -5.1662   -1.6908   -2.6367 H   0  0  0  0  0  0  0  0  0  0  0  0
   -6.4700   -0.5091   -2.8053 H   0  0  0  0  0  0  0  0  0  0  0  0
   -4.8916   -0.1176   -3.4475 H   0  0  0  0  0  0  0  0  0  0  0  0
   -7.0691    0.0723   -0.7934 H   0  0  0  0  0  0  0  0  0  0  0  0
   -5.9952    0.9258    0.2904 H   0  0  0  0  0  0  0  0  0  0  0  0
   -6.0572   -0.8641    0.3134 H   0  0  0  0  0  0  0  0  0  0  0  0
   -4.0327    0.4611    1.1541 H   0  0  0  0  0  0  0  0  0  0  0  0
   -1.7269    0.3930    1.8537 H   0  0  0  0  0  0  0  0  0  0  0  0
    0.5876   -0.6280    1.3665 H   0  0  0  0  0  0  0  0  0  0  0  0
    1.3207    0.7368   -1.3065 H   0  0  0  0  0  0  0  0  0  0  0  0
    3.6636   -0.1331   -1.8424 H   0  0  0  0  0  0  0  0  0  0  0  0
    6.0391   -0.1356   -1.0765 H   0  0  0  0  0  0  0  0  0  0  0  0
    7.3245    1.2724    1.2325 H   0  0  0  0  0  0  0  0  0  0  0  0
    7.0230   -0.0907    2.3694 H   0  0  0  0  0  0  0  0  0  0  0  0
    7.5160   -0.4338    0.6906 H   0  0  0  0  0  0  0  0  0  0  0  0
    4.8851    0.6784    2.8569 H   0  0  0  0  0  0  0  0  0  0  0  0
    2.4777    0.7170    2.2130 H   0  0  0  0  0  0  0  0  0  0  0  0
   -0.5414   -0.6921   -2.1426 H   0  0  0  0  0  0  0  0  0  0  0  0
   -2.8417   -0.6126   -2.8509 H   0  0  0  0  0  0  0  0  0  0  0  0
  1  2  1  0
  2  3  1  0
  2  4  1  0
  4  5  2  0
  5  6  1  0
  6  7  2  0
  7  8  1  0
  8  9  2  3
  9 10  1  0
 10 11  2  0
 11 12  1  0
 12 13  2  0
 13 14  1  0
 13 15  1  0
 15 16  2  0
  7 17  1  0
 17 18  2  0
 18  4  1  0
 16 10  1  0
  1 19  1  0
  1 20  1  0
  1 21  1  0
  3 22  1  0
  3 23  1  0
  3 24  1  0
  5 25  1  0
  6 26  1  0
  8 27  1  0
  9 28  1  0
 11 29  1  0
 12 30  1  0
 14 31  1  0
 14 32  1  0
 14 33  1  0
 15 34  1  0
 16 35  1  0
 17 36  1  0
 18 37  1  0
M  CHG  1  13   1
M  END
$$$$
