
     RDKit          3D

 40 44  0  0  0  0  0  0  0  0999 V2000
   -8.5028   -1.7505   -0.1855 O   0  0  0  0  0  0  0  0  0  0  0  0
   -7.5927   -2.0492    0.5608 C   0  0  0  0  0  0  0  0  0  0  0  0
   -7.7257   -3.0558    1.4464 O   0  0  0  0  0  0  0  0  0  0  0  0
   -6.2528   -1.4243    0.6519 C   0  0  0  0  0  0  0  0  0  0  0  0
   -5.1483   -2.2288    0.9693 C   0  0  0  0  0  0  0  0  0  0  0  0
   -3.8636   -1.6787    1.0352 C   0  0  0  0  0  0  0  0  0  0  0  0
   -3.6490   -0.3164    0.7860 C   0  0  0  0  0  0  0  0  0  0  0  0
   -2.3103    0.2656    0.8517 C   0  0  0  0  0  0  0  0  0  0  0  0
   -1.7924    1.5251    0.6526 C   0  0  0  0  0  0  0  0  0  0  0  0
   -0.3979    1.4262    0.8811 C   0  0  0  0  0  0  0  0  0  0  0  0
   -0.1034    0.1048    1.1881 C   0  0  0  0  0  0  0  0  0  0  0  0
    1.1108   -0.5470    1.5308 C   0  0  0  0  0  0  0  0  0  0  0  0
    2.3180   -0.3309    0.9884 C   0  0  0  0  0  0  0  0  0  0  0  0
    3.7181   -1.2476    1.5560 S   0  0  0  0  0  0  0  0  0  0  0  0
    4.7191   -0.4360    0.4216 C   0  0  0  0  0  0  0  0  0  0  0  0
    5.9922   -0.5104    0.1528 N   0  0  0  0  0  0  0  0  0  0  0  0
    6.1555    0.4043   -0.8689 C   0  0  0  0  0  0  0  0  0  0  0  0
    7.3198    0.7578   -1.5669 C   0  0  0  0  0  0  0  0  0  0  0  0
    7.2339    1.7246   -2.5769 C   0  0  0  0  0  0  0  0  0  0  0  0
    6.0143    2.3302   -2.8892 C   0  0  0  0  0  0  0  0  0  0  0  0
    4.8392    1.9952   -2.2076 C   0  0  0  0  0  0  0  0  0  0  0  0
    4.9468    1.0282   -1.2028 C   0  0  0  0  0  0  0  0  0  0  0  0
    4.0452    0.4558   -0.3414 N   0  0  0  0  0  0  0  0  0  0  0  0
    2.6920    0.6025   -0.1221 C   0  0  0  0  0  0  0  0  0  0  0  0
    2.0208    1.3755   -0.7770 O   0  0  0  0  0  0  0  0  0  0  0  0
   -1.2977   -0.5826    1.1897 O   0  0  0  0  0  0  0  0  0  0  0  0
   -4.7596    0.4808    0.4717 C   0  0  0  0  0  0  0  0  0  0  0  0
   -6.0524   -0.0627    0.4041 C   0  0  0  0  0  0  0  0  0  0  0  0
   -7.3390    1.0378    0.0561 Cl  0  0  0  0  0  0  0  0  0  0  0  0
   -8.6441   -3.3699    1.3044 H   0  0  0  0  0  0  0  0  0  0  0  0
   -5.2762   -3.2926    1.1611 H   0  0  0  0  0  0  0  0  0  0  0  0
   -3.0284   -2.3325    1.2821 H   0  0  0  0  0  0  0  0  0  0  0  0
   -2.3414    2.4157    0.3819 H   0  0  0  0  0  0  0  0  0  0  0  0
    0.3117    2.2406    0.8267 H   0  0  0  0  0  0  0  0  0  0  0  0
    1.0050   -1.3211    2.2886 H   0  0  0  0  0  0  0  0  0  0  0  0
    8.2657    0.2859   -1.3233 H   0  0  0  0  0  0  0  0  0  0  0  0
    8.1308    2.0057   -3.1248 H   0  0  0  0  0  0  0  0  0  0  0  0
    5.9761    3.0780   -3.6795 H   0  0  0  0  0  0  0  0  0  0  0  0
    3.8912    2.4660   -2.4521 H   0  0  0  0  0  0  0  0  0  0  0  0
   -4.6287    1.5436    0.2791 H   0  0  0  0  0  0  0  0  0  0  0  0
  1  2  2  0
  2  3  1  0
  2  4  1  0
  4  5  2  0
  5  6  1  0
  6  7  2  0
  7  8  1  0
  8  9  2  0
  9 10  1  0
 10 11  2  0
 11 12  1  0
 12 13  2  3
 13 14  1  0
 14 15  1  0
 15 16  2  0
 16 17  1  0
 17 18  2  0
 18 19  1  0
 19 20  2  0
 20 21  1  0
 21 22  2  0
 22 23  1  0
 23 24  1  0
 24 25  2  0
 11 26  1  0
  7 27  1  0
 27 28  2  0
 28 29  1  0
 28  4  1  0
 26  8  1  0
 24 13  1  0
 23 15  1  0
 22 17  1  0
  3 30  1  0
  5 31  1  0
  6 32  1  0
  9 33  1  0
 10 34  1  0
 12 35  1  0
 18 36  1  0
 19 37  1  0
 20 38  1  0
 21 39  1  0
 27 40  1  0
M  END
$$$$
