
     RDKit          3D

 31 32  0  0  0  0  0  0  0  0999 V2000
   -4.3108    0.7228   -0.0382 C   0  0  0  0  0  0  0  0  0  0  0  0
   -2.9377    1.3280   -0.1705 C   0  0  0  0  0  0  0  0  0  0  0  0
   -2.8425    2.5308   -0.4253 O   0  0  0  0  0  0  0  0  0  0  0  0
   -1.7388    0.4866    0.0049 C   0  0  0  0  0  0  0  0  0  0  0  0
   -1.6651   -0.8135    0.4986 C   0  0  0  0  0  0  0  0  0  0  0  0
   -2.6884   -1.7642    1.0114 C   0  0  0  0  0  0  0  0  0  0  0  0
   -0.3440   -1.1903    0.4839 N   0  0  0  0  0  0  0  0  0  0  0  0
    0.4536   -0.1787    0.0157 C   0  0  0  0  0  0  0  0  0  0  0  0
    1.9054   -0.3257   -0.0541 C   0  0  0  0  0  0  0  0  0  0  0  0
    2.4803   -1.3729   -0.7850 C   0  0  0  0  0  0  0  0  0  0  0  0
    3.8684   -1.5187   -0.8395 C   0  0  0  0  0  0  0  0  0  0  0  0
    4.6915   -0.6204   -0.1622 C   0  0  0  0  0  0  0  0  0  0  0  0
    4.1285    0.4250    0.5678 C   0  0  0  0  0  0  0  0  0  0  0  0
    2.7407    0.5717    0.6216 C   0  0  0  0  0  0  0  0  0  0  0  0
   -0.3814    0.8819   -0.3050 C   0  0  0  0  0  0  0  0  0  0  0  0
    0.0345    2.1966   -0.8799 C   0  0  0  0  0  0  0  0  0  0  0  0
   -4.5058    0.4513    1.0012 H   0  0  0  0  0  0  0  0  0  0  0  0
   -5.0613    1.4593   -0.3431 H   0  0  0  0  0  0  0  0  0  0  0  0
   -4.4101   -0.1426   -0.6974 H   0  0  0  0  0  0  0  0  0  0  0  0
   -3.2470   -1.3199    1.8403 H   0  0  0  0  0  0  0  0  0  0  0  0
   -2.2293   -2.6858    1.3857 H   0  0  0  0  0  0  0  0  0  0  0  0
   -3.3868   -2.0461    0.2183 H   0  0  0  0  0  0  0  0  0  0  0  0
    0.0103   -2.0802    0.8088 H   0  0  0  0  0  0  0  0  0  0  0  0
    1.8520   -2.0713   -1.3323 H   0  0  0  0  0  0  0  0  0  0  0  0
    4.3070   -2.3293   -1.4155 H   0  0  0  0  0  0  0  0  0  0  0  0
    5.7717   -0.7322   -0.2064 H   0  0  0  0  0  0  0  0  0  0  0  0
    4.7681    1.1276    1.0954 H   0  0  0  0  0  0  0  0  0  0  0  0
    2.3126    1.3882    1.1987 H   0  0  0  0  0  0  0  0  0  0  0  0
   -0.0787    2.9894   -0.1337 H   0  0  0  0  0  0  0  0  0  0  0  0
   -0.5745    2.4448   -1.7550 H   0  0  0  0  0  0  0  0  0  0  0  0
    1.0776    2.1878   -1.2093 H   0  0  0  0  0  0  0  0  0  0  0  0
  1  2  1  0
  2  3  2  0
  2  4  1  0
  4  5  2  0
  5  6  1  0
  5  7  1  0
  7  8  1  0
  8  9  1  0
  9 10  2  0
 10 11  1  0
 11 12  2  0
 12 13  1  0
 13 14  2  0
  8 15  2  0
 15 16  1  0
 15  4  1  0
 14  9  1  0
  1 17  1  0
  1 18  1  0
  1 19  1  0
  6 20  1  0
  6 21  1  0
  6 22  1  0
  7 23  1  0
 10 24  1  0
 11 25  1  0
 12 26  1  0
 13 27  1  0
 14 28  1  0
 16 29  1  0
 16 30  1  0
 16 31  1  0
M  END
$$$$
