
     RDKit          3D

 40 42  0  0  0  0  0  0  0  0999 V2000
   -5.8985    0.1462    1.9167 C   0  0  0  0  0  0  0  0  0  0  0  0
   -6.2860    1.0166    0.4104 S   0  0  0  0  0  6  0  0  0  0  0  0
   -5.5568    2.2651    0.3997 O   0  0  0  0  0  0  0  0  0  0  0  0
   -7.7242    0.9836    0.2502 O   0  0  0  0  0  0  0  0  0  0  0  0
   -5.6721   -0.0175   -0.7687 N   0  0  0  0  0  0  0  0  0  0  0  0
   -4.2778   -0.2925   -0.8136 C   0  0  0  0  0  0  0  0  0  0  0  0
   -3.3491    0.7223   -1.0464 C   0  0  0  0  0  0  0  0  0  0  0  0
   -1.9809    0.4336   -1.0757 C   0  0  0  0  0  0  0  0  0  0  0  0
   -1.5378   -0.8774   -0.8618 C   0  0  0  0  0  0  0  0  0  0  0  0
   -0.0903   -1.2388   -0.8845 C   0  0  0  0  0  0  0  0  0  0  0  0
    0.2169   -2.3555   -1.2836 O   0  0  0  0  0  0  0  0  0  0  0  0
    0.7651   -0.2650   -0.4020 N   0  0  0  0  0  0  0  0  0  0  0  0
    2.1745   -0.3180   -0.3405 C   0  0  0  0  0  0  0  0  0  0  0  0
    2.9402   -1.3662   -0.8582 C   0  0  0  0  0  0  0  0  0  0  0  0
    4.3362   -1.3457   -0.7566 C   0  0  0  0  0  0  0  0  0  0  0  0
    4.9747   -0.2770   -0.1365 C   0  0  0  0  0  0  0  0  0  0  0  0
    4.2202    0.7894    0.3557 C   0  0  0  0  0  0  0  0  0  0  0  0
    2.8276    0.7630    0.2667 C   0  0  0  0  0  0  0  0  0  0  0  0
    4.7778    1.8948    0.9476 O   0  0  0  0  0  0  0  0  0  0  0  0
    6.1833    1.9749    0.6806 C   0  0  0  0  0  0  0  0  0  0  0  0
    6.8470    0.6228    0.8841 C   0  0  0  0  0  0  0  0  0  0  0  0
    6.3415   -0.3342   -0.0536 O   0  0  0  0  0  0  0  0  0  0  0  0
   -2.4763   -1.8972   -0.6538 C   0  0  0  0  0  0  0  0  0  0  0  0
   -3.8430   -1.6051   -0.6282 C   0  0  0  0  0  0  0  0  0  0  0  0
   -4.8157    0.1081    2.0454 H   0  0  0  0  0  0  0  0  0  0  0  0
   -6.3468    0.6989    2.7455 H   0  0  0  0  0  0  0  0  0  0  0  0
   -6.3276   -0.8563    1.8678 H   0  0  0  0  0  0  0  0  0  0  0  0
   -6.3125   -0.7790   -0.9927 H   0  0  0  0  0  0  0  0  0  0  0  0
   -3.6812    1.7420   -1.2318 H   0  0  0  0  0  0  0  0  0  0  0  0
   -1.2851    1.2374   -1.3012 H   0  0  0  0  0  0  0  0  0  0  0  0
    0.3449    0.5550    0.0154 H   0  0  0  0  0  0  0  0  0  0  0  0
    2.4826   -2.2192   -1.3497 H   0  0  0  0  0  0  0  0  0  0  0  0
    4.9189   -2.1717   -1.1552 H   0  0  0  0  0  0  0  0  0  0  0  0
    2.2670    1.6012    0.6701 H   0  0  0  0  0  0  0  0  0  0  0  0
    6.6094    2.7129    1.3673 H   0  0  0  0  0  0  0  0  0  0  0  0
    6.3228    2.3407   -0.3443 H   0  0  0  0  0  0  0  0  0  0  0  0
    7.9270    0.7036    0.7261 H   0  0  0  0  0  0  0  0  0  0  0  0
    6.6773    0.2407    1.8984 H   0  0  0  0  0  0  0  0  0  0  0  0
   -2.1416   -2.9241   -0.5133 H   0  0  0  0  0  0  0  0  0  0  0  0
   -4.5515   -2.4123   -0.4643 H   0  0  0  0  0  0  0  0  0  0  0  0
  1  2  1  0
  2  3  2  0
  2  4  2  0
  2  5  1  0
  5  6  1  0
  6  7  2  0
  7  8  1  0
  8  9  2  0
  9 10  1  0
 10 11  2  0
 10 12  1  0
 12 13  1  0
 13 14  2  0
 14 15  1  0
 15 16  2  0
 16 17  1  0
 17 18  2  0
 17 19  1  0
 19 20  1  0
 20 21  1  0
 21 22  1  0
  9 23  1  0
 23 24  2  0
 24  6  1  0
 18 13  1  0
 22 16  1  0
  1 25  1  0
  1 26  1  0
  1 27  1  0
  5 28  1  0
  7 29  1  0
  8 30  1  0
 12 31  1  0
 14 32  1  0
 15 33  1  0
 18 34  1  0
 20 35  1  0
 20 36  1  0
 21 37  1  0
 21 38  1  0
 23 39  1  0
 24 40  1  0
M  END
$$$$
