
     RDKit          3D

 53 56  0  0  0  0  0  0  0  0999 V2000
    7.2335    0.2302   -3.3265 C   0  0  0  0  0  0  0  0  0  0  0  0
    6.0191    0.9551   -3.1692 O   0  0  0  0  0  0  0  0  0  0  0  0
    5.2875    0.6808   -2.0489 C   0  0  0  0  0  0  0  0  0  0  0  0
    4.2225    1.5516   -1.8158 C   0  0  0  0  0  0  0  0  0  0  0  0
    3.4072    1.3939   -0.6882 C   0  0  0  0  0  0  0  0  0  0  0  0
    3.6358    0.3498    0.2137 C   0  0  0  0  0  0  0  0  0  0  0  0
    2.7915    0.2786    1.3410 N   0  0  0  0  0  0  0  0  0  0  0  0
    2.7373   -0.7166    2.3028 C   0  0  0  0  0  0  0  0  0  0  0  0
    3.4008   -1.7494    2.3127 O   0  0  0  0  0  0  0  0  0  0  0  0
    1.7532   -0.4228    3.4207 C   0  0  0  0  0  0  0  0  0  0  0  0
    0.0694   -0.9054    2.9550 S   0  0  0  0  0  0  0  0  0  0  0  0
   -0.4181    0.4298    1.9599 C   0  0  0  0  0  0  0  0  0  0  0  0
    0.3204    1.4975    1.7568 N   0  0  0  0  0  0  0  0  0  0  0  0
   -0.3912    2.3633    0.9833 N   0  0  0  0  0  0  0  0  0  0  0  0
   -1.5698    1.8226    0.7327 C   0  0  0  0  0  0  0  0  0  0  0  0
   -2.5718    2.3955   -0.2209 C   0  0  0  0  0  0  0  0  0  0  0  0
   -2.7047    1.5853   -1.4805 C   0  0  0  0  0  0  0  0  0  0  0  0
   -1.7113    1.1887   -2.3549 C   0  0  0  0  0  0  0  0  0  0  0  0
   -2.2183    0.4138   -3.4363 C   0  0  0  0  0  0  0  0  0  0  0  0
   -3.5825    0.2555   -3.3572 C   0  0  0  0  0  0  0  0  0  0  0  0
   -4.2477    1.0569   -2.0037 S   0  0  0  0  0  0  0  0  0  0  0  0
   -1.6602    0.5864    1.3671 N   0  0  0  0  0  0  0  0  0  0  0  0
   -2.7693   -0.2956    1.3824 C   0  0  0  0  0  0  0  0  0  0  0  0
   -2.5955   -1.6534    1.0986 C   0  0  0  0  0  0  0  0  0  0  0  0
   -3.6983   -2.5120    1.1115 C   0  0  0  0  0  0  0  0  0  0  0  0
   -4.9768   -2.0280    1.4117 C   0  0  0  0  0  0  0  0  0  0  0  0
   -6.1441   -2.9687    1.4592 C   0  0  0  0  0  0  0  0  0  0  0  0
   -5.1402   -0.6710    1.7145 C   0  0  0  0  0  0  0  0  0  0  0  0
   -4.0454    0.1965    1.6921 C   0  0  0  0  0  0  0  0  0  0  0  0
    4.6880   -0.5346   -0.0345 C   0  0  0  0  0  0  0  0  0  0  0  0
    5.5106   -0.3691   -1.1592 C   0  0  0  0  0  0  0  0  0  0  0  0
    7.7361    0.6156   -4.2179 H   0  0  0  0  0  0  0  0  0  0  0  0
    7.0407   -0.8354   -3.4926 H   0  0  0  0  0  0  0  0  0  0  0  0
    7.9017    0.3813   -2.4726 H   0  0  0  0  0  0  0  0  0  0  0  0
    4.0347    2.3701   -2.5046 H   0  0  0  0  0  0  0  0  0  0  0  0
    2.5993    2.0998   -0.5253 H   0  0  0  0  0  0  0  0  0  0  0  0
    2.0885    1.0118    1.4113 H   0  0  0  0  0  0  0  0  0  0  0  0
    1.8061    0.6281    3.7191 H   0  0  0  0  0  0  0  0  0  0  0  0
    2.0498   -1.0156    4.2918 H   0  0  0  0  0  0  0  0  0  0  0  0
   -3.5321    2.5440    0.2778 H   0  0  0  0  0  0  0  0  0  0  0  0
   -2.2387    3.4019   -0.5091 H   0  0  0  0  0  0  0  0  0  0  0  0
   -0.6641    1.4311   -2.2205 H   0  0  0  0  0  0  0  0  0  0  0  0
   -1.6118   -0.0080   -4.2288 H   0  0  0  0  0  0  0  0  0  0  0  0
   -4.2259   -0.2859   -4.0388 H   0  0  0  0  0  0  0  0  0  0  0  0
   -1.6240   -2.0616    0.8282 H   0  0  0  0  0  0  0  0  0  0  0  0
   -3.5543   -3.5643    0.8819 H   0  0  0  0  0  0  0  0  0  0  0  0
   -6.0832   -3.6935    0.6411 H   0  0  0  0  0  0  0  0  0  0  0  0
   -7.0905   -2.4311    1.3509 H   0  0  0  0  0  0  0  0  0  0  0  0
   -6.1523   -3.5061    2.4129 H   0  0  0  0  0  0  0  0  0  0  0  0
   -6.1210   -0.2814    1.9794 H   0  0  0  0  0  0  0  0  0  0  0  0
   -4.2069    1.2356    1.9683 H   0  0  0  0  0  0  0  0  0  0  0  0
    4.9062   -1.3593    0.6350 H   0  0  0  0  0  0  0  0  0  0  0  0
    6.3101   -1.0827   -1.3069 H   0  0  0  0  0  0  0  0  0  0  0  0
  1  2  1  0
  2  3  1  0
  3  4  2  0
  4  5  1  0
  5  6  2  0
  6  7  1  0
  7  8  1  0
  8  9  2  0
  8 10  1  0
 10 11  1  0
 11 12  1  0
 12 13  2  0
 13 14  1  0
 14 15  2  0
 15 16  1  0
 16 17  1  0
 17 18  2  0
 18 19  1  0
 19 20  2  0
 20 21  1  0
 15 22  1  0
 22 23  1  0
 23 24  2  0
 24 25  1  0
 25 26  2  0
 26 27  1  0
 26 28  1  0
 28 29  2  0
  6 30  1  0
 30 31  2  0
 31  3  1  0
 22 12  1  0
 29 23  1  0
 21 17  1  0
  1 32  1  0
  1 33  1  0
  1 34  1  0
  4 35  1  0
  5 36  1  0
  7 37  1  0
 10 38  1  0
 10 39  1  0
 16 40  1  0
 16 41  1  0
 18 42  1  0
 19 43  1  0
 20 44  1  0
 24 45  1  0
 25 46  1  0
 27 47  1  0
 27 48  1  0
 27 49  1  0
 28 50  1  0
 29 51  1  0
 30 52  1  0
 31 53  1  0
M  END
$$$$
