
     RDKit          3D

 57 60  0  0  0  0  0  0  0  0999 V2000
    5.3116    3.0211   -1.0671 C   0  0  0  0  0  0  0  0  0  0  0  0
    4.2795    2.0693   -0.5602 C   0  0  0  0  0  0  0  0  0  0  0  0
    2.9104    2.2397   -0.5780 C   0  0  0  0  0  0  0  0  0  0  0  0
    2.3285    1.1402    0.0803 C   0  0  0  0  0  0  0  0  0  0  0  0
    0.9249    0.9618    0.2537 C   0  0  0  0  0  0  0  0  0  0  0  0
    0.2504   -0.1383   -0.1206 C   0  0  0  0  0  0  0  0  0  0  0  0
   -1.2020   -0.2581    0.0183 C   0  0  0  0  0  0  0  0  0  0  0  0
   -1.7417   -0.3423    1.3025 C   0  0  0  0  0  0  0  0  0  0  0  0
   -3.1059   -0.4965    1.4713 C   0  0  0  0  0  0  0  0  0  0  0  0
   -3.9326   -0.5727    0.3545 C   0  0  0  0  0  0  0  0  0  0  0  0
   -5.3239   -0.7407    0.5142 C   0  0  0  0  0  0  0  0  0  0  0  0
   -6.2136   -0.8258   -0.5692 C   0  0  0  0  0  0  0  0  0  0  0  0
   -7.5817   -1.0190   -0.3984 N   0  0  0  0  0  0  0  0  0  0  0  0
   -8.1829   -0.9287    0.9335 C   0  0  0  0  0  0  0  0  0  0  0  0
   -8.4973   -0.7612   -1.5142 C   0  0  0  0  0  0  0  0  0  0  0  0
   -5.6286   -0.7483   -1.8405 C   0  0  0  0  0  0  0  0  0  0  0  0
   -4.2466   -0.5808   -2.0277 C   0  0  0  0  0  0  0  0  0  0  0  0
   -3.3683   -0.4859   -0.9391 C   0  0  0  0  0  0  0  0  0  0  0  0
   -2.0111   -0.3208   -1.0786 N   0  0  0  0  0  4  0  0  0  0  0  0
   -1.4357   -0.1888   -2.4400 C   0  0  0  0  0  0  0  0  0  0  0  0
    3.3491    0.3131    0.5236 C   0  0  0  0  0  0  0  0  0  0  0  0
    3.2754   -0.9849    1.2635 C   0  0  0  0  0  0  0  0  0  0  0  0
    4.5624    0.8839    0.1142 N   0  0  0  0  0  0  0  0  0  0  0  0
    5.8646    0.3533    0.3443 C   0  0  0  0  0  0  0  0  0  0  0  0
    6.7830    0.2739   -0.7099 C   0  0  0  0  0  0  0  0  0  0  0  0
    8.0604   -0.2430   -0.4847 C   0  0  0  0  0  0  0  0  0  0  0  0
    8.4253   -0.6759    0.7889 C   0  0  0  0  0  0  0  0  0  0  0  0
    7.5145   -0.5938    1.8410 C   0  0  0  0  0  0  0  0  0  0  0  0
    6.2344   -0.0806    1.6224 C   0  0  0  0  0  0  0  0  0  0  0  0
    6.1557    3.1111   -0.3765 H   0  0  0  0  0  0  0  0  0  0  0  0
    4.8825    4.0229   -1.1811 H   0  0  0  0  0  0  0  0  0  0  0  0
    5.6781    2.7092   -2.0493 H   0  0  0  0  0  0  0  0  0  0  0  0
    2.3997    3.0871   -1.0191 H   0  0  0  0  0  0  0  0  0  0  0  0
    0.3889    1.8199    0.6586 H   0  0  0  0  0  0  0  0  0  0  0  0
    0.7662   -0.9845   -0.5703 H   0  0  0  0  0  0  0  0  0  0  0  0
   -1.0973   -0.2995    2.1798 H   0  0  0  0  0  0  0  0  0  0  0  0
   -3.5138   -0.5654    2.4794 H   0  0  0  0  0  0  0  0  0  0  0  0
   -5.7110   -0.8058    1.5296 H   0  0  0  0  0  0  0  0  0  0  0  0
   -9.2487   -1.1815    0.9079 H   0  0  0  0  0  0  0  0  0  0  0  0
   -7.7239   -1.6405    1.6277 H   0  0  0  0  0  0  0  0  0  0  0  0
   -8.0911    0.0869    1.3327 H   0  0  0  0  0  0  0  0  0  0  0  0
   -8.3990    0.2702   -1.8719 H   0  0  0  0  0  0  0  0  0  0  0  0
   -8.3147   -1.4558   -2.3416 H   0  0  0  0  0  0  0  0  0  0  0  0
   -9.5420   -0.9080   -1.2203 H   0  0  0  0  0  0  0  0  0  0  0  0
   -6.2414   -0.8292   -2.7373 H   0  0  0  0  0  0  0  0  0  0  0  0
   -3.9052   -0.5405   -3.0581 H   0  0  0  0  0  0  0  0  0  0  0  0
   -1.5802   -1.1431   -2.9554 H   0  0  0  0  0  0  0  0  0  0  0  0
   -1.9536    0.6270   -2.9513 H   0  0  0  0  0  0  0  0  0  0  0  0
   -0.3740    0.0510   -2.4267 H   0  0  0  0  0  0  0  0  0  0  0  0
    2.2830   -1.4378    1.1979 H   0  0  0  0  0  0  0  0  0  0  0  0
    3.4836   -0.8350    2.3273 H   0  0  0  0  0  0  0  0  0  0  0  0
    3.9763   -1.7186    0.8546 H   0  0  0  0  0  0  0  0  0  0  0  0
    6.5137    0.5728   -1.7189 H   0  0  0  0  0  0  0  0  0  0  0  0
    8.7720   -0.3109   -1.3039 H   0  0  0  0  0  0  0  0  0  0  0  0
    9.4229   -1.0726    0.9634 H   0  0  0  0  0  0  0  0  0  0  0  0
    7.8077   -0.9174    2.8369 H   0  0  0  0  0  0  0  0  0  0  0  0
    5.5633    0.0179    2.4705 H   0  0  0  0  0  0  0  0  0  0  0  0
  1  2  1  0
  2  3  2  0
  3  4  1  0
  4  5  1  0
  5  6  2  3
  6  7  1  0
  7  8  2  0
  8  9  1  0
  9 10  2  0
 10 11  1  0
 11 12  2  0
 12 13  1  0
 13 14  1  0
 13 15  1  0
 12 16  1  0
 16 17  2  0
 17 18  1  0
 18 19  2  0
 19 20  1  0
  4 21  2  0
 21 22  1  0
 21 23  1  0
 23 24  1  0
 24 25  2  0
 25 26  1  0
 26 27  2  0
 27 28  1  0
 28 29  2  0
 23  2  1  0
 29 24  1  0
 19  7  1  0
 18 10  1  0
  1 30  1  0
  1 31  1  0
  1 32  1  0
  3 33  1  0
  5 34  1  0
  6 35  1  0
  8 36  1  0
  9 37  1  0
 11 38  1  0
 14 39  1  0
 14 40  1  0
 14 41  1  0
 15 42  1  0
 15 43  1  0
 15 44  1  0
 16 45  1  0
 17 46  1  0
 20 47  1  0
 20 48  1  0
 20 49  1  0
 22 50  1  0
 22 51  1  0
 22 52  1  0
 25 53  1  0
 26 54  1  0
 27 55  1  0
 28 56  1  0
 29 57  1  0
M  CHG  1  19   1
M  END
$$$$
