
     RDKit          3D

 43 46  0  0  0  0  0  0  0  0999 V2000
   -8.1927    0.0521    1.0532 C   0  0  0  0  0  0  0  0  0  0  0  0
   -7.0770   -0.7415    1.4365 O   0  0  0  0  0  0  0  0  0  0  0  0
   -5.9051   -0.5265    0.7656 C   0  0  0  0  0  0  0  0  0  0  0  0
   -4.8348   -1.3156    1.1923 C   0  0  0  0  0  0  0  0  0  0  0  0
   -3.5783   -1.1981    0.5916 C   0  0  0  0  0  0  0  0  0  0  0  0
   -3.3781   -0.2943   -0.4567 C   0  0  0  0  0  0  0  0  0  0  0  0
   -2.0601   -0.1845   -1.0649 C   0  0  0  0  0  0  0  0  0  0  0  0
   -0.9321   -0.0948   -0.2629 N   0  0  0  0  0  0  0  0  0  0  0  0
    0.1409    0.0069   -1.0085 C   0  0  0  0  0  0  0  0  0  0  0  0
    1.3802    0.1261   -0.4467 N   0  0  0  0  0  0  0  0  0  0  0  0
    2.5932    0.2434   -1.0876 C   0  0  0  0  0  0  0  0  0  0  0  0
    2.7884    0.2637   -2.2978 O   0  0  0  0  0  0  0  0  0  0  0  0
    3.6966    0.3482   -0.1045 C   0  0  0  0  0  0  0  0  0  0  0  0
    3.4562    0.3216    1.2551 N   0  0  0  0  0  0  0  0  0  0  0  0
    4.6507    0.4360    1.7899 C   0  0  0  0  0  0  0  0  0  0  0  0
    5.0001    0.4664    3.1093 N   0  0  0  0  0  0  0  0  0  0  0  0
    6.2679    0.5887    3.3539 C   0  0  0  0  0  0  0  0  0  0  0  0
    7.3571    0.6969    2.3442 C   0  0  0  0  0  0  0  0  0  0  0  0
    6.9707    0.6627    1.0564 C   0  0  0  0  0  0  0  0  0  0  0  0
    7.9298    0.7586   -0.0886 C   0  0  0  0  0  0  0  0  0  0  0  0
    5.6058    0.5312    0.7677 N   0  0  0  0  0  0  0  0  0  0  0  0
    4.9908    0.4745   -0.4348 N   0  0  0  0  0  0  0  0  0  0  0  0
   -0.1200   -0.0236   -2.6874 S   0  0  0  0  0  0  0  0  0  0  0  0
   -1.8098   -0.1993   -2.4281 C   0  0  0  0  0  0  0  0  0  0  0  0
   -2.7278   -0.3433   -3.5908 C   0  0  0  0  0  0  0  0  0  0  0  0
   -4.4478    0.5077   -0.8725 C   0  0  0  0  0  0  0  0  0  0  0  0
   -5.7061    0.3894   -0.2677 C   0  0  0  0  0  0  0  0  0  0  0  0
   -7.9983    1.1160    1.2248 H   0  0  0  0  0  0  0  0  0  0  0  0
   -8.4719   -0.1365    0.0113 H   0  0  0  0  0  0  0  0  0  0  0  0
   -9.0403   -0.2368    1.6822 H   0  0  0  0  0  0  0  0  0  0  0  0
   -4.9774   -2.0253    2.0035 H   0  0  0  0  0  0  0  0  0  0  0  0
   -2.7559   -1.8156    0.9465 H   0  0  0  0  0  0  0  0  0  0  0  0
    1.3885    0.1291    0.5682 H   0  0  0  0  0  0  0  0  0  0  0  0
    6.6039    0.6185    4.4043 H   0  0  0  0  0  0  0  0  0  0  0  0
    8.3799    0.7952    2.6811 H   0  0  0  0  0  0  0  0  0  0  0  0
    8.9644    0.8580    0.2573 H   0  0  0  0  0  0  0  0  0  0  0  0
    7.7038    1.6319   -0.7096 H   0  0  0  0  0  0  0  0  0  0  0  0
    7.8755   -0.1387   -0.7141 H   0  0  0  0  0  0  0  0  0  0  0  0
   -3.5548   -1.0211   -3.3560 H   0  0  0  0  0  0  0  0  0  0  0  0
   -2.2148   -0.7534   -4.4672 H   0  0  0  0  0  0  0  0  0  0  0  0
   -3.1458    0.6299   -3.8675 H   0  0  0  0  0  0  0  0  0  0  0  0
   -4.3115    1.2465   -1.6584 H   0  0  0  0  0  0  0  0  0  0  0  0
   -6.5041    1.0324   -0.6233 H   0  0  0  0  0  0  0  0  0  0  0  0
  1  2  1  0
  2  3  1  0
  3  4  2  0
  4  5  1  0
  5  6  2  0
  6  7  1  0
  7  8  1  0
  8  9  2  0
  9 10  1  0
 10 11  1  0
 11 12  2  0
 11 13  1  0
 13 14  1  0
 14 15  2  0
 15 16  1  0
 16 17  2  0
 17 18  1  0
 18 19  2  0
 19 20  1  0
 19 21  1  0
 21 22  1  0
  9 23  1  0
 23 24  1  0
 24 25  1  0
  6 26  1  0
 26 27  2  0
 27  3  1  0
 24  7  2  0
 22 13  2  0
 21 15  1  0
  1 28  1  0
  1 29  1  0
  1 30  1  0
  4 31  1  0
  5 32  1  0
 10 33  1  0
 17 34  1  0
 18 35  1  0
 20 36  1  0
 20 37  1  0
 20 38  1  0
 25 39  1  0
 25 40  1  0
 25 41  1  0
 26 42  1  0
 27 43  1  0
M  END
$$$$
