
     RDKit          3D

 61 67  0  0  0  0  0  0  0  0999 V2000
    3.1747    1.9508   -2.0066 O   0  0  0  0  0  0  0  0  0  0  0  0
    3.1388    1.0317   -1.1921 C   0  0  0  0  0  0  0  0  0  0  0  0
    4.3754    0.7275   -0.4376 C   0  0  0  0  0  0  0  0  0  0  0  0
    4.9150   -0.5769   -0.4430 C   0  0  0  0  0  0  0  0  0  0  0  0
    6.0946   -0.8532    0.2543 C   0  0  0  0  0  0  0  0  0  0  0  0
    6.7021    0.1897    0.9219 C   0  0  0  0  0  0  0  0  0  0  0  0
    6.1841    1.4654    0.9075 C   0  0  0  0  0  0  0  0  0  0  0  0
    5.0248    1.7728    0.2298 C   0  0  0  0  0  0  0  0  0  0  0  0
    6.9431    2.3400    1.6203 O   0  0  0  0  0  0  0  0  0  0  0  0
    8.0036    1.4741    2.0757 C   0  0  0  0  0  0  0  0  0  0  0  0
    7.8503    0.1051    1.6453 O   0  0  0  0  0  0  0  0  0  0  0  0
    1.9949    0.2681   -0.9548 N   0  0  0  0  0  0  0  0  0  0  0  0
    1.7983   -0.5673    0.2321 C   0  0  0  0  0  0  0  0  0  0  0  0
    0.3485   -0.5240    0.7056 C   0  0  0  0  0  0  0  0  0  0  0  0
   -0.6174   -1.0612   -0.3851 C   0  0  0  0  0  0  0  0  0  0  0  0
   -0.1311   -0.6618   -1.8061 C   0  0  0  0  0  0  0  0  0  0  0  0
    0.8360    0.5152   -1.8020 C   0  0  0  0  0  0  0  0  0  0  0  0
   -0.4604   -2.5060   -0.2663 O   0  0  0  0  0  0  0  0  0  0  0  0
   -1.4478   -3.3002   -0.7663 C   0  0  0  0  0  0  0  0  0  0  0  0
   -1.1427   -4.6583   -0.8783 C   0  0  0  0  0  0  0  0  0  0  0  0
   -2.0853   -5.5462   -1.3998 C   0  0  0  0  0  0  0  0  0  0  0  0
   -3.3285   -5.0697   -1.8028 C   0  0  0  0  0  0  0  0  0  0  0  0
   -4.2284   -5.9234   -2.3065 F   0  0  0  0  0  0  0  0  0  0  0  0
   -3.6505   -3.7242   -1.6871 C   0  0  0  0  0  0  0  0  0  0  0  0
   -2.7034   -2.8451   -1.1547 C   0  0  0  0  0  0  0  0  0  0  0  0
   -3.0170   -1.4203   -0.9965 C   0  0  0  0  0  0  0  0  0  0  0  0
   -3.9802   -0.9419   -1.5900 O   0  0  0  0  0  0  0  0  0  0  0  0
   -2.0812   -0.6233   -0.0931 C   0  0  0  0  0  0  0  0  0  0  0  0
   -2.3520    0.8700   -0.2137 C   0  0  0  0  0  0  0  0  0  0  0  0
   -3.2728    1.0314    0.9482 C   0  0  0  0  0  0  0  0  0  0  0  0
   -4.0741    2.2615    1.1522 C   0  0  0  0  0  0  0  0  0  0  0  0
   -4.9723    2.3146    2.2256 C   0  0  0  0  0  0  0  0  0  0  0  0
   -5.7366    3.4614    2.4484 C   0  0  0  0  0  0  0  0  0  0  0  0
   -5.6072    4.5603    1.6013 C   0  0  0  0  0  0  0  0  0  0  0  0
   -4.7141    4.5145    0.5318 C   0  0  0  0  0  0  0  0  0  0  0  0
   -3.9469    3.3685    0.3052 C   0  0  0  0  0  0  0  0  0  0  0  0
   -3.2837    0.0336    1.7743 N   0  0  0  0  0  0  0  0  0  0  0  0
   -2.4163   -0.9559    1.2646 O   0  0  0  0  0  0  0  0  0  0  0  0
    4.4241   -1.3689   -1.0034 H   0  0  0  0  0  0  0  0  0  0  0  0
    6.5257   -1.8481    0.2631 H   0  0  0  0  0  0  0  0  0  0  0  0
    4.6346    2.7845    0.2125 H   0  0  0  0  0  0  0  0  0  0  0  0
    8.0277    1.4960    3.1714 H   0  0  0  0  0  0  0  0  0  0  0  0
    8.9575    1.8570    1.6949 H   0  0  0  0  0  0  0  0  0  0  0  0
    2.4506   -0.2282    1.0428 H   0  0  0  0  0  0  0  0  0  0  0  0
    2.0888   -1.5900   -0.0324 H   0  0  0  0  0  0  0  0  0  0  0  0
    0.1112    0.5085    0.9820 H   0  0  0  0  0  0  0  0  0  0  0  0
    0.2634   -1.1271    1.6186 H   0  0  0  0  0  0  0  0  0  0  0  0
   -0.9766   -0.4205   -2.4604 H   0  0  0  0  0  0  0  0  0  0  0  0
    0.3748   -1.5156   -2.2776 H   0  0  0  0  0  0  0  0  0  0  0  0
    0.3486    1.4270   -1.4401 H   0  0  0  0  0  0  0  0  0  0  0  0
    1.1722    0.7184   -2.8255 H   0  0  0  0  0  0  0  0  0  0  0  0
   -0.1685   -5.0258   -0.5651 H   0  0  0  0  0  0  0  0  0  0  0  0
   -1.8586   -6.6038   -1.4951 H   0  0  0  0  0  0  0  0  0  0  0  0
   -4.6311   -3.3762   -1.9987 H   0  0  0  0  0  0  0  0  0  0  0  0
   -1.4760    1.4954   -0.0297 H   0  0  0  0  0  0  0  0  0  0  0  0
   -2.8076    1.1671   -1.1610 H   0  0  0  0  0  0  0  0  0  0  0  0
   -5.0844    1.4632    2.8943 H   0  0  0  0  0  0  0  0  0  0  0  0
   -6.4328    3.4946    3.2826 H   0  0  0  0  0  0  0  0  0  0  0  0
   -6.2029    5.4529    1.7753 H   0  0  0  0  0  0  0  0  0  0  0  0
   -4.6155    5.3737   -0.1276 H   0  0  0  0  0  0  0  0  0  0  0  0
   -3.2591    3.3682   -0.5345 H   0  0  0  0  0  0  0  0  0  0  0  0
  1  2  2  0
  2  3  1  0
  3  4  2  0
  4  5  1  0
  5  6  2  0
  6  7  1  0
  7  8  2  0
  7  9  1  0
  9 10  1  0
 10 11  1  0
  2 12  1  0
 12 13  1  0
 13 14  1  0
 14 15  1  0
 15 16  1  0
 16 17  1  0
 15 18  1  0
 18 19  1  0
 19 20  2  0
 20 21  1  0
 21 22  2  0
 22 23  1  0
 22 24  1  0
 24 25  2  0
 25 26  1  0
 26 27  2  0
 26 28  1  0
 28 29  1  0
 29 30  1  0
 30 31  1  0
 31 32  2  0
 32 33  1  0
 33 34  2  0
 34 35  1  0
 35 36  2  0
 30 37  2  0
 37 38  1  0
  8  3  1  0
 17 12  1  0
 25 19  1  0
 38 28  1  0
 11  6  1  0
 28 15  1  0
 36 31  1  0
  4 39  1  0
  5 40  1  0
  8 41  1  0
 10 42  1  0
 10 43  1  0
 13 44  1  0
 13 45  1  0
 14 46  1  0
 14 47  1  0
 16 48  1  0
 16 49  1  0
 17 50  1  0
 17 51  1  0
 20 52  1  0
 21 53  1  0
 24 54  1  0
 29 55  1  0
 29 56  1  0
 32 57  1  0
 33 58  1  0
 34 59  1  0
 35 60  1  0
 36 61  1  0
M  END
$$$$
