
     RDKit          3D

 53 54  0  0  0  0  0  0  0  0999 V2000
   -5.5398   -2.1379   -1.3362 C   0  0  0  0  0  0  0  0  0  0  0  0
   -4.8692   -0.9659   -0.6403 C   0  0  0  0  0  0  0  0  0  0  0  0
   -5.2260   -0.9772    0.7994 N   0  0  0  0  0  0  0  0  0  0  0  0
   -6.0209    0.1873    1.2572 C   0  0  0  0  0  0  0  0  0  0  0  0
   -7.4548    0.0778    0.7637 C   0  0  0  0  0  0  0  0  0  0  0  0
   -4.0620   -1.5952    1.8813 S   0  0  0  0  0  6  0  0  0  0  0  0
   -3.4323   -2.7422    1.2625 O   0  0  0  0  0  0  0  0  0  0  0  0
   -4.6660   -1.6920    3.1935 O   0  0  0  0  0  0  0  0  0  0  0  0
   -2.8473   -0.2904    1.9545 C   0  0  0  0  0  0  0  0  0  0  0  0
   -2.9899    0.7290    2.9021 C   0  0  0  0  0  0  0  0  0  0  0  0
   -2.0314    1.7378    2.9788 C   0  0  0  0  0  0  0  0  0  0  0  0
   -0.9297    1.7189    2.1204 C   0  0  0  0  0  0  0  0  0  0  0  0
   -0.7701    0.6841    1.1860 C   0  0  0  0  0  0  0  0  0  0  0  0
    0.4302    0.7153    0.3063 C   0  0  0  0  0  0  0  0  0  0  0  0
    1.2857    1.5847    0.3624 O   0  0  0  0  0  0  0  0  0  0  0  0
    0.4138   -0.3248   -0.5631 O   0  0  0  0  0  0  0  0  0  0  0  0
    1.5893   -0.4220   -1.3656 C   0  0  0  0  0  0  0  0  0  0  0  0
    2.8158   -0.8989   -0.5805 C   0  0  0  0  0  0  0  0  0  0  0  0
    2.7402   -1.4902    0.4937 O   0  0  0  0  0  0  0  0  0  0  0  0
    4.0179   -0.6307   -1.2030 N   0  0  0  0  0  0  0  0  0  0  0  0
    5.2737   -0.8917   -0.5226 C   0  0  0  0  0  0  0  0  0  0  0  0
    6.5011   -0.6259   -1.4043 C   0  0  0  0  0  0  0  0  0  0  0  0
    6.7682    0.7933   -1.5968 N   0  0  0  0  0  0  0  0  0  0  0  0
    7.6515    1.5478   -0.8588 C   0  0  0  0  0  0  0  0  0  0  0  0
    8.4891    0.9824    0.0537 O   0  0  0  0  0  0  0  0  0  0  0  0
    7.6161    2.8592   -1.1117 C   0  0  0  0  0  0  0  0  0  0  0  0
    6.4475    3.2410   -2.3343 S   0  0  0  0  0  0  0  0  0  0  0  0
    5.9611    1.5448   -2.4471 C   0  0  0  0  0  0  0  0  0  0  0  0
    5.0328    1.1434   -3.1339 O   0  0  0  0  0  0  0  0  0  0  0  0
   -1.7301   -0.3332    1.1125 C   0  0  0  0  0  0  0  0  0  0  0  0
   -6.6290   -2.0871   -1.2390 H   0  0  0  0  0  0  0  0  0  0  0  0
   -5.2124   -3.0921   -0.9109 H   0  0  0  0  0  0  0  0  0  0  0  0
   -5.2927   -2.1381   -2.4024 H   0  0  0  0  0  0  0  0  0  0  0  0
   -5.1834   -0.0283   -1.1122 H   0  0  0  0  0  0  0  0  0  0  0  0
   -3.7871   -1.0263   -0.7851 H   0  0  0  0  0  0  0  0  0  0  0  0
   -6.0506    0.2324    2.3502 H   0  0  0  0  0  0  0  0  0  0  0  0
   -5.5647    1.1186    0.9042 H   0  0  0  0  0  0  0  0  0  0  0  0
   -8.0558    0.9010    1.1626 H   0  0  0  0  0  0  0  0  0  0  0  0
   -7.5098    0.1231   -0.3282 H   0  0  0  0  0  0  0  0  0  0  0  0
   -7.9089   -0.8653    1.0852 H   0  0  0  0  0  0  0  0  0  0  0  0
   -3.8347    0.7370    3.5880 H   0  0  0  0  0  0  0  0  0  0  0  0
   -2.1335    2.5338    3.7132 H   0  0  0  0  0  0  0  0  0  0  0  0
   -0.1840    2.5098    2.1926 H   0  0  0  0  0  0  0  0  0  0  0  0
    1.3910   -1.1658   -2.1448 H   0  0  0  0  0  0  0  0  0  0  0  0
    1.7916    0.5328   -1.8656 H   0  0  0  0  0  0  0  0  0  0  0  0
    4.0169    0.0307   -1.9801 H   0  0  0  0  0  0  0  0  0  0  0  0
    5.2649   -1.9442   -0.2168 H   0  0  0  0  0  0  0  0  0  0  0  0
    5.3016   -0.2799    0.3864 H   0  0  0  0  0  0  0  0  0  0  0  0
    7.3778   -1.1144   -0.9701 H   0  0  0  0  0  0  0  0  0  0  0  0
    6.3441   -1.0738   -2.3937 H   0  0  0  0  0  0  0  0  0  0  0  0
    8.7717    0.1227   -0.2936 H   0  0  0  0  0  0  0  0  0  0  0  0
    8.2324    3.6039   -0.6279 H   0  0  0  0  0  0  0  0  0  0  0  0
   -1.6099   -1.1589    0.4145 H   0  0  0  0  0  0  0  0  0  0  0  0
  1  2  1  0
  2  3  1  0
  3  4  1  0
  4  5  1  0
  3  6  1  0
  6  7  2  0
  6  8  2  0
  6  9  1  0
  9 10  2  0
 10 11  1  0
 11 12  2  0
 12 13  1  0
 13 14  1  0
 14 15  2  0
 14 16  1  0
 16 17  1  0
 17 18  1  0
 18 19  2  0
 18 20  1  0
 20 21  1  0
 21 22  1  0
 22 23  1  0
 23 24  1  0
 24 25  1  0
 24 26  2  0
 26 27  1  0
 27 28  1  0
 28 29  2  0
 13 30  2  0
 30  9  1  0
 28 23  1  0
  1 31  1  0
  1 32  1  0
  1 33  1  0
  2 34  1  0
  2 35  1  0
  4 36  1  0
  4 37  1  0
  5 38  1  0
  5 39  1  0
  5 40  1  0
 10 41  1  0
 11 42  1  0
 12 43  1  0
 17 44  1  0
 17 45  1  0
 20 46  1  0
 21 47  1  0
 21 48  1  0
 22 49  1  0
 22 50  1  0
 25 51  1  0
 26 52  1  0
 30 53  1  0
M  END
$$$$
