
     RDKit          3D

 27 27  0  0  0  0  0  0  0  0999 V2000
   -2.4885    1.4243   -0.7071 C   0  0  0  0  0  0  0  0  0  0  0  0
   -1.4350    0.3391   -0.4192 C   0  0  0  0  0  0  0  0  0  0  0  0
   -0.8814   -0.1757   -1.7499 C   0  0  0  0  0  0  0  0  0  0  0  0
   -2.1088   -0.8162    0.3356 C   0  0  0  0  0  0  0  0  0  0  0  0
   -0.1307    1.0976    0.5998 S   0  0  0  0  0  6  0  0  0  0  0  0
   -0.6850    1.4312    1.8989 O   0  0  0  0  0  0  0  0  0  0  0  0
    0.6112    2.0836   -0.1565 O   0  0  0  0  0  0  0  0  0  0  0  0
    1.0324   -0.1441    0.9738 C   0  0  0  0  0  0  0  0  0  0  0  0
    0.8952   -0.9983    2.1175 C   0  0  0  0  0  0  0  0  0  0  0  0
    1.9581   -1.8603    2.2549 C   0  0  0  0  0  0  0  0  0  0  0  0
    3.1247   -1.6320    1.0306 S   0  0  0  0  0  0  0  0  0  0  0  0
    2.2165   -0.3712    0.2942 C   0  0  0  0  0  0  0  0  0  0  0  0
    2.7245    0.2486   -0.9032 C   0  0  0  0  0  0  0  0  0  0  0  0
    2.1324    0.4309   -1.9556 O   0  0  0  0  0  0  0  0  0  0  0  0
    4.0152    0.6253   -0.7729 O   0  0  0  0  0  0  0  0  0  0  0  0
   -2.9245    1.8120    0.2205 H   0  0  0  0  0  0  0  0  0  0  0  0
   -3.3066    1.0316   -1.3213 H   0  0  0  0  0  0  0  0  0  0  0  0
   -2.0476    2.2737   -1.2410 H   0  0  0  0  0  0  0  0  0  0  0  0
   -1.6799   -0.5995   -2.3700 H   0  0  0  0  0  0  0  0  0  0  0  0
   -0.1372   -0.9636   -1.5995 H   0  0  0  0  0  0  0  0  0  0  0  0
   -0.4160    0.6304   -2.3261 H   0  0  0  0  0  0  0  0  0  0  0  0
   -1.4159   -1.6461    0.5056 H   0  0  0  0  0  0  0  0  0  0  0  0
   -2.9568   -1.2152   -0.2329 H   0  0  0  0  0  0  0  0  0  0  0  0
   -2.4879   -0.4940    1.3114 H   0  0  0  0  0  0  0  0  0  0  0  0
    0.0653   -0.9657    2.8155 H   0  0  0  0  0  0  0  0  0  0  0  0
    2.1142   -2.6036    3.0257 H   0  0  0  0  0  0  0  0  0  0  0  0
    4.2121    1.0571   -1.6290 H   0  0  0  0  0  0  0  0  0  0  0  0
  1  2  1  0
  2  3  1  0
  2  4  1  0
  2  5  1  0
  5  6  2  0
  5  7  2  0
  5  8  1  0
  8  9  1  0
  9 10  2  0
 10 11  1  0
 11 12  1  0
 12 13  1  0
 13 14  2  0
 13 15  1  0
 12  8  2  0
  1 16  1  0
  1 17  1  0
  1 18  1  0
  3 19  1  0
  3 20  1  0
  3 21  1  0
  4 22  1  0
  4 23  1  0
  4 24  1  0
  9 25  1  0
 10 26  1  0
 15 27  1  0
M  END
$$$$
