
     RDKit          3D

 39 41  0  0  0  0  0  0  0  0999 V2000
   -4.9417   -0.5652   -0.4607 C   0  0  0  0  0  0  0  0  0  0  0  0
   -3.7251   -1.4389   -0.1879 C   0  0  0  0  0  0  0  0  0  0  0  0
   -2.5733   -0.6463    0.2350 N   0  0  0  0  0  0  0  0  0  0  0  0
   -2.4415   -0.3920    1.5919 C   0  0  0  0  0  0  0  0  0  0  0  0
   -3.2368   -0.7836    2.4435 O   0  0  0  0  0  0  0  0  0  0  0  0
   -1.2760    0.4008    2.0073 C   0  0  0  0  0  0  0  0  0  0  0  0
   -1.0647    0.6415    3.3750 C   0  0  0  0  0  0  0  0  0  0  0  0
    0.0305    1.3905    3.7914 C   0  0  0  0  0  0  0  0  0  0  0  0
    0.9096    1.8979    2.8425 C   0  0  0  0  0  0  0  0  0  0  0  0
    0.6930    1.6571    1.4803 C   0  0  0  0  0  0  0  0  0  0  0  0
   -0.4055    0.9010    1.0399 C   0  0  0  0  0  0  0  0  0  0  0  0
   -0.6619    0.6396   -0.3364 N   0  0  0  0  0  0  0  0  0  0  0  0
    0.2205    1.1739   -1.3800 C   0  0  0  0  0  0  0  0  0  0  0  0
    1.5129    0.3953   -1.5528 C   0  0  0  0  0  0  0  0  0  0  0  0
    1.5025   -1.0006   -1.7110 C   0  0  0  0  0  0  0  0  0  0  0  0
    2.6931   -1.7103   -1.8901 C   0  0  0  0  0  0  0  0  0  0  0  0
    3.9088   -1.0188   -1.9256 C   0  0  0  0  0  0  0  0  0  0  0  0
    5.1631   -1.7582   -2.1121 N   0  0  0  0  0  4  0  0  0  0  0  0
    6.2178   -1.1071   -2.1330 O   0  0  0  0  0  0  0  0  0  0  0  0
    5.0953   -2.9894   -2.2355 O   0  0  0  0  0  1  0  0  0  0  0  0
    3.9376    0.3744   -1.7915 C   0  0  0  0  0  0  0  0  0  0  0  0
    2.7412    1.0748   -1.6132 C   0  0  0  0  0  0  0  0  0  0  0  0
   -1.7476   -0.1270   -0.7532 C   0  0  0  0  0  0  0  0  0  0  0  0
   -1.9648   -0.3413   -1.9489 O   0  0  0  0  0  0  0  0  0  0  0  0
   -5.2362   -0.0080    0.4346 H   0  0  0  0  0  0  0  0  0  0  0  0
   -4.7365    0.1618   -1.2532 H   0  0  0  0  0  0  0  0  0  0  0  0
   -5.7896   -1.1821   -0.7739 H   0  0  0  0  0  0  0  0  0  0  0  0
   -3.4722   -2.0055   -1.0913 H   0  0  0  0  0  0  0  0  0  0  0  0
   -3.9714   -2.1729    0.5880 H   0  0  0  0  0  0  0  0  0  0  0  0
   -1.7554    0.2434    4.1164 H   0  0  0  0  0  0  0  0  0  0  0  0
    0.1959    1.5760    4.8498 H   0  0  0  0  0  0  0  0  0  0  0  0
    1.7696    2.4840    3.1596 H   0  0  0  0  0  0  0  0  0  0  0  0
    1.4150    2.0801    0.7908 H   0  0  0  0  0  0  0  0  0  0  0  0
    0.4161    2.2312   -1.1633 H   0  0  0  0  0  0  0  0  0  0  0  0
   -0.2881    1.1795   -2.3518 H   0  0  0  0  0  0  0  0  0  0  0  0
    0.5618   -1.5493   -1.7043 H   0  0  0  0  0  0  0  0  0  0  0  0
    2.6521   -2.7916   -2.0050 H   0  0  0  0  0  0  0  0  0  0  0  0
    4.8749    0.9261   -1.8282 H   0  0  0  0  0  0  0  0  0  0  0  0
    2.7769    2.1592   -1.5226 H   0  0  0  0  0  0  0  0  0  0  0  0
  1  2  1  0
  2  3  1  0
  3  4  1  0
  4  5  2  0
  4  6  1  0
  6  7  2  0
  7  8  1  0
  8  9  2  0
  9 10  1  0
 10 11  2  0
 11 12  1  0
 12 13  1  0
 13 14  1  0
 14 15  2  0
 15 16  1  0
 16 17  2  0
 17 18  1  0
 18 19  2  0
 18 20  1  0
 17 21  1  0
 21 22  2  0
 12 23  1  0
 23 24  2  0
 23  3  1  0
 11  6  1  0
 22 14  1  0
  1 25  1  0
  1 26  1  0
  1 27  1  0
  2 28  1  0
  2 29  1  0
  7 30  1  0
  8 31  1  0
  9 32  1  0
 10 33  1  0
 13 34  1  0
 13 35  1  0
 15 36  1  0
 16 37  1  0
 21 38  1  0
 22 39  1  0
M  CHG  2  18   1  20  -1
M  END
$$$$
