
     RDKit          3D

 71 77  0  0  0  0  0  0  0  0999 V2000
    5.0324    1.6196    3.0065 C   0  0  0  0  0  0  0  0  0  0  0  0
    4.9631    0.4908    2.1441 O   0  0  0  0  0  0  0  0  0  0  0  0
    5.0457    0.8593    0.7635 C   0  0  0  0  0  0  0  0  0  0  0  0
    3.7564    1.5529    0.2282 C   0  0  0  0  0  0  0  0  0  0  0  0
    3.8424    2.6961   -0.2374 O   0  0  0  0  0  0  0  0  0  0  0  0
    2.5367    0.8912    0.2925 N   0  0  0  0  0  0  0  0  0  0  0  0
    2.3491   -0.4535    0.8472 C   0  0  0  0  0  0  0  0  0  0  0  0
    0.8660   -0.8647    0.9579 C   0  0  0  0  0  0  0  0  0  0  0  0
    0.1917   -0.7584   -0.3354 N   0  0  0  0  0  0  0  0  0  0  0  0
    0.3688    0.6195   -0.9466 C   0  0  2  0  0  0  0  0  0  0  0  0
    1.3246    1.5667   -0.1865 C   0  0  0  0  0  0  0  0  0  0  0  0
   -1.0234    1.1201   -1.0090 C   0  0  0  0  0  0  0  0  0  0  0  0
   -1.9532    0.1291   -0.7054 C   0  0  0  0  0  0  0  0  0  0  0  0
   -3.2148    0.6607   -0.8292 C   0  0  0  0  0  0  0  0  0  0  0  0
   -4.4035    0.1024   -0.6152 O   0  0  0  0  0  0  0  0  0  0  0  0
   -3.0631    2.0202   -1.1747 N   0  0  0  0  0  0  0  0  0  0  0  0
   -4.1101    2.9922   -1.2928 C   0  0  0  0  0  0  0  0  0  0  0  0
   -5.3977    2.6149   -1.6945 C   0  0  0  0  0  0  0  0  0  0  0  0
   -6.4092    3.5728   -1.8143 C   0  0  0  0  0  0  0  0  0  0  0  0
   -6.1471    4.9102   -1.5292 C   0  0  0  0  0  0  0  0  0  0  0  0
   -4.8749    5.2941   -1.1131 C   0  0  0  0  0  0  0  0  0  0  0  0
   -3.8602    4.3403   -0.9911 C   0  0  0  0  0  0  0  0  0  0  0  0
   -1.6863    2.2636   -1.3559 C   0  0  0  0  0  0  0  0  0  0  0  0
   -1.1686    3.3912   -1.8377 O   0  0  0  0  0  0  0  0  0  0  0  0
   -1.2594   -1.1359   -0.3868 C   0  0  1  0  0  0  0  0  0  0  0  0
   -1.4559   -2.2245   -1.4895 C   0  0  0  0  0  0  0  0  0  0  0  0
   -1.1584   -2.1850   -2.6743 O   0  0  0  0  0  0  0  0  0  0  0  0
   -2.0661   -3.3177   -0.8734 N   0  0  0  0  0  0  0  0  0  0  0  0
   -2.3477   -3.0713    0.4663 C   0  0  0  0  0  0  0  0  0  0  0  0
   -1.9228   -1.7771    0.8081 C   0  0  0  0  0  0  0  0  0  0  0  0
   -2.1671   -1.2793    2.0798 C   0  0  0  0  0  0  0  0  0  0  0  0
   -2.7956   -2.1109    3.0074 C   0  0  0  0  0  0  0  0  0  0  0  0
   -3.1879   -3.4175    2.6590 C   0  0  0  0  0  0  0  0  0  0  0  0
   -3.9397   -4.3725    3.8903 Cl  0  0  0  0  0  0  0  0  0  0  0  0
   -2.9843   -3.9242    1.3625 C   0  0  0  0  0  0  0  0  0  0  0  0
   -3.4028   -5.3147    0.9872 C   0  0  0  0  0  0  0  0  0  0  0  0
    5.4865   -0.3207   -0.0990 C   0  0  0  0  0  0  0  0  0  0  0  0
    5.6428   -0.1520   -1.4872 C   0  0  0  0  0  0  0  0  0  0  0  0
    6.0669   -1.2111   -2.2933 C   0  0  0  0  0  0  0  0  0  0  0  0
    6.3477   -2.4518   -1.7252 C   0  0  0  0  0  0  0  0  0  0  0  0
    6.2131   -2.6329   -0.3504 C   0  0  0  0  0  0  0  0  0  0  0  0
    5.7912   -1.5741    0.4577 C   0  0  0  0  0  0  0  0  0  0  0  0
    4.1744    2.2795    2.8531 H   0  0  0  0  0  0  0  0  0  0  0  0
    5.0123    1.2609    4.0382 H   0  0  0  0  0  0  0  0  0  0  0  0
    5.9661    2.1681    2.8525 H   0  0  0  0  0  0  0  0  0  0  0  0
    5.8604    1.5935    0.6676 H   0  0  0  0  0  0  0  0  0  0  0  0
    2.8010   -0.4984    1.8414 H   0  0  0  0  0  0  0  0  0  0  0  0
    2.8733   -1.1602    0.1952 H   0  0  0  0  0  0  0  0  0  0  0  0
    0.8289   -1.8974    1.3261 H   0  0  0  0  0  0  0  0  0  0  0  0
    0.3857   -0.2207    1.7050 H   0  0  0  0  0  0  0  0  0  0  0  0
    0.7530    0.4631   -1.9620 H   0  0  0  0  0  0  0  0  0  0  0  0
    0.8355    1.9823    0.7053 H   0  0  0  0  0  0  0  0  0  0  0  0
    1.5776    2.4203   -0.8252 H   0  0  0  0  0  0  0  0  0  0  0  0
   -4.2647   -0.8112   -0.3097 H   0  0  0  0  0  0  0  0  0  0  0  0
   -5.6362    1.5875   -1.9535 H   0  0  0  0  0  0  0  0  0  0  0  0
   -7.4033    3.2694   -2.1344 H   0  0  0  0  0  0  0  0  0  0  0  0
   -6.9370    5.6514   -1.6229 H   0  0  0  0  0  0  0  0  0  0  0  0
   -4.6753    6.3348   -0.8716 H   0  0  0  0  0  0  0  0  0  0  0  0
   -2.8963    4.6685   -0.6082 H   0  0  0  0  0  0  0  0  0  0  0  0
   -1.8365    3.8132   -2.4095 H   0  0  0  0  0  0  0  0  0  0  0  0
   -2.2822   -4.1562   -1.3908 H   0  0  0  0  0  0  0  0  0  0  0  0
   -1.8816   -0.2675    2.3554 H   0  0  0  0  0  0  0  0  0  0  0  0
   -2.9813   -1.7384    4.0134 H   0  0  0  0  0  0  0  0  0  0  0  0
   -4.4538   -5.4855    1.2465 H   0  0  0  0  0  0  0  0  0  0  0  0
   -3.3133   -5.5039   -0.0862 H   0  0  0  0  0  0  0  0  0  0  0  0
   -2.7767   -6.0480    1.5067 H   0  0  0  0  0  0  0  0  0  0  0  0
    5.4388    0.8121   -1.9528 H   0  0  0  0  0  0  0  0  0  0  0  0
    6.1833   -1.0643   -3.3653 H   0  0  0  0  0  0  0  0  0  0  0  0
    6.6819   -3.2745   -2.3526 H   0  0  0  0  0  0  0  0  0  0  0  0
    6.4373   -3.5988    0.0966 H   0  0  0  0  0  0  0  0  0  0  0  0
    5.7030   -1.7377    1.5304 H   0  0  0  0  0  0  0  0  0  0  0  0
  1  2  1  0
  2  3  1  0
  3  4  1  0
  4  5  2  0
  4  6  1  0
  6  7  1  0
  7  8  1  0
  8  9  1  0
  9 10  1  0
 10 11  1  0
 10 12  1  0
 12 13  1  0
 13 14  2  0
 14 15  1  0
 14 16  1  0
 16 17  1  0
 17 18  2  0
 18 19  1  0
 19 20  2  0
 20 21  1  0
 21 22  2  0
 16 23  1  0
 23 24  1  0
 13 25  1  0
 25 26  1  0
 26 27  2  0
 26 28  1  0
 28 29  1  0
 29 30  2  0
 30 31  1  0
 31 32  2  0
 32 33  1  0
 33 34  1  0
 33 35  2  0
 35 36  1  0
  3 37  1  0
 37 38  2  0
 38 39  1  0
 39 40  2  0
 40 41  1  0
 41 42  2  0
 11  6  1  0
 23 12  2  0
 30 25  1  0
 42 37  1  0
 25  9  1  1
 35 29  1  0
 22 17  1  0
  1 43  1  0
  1 44  1  0
  1 45  1  0
  3 46  1  0
  7 47  1  0
  7 48  1  0
  8 49  1  0
  8 50  1  0
 10 51  1  6
 11 52  1  0
 11 53  1  0
 15 54  1  0
 18 55  1  0
 19 56  1  0
 20 57  1  0
 21 58  1  0
 22 59  1  0
 24 60  1  0
 28 61  1  0
 31 62  1  0
 32 63  1  0
 36 64  1  0
 36 65  1  0
 36 66  1  0
 38 67  1  0
 39 68  1  0
 40 69  1  0
 41 70  1  0
 42 71  1  0
M  END
$$$$
