
     RDKit          3D

 34 35  0  0  0  0  0  0  0  0999 V2000
    4.0897   -1.8973   -0.4154 C   0  0  0  0  0  0  0  0  0  0  0  0
    3.9500   -0.9309    0.7458 C   0  0  0  0  0  0  0  0  0  0  0  0
    2.5878   -0.4992    0.8680 O   0  0  0  0  0  0  0  0  0  0  0  0
    2.2458    0.5597    0.1081 C   0  0  0  0  0  0  0  0  0  0  0  0
    2.9459    1.2254   -0.6305 O   0  0  0  0  0  0  0  0  0  0  0  0
    0.7769    0.8760    0.3387 C   0  0  0  0  0  0  0  0  0  0  0  0
   -0.0788    0.1065   -0.2476 N   0  0  0  0  0  0  0  0  0  0  0  0
   -1.4258    0.3480   -0.0736 N   0  0  0  0  0  0  0  0  0  0  0  0
   -2.2685   -0.5878   -0.7834 C   0  0  0  0  0  0  0  0  0  0  0  0
   -1.6868   -1.6148   -1.5562 C   0  0  0  0  0  0  0  0  0  0  0  0
   -2.4636   -2.5430   -2.2599 C   0  0  0  0  0  0  0  0  0  0  0  0
   -3.8490   -2.4689   -2.2094 C   0  0  0  0  0  0  0  0  0  0  0  0
   -4.4515   -1.4682   -1.4567 C   0  0  0  0  0  0  0  0  0  0  0  0
   -3.6703   -0.5399   -0.7531 C   0  0  0  0  0  0  0  0  0  0  0  0
   -1.9005    1.4025    0.7197 C   0  0  0  0  0  0  0  0  0  0  0  0
   -3.0789    1.6849    0.9292 O   0  0  0  0  0  0  0  0  0  0  0  0
   -0.8583    2.2562    1.3696 C   0  0  0  0  0  0  0  0  0  0  0  0
   -1.3255    3.3317    2.1791 C   0  0  0  0  0  0  0  0  0  0  0  0
   -1.6333    4.2236    2.8551 N   0  0  0  0  0  0  0  0  0  0  0  0
    0.4552    2.0285    1.2053 C   0  0  0  0  0  0  0  0  0  0  0  0
    1.5827    2.8126    1.8098 C   0  0  0  0  0  0  0  0  0  0  0  0
    5.1125   -2.2786   -0.4820 H   0  0  0  0  0  0  0  0  0  0  0  0
    3.4040   -2.7427   -0.2967 H   0  0  0  0  0  0  0  0  0  0  0  0
    3.8353   -1.4116   -1.3629 H   0  0  0  0  0  0  0  0  0  0  0  0
    4.2112   -1.4374    1.6807 H   0  0  0  0  0  0  0  0  0  0  0  0
    4.6299   -0.0775    0.6402 H   0  0  0  0  0  0  0  0  0  0  0  0
   -0.6063   -1.7140   -1.6280 H   0  0  0  0  0  0  0  0  0  0  0  0
   -1.9795   -3.3201   -2.8455 H   0  0  0  0  0  0  0  0  0  0  0  0
   -4.4572   -3.1861   -2.7537 H   0  0  0  0  0  0  0  0  0  0  0  0
   -5.5360   -1.4010   -1.4109 H   0  0  0  0  0  0  0  0  0  0  0  0
   -4.2139    0.2103   -0.1899 H   0  0  0  0  0  0  0  0  0  0  0  0
    2.1759    3.2955    1.0265 H   0  0  0  0  0  0  0  0  0  0  0  0
    2.2379    2.1563    2.3923 H   0  0  0  0  0  0  0  0  0  0  0  0
    1.2433    3.6012    2.4872 H   0  0  0  0  0  0  0  0  0  0  0  0
  1  2  1  0
  2  3  1  0
  3  4  1  0
  4  5  2  0
  4  6  1  0
  6  7  2  0
  7  8  1  0
  8  9  1  0
  9 10  2  0
 10 11  1  0
 11 12  2  0
 12 13  1  0
 13 14  2  0
  8 15  1  0
 15 16  2  0
 15 17  1  0
 17 18  1  0
 18 19  3  0
 17 20  2  0
 20 21  1  0
 20  6  1  0
 14  9  1  0
  1 22  1  0
  1 23  1  0
  1 24  1  0
  2 25  1  0
  2 26  1  0
 10 27  1  0
 11 28  1  0
 12 29  1  0
 13 30  1  0
 14 31  1  0
 21 32  1  0
 21 33  1  0
 21 34  1  0
M  END
$$$$
