
     RDKit          3D

 51 53  0  0  0  0  0  0  0  0999 V2000
    2.9513   -1.1563   -0.4707 N   0  0  0  0  0  0  0  0  0  0  0  0
    2.8727   -0.0499   -0.1283 C   0  0  0  0  0  0  0  0  0  0  0  0
    2.8605    1.2872    0.3535 C   0  0  0  0  0  0  0  0  0  0  0  0
    1.9913    2.2354   -0.0486 C   0  0  0  0  0  0  0  0  0  0  0  0
    0.9543    2.0336   -1.0043 C   0  0  0  0  0  0  0  0  0  0  0  0
    0.0839    2.9787   -1.5383 C   0  0  0  0  0  0  0  0  0  0  0  0
   -0.7749    2.3207   -2.4496 C   0  0  0  0  0  0  0  0  0  0  0  0
   -0.4006    0.9982   -2.4341 C   0  0  0  0  0  0  0  0  0  0  0  0
   -0.8909   -0.2096   -3.1402 C   0  0  0  0  0  0  0  0  0  0  0  0
   -2.0033   -0.7532   -2.4039 N   0  0  0  0  0  0  0  0  0  0  0  0
   -3.2975   -0.3564   -2.6308 C   0  0  0  0  0  0  0  0  0  0  0  0
   -3.6870    0.3765   -3.5295 O   0  0  0  0  0  0  0  0  0  0  0  0
   -4.3144   -0.9119   -1.6098 C   0  0  0  0  0  0  0  0  0  0  0  0
   -3.9128   -1.6105   -0.6919 O   0  0  0  0  0  0  0  0  0  0  0  0
   -5.6010   -0.5092   -1.9005 N   0  0  0  0  0  0  0  0  0  0  0  0
   -6.7825   -0.8158   -1.2034 C   0  0  0  0  0  0  0  0  0  0  0  0
   -6.8237   -1.6203   -0.0624 C   0  0  0  0  0  0  0  0  0  0  0  0
   -8.0448   -1.8767    0.5682 C   0  0  0  0  0  0  0  0  0  0  0  0
   -8.0864   -2.8711    1.9741 Cl  0  0  0  0  0  0  0  0  0  0  0  0
   -9.2310   -1.3406    0.0763 C   0  0  0  0  0  0  0  0  0  0  0  0
   -9.1872   -0.5385   -1.0584 C   0  0  0  0  0  0  0  0  0  0  0  0
  -10.6425    0.1349   -1.6828 Cl  0  0  0  0  0  0  0  0  0  0  0  0
   -7.9750   -0.2748   -1.6988 C   0  0  0  0  0  0  0  0  0  0  0  0
    0.6316    0.8215   -1.5674 O   0  0  0  0  0  0  0  0  0  0  0  0
    3.8820    1.7146    1.3673 C   0  0  0  0  0  0  0  0  0  0  0  0
    3.9286    2.8681    1.7888 O   0  0  0  0  0  0  0  0  0  0  0  0
    4.7571    0.7486    1.8057 N   0  0  0  0  0  0  0  0  0  0  0  0
    5.7420    1.0586    2.8202 C   0  0  0  0  0  0  0  0  0  0  0  0
    6.6878   -0.0843    3.0292 C   0  0  0  0  0  0  0  0  0  0  0  0
    7.6448   -0.4238    2.0680 C   0  0  0  0  0  0  0  0  0  0  0  0
    8.4952   -1.5027    2.2903 C   0  0  0  0  0  0  0  0  0  0  0  0
    8.3570   -2.2135    3.4698 C   0  0  0  0  0  0  0  0  0  0  0  0
    7.4457   -1.9175    4.4203 N   0  0  0  0  0  0  0  0  0  0  0  0
    6.6342   -0.8634    4.1796 C   0  0  0  0  0  0  0  0  0  0  0  0
    2.0638    3.2399    0.3647 H   0  0  0  0  0  0  0  0  0  0  0  0
    0.0766    4.0329   -1.2939 H   0  0  0  0  0  0  0  0  0  0  0  0
   -1.5733    2.7504   -3.0401 H   0  0  0  0  0  0  0  0  0  0  0  0
   -0.1145   -0.9795   -3.1889 H   0  0  0  0  0  0  0  0  0  0  0  0
   -1.2014    0.0388   -4.1608 H   0  0  0  0  0  0  0  0  0  0  0  0
   -1.8254   -1.2692   -1.5453 H   0  0  0  0  0  0  0  0  0  0  0  0
   -5.6707    0.0846   -2.7258 H   0  0  0  0  0  0  0  0  0  0  0  0
   -5.9233   -2.0603    0.3558 H   0  0  0  0  0  0  0  0  0  0  0  0
  -10.1748   -1.5441    0.5734 H   0  0  0  0  0  0  0  0  0  0  0  0
   -7.9701    0.3552   -2.5850 H   0  0  0  0  0  0  0  0  0  0  0  0
    4.6658   -0.2229    1.5281 H   0  0  0  0  0  0  0  0  0  0  0  0
    6.2949    1.9573    2.5209 H   0  0  0  0  0  0  0  0  0  0  0  0
    5.2061    1.3064    3.7447 H   0  0  0  0  0  0  0  0  0  0  0  0
    7.7305    0.1481    1.1474 H   0  0  0  0  0  0  0  0  0  0  0  0
    9.2446   -1.7859    1.5598 H   0  0  0  0  0  0  0  0  0  0  0  0
    8.9954   -3.0647    3.6886 H   0  0  0  0  0  0  0  0  0  0  0  0
    5.9114   -0.6638    4.9669 H   0  0  0  0  0  0  0  0  0  0  0  0
  1  2  3  0
  2  3  1  0
  3  4  2  3
  4  5  1  0
  5  6  2  0
  6  7  1  0
  7  8  2  0
  8  9  1  0
  9 10  1  0
 10 11  1  0
 11 12  2  0
 11 13  1  0
 13 14  2  0
 13 15  1  0
 15 16  1  0
 16 17  2  0
 17 18  1  0
 18 19  1  0
 18 20  2  0
 20 21  1  0
 21 22  1  0
 21 23  2  0
  8 24  1  0
  3 25  1  0
 25 26  2  0
 25 27  1  0
 27 28  1  0
 28 29  1  0
 29 30  2  0
 30 31  1  0
 31 32  2  0
 32 33  1  0
 33 34  2  0
 24  5  1  0
 34 29  1  0
 23 16  1  0
  4 35  1  0
  6 36  1  0
  7 37  1  0
  9 38  1  0
  9 39  1  0
 10 40  1  0
 15 41  1  0
 17 42  1  0
 20 43  1  0
 23 44  1  0
 27 45  1  0
 28 46  1  0
 28 47  1  0
 30 48  1  0
 31 49  1  0
 32 50  1  0
 34 51  1  0
M  END
$$$$
