
     RDKit          3D

 58 62  0  0  0  0  0  0  0  0999 V2000
    8.5747    0.4951    1.3632 C   0  0  0  0  0  0  0  0  0  0  0  0
    7.5971    1.5272    1.3908 O   0  0  0  0  0  0  0  0  0  0  0  0
    6.3411    1.2078    0.9530 C   0  0  0  0  0  0  0  0  0  0  0  0
    5.4230    2.2610    1.0084 C   0  0  0  0  0  0  0  0  0  0  0  0
    4.1008    2.0803    0.5923 C   0  0  0  0  0  0  0  0  0  0  0  0
    3.6730    0.8438    0.1126 C   0  0  0  0  0  0  0  0  0  0  0  0
    2.3293    0.7097   -0.2855 N   0  0  0  0  0  0  0  0  0  0  0  0
    1.8729   -0.4357   -0.7246 C   0  0  0  0  0  0  0  0  0  0  0  0
    0.5277   -0.5453   -1.0781 N   0  0  0  0  0  0  0  0  0  0  0  0
   -0.3082   -1.5219   -0.3508 C   0  0  0  0  0  0  0  0  0  0  0  0
   -0.9358   -0.8816    0.9099 C   0  0  0  0  0  0  0  0  0  0  0  0
   -1.7246    0.3499    0.6600 N   0  0  0  0  0  0  0  0  0  0  0  0
   -3.0042    0.0425   -0.0017 C   0  0  0  0  0  0  0  0  0  0  0  0
   -4.0070    1.2084    0.0842 C   0  0  0  0  0  0  0  0  0  0  0  0
   -5.3436    0.8482   -0.5378 C   0  0  0  0  0  0  0  0  0  0  0  0
   -5.4753    0.9613   -1.9345 C   0  0  0  0  0  0  0  0  0  0  0  0
   -6.6704    0.6330   -2.5722 C   0  0  0  0  0  0  0  0  0  0  0  0
   -7.7539    0.1849   -1.8265 C   0  0  0  0  0  0  0  0  0  0  0  0
   -7.6418    0.0643   -0.4417 C   0  0  0  0  0  0  0  0  0  0  0  0
   -6.4426    0.3877    0.2238 C   0  0  0  0  0  0  0  0  0  0  0  0
   -6.3801    0.2430    1.7304 C   0  0  0  0  0  0  0  0  0  0  0  0
   -5.3506   -0.5473    2.1429 F   0  0  0  0  0  0  0  0  0  0  0  0
   -7.5026   -0.3155    2.2693 F   0  0  0  0  0  0  0  0  0  0  0  0
   -6.2248    1.4361    2.3678 F   0  0  0  0  0  0  0  0  0  0  0  0
   -0.8743    1.2910   -0.1129 C   0  0  0  0  0  0  0  0  0  0  0  0
   -0.2215    0.6920   -1.3812 C   0  0  0  0  0  0  0  0  0  0  0  0
    2.8000   -1.5500   -0.8426 C   0  0  0  0  0  0  0  0  0  0  0  0
    2.6457   -2.8214   -1.3664 C   0  0  0  0  0  0  0  0  0  0  0  0
    3.8784   -3.4984   -1.2221 C   0  0  0  0  0  0  0  0  0  0  0  0
    4.7632   -2.6157   -0.6408 C   0  0  0  0  0  0  0  0  0  0  0  0
    4.1109   -1.4216   -0.4414 N   0  0  0  0  0  0  0  0  0  0  0  0
    4.6013   -0.2051    0.0623 C   0  0  0  0  0  0  0  0  0  0  0  0
    5.9299   -0.0374    0.4756 C   0  0  0  0  0  0  0  0  0  0  0  0
    8.2897   -0.3360    2.0167 H   0  0  0  0  0  0  0  0  0  0  0  0
    8.7556    0.1503    0.3398 H   0  0  0  0  0  0  0  0  0  0  0  0
    9.5118    0.9120    1.7445 H   0  0  0  0  0  0  0  0  0  0  0  0
    5.7389    3.2328    1.3803 H   0  0  0  0  0  0  0  0  0  0  0  0
    3.3984    2.9075    0.6441 H   0  0  0  0  0  0  0  0  0  0  0  0
    0.2672   -2.4010   -0.0452 H   0  0  0  0  0  0  0  0  0  0  0  0
   -1.0941   -1.8846   -1.0236 H   0  0  0  0  0  0  0  0  0  0  0  0
   -1.5535   -1.6242    1.4297 H   0  0  0  0  0  0  0  0  0  0  0  0
   -0.1313   -0.6269    1.6128 H   0  0  0  0  0  0  0  0  0  0  0  0
   -3.4637   -0.8200    0.4987 H   0  0  0  0  0  0  0  0  0  0  0  0
   -2.8606   -0.2587   -1.0459 H   0  0  0  0  0  0  0  0  0  0  0  0
   -4.1380    1.5178    1.1268 H   0  0  0  0  0  0  0  0  0  0  0  0
   -3.6213    2.0945   -0.4342 H   0  0  0  0  0  0  0  0  0  0  0  0
   -4.6395    1.3128   -2.5375 H   0  0  0  0  0  0  0  0  0  0  0  0
   -6.7554    0.7297   -3.6517 H   0  0  0  0  0  0  0  0  0  0  0  0
   -8.6880   -0.0693   -2.3214 H   0  0  0  0  0  0  0  0  0  0  0  0
   -8.5049   -0.2868    0.1236 H   0  0  0  0  0  0  0  0  0  0  0  0
   -1.4381    2.1889   -0.3859 H   0  0  0  0  0  0  0  0  0  0  0  0
   -0.0847    1.6461    0.5614 H   0  0  0  0  0  0  0  0  0  0  0  0
    0.4283    1.4366   -1.8569 H   0  0  0  0  0  0  0  0  0  0  0  0
   -0.9937    0.4556   -2.1229 H   0  0  0  0  0  0  0  0  0  0  0  0
    1.7399   -3.2167   -1.8068 H   0  0  0  0  0  0  0  0  0  0  0  0
    4.1022   -4.5149   -1.5195 H   0  0  0  0  0  0  0  0  0  0  0  0
    5.8017   -2.7508   -0.3770 H   0  0  0  0  0  0  0  0  0  0  0  0
    6.6253   -0.8646    0.4223 H   0  0  0  0  0  0  0  0  0  0  0  0
  1  2  1  0
  2  3  1  0
  3  4  2  0
  4  5  1  0
  5  6  2  0
  6  7  1  0
  7  8  2  0
  8  9  1  0
  9 10  1  0
 10 11  1  0
 11 12  1  0
 12 13  1  0
 13 14  1  0
 14 15  1  0
 15 16  2  0
 16 17  1  0
 17 18  2  0
 18 19  1  0
 19 20  2  0
 20 21  1  0
 21 22  1  0
 21 23  1  0
 21 24  1  0
 12 25  1  0
 25 26  1  0
  8 27  1  0
 27 28  2  0
 28 29  1  0
 29 30  2  0
 30 31  1  0
 31 32  1  0
 32 33  2  0
 33  3  1  0
 32  6  1  0
 26  9  1  0
 31 27  1  0
 20 15  1  0
  1 34  1  0
  1 35  1  0
  1 36  1  0
  4 37  1  0
  5 38  1  0
 10 39  1  0
 10 40  1  0
 11 41  1  0
 11 42  1  0
 13 43  1  0
 13 44  1  0
 14 45  1  0
 14 46  1  0
 16 47  1  0
 17 48  1  0
 18 49  1  0
 19 50  1  0
 25 51  1  0
 25 52  1  0
 26 53  1  0
 26 54  1  0
 28 55  1  0
 29 56  1  0
 30 57  1  0
 33 58  1  0
M  END
$$$$
