
     RDKit          3D

 42 44  0  0  0  0  0  0  0  0999 V2000
    1.8988    1.3446    6.3499 C   0  0  0  0  0  0  0  0  0  0  0  0
    1.2954    1.6531    5.0985 O   0  0  0  0  0  0  0  0  0  0  0  0
    1.5286    0.7852    4.0675 C   0  0  0  0  0  0  0  0  0  0  0  0
    2.2912   -0.3745    4.1326 C   0  0  0  0  0  0  0  0  0  0  0  0
    2.4421   -1.1705    2.9940 C   0  0  0  0  0  0  0  0  0  0  0  0
    1.8354   -0.8243    1.7720 C   0  0  0  0  0  0  0  0  0  0  0  0
    2.0781   -1.7658    0.6214 C   0  0  0  0  0  0  0  0  0  0  0  0
    2.7165   -2.7948    0.8224 O   0  0  0  0  0  0  0  0  0  0  0  0
    1.4575   -1.4602   -0.5853 N   0  0  0  0  0  0  0  0  0  0  0  0
    1.8065   -1.8172   -1.8706 C   0  0  0  0  0  0  0  0  0  0  0  0
    3.1893   -2.6245   -2.3495 S   0  0  0  0  0  0  0  0  0  0  0  0
    0.9642   -1.3878   -2.8686 N   0  0  0  0  0  0  0  0  0  0  0  0
   -0.3857   -0.9793   -2.8423 C   0  0  0  0  0  0  0  0  0  0  0  0
   -1.2695   -1.2821   -1.7768 C   0  0  0  0  0  0  0  0  0  0  0  0
   -2.6082   -0.8639   -1.7902 C   0  0  0  0  0  0  0  0  0  0  0  0
   -3.0245   -0.1626   -2.8933 C   0  0  0  0  0  0  0  0  0  0  0  0
   -4.2718    0.3723   -3.1911 N   0  0  0  0  0  0  0  0  0  0  0  0
   -4.2088    0.9883   -4.4496 C   0  0  0  0  0  0  0  0  0  0  0  0
   -5.1163    1.5584   -5.0269 O   0  0  0  0  0  0  0  0  0  0  0  0
   -2.8952    0.8206   -4.9126 N   0  0  0  0  0  0  0  0  0  0  0  0
   -2.1722    0.1132   -3.9581 C   0  0  0  0  0  0  0  0  0  0  0  0
   -0.8568   -0.2895   -3.9705 C   0  0  0  0  0  0  0  0  0  0  0  0
    1.0647    0.3547    1.7048 C   0  0  0  0  0  0  0  0  0  0  0  0
    0.4841    0.6708    0.5013 O   0  0  0  0  0  0  0  0  0  0  0  0
   -0.2568    1.8858    0.4142 C   0  0  0  0  0  0  0  0  0  0  0  0
    0.9212    1.1420    2.8578 C   0  0  0  0  0  0  0  0  0  0  0  0
    1.6206    2.1314    7.0577 H   0  0  0  0  0  0  0  0  0  0  0  0
    2.9909    1.3385    6.2704 H   0  0  0  0  0  0  0  0  0  0  0  0
    1.5246    0.3941    6.7441 H   0  0  0  0  0  0  0  0  0  0  0  0
    2.7825   -0.6933    5.0461 H   0  0  0  0  0  0  0  0  0  0  0  0
    3.0456   -2.0753    3.0677 H   0  0  0  0  0  0  0  0  0  0  0  0
    0.8883   -0.6235   -0.5579 H   0  0  0  0  0  0  0  0  0  0  0  0
    1.3945   -1.4453   -3.7875 H   0  0  0  0  0  0  0  0  0  0  0  0
   -0.9477   -1.8952   -0.9385 H   0  0  0  0  0  0  0  0  0  0  0  0
   -3.2794   -1.1052   -0.9748 H   0  0  0  0  0  0  0  0  0  0  0  0
   -5.1075    0.3311   -2.6310 H   0  0  0  0  0  0  0  0  0  0  0  0
   -2.5700    1.1623   -5.8022 H   0  0  0  0  0  0  0  0  0  0  0  0
   -0.2144   -0.0599   -4.8122 H   0  0  0  0  0  0  0  0  0  0  0  0
   -0.6152    1.9821   -0.6153 H   0  0  0  0  0  0  0  0  0  0  0  0
    0.3781    2.7517    0.6275 H   0  0  0  0  0  0  0  0  0  0  0  0
   -1.1328    1.8589    1.0700 H   0  0  0  0  0  0  0  0  0  0  0  0
    0.3342    2.0557    2.8548 H   0  0  0  0  0  0  0  0  0  0  0  0
  1  2  1  0
  2  3  1  0
  3  4  2  0
  4  5  1  0
  5  6  2  0
  6  7  1  0
  7  8  2  0
  7  9  1  0
  9 10  1  0
 10 11  2  0
 10 12  1  0
 12 13  1  0
 13 14  2  0
 14 15  1  0
 15 16  2  0
 16 17  1  0
 17 18  1  0
 18 19  2  0
 18 20  1  0
 20 21  1  0
 21 22  2  0
  6 23  1  0
 23 24  1  0
 24 25  1  0
 23 26  2  0
 26  3  1  0
 22 13  1  0
 21 16  1  0
  1 27  1  0
  1 28  1  0
  1 29  1  0
  4 30  1  0
  5 31  1  0
  9 32  1  0
 12 33  1  0
 14 34  1  0
 15 35  1  0
 17 36  1  0
 20 37  1  0
 22 38  1  0
 25 39  1  0
 25 40  1  0
 25 41  1  0
 26 42  1  0
M  END
$$$$
