
     RDKit          3D

 49 53  0  0  0  0  0  0  0  0999 V2000
    5.3061    0.4990    4.5059 C   0  0  0  0  0  0  0  0  0  0  0  0
    4.7457    0.3780    3.1249 C   0  0  0  0  0  0  0  0  0  0  0  0
    5.7916    0.5388    1.7877 S   0  0  0  0  0  0  0  0  0  0  0  0
    4.5265    0.3139    0.6801 C   0  0  0  0  0  0  0  0  0  0  0  0
    4.7882    0.3494   -0.6373 N   0  0  0  0  0  0  0  0  0  0  0  0
    3.7030    0.1652   -1.3835 C   0  0  0  0  0  0  0  0  0  0  0  0
    2.4547   -0.0493   -0.9555 N   0  0  0  0  0  0  0  0  0  0  0  0
    2.2327   -0.0830    0.3768 C   0  0  0  0  0  0  0  0  0  0  0  0
    0.5716   -0.3348    0.9318 S   0  0  0  0  0  0  0  0  0  0  0  0
   -0.1016   -1.3795   -0.4293 C   0  0  0  0  0  0  0  0  0  0  0  0
    0.4703   -2.7915   -0.3330 C   0  0  0  0  0  0  0  0  0  0  0  0
   -1.6351   -1.4064   -0.2697 C   0  0  0  0  0  0  0  0  0  0  0  0
   -2.2147   -2.2936    0.3598 O   0  0  0  0  0  0  0  0  0  0  0  0
   -2.2817   -0.3007   -0.8472 N   0  0  0  0  0  0  0  0  0  0  0  0
   -3.0421    0.6070   -0.0224 C   0  0  0  0  0  0  0  0  0  0  0  0
   -3.2705    0.3065    1.3386 C   0  0  0  0  0  0  0  0  0  0  0  0
   -3.9975    1.1564    2.1794 C   0  0  0  0  0  0  0  0  0  0  0  0
   -4.5074    2.3455    1.6864 C   0  0  0  0  0  0  0  0  0  0  0  0
   -4.2745    2.6836    0.3580 C   0  0  0  0  0  0  0  0  0  0  0  0
   -3.5446    1.8313   -0.4937 C   0  0  0  0  0  0  0  0  0  0  0  0
   -3.2340    2.4582   -2.1209 S   0  0  0  0  0  0  0  0  0  0  0  0
   -2.7304    0.9825   -2.9515 C   0  0  0  0  0  0  0  0  0  0  0  0
   -2.7342    1.0321   -4.3585 C   0  0  0  0  0  0  0  0  0  0  0  0
   -2.3603   -0.0710   -5.1196 C   0  0  0  0  0  0  0  0  0  0  0  0
   -1.9862   -1.2406   -4.4793 C   0  0  0  0  0  0  0  0  0  0  0  0
   -1.9741   -1.2944   -3.0825 C   0  0  0  0  0  0  0  0  0  0  0  0
   -2.3236   -0.1805   -2.2841 C   0  0  0  0  0  0  0  0  0  0  0  0
    3.2931    0.1091    1.2853 C   0  0  0  0  0  0  0  0  0  0  0  0
    3.4294    0.1466    2.7403 C   0  0  0  0  0  0  0  0  0  0  0  0
    2.3061   -0.0375    3.7159 C   0  0  0  0  0  0  0  0  0  0  0  0
    4.8068    1.3105    5.0457 H   0  0  0  0  0  0  0  0  0  0  0  0
    6.3804    0.7127    4.5061 H   0  0  0  0  0  0  0  0  0  0  0  0
    5.1514   -0.4325    5.0598 H   0  0  0  0  0  0  0  0  0  0  0  0
    3.8466    0.1915   -2.4589 H   0  0  0  0  0  0  0  0  0  0  0  0
    0.1584   -0.9393   -1.3950 H   0  0  0  0  0  0  0  0  0  0  0  0
    0.2657   -3.2542    0.6396 H   0  0  0  0  0  0  0  0  0  0  0  0
    1.5528   -2.8038   -0.4967 H   0  0  0  0  0  0  0  0  0  0  0  0
    0.0189   -3.4366   -1.0954 H   0  0  0  0  0  0  0  0  0  0  0  0
   -2.9012   -0.6103    1.7908 H   0  0  0  0  0  0  0  0  0  0  0  0
   -4.1597    0.8800    3.2186 H   0  0  0  0  0  0  0  0  0  0  0  0
   -5.0719    3.0125    2.3321 H   0  0  0  0  0  0  0  0  0  0  0  0
   -4.6590    3.6324   -0.0126 H   0  0  0  0  0  0  0  0  0  0  0  0
   -3.0379    1.9418   -4.8742 H   0  0  0  0  0  0  0  0  0  0  0  0
   -2.3743   -0.0167   -6.2048 H   0  0  0  0  0  0  0  0  0  0  0  0
   -1.7126   -2.1182   -5.0605 H   0  0  0  0  0  0  0  0  0  0  0  0
   -1.7147   -2.2519   -2.6364 H   0  0  0  0  0  0  0  0  0  0  0  0
    1.5558    0.7488    3.5899 H   0  0  0  0  0  0  0  0  0  0  0  0
    1.8366   -1.0167    3.5802 H   0  0  0  0  0  0  0  0  0  0  0  0
    2.6513    0.0098    4.7534 H   0  0  0  0  0  0  0  0  0  0  0  0
  1  2  1  0
  2  3  1  0
  3  4  1  0
  4  5  2  0
  5  6  1  0
  6  7  2  0
  7  8  1  0
  8  9  1  0
  9 10  1  0
 10 11  1  0
 10 12  1  0
 12 13  2  0
 12 14  1  0
 14 15  1  0
 15 16  2  0
 16 17  1  0
 17 18  2  0
 18 19  1  0
 19 20  2  0
 20 21  1  0
 21 22  1  0
 22 23  2  0
 23 24  1  0
 24 25  2  0
 25 26  1  0
 26 27  2  0
  8 28  2  0
 28 29  1  0
 29 30  1  0
 29  2  2  0
 28  4  1  0
 27 14  1  0
 20 15  1  0
 27 22  1  0
  1 31  1  0
  1 32  1  0
  1 33  1  0
  6 34  1  0
 10 35  1  0
 11 36  1  0
 11 37  1  0
 11 38  1  0
 16 39  1  0
 17 40  1  0
 18 41  1  0
 19 42  1  0
 23 43  1  0
 24 44  1  0
 25 45  1  0
 26 46  1  0
 30 47  1  0
 30 48  1  0
 30 49  1  0
M  END
$$$$
