
     RDKit          3D

 44 46  0  0  0  0  0  0  0  0999 V2000
    8.6419   -2.1263   -0.1238 C   0  0  0  0  0  0  0  0  0  0  0  0
    7.2385   -1.8235    0.3126 C   0  0  0  0  0  0  0  0  0  0  0  0
    6.7947   -0.4986    0.3988 C   0  0  0  0  0  0  0  0  0  0  0  0
    5.4797   -0.2166    0.7765 C   0  0  0  0  0  0  0  0  0  0  0  0
    4.5864   -1.2576    1.0533 C   0  0  0  0  0  0  0  0  0  0  0  0
    3.1939   -0.9100    1.4519 C   0  0  0  0  0  0  0  0  0  0  0  0
    2.9396    0.1857    1.9395 O   0  0  0  0  0  0  0  0  0  0  0  0
    2.2261   -1.8621    1.1994 N   0  0  0  0  0  0  0  0  0  0  0  0
    0.8218   -1.5231    1.3753 C   0  0  0  0  0  0  0  0  0  0  0  0
    0.2630   -0.8978    0.1043 C   0  0  0  0  0  0  0  0  0  0  0  0
    0.6902   -1.1174   -1.0236 O   0  0  0  0  0  0  0  0  0  0  0  0
   -0.8094   -0.1150    0.3953 O   0  0  0  0  0  0  0  0  0  0  0  0
   -1.3978    0.5040   -0.7563 C   0  0  0  0  0  0  0  0  0  0  0  0
   -2.5253    1.4013   -0.3533 C   0  0  0  0  0  0  0  0  0  0  0  0
   -2.4403    2.4937    0.4865 C   0  0  0  0  0  0  0  0  0  0  0  0
   -3.9764    3.2204    0.6639 S   0  0  0  0  0  0  0  0  0  0  0  0
   -4.6679    2.0390   -0.3875 C   0  0  0  0  0  0  0  0  0  0  0  0
   -6.1056    2.0353   -0.7354 C   0  0  0  0  0  0  0  0  0  0  0  0
   -7.0335    2.9581   -0.2236 C   0  0  0  0  0  0  0  0  0  0  0  0
   -8.3832    2.9038   -0.5905 C   0  0  0  0  0  0  0  0  0  0  0  0
   -8.8304    1.9264   -1.4751 C   0  0  0  0  0  0  0  0  0  0  0  0
   -7.9303    1.0015   -1.9942 C   0  0  0  0  0  0  0  0  0  0  0  0
   -6.5827    1.0570   -1.6268 C   0  0  0  0  0  0  0  0  0  0  0  0
   -3.7989    1.1549   -0.8466 N   0  0  0  0  0  0  0  0  0  0  0  0
    5.0254   -2.5842    0.9686 C   0  0  0  0  0  0  0  0  0  0  0  0
    6.3426   -2.8632    0.5914 C   0  0  0  0  0  0  0  0  0  0  0  0
    8.9990   -3.0578    0.3279 H   0  0  0  0  0  0  0  0  0  0  0  0
    8.6820   -2.2228   -1.2131 H   0  0  0  0  0  0  0  0  0  0  0  0
    9.3278   -1.3313    0.1871 H   0  0  0  0  0  0  0  0  0  0  0  0
    7.4706    0.3244    0.1761 H   0  0  0  0  0  0  0  0  0  0  0  0
    5.1518    0.8186    0.8483 H   0  0  0  0  0  0  0  0  0  0  0  0
    2.4323   -2.5471    0.4823 H   0  0  0  0  0  0  0  0  0  0  0  0
    0.2746   -2.4471    1.5803 H   0  0  0  0  0  0  0  0  0  0  0  0
    0.7108   -0.8298    2.2145 H   0  0  0  0  0  0  0  0  0  0  0  0
   -0.6426    1.1003   -1.2832 H   0  0  0  0  0  0  0  0  0  0  0  0
   -1.7733   -0.2746   -1.4312 H   0  0  0  0  0  0  0  0  0  0  0  0
   -1.5686    2.8829    0.9936 H   0  0  0  0  0  0  0  0  0  0  0  0
   -6.7313    3.7379    0.4706 H   0  0  0  0  0  0  0  0  0  0  0  0
   -9.0844    3.6279   -0.1826 H   0  0  0  0  0  0  0  0  0  0  0  0
   -9.8787    1.8856   -1.7591 H   0  0  0  0  0  0  0  0  0  0  0  0
   -8.2718    0.2352   -2.6853 H   0  0  0  0  0  0  0  0  0  0  0  0
   -5.8952    0.3228   -2.0452 H   0  0  0  0  0  0  0  0  0  0  0  0
    4.3659   -3.4115    1.2135 H   0  0  0  0  0  0  0  0  0  0  0  0
    6.6691   -3.8992    0.5250 H   0  0  0  0  0  0  0  0  0  0  0  0
  1  2  1  0
  2  3  2  0
  3  4  1  0
  4  5  2  0
  5  6  1  0
  6  7  2  0
  6  8  1  0
  8  9  1  0
  9 10  1  0
 10 11  2  0
 10 12  1  0
 12 13  1  0
 13 14  1  0
 14 15  2  0
 15 16  1  0
 16 17  1  0
 17 18  1  0
 18 19  2  0
 19 20  1  0
 20 21  2  0
 21 22  1  0
 22 23  2  0
 17 24  2  0
  5 25  1  0
 25 26  2  0
 26  2  1  0
 24 14  1  0
 23 18  1  0
  1 27  1  0
  1 28  1  0
  1 29  1  0
  3 30  1  0
  4 31  1  0
  8 32  1  0
  9 33  1  0
  9 34  1  0
 13 35  1  0
 13 36  1  0
 15 37  1  0
 19 38  1  0
 20 39  1  0
 21 40  1  0
 22 41  1  0
 23 42  1  0
 25 43  1  0
 26 44  1  0
M  END
$$$$
