
     RDKit          3D

 57 61  0  0  0  0  0  0  0  0999 V2000
    0.0360    1.6008   -2.1365 O   0  0  0  0  0  0  0  0  0  0  0  0
    0.3115    1.0946   -0.8210 C   0  0  0  0  0  0  0  0  0  0  0  0
    1.5587    1.7947   -0.2488 C   0  0  0  0  0  0  0  0  0  0  0  0
    2.7271    1.5001   -1.0672 N   0  0  0  0  0  0  0  0  0  0  0  0
    3.9005    1.0186   -0.5495 C   0  0  0  0  0  0  0  0  0  0  0  0
    4.4156   -0.0167   -1.1606 N   0  0  0  0  0  0  0  0  0  0  0  0
    5.6254   -0.5768   -0.6985 C   0  0  0  0  0  0  0  0  0  0  0  0
    6.1486   -1.6792   -1.3773 C   0  0  0  0  0  0  0  0  0  0  0  0
    7.3507   -2.2642   -0.9711 C   0  0  0  0  0  0  0  0  0  0  0  0
    8.0453   -1.7503    0.1263 C   0  0  0  0  0  0  0  0  0  0  0  0
    7.5409   -0.6516    0.8227 C   0  0  0  0  0  0  0  0  0  0  0  0
    6.3359   -0.0779    0.4068 C   0  0  0  0  0  0  0  0  0  0  0  0
    5.7656    1.0379    1.0425 N   0  0  0  0  0  0  0  0  0  0  0  0
    6.2195    1.7606    2.1224 C   0  0  0  0  0  0  0  0  0  0  0  0
    5.3406    2.8001    2.3437 C   0  0  0  0  0  0  0  0  0  0  0  0
    4.3181    2.7004    1.3697 C   0  0  0  0  0  0  0  0  0  0  0  0
    4.5878    1.5899    0.5914 C   0  0  0  0  0  0  0  0  0  0  0  0
   -0.9208    1.3335    0.0784 C   0  0  0  0  0  0  0  0  0  0  0  0
   -2.1716    0.8714   -0.5563 N   0  0  0  0  0  0  0  0  0  0  0  0
   -3.3451    1.4259    0.1488 C   0  0  0  0  0  0  0  0  0  0  0  0
   -4.6860    0.8217   -0.3223 C   0  0  0  0  0  0  0  0  0  0  0  0
   -4.7182   -0.6382   -0.1350 N   0  0  0  0  0  0  0  0  0  0  0  0
   -5.9257   -1.3051    0.0150 C   0  0  0  0  0  0  0  0  0  0  0  0
   -6.0124   -2.5831    0.5944 C   0  0  0  0  0  0  0  0  0  0  0  0
   -7.2328   -3.2578    0.7383 C   0  0  0  0  0  0  0  0  0  0  0  0
   -8.4126   -2.6676    0.3037 C   0  0  0  0  0  0  0  0  0  0  0  0
   -8.3661   -1.4071   -0.2791 C   0  0  0  0  0  0  0  0  0  0  0  0
   -7.1401   -0.7434   -0.4213 C   0  0  0  0  0  0  0  0  0  0  0  0
   -3.4270   -1.3002    0.0925 C   0  0  0  0  0  0  0  0  0  0  0  0
   -2.2737   -0.6027   -0.6754 C   0  0  0  0  0  0  0  0  0  0  0  0
   -0.9029    1.3744   -2.2994 H   0  0  0  0  0  0  0  0  0  0  0  0
    0.5129    0.0231   -0.9275 H   0  0  0  0  0  0  0  0  0  0  0  0
    1.7100    1.4622    0.7855 H   0  0  0  0  0  0  0  0  0  0  0  0
    1.4150    2.8805   -0.2489 H   0  0  0  0  0  0  0  0  0  0  0  0
    2.4803    1.0276   -1.9353 H   0  0  0  0  0  0  0  0  0  0  0  0
    5.6154   -2.0764   -2.2368 H   0  0  0  0  0  0  0  0  0  0  0  0
    7.7467   -3.1173   -1.5148 H   0  0  0  0  0  0  0  0  0  0  0  0
    8.9854   -2.2042    0.4337 H   0  0  0  0  0  0  0  0  0  0  0  0
    8.1023   -0.2676    1.6687 H   0  0  0  0  0  0  0  0  0  0  0  0
    7.1338    1.5020    2.6379 H   0  0  0  0  0  0  0  0  0  0  0  0
    5.4369    3.5569    3.1113 H   0  0  0  0  0  0  0  0  0  0  0  0
    3.4832    3.3767    1.2422 H   0  0  0  0  0  0  0  0  0  0  0  0
   -0.7760    0.8706    1.0612 H   0  0  0  0  0  0  0  0  0  0  0  0
   -1.0034    2.4157    0.2351 H   0  0  0  0  0  0  0  0  0  0  0  0
   -3.3791    2.5104   -0.0087 H   0  0  0  0  0  0  0  0  0  0  0  0
   -3.2472    1.2599    1.2309 H   0  0  0  0  0  0  0  0  0  0  0  0
   -4.8475    1.0571   -1.3810 H   0  0  0  0  0  0  0  0  0  0  0  0
   -5.4779    1.3071    0.2619 H   0  0  0  0  0  0  0  0  0  0  0  0
   -5.1259   -3.0872    0.9672 H   0  0  0  0  0  0  0  0  0  0  0  0
   -7.2530   -4.2458    1.1930 H   0  0  0  0  0  0  0  0  0  0  0  0
   -9.3599   -3.1870    0.4143 H   0  0  0  0  0  0  0  0  0  0  0  0
   -9.2794   -0.9362   -0.6327 H   0  0  0  0  0  0  0  0  0  0  0  0
   -7.1566    0.2313   -0.9038 H   0  0  0  0  0  0  0  0  0  0  0  0
   -3.4516   -2.3403   -0.2559 H   0  0  0  0  0  0  0  0  0  0  0  0
   -3.2064   -1.3074    1.1667 H   0  0  0  0  0  0  0  0  0  0  0  0
   -1.3380   -1.1004   -0.3937 H   0  0  0  0  0  0  0  0  0  0  0  0
   -2.4127   -0.8137   -1.7444 H   0  0  0  0  0  0  0  0  0  0  0  0
  1  2  1  0
  2  3  1  0
  3  4  1  0
  4  5  1  0
  5  6  2  0
  6  7  1  0
  7  8  2  0
  8  9  1  0
  9 10  2  0
 10 11  1  0
 11 12  2  0
 12 13  1  0
 13 14  1  0
 14 15  2  0
 15 16  1  0
 16 17  2  0
  2 18  1  0
 18 19  1  0
 19 20  1  0
 20 21  1  0
 21 22  1  0
 22 23  1  0
 23 24  2  0
 24 25  1  0
 25 26  2  0
 26 27  1  0
 27 28  2  0
 22 29  1  0
 29 30  1  0
 17  5  1  0
 30 19  1  0
 12  7  1  0
 17 13  1  0
 28 23  1  0
  1 31  1  0
  2 32  1  0
  3 33  1  0
  3 34  1  0
  4 35  1  0
  8 36  1  0
  9 37  1  0
 10 38  1  0
 11 39  1  0
 14 40  1  0
 15 41  1  0
 16 42  1  0
 18 43  1  0
 18 44  1  0
 20 45  1  0
 20 46  1  0
 21 47  1  0
 21 48  1  0
 24 49  1  0
 25 50  1  0
 26 51  1  0
 27 52  1  0
 28 53  1  0
 29 54  1  0
 29 55  1  0
 30 56  1  0
 30 57  1  0
M  END
$$$$
