
     RDKit          3D

 42 44  0  0  0  0  0  0  0  0999 V2000
   -5.1149    1.4593    0.4580 C   0  0  0  0  0  0  0  0  0  0  0  0
   -4.0974    1.1180   -0.5910 C   0  0  0  0  0  0  0  0  0  0  0  0
   -4.4797    0.9938   -1.9272 C   0  0  0  0  0  0  0  0  0  0  0  0
   -3.5573    0.6437   -2.9187 C   0  0  0  0  0  0  0  0  0  0  0  0
   -2.2259    0.4072   -2.5386 C   0  0  0  0  0  0  0  0  0  0  0  0
   -1.8096    0.5180   -1.2117 C   0  0  0  0  0  0  0  0  0  0  0  0
   -2.7647    0.8660   -0.2284 C   0  0  0  0  0  0  0  0  0  0  0  0
   -0.4137    0.2167   -1.1807 C   0  0  0  0  0  0  0  0  0  0  0  0
    0.3977    0.2196   -0.0024 C   0  0  0  0  0  0  0  0  0  0  0  0
    1.3486   -0.6851    0.2854 C   0  0  0  0  0  0  0  0  0  0  0  0
    2.1487   -0.6730    1.5141 C   0  0  0  0  0  0  0  0  0  0  0  0
    1.5919   -0.3963    2.7619 C   0  0  0  0  0  0  0  0  0  0  0  0
    2.3934   -0.4279    3.8975 C   0  0  0  0  0  0  0  0  0  0  0  0
    3.7080   -0.7277    3.8043 N   0  0  0  0  0  4  0  0  0  0  0  0
    4.5348   -0.7632    5.0225 C   0  0  0  0  0  0  0  0  0  0  0  0
    4.2651   -1.0226    2.6087 C   0  0  0  0  0  0  0  0  0  0  0  0
    3.5004   -1.0051    1.4476 C   0  0  0  0  0  0  0  0  0  0  0  0
    0.0062   -0.0222   -2.4799 C   0  0  0  0  0  0  0  0  0  0  0  0
    1.3636   -0.2875   -3.0384 C   0  0  0  0  0  0  0  0  0  0  0  0
   -1.1193    0.0430   -3.2817 N   0  0  0  0  0  0  0  0  0  0  0  0
   -1.1447   -0.2098   -4.7091 C   0  0  0  0  0  0  0  0  0  0  0  0
   -5.5757    0.5446    0.8434 H   0  0  0  0  0  0  0  0  0  0  0  0
   -4.6518    2.0002    1.2900 H   0  0  0  0  0  0  0  0  0  0  0  0
   -5.8981    2.1053    0.0475 H   0  0  0  0  0  0  0  0  0  0  0  0
   -5.5143    1.1708   -2.2163 H   0  0  0  0  0  0  0  0  0  0  0  0
   -3.8793    0.5599   -3.9518 H   0  0  0  0  0  0  0  0  0  0  0  0
   -2.4632    0.9414    0.8118 H   0  0  0  0  0  0  0  0  0  0  0  0
    0.1749    1.0126    0.7078 H   0  0  0  0  0  0  0  0  0  0  0  0
    1.5599   -1.4881   -0.4183 H   0  0  0  0  0  0  0  0  0  0  0  0
    0.5325   -0.1683    2.8634 H   0  0  0  0  0  0  0  0  0  0  0  0
    1.9905   -0.2210    4.8850 H   0  0  0  0  0  0  0  0  0  0  0  0
    4.1439   -0.0390    5.7418 H   0  0  0  0  0  0  0  0  0  0  0  0
    4.4829   -1.7784    5.4236 H   0  0  0  0  0  0  0  0  0  0  0  0
    5.5635   -0.4977    4.7654 H   0  0  0  0  0  0  0  0  0  0  0  0
    5.3219   -1.2740    2.5914 H   0  0  0  0  0  0  0  0  0  0  0  0
    3.9677   -1.2436    0.4936 H   0  0  0  0  0  0  0  0  0  0  0  0
    1.4992    0.2012   -4.0087 H   0  0  0  0  0  0  0  0  0  0  0  0
    1.5179   -1.3636   -3.1647 H   0  0  0  0  0  0  0  0  0  0  0  0
    2.1487    0.0988   -2.3815 H   0  0  0  0  0  0  0  0  0  0  0  0
   -0.4077   -0.9781   -4.9548 H   0  0  0  0  0  0  0  0  0  0  0  0
   -0.9130    0.7265   -5.2225 H   0  0  0  0  0  0  0  0  0  0  0  0
   -2.1316   -0.5746   -5.0021 H   0  0  0  0  0  0  0  0  0  0  0  0
  1  2  1  0
  2  3  2  0
  3  4  1  0
  4  5  2  0
  5  6  1  0
  6  7  2  0
  6  8  1  0
  8  9  1  0
  9 10  2  3
 10 11  1  0
 11 12  2  0
 12 13  1  0
 13 14  2  0
 14 15  1  0
 14 16  1  0
 16 17  2  0
  8 18  2  0
 18 19  1  0
 18 20  1  0
 20 21  1  0
  7  2  1  0
 17 11  1  0
 20  5  1  0
  1 22  1  0
  1 23  1  0
  1 24  1  0
  3 25  1  0
  4 26  1  0
  7 27  1  0
  9 28  1  0
 10 29  1  0
 12 30  1  0
 13 31  1  0
 15 32  1  0
 15 33  1  0
 15 34  1  0
 16 35  1  0
 17 36  1  0
 19 37  1  0
 19 38  1  0
 19 39  1  0
 21 40  1  0
 21 41  1  0
 21 42  1  0
M  CHG  1  14   1
M  END
$$$$
