
     RDKit          3D

 38 38  0  0  0  0  0  0  0  0999 V2000
    4.6868   -1.9506   -1.2773 C   0  0  0  0  0  0  0  0  0  0  0  0
    4.8594   -0.5457   -1.8247 C   0  0  0  0  0  0  0  0  0  0  0  0
    3.6515   -0.1128   -2.4696 O   0  0  0  0  0  0  0  0  0  0  0  0
    2.7166    0.4599   -1.6578 C   0  0  0  0  0  0  0  0  0  0  0  0
    2.8237    0.5907   -0.4476 O   0  0  0  0  0  0  0  0  0  0  0  0
    1.5202    0.8514   -2.4712 C   0  0  0  0  0  0  0  0  0  0  0  0
    0.5050    1.6604   -1.7066 C   0  0  0  0  0  0  0  0  0  0  0  0
    0.3907    2.8703   -1.9069 O   0  0  0  0  0  0  0  0  0  0  0  0
   -0.4033    0.9945   -0.7197 C   0  0  0  0  0  0  0  0  0  0  0  0
   -1.3582    1.7916   -0.0605 C   0  0  0  0  0  0  0  0  0  0  0  0
   -2.2556    1.2313    0.8550 C   0  0  0  0  0  0  0  0  0  0  0  0
   -3.2273    1.9257    1.5280 O   0  0  0  0  0  0  0  0  0  0  0  0
   -3.2590    3.3374    1.3593 C   0  0  0  0  0  0  0  0  0  0  0  0
   -2.1912   -0.1469    1.1075 C   0  0  0  0  0  0  0  0  0  0  0  0
   -3.0624   -0.7170    2.0048 O   0  0  0  0  0  0  0  0  0  0  0  0
   -4.2121   -1.2083    1.3149 C   0  0  0  0  0  0  0  0  0  0  0  0
   -1.2123   -0.9334    0.4889 C   0  0  0  0  0  0  0  0  0  0  0  0
   -1.1101   -2.2842    0.7045 O   0  0  0  0  0  0  0  0  0  0  0  0
   -0.5388   -2.5454    1.9886 C   0  0  0  0  0  0  0  0  0  0  0  0
   -0.3400   -0.3743   -0.4450 C   0  0  0  0  0  0  0  0  0  0  0  0
    4.3895   -2.6405   -2.0747 H   0  0  0  0  0  0  0  0  0  0  0  0
    5.6188   -2.3092   -0.8303 H   0  0  0  0  0  0  0  0  0  0  0  0
    3.8997   -1.9839   -0.5168 H   0  0  0  0  0  0  0  0  0  0  0  0
    5.6482   -0.5409   -2.5844 H   0  0  0  0  0  0  0  0  0  0  0  0
    5.1638    0.1579   -1.0401 H   0  0  0  0  0  0  0  0  0  0  0  0
    1.8622    1.4686   -3.3108 H   0  0  0  0  0  0  0  0  0  0  0  0
    1.0438   -0.0380   -2.8937 H   0  0  0  0  0  0  0  0  0  0  0  0
   -1.3861    2.8541   -0.2871 H   0  0  0  0  0  0  0  0  0  0  0  0
   -3.5015    3.6039    0.3251 H   0  0  0  0  0  0  0  0  0  0  0  0
   -4.0545    3.7324    1.9987 H   0  0  0  0  0  0  0  0  0  0  0  0
   -2.3168    3.7964    1.6776 H   0  0  0  0  0  0  0  0  0  0  0  0
   -4.8884   -1.6425    2.0580 H   0  0  0  0  0  0  0  0  0  0  0  0
   -4.7463   -0.4006    0.8020 H   0  0  0  0  0  0  0  0  0  0  0  0
   -3.9427   -1.9976    0.6037 H   0  0  0  0  0  0  0  0  0  0  0  0
   -0.3508   -3.6215    2.0553 H   0  0  0  0  0  0  0  0  0  0  0  0
    0.4196   -2.0271    2.1104 H   0  0  0  0  0  0  0  0  0  0  0  0
   -1.2228   -2.2757    2.7992 H   0  0  0  0  0  0  0  0  0  0  0  0
    0.3808   -1.0302   -0.9215 H   0  0  0  0  0  0  0  0  0  0  0  0
  1  2  1  0
  2  3  1  0
  3  4  1  0
  4  5  2  0
  4  6  1  0
  6  7  1  0
  7  8  2  0
  7  9  1  0
  9 10  2  0
 10 11  1  0
 11 12  1  0
 12 13  1  0
 11 14  2  0
 14 15  1  0
 15 16  1  0
 14 17  1  0
 17 18  1  0
 18 19  1  0
 17 20  2  0
 20  9  1  0
  1 21  1  0
  1 22  1  0
  1 23  1  0
  2 24  1  0
  2 25  1  0
  6 26  1  0
  6 27  1  0
 10 28  1  0
 13 29  1  0
 13 30  1  0
 13 31  1  0
 16 32  1  0
 16 33  1  0
 16 34  1  0
 19 35  1  0
 19 36  1  0
 19 37  1  0
 20 38  1  0
M  END
$$$$
