
     RDKit          3D

 43 45  0  0  0  0  0  0  0  0999 V2000
    6.2819    2.0781   -1.9410 C   0  0  0  0  0  0  0  0  0  0  0  0
    6.1103    1.1866   -0.8459 O   0  0  0  0  0  0  0  0  0  0  0  0
    4.8482    0.7057   -0.6286 C   0  0  0  0  0  0  0  0  0  0  0  0
    3.7152    1.0151   -1.3760 C   0  0  0  0  0  0  0  0  0  0  0  0
    2.4768    0.4520   -1.0452 C   0  0  0  0  0  0  0  0  0  0  0  0
    2.3509   -0.4338    0.0320 C   0  0  0  0  0  0  0  0  0  0  0  0
    1.1137   -0.9874    0.4501 N   0  0  0  0  0  0  0  0  0  0  0  0
   -0.1319   -0.8057   -0.0752 C   0  0  0  0  0  0  0  0  0  0  0  0
   -0.9108   -1.8299   -0.2546 N   0  0  0  0  0  0  0  0  0  0  0  0
   -2.1499   -1.5091   -0.7683 C   0  0  0  0  0  0  0  0  0  0  0  0
   -2.9445   -2.3654   -1.1426 O   0  0  0  0  0  0  0  0  0  0  0  0
   -2.5819   -0.0503   -0.9211 C   0  0  0  0  0  0  0  0  0  0  0  0
   -4.0051    0.2273   -1.3226 C   0  0  0  0  0  0  0  0  0  0  0  0
   -4.9364    0.2338   -0.1362 C   0  0  0  0  0  0  0  0  0  0  0  0
   -5.6704   -0.9114    0.2000 C   0  0  0  0  0  0  0  0  0  0  0  0
   -6.5134   -0.9092    1.3123 C   0  0  0  0  0  0  0  0  0  0  0  0
   -6.6272    0.2343    2.1006 C   0  0  0  0  0  0  0  0  0  0  0  0
   -5.8956    1.3761    1.7798 C   0  0  0  0  0  0  0  0  0  0  0  0
   -5.0514    1.3760    0.6685 C   0  0  0  0  0  0  0  0  0  0  0  0
   -1.7442    0.9214   -0.6843 N   0  0  0  0  0  0  0  0  0  0  0  0
   -0.5012    0.4998   -0.3098 N   0  0  0  0  0  0  0  0  0  0  0  0
    3.5061   -0.7438    0.7866 C   0  0  0  0  0  0  0  0  0  0  0  0
    3.3055   -1.6296    1.8206 O   0  0  0  0  0  0  0  0  0  0  0  0
    4.4259   -1.9306    2.6439 C   0  0  0  0  0  0  0  0  0  0  0  0
    4.7391   -0.1756    0.4505 C   0  0  0  0  0  0  0  0  0  0  0  0
    5.6942    2.9914   -1.8019 H   0  0  0  0  0  0  0  0  0  0  0  0
    7.3376    2.3637   -1.9770 H   0  0  0  0  0  0  0  0  0  0  0  0
    6.0364    1.5895   -2.8897 H   0  0  0  0  0  0  0  0  0  0  0  0
    3.7565    1.6864   -2.2278 H   0  0  0  0  0  0  0  0  0  0  0  0
    1.6260    0.6986   -1.6744 H   0  0  0  0  0  0  0  0  0  0  0  0
    1.2693   -1.9274    0.8107 H   0  0  0  0  0  0  0  0  0  0  0  0
   -4.3344   -0.5005   -2.0725 H   0  0  0  0  0  0  0  0  0  0  0  0
   -4.0468    1.2048   -1.8197 H   0  0  0  0  0  0  0  0  0  0  0  0
   -5.5866   -1.8170   -0.3990 H   0  0  0  0  0  0  0  0  0  0  0  0
   -7.0782   -1.8028    1.5651 H   0  0  0  0  0  0  0  0  0  0  0  0
   -7.2829    0.2337    2.9671 H   0  0  0  0  0  0  0  0  0  0  0  0
   -5.9797    2.2664    2.3974 H   0  0  0  0  0  0  0  0  0  0  0  0
   -4.4800    2.2725    0.4357 H   0  0  0  0  0  0  0  0  0  0  0  0
    0.1082    1.2019    0.1074 H   0  0  0  0  0  0  0  0  0  0  0  0
    5.2095   -2.4381    2.0719 H   0  0  0  0  0  0  0  0  0  0  0  0
    4.8106   -1.0300    3.1337 H   0  0  0  0  0  0  0  0  0  0  0  0
    4.0893   -2.6167    3.4270 H   0  0  0  0  0  0  0  0  0  0  0  0
    5.6416   -0.4010    1.0092 H   0  0  0  0  0  0  0  0  0  0  0  0
  1  2  1  0
  2  3  1  0
  3  4  2  0
  4  5  1  0
  5  6  2  0
  6  7  1  0
  7  8  1  0
  8  9  2  0
  9 10  1  0
 10 11  2  0
 10 12  1  0
 12 13  1  0
 13 14  1  0
 14 15  2  0
 15 16  1  0
 16 17  2  0
 17 18  1  0
 18 19  2  0
 12 20  2  0
 20 21  1  0
  6 22  1  0
 22 23  1  0
 23 24  1  0
 22 25  2  0
 25  3  1  0
 21  8  1  0
 19 14  1  0
  1 26  1  0
  1 27  1  0
  1 28  1  0
  4 29  1  0
  5 30  1  0
  7 31  1  0
 13 32  1  0
 13 33  1  0
 15 34  1  0
 16 35  1  0
 17 36  1  0
 18 37  1  0
 19 38  1  0
 21 39  1  0
 24 40  1  0
 24 41  1  0
 24 42  1  0
 25 43  1  0
M  END
$$$$
