
     RDKit          3D

 59 61  0  0  0  0  0  0  0  0999 V2000
   -7.6007   -2.2840   -0.3085 C   0  0  0  0  0  0  0  0  0  0  0  0
   -6.3512   -1.9491    0.0446 C   0  0  0  0  0  0  0  0  0  0  0  0
   -5.7792   -0.5423    0.2492 C   0  0  0  0  0  0  0  0  0  0  0  0
   -6.7694    0.6035   -0.0768 C   0  0  0  0  0  0  0  0  0  0  0  0
   -5.5165   -0.4465    1.7756 C   0  0  0  0  0  0  0  0  0  0  0  0
   -4.5017   -0.3633   -0.6103 C   0  0  0  0  0  0  0  0  0  0  0  0
   -3.2440   -0.1015   -0.0244 C   0  0  0  0  0  0  0  0  0  0  0  0
   -2.0670    0.0619   -0.7868 C   0  0  0  0  0  0  0  0  0  0  0  0
   -0.7554    0.3391   -0.0715 C   0  0  2  0  0  0  0  0  0  0  0  0
   -0.1727    1.7009   -0.4258 C   0  0  0  0  0  0  0  0  0  0  0  0
    1.0850    1.8828    0.3722 C   0  0  0  0  0  0  0  0  0  0  0  0
    1.4761    2.9821    0.7591 O   0  0  0  0  0  0  0  0  0  0  0  0
    1.8960    0.6755    0.6297 C   0  0  0  0  0  0  0  0  0  0  0  0
    1.3909   -0.5581    0.2178 C   0  0  0  0  0  0  0  0  0  0  0  0
    2.1552   -1.7112    0.3764 C   0  0  0  0  0  0  0  0  0  0  0  0
    3.4116   -1.6292    0.9778 C   0  0  0  0  0  0  0  0  0  0  0  0
    4.1570   -2.7651    1.1382 O   0  0  0  0  0  0  0  0  0  0  0  0
    3.9326   -0.4048    1.4281 C   0  0  0  0  0  0  0  0  0  0  0  0
    5.3088   -0.3318    2.0556 C   0  0  0  0  0  0  0  0  0  0  0  0
    6.4068   -0.2509    1.0256 C   0  0  0  0  0  0  0  0  0  0  0  0
    7.2334    0.7799    0.7590 C   0  0  0  0  0  0  0  0  0  0  0  0
    8.2842    0.6606   -0.3135 C   0  0  0  0  0  0  0  0  0  0  0  0
    7.2063    2.1152    1.4496 C   0  0  0  0  0  0  0  0  0  0  0  0
    3.1576    0.7522    1.2404 C   0  0  0  0  0  0  0  0  0  0  0  0
    3.6717    1.9502    1.6705 O   0  0  0  0  0  0  0  0  0  0  0  0
    0.1637   -0.7247   -0.3680 O   0  0  0  0  0  0  0  0  0  0  0  0
   -2.1621   -0.0454   -2.1756 C   0  0  0  0  0  0  0  0  0  0  0  0
   -1.0383    0.1096   -2.9364 O   0  0  0  0  0  0  0  0  0  0  0  0
   -3.3829   -0.3034   -2.7923 C   0  0  0  0  0  0  0  0  0  0  0  0
   -4.5335   -0.4592   -2.0144 C   0  0  0  0  0  0  0  0  0  0  0  0
   -5.7194   -0.7115   -2.6484 O   0  0  0  0  0  0  0  0  0  0  0  0
   -8.3694   -1.5439   -0.5002 H   0  0  0  0  0  0  0  0  0  0  0  0
   -7.8780   -3.3270   -0.4266 H   0  0  0  0  0  0  0  0  0  0  0  0
   -5.6431   -2.7624    0.2055 H   0  0  0  0  0  0  0  0  0  0  0  0
   -6.2935    1.5822    0.0624 H   0  0  0  0  0  0  0  0  0  0  0  0
   -7.6477    0.5731    0.5794 H   0  0  0  0  0  0  0  0  0  0  0  0
   -7.1397    0.5703   -1.1060 H   0  0  0  0  0  0  0  0  0  0  0  0
   -4.8055   -1.2078    2.1200 H   0  0  0  0  0  0  0  0  0  0  0  0
   -5.1218    0.5372    2.0572 H   0  0  0  0  0  0  0  0  0  0  0  0
   -6.4419   -0.5927    2.3477 H   0  0  0  0  0  0  0  0  0  0  0  0
   -3.1554   -0.0206    1.0562 H   0  0  0  0  0  0  0  0  0  0  0  0
   -0.9435    0.3017    1.0122 H   0  0  0  0  0  0  0  0  0  0  0  0
   -0.8785    2.4984   -0.1686 H   0  0  0  0  0  0  0  0  0  0  0  0
    0.0992    1.7950   -1.4817 H   0  0  0  0  0  0  0  0  0  0  0  0
    1.7553   -2.6612    0.0349 H   0  0  0  0  0  0  0  0  0  0  0  0
    3.6772   -3.5198    0.7593 H   0  0  0  0  0  0  0  0  0  0  0  0
    5.4768   -1.2268    2.6689 H   0  0  0  0  0  0  0  0  0  0  0  0
    5.3513    0.4889    2.7777 H   0  0  0  0  0  0  0  0  0  0  0  0
    6.5252   -1.1695    0.4508 H   0  0  0  0  0  0  0  0  0  0  0  0
    9.2811    0.8067    0.1151 H   0  0  0  0  0  0  0  0  0  0  0  0
    8.1233    1.4179   -1.0877 H   0  0  0  0  0  0  0  0  0  0  0  0
    8.2727   -0.3200   -0.8008 H   0  0  0  0  0  0  0  0  0  0  0  0
    6.4396    2.1949    2.2218 H   0  0  0  0  0  0  0  0  0  0  0  0
    7.0179    2.9104    0.7206 H   0  0  0  0  0  0  0  0  0  0  0  0
    8.1720    2.3089    1.9282 H   0  0  0  0  0  0  0  0  0  0  0  0
    3.0331    2.6644    1.4483 H   0  0  0  0  0  0  0  0  0  0  0  0
   -1.2455   -0.0931   -3.8633 H   0  0  0  0  0  0  0  0  0  0  0  0
   -3.4426   -0.3761   -3.8726 H   0  0  0  0  0  0  0  0  0  0  0  0
   -5.5620   -0.8604   -3.5936 H   0  0  0  0  0  0  0  0  0  0  0  0
  1  2  2  0
  2  3  1  0
  3  4  1  0
  3  5  1  0
  3  6  1  0
  6  7  2  0
  7  8  1  0
  8  9  1  0
  9 10  1  0
 10 11  1  0
 11 12  2  0
 11 13  1  0
 13 14  2  0
 14 15  1  0
 15 16  2  0
 16 17  1  0
 16 18  1  0
 18 19  1  0
 19 20  1  0
 20 21  2  3
 21 22  1  0
 21 23  1  0
 18 24  2  0
 24 25  1  0
 14 26  1  0
  8 27  2  0
 27 28  1  0
 27 29  1  0
 29 30  2  0
 30 31  1  0
 30  6  1  0
 26  9  1  0
 24 13  1  0
  1 32  1  0
  1 33  1  0
  2 34  1  0
  4 35  1  0
  4 36  1  0
  4 37  1  0
  5 38  1  0
  5 39  1  0
  5 40  1  0
  7 41  1  0
  9 42  1  1
 10 43  1  0
 10 44  1  0
 15 45  1  0
 17 46  1  0
 19 47  1  0
 19 48  1  0
 20 49  1  0
 22 50  1  0
 22 51  1  0
 22 52  1  0
 23 53  1  0
 23 54  1  0
 23 55  1  0
 25 56  1  0
 28 57  1  0
 29 58  1  0
 31 59  1  0
M  END
$$$$
