
     RDKit          3D

 67 72  0  0  0  0  0  0  0  0999 V2000
   -5.1193    3.3470    2.5273 C   0  0  0  0  0  0  0  0  0  0  0  0
   -4.1156    3.0146    1.4634 C   0  0  0  0  0  0  0  0  0  0  0  0
   -4.0095    3.7788    0.2854 C   0  0  0  0  0  0  0  0  0  0  0  0
   -5.0227    5.1537    0.0093 Cl  0  0  0  0  0  0  0  0  0  0  0  0
   -3.0853    3.4494   -0.7261 C   0  0  0  0  0  0  0  0  0  0  0  0
   -2.2385    2.3477   -0.5925 C   0  0  0  0  0  0  0  0  0  0  0  0
   -2.3229    1.5883    0.5662 C   0  0  0  0  0  0  0  0  0  0  0  0
   -3.2611    1.9203    1.5599 C   0  0  0  0  0  0  0  0  0  0  0  0
   -3.2061    0.9863    2.5910 N   0  0  0  0  0  0  0  0  0  0  0  0
   -2.2718   -0.0170    2.3368 C   0  0  0  0  0  0  0  0  0  0  0  0
   -2.0683   -0.9719    3.0739 O   0  0  0  0  0  0  0  0  0  0  0  0
   -1.5800    0.3415    0.9833 C   0  0  1  0  0  0  0  0  0  0  0  0
   -1.7741   -0.7093   -0.0366 C   0  0  0  0  0  0  0  0  0  0  0  0
   -0.5760   -1.3609   -0.3223 C   0  0  0  0  0  0  0  0  0  0  0  0
   -0.8128   -2.3341   -1.2583 C   0  0  0  0  0  0  0  0  0  0  0  0
    0.0081   -3.2425   -1.7790 O   0  0  0  0  0  0  0  0  0  0  0  0
   -2.1894   -2.2981   -1.5570 N   0  0  0  0  0  0  0  0  0  0  0  0
   -2.8880   -3.2059   -2.4138 C   0  0  0  0  0  0  0  0  0  0  0  0
   -2.2510   -3.7710   -3.5274 C   0  0  0  0  0  0  0  0  0  0  0  0
   -2.9499   -4.6486   -4.3539 C   0  0  0  0  0  0  0  0  0  0  0  0
   -2.3411   -5.1628   -5.4315 F   0  0  0  0  0  0  0  0  0  0  0  0
   -4.2684   -4.9890   -4.0933 C   0  0  0  0  0  0  0  0  0  0  0  0
   -4.8885   -4.4414   -2.9812 C   0  0  0  0  0  0  0  0  0  0  0  0
   -6.1563   -4.7726   -2.7062 F   0  0  0  0  0  0  0  0  0  0  0  0
   -4.2177   -3.5563   -2.1392 C   0  0  0  0  0  0  0  0  0  0  0  0
   -2.7608   -1.2346   -0.8305 C   0  0  0  0  0  0  0  0  0  0  0  0
   -4.0181   -0.8127   -0.9578 O   0  0  0  0  0  0  0  0  0  0  0  0
    0.5424   -0.8086    0.4763 C   0  0  1  0  0  0  0  0  0  0  0  0
    1.7792   -0.4574   -0.3745 C   0  0  0  0  0  0  0  0  0  0  0  0
    2.7094    0.4037    0.3473 N   0  0  0  0  0  0  0  0  0  0  0  0
    4.0622    0.1471    0.3100 C   0  0  0  0  0  0  0  0  0  0  0  0
    4.5485   -0.8032   -0.2908 O   0  0  0  0  0  0  0  0  0  0  0  0
    4.7737    1.0720    1.0086 O   0  0  0  0  0  0  0  0  0  0  0  0
    6.2141    0.9516    1.1408 C   0  0  0  0  0  0  0  0  0  0  0  0
    6.6295    2.1503    2.0094 C   0  0  0  0  0  0  0  0  0  0  0  0
    6.6010   -0.3397    1.8740 C   0  0  0  0  0  0  0  0  0  0  0  0
    6.9172    1.0679   -0.2189 C   0  0  0  0  0  0  0  0  0  0  0  0
    2.1265    1.5053    1.1171 C   0  0  0  0  0  0  0  0  0  0  0  0
    0.6000    1.6336    0.9179 C   0  0  0  0  0  0  0  0  0  0  0  0
   -0.0905    0.3707    1.1841 N   0  0  0  0  0  0  0  0  0  0  0  0
   -5.0206    4.3930    2.8376 H   0  0  0  0  0  0  0  0  0  0  0  0
   -6.1323    3.1680    2.1560 H   0  0  0  0  0  0  0  0  0  0  0  0
   -4.9895    2.7421    3.4308 H   0  0  0  0  0  0  0  0  0  0  0  0
   -3.0351    4.0508   -1.6313 H   0  0  0  0  0  0  0  0  0  0  0  0
   -1.5493    2.0846   -1.3901 H   0  0  0  0  0  0  0  0  0  0  0  0
   -3.7975    0.9580    3.4085 H   0  0  0  0  0  0  0  0  0  0  0  0
    0.8464   -3.2213   -1.2824 H   0  0  0  0  0  0  0  0  0  0  0  0
   -1.2276   -3.5253   -3.7963 H   0  0  0  0  0  0  0  0  0  0  0  0
   -4.8003   -5.6721   -4.7453 H   0  0  0  0  0  0  0  0  0  0  0  0
   -4.7401   -3.2053   -1.2537 H   0  0  0  0  0  0  0  0  0  0  0  0
   -4.3554   -1.0679   -1.8349 H   0  0  0  0  0  0  0  0  0  0  0  0
    0.8304   -1.5283    1.2535 H   0  0  0  0  0  0  0  0  0  0  0  0
    1.4875    0.0893   -1.2793 H   0  0  0  0  0  0  0  0  0  0  0  0
    2.2735   -1.3744   -0.7093 H   0  0  0  0  0  0  0  0  0  0  0  0
    6.1382    2.1088    2.9898 H   0  0  0  0  0  0  0  0  0  0  0  0
    7.7120    2.1835    2.1681 H   0  0  0  0  0  0  0  0  0  0  0  0
    6.3185    3.0958    1.5482 H   0  0  0  0  0  0  0  0  0  0  0  0
    6.3885   -1.2301    1.2744 H   0  0  0  0  0  0  0  0  0  0  0  0
    7.6691   -0.3554    2.1162 H   0  0  0  0  0  0  0  0  0  0  0  0
    6.0294   -0.4414    2.8038 H   0  0  0  0  0  0  0  0  0  0  0  0
    6.5972    1.9742   -0.7468 H   0  0  0  0  0  0  0  0  0  0  0  0
    6.6872    0.2253   -0.8773 H   0  0  0  0  0  0  0  0  0  0  0  0
    8.0043    1.1027   -0.1003 H   0  0  0  0  0  0  0  0  0  0  0  0
    2.6206    2.4385    0.8172 H   0  0  0  0  0  0  0  0  0  0  0  0
    2.3609    1.3338    2.1772 H   0  0  0  0  0  0  0  0  0  0  0  0
    0.2280    2.4190    1.5873 H   0  0  0  0  0  0  0  0  0  0  0  0
    0.4275    1.9620   -0.1128 H   0  0  0  0  0  0  0  0  0  0  0  0
  1  2  1  0
  2  3  2  0
  3  4  1  0
  3  5  1  0
  5  6  2  0
  6  7  1  0
  7  8  2  0
  8  9  1  0
  9 10  1  0
 10 11  2  0
 10 12  1  0
 12 13  1  0
 13 14  1  0
 14 15  2  0
 15 16  1  0
 15 17  1  0
 17 18  1  0
 18 19  2  0
 19 20  1  0
 20 21  1  0
 20 22  2  0
 22 23  1  0
 23 24  1  0
 23 25  2  0
 17 26  1  0
 26 27  1  0
 14 28  1  0
 28 29  1  0
 29 30  1  0
 30 31  1  0
 31 32  2  0
 31 33  1  0
 33 34  1  0
 34 35  1  0
 34 36  1  0
 34 37  1  0
 30 38  1  0
 38 39  1  0
 39 40  1  0
  8  2  1  0
 12 40  1  1
 12  7  1  0
 26 13  2  0
 40 28  1  0
 25 18  1  0
  1 41  1  0
  1 42  1  0
  1 43  1  0
  5 44  1  0
  6 45  1  0
  9 46  1  0
 16 47  1  0
 19 48  1  0
 22 49  1  0
 25 50  1  0
 27 51  1  0
 28 52  1  1
 29 53  1  0
 29 54  1  0
 35 55  1  0
 35 56  1  0
 35 57  1  0
 36 58  1  0
 36 59  1  0
 36 60  1  0
 37 61  1  0
 37 62  1  0
 37 63  1  0
 38 64  1  0
 38 65  1  0
 39 66  1  0
 39 67  1  0
M  END
$$$$
