
     RDKit          3D

 29 30  0  0  0  0  0  0  0  0999 V2000
   -0.1655    4.1389   -0.2502 C   0  0  0  0  0  0  0  0  0  0  0  0
    0.4647    3.1804    0.4425 C   0  0  0  0  0  0  0  0  0  0  0  0
    1.4090    2.1786   -0.1660 C   0  0  0  0  0  0  0  0  0  0  0  0
    0.7398    0.8805   -0.2619 N   0  0  0  0  0  0  0  0  0  0  0  0
    0.7136   -0.0585    0.7585 C   0  0  0  0  0  0  0  0  0  0  0  0
    1.5487    0.3123    2.2577 S   0  0  0  0  0  0  0  0  0  0  0  0
    1.1147   -1.1479    3.2516 C   0  0  0  0  0  0  0  0  0  0  0  0
    1.6796   -1.0777    4.6063 C   0  0  0  0  0  0  0  0  0  0  0  0
    2.1182   -1.0374    5.6809 N   0  0  0  0  0  0  0  0  0  0  0  0
    0.1140   -1.2012    0.6812 N   0  0  0  0  0  0  0  0  0  0  0  0
   -0.5631   -1.5264   -0.4966 C   0  0  0  0  0  0  0  0  0  0  0  0
   -1.2220   -2.7557   -0.5800 C   0  0  0  0  0  0  0  0  0  0  0  0
   -1.9100   -3.1173   -1.7416 C   0  0  0  0  0  0  0  0  0  0  0  0
   -1.9438   -2.2491   -2.8319 C   0  0  0  0  0  0  0  0  0  0  0  0
   -1.2894   -1.0202   -2.7593 C   0  0  0  0  0  0  0  0  0  0  0  0
   -0.6036   -0.6688   -1.5899 C   0  0  0  0  0  0  0  0  0  0  0  0
    0.1009    0.6184   -1.4754 C   0  0  0  0  0  0  0  0  0  0  0  0
    0.0988    1.3790   -2.4413 O   0  0  0  0  0  0  0  0  0  0  0  0
   -0.8279    4.8425    0.2444 H   0  0  0  0  0  0  0  0  0  0  0  0
   -0.0471    4.2331   -1.3267 H   0  0  0  0  0  0  0  0  0  0  0  0
    0.3121    3.1284    1.5179 H   0  0  0  0  0  0  0  0  0  0  0  0
    2.3207    2.1134    0.4346 H   0  0  0  0  0  0  0  0  0  0  0  0
    1.7326    2.5103   -1.1599 H   0  0  0  0  0  0  0  0  0  0  0  0
    0.0246   -1.2241    3.3234 H   0  0  0  0  0  0  0  0  0  0  0  0
    1.4913   -2.0479    2.7543 H   0  0  0  0  0  0  0  0  0  0  0  0
   -1.1992   -3.4373    0.2665 H   0  0  0  0  0  0  0  0  0  0  0  0
   -2.4190   -4.0770   -1.7941 H   0  0  0  0  0  0  0  0  0  0  0  0
   -2.4787   -2.5286   -3.7366 H   0  0  0  0  0  0  0  0  0  0  0  0
   -1.3139   -0.3406   -3.6083 H   0  0  0  0  0  0  0  0  0  0  0  0
  1  2  2  0
  2  3  1  0
  3  4  1  0
  4  5  1  0
  5  6  1  0
  6  7  1  0
  7  8  1  0
  8  9  3  0
  5 10  2  0
 10 11  1  0
 11 12  2  0
 12 13  1  0
 13 14  2  0
 14 15  1  0
 15 16  2  0
 16 17  1  0
 17 18  2  0
 17  4  1  0
 16 11  1  0
  1 19  1  0
  1 20  1  0
  2 21  1  0
  3 22  1  0
  3 23  1  0
  7 24  1  0
  7 25  1  0
 12 26  1  0
 13 27  1  0
 14 28  1  0
 15 29  1  0
M  END
$$$$
