
     RDKit          3D

 54 58  0  0  0  0  0  0  0  0999 V2000
    0.8878   -0.1429    3.1817 O   0  0  0  0  0  0  0  0  0  0  0  0
    1.0866   -0.8499    2.1933 C   0  0  0  0  0  0  0  0  0  0  0  0
   -0.0194   -1.6939    1.5752 C   0  0  0  0  0  0  0  0  0  0  0  0
    0.1668   -1.9380   -0.2200 S   0  0  0  0  0  0  0  0  0  0  0  0
   -0.3523   -0.3630   -0.8130 C   0  0  0  0  0  0  0  0  0  0  0  0
   -0.1134    0.6424   -0.0303 N   0  0  0  0  0  0  0  0  0  0  0  0
   -0.5025    1.8896   -0.5159 C   0  0  0  0  0  0  0  0  0  0  0  0
   -1.0662    2.0424   -1.7430 C   0  0  0  0  0  0  0  0  0  0  0  0
   -1.4263    3.6573   -2.0863 S   0  0  0  0  0  0  0  0  0  0  0  0
   -0.8178    4.1835   -0.5527 C   0  0  0  0  0  0  0  0  0  0  0  0
   -0.7702    5.5037   -0.0646 C   0  0  0  0  0  0  0  0  0  0  0  0
   -0.2481    5.7324    1.2120 C   0  0  0  0  0  0  0  0  0  0  0  0
    0.2087    4.6780    1.9902 C   0  0  0  0  0  0  0  0  0  0  0  0
    0.1622    3.3688    1.5022 C   0  0  0  0  0  0  0  0  0  0  0  0
   -0.3510    3.1050    0.2101 C   0  0  0  0  0  0  0  0  0  0  0  0
   -1.3245    0.9400   -2.6180 C   0  0  0  0  0  0  0  0  0  0  0  0
   -1.8409    1.0504   -3.7287 O   0  0  0  0  0  0  0  0  0  0  0  0
   -0.9431   -0.2990   -2.0785 N   0  0  0  0  0  0  0  0  0  0  0  0
   -1.2728   -1.4712   -2.9056 C   0  0  0  0  0  0  0  0  0  0  0  0
   -2.7650   -1.8484   -2.8596 C   0  0  0  0  0  0  0  0  0  0  0  0
   -3.2336   -2.2903   -1.4952 C   0  0  0  0  0  0  0  0  0  0  0  0
   -3.8348   -1.3763   -0.6191 C   0  0  0  0  0  0  0  0  0  0  0  0
   -4.2294   -1.7778    0.6581 C   0  0  0  0  0  0  0  0  0  0  0  0
   -4.0313   -3.0945    1.0694 C   0  0  0  0  0  0  0  0  0  0  0  0
   -3.4402   -4.0124    0.2043 C   0  0  0  0  0  0  0  0  0  0  0  0
   -3.0446   -3.6132   -1.0737 C   0  0  0  0  0  0  0  0  0  0  0  0
    2.3333   -0.9906    1.6341 N   0  0  0  0  0  0  0  0  0  0  0  0
    3.4875   -0.3271    2.1845 C   0  0  0  0  0  0  0  0  0  0  0  0
    4.5996   -0.4253    1.2108 C   0  0  0  0  0  0  0  0  0  0  0  0
    5.2441    0.4962    0.4120 C   0  0  0  0  0  0  0  0  0  0  0  0
    6.2328   -0.2190   -0.3068 C   0  0  0  0  0  0  0  0  0  0  0  0
    6.1227   -1.5304    0.0914 C   0  0  0  0  0  0  0  0  0  0  0  0
    5.1325   -1.6675    1.0101 O   0  0  0  0  0  0  0  0  0  0  0  0
    0.0043   -2.6769    2.0580 H   0  0  0  0  0  0  0  0  0  0  0  0
   -0.9889   -1.2324    1.7862 H   0  0  0  0  0  0  0  0  0  0  0  0
   -1.1320    6.3316   -0.6668 H   0  0  0  0  0  0  0  0  0  0  0  0
   -0.2054    6.7480    1.6000 H   0  0  0  0  0  0  0  0  0  0  0  0
    0.6068    4.8661    2.9846 H   0  0  0  0  0  0  0  0  0  0  0  0
    0.5171    2.5450    2.1183 H   0  0  0  0  0  0  0  0  0  0  0  0
   -0.6594   -2.3357   -2.6426 H   0  0  0  0  0  0  0  0  0  0  0  0
   -1.0108   -1.2338   -3.9446 H   0  0  0  0  0  0  0  0  0  0  0  0
   -2.9460   -2.6615   -3.5738 H   0  0  0  0  0  0  0  0  0  0  0  0
   -3.3850   -1.0134   -3.2051 H   0  0  0  0  0  0  0  0  0  0  0  0
   -3.9987   -0.3448   -0.9226 H   0  0  0  0  0  0  0  0  0  0  0  0
   -4.6933   -1.0625    1.3327 H   0  0  0  0  0  0  0  0  0  0  0  0
   -4.3410   -3.4064    2.0639 H   0  0  0  0  0  0  0  0  0  0  0  0
   -3.2886   -5.0399    0.5235 H   0  0  0  0  0  0  0  0  0  0  0  0
   -2.5815   -4.3423   -1.7349 H   0  0  0  0  0  0  0  0  0  0  0  0
    2.4733   -1.6860    0.9102 H   0  0  0  0  0  0  0  0  0  0  0  0
    3.2387    0.7185    2.3997 H   0  0  0  0  0  0  0  0  0  0  0  0
    3.7486   -0.8194    3.1277 H   0  0  0  0  0  0  0  0  0  0  0  0
    5.0258    1.5542    0.3590 H   0  0  0  0  0  0  0  0  0  0  0  0
    6.9358    0.1722   -1.0285 H   0  0  0  0  0  0  0  0  0  0  0  0
    6.6429   -2.4396   -0.1731 H   0  0  0  0  0  0  0  0  0  0  0  0
  1  2  2  0
  2  3  1  0
  3  4  1  0
  4  5  1  0
  5  6  2  0
  6  7  1  0
  7  8  2  0
  8  9  1  0
  9 10  1  0
 10 11  2  0
 11 12  1  0
 12 13  2  0
 13 14  1  0
 14 15  2  0
  8 16  1  0
 16 17  2  0
 16 18  1  0
 18 19  1  0
 19 20  1  0
 20 21  1  0
 21 22  2  0
 22 23  1  0
 23 24  2  0
 24 25  1  0
 25 26  2  0
  2 27  1  0
 27 28  1  0
 28 29  1  0
 29 30  2  0
 30 31  1  0
 31 32  2  0
 32 33  1  0
 18  5  1  0
 26 21  1  0
 33 29  1  0
 15  7  1  0
 15 10  1  0
  3 34  1  0
  3 35  1  0
 11 36  1  0
 12 37  1  0
 13 38  1  0
 14 39  1  0
 19 40  1  0
 19 41  1  0
 20 42  1  0
 20 43  1  0
 22 44  1  0
 23 45  1  0
 24 46  1  0
 25 47  1  0
 26 48  1  0
 27 49  1  0
 28 50  1  0
 28 51  1  0
 30 52  1  0
 31 53  1  0
 32 54  1  0
M  END
$$$$
