
     RDKit          3D

 63 65  0  0  0  0  0  0  0  0999 V2000
    1.0986    5.6631   -1.7589 C   0  0  0  0  0  0  0  0  0  0  0  0
    1.2925    4.2533   -1.6903 O   0  0  0  0  0  0  0  0  0  0  0  0
    1.4537    3.7153   -0.4422 C   0  0  0  0  0  0  0  0  0  0  0  0
    1.5760    4.4309    0.7458 C   0  0  0  0  0  0  0  0  0  0  0  0
    1.7401    3.7575    1.9584 C   0  0  0  0  0  0  0  0  0  0  0  0
    1.8142    2.3664    1.9856 C   0  0  0  0  0  0  0  0  0  0  0  0
    1.7127    1.6301    0.7996 C   0  0  0  0  0  0  0  0  0  0  0  0
    1.8352    0.1233    0.8169 C   0  0  0  0  0  0  0  0  0  0  0  0
    0.7013   -0.5438    0.1709 N   0  0  0  0  0  0  0  0  0  0  0  0
   -0.6052   -0.4161    0.8296 C   0  0  0  0  0  0  0  0  0  0  0  0
   -0.7881   -1.4000    1.9937 C   0  0  0  0  0  0  0  0  0  0  0  0
    0.0815   -2.1875    2.3564 O   0  0  0  0  0  0  0  0  0  0  0  0
   -2.0314   -1.3085    2.5974 N   0  0  0  0  0  0  0  0  0  0  0  0
   -2.4435   -2.2842    3.5934 C   0  0  0  0  0  0  0  0  0  0  0  0
   -3.5017   -1.7404    4.5547 C   0  0  0  0  0  0  0  0  0  0  0  0
   -3.0034   -0.6528    5.4904 C   0  0  0  0  0  0  0  0  0  0  0  0
   -3.9680   -0.7863    6.6441 C   0  0  0  0  0  0  0  0  0  0  0  0
   -4.1452   -2.2826    6.7380 C   0  0  0  0  0  0  0  0  0  0  0  0
   -3.9938   -2.7967    5.3962 O   0  0  0  0  0  0  0  0  0  0  0  0
    0.9655   -1.4702   -0.8277 C   0  0  0  0  0  0  0  0  0  0  0  0
    2.1041   -1.6948   -1.2401 O   0  0  0  0  0  0  0  0  0  0  0  0
   -0.2312   -2.1942   -1.4360 C   0  0  0  0  0  0  0  0  0  0  0  0
    0.1683   -3.1123   -2.5868 C   0  0  0  0  0  0  0  0  0  0  0  0
    0.4260   -2.3046   -3.8436 C   0  0  0  0  0  0  0  0  0  0  0  0
   -0.4749   -2.0886   -4.6516 O   0  0  0  0  0  0  0  0  0  0  0  0
    1.7077   -1.8385   -3.9223 N   0  0  0  0  0  0  0  0  0  0  0  0
    2.2381   -1.1309   -4.9764 C   0  0  0  0  0  0  0  0  0  0  0  0
    1.5950   -0.6734   -6.1519 C   0  0  0  0  0  0  0  0  0  0  0  0
    2.5899   -0.0239   -6.8532 C   0  0  0  0  0  0  0  0  0  0  0  0
    2.6439    0.6914   -8.1398 C   0  0  0  0  0  0  0  0  0  0  0  0
    3.7567   -0.0987   -6.1523 O   0  0  0  0  0  0  0  0  0  0  0  0
    3.5382   -0.7876   -4.9738 N   0  0  0  0  0  0  0  0  0  0  0  0
    1.5318    2.3202   -0.4084 C   0  0  0  0  0  0  0  0  0  0  0  0
    2.0196    6.1895   -1.4717 H   0  0  0  0  0  0  0  0  0  0  0  0
    0.8730    5.9203   -2.8078 H   0  0  0  0  0  0  0  0  0  0  0  0
    0.2474    5.9855   -1.1318 H   0  0  0  0  0  0  0  0  0  0  0  0
    1.5525    5.5142    0.7604 H   0  0  0  0  0  0  0  0  0  0  0  0
    1.8540    4.3190    2.8830 H   0  0  0  0  0  0  0  0  0  0  0  0
    1.9659    1.8637    2.9399 H   0  0  0  0  0  0  0  0  0  0  0  0
    1.8982   -0.2541    1.8446 H   0  0  0  0  0  0  0  0  0  0  0  0
    2.7848   -0.1345    0.3362 H   0  0  0  0  0  0  0  0  0  0  0  0
   -1.4073   -0.5887    0.1115 H   0  0  0  0  0  0  0  0  0  0  0  0
   -0.7262    0.6012    1.2100 H   0  0  0  0  0  0  0  0  0  0  0  0
   -2.7531   -0.7727    2.1358 H   0  0  0  0  0  0  0  0  0  0  0  0
   -2.8513   -3.1498    3.0442 H   0  0  0  0  0  0  0  0  0  0  0  0
   -1.5679   -2.6631    4.1467 H   0  0  0  0  0  0  0  0  0  0  0  0
   -4.3600   -1.3645    3.9875 H   0  0  0  0  0  0  0  0  0  0  0  0
   -3.0205    0.3414    5.0357 H   0  0  0  0  0  0  0  0  0  0  0  0
   -1.9869   -0.8612    5.8382 H   0  0  0  0  0  0  0  0  0  0  0  0
   -3.6047   -0.3400    7.5692 H   0  0  0  0  0  0  0  0  0  0  0  0
   -4.9196   -0.3104    6.3868 H   0  0  0  0  0  0  0  0  0  0  0  0
   -3.3595   -2.7408    7.3611 H   0  0  0  0  0  0  0  0  0  0  0  0
   -5.1252   -2.5710    7.1443 H   0  0  0  0  0  0  0  0  0  0  0  0
   -0.9590   -1.4512   -1.7914 H   0  0  0  0  0  0  0  0  0  0  0  0
   -0.6928   -2.8062   -0.6487 H   0  0  0  0  0  0  0  0  0  0  0  0
   -0.6465   -3.8113   -2.8052 H   0  0  0  0  0  0  0  0  0  0  0  0
    1.0455   -3.7195   -2.3472 H   0  0  0  0  0  0  0  0  0  0  0  0
    2.3479   -1.9582   -3.1261 H   0  0  0  0  0  0  0  0  0  0  0  0
    0.5553   -0.7800   -6.4385 H   0  0  0  0  0  0  0  0  0  0  0  0
    1.7680    1.3393   -8.2688 H   0  0  0  0  0  0  0  0  0  0  0  0
    2.6768   -0.0210   -8.9676 H   0  0  0  0  0  0  0  0  0  0  0  0
    3.5380    1.3211   -8.2053 H   0  0  0  0  0  0  0  0  0  0  0  0
    1.4691    1.7684   -1.3407 H   0  0  0  0  0  0  0  0  0  0  0  0
  1  2  1  0
  2  3  1  0
  3  4  2  0
  4  5  1  0
  5  6  2  0
  6  7  1  0
  7  8  1  0
  8  9  1  0
  9 10  1  0
 10 11  1  0
 11 12  2  0
 11 13  1  0
 13 14  1  0
 14 15  1  0
 15 16  1  0
 16 17  1  0
 17 18  1  0
 18 19  1  0
  9 20  1  0
 20 21  2  0
 20 22  1  0
 22 23  1  0
 23 24  1  0
 24 25  2  0
 24 26  1  0
 26 27  1  0
 27 28  1  0
 28 29  2  0
 29 30  1  0
 29 31  1  0
 31 32  1  0
  7 33  2  0
 33  3  1  0
 19 15  1  0
 32 27  2  0
  1 34  1  0
  1 35  1  0
  1 36  1  0
  4 37  1  0
  5 38  1  0
  6 39  1  0
  8 40  1  0
  8 41  1  0
 10 42  1  0
 10 43  1  0
 13 44  1  0
 14 45  1  0
 14 46  1  0
 15 47  1  0
 16 48  1  0
 16 49  1  0
 17 50  1  0
 17 51  1  0
 18 52  1  0
 18 53  1  0
 22 54  1  0
 22 55  1  0
 23 56  1  0
 23 57  1  0
 26 58  1  0
 28 59  1  0
 30 60  1  0
 30 61  1  0
 30 62  1  0
 33 63  1  0
M  END
$$$$
