
     RDKit          3D

 84 87  0  0  0  0  0  0  0  0999 V2000
    6.2046    4.8033   -1.0732 C   0  0  0  0  0  0  0  0  0  0  0  0
    5.1068    4.0723   -1.6073 O   0  0  0  0  0  0  0  0  0  0  0  0
    4.2230    3.5367   -0.7118 C   0  0  0  0  0  0  0  0  0  0  0  0
    3.1899    2.7910   -1.2898 C   0  0  0  0  0  0  0  0  0  0  0  0
    2.2186    2.1814   -0.4941 C   0  0  0  0  0  0  0  0  0  0  0  0
    2.2879    2.3208    0.8927 C   0  0  0  0  0  0  0  0  0  0  0  0
    1.0583    1.5417    1.9029 S   0  0  0  0  0  6  0  0  0  0  0  0
    1.4421    1.6604    3.2930 O   0  0  0  0  0  0  0  0  0  0  0  0
   -0.2315    2.0087    1.4356 O   0  0  0  0  0  0  0  0  0  0  0  0
    1.1797   -0.1142    1.4867 N   0  0  0  0  0  0  0  0  0  0  0  0
    2.4892   -0.7340    1.8169 C   0  0  0  0  0  0  0  0  0  0  0  0
    0.0215   -0.9255    2.0099 C   0  0  0  0  0  0  0  0  0  0  0  0
   -0.1829   -2.2478    1.2229 C   0  0  0  0  0  0  0  0  0  0  0  0
   -0.1320   -1.8930   -0.1807 O   0  0  0  0  0  0  0  0  0  0  0  0
   -1.1841   -2.2050   -0.9944 C   0  0  0  0  0  0  0  0  0  0  0  0
   -1.9976   -1.1597   -1.4691 C   0  0  0  0  0  0  0  0  0  0  0  0
   -1.6985    0.1534   -1.0401 N   0  0  0  0  0  0  0  0  0  0  0  0
   -2.2643    1.3346   -1.4662 C   0  0  0  0  0  0  0  0  0  0  0  0
   -3.1931    1.4579   -2.2540 O   0  0  0  0  0  0  0  0  0  0  0  0
   -1.6133    2.4169   -0.9115 N   0  0  0  0  0  0  0  0  0  0  0  0
   -2.0357    3.7823   -1.1842 C   0  0  0  0  0  0  0  0  0  0  0  0
   -3.2265    4.1753   -0.2997 C   0  0  0  0  0  0  0  0  0  0  0  0
   -3.6330    5.6301   -0.5163 C   0  0  0  0  0  0  0  0  0  0  0  0
   -2.4562    6.5819   -0.3217 C   0  0  0  0  0  0  0  0  0  0  0  0
   -1.2692    6.1935   -1.1977 C   0  0  0  0  0  0  0  0  0  0  0  0
   -0.8584    4.7415   -0.9748 C   0  0  0  0  0  0  0  0  0  0  0  0
   -3.0304   -1.4590   -2.3642 C   0  0  0  0  0  0  0  0  0  0  0  0
   -3.2158   -2.7630   -2.8361 C   0  0  0  0  0  0  0  0  0  0  0  0
   -2.3670   -3.7836   -2.4192 C   0  0  0  0  0  0  0  0  0  0  0  0
   -1.3590   -3.5015   -1.4937 C   0  0  0  0  0  0  0  0  0  0  0  0
   -0.4749   -4.6048   -1.0731 C   0  0  0  0  0  0  0  0  0  0  0  0
    0.1758   -5.1956   -1.9278 O   0  0  0  0  0  0  0  0  0  0  0  0
   -0.4586   -4.9181    0.2873 N   0  0  0  0  0  0  0  0  0  0  0  0
    0.4632   -5.9563    0.7905 C   0  0  0  0  0  0  0  0  0  0  0  0
    1.9308   -5.6285    0.4853 C   0  0  0  0  0  0  0  0  0  0  0  0
    0.0780   -7.3686    0.3106 C   0  0  0  0  0  0  0  0  0  0  0  0
    0.8601   -8.3598    0.9716 O   0  0  0  0  0  0  0  0  0  0  0  0
   -1.5469   -4.4858    1.1622 C   0  0  0  0  0  0  0  0  0  0  0  0
   -1.4199   -3.0503    1.7324 C   0  0  0  0  0  0  0  0  0  0  0  0
   -1.4652   -3.1500    3.2669 C   0  0  0  0  0  0  0  0  0  0  0  0
    3.3085    3.0679    1.4839 C   0  0  0  0  0  0  0  0  0  0  0  0
    4.2767    3.6756    0.6777 C   0  0  0  0  0  0  0  0  0  0  0  0
    5.8609    5.6912   -0.5330 H   0  0  0  0  0  0  0  0  0  0  0  0
    6.8306    4.1698   -0.4364 H   0  0  0  0  0  0  0  0  0  0  0  0
    6.8201    5.1406   -1.9120 H   0  0  0  0  0  0  0  0  0  0  0  0
    3.1442    2.6809   -2.3705 H   0  0  0  0  0  0  0  0  0  0  0  0
    1.4235    1.6053   -0.9605 H   0  0  0  0  0  0  0  0  0  0  0  0
    2.5953   -1.6876    1.2911 H   0  0  0  0  0  0  0  0  0  0  0  0
    3.3219   -0.1088    1.4912 H   0  0  0  0  0  0  0  0  0  0  0  0
    2.5781   -0.9146    2.8924 H   0  0  0  0  0  0  0  0  0  0  0  0
    0.1924   -1.1174    3.0744 H   0  0  0  0  0  0  0  0  0  0  0  0
   -0.8996   -0.3404    1.9118 H   0  0  0  0  0  0  0  0  0  0  0  0
    0.7042   -2.8625    1.4051 H   0  0  0  0  0  0  0  0  0  0  0  0
   -0.8691    0.2438   -0.4665 H   0  0  0  0  0  0  0  0  0  0  0  0
   -1.2106    2.2596    0.0119 H   0  0  0  0  0  0  0  0  0  0  0  0
   -2.3470    3.8349   -2.2360 H   0  0  0  0  0  0  0  0  0  0  0  0
   -4.0841    3.5234   -0.5032 H   0  0  0  0  0  0  0  0  0  0  0  0
   -2.9703    4.0243    0.7572 H   0  0  0  0  0  0  0  0  0  0  0  0
   -4.4398    5.8953    0.1764 H   0  0  0  0  0  0  0  0  0  0  0  0
   -4.0320    5.7469   -1.5313 H   0  0  0  0  0  0  0  0  0  0  0  0
   -2.7686    7.6064   -0.5551 H   0  0  0  0  0  0  0  0  0  0  0  0
   -2.1504    6.5732    0.7318 H   0  0  0  0  0  0  0  0  0  0  0  0
   -0.4211    6.8531   -0.9833 H   0  0  0  0  0  0  0  0  0  0  0  0
   -1.5295    6.3403   -2.2528 H   0  0  0  0  0  0  0  0  0  0  0  0
   -0.0408    4.4830   -1.6580 H   0  0  0  0  0  0  0  0  0  0  0  0
   -0.4590    4.6302    0.0417 H   0  0  0  0  0  0  0  0  0  0  0  0
   -3.6940   -0.6862   -2.7453 H   0  0  0  0  0  0  0  0  0  0  0  0
   -4.0082   -2.9699   -3.5521 H   0  0  0  0  0  0  0  0  0  0  0  0
   -2.4854   -4.7901   -2.8132 H   0  0  0  0  0  0  0  0  0  0  0  0
    0.3938   -5.9423    1.8877 H   0  0  0  0  0  0  0  0  0  0  0  0
    2.5996   -6.2673    1.0695 H   0  0  0  0  0  0  0  0  0  0  0  0
    2.1774   -5.7745   -0.5703 H   0  0  0  0  0  0  0  0  0  0  0  0
    2.1600   -4.5908    0.7403 H   0  0  0  0  0  0  0  0  0  0  0  0
   -0.9731   -7.5671    0.5476 H   0  0  0  0  0  0  0  0  0  0  0  0
    0.1979   -7.4921   -0.7715 H   0  0  0  0  0  0  0  0  0  0  0  0
    1.7013   -8.4244    0.4851 H   0  0  0  0  0  0  0  0  0  0  0  0
   -2.4884   -4.5604    0.6021 H   0  0  0  0  0  0  0  0  0  0  0  0
   -1.6579   -5.2273    1.9631 H   0  0  0  0  0  0  0  0  0  0  0  0
   -2.3285   -2.5071    1.4380 H   0  0  0  0  0  0  0  0  0  0  0  0
   -0.5425   -3.5896    3.6605 H   0  0  0  0  0  0  0  0  0  0  0  0
   -2.3056   -3.7728    3.5946 H   0  0  0  0  0  0  0  0  0  0  0  0
   -1.6136   -2.1702    3.7313 H   0  0  0  0  0  0  0  0  0  0  0  0
    3.3598    3.1857    2.5642 H   0  0  0  0  0  0  0  0  0  0  0  0
    5.0569    4.2521    1.1644 H   0  0  0  0  0  0  0  0  0  0  0  0
  1  2  1  0
  2  3  1  0
  3  4  2  0
  4  5  1  0
  5  6  2  0
  6  7  1  0
  7  8  2  0
  7  9  2  0
  7 10  1  0
 10 11  1  0
 10 12  1  0
 12 13  1  0
 13 14  1  0
 14 15  1  0
 15 16  2  0
 16 17  1  0
 17 18  1  0
 18 19  2  0
 18 20  1  0
 20 21  1  0
 21 22  1  0
 22 23  1  0
 23 24  1  0
 24 25  1  0
 25 26  1  0
 16 27  1  0
 27 28  2  0
 28 29  1  0
 29 30  2  0
 30 31  1  0
 31 32  2  0
 31 33  1  0
 33 34  1  0
 34 35  1  0
 34 36  1  0
 36 37  1  0
 33 38  1  0
 38 39  1  0
 39 40  1  0
  6 41  1  0
 41 42  2  0
 42  3  1  0
 39 13  1  0
 30 15  1  0
 26 21  1  0
  1 43  1  0
  1 44  1  0
  1 45  1  0
  4 46  1  0
  5 47  1  0
 11 48  1  0
 11 49  1  0
 11 50  1  0
 12 51  1  0
 12 52  1  0
 13 53  1  0
 17 54  1  0
 20 55  1  0
 21 56  1  0
 22 57  1  0
 22 58  1  0
 23 59  1  0
 23 60  1  0
 24 61  1  0
 24 62  1  0
 25 63  1  0
 25 64  1  0
 26 65  1  0
 26 66  1  0
 27 67  1  0
 28 68  1  0
 29 69  1  0
 34 70  1  0
 35 71  1  0
 35 72  1  0
 35 73  1  0
 36 74  1  0
 36 75  1  0
 37 76  1  0
 38 77  1  0
 38 78  1  0
 39 79  1  0
 40 80  1  0
 40 81  1  0
 40 82  1  0
 41 83  1  0
 42 84  1  0
M  END
$$$$
