
     RDKit          3D

 33 35  0  0  0  0  0  0  0  0999 V2000
    4.7569    0.3094   -1.1222 C   0  0  0  0  0  0  0  0  0  0  0  0
    3.5916    0.1267   -0.2413 N   0  0  0  0  0  4  0  0  0  0  0  0
    3.6445   -0.7773    0.7627 C   0  0  0  0  0  0  0  0  0  0  0  0
    2.5578   -0.9608    1.6103 C   0  0  0  0  0  0  0  0  0  0  0  0
    1.4026   -0.2085    1.4176 C   0  0  0  0  0  0  0  0  0  0  0  0
    0.2587   -0.3894    2.3172 C   0  0  0  0  0  0  0  0  0  0  0  0
   -1.0148   -0.6057    1.9445 C   0  0  0  0  0  0  0  0  0  0  0  0
   -1.5093   -0.7591    0.6170 C   0  0  0  0  0  0  0  0  0  0  0  0
   -1.1767   -1.7877   -0.2363 C   0  0  0  0  0  0  0  0  0  0  0  0
   -1.8891   -1.6125   -1.3946 N   0  0  0  0  0  0  0  0  0  0  0  0
   -2.6534   -0.4695   -1.3165 C   0  0  0  0  0  0  0  0  0  0  0  0
   -3.5181    0.1015   -2.2576 C   0  0  0  0  0  0  0  0  0  0  0  0
   -4.1908    1.2715   -1.8931 C   0  0  0  0  0  0  0  0  0  0  0  0
   -4.0077    1.8439   -0.6366 C   0  0  0  0  0  0  0  0  0  0  0  0
   -3.1412    1.2595    0.2942 C   0  0  0  0  0  0  0  0  0  0  0  0
   -2.4480    0.0804   -0.0495 C   0  0  0  0  0  0  0  0  0  0  0  0
    1.3810    0.7368    0.3932 C   0  0  0  0  0  0  0  0  0  0  0  0
    2.4882    0.8838   -0.4309 C   0  0  0  0  0  0  0  0  0  0  0  0
    5.3762    1.0973   -0.6864 H   0  0  0  0  0  0  0  0  0  0  0  0
    5.3108   -0.6307   -1.1858 H   0  0  0  0  0  0  0  0  0  0  0  0
    4.4099    0.5923   -2.1194 H   0  0  0  0  0  0  0  0  0  0  0  0
    4.5610   -1.3484    0.8807 H   0  0  0  0  0  0  0  0  0  0  0  0
    2.6144   -1.6974    2.4094 H   0  0  0  0  0  0  0  0  0  0  0  0
    0.4808   -0.3235    3.3812 H   0  0  0  0  0  0  0  0  0  0  0  0
   -1.7662   -0.6654    2.7317 H   0  0  0  0  0  0  0  0  0  0  0  0
   -0.5285   -2.6447   -0.1128 H   0  0  0  0  0  0  0  0  0  0  0  0
   -1.8793   -2.2376   -2.1893 H   0  0  0  0  0  0  0  0  0  0  0  0
   -3.6761   -0.3465   -3.2336 H   0  0  0  0  0  0  0  0  0  0  0  0
   -4.8764    1.7363   -2.5990 H   0  0  0  0  0  0  0  0  0  0  0  0
   -4.5500    2.7490   -0.3721 H   0  0  0  0  0  0  0  0  0  0  0  0
   -3.0131    1.7114    1.2735 H   0  0  0  0  0  0  0  0  0  0  0  0
    0.5026    1.3584    0.2268 H   0  0  0  0  0  0  0  0  0  0  0  0
    2.5017    1.6067   -1.2417 H   0  0  0  0  0  0  0  0  0  0  0  0
  1  2  1  0
  2  3  2  0
  3  4  1  0
  4  5  2  0
  5  6  1  0
  6  7  2  3
  7  8  1  0
  8  9  2  0
  9 10  1  0
 10 11  1  0
 11 12  2  0
 12 13  1  0
 13 14  2  0
 14 15  1  0
 15 16  2  0
  5 17  1  0
 17 18  2  0
 18  2  1  0
 16  8  1  0
 16 11  1  0
  1 19  1  0
  1 20  1  0
  1 21  1  0
  3 22  1  0
  4 23  1  0
  6 24  1  0
  7 25  1  0
  9 26  1  0
 10 27  1  0
 12 28  1  0
 13 29  1  0
 14 30  1  0
 15 31  1  0
 17 32  1  0
 18 33  1  0
M  CHG  1   2   1
M  END
$$$$
