
     RDKit          3D

 57 59  0  0  0  0  0  0  0  0999 V2000
    7.2951   -2.5853   -3.0879 C   0  0  0  0  0  0  0  0  0  0  0  0
    7.3261   -3.0213   -1.7353 O   0  0  0  0  0  0  0  0  0  0  0  0
    6.1400   -3.0043   -1.0542 C   0  0  0  0  0  0  0  0  0  0  0  0
    6.2251   -3.4209    0.2759 C   0  0  0  0  0  0  0  0  0  0  0  0
    5.0899   -3.4521    1.0895 C   0  0  0  0  0  0  0  0  0  0  0  0
    3.8440   -3.0722    0.5777 C   0  0  0  0  0  0  0  0  0  0  0  0
    2.6169   -3.0803    1.4502 C   0  0  0  0  0  0  0  0  0  0  0  0
    2.3600   -1.7694    1.9850 N   0  0  0  0  0  0  0  0  0  0  0  0
    1.4315   -0.9157    1.4415 C   0  0  0  0  0  0  0  0  0  0  0  0
    0.6399   -1.1765    0.5463 O   0  0  0  0  0  0  0  0  0  0  0  0
    1.4449    0.4939    2.0775 C   0  0  0  0  0  0  0  0  0  0  0  0
    2.1876    0.7393    3.0169 O   0  0  0  0  0  0  0  0  0  0  0  0
    0.5591    1.3632    1.4940 N   0  0  0  0  0  0  0  0  0  0  0  0
    0.2510    2.6661    2.0631 C   0  0  0  0  0  0  0  0  0  0  0  0
   -0.5746    3.5444    1.1060 C   0  0  0  0  0  0  0  0  0  0  0  0
    0.2534    3.9954    0.0190 O   0  0  0  0  0  0  0  0  0  0  0  0
   -0.6460    4.1981   -1.0725 C   0  0  0  0  0  0  0  0  0  0  0  0
   -1.5986    3.0284   -0.9707 C   0  0  0  0  0  0  0  0  0  0  0  0
   -1.6710    2.7591    0.4805 N   0  0  0  0  0  0  0  0  0  0  0  0
   -3.1610    2.9687    1.2426 S   0  0  0  0  0  6  0  0  0  0  0  0
   -3.6831    4.2484    0.8122 O   0  0  0  0  0  0  0  0  0  0  0  0
   -2.9903    2.6603    2.6449 O   0  0  0  0  0  0  0  0  0  0  0  0
   -4.1422    1.6799    0.5230 C   0  0  0  0  0  0  0  0  0  0  0  0
   -3.7858    0.3496    0.7510 C   0  0  0  0  0  0  0  0  0  0  0  0
   -4.5555   -0.6686    0.1869 C   0  0  0  0  0  0  0  0  0  0  0  0
   -5.6765   -0.3684   -0.5949 C   0  0  0  0  0  0  0  0  0  0  0  0
   -6.3395   -1.4611   -1.0805 O   0  0  0  0  0  0  0  0  0  0  0  0
   -7.4914   -1.2165   -1.8781 C   0  0  0  0  0  0  0  0  0  0  0  0
   -6.0260    0.9672   -0.8121 C   0  0  0  0  0  0  0  0  0  0  0  0
   -5.2604    1.9952   -0.2516 C   0  0  0  0  0  0  0  0  0  0  0  0
    3.7636   -2.6478   -0.7557 C   0  0  0  0  0  0  0  0  0  0  0  0
    4.9030   -2.6165   -1.5675 C   0  0  0  0  0  0  0  0  0  0  0  0
    6.9845   -1.5380   -3.1576 H   0  0  0  0  0  0  0  0  0  0  0  0
    8.3116   -2.6582   -3.4859 H   0  0  0  0  0  0  0  0  0  0  0  0
    6.6529   -3.2305   -3.6963 H   0  0  0  0  0  0  0  0  0  0  0  0
    7.1880   -3.7208    0.6833 H   0  0  0  0  0  0  0  0  0  0  0  0
    5.1898   -3.7744    2.1232 H   0  0  0  0  0  0  0  0  0  0  0  0
    1.7520   -3.4409    0.8818 H   0  0  0  0  0  0  0  0  0  0  0  0
    2.7539   -3.7592    2.2989 H   0  0  0  0  0  0  0  0  0  0  0  0
    3.0036   -1.3658    2.6596 H   0  0  0  0  0  0  0  0  0  0  0  0
   -0.0865    0.9737    0.8112 H   0  0  0  0  0  0  0  0  0  0  0  0
   -0.3028    2.4798    2.9891 H   0  0  0  0  0  0  0  0  0  0  0  0
    1.1955    3.1570    2.3221 H   0  0  0  0  0  0  0  0  0  0  0  0
   -0.9403    4.4377    1.6252 H   0  0  0  0  0  0  0  0  0  0  0  0
   -0.0971    4.2178   -2.0175 H   0  0  0  0  0  0  0  0  0  0  0  0
   -1.1589    5.1565   -0.9342 H   0  0  0  0  0  0  0  0  0  0  0  0
   -2.5593    3.2417   -1.4457 H   0  0  0  0  0  0  0  0  0  0  0  0
   -1.1730    2.1388   -1.4487 H   0  0  0  0  0  0  0  0  0  0  0  0
   -2.9216    0.0995    1.3621 H   0  0  0  0  0  0  0  0  0  0  0  0
   -4.2829   -1.7079    0.3592 H   0  0  0  0  0  0  0  0  0  0  0  0
   -7.9035   -2.1853   -2.1751 H   0  0  0  0  0  0  0  0  0  0  0  0
   -7.2288   -0.6719   -2.7915 H   0  0  0  0  0  0  0  0  0  0  0  0
   -8.2621   -0.6868   -1.3086 H   0  0  0  0  0  0  0  0  0  0  0  0
   -6.8911    1.2414   -1.4072 H   0  0  0  0  0  0  0  0  0  0  0  0
   -5.5469    3.0313   -0.4219 H   0  0  0  0  0  0  0  0  0  0  0  0
    2.8064   -2.3342   -1.1695 H   0  0  0  0  0  0  0  0  0  0  0  0
    4.7876   -2.2815   -2.5924 H   0  0  0  0  0  0  0  0  0  0  0  0
  1  2  1  0
  2  3  1  0
  3  4  2  0
  4  5  1  0
  5  6  2  0
  6  7  1  0
  7  8  1  0
  8  9  1  0
  9 10  2  0
  9 11  1  0
 11 12  2  0
 11 13  1  0
 13 14  1  0
 14 15  1  0
 15 16  1  0
 16 17  1  0
 17 18  1  0
 18 19  1  0
 19 20  1  0
 20 21  2  0
 20 22  2  0
 20 23  1  0
 23 24  2  0
 24 25  1  0
 25 26  2  0
 26 27  1  0
 27 28  1  0
 26 29  1  0
 29 30  2  0
  6 31  1  0
 31 32  2  0
 32  3  1  0
 19 15  1  0
 30 23  1  0
  1 33  1  0
  1 34  1  0
  1 35  1  0
  4 36  1  0
  5 37  1  0
  7 38  1  0
  7 39  1  0
  8 40  1  0
 13 41  1  0
 14 42  1  0
 14 43  1  0
 15 44  1  0
 17 45  1  0
 17 46  1  0
 18 47  1  0
 18 48  1  0
 24 49  1  0
 25 50  1  0
 28 51  1  0
 28 52  1  0
 28 53  1  0
 29 54  1  0
 30 55  1  0
 31 56  1  0
 32 57  1  0
M  END
$$$$
