
     RDKit          3D

 32 33  0  0  0  0  0  0  0  0999 V2000
    3.9897   -1.5458    0.3189 C   0  0  0  0  0  0  0  0  0  0  0  0
    4.2626   -0.2992   -0.5055 C   0  0  0  0  0  0  0  0  0  0  0  0
    3.1272    1.0533   -0.0721 S   0  0  0  0  0  0  0  0  0  0  0  0
    1.6264    0.5071   -0.7487 C   0  0  0  0  0  0  0  0  0  0  0  0
    1.3327   -0.0947   -1.9482 C   0  0  0  0  0  0  0  0  0  0  0  0
   -0.0091   -0.3358   -2.0578 N   0  0  0  0  0  0  0  0  0  0  0  0
   -0.5539    0.1079   -0.9394 C   0  0  0  0  0  0  0  0  0  0  0  0
   -1.9838    0.0649   -0.6443 C   0  0  0  0  0  0  0  0  0  0  0  0
   -2.4957   -0.8233    0.3090 C   0  0  0  0  0  0  0  0  0  0  0  0
   -3.8641   -0.8471    0.5869 C   0  0  0  0  0  0  0  0  0  0  0  0
   -4.7290    0.0093   -0.0934 C   0  0  0  0  0  0  0  0  0  0  0  0
   -4.2296    0.8833   -1.0581 C   0  0  0  0  0  0  0  0  0  0  0  0
   -2.8617    0.9074   -1.3365 C   0  0  0  0  0  0  0  0  0  0  0  0
    0.4156    0.6534   -0.1113 N   0  0  0  0  0  0  0  0  0  0  0  0
    0.1692    1.3156    1.1586 C   0  0  0  0  0  0  0  0  0  0  0  0
    0.4142    0.4135    2.3573 C   0  0  0  0  0  0  0  0  0  0  0  0
    4.7204   -2.3224    0.0691 H   0  0  0  0  0  0  0  0  0  0  0  0
    2.9944   -1.9568    0.1218 H   0  0  0  0  0  0  0  0  0  0  0  0
    4.0763   -1.3439    1.3919 H   0  0  0  0  0  0  0  0  0  0  0  0
    5.2811    0.0485   -0.3042 H   0  0  0  0  0  0  0  0  0  0  0  0
    4.2039   -0.5204   -1.5756 H   0  0  0  0  0  0  0  0  0  0  0  0
    2.0115   -0.3625   -2.7465 H   0  0  0  0  0  0  0  0  0  0  0  0
   -1.8345   -1.5139    0.8261 H   0  0  0  0  0  0  0  0  0  0  0  0
   -4.2564   -1.5416    1.3253 H   0  0  0  0  0  0  0  0  0  0  0  0
   -5.7951   -0.0139    0.1183 H   0  0  0  0  0  0  0  0  0  0  0  0
   -4.9048    1.5400   -1.6006 H   0  0  0  0  0  0  0  0  0  0  0  0
   -2.4792    1.5808   -2.1008 H   0  0  0  0  0  0  0  0  0  0  0  0
    0.8055    2.2056    1.2077 H   0  0  0  0  0  0  0  0  0  0  0  0
   -0.8629    1.6807    1.1670 H   0  0  0  0  0  0  0  0  0  0  0  0
   -0.2260   -0.4729    2.3287 H   0  0  0  0  0  0  0  0  0  0  0  0
    1.4519    0.0683    2.3971 H   0  0  0  0  0  0  0  0  0  0  0  0
    0.2030    0.9544    3.2851 H   0  0  0  0  0  0  0  0  0  0  0  0
  1  2  1  0
  2  3  1  0
  3  4  1  0
  4  5  2  0
  5  6  1  0
  6  7  2  0
  7  8  1  0
  8  9  2  0
  9 10  1  0
 10 11  2  0
 11 12  1  0
 12 13  2  0
  7 14  1  0
 14 15  1  0
 15 16  1  0
 14  4  1  0
 13  8  1  0
  1 17  1  0
  1 18  1  0
  1 19  1  0
  2 20  1  0
  2 21  1  0
  5 22  1  0
  9 23  1  0
 10 24  1  0
 11 25  1  0
 12 26  1  0
 13 27  1  0
 15 28  1  0
 15 29  1  0
 16 30  1  0
 16 31  1  0
 16 32  1  0
M  END
$$$$
