
     RDKit          3D

 62 66  0  0  0  0  0  0  0  0999 V2000
   -3.3539    5.8575   -3.0237 C   0  0  0  0  0  0  0  0  0  0  0  0
   -2.6616    4.7615   -2.4391 O   0  0  0  0  0  0  0  0  0  0  0  0
   -3.4233    3.7888   -1.8514 C   0  0  0  0  0  0  0  0  0  0  0  0
   -4.8091    3.7716   -1.7741 C   0  0  0  0  0  0  0  0  0  0  0  0
   -5.4746    2.7155   -1.1415 C   0  0  0  0  0  0  0  0  0  0  0  0
   -4.7238    1.6627   -0.5836 C   0  0  0  0  0  0  0  0  0  0  0  0
   -5.3352    0.2834    0.2351 S   0  0  0  0  0  0  0  0  0  0  0  0
   -3.7729   -0.3576    0.5092 C   0  0  0  0  0  0  0  0  0  0  0  0
   -3.6618   -1.6430    1.2157 C   0  0  0  0  0  0  0  0  0  0  0  0
   -3.9252   -1.6872    2.5958 C   0  0  0  0  0  0  0  0  0  0  0  0
   -3.8045   -2.8813    3.3057 C   0  0  0  0  0  0  0  0  0  0  0  0
   -3.4224   -4.0442    2.6436 C   0  0  0  0  0  0  0  0  0  0  0  0
   -3.1568   -4.0166    1.2723 C   0  0  0  0  0  0  0  0  0  0  0  0
   -3.2624   -2.8202    0.5521 C   0  0  0  0  0  0  0  0  0  0  0  0
   -3.0441   -2.7335   -0.8007 O   0  0  0  0  0  0  0  0  0  0  0  0
   -2.1267   -3.6728   -1.3455 C   0  0  0  0  0  0  0  0  0  0  0  0
   -2.7855    0.4641   -0.0126 C   0  0  0  0  0  0  0  0  0  0  0  0
   -1.3690    0.1226    0.0818 C   0  0  0  0  0  0  0  0  0  0  0  0
   -0.7177    0.1090    1.3177 C   0  0  0  0  0  0  0  0  0  0  0  0
    0.6392   -0.2165    1.3884 C   0  0  0  0  0  0  0  0  0  0  0  0
    1.3612   -0.5229    0.2320 C   0  0  0  0  0  0  0  0  0  0  0  0
    2.6785   -0.8211    0.4448 O   0  0  0  0  0  0  0  0  0  0  0  0
    3.4921   -1.0376   -0.7122 C   0  0  0  0  0  0  0  0  0  0  0  0
    4.9519   -1.2660   -0.2772 C   0  0  0  0  0  0  0  0  0  0  0  0
    5.7021   -0.0233   -0.0374 N   0  0  0  0  0  0  0  0  0  0  0  0
    7.1005   -0.2845    0.3079 C   0  0  0  0  0  0  0  0  0  0  0  0
    7.5698    1.0685    0.8118 C   0  0  0  0  0  0  0  0  0  0  0  0
    6.3315    1.7010    1.4350 C   0  0  0  0  0  0  0  0  0  0  0  0
    5.1794    0.7688    1.0802 C   0  0  0  0  0  0  0  0  0  0  0  0
    0.7121   -0.5079   -1.0025 C   0  0  0  0  0  0  0  0  0  0  0  0
   -0.6473   -0.1844   -1.0771 C   0  0  0  0  0  0  0  0  0  0  0  0
   -3.3304    1.6447   -0.6486 C   0  0  0  0  0  0  0  0  0  0  0  0
   -2.6892    2.7363   -1.2919 C   0  0  0  0  0  0  0  0  0  0  0  0
   -3.9192    6.4149   -2.2696 H   0  0  0  0  0  0  0  0  0  0  0  0
   -2.6078    6.5357   -3.4489 H   0  0  0  0  0  0  0  0  0  0  0  0
   -4.0033    5.5241   -3.8399 H   0  0  0  0  0  0  0  0  0  0  0  0
   -5.4149    4.5673   -2.1951 H   0  0  0  0  0  0  0  0  0  0  0  0
   -6.5596    2.7092   -1.0830 H   0  0  0  0  0  0  0  0  0  0  0  0
   -4.2226   -0.7839    3.1242 H   0  0  0  0  0  0  0  0  0  0  0  0
   -4.0123   -2.9031    4.3722 H   0  0  0  0  0  0  0  0  0  0  0  0
   -3.3373   -4.9784    3.1931 H   0  0  0  0  0  0  0  0  0  0  0  0
   -2.8851   -4.9476    0.7859 H   0  0  0  0  0  0  0  0  0  0  0  0
   -1.8486   -3.3259   -2.3457 H   0  0  0  0  0  0  0  0  0  0  0  0
   -1.2105   -3.7378   -0.7488 H   0  0  0  0  0  0  0  0  0  0  0  0
   -2.5968   -4.6549   -1.4536 H   0  0  0  0  0  0  0  0  0  0  0  0
   -1.2569    0.3507    2.2298 H   0  0  0  0  0  0  0  0  0  0  0  0
    1.1385   -0.2272    2.3538 H   0  0  0  0  0  0  0  0  0  0  0  0
    3.1435   -1.9420   -1.2262 H   0  0  0  0  0  0  0  0  0  0  0  0
    3.4363   -0.1838   -1.3995 H   0  0  0  0  0  0  0  0  0  0  0  0
    5.4531   -1.8000   -1.0942 H   0  0  0  0  0  0  0  0  0  0  0  0
    4.9780   -1.9128    0.6091 H   0  0  0  0  0  0  0  0  0  0  0  0
    7.6854   -0.6168   -0.5550 H   0  0  0  0  0  0  0  0  0  0  0  0
    7.1904   -1.0327    1.1055 H   0  0  0  0  0  0  0  0  0  0  0  0
    8.3908    0.9780    1.5292 H   0  0  0  0  0  0  0  0  0  0  0  0
    7.9195    1.6877   -0.0224 H   0  0  0  0  0  0  0  0  0  0  0  0
    6.1732    2.7032    1.0218 H   0  0  0  0  0  0  0  0  0  0  0  0
    6.4363    1.7975    2.5205 H   0  0  0  0  0  0  0  0  0  0  0  0
    4.9397    0.1388    1.9465 H   0  0  0  0  0  0  0  0  0  0  0  0
    4.2871    1.3390    0.8029 H   0  0  0  0  0  0  0  0  0  0  0  0
    1.2295   -0.7433   -1.9260 H   0  0  0  0  0  0  0  0  0  0  0  0
   -1.1440   -0.1827   -2.0451 H   0  0  0  0  0  0  0  0  0  0  0  0
   -1.6032    2.7598   -1.3518 H   0  0  0  0  0  0  0  0  0  0  0  0
  1  2  1  0
  2  3  1  0
  3  4  2  0
  4  5  1  0
  5  6  2  0
  6  7  1  0
  7  8  1  0
  8  9  1  0
  9 10  2  0
 10 11  1  0
 11 12  2  0
 12 13  1  0
 13 14  2  0
 14 15  1  0
 15 16  1  0
  8 17  2  0
 17 18  1  0
 18 19  2  0
 19 20  1  0
 20 21  2  0
 21 22  1  0
 22 23  1  0
 23 24  1  0
 24 25  1  0
 25 26  1  0
 26 27  1  0
 27 28  1  0
 28 29  1  0
 21 30  1  0
 30 31  2  0
 17 32  1  0
 32 33  2  0
 33  3  1  0
 32  6  1  0
 14  9  1  0
 31 18  1  0
 29 25  1  0
  1 34  1  0
  1 35  1  0
  1 36  1  0
  4 37  1  0
  5 38  1  0
 10 39  1  0
 11 40  1  0
 12 41  1  0
 13 42  1  0
 16 43  1  0
 16 44  1  0
 16 45  1  0
 19 46  1  0
 20 47  1  0
 23 48  1  0
 23 49  1  0
 24 50  1  0
 24 51  1  0
 26 52  1  0
 26 53  1  0
 27 54  1  0
 27 55  1  0
 28 56  1  0
 28 57  1  0
 29 58  1  0
 29 59  1  0
 30 60  1  0
 31 61  1  0
 33 62  1  0
M  END
$$$$
