
     RDKit          3D

 28 29  0  0  0  0  0  0  0  0999 V2000
    5.7821   -0.2138   -1.0210 O   0  0  0  0  0  0  0  0  0  0  0  0
    4.7385   -0.8433   -1.2425 N   0  0  0  0  0  4  0  0  0  0  0  0
    4.6613   -1.8440   -1.9689 O   0  0  0  0  0  1  0  0  0  0  0  0
    3.5162   -0.3724   -0.6099 C   0  0  0  0  0  0  0  0  0  0  0  0
    2.3030   -1.0276   -0.8061 C   0  0  0  0  0  0  0  0  0  0  0  0
    1.1654   -0.5286   -0.1704 C   0  0  0  0  0  0  0  0  0  0  0  0
    1.2688    0.6062    0.6299 C   0  0  0  0  0  0  0  0  0  0  0  0
    0.1809    1.1480    1.3112 N   0  0  0  0  0  0  0  0  0  0  0  0
   -0.8897    1.6545    0.4520 C   0  0  0  0  0  0  0  0  0  0  0  0
   -1.9483    0.6130    0.1700 C   0  0  0  0  0  0  0  0  0  0  0  0
   -2.4464    0.4451   -1.1311 C   0  0  0  0  0  0  0  0  0  0  0  0
   -3.4402   -0.4999   -1.3942 C   0  0  0  0  0  0  0  0  0  0  0  0
   -3.9529   -1.2809   -0.3603 C   0  0  0  0  0  0  0  0  0  0  0  0
   -3.4756   -1.1166    0.9383 C   0  0  0  0  0  0  0  0  0  0  0  0
   -2.4829   -0.1721    1.2031 C   0  0  0  0  0  0  0  0  0  0  0  0
    2.4435    1.2387    0.8287 N   0  0  0  0  0  0  0  0  0  0  0  0
    3.5453    0.7437    0.2082 C   0  0  0  0  0  0  0  0  0  0  0  0
    2.2245   -1.9160   -1.4274 H   0  0  0  0  0  0  0  0  0  0  0  0
    0.2169   -1.0436   -0.2832 H   0  0  0  0  0  0  0  0  0  0  0  0
    0.5961    1.9220    1.8302 H   0  0  0  0  0  0  0  0  0  0  0  0
   -1.3841    2.4853    0.9714 H   0  0  0  0  0  0  0  0  0  0  0  0
   -0.4840    2.0743   -0.4781 H   0  0  0  0  0  0  0  0  0  0  0  0
   -2.0622    1.0480   -1.9510 H   0  0  0  0  0  0  0  0  0  0  0  0
   -3.8169   -0.6252   -2.4062 H   0  0  0  0  0  0  0  0  0  0  0  0
   -4.7268   -2.0159   -0.5656 H   0  0  0  0  0  0  0  0  0  0  0  0
   -3.8758   -1.7231    1.7466 H   0  0  0  0  0  0  0  0  0  0  0  0
   -2.1155   -0.0541    2.2211 H   0  0  0  0  0  0  0  0  0  0  0  0
    4.4588    1.2982    0.4085 H   0  0  0  0  0  0  0  0  0  0  0  0
  1  2  2  0
  2  3  1  0
  2  4  1  0
  4  5  2  0
  5  6  1  0
  6  7  2  0
  7  8  1  0
  8  9  1  0
  9 10  1  0
 10 11  2  0
 11 12  1  0
 12 13  2  0
 13 14  1  0
 14 15  2  0
  7 16  1  0
 16 17  2  0
 17  4  1  0
 15 10  1  0
  5 18  1  0
  6 19  1  0
  8 20  1  0
  9 21  1  0
  9 22  1  0
 11 23  1  0
 12 24  1  0
 13 25  1  0
 14 26  1  0
 15 27  1  0
 17 28  1  0
M  CHG  2   2   1   3  -1
M  END
$$$$
