
     RDKit          3D

 57 60  0  0  0  0  0  0  0  0999 V2000
   -8.0398    1.7651    1.8512 C   0  0  0  0  0  0  0  0  0  0  0  0
   -7.6179    0.5691    1.2085 O   0  0  0  0  0  0  0  0  0  0  0  0
   -6.4112    0.6133    0.5600 C   0  0  0  0  0  0  0  0  0  0  0  0
   -5.6245    1.7484    0.3741 C   0  0  0  0  0  0  0  0  0  0  0  0
   -4.4036    1.6592   -0.3075 C   0  0  0  0  0  0  0  0  0  0  0  0
   -3.9624    0.4338   -0.8044 C   0  0  0  0  0  0  0  0  0  0  0  0
   -2.7376    0.2551   -1.4841 N   0  0  0  0  0  0  0  0  0  0  0  0
   -1.7834    1.2011   -1.8040 C   0  0  0  0  0  0  0  0  0  0  0  0
   -1.8602    2.4088   -1.5909 O   0  0  0  0  0  0  0  0  0  0  0  0
   -0.5643    0.6118   -2.4872 C   0  0  0  0  0  0  0  0  0  0  0  0
    0.4476    0.2128   -1.5225 N   0  0  0  0  0  0  0  0  0  0  0  0
    1.3994    1.0618   -1.0237 C   0  0  0  0  0  0  0  0  0  0  0  0
    2.1656    0.3570   -0.1198 C   0  0  0  0  0  0  0  0  0  0  0  0
    3.5252    0.9782    0.7574 S   0  0  0  0  0  6  0  0  0  0  0  0
    3.3315    0.4934    2.1105 O   0  0  0  0  0  0  0  0  0  0  0  0
    3.5416    2.3907    0.4266 O   0  0  0  0  0  0  0  0  0  0  0  0
    4.9031    0.1399   -0.0212 C   0  0  0  0  0  0  0  0  0  0  0  0
    6.1922    0.6628    0.5549 C   0  0  0  0  0  0  0  0  0  0  0  0
    6.8746    1.7151   -0.0751 C   0  0  0  0  0  0  0  0  0  0  0  0
    8.0651    2.2082    0.4601 C   0  0  0  0  0  0  0  0  0  0  0  0
    8.5834    1.6593    1.6311 C   0  0  0  0  0  0  0  0  0  0  0  0
    7.9122    0.6163    2.2683 C   0  0  0  0  0  0  0  0  0  0  0  0
    6.7219    0.1199    1.7348 C   0  0  0  0  0  0  0  0  0  0  0  0
    1.6691   -0.9760   -0.0694 C   0  0  0  0  0  0  0  0  0  0  0  0
    2.0147   -2.1350    0.6584 C   0  0  0  0  0  0  0  0  0  0  0  0
    1.3199   -3.3276    0.4408 C   0  0  0  0  0  0  0  0  0  0  0  0
    0.2897   -3.3836   -0.4896 C   0  0  0  0  0  0  0  0  0  0  0  0
   -0.0828   -2.2516   -1.2181 C   0  0  0  0  0  0  0  0  0  0  0  0
    0.6114   -1.0516   -0.9882 C   0  0  0  0  0  0  0  0  0  0  0  0
   -4.7575   -0.7167   -0.6216 C   0  0  0  0  0  0  0  0  0  0  0  0
   -4.2367   -1.8799   -1.1454 O   0  0  0  0  0  0  0  0  0  0  0  0
   -5.0051   -3.0636   -0.9712 C   0  0  0  0  0  0  0  0  0  0  0  0
   -5.9772   -0.6164    0.0557 C   0  0  0  0  0  0  0  0  0  0  0  0
   -7.3123    2.0851    2.6065 H   0  0  0  0  0  0  0  0  0  0  0  0
   -8.9834    1.5512    2.3657 H   0  0  0  0  0  0  0  0  0  0  0  0
   -8.2293    2.5595    1.1207 H   0  0  0  0  0  0  0  0  0  0  0  0
   -5.9259    2.7225    0.7456 H   0  0  0  0  0  0  0  0  0  0  0  0
   -3.8185    2.5655   -0.4242 H   0  0  0  0  0  0  0  0  0  0  0  0
   -2.5644   -0.7153   -1.7270 H   0  0  0  0  0  0  0  0  0  0  0  0
   -0.8302   -0.2496   -3.1069 H   0  0  0  0  0  0  0  0  0  0  0  0
   -0.1253    1.3637   -3.1516 H   0  0  0  0  0  0  0  0  0  0  0  0
    1.4486    2.1011   -1.3278 H   0  0  0  0  0  0  0  0  0  0  0  0
    4.8549    0.3246   -1.0991 H   0  0  0  0  0  0  0  0  0  0  0  0
    4.8091   -0.9347    0.1559 H   0  0  0  0  0  0  0  0  0  0  0  0
    6.4773    2.1691   -0.9820 H   0  0  0  0  0  0  0  0  0  0  0  0
    8.5830    3.0287   -0.0313 H   0  0  0  0  0  0  0  0  0  0  0  0
    9.5062    2.0507    2.0521 H   0  0  0  0  0  0  0  0  0  0  0  0
    8.3127    0.1951    3.1873 H   0  0  0  0  0  0  0  0  0  0  0  0
    6.2064   -0.6857    2.2561 H   0  0  0  0  0  0  0  0  0  0  0  0
    2.8065   -2.1075    1.4032 H   0  0  0  0  0  0  0  0  0  0  0  0
    1.5851   -4.2141    1.0108 H   0  0  0  0  0  0  0  0  0  0  0  0
   -0.2417   -4.3192   -0.6463 H   0  0  0  0  0  0  0  0  0  0  0  0
   -0.8924   -2.3197   -1.9361 H   0  0  0  0  0  0  0  0  0  0  0  0
   -4.4586   -3.8851   -1.4436 H   0  0  0  0  0  0  0  0  0  0  0  0
   -5.9758   -2.9809   -1.4711 H   0  0  0  0  0  0  0  0  0  0  0  0
   -5.1215   -3.3051    0.0894 H   0  0  0  0  0  0  0  0  0  0  0  0
   -6.6145   -1.4789    0.2167 H   0  0  0  0  0  0  0  0  0  0  0  0
  1  2  1  0
  2  3  1  0
  3  4  2  0
  4  5  1  0
  5  6  2  0
  6  7  1  0
  7  8  1  0
  8  9  2  0
  8 10  1  0
 10 11  1  0
 11 12  1  0
 12 13  2  0
 13 14  1  0
 14 15  2  0
 14 16  2  0
 14 17  1  0
 17 18  1  0
 18 19  2  0
 19 20  1  0
 20 21  2  0
 21 22  1  0
 22 23  2  0
 13 24  1  0
 24 25  2  0
 25 26  1  0
 26 27  2  0
 27 28  1  0
 28 29  2  0
  6 30  1  0
 30 31  1  0
 31 32  1  0
 30 33  2  0
 33  3  1  0
 29 11  1  0
 23 18  1  0
 29 24  1  0
  1 34  1  0
  1 35  1  0
  1 36  1  0
  4 37  1  0
  5 38  1  0
  7 39  1  0
 10 40  1  0
 10 41  1  0
 12 42  1  0
 17 43  1  0
 17 44  1  0
 19 45  1  0
 20 46  1  0
 21 47  1  0
 22 48  1  0
 23 49  1  0
 25 50  1  0
 26 51  1  0
 27 52  1  0
 28 53  1  0
 32 54  1  0
 32 55  1  0
 32 56  1  0
 33 57  1  0
M  END
$$$$
