
     RDKit          3D

 37 39  0  0  0  0  0  0  0  0999 V2000
   -7.5118    0.5956    0.3848 C   0  0  0  0  0  0  0  0  0  0  0  0
   -6.5604   -0.0642   -0.4406 O   0  0  0  0  0  0  0  0  0  0  0  0
   -5.2438    0.2339   -0.2303 C   0  0  0  0  0  0  0  0  0  0  0  0
   -4.7419    1.1019    0.7375 C   0  0  0  0  0  0  0  0  0  0  0  0
   -3.3600    1.3234    0.8451 C   0  0  0  0  0  0  0  0  0  0  0  0
   -2.4516    0.6776   -0.0090 C   0  0  0  0  0  0  0  0  0  0  0  0
   -0.9945    0.8718    0.0516 C   0  0  0  0  0  0  0  0  0  0  0  0
   -0.1206    0.3391   -0.7802 N   0  0  0  0  0  0  0  0  0  0  0  0
    1.1557    0.7267   -0.4296 C   0  0  0  0  0  0  0  0  0  0  0  0
    2.2560    0.3159   -1.1383 N   0  0  0  0  0  0  0  0  0  0  0  0
    2.2417   -0.6025   -2.1633 C   0  0  0  0  0  0  0  0  0  0  0  0
    1.2625   -1.2160   -2.5819 O   0  0  0  0  0  0  0  0  0  0  0  0
    3.6093   -0.8241   -2.7901 C   0  0  0  0  0  0  0  0  0  0  0  0
    4.4756   -2.2035   -1.9870 S   0  0  0  0  0  0  0  0  0  0  0  0
    4.9269   -1.4677   -0.4703 C   0  0  0  0  0  0  0  0  0  0  0  0
    4.9053   -0.1640   -0.2924 N   0  0  0  0  0  0  0  0  0  0  0  0
    5.2496    0.1914    0.9928 N   0  0  0  0  0  0  0  0  0  0  0  0
    5.5364   -0.8587    1.7351 C   0  0  0  0  0  0  0  0  0  0  0  0
    5.9593   -0.8045    3.1565 C   0  0  0  0  0  0  0  0  0  0  0  0
    5.4034   -2.3604    0.9082 S   0  0  0  0  0  0  0  0  0  0  0  0
    1.3177    1.5405    0.6144 N   0  0  0  0  0  0  0  0  0  0  0  0
   -0.1993    1.8351    1.2342 S   0  0  0  0  0  0  0  0  0  0  0  0
   -2.9744   -0.1954   -0.9760 C   0  0  0  0  0  0  0  0  0  0  0  0
   -4.3520   -0.4135   -1.0844 C   0  0  0  0  0  0  0  0  0  0  0  0
   -8.5103    0.2800    0.0650 H   0  0  0  0  0  0  0  0  0  0  0  0
   -7.3867    0.3085    1.4338 H   0  0  0  0  0  0  0  0  0  0  0  0
   -7.4531    1.6830    0.2641 H   0  0  0  0  0  0  0  0  0  0  0  0
   -5.3961    1.6275    1.4261 H   0  0  0  0  0  0  0  0  0  0  0  0
   -3.0219    2.0151    1.6129 H   0  0  0  0  0  0  0  0  0  0  0  0
    3.1338    0.6555   -0.7580 H   0  0  0  0  0  0  0  0  0  0  0  0
    3.4569   -1.0787   -3.8453 H   0  0  0  0  0  0  0  0  0  0  0  0
    4.2055    0.0944   -2.7726 H   0  0  0  0  0  0  0  0  0  0  0  0
    7.0395   -0.9578    3.2374 H   0  0  0  0  0  0  0  0  0  0  0  0
    5.7228    0.1724    3.5899 H   0  0  0  0  0  0  0  0  0  0  0  0
    5.4525   -1.5669    3.7549 H   0  0  0  0  0  0  0  0  0  0  0  0
   -2.3044   -0.7181   -1.6605 H   0  0  0  0  0  0  0  0  0  0  0  0
   -4.7278   -1.0935   -1.8461 H   0  0  0  0  0  0  0  0  0  0  0  0
  1  2  1  0
  2  3  1  0
  3  4  2  0
  4  5  1  0
  5  6  2  0
  6  7  1  0
  7  8  2  0
  8  9  1  0
  9 10  1  0
 10 11  1  0
 11 12  2  0
 11 13  1  0
 13 14  1  0
 14 15  1  0
 15 16  2  0
 16 17  1  0
 17 18  2  0
 18 19  1  0
 18 20  1  0
  9 21  2  0
 21 22  1  0
  6 23  1  0
 23 24  2  0
 24  3  1  0
 22  7  1  0
 20 15  1  0
  1 25  1  0
  1 26  1  0
  1 27  1  0
  4 28  1  0
  5 29  1  0
 10 30  1  0
 13 31  1  0
 13 32  1  0
 19 33  1  0
 19 34  1  0
 19 35  1  0
 23 36  1  0
 24 37  1  0
M  END
$$$$
