
     RDKit          3D

 53 56  0  0  0  0  0  0  0  0999 V2000
    6.9429    3.0559   -0.5820 C   0  0  0  0  0  0  0  0  0  0  0  0
    5.9428    2.5279   -1.4449 O   0  0  0  0  0  0  0  0  0  0  0  0
    5.2220    1.4662   -0.9734 C   0  0  0  0  0  0  0  0  0  0  0  0
    4.3022    0.9352   -1.8777 C   0  0  0  0  0  0  0  0  0  0  0  0
    3.4997   -0.1518   -1.5206 C   0  0  0  0  0  0  0  0  0  0  0  0
    3.6006   -0.7222   -0.2474 C   0  0  0  0  0  0  0  0  0  0  0  0
    2.7535   -1.8109    0.0348 N   0  0  0  0  0  0  0  0  0  0  0  0
    2.5692   -2.4544    1.2476 C   0  0  0  0  0  0  0  0  0  0  0  0
    3.1355   -2.1847    2.3044 O   0  0  0  0  0  0  0  0  0  0  0  0
    1.5485   -3.5836    1.1803 C   0  0  0  0  0  0  0  0  0  0  0  0
   -0.1343   -2.9516    1.4619 S   0  0  0  0  0  0  0  0  0  0  0  0
   -0.4232   -2.1144   -0.0315 C   0  0  0  0  0  0  0  0  0  0  0  0
    0.2493   -2.3533   -1.1348 N   0  0  0  0  0  0  0  0  0  0  0  0
   -0.0761   -1.3894   -2.0418 N   0  0  0  0  0  0  0  0  0  0  0  0
   -0.9801   -0.5935   -1.4979 C   0  0  0  0  0  0  0  0  0  0  0  0
   -1.7163    0.4716   -2.2478 C   0  0  0  0  0  0  0  0  0  0  0  0
   -3.1835    0.1833   -2.4181 C   0  0  0  0  0  0  0  0  0  0  0  0
   -4.2584    0.8621   -1.8763 C   0  0  0  0  0  0  0  0  0  0  0  0
   -5.5083    0.2986   -2.2622 C   0  0  0  0  0  0  0  0  0  0  0  0
   -5.3503   -0.7847   -3.0955 C   0  0  0  0  0  0  0  0  0  0  0  0
   -3.7048   -1.1133   -3.4148 S   0  0  0  0  0  0  0  0  0  0  0  0
   -1.2169   -0.9902   -0.1842 N   0  0  0  0  0  0  0  0  0  0  0  0
   -2.0595   -0.3699    0.7714 C   0  0  0  0  0  0  0  0  0  0  0  0
   -2.9400   -1.1429    1.5359 C   0  0  0  0  0  0  0  0  0  0  0  0
   -3.7790   -0.5259    2.4667 C   0  0  0  0  0  0  0  0  0  0  0  0
   -3.7341    0.8601    2.6582 C   0  0  0  0  0  0  0  0  0  0  0  0
   -4.6582    1.5181    3.6401 C   0  0  0  0  0  0  0  0  0  0  0  0
   -2.8518    1.6267    1.8882 C   0  0  0  0  0  0  0  0  0  0  0  0
   -2.0132    1.0171    0.9513 C   0  0  0  0  0  0  0  0  0  0  0  0
    4.5216   -0.1913    0.6550 C   0  0  0  0  0  0  0  0  0  0  0  0
    5.3281    0.8984    0.2952 C   0  0  0  0  0  0  0  0  0  0  0  0
    6.5000    3.4671    0.3315 H   0  0  0  0  0  0  0  0  0  0  0  0
    7.4391    3.8770   -1.1087 H   0  0  0  0  0  0  0  0  0  0  0  0
    7.7027    2.3016   -0.3495 H   0  0  0  0  0  0  0  0  0  0  0  0
    4.2102    1.3682   -2.8706 H   0  0  0  0  0  0  0  0  0  0  0  0
    2.7930   -0.5405   -2.2500 H   0  0  0  0  0  0  0  0  0  0  0  0
    2.1199   -2.0778   -0.7200 H   0  0  0  0  0  0  0  0  0  0  0  0
    1.6227   -4.1218    0.2297 H   0  0  0  0  0  0  0  0  0  0  0  0
    1.7874   -4.3032    1.9707 H   0  0  0  0  0  0  0  0  0  0  0  0
   -1.2643    0.5740   -3.2439 H   0  0  0  0  0  0  0  0  0  0  0  0
   -1.5728    1.4464   -1.7722 H   0  0  0  0  0  0  0  0  0  0  0  0
   -4.1591    1.7212   -1.2236 H   0  0  0  0  0  0  0  0  0  0  0  0
   -6.4743    0.6721   -1.9457 H   0  0  0  0  0  0  0  0  0  0  0  0
   -6.1229   -1.3982   -3.5392 H   0  0  0  0  0  0  0  0  0  0  0  0
   -3.0221   -2.2191    1.3993 H   0  0  0  0  0  0  0  0  0  0  0  0
   -4.4719   -1.1367    3.0428 H   0  0  0  0  0  0  0  0  0  0  0  0
   -5.6169    1.7393    3.1604 H   0  0  0  0  0  0  0  0  0  0  0  0
   -4.8342    0.8681    4.5039 H   0  0  0  0  0  0  0  0  0  0  0  0
   -4.2290    2.4521    4.0183 H   0  0  0  0  0  0  0  0  0  0  0  0
   -2.8024    2.7053    2.0249 H   0  0  0  0  0  0  0  0  0  0  0  0
   -1.3028    1.6404    0.4149 H   0  0  0  0  0  0  0  0  0  0  0  0
    4.6434   -0.6036    1.6517 H   0  0  0  0  0  0  0  0  0  0  0  0
    6.0263    1.2748    1.0356 H   0  0  0  0  0  0  0  0  0  0  0  0
  1  2  1  0
  2  3  1  0
  3  4  2  0
  4  5  1  0
  5  6  2  0
  6  7  1  0
  7  8  1  0
  8  9  2  0
  8 10  1  0
 10 11  1  0
 11 12  1  0
 12 13  2  0
 13 14  1  0
 14 15  2  0
 15 16  1  0
 16 17  1  0
 17 18  2  0
 18 19  1  0
 19 20  2  0
 20 21  1  0
 15 22  1  0
 22 23  1  0
 23 24  2  0
 24 25  1  0
 25 26  2  0
 26 27  1  0
 26 28  1  0
 28 29  2  0
  6 30  1  0
 30 31  2  0
 31  3  1  0
 22 12  1  0
 29 23  1  0
 21 17  1  0
  1 32  1  0
  1 33  1  0
  1 34  1  0
  4 35  1  0
  5 36  1  0
  7 37  1  0
 10 38  1  0
 10 39  1  0
 16 40  1  0
 16 41  1  0
 18 42  1  0
 19 43  1  0
 20 44  1  0
 24 45  1  0
 25 46  1  0
 27 47  1  0
 27 48  1  0
 27 49  1  0
 28 50  1  0
 29 51  1  0
 30 52  1  0
 31 53  1  0
M  END
$$$$
