
     RDKit          3D

 39 40  0  0  0  0  0  0  0  0999 V2000
   -1.0200    0.8921    2.1389 C   0  0  0  0  0  0  0  0  0  0  0  0
   -2.3125    0.6023    1.3983 C   0  0  0  0  0  0  0  0  0  0  0  0
   -1.9864   -0.0583    0.1746 O   0  0  0  0  0  0  0  0  0  0  0  0
   -3.0331   -0.4326   -0.6287 C   0  0  0  0  0  0  0  0  0  0  0  0
   -4.3837   -0.1962   -0.3634 C   0  0  0  0  0  0  0  0  0  0  0  0
   -5.3671   -0.6412   -1.2552 C   0  0  0  0  0  0  0  0  0  0  0  0
   -5.0112   -1.3301   -2.4144 C   0  0  0  0  0  0  0  0  0  0  0  0
   -3.6684   -1.5704   -2.6920 C   0  0  0  0  0  0  0  0  0  0  0  0
   -2.6911   -1.1063   -1.8119 C   0  0  0  0  0  0  0  0  0  0  0  0
   -1.3811   -1.3860   -2.1055 O   0  0  0  0  0  0  0  0  0  0  0  0
   -0.7503   -0.2603   -2.7227 C   0  0  0  0  0  0  0  0  0  0  0  0
    0.6789   -0.0995   -2.2040 C   0  0  0  0  0  0  0  0  0  0  0  0
    1.5536    0.3760   -2.9225 O   0  0  0  0  0  0  0  0  0  0  0  0
    0.8056   -0.4901   -0.8906 N   0  0  0  0  0  0  0  0  0  0  0  0
    1.9341   -0.4633   -0.1158 C   0  0  0  0  0  0  0  0  0  0  0  0
    1.9405   -0.8750    1.1335 N   0  0  0  0  0  0  0  0  0  0  0  0
    3.1837   -0.7511    1.7200 N   0  0  0  0  0  0  0  0  0  0  0  0
    4.0713   -0.2466    0.8858 C   0  0  0  0  0  0  0  0  0  0  0  0
    5.5037    0.0076    1.2187 C   0  0  0  0  0  0  0  0  0  0  0  0
    5.7057    1.4078    1.4435 O   0  0  0  0  0  0  0  0  0  0  0  0
    5.3080    1.8178    2.7470 C   0  0  0  0  0  0  0  0  0  0  0  0
    3.4409    0.1012   -0.6736 S   0  0  0  0  0  0  0  0  0  0  0  0
   -1.2178    1.4206    3.0757 H   0  0  0  0  0  0  0  0  0  0  0  0
   -0.4919   -0.0393    2.3664 H   0  0  0  0  0  0  0  0  0  0  0  0
   -0.3491    1.5006    1.5237 H   0  0  0  0  0  0  0  0  0  0  0  0
   -2.8245    1.5490    1.1908 H   0  0  0  0  0  0  0  0  0  0  0  0
   -2.9439   -0.0404    2.0226 H   0  0  0  0  0  0  0  0  0  0  0  0
   -4.7111    0.3262    0.5294 H   0  0  0  0  0  0  0  0  0  0  0  0
   -6.4167   -0.4558   -1.0382 H   0  0  0  0  0  0  0  0  0  0  0  0
   -5.7802   -1.6838   -3.0965 H   0  0  0  0  0  0  0  0  0  0  0  0
   -3.3840   -2.1172   -3.5864 H   0  0  0  0  0  0  0  0  0  0  0  0
   -1.2740    0.6891   -2.5505 H   0  0  0  0  0  0  0  0  0  0  0  0
   -0.7038   -0.4529   -3.8003 H   0  0  0  0  0  0  0  0  0  0  0  0
   -0.0244   -0.8486   -0.4252 H   0  0  0  0  0  0  0  0  0  0  0  0
    6.1453   -0.2879    0.3815 H   0  0  0  0  0  0  0  0  0  0  0  0
    5.8209   -0.5738    2.0920 H   0  0  0  0  0  0  0  0  0  0  0  0
    5.5276    2.8840    2.8499 H   0  0  0  0  0  0  0  0  0  0  0  0
    5.8725    1.2732    3.5100 H   0  0  0  0  0  0  0  0  0  0  0  0
    4.2341    1.6727    2.8948 H   0  0  0  0  0  0  0  0  0  0  0  0
  1  2  1  0
  2  3  1  0
  3  4  1  0
  4  5  2  0
  5  6  1  0
  6  7  2  0
  7  8  1  0
  8  9  2  0
  9 10  1  0
 10 11  1  0
 11 12  1  0
 12 13  2  0
 12 14  1  0
 14 15  1  0
 15 16  2  0
 16 17  1  0
 17 18  2  0
 18 19  1  0
 19 20  1  0
 20 21  1  0
 18 22  1  0
  9  4  1  0
 22 15  1  0
  1 23  1  0
  1 24  1  0
  1 25  1  0
  2 26  1  0
  2 27  1  0
  5 28  1  0
  6 29  1  0
  7 30  1  0
  8 31  1  0
 11 32  1  0
 11 33  1  0
 14 34  1  0
 19 35  1  0
 19 36  1  0
 21 37  1  0
 21 38  1  0
 21 39  1  0
M  END
$$$$
