
     RDKit          3D

 51 55  0  0  0  0  0  0  0  0999 V2000
    6.5381    1.9430   -1.7317 C   0  0  0  0  0  0  0  0  0  0  0  0
    5.9364    2.4938   -0.6019 C   0  0  0  0  0  0  0  0  0  0  0  0
    4.6979    2.0193   -0.1678 C   0  0  0  0  0  0  0  0  0  0  0  0
    4.0482    0.9910   -0.8640 C   0  0  0  0  0  0  0  0  0  0  0  0
    2.7142    0.4660   -0.3844 C   0  0  0  0  0  0  0  0  0  0  0  0
    2.8910   -0.6703    0.6401 C   0  0  0  0  0  0  0  0  0  0  0  0
    1.6732   -1.2779    1.1988 N   0  0  0  0  0  0  0  0  0  0  0  0
    0.8597   -0.3267    1.9864 C   0  0  0  0  0  0  0  0  0  0  0  0
   -0.3789   -1.0071    2.6145 C   0  0  0  0  0  0  0  0  0  0  0  0
   -1.2051   -1.6845    1.5914 N   0  0  0  0  0  0  0  0  0  0  0  0
   -2.1692   -0.9401    0.9127 C   0  0  0  0  0  0  0  0  0  0  0  0
   -2.0691    0.3651    0.8794 N   0  0  0  0  0  0  0  0  0  0  0  0
   -3.0081    1.1399    0.1704 C   0  0  0  0  0  0  0  0  0  0  0  0
   -2.8431    2.5262    0.1501 C   0  0  0  0  0  0  0  0  0  0  0  0
   -3.7392    3.3412   -0.5469 C   0  0  0  0  0  0  0  0  0  0  0  0
   -4.8137    2.7741   -1.2333 C   0  0  0  0  0  0  0  0  0  0  0  0
   -4.9987    1.3911   -1.2268 C   0  0  0  0  0  0  0  0  0  0  0  0
   -4.0930    0.5887   -0.5263 C   0  0  0  0  0  0  0  0  0  0  0  0
   -4.2088   -0.8089   -0.4594 N   0  0  0  0  0  0  0  0  0  0  0  0
   -5.1599   -1.6376   -1.0065 C   0  0  0  0  0  0  0  0  0  0  0  0
   -4.8861   -2.9287   -0.6089 C   0  0  0  0  0  0  0  0  0  0  0  0
   -3.7222   -2.8819    0.1930 C   0  0  0  0  0  0  0  0  0  0  0  0
   -3.2987   -1.5656    0.2432 C   0  0  0  0  0  0  0  0  0  0  0  0
   -0.3911   -2.6440    0.8156 C   0  0  0  0  0  0  0  0  0  0  0  0
    0.8316   -1.9383    0.1818 C   0  0  0  0  0  0  0  0  0  0  0  0
    4.6648    0.4392   -1.9949 C   0  0  0  0  0  0  0  0  0  0  0  0
    5.9031    0.9159   -2.4275 C   0  0  0  0  0  0  0  0  0  0  0  0
    7.5019    2.3139   -2.0698 H   0  0  0  0  0  0  0  0  0  0  0  0
    6.4320    3.2936   -0.0580 H   0  0  0  0  0  0  0  0  0  0  0  0
    4.2416    2.4574    0.7171 H   0  0  0  0  0  0  0  0  0  0  0  0
    2.1467    1.2985    0.0473 H   0  0  0  0  0  0  0  0  0  0  0  0
    2.1395    0.1229   -1.2526 H   0  0  0  0  0  0  0  0  0  0  0  0
    3.4901   -1.4713    0.1863 H   0  0  0  0  0  0  0  0  0  0  0  0
    3.5026   -0.3077    1.4774 H   0  0  0  0  0  0  0  0  0  0  0  0
    0.5325    0.5122    1.3627 H   0  0  0  0  0  0  0  0  0  0  0  0
    1.4688    0.0878    2.7983 H   0  0  0  0  0  0  0  0  0  0  0  0
   -0.9733   -0.2750    3.1740 H   0  0  0  0  0  0  0  0  0  0  0  0
   -0.0496   -1.7567    3.3454 H   0  0  0  0  0  0  0  0  0  0  0  0
   -2.0068    2.9713    0.6824 H   0  0  0  0  0  0  0  0  0  0  0  0
   -3.5966    4.4188   -0.5528 H   0  0  0  0  0  0  0  0  0  0  0  0
   -5.5085    3.4127   -1.7735 H   0  0  0  0  0  0  0  0  0  0  0  0
   -5.8427    0.9731   -1.7652 H   0  0  0  0  0  0  0  0  0  0  0  0
   -5.9655   -1.2562   -1.6165 H   0  0  0  0  0  0  0  0  0  0  0  0
   -5.4688   -3.8056   -0.8606 H   0  0  0  0  0  0  0  0  0  0  0  0
   -3.2430   -3.7176    0.6859 H   0  0  0  0  0  0  0  0  0  0  0  0
   -0.9737   -3.1246    0.0236 H   0  0  0  0  0  0  0  0  0  0  0  0
   -0.0526   -3.4444    1.4857 H   0  0  0  0  0  0  0  0  0  0  0  0
    0.4728   -1.2141   -0.5596 H   0  0  0  0  0  0  0  0  0  0  0  0
    1.4235   -2.6927   -0.3497 H   0  0  0  0  0  0  0  0  0  0  0  0
    4.1829   -0.3643   -2.5472 H   0  0  0  0  0  0  0  0  0  0  0  0
    6.3730    0.4852   -3.3077 H   0  0  0  0  0  0  0  0  0  0  0  0
  1  2  2  0
  2  3  1  0
  3  4  2  0
  4  5  1  0
  5  6  1  0
  6  7  1  0
  7  8  1  0
  8  9  1  0
  9 10  1  0
 10 11  1  0
 11 12  2  0
 12 13  1  0
 13 14  2  0
 14 15  1  0
 15 16  2  0
 16 17  1  0
 17 18  2  0
 18 19  1  0
 19 20  1  0
 20 21  2  0
 21 22  1  0
 22 23  2  0
 10 24  1  0
 24 25  1  0
  4 26  1  0
 26 27  2  0
 27  1  1  0
 25  7  1  0
 23 11  1  0
 18 13  1  0
 23 19  1  0
  1 28  1  0
  2 29  1  0
  3 30  1  0
  5 31  1  0
  5 32  1  0
  6 33  1  0
  6 34  1  0
  8 35  1  0
  8 36  1  0
  9 37  1  0
  9 38  1  0
 14 39  1  0
 15 40  1  0
 16 41  1  0
 17 42  1  0
 20 43  1  0
 21 44  1  0
 22 45  1  0
 24 46  1  0
 24 47  1  0
 25 48  1  0
 25 49  1  0
 26 50  1  0
 27 51  1  0
M  END
$$$$
