
     RDKit          3D

 53 56  0  0  0  0  0  0  0  0999 V2000
    6.9907   -3.5051   -2.4635 C   0  0  0  0  0  0  0  0  0  0  0  0
    6.8159   -3.4288   -0.9567 C   0  0  0  0  0  0  0  0  0  0  0  0
    6.6072   -2.0811   -0.5385 O   0  0  0  0  0  0  0  0  0  0  0  0
    5.3330   -1.5921   -0.4843 C   0  0  0  0  0  0  0  0  0  0  0  0
    4.1772   -2.2403   -0.9226 C   0  0  0  0  0  0  0  0  0  0  0  0
    2.9301   -1.6131   -0.8102 C   0  0  0  0  0  0  0  0  0  0  0  0
    2.8401   -0.3323   -0.2597 C   0  0  0  0  0  0  0  0  0  0  0  0
    1.5141    0.3052   -0.1507 C   0  0  0  0  0  0  0  0  0  0  0  0
    1.3582    1.4747    0.3831 N   0  0  0  0  0  0  0  0  0  0  0  0
    0.0728    1.9302    0.4218 N   0  0  0  0  0  0  0  0  0  0  0  0
   -0.2241    3.1743    0.9689 C   0  0  0  0  0  0  0  0  0  0  0  0
    0.6109    3.9775    1.3731 O   0  0  0  0  0  0  0  0  0  0  0  0
   -1.6580    3.4656    1.0170 C   0  0  0  0  0  0  0  0  0  0  0  0
   -2.1458    4.7333    0.8706 N   0  0  0  0  0  0  0  0  0  0  0  0
   -3.4650    4.6816    0.9238 N   0  0  0  0  0  0  0  0  0  0  0  0
   -3.8583    3.3889    1.0996 N   0  0  0  0  0  0  0  0  0  0  0  0
   -5.2315    3.0366    1.1162 C   0  0  0  0  0  0  0  0  0  0  0  0
   -5.6205    1.7714    1.2769 N   0  0  0  0  0  0  0  0  0  0  0  0
   -7.0128    1.8367    1.2396 O   0  0  0  0  0  0  0  0  0  0  0  0
   -7.4520    3.1428    1.0572 N   0  0  0  0  0  0  0  0  0  0  0  0
   -6.3477    3.8828    0.9686 C   0  0  0  0  0  0  0  0  0  0  0  0
   -6.3381    5.2127    0.7705 N   0  0  0  0  0  0  0  0  0  0  0  0
   -2.7210    2.5981    1.2437 C   0  0  0  0  0  0  0  0  0  0  0  0
   -2.7051    1.1534    1.5768 C   0  0  0  0  0  0  0  0  0  0  0  0
   -2.5105    0.4915    0.3289 O   0  0  0  0  0  0  0  0  0  0  0  0
   -2.3869   -0.8700    0.3511 C   0  0  0  0  0  0  0  0  0  0  0  0
   -2.3120   -1.6705    1.4933 C   0  0  0  0  0  0  0  0  0  0  0  0
   -2.1549   -3.0542    1.3659 C   0  0  0  0  0  0  0  0  0  0  0  0
   -2.0756   -3.6280    0.1025 C   0  0  0  0  0  0  0  0  0  0  0  0
   -1.9207   -4.9528   -0.0131 F   0  0  0  0  0  0  0  0  0  0  0  0
   -2.1519   -2.8447   -1.0409 C   0  0  0  0  0  0  0  0  0  0  0  0
   -2.3073   -1.4639   -0.9144 C   0  0  0  0  0  0  0  0  0  0  0  0
    3.9908    0.3243    0.1768 C   0  0  0  0  0  0  0  0  0  0  0  0
    5.2308   -0.3077    0.0603 C   0  0  0  0  0  0  0  0  0  0  0  0
    7.8031   -2.8465   -2.7883 H   0  0  0  0  0  0  0  0  0  0  0  0
    6.0888   -3.1775   -2.9888 H   0  0  0  0  0  0  0  0  0  0  0  0
    7.2223   -4.5279   -2.7742 H   0  0  0  0  0  0  0  0  0  0  0  0
    7.7485   -3.7580   -0.4843 H   0  0  0  0  0  0  0  0  0  0  0  0
    6.0389   -4.1085   -0.5901 H   0  0  0  0  0  0  0  0  0  0  0  0
    4.2088   -3.2304   -1.3644 H   0  0  0  0  0  0  0  0  0  0  0  0
    2.0420   -2.1356   -1.1560 H   0  0  0  0  0  0  0  0  0  0  0  0
    0.6582   -0.2714   -0.5445 H   0  0  0  0  0  0  0  0  0  0  0  0
   -0.6638    1.3654    0.0086 H   0  0  0  0  0  0  0  0  0  0  0  0
   -5.4840    5.7649    0.8385 H   0  0  0  0  0  0  0  0  0  0  0  0
   -7.2004    5.7433    0.8293 H   0  0  0  0  0  0  0  0  0  0  0  0
   -3.6069    0.8033    2.0820 H   0  0  0  0  0  0  0  0  0  0  0  0
   -1.8556    0.9588    2.2442 H   0  0  0  0  0  0  0  0  0  0  0  0
   -2.3682   -1.2586    2.4958 H   0  0  0  0  0  0  0  0  0  0  0  0
   -2.0945   -3.6882    2.2456 H   0  0  0  0  0  0  0  0  0  0  0  0
   -2.0956   -3.3113   -2.0192 H   0  0  0  0  0  0  0  0  0  0  0  0
   -2.3741   -0.8487   -1.8090 H   0  0  0  0  0  0  0  0  0  0  0  0
    3.9333    1.3230    0.6047 H   0  0  0  0  0  0  0  0  0  0  0  0
    6.1274    0.2067    0.3994 H   0  0  0  0  0  0  0  0  0  0  0  0
  1  2  1  0
  2  3  1  0
  3  4  1  0
  4  5  2  0
  5  6  1  0
  6  7  2  0
  7  8  1  0
  8  9  2  3
  9 10  1  0
 10 11  1  0
 11 12  2  0
 11 13  1  0
 13 14  1  0
 14 15  2  0
 15 16  1  0
 16 17  1  0
 17 18  2  0
 18 19  1  0
 19 20  1  0
 20 21  2  0
 21 22  1  0
 16 23  1  0
 23 24  1  0
 24 25  1  0
 25 26  1  0
 26 27  2  0
 27 28  1  0
 28 29  2  0
 29 30  1  0
 29 31  1  0
 31 32  2  0
  7 33  1  0
 33 34  2  0
 34  4  1  0
 23 13  2  0
 32 26  1  0
 21 17  1  0
  1 35  1  0
  1 36  1  0
  1 37  1  0
  2 38  1  0
  2 39  1  0
  5 40  1  0
  6 41  1  0
  8 42  1  0
 10 43  1  0
 22 44  1  0
 22 45  1  0
 24 46  1  0
 24 47  1  0
 27 48  1  0
 28 49  1  0
 31 50  1  0
 32 51  1  0
 33 52  1  0
 34 53  1  0
M  END
$$$$
