
     RDKit          3D

 42 44  0  0  0  0  0  0  0  0999 V2000
   -4.1674   -1.7385    1.4156 C   0  0  0  0  0  0  0  0  0  0  0  0
   -4.1037   -0.9527    0.1051 C   0  0  0  0  0  0  0  0  0  0  0  0
   -4.2058   -1.8781   -1.1082 C   0  0  0  0  0  0  0  0  0  0  0  0
   -2.9086   -0.1080    0.0398 N   0  0  0  0  0  0  0  0  0  0  0  0
   -1.6178   -0.5865    0.0490 C   0  0  0  0  0  0  0  0  0  0  0  0
   -0.7558    0.4846   -0.0238 C   0  0  0  0  0  0  0  0  0  0  0  0
    0.6738    0.4221   -0.0336 C   0  0  0  0  0  0  0  0  0  0  0  0
    1.4159   -0.6982   -0.0730 C   0  0  0  0  0  0  0  0  0  0  0  0
    2.8825   -0.6997   -0.0847 C   0  0  0  0  0  0  0  0  0  0  0  0
    3.6309    0.1112    0.7673 C   0  0  0  0  0  0  0  0  0  0  0  0
    5.0193    0.0502    0.7333 C   0  0  0  0  0  0  0  0  0  0  0  0
    5.6511   -0.7897   -0.1166 N   0  0  0  0  0  4  0  0  0  0  0  0
    7.1229   -0.8423   -0.1289 C   0  0  0  0  0  0  0  0  0  0  0  0
    4.9461   -1.6014   -0.9359 C   0  0  0  0  0  0  0  0  0  0  0  0
    3.5560   -1.5758   -0.9334 C   0  0  0  0  0  0  0  0  0  0  0  0
   -1.5534    1.6698   -0.0793 C   0  0  0  0  0  0  0  0  0  0  0  0
   -1.2592    3.0501   -0.1626 C   0  0  0  0  0  0  0  0  0  0  0  0
   -2.2974    3.9855   -0.2007 C   0  0  0  0  0  0  0  0  0  0  0  0
   -3.6214    3.5682   -0.1574 C   0  0  0  0  0  0  0  0  0  0  0  0
   -3.9439    2.2108   -0.0759 C   0  0  0  0  0  0  0  0  0  0  0  0
   -2.8966    1.2728   -0.0380 C   0  0  0  0  0  0  0  0  0  0  0  0
   -4.0977   -1.0660    2.2777 H   0  0  0  0  0  0  0  0  0  0  0  0
   -3.3523   -2.4661    1.4937 H   0  0  0  0  0  0  0  0  0  0  0  0
   -5.1127   -2.2863    1.4908 H   0  0  0  0  0  0  0  0  0  0  0  0
   -4.9725   -0.2874    0.0816 H   0  0  0  0  0  0  0  0  0  0  0  0
   -3.3903   -2.6091   -1.1323 H   0  0  0  0  0  0  0  0  0  0  0  0
   -4.1666   -1.3044   -2.0408 H   0  0  0  0  0  0  0  0  0  0  0  0
   -5.1506   -2.4317   -1.0923 H   0  0  0  0  0  0  0  0  0  0  0  0
   -1.4329   -1.6501    0.1109 H   0  0  0  0  0  0  0  0  0  0  0  0
    1.1803    1.3846   -0.0217 H   0  0  0  0  0  0  0  0  0  0  0  0
    0.9381   -1.6739   -0.1224 H   0  0  0  0  0  0  0  0  0  0  0  0
    3.1422    0.7844    1.4696 H   0  0  0  0  0  0  0  0  0  0  0  0
    5.6326    0.6650    1.3863 H   0  0  0  0  0  0  0  0  0  0  0  0
    7.4293   -1.5955    0.6011 H   0  0  0  0  0  0  0  0  0  0  0  0
    7.4634   -1.1106   -1.1324 H   0  0  0  0  0  0  0  0  0  0  0  0
    7.5188    0.1414    0.1361 H   0  0  0  0  0  0  0  0  0  0  0  0
    5.5025   -2.2696   -1.5874 H   0  0  0  0  0  0  0  0  0  0  0  0
    3.0052   -2.2346   -1.6028 H   0  0  0  0  0  0  0  0  0  0  0  0
   -0.2309    3.3949   -0.1998 H   0  0  0  0  0  0  0  0  0  0  0  0
   -2.0673    5.0461   -0.2655 H   0  0  0  0  0  0  0  0  0  0  0  0
   -4.4202    4.3062   -0.1881 H   0  0  0  0  0  0  0  0  0  0  0  0
   -4.9857    1.9086   -0.0441 H   0  0  0  0  0  0  0  0  0  0  0  0
  1  2  1  0
  2  3  1  0
  2  4  1  0
  4  5  1  0
  5  6  2  0
  6  7  1  0
  7  8  2  3
  8  9  1  0
  9 10  2  0
 10 11  1  0
 11 12  2  0
 12 13  1  0
 12 14  1  0
 14 15  2  0
  6 16  1  0
 16 17  2  0
 17 18  1  0
 18 19  2  0
 19 20  1  0
 20 21  2  0
 21  4  1  0
 15  9  1  0
 21 16  1  0
  1 22  1  0
  1 23  1  0
  1 24  1  0
  2 25  1  0
  3 26  1  0
  3 27  1  0
  3 28  1  0
  5 29  1  0
  7 30  1  0
  8 31  1  0
 10 32  1  0
 11 33  1  0
 13 34  1  0
 13 35  1  0
 13 36  1  0
 14 37  1  0
 15 38  1  0
 17 39  1  0
 18 40  1  0
 19 41  1  0
 20 42  1  0
M  CHG  1  12   1
M  END
$$$$
