
     RDKit          3D

 38 39  0  0  0  0  0  0  0  0999 V2000
    0.8211    0.3805   -1.0189 C   0  0  0  0  0  0  0  0  0  0  0  0
    0.8667   -0.5489    0.1759 C   0  0  0  0  0  0  0  0  0  0  0  0
    1.8870   -1.6329    0.1953 C   0  0  0  0  0  0  0  0  0  0  0  0
    3.2077   -1.4746    0.0216 C   0  0  0  0  0  0  0  0  0  0  0  0
    3.9265   -0.2109   -0.1691 C   0  0  0  0  0  0  0  0  0  0  0  0
    3.8020    0.8444    0.7428 C   0  0  0  0  0  0  0  0  0  0  0  0
    4.5137    2.0305    0.5517 C   0  0  0  0  0  0  0  0  0  0  0  0
    5.3632    2.1656   -0.5449 C   0  0  0  0  0  0  0  0  0  0  0  0
    5.5056    1.1140   -1.4487 C   0  0  0  0  0  0  0  0  0  0  0  0
    4.7939   -0.0727   -1.2587 C   0  0  0  0  0  0  0  0  0  0  0  0
    0.0502   -0.4848    1.1924 N   0  0  0  0  0  0  0  0  0  0  0  0
   -0.9117    0.4906    1.1291 N   0  0  0  0  0  0  0  0  0  0  0  0
   -2.2081    0.0838    0.7252 C   0  0  0  0  0  0  0  0  0  0  0  0
   -3.2310    0.7110    1.3319 N   0  0  0  0  0  0  0  0  0  0  0  0
   -4.4807    0.3579    0.9696 C   0  0  0  0  0  0  0  0  0  0  0  0
   -5.6178    1.0567    1.6517 C   0  0  0  0  0  0  0  0  0  0  0  0
   -4.7296   -0.6042    0.0132 C   0  0  0  0  0  0  0  0  0  0  0  0
   -3.6258   -1.1948   -0.5645 C   0  0  0  0  0  0  0  0  0  0  0  0
   -3.7930   -2.2506   -1.6144 C   0  0  0  0  0  0  0  0  0  0  0  0
   -2.3679   -0.8591   -0.2220 N   0  0  0  0  0  0  0  0  0  0  0  0
    1.5467    0.0892   -1.7824 H   0  0  0  0  0  0  0  0  0  0  0  0
   -0.1685    0.3488   -1.4819 H   0  0  0  0  0  0  0  0  0  0  0  0
    1.0344    1.4035   -0.6967 H   0  0  0  0  0  0  0  0  0  0  0  0
    1.4790   -2.6165    0.4080 H   0  0  0  0  0  0  0  0  0  0  0  0
    3.8433   -2.3574    0.0486 H   0  0  0  0  0  0  0  0  0  0  0  0
    3.1506    0.7514    1.6096 H   0  0  0  0  0  0  0  0  0  0  0  0
    4.4056    2.8468    1.2611 H   0  0  0  0  0  0  0  0  0  0  0  0
    5.9169    3.0891   -0.6928 H   0  0  0  0  0  0  0  0  0  0  0  0
    6.1712    1.2170   -2.3016 H   0  0  0  0  0  0  0  0  0  0  0  0
    4.9153   -0.8837   -1.9729 H   0  0  0  0  0  0  0  0  0  0  0  0
   -1.1081    0.9439    2.0214 H   0  0  0  0  0  0  0  0  0  0  0  0
   -5.2474    1.7865    2.3788 H   0  0  0  0  0  0  0  0  0  0  0  0
   -6.2423    0.3325    2.1841 H   0  0  0  0  0  0  0  0  0  0  0  0
   -6.2302    1.5888    0.9171 H   0  0  0  0  0  0  0  0  0  0  0  0
   -5.7372   -0.8807   -0.2692 H   0  0  0  0  0  0  0  0  0  0  0  0
   -2.8200   -2.6105   -1.9643 H   0  0  0  0  0  0  0  0  0  0  0  0
   -4.3358   -1.8464   -2.4745 H   0  0  0  0  0  0  0  0  0  0  0  0
   -4.3456   -3.1037   -1.2086 H   0  0  0  0  0  0  0  0  0  0  0  0
  1  2  1  0
  2  3  1  0
  3  4  2  3
  4  5  1  0
  5  6  2  0
  6  7  1  0
  7  8  2  0
  8  9  1  0
  9 10  2  0
  2 11  2  3
 11 12  1  0
 12 13  1  0
 13 14  2  0
 14 15  1  0
 15 16  1  0
 15 17  2  0
 17 18  1  0
 18 19  1  0
 18 20  2  0
 10  5  1  0
 20 13  1  0
  1 21  1  0
  1 22  1  0
  1 23  1  0
  3 24  1  0
  4 25  1  0
  6 26  1  0
  7 27  1  0
  8 28  1  0
  9 29  1  0
 10 30  1  0
 12 31  1  0
 16 32  1  0
 16 33  1  0
 16 34  1  0
 17 35  1  0
 19 36  1  0
 19 37  1  0
 19 38  1  0
M  END
$$$$
