
     RDKit          3D

 56 58  0  0  0  0  0  0  0  0999 V2000
    9.5054    1.4609    0.5636 C   0  0  0  0  0  0  0  0  0  0  0  0
    9.1628    0.8694   -0.7945 C   0  0  0  0  0  0  0  0  0  0  0  0
    8.2790   -0.2475   -0.6472 O   0  0  0  0  0  0  0  0  0  0  0  0
    6.9603    0.0975   -0.5584 C   0  0  0  0  0  0  0  0  0  0  0  0
    6.2658   -0.3238    0.5718 C   0  0  0  0  0  0  0  0  0  0  0  0
    4.9044   -0.0326    0.7127 C   0  0  0  0  0  0  0  0  0  0  0  0
    4.2242    0.6657   -0.2868 C   0  0  0  0  0  0  0  0  0  0  0  0
    2.8546    0.9970   -0.2276 N   0  0  0  0  0  0  0  0  0  0  0  0
    1.9601    0.7076    0.7904 C   0  0  0  0  0  0  0  0  0  0  0  0
    2.2033    0.0976    1.8260 O   0  0  0  0  0  0  0  0  0  0  0  0
    0.5631    1.2124    0.4697 C   0  0  0  0  0  0  0  0  0  0  0  0
   -0.3892    1.0886    1.6536 C   0  0  0  0  0  0  0  0  0  0  0  0
   -0.6515   -0.3298    1.9516 N   0  0  0  0  0  0  0  0  0  0  0  0
   -1.9672   -0.6998    2.9305 S   0  0  0  0  0  6  0  0  0  0  0  0
   -2.3611    0.4795    3.6658 O   0  0  0  0  0  0  0  0  0  0  0  0
   -1.6500   -1.9463    3.5904 O   0  0  0  0  0  0  0  0  0  0  0  0
   -3.2173   -1.0449    1.7168 C   0  0  0  0  0  0  0  0  0  0  0  0
   -3.4658   -2.3601    1.3265 C   0  0  0  0  0  0  0  0  0  0  0  0
   -4.4729   -2.6280    0.3925 C   0  0  0  0  0  0  0  0  0  0  0  0
   -5.2432   -1.5901   -0.1593 C   0  0  0  0  0  0  0  0  0  0  0  0
   -4.9770   -0.2826    0.2481 C   0  0  0  0  0  0  0  0  0  0  0  0
   -3.9777   -0.0017    1.1923 C   0  0  0  0  0  0  0  0  0  0  0  0
   -5.7551    0.8245   -0.3284 C   0  0  0  0  0  0  0  0  0  0  0  0
   -5.4676    1.9777   -0.0149 O   0  0  0  0  0  0  0  0  0  0  0  0
   -6.7652    0.4826   -1.2124 N   0  0  0  0  0  0  0  0  0  0  0  0
   -7.5744    1.5468   -1.7784 C   0  0  0  0  0  0  0  0  0  0  0  0
   -7.0510   -0.8090   -1.6392 C   0  0  0  0  0  0  0  0  0  0  0  0
   -7.9483   -1.0277   -2.4568 O   0  0  0  0  0  0  0  0  0  0  0  0
   -6.2743   -1.8332   -1.1050 N   0  0  0  0  0  0  0  0  0  0  0  0
   -6.5548   -3.1994   -1.5296 C   0  0  0  0  0  0  0  0  0  0  0  0
    4.9282    1.0616   -1.4330 C   0  0  0  0  0  0  0  0  0  0  0  0
    6.2892    0.7707   -1.5745 C   0  0  0  0  0  0  0  0  0  0  0  0
    9.8924    0.6878    1.2355 H   0  0  0  0  0  0  0  0  0  0  0  0
   10.2559    2.2503    0.4633 H   0  0  0  0  0  0  0  0  0  0  0  0
    8.6175    1.8870    1.0409 H   0  0  0  0  0  0  0  0  0  0  0  0
    8.7718    1.6390   -1.4698 H   0  0  0  0  0  0  0  0  0  0  0  0
   10.0806    0.4845   -1.2547 H   0  0  0  0  0  0  0  0  0  0  0  0
    6.7831   -0.8741    1.3528 H   0  0  0  0  0  0  0  0  0  0  0  0
    4.4110   -0.3666    1.6184 H   0  0  0  0  0  0  0  0  0  0  0  0
    2.4893    1.4969   -1.0286 H   0  0  0  0  0  0  0  0  0  0  0  0
    0.1811    0.6475   -0.3891 H   0  0  0  0  0  0  0  0  0  0  0  0
    0.6365    2.2684    0.1840 H   0  0  0  0  0  0  0  0  0  0  0  0
   -1.3249    1.5944    1.3955 H   0  0  0  0  0  0  0  0  0  0  0  0
    0.0384    1.5700    2.5400 H   0  0  0  0  0  0  0  0  0  0  0  0
    0.1806   -0.8593    2.2427 H   0  0  0  0  0  0  0  0  0  0  0  0
   -2.8862   -3.1821    1.7437 H   0  0  0  0  0  0  0  0  0  0  0  0
   -4.6337   -3.6674    0.1190 H   0  0  0  0  0  0  0  0  0  0  0  0
   -3.8006    1.0233    1.5130 H   0  0  0  0  0  0  0  0  0  0  0  0
   -8.6273    1.3535   -1.5484 H   0  0  0  0  0  0  0  0  0  0  0  0
   -7.4522    1.5460   -2.8662 H   0  0  0  0  0  0  0  0  0  0  0  0
   -7.3044    2.5322   -1.3912 H   0  0  0  0  0  0  0  0  0  0  0  0
   -5.6613   -3.6254   -1.9967 H   0  0  0  0  0  0  0  0  0  0  0  0
   -7.3668   -3.2488   -2.2607 H   0  0  0  0  0  0  0  0  0  0  0  0
   -6.8531   -3.7950   -0.6610 H   0  0  0  0  0  0  0  0  0  0  0  0
    4.4288    1.5941   -2.2385 H   0  0  0  0  0  0  0  0  0  0  0  0
    6.8071    1.0604   -2.4842 H   0  0  0  0  0  0  0  0  0  0  0  0
  1  2  1  0
  2  3  1  0
  3  4  1  0
  4  5  2  0
  5  6  1  0
  6  7  2  0
  7  8  1  0
  8  9  1  0
  9 10  2  0
  9 11  1  0
 11 12  1  0
 12 13  1  0
 13 14  1  0
 14 15  2  0
 14 16  2  0
 14 17  1  0
 17 18  2  0
 18 19  1  0
 19 20  2  0
 20 21  1  0
 21 22  2  0
 21 23  1  0
 23 24  2  0
 23 25  1  0
 25 26  1  0
 25 27  1  0
 27 28  2  0
 27 29  1  0
 29 30  1  0
  7 31  1  0
 31 32  2  0
 32  4  1  0
 22 17  1  0
 29 20  1  0
  1 33  1  0
  1 34  1  0
  1 35  1  0
  2 36  1  0
  2 37  1  0
  5 38  1  0
  6 39  1  0
  8 40  1  0
 11 41  1  0
 11 42  1  0
 12 43  1  0
 12 44  1  0
 13 45  1  0
 18 46  1  0
 19 47  1  0
 22 48  1  0
 26 49  1  0
 26 50  1  0
 26 51  1  0
 30 52  1  0
 30 53  1  0
 30 54  1  0
 31 55  1  0
 32 56  1  0
M  END
$$$$
