
     RDKit          3D

 40 41  0  0  0  0  0  0  0  0999 V2000
   -7.0745    1.4066   -0.7567 C   0  0  0  0  0  0  0  0  0  0  0  0
   -6.0308    2.3107   -1.0969 O   0  0  0  0  0  0  0  0  0  0  0  0
   -4.7910    2.0466   -0.5844 C   0  0  0  0  0  0  0  0  0  0  0  0
   -3.7991    2.9532   -0.9633 C   0  0  0  0  0  0  0  0  0  0  0  0
   -2.4834    2.8048   -0.5131 C   0  0  0  0  0  0  0  0  0  0  0  0
   -2.1491    1.7382    0.3281 C   0  0  0  0  0  0  0  0  0  0  0  0
   -0.7698    1.5324    0.8456 C   0  0  0  0  0  0  0  0  0  0  0  0
   -0.4258    0.5585    1.4982 O   0  0  0  0  0  0  0  0  0  0  0  0
    0.0358    2.5674    0.5040 O   0  0  0  0  0  0  0  0  0  0  0  0
    1.3735    2.4853    0.9984 C   0  0  0  0  0  0  0  0  0  0  0  0
    2.2586    1.5393    0.1834 C   0  0  0  0  0  0  0  0  0  0  0  0
    3.0129    1.9453   -0.6959 O   0  0  0  0  0  0  0  0  0  0  0  0
    2.1424    0.2103    0.5396 N   0  0  0  0  0  0  0  0  0  0  0  0
    2.7628   -0.8366   -0.2518 C   0  0  0  0  0  0  0  0  0  0  0  0
    3.0942   -2.0734    0.5864 C   0  0  0  0  0  0  0  0  0  0  0  0
    3.5912   -3.1714   -0.2225 N   0  0  0  0  0  0  0  0  0  0  0  0
    4.9017   -3.2931   -0.6143 C   0  0  0  0  0  0  0  0  0  0  0  0
    5.8046   -2.3669   -0.1881 O   0  0  0  0  0  0  0  0  0  0  0  0
    5.1494   -4.3423   -1.4073 C   0  0  0  0  0  0  0  0  0  0  0  0
    3.7007   -5.2539   -1.7163 S   0  0  0  0  0  0  0  0  0  0  0  0
    2.7334   -4.1255   -0.7456 C   0  0  0  0  0  0  0  0  0  0  0  0
    1.5244   -4.2124   -0.6081 O   0  0  0  0  0  0  0  0  0  0  0  0
   -3.1425    0.8263    0.7064 C   0  0  0  0  0  0  0  0  0  0  0  0
   -4.4579    0.9810    0.2518 C   0  0  0  0  0  0  0  0  0  0  0  0
   -6.8639    0.4010   -1.1365 H   0  0  0  0  0  0  0  0  0  0  0  0
   -7.2499    1.3936    0.3234 H   0  0  0  0  0  0  0  0  0  0  0  0
   -7.9921    1.7594   -1.2379 H   0  0  0  0  0  0  0  0  0  0  0  0
   -4.0535    3.7818   -1.6184 H   0  0  0  0  0  0  0  0  0  0  0  0
   -1.7371    3.5250   -0.8349 H   0  0  0  0  0  0  0  0  0  0  0  0
    1.3862    2.1994    2.0584 H   0  0  0  0  0  0  0  0  0  0  0  0
    1.8111    3.4886    0.9432 H   0  0  0  0  0  0  0  0  0  0  0  0
    1.2992   -0.0347    1.0638 H   0  0  0  0  0  0  0  0  0  0  0  0
    2.0595   -1.0867   -1.0542 H   0  0  0  0  0  0  0  0  0  0  0  0
    3.6689   -0.4486   -0.7306 H   0  0  0  0  0  0  0  0  0  0  0  0
    2.1902   -2.4102    1.1109 H   0  0  0  0  0  0  0  0  0  0  0  0
    3.8306   -1.8293    1.3642 H   0  0  0  0  0  0  0  0  0  0  0  0
    6.6776   -2.5945   -0.5517 H   0  0  0  0  0  0  0  0  0  0  0  0
    6.1058   -4.6146   -1.8281 H   0  0  0  0  0  0  0  0  0  0  0  0
   -2.8997   -0.0116    1.3566 H   0  0  0  0  0  0  0  0  0  0  0  0
   -5.1946    0.2508    0.5674 H   0  0  0  0  0  0  0  0  0  0  0  0
  1  2  1  0
  2  3  1  0
  3  4  2  0
  4  5  1  0
  5  6  2  0
  6  7  1  0
  7  8  2  0
  7  9  1  0
  9 10  1  0
 10 11  1  0
 11 12  2  0
 11 13  1  0
 13 14  1  0
 14 15  1  0
 15 16  1  0
 16 17  1  0
 17 18  1  0
 17 19  2  0
 19 20  1  0
 20 21  1  0
 21 22  2  0
  6 23  1  0
 23 24  2  0
 24  3  1  0
 21 16  1  0
  1 25  1  0
  1 26  1  0
  1 27  1  0
  4 28  1  0
  5 29  1  0
 10 30  1  0
 10 31  1  0
 13 32  1  0
 14 33  1  0
 14 34  1  0
 15 35  1  0
 15 36  1  0
 18 37  1  0
 19 38  1  0
 23 39  1  0
 24 40  1  0
M  END
$$$$
