
     RDKit          3D

 44 45  0  0  0  0  0  0  0  0999 V2000
    7.6395    1.7221    2.0260 C   0  0  0  0  0  0  0  0  0  0  0  0
    7.7000    0.4690    1.1725 C   0  0  0  0  0  0  0  0  0  0  0  0
    6.3707    0.0254    0.8619 O   0  0  0  0  0  0  0  0  0  0  0  0
    5.8232    0.5421   -0.2655 C   0  0  0  0  0  0  0  0  0  0  0  0
    6.3525    1.3367   -1.0263 O   0  0  0  0  0  0  0  0  0  0  0  0
    4.4529   -0.0012   -0.4734 C   0  0  0  0  0  0  0  0  0  0  0  0
    3.7892   -0.7593    0.5040 C   0  0  0  0  0  0  0  0  0  0  0  0
    2.4967   -1.2370    0.2682 C   0  0  0  0  0  0  0  0  0  0  0  0
    1.8658   -0.9499   -0.9455 C   0  0  0  0  0  0  0  0  0  0  0  0
    0.2333   -1.5716   -1.2583 S   0  0  0  0  0  6  0  0  0  0  0  0
    0.0610   -1.7153   -2.6850 O   0  0  0  0  0  0  0  0  0  0  0  0
   -0.0355   -2.6475   -0.3246 O   0  0  0  0  0  0  0  0  0  0  0  0
   -0.7254   -0.2208   -0.7533 N   0  0  0  0  0  0  0  0  0  0  0  0
   -1.9158   -0.6594   -0.0602 N   0  0  0  0  0  0  0  0  0  0  0  0
   -3.1856   -1.0242   -1.1823 S   0  0  0  0  0  6  0  0  0  0  0  0
   -3.2915   -2.4635   -1.2511 O   0  0  0  0  0  0  0  0  0  0  0  0
   -2.9516   -0.2028   -2.3543 O   0  0  0  0  0  0  0  0  0  0  0  0
   -4.5908   -0.3860   -0.3132 C   0  0  0  0  0  0  0  0  0  0  0  0
   -4.9801    0.9406   -0.5093 C   0  0  0  0  0  0  0  0  0  0  0  0
   -6.1032    1.4330    0.1572 C   0  0  0  0  0  0  0  0  0  0  0  0
   -6.8476    0.6017    1.0058 C   0  0  0  0  0  0  0  0  0  0  0  0
   -8.0405    1.1496    1.7343 C   0  0  0  0  0  0  0  0  0  0  0  0
   -6.4459   -0.7283    1.1909 C   0  0  0  0  0  0  0  0  0  0  0  0
   -5.3253   -1.2286    0.5254 C   0  0  0  0  0  0  0  0  0  0  0  0
    2.5214   -0.2105   -1.9336 C   0  0  0  0  0  0  0  0  0  0  0  0
    3.8115    0.2689   -1.6915 C   0  0  0  0  0  0  0  0  0  0  0  0
    8.6427    2.0296    2.3366 H   0  0  0  0  0  0  0  0  0  0  0  0
    7.0295    1.5489    2.9197 H   0  0  0  0  0  0  0  0  0  0  0  0
    7.1747    2.5486    1.4778 H   0  0  0  0  0  0  0  0  0  0  0  0
    8.2937    0.6315    0.2650 H   0  0  0  0  0  0  0  0  0  0  0  0
    8.1832   -0.3380    1.7338 H   0  0  0  0  0  0  0  0  0  0  0  0
    4.2660   -0.9832    1.4559 H   0  0  0  0  0  0  0  0  0  0  0  0
    1.9944   -1.8260    1.0335 H   0  0  0  0  0  0  0  0  0  0  0  0
   -0.9688    0.3096   -1.6111 H   0  0  0  0  0  0  0  0  0  0  0  0
   -1.7394   -1.5272    0.4798 H   0  0  0  0  0  0  0  0  0  0  0  0
   -4.4209    1.5948   -1.1750 H   0  0  0  0  0  0  0  0  0  0  0  0
   -6.4025    2.4684    0.0049 H   0  0  0  0  0  0  0  0  0  0  0  0
   -8.6831    0.3449    2.1055 H   0  0  0  0  0  0  0  0  0  0  0  0
   -8.6472    1.7692    1.0655 H   0  0  0  0  0  0  0  0  0  0  0  0
   -7.7137    1.7542    2.5858 H   0  0  0  0  0  0  0  0  0  0  0  0
   -7.0116   -1.3869    1.8484 H   0  0  0  0  0  0  0  0  0  0  0  0
   -5.0390   -2.2680    0.6639 H   0  0  0  0  0  0  0  0  0  0  0  0
    2.0432   -0.0046   -2.8896 H   0  0  0  0  0  0  0  0  0  0  0  0
    4.3198    0.8509   -2.4599 H   0  0  0  0  0  0  0  0  0  0  0  0
  1  2  1  0
  2  3  1  0
  3  4  1  0
  4  5  2  0
  4  6  1  0
  6  7  2  0
  7  8  1  0
  8  9  2  0
  9 10  1  0
 10 11  2  0
 10 12  2  0
 10 13  1  0
 13 14  1  0
 14 15  1  0
 15 16  2  0
 15 17  2  0
 15 18  1  0
 18 19  2  0
 19 20  1  0
 20 21  2  0
 21 22  1  0
 21 23  1  0
 23 24  2  0
  9 25  1  0
 25 26  2  0
 26  6  1  0
 24 18  1  0
  1 27  1  0
  1 28  1  0
  1 29  1  0
  2 30  1  0
  2 31  1  0
  7 32  1  0
  8 33  1  0
 13 34  1  0
 14 35  1  0
 19 36  1  0
 20 37  1  0
 22 38  1  0
 22 39  1  0
 22 40  1  0
 23 41  1  0
 24 42  1  0
 25 43  1  0
 26 44  1  0
M  END
$$$$
