
     RDKit          3D

 59 62  0  0  0  0  0  0  0  0999 V2000
    8.0740   -2.6728    0.0377 C   0  0  0  0  0  0  0  0  0  0  0  0
    6.8526   -1.9474    0.5220 C   0  0  0  0  0  0  0  0  0  0  0  0
    5.6924   -2.6516    0.8513 C   0  0  0  0  0  0  0  0  0  0  0  0
    4.5457   -1.9703    1.2721 C   0  0  0  0  0  0  0  0  0  0  0  0
    4.5391   -0.5685    1.3789 C   0  0  0  0  0  0  0  0  0  0  0  0
    3.3381    0.0840    1.8018 N   0  0  0  0  0  0  0  0  0  0  0  0
    2.1726   -0.6190    1.7709 N   0  0  0  0  0  0  0  0  0  0  0  0
    1.2146    0.2849    1.9837 C   0  0  0  0  0  0  0  0  0  0  0  0
   -0.2222    0.0429    1.9621 C   0  0  0  0  0  0  0  0  0  0  0  0
   -0.7252   -1.0473    1.6972 O   0  0  0  0  0  0  0  0  0  0  0  0
   -0.9732    1.1996    2.2594 N   0  0  0  0  0  0  0  0  0  0  0  0
   -2.4315    1.1348    2.2483 C   0  0  0  0  0  0  0  0  0  0  0  0
   -3.0387    1.5922    0.9222 C   0  0  0  0  0  0  0  0  0  0  0  0
   -2.7298    0.6395   -0.2320 C   0  0  0  0  0  0  0  0  0  0  0  0
   -3.4553    1.0269   -1.5051 C   0  0  0  0  0  0  0  0  0  0  0  0
   -4.0170    2.1081   -1.6593 O   0  0  0  0  0  0  0  0  0  0  0  0
   -3.3786    0.0513   -2.4747 N   0  0  0  0  0  0  0  0  0  0  0  0
   -4.0701    0.1684   -3.7385 C   0  0  0  0  0  0  0  0  0  0  0  0
   -4.9477   -1.0170   -3.9065 C   0  0  0  0  0  0  0  0  0  0  0  0
   -4.8061   -2.2165   -4.5716 C   0  0  0  0  0  0  0  0  0  0  0  0
   -6.0055   -2.9403   -4.3553 C   0  0  0  0  0  0  0  0  0  0  0  0
   -6.8051   -2.1412   -3.5698 C   0  0  0  0  0  0  0  0  0  0  0  0
   -8.1587   -2.2939   -3.0032 C   0  0  0  0  0  0  0  0  0  0  0  0
   -6.1654   -0.9711   -3.2911 O   0  0  0  0  0  0  0  0  0  0  0  0
   -0.4317    2.4634    2.5206 N   0  0  0  0  0  0  0  0  0  0  0  0
    0.8580    2.6576    2.5264 C   0  0  0  0  0  0  0  0  0  0  0  0
    1.3716    4.0409    2.8092 C   0  0  0  0  0  0  0  0  0  0  0  0
    1.7416    1.5486    2.2633 C   0  0  0  0  0  0  0  0  0  0  0  0
    3.1177    1.3907    2.2556 C   0  0  0  0  0  0  0  0  0  0  0  0
    4.1855    2.3317    2.6772 C   0  0  0  0  0  0  0  0  0  0  0  0
    5.6907    0.1372    1.0131 C   0  0  0  0  0  0  0  0  0  0  0  0
    6.8378   -0.5500    0.5902 C   0  0  0  0  0  0  0  0  0  0  0  0
    8.9863   -2.1737    0.3826 H   0  0  0  0  0  0  0  0  0  0  0  0
    8.0795   -2.7075   -1.0545 H   0  0  0  0  0  0  0  0  0  0  0  0
    8.0993   -3.6972    0.4220 H   0  0  0  0  0  0  0  0  0  0  0  0
    5.6676   -3.7382    0.7827 H   0  0  0  0  0  0  0  0  0  0  0  0
    3.6614   -2.5561    1.5227 H   0  0  0  0  0  0  0  0  0  0  0  0
   -2.7577    0.1146    2.4810 H   0  0  0  0  0  0  0  0  0  0  0  0
   -2.7974    1.7781    3.0573 H   0  0  0  0  0  0  0  0  0  0  0  0
   -2.6881    2.6026    0.6743 H   0  0  0  0  0  0  0  0  0  0  0  0
   -4.1273    1.6610    1.0482 H   0  0  0  0  0  0  0  0  0  0  0  0
   -3.0269   -0.3807    0.0393 H   0  0  0  0  0  0  0  0  0  0  0  0
   -1.6565    0.6440   -0.4539 H   0  0  0  0  0  0  0  0  0  0  0  0
   -2.9412   -0.8335   -2.2515 H   0  0  0  0  0  0  0  0  0  0  0  0
   -3.3070    0.1897   -4.5237 H   0  0  0  0  0  0  0  0  0  0  0  0
   -4.6498    1.0958   -3.7935 H   0  0  0  0  0  0  0  0  0  0  0  0
   -3.9444   -2.5276   -5.1473 H   0  0  0  0  0  0  0  0  0  0  0  0
   -6.2583   -3.9237   -4.7295 H   0  0  0  0  0  0  0  0  0  0  0  0
   -8.8195   -1.5125   -3.3839 H   0  0  0  0  0  0  0  0  0  0  0  0
   -8.1287   -2.2175   -1.9136 H   0  0  0  0  0  0  0  0  0  0  0  0
   -8.5888   -3.2675   -3.2680 H   0  0  0  0  0  0  0  0  0  0  0  0
    0.5555    4.7681    2.7551 H   0  0  0  0  0  0  0  0  0  0  0  0
    2.1340    4.3180    2.0770 H   0  0  0  0  0  0  0  0  0  0  0  0
    1.7967    4.0691    3.8162 H   0  0  0  0  0  0  0  0  0  0  0  0
    4.5094    2.9555    1.8377 H   0  0  0  0  0  0  0  0  0  0  0  0
    3.8302    2.9964    3.4702 H   0  0  0  0  0  0  0  0  0  0  0  0
    5.0519    1.8093    3.0995 H   0  0  0  0  0  0  0  0  0  0  0  0
    5.7301    1.2195    0.9955 H   0  0  0  0  0  0  0  0  0  0  0  0
    7.7196    0.0181    0.3031 H   0  0  0  0  0  0  0  0  0  0  0  0
  1  2  1  0
  2  3  2  0
  3  4  1  0
  4  5  2  0
  5  6  1  0
  6  7  1  0
  7  8  2  0
  8  9  1  0
  9 10  2  0
  9 11  1  0
 11 12  1  0
 12 13  1  0
 13 14  1  0
 14 15  1  0
 15 16  2  0
 15 17  1  0
 17 18  1  0
 18 19  1  0
 19 20  2  0
 20 21  1  0
 21 22  2  0
 22 23  1  0
 22 24  1  0
 11 25  1  0
 25 26  2  0
 26 27  1  0
 26 28  1  0
 28 29  2  0
 29 30  1  0
  5 31  1  0
 31 32  2  0
 32  2  1  0
 29  6  1  0
 28  8  1  0
 24 19  1  0
  1 33  1  0
  1 34  1  0
  1 35  1  0
  3 36  1  0
  4 37  1  0
 12 38  1  0
 12 39  1  0
 13 40  1  0
 13 41  1  0
 14 42  1  0
 14 43  1  0
 17 44  1  0
 18 45  1  0
 18 46  1  0
 20 47  1  0
 21 48  1  0
 23 49  1  0
 23 50  1  0
 23 51  1  0
 27 52  1  0
 27 53  1  0
 27 54  1  0
 30 55  1  0
 30 56  1  0
 30 57  1  0
 31 58  1  0
 32 59  1  0
M  END
$$$$
