
     RDKit          3D

 16 17  0  0  0  0  0  0  0  0999 V2000
    3.5375   -0.0953    0.0839 N   0  0  0  0  0  0  0  0  0  0  0  0
    2.2019    0.0146   -0.0153 C   0  0  0  0  0  0  0  0  0  0  0  0
    1.3785   -0.5982    0.7937 N   0  0  0  0  0  0  0  0  0  0  0  0
    0.0636   -0.3022    0.4556 C   0  0  0  0  0  0  0  0  0  0  0  0
   -1.1063   -0.7636    1.0951 C   0  0  0  0  0  0  0  0  0  0  0  0
   -1.0268   -1.5829    2.1545 F   0  0  0  0  0  0  0  0  0  0  0  0
   -2.3690   -0.3799    0.6394 C   0  0  0  0  0  0  0  0  0  0  0  0
   -2.4880    0.4663   -0.4574 C   0  0  0  0  0  0  0  0  0  0  0  0
   -1.3500    0.9426   -1.1171 C   0  0  0  0  0  0  0  0  0  0  0  0
   -0.0854    0.5462   -0.6446 C   0  0  0  0  0  0  0  0  0  0  0  0
    1.4745    0.9614   -1.2433 S   0  0  0  0  0  0  0  0  0  0  0  0
    4.0813    0.0558   -0.7566 H   0  0  0  0  0  0  0  0  0  0  0  0
    3.8576   -0.8804    0.6411 H   0  0  0  0  0  0  0  0  0  0  0  0
   -3.2517   -0.7505    1.1522 H   0  0  0  0  0  0  0  0  0  0  0  0
   -3.4752    0.7620   -0.8070 H   0  0  0  0  0  0  0  0  0  0  0  0
   -1.4423    1.6040   -1.9742 H   0  0  0  0  0  0  0  0  0  0  0  0
  1  2  1  0
  2  3  2  0
  3  4  1  0
  4  5  2  0
  5  6  1  0
  5  7  1  0
  7  8  2  0
  8  9  1  0
  9 10  2  0
 10 11  1  0
 11  2  1  0
 10  4  1  0
  1 12  1  0
  1 13  1  0
  7 14  1  0
  8 15  1  0
  9 16  1  0
M  END
$$$$
