
     RDKit          3D

 51 55  0  0  0  0  0  0  0  0999 V2000
   -2.7599    2.1985    1.4892 O   0  0  0  0  0  0  0  0  0  0  0  0
   -2.9546    1.6251    0.4109 C   0  0  0  0  0  0  0  0  0  0  0  0
   -3.9459    2.1984   -0.6427 C   0  0  0  0  0  0  0  0  0  0  0  0
   -4.6867    3.5226   -0.2873 C   0  0  0  0  0  0  0  0  0  0  0  0
   -5.9127    2.9612   -1.0283 C   0  0  0  0  0  0  0  0  0  0  0  0
   -5.3596    1.5568   -0.7267 C   0  0  0  0  0  0  0  0  0  0  0  0
   -2.3057    0.4484    0.0507 N   0  0  0  0  0  0  0  0  0  0  0  0
   -2.4856   -0.2761   -1.2184 C   0  0  0  0  0  0  0  0  0  0  0  0
   -1.4811   -1.4345   -1.2387 C   0  0  0  0  0  0  0  0  0  0  0  0
   -0.9374   -1.3955    0.1522 C   0  0  0  0  0  0  0  0  0  0  0  0
   -0.0417   -2.2865    0.7244 C   0  0  0  0  0  0  0  0  0  0  0  0
    0.3721   -2.0418    2.0375 C   0  0  0  0  0  0  0  0  0  0  0  0
    1.5266   -3.1492    2.8188 S   0  0  0  0  0  6  0  0  0  0  0  0
    1.1832   -3.2139    4.2235 O   0  0  0  0  0  0  0  0  0  0  0  0
    1.6163   -4.3480    2.0121 O   0  0  0  0  0  0  0  0  0  0  0  0
    2.9859   -2.3009    2.7264 N   0  0  0  0  0  0  0  0  0  0  0  0
    3.4231   -1.8003    1.4673 C   0  0  0  0  0  0  0  0  0  0  0  0
    3.7222   -2.6662    0.4136 C   0  0  0  0  0  0  0  0  0  0  0  0
    4.1239   -2.1525   -0.8216 C   0  0  0  0  0  0  0  0  0  0  0  0
    4.2327   -0.7749   -0.9973 C   0  0  0  0  0  0  0  0  0  0  0  0
    3.9147    0.0913    0.0534 C   0  0  0  0  0  0  0  0  0  0  0  0
    3.5242   -0.4197    1.2903 C   0  0  0  0  0  0  0  0  0  0  0  0
    3.9739    1.4577   -0.0552 O   0  0  0  0  0  0  0  0  0  0  0  0
    4.0525    1.8714   -1.4247 C   0  0  0  0  0  0  0  0  0  0  0  0
    5.0671    1.0306   -2.1819 C   0  0  0  0  0  0  0  0  0  0  0  0
    4.6532   -0.3403   -2.2280 O   0  0  0  0  0  0  0  0  0  0  0  0
   -0.1205   -0.9432    2.7629 C   0  0  0  0  0  0  0  0  0  0  0  0
   -1.0174   -0.0522    2.1636 C   0  0  0  0  0  0  0  0  0  0  0  0
   -1.4167   -0.2877    0.8570 C   0  0  0  0  0  0  0  0  0  0  0  0
   -3.4731    2.2941   -1.6315 H   0  0  0  0  0  0  0  0  0  0  0  0
   -4.8598    3.6794    0.7838 H   0  0  0  0  0  0  0  0  0  0  0  0
   -4.2583    4.4348   -0.7121 H   0  0  0  0  0  0  0  0  0  0  0  0
   -5.9338    3.2054   -2.0963 H   0  0  0  0  0  0  0  0  0  0  0  0
   -6.8845    3.1960   -0.5881 H   0  0  0  0  0  0  0  0  0  0  0  0
   -5.7166    1.1319    0.2189 H   0  0  0  0  0  0  0  0  0  0  0  0
   -5.5031    0.8217   -1.5223 H   0  0  0  0  0  0  0  0  0  0  0  0
   -3.5141   -0.6522   -1.2530 H   0  0  0  0  0  0  0  0  0  0  0  0
   -2.3375    0.3970   -2.0683 H   0  0  0  0  0  0  0  0  0  0  0  0
   -1.9729   -2.3851   -1.4640 H   0  0  0  0  0  0  0  0  0  0  0  0
   -0.6843   -1.2484   -1.9661 H   0  0  0  0  0  0  0  0  0  0  0  0
    0.3322   -3.1386    0.1637 H   0  0  0  0  0  0  0  0  0  0  0  0
    3.1282   -1.7118    3.5455 H   0  0  0  0  0  0  0  0  0  0  0  0
    3.6615   -3.7436    0.5472 H   0  0  0  0  0  0  0  0  0  0  0  0
    4.3671   -2.8269   -1.6382 H   0  0  0  0  0  0  0  0  0  0  0  0
    3.2841    0.2676    2.0955 H   0  0  0  0  0  0  0  0  0  0  0  0
    3.0527    1.7929   -1.8694 H   0  0  0  0  0  0  0  0  0  0  0  0
    4.3499    2.9247   -1.4357 H   0  0  0  0  0  0  0  0  0  0  0  0
    5.1588    1.3845   -3.2138 H   0  0  0  0  0  0  0  0  0  0  0  0
    6.0583    1.0799   -1.7145 H   0  0  0  0  0  0  0  0  0  0  0  0
    0.1876   -0.7759    3.7930 H   0  0  0  0  0  0  0  0  0  0  0  0
   -1.3884    0.7938    2.7325 H   0  0  0  0  0  0  0  0  0  0  0  0
  1  2  2  0
  2  3  1  0
  3  4  1  0
  4  5  1  0
  5  6  1  0
  2  7  1  0
  7  8  1  0
  8  9  1  0
  9 10  1  0
 10 11  2  0
 11 12  1  0
 12 13  1  0
 13 14  2  0
 13 15  2  0
 13 16  1  0
 16 17  1  0
 17 18  2  0
 18 19  1  0
 19 20  2  0
 20 21  1  0
 21 22  2  0
 21 23  1  0
 23 24  1  0
 24 25  1  0
 25 26  1  0
 12 27  2  0
 27 28  1  0
 28 29  2  0
  6  3  1  0
 29  7  1  0
 29 10  1  0
 22 17  1  0
 26 20  1  0
  3 30  1  0
  4 31  1  0
  4 32  1  0
  5 33  1  0
  5 34  1  0
  6 35  1  0
  6 36  1  0
  8 37  1  0
  8 38  1  0
  9 39  1  0
  9 40  1  0
 11 41  1  0
 16 42  1  0
 18 43  1  0
 19 44  1  0
 22 45  1  0
 24 46  1  0
 24 47  1  0
 25 48  1  0
 25 49  1  0
 27 50  1  0
 28 51  1  0
M  END
$$$$
