
     RDKit          3D

 29 30  0  0  0  0  0  0  0  0999 V2000
    3.4779   -1.6069   -1.1700 C   0  0  0  0  0  0  0  0  0  0  0  0
    3.1335   -0.2407   -0.6050 C   0  0  0  0  0  0  0  0  0  0  0  0
    2.8354   -0.3772    0.8208 N   0  0  0  0  0  0  0  0  0  0  0  0
    2.0118    0.8726    1.5871 S   0  0  0  0  0  6  0  0  0  0  0  0
    2.3734    2.1113    0.9349 O   0  0  0  0  0  0  0  0  0  0  0  0
    2.2072    0.6714    3.0059 O   0  0  0  0  0  0  0  0  0  0  0  0
    0.3247    0.4808    1.2129 C   0  0  0  0  0  0  0  0  0  0  0  0
   -0.2861   -0.6010    1.8767 C   0  0  0  0  0  0  0  0  0  0  0  0
   -1.6223   -0.9124    1.6222 C   0  0  0  0  0  0  0  0  0  0  0  0
   -2.3042   -0.1369    0.6996 C   0  0  0  0  0  0  0  0  0  0  0  0
   -1.6916    0.9277    0.0340 C   0  0  0  0  0  0  0  0  0  0  0  0
   -0.3808    1.2701    0.2980 C   0  0  0  0  0  0  0  0  0  0  0  0
   -2.5839    1.6420   -0.7999 N   0  0  0  0  0  0  0  0  0  0  0  0
   -3.7111    0.7054   -0.9529 C   0  0  0  0  0  0  0  0  0  0  0  0
   -3.7339   -0.2117    0.2843 C   0  0  0  0  0  0  0  0  0  0  0  0
    4.3476   -2.0358   -0.6609 H   0  0  0  0  0  0  0  0  0  0  0  0
    2.6419   -2.3038   -1.0475 H   0  0  0  0  0  0  0  0  0  0  0  0
    3.7086   -1.5317   -2.2371 H   0  0  0  0  0  0  0  0  0  0  0  0
    2.2723    0.1641   -1.1453 H   0  0  0  0  0  0  0  0  0  0  0  0
    3.9848    0.4349   -0.7360 H   0  0  0  0  0  0  0  0  0  0  0  0
    3.5385   -0.7982    1.4269 H   0  0  0  0  0  0  0  0  0  0  0  0
    0.2763   -1.1864    2.6013 H   0  0  0  0  0  0  0  0  0  0  0  0
   -2.1118   -1.7285    2.1436 H   0  0  0  0  0  0  0  0  0  0  0  0
    0.0765    2.1288   -0.1819 H   0  0  0  0  0  0  0  0  0  0  0  0
   -2.1415    1.9313   -1.6683 H   0  0  0  0  0  0  0  0  0  0  0  0
   -4.6554    1.2473   -1.0674 H   0  0  0  0  0  0  0  0  0  0  0  0
   -3.5576    0.1079   -1.8614 H   0  0  0  0  0  0  0  0  0  0  0  0
   -4.0537   -1.2251    0.0276 H   0  0  0  0  0  0  0  0  0  0  0  0
   -4.3767    0.2007    1.0689 H   0  0  0  0  0  0  0  0  0  0  0  0
  1  2  1  0
  2  3  1  0
  3  4  1  0
  4  5  2  0
  4  6  2  0
  4  7  1  0
  7  8  2  0
  8  9  1  0
  9 10  2  0
 10 11  1  0
 11 12  2  0
 11 13  1  0
 13 14  1  0
 14 15  1  0
 12  7  1  0
 15 10  1  0
  1 16  1  0
  1 17  1  0
  1 18  1  0
  2 19  1  0
  2 20  1  0
  3 21  1  0
  8 22  1  0
  9 23  1  0
 12 24  1  0
 13 25  1  0
 14 26  1  0
 14 27  1  0
 15 28  1  0
 15 29  1  0
M  END
$$$$
