
     RDKit          3D

 44 46  0  0  0  0  0  0  0  0999 V2000
   -6.6361    2.7664   -1.4881 C   0  0  0  0  0  0  0  0  0  0  0  0
   -6.0159    1.4952   -1.6185 O   0  0  0  0  0  0  0  0  0  0  0  0
   -4.6813    1.4131   -1.3232 C   0  0  0  0  0  0  0  0  0  0  0  0
   -3.8952    2.4682   -0.8558 C   0  0  0  0  0  0  0  0  0  0  0  0
   -2.5318    2.2757   -0.5939 C   0  0  0  0  0  0  0  0  0  0  0  0
   -1.9340    1.0267   -0.7962 C   0  0  0  0  0  0  0  0  0  0  0  0
   -0.4999    0.8695   -0.5243 C   0  0  0  0  0  0  0  0  0  0  0  0
    0.0434    0.0229    0.3732 C   0  0  0  0  0  0  0  0  0  0  0  0
   -0.7402   -0.8423    1.1828 C   0  0  0  0  0  0  0  0  0  0  0  0
   -1.3173   -1.5642    1.8841 N   0  0  0  0  0  0  0  0  0  0  0  0
    1.5441    0.0370    0.5162 C   0  0  0  0  0  0  0  0  0  0  0  0
    2.2142    0.8225   -0.1496 O   0  0  0  0  0  0  0  0  0  0  0  0
    2.0534   -0.8312    1.4695 N   0  0  0  0  0  0  0  0  0  0  0  0
    3.4243   -0.9832    1.8153 C   0  0  0  0  0  0  0  0  0  0  0  0
    3.6615   -1.1810    3.1844 C   0  0  0  0  0  0  0  0  0  0  0  0
    4.9588   -1.2772    3.6689 C   0  0  0  0  0  0  0  0  0  0  0  0
    6.0288   -1.2000    2.7821 C   0  0  0  0  0  0  0  0  0  0  0  0
    5.8403   -1.0688    1.4158 C   0  0  0  0  0  0  0  0  0  0  0  0
    6.9442   -1.0623    0.6480 N   0  0  0  0  0  0  0  0  0  0  0  0
    6.7921   -1.0050   -0.6898 C   0  0  0  0  0  0  0  0  0  0  0  0
    5.5663   -0.9765   -1.3140 C   0  0  0  0  0  0  0  0  0  0  0  0
    4.4294   -0.9794   -0.5114 C   0  0  0  0  0  0  0  0  0  0  0  0
    4.5227   -0.9842    0.9005 C   0  0  0  0  0  0  0  0  0  0  0  0
   -2.7109   -0.0284   -1.2796 C   0  0  0  0  0  0  0  0  0  0  0  0
   -4.0757    0.1615   -1.5134 C   0  0  0  0  0  0  0  0  0  0  0  0
   -4.7860   -0.9082   -2.0025 O   0  0  0  0  0  0  0  0  0  0  0  0
   -5.4681   -1.5663   -0.9325 C   0  0  0  0  0  0  0  0  0  0  0  0
   -6.1709    3.5037   -2.1502 H   0  0  0  0  0  0  0  0  0  0  0  0
   -7.6821    2.6612   -1.7918 H   0  0  0  0  0  0  0  0  0  0  0  0
   -6.6234    3.1042   -0.4464 H   0  0  0  0  0  0  0  0  0  0  0  0
   -4.3085    3.4577   -0.6856 H   0  0  0  0  0  0  0  0  0  0  0  0
   -1.9431    3.1169   -0.2304 H   0  0  0  0  0  0  0  0  0  0  0  0
    0.1355    1.5380   -1.1054 H   0  0  0  0  0  0  0  0  0  0  0  0
    1.4086   -1.1748    2.1741 H   0  0  0  0  0  0  0  0  0  0  0  0
    2.8411   -1.2180    3.8980 H   0  0  0  0  0  0  0  0  0  0  0  0
    5.1425   -1.4015    4.7328 H   0  0  0  0  0  0  0  0  0  0  0  0
    7.0449   -1.2692    3.1656 H   0  0  0  0  0  0  0  0  0  0  0  0
    7.7153   -0.9960   -1.2622 H   0  0  0  0  0  0  0  0  0  0  0  0
    5.4885   -0.9541   -2.3947 H   0  0  0  0  0  0  0  0  0  0  0  0
    3.4651   -0.9917   -1.0080 H   0  0  0  0  0  0  0  0  0  0  0  0
   -2.2755   -1.0031   -1.4836 H   0  0  0  0  0  0  0  0  0  0  0  0
   -4.7530   -1.9966   -0.2210 H   0  0  0  0  0  0  0  0  0  0  0  0
   -6.1598   -0.8929   -0.4097 H   0  0  0  0  0  0  0  0  0  0  0  0
   -6.0565   -2.3842   -1.3610 H   0  0  0  0  0  0  0  0  0  0  0  0
  1  2  1  0
  2  3  1  0
  3  4  2  0
  4  5  1  0
  5  6  2  0
  6  7  1  0
  7  8  2  3
  8  9  1  0
  9 10  3  0
  8 11  1  0
 11 12  2  0
 11 13  1  0
 13 14  1  0
 14 15  2  0
 15 16  1  0
 16 17  2  0
 17 18  1  0
 18 19  2  0
 19 20  1  0
 20 21  2  0
 21 22  1  0
 22 23  2  0
  6 24  1  0
 24 25  2  0
 25 26  1  0
 26 27  1  0
 25  3  1  0
 23 14  1  0
 23 18  1  0
  1 28  1  0
  1 29  1  0
  1 30  1  0
  4 31  1  0
  5 32  1  0
  7 33  1  0
 13 34  1  0
 15 35  1  0
 16 36  1  0
 17 37  1  0
 20 38  1  0
 21 39  1  0
 22 40  1  0
 24 41  1  0
 27 42  1  0
 27 43  1  0
 27 44  1  0
M  END
$$$$
