
     RDKit          3D

 45 44  0  0  0  0  0  0  0  0999 V2000
    6.7121   -3.9975    0.0436 C   0  0  0  0  0  0  0  0  0  0  0  0
    5.3176   -4.3437    0.5421 C   0  0  0  0  0  0  0  0  0  0  0  0
    4.2260   -3.4309   -0.0182 C   0  0  0  0  0  0  0  0  0  0  0  0
    4.3556   -1.9802    0.4430 C   0  0  0  0  0  0  0  0  0  0  0  0
    3.2621   -1.1714   -0.0442 N   0  0  0  0  0  0  0  0  0  0  0  0
    2.0599   -1.0963    0.5883 C   0  0  0  0  0  0  0  0  0  0  0  0
    1.7802   -1.6244    1.6529 O   0  0  0  0  0  0  0  0  0  0  0  0
    1.2163   -0.3440   -0.1582 O   0  0  0  0  0  0  0  0  0  0  0  0
   -0.0930   -0.1988    0.4070 C   0  0  0  0  0  0  0  0  0  0  0  0
   -0.9340    0.7504   -0.4617 C   0  0  0  0  0  0  0  0  0  0  0  0
   -0.2825    2.1328   -0.6722 C   0  0  0  0  0  0  0  0  0  0  0  0
   -0.0258    2.9121    0.6112 C   0  0  0  0  0  0  0  0  0  0  0  0
   -2.2837    0.8804    0.0706 N   0  0  0  0  0  0  0  0  0  0  0  0
   -3.3567    1.1834   -0.7109 C   0  0  0  0  0  0  0  0  0  0  0  0
   -3.3519    1.2429   -1.9299 O   0  0  0  0  0  0  0  0  0  0  0  0
   -4.4232    1.4222    0.0891 O   0  0  0  0  0  0  0  0  0  0  0  0
   -5.6495    1.7689   -0.5805 C   0  0  0  0  0  0  0  0  0  0  0  0
   -6.7928    1.3990    0.3567 C   0  0  0  0  0  0  0  0  0  0  0  0
   -5.6618    3.2634   -0.8819 C   0  0  0  0  0  0  0  0  0  0  0  0
    6.7482   -3.9912   -1.0504 H   0  0  0  0  0  0  0  0  0  0  0  0
    7.0364   -3.0180    0.4069 H   0  0  0  0  0  0  0  0  0  0  0  0
    7.4336   -4.7388    0.4020 H   0  0  0  0  0  0  0  0  0  0  0  0
    5.3037   -4.3127    1.6378 H   0  0  0  0  0  0  0  0  0  0  0  0
    5.0902   -5.3763    0.2515 H   0  0  0  0  0  0  0  0  0  0  0  0
    3.2516   -3.8263    0.2956 H   0  0  0  0  0  0  0  0  0  0  0  0
    4.2337   -3.4720   -1.1147 H   0  0  0  0  0  0  0  0  0  0  0  0
    4.3741   -1.9289    1.5373 H   0  0  0  0  0  0  0  0  0  0  0  0
    5.2750   -1.5268    0.0608 H   0  0  0  0  0  0  0  0  0  0  0  0
    3.3082   -0.7488   -0.9606 H   0  0  0  0  0  0  0  0  0  0  0  0
   -0.0222    0.1820    1.4333 H   0  0  0  0  0  0  0  0  0  0  0  0
   -0.5773   -1.1831    0.4413 H   0  0  0  0  0  0  0  0  0  0  0  0
   -1.0172    0.2982   -1.4592 H   0  0  0  0  0  0  0  0  0  0  0  0
    0.6683    2.0124   -1.2051 H   0  0  0  0  0  0  0  0  0  0  0  0
   -0.9243    2.7412   -1.3217 H   0  0  0  0  0  0  0  0  0  0  0  0
    0.3845    3.8987    0.3719 H   0  0  0  0  0  0  0  0  0  0  0  0
    0.6985    2.4015    1.2524 H   0  0  0  0  0  0  0  0  0  0  0  0
   -0.9484    3.0631    1.1796 H   0  0  0  0  0  0  0  0  0  0  0  0
   -2.4311    1.0187    1.0613 H   0  0  0  0  0  0  0  0  0  0  0  0
   -5.7596    1.1907   -1.5062 H   0  0  0  0  0  0  0  0  0  0  0  0
   -6.7050    1.9269    1.3128 H   0  0  0  0  0  0  0  0  0  0  0  0
   -6.7655    0.3281    0.5856 H   0  0  0  0  0  0  0  0  0  0  0  0
   -7.7644    1.6357   -0.0876 H   0  0  0  0  0  0  0  0  0  0  0  0
   -5.5177    3.8483    0.0333 H   0  0  0  0  0  0  0  0  0  0  0  0
   -6.6049    3.5658   -1.3474 H   0  0  0  0  0  0  0  0  0  0  0  0
   -4.8432    3.5325   -1.5573 H   0  0  0  0  0  0  0  0  0  0  0  0
  1  2  1  0
  2  3  1  0
  3  4  1  0
  4  5  1  0
  5  6  1  0
  6  7  2  0
  6  8  1  0
  8  9  1  0
  9 10  1  0
 10 11  1  0
 11 12  1  0
 10 13  1  0
 13 14  1  0
 14 15  2  0
 14 16  1  0
 16 17  1  0
 17 18  1  0
 17 19  1  0
  1 20  1  0
  1 21  1  0
  1 22  1  0
  2 23  1  0
  2 24  1  0
  3 25  1  0
  3 26  1  0
  4 27  1  0
  4 28  1  0
  5 29  1  0
  9 30  1  0
  9 31  1  0
 10 32  1  0
 11 33  1  0
 11 34  1  0
 12 35  1  0
 12 36  1  0
 12 37  1  0
 13 38  1  0
 17 39  1  0
 18 40  1  0
 18 41  1  0
 18 42  1  0
 19 43  1  0
 19 44  1  0
 19 45  1  0
M  END
$$$$
