
     RDKit          3D

 42 43  0  0  0  0  0  0  0  0999 V2000
   -5.4472    2.0054   -1.0796 C   0  0  0  0  0  0  0  0  0  0  0  0
   -4.3351    1.2494   -0.4265 C   0  0  0  0  0  0  0  0  0  0  0  0
   -4.1097   -0.0818   -0.4232 C   0  0  0  0  0  0  0  0  0  0  0  0
   -5.0226   -1.0908   -1.0717 C   0  0  0  0  0  0  0  0  0  0  0  0
   -2.9139   -0.7298    0.2697 C   0  0  0  0  0  0  0  0  0  0  0  0
   -1.8295    0.1775    0.6685 N   0  0  0  0  0  0  0  0  0  0  0  0
   -1.0112    0.6172   -0.4858 C   0  0  0  0  0  0  0  0  0  0  0  0
    0.3217   -0.1391   -0.7027 C   0  0  0  0  0  0  0  0  0  0  0  0
    1.1583   -0.1116    0.5085 N   0  0  0  0  0  0  0  0  0  0  0  0
    2.5402   -0.1574    0.4327 C   0  0  0  0  0  0  0  0  0  0  0  0
    3.2014   -0.7000   -0.6807 C   0  0  0  0  0  0  0  0  0  0  0  0
    4.5997   -0.7549   -0.7660 C   0  0  0  0  0  0  0  0  0  0  0  0
    5.3921   -0.2546    0.2662 C   0  0  0  0  0  0  0  0  0  0  0  0
    6.8864   -0.3399    0.1959 C   0  0  0  0  0  0  0  0  0  0  0  0
    4.7599    0.2735    1.3912 C   0  0  0  0  0  0  0  0  0  0  0  0
    3.3605    0.3214    1.4658 C   0  0  0  0  0  0  0  0  0  0  0  0
    0.4544    0.1052    1.7818 C   0  0  0  0  0  0  0  0  0  0  0  0
   -0.9830   -0.4573    1.7032 C   0  0  0  0  0  0  0  0  0  0  0  0
   -6.0595    1.3987   -1.7489 H   0  0  0  0  0  0  0  0  0  0  0  0
   -6.0978    2.4420   -0.3158 H   0  0  0  0  0  0  0  0  0  0  0  0
   -5.0290    2.8227   -1.6763 H   0  0  0  0  0  0  0  0  0  0  0  0
   -3.6348    1.8910    0.1086 H   0  0  0  0  0  0  0  0  0  0  0  0
   -5.2914   -1.8711   -0.3512 H   0  0  0  0  0  0  0  0  0  0  0  0
   -5.9593   -0.6651   -1.4365 H   0  0  0  0  0  0  0  0  0  0  0  0
   -4.5163   -1.5645   -1.9191 H   0  0  0  0  0  0  0  0  0  0  0  0
   -3.3200   -1.2211    1.1651 H   0  0  0  0  0  0  0  0  0  0  0  0
   -2.5095   -1.5264   -0.3695 H   0  0  0  0  0  0  0  0  0  0  0  0
   -1.5850    0.6018   -1.4203 H   0  0  0  0  0  0  0  0  0  0  0  0
   -0.7695    1.6742   -0.3106 H   0  0  0  0  0  0  0  0  0  0  0  0
    0.1184   -1.1802   -0.9804 H   0  0  0  0  0  0  0  0  0  0  0  0
    0.8342    0.3444   -1.5433 H   0  0  0  0  0  0  0  0  0  0  0  0
    2.6338   -1.1216   -1.5054 H   0  0  0  0  0  0  0  0  0  0  0  0
    5.0582   -1.1974   -1.6471 H   0  0  0  0  0  0  0  0  0  0  0  0
    7.2280   -1.2879    0.6227 H   0  0  0  0  0  0  0  0  0  0  0  0
    7.3512    0.4843    0.7472 H   0  0  0  0  0  0  0  0  0  0  0  0
    7.2333   -0.2730   -0.8407 H   0  0  0  0  0  0  0  0  0  0  0  0
    5.3462    0.6592    2.2218 H   0  0  0  0  0  0  0  0  0  0  0  0
    2.9247    0.7675    2.3550 H   0  0  0  0  0  0  0  0  0  0  0  0
    0.4311    1.1757    2.0194 H   0  0  0  0  0  0  0  0  0  0  0  0
    0.9643   -0.4169    2.6005 H   0  0  0  0  0  0  0  0  0  0  0  0
   -1.4698   -0.3307    2.6771 H   0  0  0  0  0  0  0  0  0  0  0  0
   -0.9038   -1.5382    1.5189 H   0  0  0  0  0  0  0  0  0  0  0  0
  1  2  1  0
  2  3  2  3
  3  4  1  0
  3  5  1  0
  5  6  1  0
  6  7  1  0
  7  8  1  0
  8  9  1  0
  9 10  1  0
 10 11  2  0
 11 12  1  0
 12 13  2  0
 13 14  1  0
 13 15  1  0
 15 16  2  0
  9 17  1  0
 17 18  1  0
 18  6  1  0
 16 10  1  0
  1 19  1  0
  1 20  1  0
  1 21  1  0
  2 22  1  0
  4 23  1  0
  4 24  1  0
  4 25  1  0
  5 26  1  0
  5 27  1  0
  7 28  1  0
  7 29  1  0
  8 30  1  0
  8 31  1  0
 11 32  1  0
 12 33  1  0
 14 34  1  0
 14 35  1  0
 14 36  1  0
 15 37  1  0
 16 38  1  0
 17 39  1  0
 17 40  1  0
 18 41  1  0
 18 42  1  0
M  END
$$$$
