
     RDKit          3D

 31 32  0  0  0  0  0  0  0  0999 V2000
    3.8796   -1.6084   -1.5437 O   0  0  0  0  0  0  0  0  0  0  0  0
    4.3965   -0.6792   -0.9244 C   0  0  0  0  0  0  0  0  0  0  0  0
    3.7278    0.2066   -0.0863 N   0  0  0  0  0  0  0  0  0  0  0  0
    2.3554    0.2329    0.2290 C   0  0  0  0  0  0  0  0  0  0  0  0
    1.9205    1.2353    1.1013 C   0  0  0  0  0  0  0  0  0  0  0  0
    0.5716    1.3307    1.4650 C   0  0  0  0  0  0  0  0  0  0  0  0
   -0.3761    0.4265    0.9721 C   0  0  0  0  0  0  0  0  0  0  0  0
   -1.7238    0.5882    1.3320 N   0  0  0  0  0  0  0  0  0  0  0  0
   -2.9203    0.2204    0.6917 C   0  0  0  0  0  0  0  0  0  0  0  0
   -3.0214    0.0441   -0.6928 C   0  0  0  0  0  0  0  0  0  0  0  0
   -4.2235   -0.3583   -1.2832 C   0  0  0  0  0  0  0  0  0  0  0  0
   -5.3435   -0.5991   -0.4923 C   0  0  0  0  0  0  0  0  0  0  0  0
   -5.2614   -0.4360    0.8874 C   0  0  0  0  0  0  0  0  0  0  0  0
   -4.0580   -0.0317    1.4727 C   0  0  0  0  0  0  0  0  0  0  0  0
    0.0679   -0.5669    0.0961 C   0  0  0  0  0  0  0  0  0  0  0  0
    1.4182   -0.6685   -0.2697 C   0  0  0  0  0  0  0  0  0  0  0  0
    5.8989   -0.4179   -1.0402 C   0  0  0  0  0  0  0  0  0  0  0  0
    6.1686    1.2120   -1.6980 Cl  0  0  0  0  0  0  0  0  0  0  0  0
    6.6521   -0.5655    0.5638 Cl  0  0  0  0  0  0  0  0  0  0  0  0
    4.2986    0.9239    0.3499 H   0  0  0  0  0  0  0  0  0  0  0  0
    2.6175    1.9626    1.5094 H   0  0  0  0  0  0  0  0  0  0  0  0
    0.2647    2.1328    2.1317 H   0  0  0  0  0  0  0  0  0  0  0  0
   -1.8614    1.0385    2.2292 H   0  0  0  0  0  0  0  0  0  0  0  0
   -2.1709    0.2505   -1.3367 H   0  0  0  0  0  0  0  0  0  0  0  0
   -4.2816   -0.4791   -2.3617 H   0  0  0  0  0  0  0  0  0  0  0  0
   -6.2773   -0.9134   -0.9507 H   0  0  0  0  0  0  0  0  0  0  0  0
   -6.1305   -0.6279    1.5108 H   0  0  0  0  0  0  0  0  0  0  0  0
   -4.0126    0.0732    2.5537 H   0  0  0  0  0  0  0  0  0  0  0  0
   -0.6272   -1.3060   -0.2942 H   0  0  0  0  0  0  0  0  0  0  0  0
    1.6947   -1.4717   -0.9450 H   0  0  0  0  0  0  0  0  0  0  0  0
    6.3571   -1.1486   -1.7124 H   0  0  0  0  0  0  0  0  0  0  0  0
  1  2  2  0
  2  3  1  0
  3  4  1  0
  4  5  2  0
  5  6  1  0
  6  7  2  0
  7  8  1  0
  8  9  1  0
  9 10  2  0
 10 11  1  0
 11 12  2  0
 12 13  1  0
 13 14  2  0
  7 15  1  0
 15 16  2  0
  2 17  1  0
 17 18  1  0
 17 19  1  0
 16  4  1  0
 14  9  1  0
  3 20  1  0
  5 21  1  0
  6 22  1  0
  8 23  1  0
 10 24  1  0
 11 25  1  0
 12 26  1  0
 13 27  1  0
 14 28  1  0
 15 29  1  0
 16 30  1  0
 17 31  1  0
M  END
$$$$
