
     RDKit          3D

 43 45  0  0  0  0  0  0  0  0999 V2000
    5.7736    3.8852    0.2159 C   0  0  0  0  0  0  0  0  0  0  0  0
    4.7876    3.4692    1.1523 O   0  0  0  0  0  0  0  0  0  0  0  0
    3.7666    2.6854    0.6897 C   0  0  0  0  0  0  0  0  0  0  0  0
    3.6856    2.1545   -0.5974 C   0  0  0  0  0  0  0  0  0  0  0  0
    2.5685    1.4002   -0.9864 C   0  0  0  0  0  0  0  0  0  0  0  0
    1.5053    1.1615   -0.1041 C   0  0  0  0  0  0  0  0  0  0  0  0
    0.3548    0.3763   -0.5905 C   0  0  0  0  0  0  0  0  0  0  0  0
   -0.8039    0.1917    0.0662 C   0  0  0  0  0  0  0  0  0  0  0  0
   -1.9027   -0.5952   -0.5059 C   0  0  0  0  0  0  0  0  0  0  0  0
   -2.5839   -0.0732   -1.6083 C   0  0  0  0  0  0  0  0  0  0  0  0
   -3.6411   -0.7689   -2.1650 C   0  0  0  0  0  0  0  0  0  0  0  0
   -4.0234   -1.9859   -1.6118 C   0  0  0  0  0  0  0  0  0  0  0  0
   -5.0972   -2.6981   -2.1663 C   0  0  0  0  0  0  0  0  0  0  0  0
   -5.4958   -3.9176   -1.6241 C   0  0  0  0  0  0  0  0  0  0  0  0
   -4.8277   -4.4375   -0.5234 C   0  0  0  0  0  0  0  0  0  0  0  0
   -3.7547   -3.7397    0.0397 C   0  0  0  0  0  0  0  0  0  0  0  0
   -3.3250   -2.5043   -0.4870 C   0  0  0  0  0  0  0  0  0  0  0  0
   -2.2713   -1.7925    0.0363 N   0  0  0  0  0  4  0  0  0  0  0  0
   -1.5171   -2.3595    1.1812 C   0  0  0  0  0  0  0  0  0  0  0  0
    1.6016    1.6758    1.1928 C   0  0  0  0  0  0  0  0  0  0  0  0
    2.7269    2.4095    1.5884 C   0  0  0  0  0  0  0  0  0  0  0  0
    2.7040    2.9235    2.8615 O   0  0  0  0  0  0  0  0  0  0  0  0
    3.6177    2.2379    3.7148 C   0  0  0  0  0  0  0  0  0  0  0  0
    6.3542    3.0303   -0.1445 H   0  0  0  0  0  0  0  0  0  0  0  0
    6.4627    4.5607    0.7322 H   0  0  0  0  0  0  0  0  0  0  0  0
    5.3246    4.4388   -0.6152 H   0  0  0  0  0  0  0  0  0  0  0  0
    4.4702    2.3146   -1.3301 H   0  0  0  0  0  0  0  0  0  0  0  0
    2.5424    1.0188   -2.0052 H   0  0  0  0  0  0  0  0  0  0  0  0
    0.4939   -0.0685   -1.5768 H   0  0  0  0  0  0  0  0  0  0  0  0
   -0.9996    0.6255    1.0424 H   0  0  0  0  0  0  0  0  0  0  0  0
   -2.2953    0.8880   -2.0353 H   0  0  0  0  0  0  0  0  0  0  0  0
   -4.1624   -0.3500   -3.0261 H   0  0  0  0  0  0  0  0  0  0  0  0
   -5.6391   -2.3117   -3.0301 H   0  0  0  0  0  0  0  0  0  0  0  0
   -6.3309   -4.4618   -2.0630 H   0  0  0  0  0  0  0  0  0  0  0  0
   -5.1443   -5.3911   -0.1022 H   0  0  0  0  0  0  0  0  0  0  0  0
   -3.2792   -4.2015    0.8997 H   0  0  0  0  0  0  0  0  0  0  0  0
   -2.2059   -2.4491    2.0248 H   0  0  0  0  0  0  0  0  0  0  0  0
   -1.1257   -3.3342    0.8759 H   0  0  0  0  0  0  0  0  0  0  0  0
   -0.6745   -1.7376    1.4802 H   0  0  0  0  0  0  0  0  0  0  0  0
    0.8178    1.5323    1.9277 H   0  0  0  0  0  0  0  0  0  0  0  0
    3.2686    1.2165    3.8955 H   0  0  0  0  0  0  0  0  0  0  0  0
    4.6380    2.2185    3.3211 H   0  0  0  0  0  0  0  0  0  0  0  0
    3.6359    2.7633    4.6741 H   0  0  0  0  0  0  0  0  0  0  0  0
  1  2  1  0
  2  3  1  0
  3  4  2  0
  4  5  1  0
  5  6  2  0
  6  7  1  0
  7  8  2  3
  8  9  1  0
  9 10  2  0
 10 11  1  0
 11 12  2  0
 12 13  1  0
 13 14  2  0
 14 15  1  0
 15 16  2  0
 16 17  1  0
 17 18  2  0
 18 19  1  0
  6 20  1  0
 20 21  2  0
 21 22  1  0
 22 23  1  0
 21  3  1  0
 18  9  1  0
 17 12  1  0
  1 24  1  0
  1 25  1  0
  1 26  1  0
  4 27  1  0
  5 28  1  0
  7 29  1  0
  8 30  1  0
 10 31  1  0
 11 32  1  0
 13 33  1  0
 14 34  1  0
 15 35  1  0
 16 36  1  0
 19 37  1  0
 19 38  1  0
 19 39  1  0
 20 40  1  0
 23 41  1  0
 23 42  1  0
 23 43  1  0
M  CHG  1  18   1
M  END
$$$$
