
     RDKit          3D

 43 46  0  0  0  0  0  0  0  0999 V2000
    1.0121   -2.3908    2.4556 O   0  0  0  0  0  0  0  0  0  0  0  0
    1.9000   -1.5587    2.2631 C   0  0  0  0  0  0  0  0  0  0  0  0
    2.6291   -1.5166    0.9376 C   0  0  0  0  0  0  0  0  0  0  0  0
    2.3750    0.0176    0.0059 S   0  0  0  0  0  0  0  0  0  0  0  0
    0.6786    0.2676    0.2105 C   0  0  0  0  0  0  0  0  0  0  0  0
    0.1384    0.8528    1.2495 N   0  0  0  0  0  0  0  0  0  0  0  0
   -1.2207    0.8337    1.0731 N   0  0  0  0  0  0  0  0  0  0  0  0
   -1.4876    0.2708   -0.0919 C   0  0  0  0  0  0  0  0  0  0  0  0
   -2.8230    0.0432   -0.6216 C   0  0  0  0  0  0  0  0  0  0  0  0
   -3.2367    0.5439   -1.8577 C   0  0  0  0  0  0  0  0  0  0  0  0
   -4.5307    0.2900   -2.3081 C   0  0  0  0  0  0  0  0  0  0  0  0
   -5.3755   -0.4541   -1.5003 C   0  0  0  0  0  0  0  0  0  0  0  0
   -5.0182   -0.9443   -0.2950 N   0  0  0  0  0  0  0  0  0  0  0  0
   -3.7575   -0.6714    0.1226 C   0  0  0  0  0  0  0  0  0  0  0  0
   -0.2933   -0.1089   -0.6751 N   0  0  0  0  0  0  0  0  0  0  0  0
   -0.1274   -0.8702   -1.8978 C   0  0  0  0  0  0  0  0  0  0  0  0
    0.0250    0.0151   -3.0803 C   0  0  0  0  0  0  0  0  0  0  0  0
    0.7839    1.1338   -3.3634 C   0  0  0  0  0  0  0  0  0  0  0  0
    0.4755    1.5038   -4.6943 C   0  0  0  0  0  0  0  0  0  0  0  0
   -0.4454    0.5881   -5.1426 C   0  0  0  0  0  0  0  0  0  0  0  0
   -0.7247   -0.3171   -4.1710 O   0  0  0  0  0  0  0  0  0  0  0  0
    2.2653   -0.6165    3.3638 C   0  0  0  0  0  0  0  0  0  0  0  0
    1.3378   -0.4175    4.3956 C   0  0  0  0  0  0  0  0  0  0  0  0
    1.6244    0.4547    5.4488 C   0  0  0  0  0  0  0  0  0  0  0  0
    2.8433    1.1339    5.4823 C   0  0  0  0  0  0  0  0  0  0  0  0
    3.1401    2.1937    6.8132 Cl  0  0  0  0  0  0  0  0  0  0  0  0
    3.7751    0.9354    4.4566 C   0  0  0  0  0  0  0  0  0  0  0  0
    5.3086    1.7349    4.4342 Cl  0  0  0  0  0  0  0  0  0  0  0  0
    3.4888    0.0605    3.4003 C   0  0  0  0  0  0  0  0  0  0  0  0
    3.6973   -1.6968    1.0928 H   0  0  0  0  0  0  0  0  0  0  0  0
    2.2618   -2.3475    0.3238 H   0  0  0  0  0  0  0  0  0  0  0  0
   -2.5726    1.1486   -2.4695 H   0  0  0  0  0  0  0  0  0  0  0  0
   -4.8737    0.6712   -3.2638 H   0  0  0  0  0  0  0  0  0  0  0  0
   -6.3945   -0.6750   -1.8067 H   0  0  0  0  0  0  0  0  0  0  0  0
   -3.5104   -1.0632    1.1073 H   0  0  0  0  0  0  0  0  0  0  0  0
    0.7454   -1.5219   -1.7948 H   0  0  0  0  0  0  0  0  0  0  0  0
   -0.9938   -1.5317   -2.0055 H   0  0  0  0  0  0  0  0  0  0  0  0
    1.4753    1.6307   -2.6957 H   0  0  0  0  0  0  0  0  0  0  0  0
    0.8772    2.3343   -5.2587 H   0  0  0  0  0  0  0  0  0  0  0  0
   -0.9703    0.4496   -6.0775 H   0  0  0  0  0  0  0  0  0  0  0  0
    0.3759   -0.9293    4.3752 H   0  0  0  0  0  0  0  0  0  0  0  0
    0.8873    0.6015    6.2357 H   0  0  0  0  0  0  0  0  0  0  0  0
    4.2347   -0.0779    2.6242 H   0  0  0  0  0  0  0  0  0  0  0  0
  1  2  2  0
  2  3  1  0
  3  4  1  0
  4  5  1  0
  5  6  2  0
  6  7  1  0
  7  8  2  0
  8  9  1  0
  9 10  2  0
 10 11  1  0
 11 12  2  0
 12 13  1  0
 13 14  2  0
  8 15  1  0
 15 16  1  0
 16 17  1  0
 17 18  2  0
 18 19  1  0
 19 20  2  0
 20 21  1  0
  2 22  1  0
 22 23  2  0
 23 24  1  0
 24 25  2  0
 25 26  1  0
 25 27  1  0
 27 28  1  0
 27 29  2  0
 15  5  1  0
 21 17  1  0
 29 22  1  0
 14  9  1  0
  3 30  1  0
  3 31  1  0
 10 32  1  0
 11 33  1  0
 12 34  1  0
 14 35  1  0
 16 36  1  0
 16 37  1  0
 18 38  1  0
 19 39  1  0
 20 40  1  0
 23 41  1  0
 24 42  1  0
 29 43  1  0
M  END
$$$$
