
     RDKit          3D

 46 49  0  0  0  0  0  0  0  0999 V2000
   -5.2190    3.0577    2.1762 C   0  0  0  0  0  0  0  0  0  0  0  0
   -5.3831    2.0483    1.1878 O   0  0  0  0  0  0  0  0  0  0  0  0
   -4.3514    1.1653    1.0291 C   0  0  0  0  0  0  0  0  0  0  0  0
   -4.5498    0.2102    0.0302 C   0  0  0  0  0  0  0  0  0  0  0  0
   -3.5758   -0.7552   -0.2417 C   0  0  0  0  0  0  0  0  0  0  0  0
   -2.3822   -0.7700    0.4885 C   0  0  0  0  0  0  0  0  0  0  0  0
   -1.3906   -1.7558    0.2100 N   0  0  0  0  0  0  0  0  0  0  0  0
   -0.0090   -1.6037    0.1420 C   0  0  0  0  0  0  0  0  0  0  0  0
    0.8250   -0.0770    0.2149 S   0  0  0  0  0  0  0  0  0  0  0  0
    2.5477   -0.6489    0.2358 C   0  0  0  0  0  0  0  0  0  0  0  0
    3.4725    0.5536    0.2759 C   0  0  0  0  0  0  0  0  0  0  0  0
    4.0364    0.8947    1.3126 O   0  0  0  0  0  0  0  0  0  0  0  0
    3.6445    1.1502   -0.9585 N   0  0  0  0  0  0  0  0  0  0  0  0
    4.4399    2.2765   -1.1991 C   0  0  0  0  0  0  0  0  0  0  0  0
    5.1444    2.1640   -2.3533 N   0  0  0  0  0  0  0  0  0  0  0  0
    5.9826    3.1804   -2.6731 C   0  0  0  0  0  0  0  0  0  0  0  0
    6.1288    4.3263   -1.9102 C   0  0  0  0  0  0  0  0  0  0  0  0
    7.2059    5.5723   -2.3898 Cl  0  0  0  0  0  0  0  0  0  0  0  0
    5.3574    4.4586   -0.7639 C   0  0  0  0  0  0  0  0  0  0  0  0
    4.4838    3.4291   -0.4009 C   0  0  0  0  0  0  0  0  0  0  0  0
    3.3951    3.7573    0.9001 Cl  0  0  0  0  0  0  0  0  0  0  0  0
    0.6121   -2.7254   -0.1421 N   0  0  0  0  0  0  0  0  0  0  0  0
   -0.3747   -3.6605   -0.2682 C   0  0  0  0  0  0  0  0  0  0  0  0
   -0.2523   -5.0287   -0.5593 C   0  0  0  0  0  0  0  0  0  0  0  0
   -1.4044   -5.8188   -0.6097 C   0  0  0  0  0  0  0  0  0  0  0  0
   -2.6558   -5.2603   -0.3611 C   0  0  0  0  0  0  0  0  0  0  0  0
   -2.7966   -3.8983   -0.0697 C   0  0  0  0  0  0  0  0  0  0  0  0
   -1.6351   -3.1047   -0.0559 C   0  0  0  0  0  0  0  0  0  0  0  0
   -2.1823    0.1841    1.4931 C   0  0  0  0  0  0  0  0  0  0  0  0
   -3.1646    1.1470    1.7608 C   0  0  0  0  0  0  0  0  0  0  0  0
   -5.1253    2.6201    3.1756 H   0  0  0  0  0  0  0  0  0  0  0  0
   -4.3645    3.7021    1.9446 H   0  0  0  0  0  0  0  0  0  0  0  0
   -6.1182    3.6816    2.1685 H   0  0  0  0  0  0  0  0  0  0  0  0
   -5.4692    0.2252   -0.5514 H   0  0  0  0  0  0  0  0  0  0  0  0
   -3.7547   -1.4510   -1.0576 H   0  0  0  0  0  0  0  0  0  0  0  0
    2.7721   -1.2496   -0.6518 H   0  0  0  0  0  0  0  0  0  0  0  0
    2.7330   -1.2630    1.1232 H   0  0  0  0  0  0  0  0  0  0  0  0
    3.5872    0.5425   -1.7657 H   0  0  0  0  0  0  0  0  0  0  0  0
    6.5463    3.0389   -3.5916 H   0  0  0  0  0  0  0  0  0  0  0  0
    5.4113    5.3668   -0.1702 H   0  0  0  0  0  0  0  0  0  0  0  0
    0.7276   -5.4607   -0.7321 H   0  0  0  0  0  0  0  0  0  0  0  0
   -1.3185   -6.8802   -0.8306 H   0  0  0  0  0  0  0  0  0  0  0  0
   -3.5397   -5.8951   -0.3832 H   0  0  0  0  0  0  0  0  0  0  0  0
   -3.7769   -3.4910    0.1551 H   0  0  0  0  0  0  0  0  0  0  0  0
   -1.2895    0.1810    2.1142 H   0  0  0  0  0  0  0  0  0  0  0  0
   -2.9702    1.8638    2.5523 H   0  0  0  0  0  0  0  0  0  0  0  0
  1  2  1  0
  2  3  1  0
  3  4  2  0
  4  5  1  0
  5  6  2  0
  6  7  1  0
  7  8  1  0
  8  9  1  0
  9 10  1  0
 10 11  1  0
 11 12  2  0
 11 13  1  0
 13 14  1  0
 14 15  2  0
 15 16  1  0
 16 17  2  0
 17 18  1  0
 17 19  1  0
 19 20  2  0
 20 21  1  0
  8 22  2  0
 22 23  1  0
 23 24  2  0
 24 25  1  0
 25 26  2  0
 26 27  1  0
 27 28  2  0
  6 29  1  0
 29 30  2  0
 30  3  1  0
 28  7  1  0
 20 14  1  0
 28 23  1  0
  1 31  1  0
  1 32  1  0
  1 33  1  0
  4 34  1  0
  5 35  1  0
 10 36  1  0
 10 37  1  0
 13 38  1  0
 16 39  1  0
 19 40  1  0
 24 41  1  0
 25 42  1  0
 26 43  1  0
 27 44  1  0
 29 45  1  0
 30 46  1  0
M  END
$$$$
