
     RDKit          3D

 40 42  0  0  0  0  0  0  0  0999 V2000
   -5.4132    0.3611    0.1897 C   0  0  0  0  0  0  0  0  0  0  0  0
   -3.9829   -0.0877    0.1252 C   0  0  0  0  0  0  0  0  0  0  0  0
   -3.4472   -0.5793   -1.0664 C   0  0  0  0  0  0  0  0  0  0  0  0
   -2.1022   -0.9877   -1.1622 C   0  0  0  0  0  0  0  0  0  0  0  0
   -1.6557   -1.5323   -2.4921 C   0  0  0  0  0  0  0  0  0  0  0  0
   -1.2715   -0.8703   -0.0211 C   0  0  0  0  0  0  0  0  0  0  0  0
    0.4733   -1.3516   -0.0683 S   0  0  0  0  0  6  0  0  0  0  0  0
    0.7103   -2.1877    1.0912 O   0  0  0  0  0  0  0  0  0  0  0  0
    0.8204   -1.8402   -1.3871 O   0  0  0  0  0  0  0  0  0  0  0  0
    1.2537    0.1537    0.1275 N   0  0  0  0  0  0  0  0  0  0  0  0
    0.9531    1.1906   -0.9160 C   0  0  0  0  0  0  0  0  0  0  0  0
    2.1812    2.1130   -0.9676 C   0  0  0  0  0  0  0  0  0  0  0  0
    3.2387    1.2612   -0.3469 C   0  0  0  0  0  0  0  0  0  0  0  0
    4.6013    1.5125   -0.2912 C   0  0  0  0  0  0  0  0  0  0  0  0
    5.4095    0.6205    0.4146 C   0  0  0  0  0  0  0  0  0  0  0  0
    4.8463   -0.4853    1.0683 C   0  0  0  0  0  0  0  0  0  0  0  0
    3.4688   -0.7206    1.0138 C   0  0  0  0  0  0  0  0  0  0  0  0
    2.6813    0.1423    0.2721 C   0  0  0  0  0  0  0  0  0  0  0  0
   -1.8027   -0.3631    1.1950 C   0  0  0  0  0  0  0  0  0  0  0  0
   -1.0130   -0.2452    2.4743 C   0  0  0  0  0  0  0  0  0  0  0  0
   -3.1550    0.0221    1.2424 C   0  0  0  0  0  0  0  0  0  0  0  0
   -6.0376   -0.2230   -0.4945 H   0  0  0  0  0  0  0  0  0  0  0  0
   -5.4855    1.4190   -0.0807 H   0  0  0  0  0  0  0  0  0  0  0  0
   -5.8213    0.2243    1.1967 H   0  0  0  0  0  0  0  0  0  0  0  0
   -4.0965   -0.6562   -1.9385 H   0  0  0  0  0  0  0  0  0  0  0  0
   -1.3156   -2.5671   -2.3902 H   0  0  0  0  0  0  0  0  0  0  0  0
   -2.4781   -1.5493   -3.2166 H   0  0  0  0  0  0  0  0  0  0  0  0
   -0.8753   -0.9010   -2.9265 H   0  0  0  0  0  0  0  0  0  0  0  0
    0.0505    1.7529   -0.6588 H   0  0  0  0  0  0  0  0  0  0  0  0
    0.8110    0.7253   -1.8981 H   0  0  0  0  0  0  0  0  0  0  0  0
    2.4212    2.4020   -1.9947 H   0  0  0  0  0  0  0  0  0  0  0  0
    2.0196    3.0095   -0.3597 H   0  0  0  0  0  0  0  0  0  0  0  0
    5.0321    2.3850   -0.7719 H   0  0  0  0  0  0  0  0  0  0  0  0
    6.4820    0.7912    0.4739 H   0  0  0  0  0  0  0  0  0  0  0  0
    5.4845   -1.1617    1.6323 H   0  0  0  0  0  0  0  0  0  0  0  0
    3.0483   -1.5642    1.5498 H   0  0  0  0  0  0  0  0  0  0  0  0
   -0.0761    0.2948    2.3246 H   0  0  0  0  0  0  0  0  0  0  0  0
   -1.5680    0.3198    3.2322 H   0  0  0  0  0  0  0  0  0  0  0  0
   -0.8171   -1.2358    2.8943 H   0  0  0  0  0  0  0  0  0  0  0  0
   -3.5729    0.4085    2.1716 H   0  0  0  0  0  0  0  0  0  0  0  0
  1  2  1  0
  2  3  2  0
  3  4  1  0
  4  5  1  0
  4  6  2  0
  6  7  1  0
  7  8  2  0
  7  9  2  0
  7 10  1  0
 10 11  1  0
 11 12  1  0
 12 13  1  0
 13 14  2  0
 14 15  1  0
 15 16  2  0
 16 17  1  0
 17 18  2  0
  6 19  1  0
 19 20  1  0
 19 21  2  0
 21  2  1  0
 18 10  1  0
 18 13  1  0
  1 22  1  0
  1 23  1  0
  1 24  1  0
  3 25  1  0
  5 26  1  0
  5 27  1  0
  5 28  1  0
 11 29  1  0
 11 30  1  0
 12 31  1  0
 12 32  1  0
 14 33  1  0
 15 34  1  0
 16 35  1  0
 17 36  1  0
 20 37  1  0
 20 38  1  0
 20 39  1  0
 21 40  1  0
M  END
$$$$
