
     RDKit          3D

 44 46  0  0  0  0  0  0  0  0999 V2000
   -4.5059   -4.4215    2.4320 C   0  0  0  0  0  0  0  0  0  0  0  0
   -3.7967   -3.3494    1.6582 C   0  0  0  0  0  0  0  0  0  0  0  0
   -4.0126   -2.0022    1.9518 C   0  0  0  0  0  0  0  0  0  0  0  0
   -3.3437   -0.9752    1.2567 C   0  0  0  0  0  0  0  0  0  0  0  0
   -3.6761    0.4368    1.6584 C   0  0  0  0  0  0  0  0  0  0  0  0
   -2.4220   -1.3269    0.2401 C   0  0  0  0  0  0  0  0  0  0  0  0
   -1.5469   -0.0649   -0.7116 S   0  0  0  0  0  6  0  0  0  0  0  0
   -2.0233    1.2525   -0.3507 O   0  0  0  0  0  0  0  0  0  0  0  0
   -1.5170   -0.4832   -2.0961 O   0  0  0  0  0  0  0  0  0  0  0  0
    0.0157   -0.2003   -0.0268 N   0  0  0  0  0  0  0  0  0  0  0  0
    1.0185    0.5742   -0.6984 C   0  0  0  0  0  0  0  0  0  0  0  0
    1.5945    0.0895   -1.8701 C   0  0  0  0  0  0  0  0  0  0  0  0
    2.5462    0.8551   -2.5413 C   0  0  0  0  0  0  0  0  0  0  0  0
    2.9167    2.1027   -2.0408 C   0  0  0  0  0  0  0  0  0  0  0  0
    3.8663    2.7732   -2.7618 O   0  0  0  0  0  0  0  0  0  0  0  0
    2.3272    2.6155   -0.8759 C   0  0  0  0  0  0  0  0  0  0  0  0
    2.6573    4.2460   -0.2232 S   0  0  0  0  0  0  0  0  0  0  0  0
    4.3379    4.1341    0.2069 C   0  0  0  0  0  0  0  0  0  0  0  0
    5.3178    3.9222   -0.7291 N   0  0  0  0  0  0  0  0  0  0  0  0
    6.4153    3.9293   -0.0082 C   0  0  0  0  0  0  0  0  0  0  0  0
    6.1007    4.1439    1.2968 N   0  0  0  0  0  0  0  0  0  0  0  0
    4.7754    4.2816    1.4596 N   0  0  0  0  0  0  0  0  0  0  0  0
    1.3638    1.8387   -0.2141 C   0  0  0  0  0  0  0  0  0  0  0  0
   -2.1722   -2.6948   -0.0470 C   0  0  0  0  0  0  0  0  0  0  0  0
   -1.2171   -3.1728   -1.1110 C   0  0  0  0  0  0  0  0  0  0  0  0
   -2.8711   -3.6836    0.6699 C   0  0  0  0  0  0  0  0  0  0  0  0
   -4.6550   -5.3148    1.8163 H   0  0  0  0  0  0  0  0  0  0  0  0
   -5.4959   -4.0814    2.7538 H   0  0  0  0  0  0  0  0  0  0  0  0
   -3.9207   -4.6942    3.3156 H   0  0  0  0  0  0  0  0  0  0  0  0
   -4.7248   -1.7463    2.7364 H   0  0  0  0  0  0  0  0  0  0  0  0
   -4.1716    0.9639    0.8379 H   0  0  0  0  0  0  0  0  0  0  0  0
   -2.7762    0.9676    1.9832 H   0  0  0  0  0  0  0  0  0  0  0  0
   -4.3683    0.4613    2.5081 H   0  0  0  0  0  0  0  0  0  0  0  0
   -0.0578    0.0484    0.9607 H   0  0  0  0  0  0  0  0  0  0  0  0
    1.3039   -0.8782   -2.2699 H   0  0  0  0  0  0  0  0  0  0  0  0
    2.9987    0.4824   -3.4564 H   0  0  0  0  0  0  0  0  0  0  0  0
    4.3076    3.4143   -2.1660 H   0  0  0  0  0  0  0  0  0  0  0  0
    7.4275    3.7921   -0.3621 H   0  0  0  0  0  0  0  0  0  0  0  0
    6.7125    4.2098    2.1031 H   0  0  0  0  0  0  0  0  0  0  0  0
    0.8715    2.2306    0.6725 H   0  0  0  0  0  0  0  0  0  0  0  0
   -1.0072   -4.2433   -1.0031 H   0  0  0  0  0  0  0  0  0  0  0  0
   -1.6496   -3.0267   -2.1050 H   0  0  0  0  0  0  0  0  0  0  0  0
   -0.2501   -2.6699   -1.0392 H   0  0  0  0  0  0  0  0  0  0  0  0
   -2.6932   -4.7358    0.4491 H   0  0  0  0  0  0  0  0  0  0  0  0
  1  2  1  0
  2  3  2  0
  3  4  1  0
  4  5  1  0
  4  6  2  0
  6  7  1  0
  7  8  2  0
  7  9  2  0
  7 10  1  0
 10 11  1  0
 11 12  2  0
 12 13  1  0
 13 14  2  0
 14 15  1  0
 14 16  1  0
 16 17  1  0
 17 18  1  0
 18 19  1  0
 19 20  2  0
 20 21  1  0
 21 22  1  0
 16 23  2  0
  6 24  1  0
 24 25  1  0
 24 26  2  0
 26  2  1  0
 23 11  1  0
 22 18  2  0
  1 27  1  0
  1 28  1  0
  1 29  1  0
  3 30  1  0
  5 31  1  0
  5 32  1  0
  5 33  1  0
 10 34  1  0
 12 35  1  0
 13 36  1  0
 15 37  1  0
 20 38  1  0
 21 39  1  0
 23 40  1  0
 25 41  1  0
 25 42  1  0
 25 43  1  0
 26 44  1  0
M  END
$$$$
