
     RDKit          3D

 31 32  0  0  0  0  0  0  0  0999 V2000
    2.5001   -2.2243    0.9373 C   0  0  0  0  0  0  0  0  0  0  0  0
    2.7407   -1.7818   -0.4986 C   0  0  0  0  0  0  0  0  0  0  0  0
    2.8571   -0.3292   -0.6043 N   0  0  0  0  0  0  0  0  0  0  0  0
    1.8643    0.6064   -0.5819 C   0  0  0  0  0  0  0  0  0  0  0  0
    0.4498    0.3098   -0.6468 C   0  0  0  0  0  0  0  0  0  0  0  0
   -0.1409   -0.5499   -1.5517 C   0  0  0  0  0  0  0  0  0  0  0  0
   -1.8333   -0.6688   -1.3533 S   0  0  0  0  0  0  0  0  0  0  0  0
   -1.8346    0.4824   -0.0850 C   0  0  0  0  0  0  0  0  0  0  0  0
   -3.1095    0.9126    0.6066 C   0  0  0  0  0  0  0  0  0  0  0  0
   -4.0780    1.6064   -0.3524 C   0  0  0  0  0  0  0  0  0  0  0  0
   -3.7886   -0.2488    1.3340 C   0  0  0  0  0  0  0  0  0  0  0  0
   -0.5527    0.9293    0.1745 C   0  0  0  0  0  0  0  0  0  0  0  0
    2.2732    1.8387   -0.4668 N   0  0  0  0  0  0  0  0  0  0  0  0
    3.6318    1.7339   -0.4245 N   0  0  0  0  0  0  0  0  0  0  0  0
    4.0151    0.4029   -0.4758 C   0  0  0  0  0  0  0  0  0  0  0  0
    5.5922   -0.0960   -0.3734 S   0  0  0  0  0  0  0  0  0  0  0  0
    1.5704   -1.8020    1.3318 H   0  0  0  0  0  0  0  0  0  0  0  0
    3.3158   -1.9025    1.5926 H   0  0  0  0  0  0  0  0  0  0  0  0
    2.4284   -3.3149    0.9911 H   0  0  0  0  0  0  0  0  0  0  0  0
    3.6569   -2.2478   -0.8741 H   0  0  0  0  0  0  0  0  0  0  0  0
    1.9224   -2.1338   -1.1284 H   0  0  0  0  0  0  0  0  0  0  0  0
    0.3322   -1.1150   -2.3424 H   0  0  0  0  0  0  0  0  0  0  0  0
   -2.8341    1.6514    1.3722 H   0  0  0  0  0  0  0  0  0  0  0  0
   -4.4595    0.9204   -1.1165 H   0  0  0  0  0  0  0  0  0  0  0  0
   -4.9396    2.0057    0.1938 H   0  0  0  0  0  0  0  0  0  0  0  0
   -3.5905    2.4423   -0.8665 H   0  0  0  0  0  0  0  0  0  0  0  0
   -3.0942   -0.7391    2.0254 H   0  0  0  0  0  0  0  0  0  0  0  0
   -4.1585   -1.0084    0.6368 H   0  0  0  0  0  0  0  0  0  0  0  0
   -4.6439    0.1102    1.9167 H   0  0  0  0  0  0  0  0  0  0  0  0
   -0.3273    1.6712    0.9331 H   0  0  0  0  0  0  0  0  0  0  0  0
    4.2349    2.5388   -0.3035 H   0  0  0  0  0  0  0  0  0  0  0  0
  1  2  1  0
  2  3  1  0
  3  4  1  0
  4  5  1  0
  5  6  2  0
  6  7  1  0
  7  8  1  0
  8  9  1  0
  9 10  1  0
  9 11  1  0
  8 12  2  0
  4 13  2  0
 13 14  1  0
 14 15  1  0
 15 16  2  0
 15  3  1  0
 12  5  1  0
  1 17  1  0
  1 18  1  0
  1 19  1  0
  2 20  1  0
  2 21  1  0
  6 22  1  0
  9 23  1  0
 10 24  1  0
 10 25  1  0
 10 26  1  0
 11 27  1  0
 11 28  1  0
 11 29  1  0
 12 30  1  0
 14 31  1  0
M  END
$$$$
