
     RDKit          3D

 70 75  0  0  0  0  0  0  0  0999 V2000
   -5.8074   -3.3139    2.1831 C   0  0  0  0  0  0  0  0  0  0  0  0
   -4.5895   -2.7657    1.4858 C   0  0  0  0  0  0  0  0  0  0  0  0
   -3.8354   -1.7605    2.1393 C   0  0  0  0  0  0  0  0  0  0  0  0
   -2.6981   -1.2038    1.5533 C   0  0  0  0  0  0  0  0  0  0  0  0
   -2.3239   -1.6560    0.3010 C   0  0  0  0  0  0  0  0  0  0  0  0
   -3.0557   -2.6641   -0.3411 C   0  0  0  0  0  0  0  0  0  0  0  0
   -4.1797   -3.2559    0.2240 C   0  0  0  0  0  0  0  0  0  0  0  0
   -4.9538   -4.3194   -0.4991 C   0  0  0  0  0  0  0  0  0  0  0  0
   -2.4807   -2.9464   -1.5790 N   0  0  0  0  0  0  0  0  0  0  0  0
   -1.3452   -2.1686   -1.8139 C   0  0  0  0  0  0  0  0  0  0  0  0
   -0.6381   -2.2491   -2.8067 O   0  0  0  0  0  0  0  0  0  0  0  0
   -1.1847   -1.2435   -0.5805 C   0  0  1  0  0  0  0  0  0  0  0  0
   -1.3106    0.2032   -0.9120 C   0  0  0  0  0  0  0  0  0  0  0  0
   -0.0394    0.7994   -0.9247 C   0  0  0  0  0  0  0  0  0  0  0  0
   -0.1724    2.1232   -1.2435 C   0  0  0  0  0  0  0  0  0  0  0  0
    0.7585    3.0689   -1.3420 O   0  0  0  0  0  0  0  0  0  0  0  0
   -1.5542    2.3797   -1.4223 N   0  0  0  0  0  0  0  0  0  0  0  0
   -2.1488    3.6484   -1.7570 C   0  0  0  0  0  0  0  0  0  0  0  0
   -3.4851    3.9258   -1.4313 C   0  0  0  0  0  0  0  0  0  0  0  0
   -4.0621    5.1590   -1.7558 C   0  0  0  0  0  0  0  0  0  0  0  0
   -3.3135    6.1318   -2.4106 C   0  0  0  0  0  0  0  0  0  0  0  0
   -1.9873    5.8722   -2.7410 C   0  0  0  0  0  0  0  0  0  0  0  0
   -1.4078    4.6402   -2.4168 C   0  0  0  0  0  0  0  0  0  0  0  0
   -2.2448    1.1618   -1.2101 C   0  0  0  0  0  0  0  0  0  0  0  0
   -3.5644    1.0439   -1.3420 O   0  0  0  0  0  0  0  0  0  0  0  0
    0.9939   -0.2173   -0.6271 C   0  0  1  0  0  0  0  0  0  0  0  0
    2.1516    0.1447    0.2974 C   0  0  0  0  0  0  0  0  0  0  0  0
    2.9271   -1.0598    0.6577 N   0  0  0  0  0  0  0  0  0  0  0  0
    4.2345   -0.9714    1.1079 C   0  0  0  0  0  0  0  0  0  0  0  0
    4.8307   -1.9001    1.6373 O   0  0  0  0  0  0  0  0  0  0  0  0
    4.7664    0.2586    0.8892 O   0  0  0  0  0  0  0  0  0  0  0  0
    6.1261    0.5687    1.2870 C   0  0  0  0  0  0  0  0  0  0  0  0
    7.1416   -0.3006    0.5378 C   0  0  0  0  0  0  0  0  0  0  0  0
    6.2970    0.4724    2.8069 C   0  0  0  0  0  0  0  0  0  0  0  0
    6.3283    2.0322    0.8632 C   0  0  0  0  0  0  0  0  0  0  0  0
    2.1546   -2.2543    1.0391 C   0  0  0  0  0  0  0  0  0  0  0  0
    0.8956   -2.5020    0.1700 C   0  0  0  0  0  0  0  0  0  0  0  0
    0.1544   -1.2576    0.0459 N   0  0  0  0  0  0  0  0  0  0  0  0
   -6.0899   -2.6953    3.0418 H   0  0  0  0  0  0  0  0  0  0  0  0
   -6.6660   -3.3302    1.5039 H   0  0  0  0  0  0  0  0  0  0  0  0
   -5.6080   -4.3270    2.5460 H   0  0  0  0  0  0  0  0  0  0  0  0
   -4.1425   -1.4021    3.1214 H   0  0  0  0  0  0  0  0  0  0  0  0
   -2.1300   -0.4304    2.0620 H   0  0  0  0  0  0  0  0  0  0  0  0
   -4.3255   -4.8663   -1.2087 H   0  0  0  0  0  0  0  0  0  0  0  0
   -5.3461   -5.0677    0.1968 H   0  0  0  0  0  0  0  0  0  0  0  0
   -5.7869   -3.8677   -1.0465 H   0  0  0  0  0  0  0  0  0  0  0  0
   -2.8000   -3.6396   -2.2387 H   0  0  0  0  0  0  0  0  0  0  0  0
    1.6273    2.6657   -1.1822 H   0  0  0  0  0  0  0  0  0  0  0  0
   -4.1007    3.2147   -0.8897 H   0  0  0  0  0  0  0  0  0  0  0  0
   -5.0973    5.3564   -1.4897 H   0  0  0  0  0  0  0  0  0  0  0  0
   -3.7617    7.0886   -2.6637 H   0  0  0  0  0  0  0  0  0  0  0  0
   -1.3985    6.6246   -3.2593 H   0  0  0  0  0  0  0  0  0  0  0  0
   -0.3819    4.4745   -2.7298 H   0  0  0  0  0  0  0  0  0  0  0  0
   -3.8158    0.1350   -1.1004 H   0  0  0  0  0  0  0  0  0  0  0  0
    1.3866   -0.6051   -1.5783 H   0  0  0  0  0  0  0  0  0  0  0  0
    1.7982    0.5977    1.2326 H   0  0  0  0  0  0  0  0  0  0  0  0
    2.7995    0.8792   -0.1923 H   0  0  0  0  0  0  0  0  0  0  0  0
    6.9456   -0.2865   -0.5404 H   0  0  0  0  0  0  0  0  0  0  0  0
    8.1659    0.0462    0.7111 H   0  0  0  0  0  0  0  0  0  0  0  0
    7.0947   -1.3477    0.8511 H   0  0  0  0  0  0  0  0  0  0  0  0
    7.2685    0.8662    3.1240 H   0  0  0  0  0  0  0  0  0  0  0  0
    5.5083    1.0314    3.3227 H   0  0  0  0  0  0  0  0  0  0  0  0
    6.2322   -0.5605    3.1616 H   0  0  0  0  0  0  0  0  0  0  0  0
    7.3320    2.3937    1.1110 H   0  0  0  0  0  0  0  0  0  0  0  0
    5.5945    2.6834    1.3521 H   0  0  0  0  0  0  0  0  0  0  0  0
    6.1741    2.1503   -0.2161 H   0  0  0  0  0  0  0  0  0  0  0  0
    1.8563   -2.1112    2.0856 H   0  0  0  0  0  0  0  0  0  0  0  0
    2.8015   -3.1378    1.0029 H   0  0  0  0  0  0  0  0  0  0  0  0
    0.2855   -3.2745    0.6511 H   0  0  0  0  0  0  0  0  0  0  0  0
    1.2025   -2.8821   -0.8116 H   0  0  0  0  0  0  0  0  0  0  0  0
  1  2  1  0
  2  3  2  0
  3  4  1  0
  4  5  2  0
  5  6  1  0
  6  7  2  0
  7  8  1  0
  6  9  1  0
  9 10  1  0
 10 11  2  0
 10 12  1  0
 12 13  1  0
 13 14  1  0
 14 15  2  0
 15 16  1  0
 15 17  1  0
 17 18  1  0
 18 19  2  0
 19 20  1  0
 20 21  2  0
 21 22  1  0
 22 23  2  0
 17 24  1  0
 24 25  1  0
 14 26  1  0
 26 27  1  0
 27 28  1  0
 28 29  1  0
 29 30  2  0
 29 31  1  0
 31 32  1  0
 32 33  1  0
 32 34  1  0
 32 35  1  0
 28 36  1  0
 36 37  1  0
 37 38  1  0
  7  2  1  0
 12 38  1  1
 12  5  1  0
 24 13  2  0
 38 26  1  0
 23 18  1  0
  1 39  1  0
  1 40  1  0
  1 41  1  0
  3 42  1  0
  4 43  1  0
  8 44  1  0
  8 45  1  0
  8 46  1  0
  9 47  1  0
 16 48  1  0
 19 49  1  0
 20 50  1  0
 21 51  1  0
 22 52  1  0
 23 53  1  0
 25 54  1  0
 26 55  1  6
 27 56  1  0
 27 57  1  0
 33 58  1  0
 33 59  1  0
 33 60  1  0
 34 61  1  0
 34 62  1  0
 34 63  1  0
 35 64  1  0
 35 65  1  0
 35 66  1  0
 36 67  1  0
 36 68  1  0
 37 69  1  0
 37 70  1  0
M  END
$$$$
