
     RDKit          3D

 38 40  0  0  0  0  0  0  0  0999 V2000
   -6.7358   -1.3186   -1.6376 C   0  0  0  0  0  0  0  0  0  0  0  0
   -5.9726   -0.1945   -0.9578 C   0  0  0  0  0  0  0  0  0  0  0  0
   -5.2388    0.5780   -1.9031 O   0  0  0  0  0  0  0  0  0  0  0  0
   -4.0024   -0.0106   -2.3161 C   0  0  0  0  0  0  0  0  0  0  0  0
   -2.8828    0.6004   -1.5366 C   0  0  0  0  0  0  0  0  0  0  0  0
   -2.2503    1.7123   -1.8584 N   0  0  0  0  0  0  0  0  0  0  0  0
   -1.2237    1.9956   -0.9767 N   0  0  0  0  0  0  0  0  0  0  0  0
   -1.1194    1.0931   -0.0271 C   0  0  0  0  0  0  0  0  0  0  0  0
   -0.1630    1.1668    0.9519 N   0  0  0  0  0  0  0  0  0  0  0  0
    0.0277    0.2981    2.0018 C   0  0  0  0  0  0  0  0  0  0  0  0
   -0.6534   -0.6800    2.2883 O   0  0  0  0  0  0  0  0  0  0  0  0
    1.2072    0.7061    2.8919 C   0  0  0  0  0  0  0  0  0  0  0  0
    2.1753    1.5245    2.2459 O   0  0  0  0  0  0  0  0  0  0  0  0
    3.1699    0.9011    1.5412 C   0  0  0  0  0  0  0  0  0  0  0  0
    4.2256    1.7523    1.1566 C   0  0  0  0  0  0  0  0  0  0  0  0
    5.3187    1.2692    0.4288 C   0  0  0  0  0  0  0  0  0  0  0  0
    5.3188   -0.0651    0.0965 C   0  0  0  0  0  0  0  0  0  0  0  0
    4.2852   -0.8973    0.4570 C   0  0  0  0  0  0  0  0  0  0  0  0
    3.1943   -0.4472    1.1761 C   0  0  0  0  0  0  0  0  0  0  0  0
    4.4750   -2.1750    0.0248 O   0  0  0  0  0  0  0  0  0  0  0  0
    5.7467   -2.0501   -0.6453 C   0  0  0  0  0  0  0  0  0  0  0  0
    6.2886   -0.7146   -0.6001 O   0  0  0  0  0  0  0  0  0  0  0  0
   -2.2577   -0.1666   -0.1293 S   0  0  0  0  0  0  0  0  0  0  0  0
   -6.0596   -2.0254   -2.1271 H   0  0  0  0  0  0  0  0  0  0  0  0
   -7.3381   -1.8680   -0.9084 H   0  0  0  0  0  0  0  0  0  0  0  0
   -7.3930   -0.9161   -2.4144 H   0  0  0  0  0  0  0  0  0  0  0  0
   -6.6904    0.4799   -0.4799 H   0  0  0  0  0  0  0  0  0  0  0  0
   -5.3153   -0.5804   -0.1711 H   0  0  0  0  0  0  0  0  0  0  0  0
   -4.0137   -1.1027   -2.2362 H   0  0  0  0  0  0  0  0  0  0  0  0
   -3.8682    0.2351   -3.3753 H   0  0  0  0  0  0  0  0  0  0  0  0
    0.4800    1.9450    0.8502 H   0  0  0  0  0  0  0  0  0  0  0  0
    1.6593   -0.1784    3.3520 H   0  0  0  0  0  0  0  0  0  0  0  0
    0.7861    1.3049    3.7074 H   0  0  0  0  0  0  0  0  0  0  0  0
    4.1965    2.8015    1.4358 H   0  0  0  0  0  0  0  0  0  0  0  0
    6.1326    1.9244    0.1405 H   0  0  0  0  0  0  0  0  0  0  0  0
    2.4087   -1.1508    1.4200 H   0  0  0  0  0  0  0  0  0  0  0  0
    6.4612   -2.7335   -0.1736 H   0  0  0  0  0  0  0  0  0  0  0  0
    5.6209   -2.3434   -1.6924 H   0  0  0  0  0  0  0  0  0  0  0  0
  1  2  1  0
  2  3  1  0
  3  4  1  0
  4  5  1  0
  5  6  2  0
  6  7  1  0
  7  8  2  0
  8  9  1  0
  9 10  1  0
 10 11  2  0
 10 12  1  0
 12 13  1  0
 13 14  1  0
 14 15  2  0
 15 16  1  0
 16 17  2  0
 17 18  1  0
 18 19  2  0
 18 20  1  0
 20 21  1  0
 21 22  1  0
  8 23  1  0
 23  5  1  0
 19 14  1  0
 22 17  1  0
  1 24  1  0
  1 25  1  0
  1 26  1  0
  2 27  1  0
  2 28  1  0
  4 29  1  0
  4 30  1  0
  9 31  1  0
 12 32  1  0
 12 33  1  0
 15 34  1  0
 16 35  1  0
 19 36  1  0
 21 37  1  0
 21 38  1  0
M  END
$$$$
