
     RDKit          3D

 34 35  0  0  0  0  0  0  0  0999 V2000
    4.5567   -1.7312    0.1795 C   0  0  0  0  0  0  0  0  0  0  0  0
    3.6291   -1.3124    1.3032 C   0  0  0  0  0  0  0  0  0  0  0  0
    2.5291   -0.5962    0.7317 O   0  0  0  0  0  0  0  0  0  0  0  0
    1.6182   -0.1841    1.6351 C   0  0  0  0  0  0  0  0  0  0  0  0
    1.6430   -0.3029    2.8452 O   0  0  0  0  0  0  0  0  0  0  0  0
    0.5014    0.5501    0.9106 C   0  0  0  0  0  0  0  0  0  0  0  0
   -0.3728   -0.1814    0.3036 N   0  0  0  0  0  0  0  0  0  0  0  0
   -1.4084    0.4332   -0.3698 N   0  0  0  0  0  0  0  0  0  0  0  0
   -2.3105   -0.5019   -1.0034 C   0  0  0  0  0  0  0  0  0  0  0  0
   -2.0816   -1.8894   -0.8904 C   0  0  0  0  0  0  0  0  0  0  0  0
   -2.9285   -2.8310   -1.4872 C   0  0  0  0  0  0  0  0  0  0  0  0
   -4.0320   -2.4087   -2.2163 C   0  0  0  0  0  0  0  0  0  0  0  0
   -4.2840   -1.0483   -2.3454 C   0  0  0  0  0  0  0  0  0  0  0  0
   -3.4335   -0.1077   -1.7461 C   0  0  0  0  0  0  0  0  0  0  0  0
   -1.5456    1.8281   -0.4186 C   0  0  0  0  0  0  0  0  0  0  0  0
   -2.4329    2.4542   -0.9955 O   0  0  0  0  0  0  0  0  0  0  0  0
   -0.5007    2.6166    0.3050 C   0  0  0  0  0  0  0  0  0  0  0  0
   -0.6266    4.0353    0.2638 C   0  0  0  0  0  0  0  0  0  0  0  0
   -0.6641    5.1954    0.2700 N   0  0  0  0  0  0  0  0  0  0  0  0
    0.5104    2.0266    0.9633 C   0  0  0  0  0  0  0  0  0  0  0  0
    1.6119    2.7141    1.7154 C   0  0  0  0  0  0  0  0  0  0  0  0
    5.4165   -2.2837    0.5686 H   0  0  0  0  0  0  0  0  0  0  0  0
    4.0275   -2.3625   -0.5420 H   0  0  0  0  0  0  0  0  0  0  0  0
    4.9179   -0.8550   -0.3690 H   0  0  0  0  0  0  0  0  0  0  0  0
    4.1666   -0.6645    2.0049 H   0  0  0  0  0  0  0  0  0  0  0  0
    3.2602   -2.1999    1.8297 H   0  0  0  0  0  0  0  0  0  0  0  0
   -1.2314   -2.2698   -0.3293 H   0  0  0  0  0  0  0  0  0  0  0  0
   -2.7203   -3.8921   -1.3777 H   0  0  0  0  0  0  0  0  0  0  0  0
   -4.6931   -3.1347   -2.6814 H   0  0  0  0  0  0  0  0  0  0  0  0
   -5.1459   -0.7069   -2.9139 H   0  0  0  0  0  0  0  0  0  0  0  0
   -3.6972    0.9338   -1.8920 H   0  0  0  0  0  0  0  0  0  0  0  0
    1.5672    3.8044    1.6421 H   0  0  0  0  0  0  0  0  0  0  0  0
    2.5898    2.4111    1.3264 H   0  0  0  0  0  0  0  0  0  0  0  0
    1.5638    2.4617    2.7797 H   0  0  0  0  0  0  0  0  0  0  0  0
  1  2  1  0
  2  3  1  0
  3  4  1  0
  4  5  2  0
  4  6  1  0
  6  7  2  0
  7  8  1  0
  8  9  1  0
  9 10  2  0
 10 11  1  0
 11 12  2  0
 12 13  1  0
 13 14  2  0
  8 15  1  0
 15 16  2  0
 15 17  1  0
 17 18  1  0
 18 19  3  0
 17 20  2  0
 20 21  1  0
 20  6  1  0
 14  9  1  0
  1 22  1  0
  1 23  1  0
  1 24  1  0
  2 25  1  0
  2 26  1  0
 10 27  1  0
 11 28  1  0
 12 29  1  0
 13 30  1  0
 14 31  1  0
 21 32  1  0
 21 33  1  0
 21 34  1  0
M  END
$$$$
