
     RDKit          3D

 42 44  0  0  0  0  0  0  0  0999 V2000
   -0.4433   -2.9640    1.6739 C   0  0  0  0  0  0  0  0  0  0  0  0
   -0.6402   -1.5718    1.1665 C   0  0  0  0  0  0  0  0  0  0  0  0
    0.2719   -0.7046    0.6966 C   0  0  0  0  0  0  0  0  0  0  0  0
    1.6325   -0.6892    0.5445 N   0  0  0  0  0  0  0  0  0  0  0  0
    2.5881   -1.5779    0.9832 C   0  0  0  0  0  0  0  0  0  0  0  0
    2.3658   -2.5372    1.7297 O   0  0  0  0  0  0  0  0  0  0  0  0
    4.0162   -1.3225    0.5213 C   0  0  0  0  0  0  0  0  0  0  0  0
    4.1550   -0.3237   -0.5274 N   0  0  0  0  0  0  0  0  0  0  0  0
    4.5555   -0.5211   -1.8200 C   0  0  0  0  0  0  0  0  0  0  0  0
    4.5624    0.7237   -2.4163 C   0  0  0  0  0  0  0  0  0  0  0  0
    4.1296    1.6086   -1.4073 C   0  0  0  0  0  0  0  0  0  0  0  0
    3.9467    3.0473   -1.4875 N   0  0  0  0  0  4  0  0  0  0  0  0
    3.4854    3.6387   -0.5008 O   0  0  0  0  0  0  0  0  0  0  0  0
    4.2863    3.5870   -2.5550 O   0  0  0  0  0  1  0  0  0  0  0  0
    3.8686    0.9644   -0.2515 N   0  0  0  0  0  0  0  0  0  0  0  0
   -0.5135    0.4781    0.2079 C   0  0  0  0  0  0  0  0  0  0  0  0
    0.0256    1.4180   -0.3589 O   0  0  0  0  0  0  0  0  0  0  0  0
   -1.8585    0.2041    0.4597 N   0  0  0  0  0  0  0  0  0  0  0  0
   -2.9636    0.7442   -0.2494 C   0  0  0  0  0  0  0  0  0  0  0  0
   -4.1740    0.0400   -0.3493 C   0  0  0  0  0  0  0  0  0  0  0  0
   -5.2584    0.5640   -1.0534 C   0  0  0  0  0  0  0  0  0  0  0  0
   -5.1506    1.8049   -1.6756 C   0  0  0  0  0  0  0  0  0  0  0  0
   -3.9598    2.5188   -1.5923 C   0  0  0  0  0  0  0  0  0  0  0  0
   -2.8754    1.9921   -0.8860 C   0  0  0  0  0  0  0  0  0  0  0  0
   -1.9513   -1.0515    1.1316 N   0  0  0  0  0  0  0  0  0  0  0  0
   -2.6660   -0.9636    2.4211 C   0  0  0  0  0  0  0  0  0  0  0  0
   -0.2099   -2.9644    2.7424 H   0  0  0  0  0  0  0  0  0  0  0  0
    0.3296   -3.4946    1.1140 H   0  0  0  0  0  0  0  0  0  0  0  0
   -1.3565   -3.5543    1.5305 H   0  0  0  0  0  0  0  0  0  0  0  0
    1.9717    0.1940    0.1468 H   0  0  0  0  0  0  0  0  0  0  0  0
    4.6235   -0.9871    1.3736 H   0  0  0  0  0  0  0  0  0  0  0  0
    4.4250   -2.2614    0.1301 H   0  0  0  0  0  0  0  0  0  0  0  0
    4.8045   -1.5054   -2.2033 H   0  0  0  0  0  0  0  0  0  0  0  0
    4.8330    0.9645   -3.4355 H   0  0  0  0  0  0  0  0  0  0  0  0
   -4.2829   -0.9452    0.0974 H   0  0  0  0  0  0  0  0  0  0  0  0
   -6.1824   -0.0026   -1.1226 H   0  0  0  0  0  0  0  0  0  0  0  0
   -5.9907    2.2127   -2.2282 H   0  0  0  0  0  0  0  0  0  0  0  0
   -3.8665    3.4865   -2.0772 H   0  0  0  0  0  0  0  0  0  0  0  0
   -1.9683    2.5890   -0.8355 H   0  0  0  0  0  0  0  0  0  0  0  0
   -2.0754   -0.4074    3.1537 H   0  0  0  0  0  0  0  0  0  0  0  0
   -3.6335   -0.4651    2.3248 H   0  0  0  0  0  0  0  0  0  0  0  0
   -2.8558   -1.9660    2.8162 H   0  0  0  0  0  0  0  0  0  0  0  0
  1  2  1  0
  2  3  2  0
  3  4  1  0
  4  5  1  0
  5  6  2  0
  5  7  1  0
  7  8  1  0
  8  9  1  0
  9 10  2  0
 10 11  1  0
 11 12  1  0
 12 13  2  0
 12 14  1  0
 11 15  2  0
  3 16  1  0
 16 17  2  0
 16 18  1  0
 18 19  1  0
 19 20  2  0
 20 21  1  0
 21 22  2  0
 22 23  1  0
 23 24  2  0
 18 25  1  0
 25 26  1  0
 25  2  1  0
 15  8  1  0
 24 19  1  0
  1 27  1  0
  1 28  1  0
  1 29  1  0
  4 30  1  0
  7 31  1  0
  7 32  1  0
  9 33  1  0
 10 34  1  0
 20 35  1  0
 21 36  1  0
 22 37  1  0
 23 38  1  0
 24 39  1  0
 26 40  1  0
 26 41  1  0
 26 42  1  0
M  CHG  2  12   1  14  -1
M  END
$$$$
