
     RDKit          3D

 53 54  0  0  0  0  0  0  0  0999 V2000
   -4.7388    2.2307    1.8537 C   0  0  0  0  0  0  0  0  0  0  0  0
   -3.9619    1.3360    0.9004 C   0  0  0  0  0  0  0  0  0  0  0  0
   -4.4306   -0.0669    1.0088 N   0  0  0  0  0  0  0  0  0  0  0  0
   -4.0145   -0.7737    2.2445 C   0  0  0  0  0  0  0  0  0  0  0  0
   -5.2414   -1.1117    3.0737 C   0  0  0  0  0  0  0  0  0  0  0  0
   -4.4781   -0.9862   -0.4253 S   0  0  0  0  0  6  0  0  0  0  0  0
   -5.0201   -0.1654   -1.4869 O   0  0  0  0  0  0  0  0  0  0  0  0
   -5.0559   -2.2767   -0.1118 O   0  0  0  0  0  0  0  0  0  0  0  0
   -2.7543   -1.2519   -0.7979 C   0  0  0  0  0  0  0  0  0  0  0  0
   -2.1591   -2.4811   -0.4976 C   0  0  0  0  0  0  0  0  0  0  0  0
   -0.8187   -2.6949   -0.8177 C   0  0  0  0  0  0  0  0  0  0  0  0
   -0.0793   -1.6888   -1.4448 C   0  0  0  0  0  0  0  0  0  0  0  0
   -0.6815   -0.4629   -1.7648 C   0  0  0  0  0  0  0  0  0  0  0  0
    0.0708    0.6470   -2.4067 C   0  0  0  0  0  0  0  0  0  0  0  0
   -0.3403    1.7940   -2.4558 O   0  0  0  0  0  0  0  0  0  0  0  0
    1.2503    0.1962   -2.8937 O   0  0  0  0  0  0  0  0  0  0  0  0
    2.0896    1.1919   -3.4834 C   0  0  0  0  0  0  0  0  0  0  0  0
    3.0322    1.8751   -2.4883 C   0  0  0  0  0  0  0  0  0  0  0  0
    3.8058    2.7693   -2.8239 O   0  0  0  0  0  0  0  0  0  0  0  0
    2.9733    1.3818   -1.2002 N   0  0  0  0  0  0  0  0  0  0  0  0
    3.9340    1.7957   -0.1943 C   0  0  0  0  0  0  0  0  0  0  0  0
    5.2247    0.9600   -0.2409 C   0  0  0  0  0  0  0  0  0  0  0  0
    5.1084   -0.2996    0.4892 N   0  0  0  0  0  0  0  0  0  0  0  0
    5.6577   -0.5503    1.7264 C   0  0  0  0  0  0  0  0  0  0  0  0
    6.4916    0.3396    2.3318 O   0  0  0  0  0  0  0  0  0  0  0  0
    5.3073   -1.7177    2.2721 C   0  0  0  0  0  0  0  0  0  0  0  0
    4.2468   -2.6119    1.2334 S   0  0  0  0  0  0  0  0  0  0  0  0
    4.2605   -1.3072    0.0356 C   0  0  0  0  0  0  0  0  0  0  0  0
    3.5788   -1.3220   -0.9774 O   0  0  0  0  0  0  0  0  0  0  0  0
   -2.0285   -0.2490   -1.4481 C   0  0  0  0  0  0  0  0  0  0  0  0
   -5.8168    2.1460    1.6804 H   0  0  0  0  0  0  0  0  0  0  0  0
   -4.4504    3.2764    1.7098 H   0  0  0  0  0  0  0  0  0  0  0  0
   -4.5432    1.9714    2.8984 H   0  0  0  0  0  0  0  0  0  0  0  0
   -2.8886    1.3944    1.1109 H   0  0  0  0  0  0  0  0  0  0  0  0
   -4.1206    1.7203   -0.1115 H   0  0  0  0  0  0  0  0  0  0  0  0
   -3.3304   -0.1544    2.8349 H   0  0  0  0  0  0  0  0  0  0  0  0
   -3.4635   -1.6898    2.0141 H   0  0  0  0  0  0  0  0  0  0  0  0
   -5.9228   -1.7690    2.5246 H   0  0  0  0  0  0  0  0  0  0  0  0
   -4.9464   -1.6198    3.9965 H   0  0  0  0  0  0  0  0  0  0  0  0
   -5.7977   -0.2092    3.3464 H   0  0  0  0  0  0  0  0  0  0  0  0
   -2.7309   -3.2761   -0.0227 H   0  0  0  0  0  0  0  0  0  0  0  0
   -0.3480   -3.6478   -0.5845 H   0  0  0  0  0  0  0  0  0  0  0  0
    0.9668   -1.8782   -1.6793 H   0  0  0  0  0  0  0  0  0  0  0  0
    2.7142    0.6830   -4.2245 H   0  0  0  0  0  0  0  0  0  0  0  0
    1.5045    1.9557   -4.0076 H   0  0  0  0  0  0  0  0  0  0  0  0
    2.5830    0.4441   -1.1189 H   0  0  0  0  0  0  0  0  0  0  0  0
    4.1790    2.8496   -0.3651 H   0  0  0  0  0  0  0  0  0  0  0  0
    3.4443    1.7130    0.7815 H   0  0  0  0  0  0  0  0  0  0  0  0
    5.4866    0.7183   -1.2781 H   0  0  0  0  0  0  0  0  0  0  0  0
    6.0461    1.5531    0.1702 H   0  0  0  0  0  0  0  0  0  0  0  0
    7.0758    0.7070    1.6492 H   0  0  0  0  0  0  0  0  0  0  0  0
    5.6379   -2.0793    3.2356 H   0  0  0  0  0  0  0  0  0  0  0  0
   -2.5072    0.6920   -1.7142 H   0  0  0  0  0  0  0  0  0  0  0  0
  1  2  1  0
  2  3  1  0
  3  4  1  0
  4  5  1  0
  3  6  1  0
  6  7  2  0
  6  8  2  0
  6  9  1  0
  9 10  2  0
 10 11  1  0
 11 12  2  0
 12 13  1  0
 13 14  1  0
 14 15  2  0
 14 16  1  0
 16 17  1  0
 17 18  1  0
 18 19  2  0
 18 20  1  0
 20 21  1  0
 21 22  1  0
 22 23  1  0
 23 24  1  0
 24 25  1  0
 24 26  2  0
 26 27  1  0
 27 28  1  0
 28 29  2  0
 13 30  2  0
 30  9  1  0
 28 23  1  0
  1 31  1  0
  1 32  1  0
  1 33  1  0
  2 34  1  0
  2 35  1  0
  4 36  1  0
  4 37  1  0
  5 38  1  0
  5 39  1  0
  5 40  1  0
 10 41  1  0
 11 42  1  0
 12 43  1  0
 17 44  1  0
 17 45  1  0
 20 46  1  0
 21 47  1  0
 21 48  1  0
 22 49  1  0
 22 50  1  0
 25 51  1  0
 26 52  1  0
 30 53  1  0
M  END
$$$$
