
     RDKit          3D

 42 44  0  0  0  0  0  0  0  0999 V2000
   -4.2286   -2.0795   -0.5972 C   0  0  0  0  0  0  0  0  0  0  0  0
   -4.0958   -0.9081    0.3769 C   0  0  0  0  0  0  0  0  0  0  0  0
   -4.1176   -1.3832    1.8304 C   0  0  0  0  0  0  0  0  0  0  0  0
   -2.9071   -0.1010    0.0907 N   0  0  0  0  0  0  0  0  0  0  0  0
   -1.6143   -0.5670    0.1704 C   0  0  0  0  0  0  0  0  0  0  0  0
   -0.7600    0.4591   -0.1658 C   0  0  0  0  0  0  0  0  0  0  0  0
    0.6686    0.3905   -0.2138 C   0  0  0  0  0  0  0  0  0  0  0  0
    1.4226   -0.6596    0.1551 C   0  0  0  0  0  0  0  0  0  0  0  0
    2.8875   -0.6701    0.0873 C   0  0  0  0  0  0  0  0  0  0  0  0
    3.5812   -0.1942   -1.0245 C   0  0  0  0  0  0  0  0  0  0  0  0
    4.9704   -0.2517   -1.0475 C   0  0  0  0  0  0  0  0  0  0  0  0
    5.6543   -0.7738   -0.0055 N   0  0  0  0  0  4  0  0  0  0  0  0
    7.1259   -0.8237   -0.0346 C   0  0  0  0  0  0  0  0  0  0  0  0
    5.0023   -1.2517    1.0782 C   0  0  0  0  0  0  0  0  0  0  0  0
    3.6142   -1.2169    1.1427 C   0  0  0  0  0  0  0  0  0  0  0  0
   -1.5649    1.6019   -0.4659 C   0  0  0  0  0  0  0  0  0  0  0  0
   -1.2800    2.9279   -0.8649 C   0  0  0  0  0  0  0  0  0  0  0  0
   -2.3237    3.8316   -1.0853 C   0  0  0  0  0  0  0  0  0  0  0  0
   -3.6439    3.4358   -0.9143 C   0  0  0  0  0  0  0  0  0  0  0  0
   -3.9571    2.1322   -0.5195 C   0  0  0  0  0  0  0  0  0  0  0  0
   -2.9044    1.2262   -0.2985 C   0  0  0  0  0  0  0  0  0  0  0  0
   -4.2183   -1.7274   -1.6347 H   0  0  0  0  0  0  0  0  0  0  0  0
   -5.1704   -2.6134   -0.4317 H   0  0  0  0  0  0  0  0  0  0  0  0
   -3.4112   -2.7994   -0.4815 H   0  0  0  0  0  0  0  0  0  0  0  0
   -4.9681   -0.2629    0.2323 H   0  0  0  0  0  0  0  0  0  0  0  0
   -5.0573   -1.8999    2.0528 H   0  0  0  0  0  0  0  0  0  0  0  0
   -4.0272   -0.5361    2.5193 H   0  0  0  0  0  0  0  0  0  0  0  0
   -3.2965   -2.0758    2.0445 H   0  0  0  0  0  0  0  0  0  0  0  0
   -1.4227   -1.5920    0.4566 H   0  0  0  0  0  0  0  0  0  0  0  0
    1.1643    1.2898   -0.5723 H   0  0  0  0  0  0  0  0  0  0  0  0
    0.9576   -1.5593    0.5515 H   0  0  0  0  0  0  0  0  0  0  0  0
    3.0490    0.2138   -1.8821 H   0  0  0  0  0  0  0  0  0  0  0  0
    5.5391    0.1149   -1.8974 H   0  0  0  0  0  0  0  0  0  0  0  0
    7.4905   -0.5387   -1.0242 H   0  0  0  0  0  0  0  0  0  0  0  0
    7.4353   -1.8478    0.1913 H   0  0  0  0  0  0  0  0  0  0  0  0
    7.4953   -0.1257    0.7212 H   0  0  0  0  0  0  0  0  0  0  0  0
    5.6025   -1.6597    1.8868 H   0  0  0  0  0  0  0  0  0  0  0  0
    3.1070   -1.6067    2.0238 H   0  0  0  0  0  0  0  0  0  0  0  0
   -0.2546    3.2559   -1.0016 H   0  0  0  0  0  0  0  0  0  0  0  0
   -2.1007    4.8506   -1.3917 H   0  0  0  0  0  0  0  0  0  0  0  0
   -4.4470    4.1487   -1.0888 H   0  0  0  0  0  0  0  0  0  0  0  0
   -4.9961    1.8461   -0.3918 H   0  0  0  0  0  0  0  0  0  0  0  0
  1  2  1  0
  2  3  1  0
  2  4  1  0
  4  5  1  0
  5  6  2  0
  6  7  1  0
  7  8  2  3
  8  9  1  0
  9 10  2  0
 10 11  1  0
 11 12  2  0
 12 13  1  0
 12 14  1  0
 14 15  2  0
  6 16  1  0
 16 17  2  0
 17 18  1  0
 18 19  2  0
 19 20  1  0
 20 21  2  0
 21  4  1  0
 15  9  1  0
 21 16  1  0
  1 22  1  0
  1 23  1  0
  1 24  1  0
  2 25  1  0
  3 26  1  0
  3 27  1  0
  3 28  1  0
  5 29  1  0
  7 30  1  0
  8 31  1  0
 10 32  1  0
 11 33  1  0
 13 34  1  0
 13 35  1  0
 13 36  1  0
 14 37  1  0
 15 38  1  0
 17 39  1  0
 18 40  1  0
 19 41  1  0
 20 42  1  0
M  CHG  1  12   1
M  END
$$$$
