
     RDKit          3D

 43 45  0  0  0  0  0  0  0  0999 V2000
   -5.0451    0.4981    1.6549 C   0  0  0  0  0  0  0  0  0  0  0  0
   -5.2946    0.7902    0.3704 C   0  0  0  0  0  0  0  0  0  0  0  0
   -4.3874    0.6069   -0.8175 C   0  0  0  0  0  0  0  0  0  0  0  0
   -3.0525    0.0821   -0.5199 N   0  0  0  0  0  0  0  0  0  0  0  0
   -1.9266    0.8462   -0.2615 C   0  0  0  0  0  0  0  0  0  0  0  0
   -1.9714    2.3368   -0.2126 C   0  0  0  0  0  0  0  0  0  0  0  0
   -0.8687   -0.0333   -0.0995 C   0  0  0  0  0  0  0  0  0  0  0  0
    0.4740    0.3774    0.1725 C   0  0  0  0  0  0  0  0  0  0  0  0
    1.5629   -0.1422   -0.4195 C   0  0  0  0  0  0  0  0  0  0  0  0
    2.9399    0.2794   -0.1416 C   0  0  0  0  0  0  0  0  0  0  0  0
    3.2853    1.6122    0.0772 C   0  0  0  0  0  0  0  0  0  0  0  0
    4.6138    1.9523    0.3075 C   0  0  0  0  0  0  0  0  0  0  0  0
    5.5775    1.0047    0.3077 N   0  0  0  0  0  4  0  0  0  0  0  0
    6.9758    1.3875    0.5670 C   0  0  0  0  0  0  0  0  0  0  0  0
    5.2686   -0.2928    0.0903 C   0  0  0  0  0  0  0  0  0  0  0  0
    3.9536   -0.6774   -0.1463 C   0  0  0  0  0  0  0  0  0  0  0  0
   -1.3697   -1.3657   -0.2221 C   0  0  0  0  0  0  0  0  0  0  0  0
   -0.7989   -2.6545   -0.1110 C   0  0  0  0  0  0  0  0  0  0  0  0
   -1.5952   -3.7909   -0.2857 C   0  0  0  0  0  0  0  0  0  0  0  0
   -2.9510   -3.6638   -0.5602 C   0  0  0  0  0  0  0  0  0  0  0  0
   -3.5455   -2.4039   -0.6634 C   0  0  0  0  0  0  0  0  0  0  0  0
   -2.7371   -1.2662   -0.4904 C   0  0  0  0  0  0  0  0  0  0  0  0
   -5.7957    0.6772    2.4195 H   0  0  0  0  0  0  0  0  0  0  0  0
   -4.1027    0.0689    1.9829 H   0  0  0  0  0  0  0  0  0  0  0  0
   -6.2703    1.2104    0.1305 H   0  0  0  0  0  0  0  0  0  0  0  0
   -4.8555   -0.0699   -1.5407 H   0  0  0  0  0  0  0  0  0  0  0  0
   -4.2592    1.5649   -1.3322 H   0  0  0  0  0  0  0  0  0  0  0  0
   -2.1722    2.7453   -1.2081 H   0  0  0  0  0  0  0  0  0  0  0  0
   -2.7516    2.6816    0.4733 H   0  0  0  0  0  0  0  0  0  0  0  0
   -1.0243    2.7613    0.1328 H   0  0  0  0  0  0  0  0  0  0  0  0
    0.5819    1.1738    0.9043 H   0  0  0  0  0  0  0  0  0  0  0  0
    1.4440   -0.9346   -1.1573 H   0  0  0  0  0  0  0  0  0  0  0  0
    2.5306    2.3961    0.0607 H   0  0  0  0  0  0  0  0  0  0  0  0
    4.9151    2.9802    0.4891 H   0  0  0  0  0  0  0  0  0  0  0  0
    7.1350    1.3322    1.6467 H   0  0  0  0  0  0  0  0  0  0  0  0
    7.6401    0.6983    0.0392 H   0  0  0  0  0  0  0  0  0  0  0  0
    7.1434    2.4032    0.1996 H   0  0  0  0  0  0  0  0  0  0  0  0
    6.0794   -1.0159    0.1074 H   0  0  0  0  0  0  0  0  0  0  0  0
    3.7260   -1.7275   -0.3227 H   0  0  0  0  0  0  0  0  0  0  0  0
    0.2537   -2.7730    0.1227 H   0  0  0  0  0  0  0  0  0  0  0  0
   -1.1530   -4.7800   -0.1977 H   0  0  0  0  0  0  0  0  0  0  0  0
   -3.5620   -4.5549   -0.6870 H   0  0  0  0  0  0  0  0  0  0  0  0
   -4.6101   -2.3209   -0.8593 H   0  0  0  0  0  0  0  0  0  0  0  0
  1  2  2  0
  2  3  1  0
  3  4  1  0
  4  5  1  0
  5  6  1  0
  5  7  2  0
  7  8  1  0
  8  9  2  3
  9 10  1  0
 10 11  2  0
 11 12  1  0
 12 13  2  0
 13 14  1  0
 13 15  1  0
 15 16  2  0
  7 17  1  0
 17 18  2  0
 18 19  1  0
 19 20  2  0
 20 21  1  0
 21 22  2  0
 22  4  1  0
 16 10  1  0
 22 17  1  0
  1 23  1  0
  1 24  1  0
  2 25  1  0
  3 26  1  0
  3 27  1  0
  6 28  1  0
  6 29  1  0
  6 30  1  0
  8 31  1  0
  9 32  1  0
 11 33  1  0
 12 34  1  0
 14 35  1  0
 14 36  1  0
 14 37  1  0
 15 38  1  0
 16 39  1  0
 18 40  1  0
 19 41  1  0
 20 42  1  0
 21 43  1  0
M  CHG  1  13   1
M  END
$$$$
