
     RDKit          3D

 57 59  0  0  0  0  0  0  0  0999 V2000
    1.4846   -2.4791   -3.5004 C   0  0  0  0  0  0  0  0  0  0  0  0
    2.6313   -2.3887   -2.6684 O   0  0  0  0  0  0  0  0  0  0  0  0
    2.7552   -1.2548   -1.9135 C   0  0  0  0  0  0  0  0  0  0  0  0
    1.7896   -0.2626   -1.7693 C   0  0  0  0  0  0  0  0  0  0  0  0
    2.0423    0.8487   -0.9604 C   0  0  0  0  0  0  0  0  0  0  0  0
    3.2590    0.9820   -0.2786 C   0  0  0  0  0  0  0  0  0  0  0  0
    3.4903    2.1577    0.6384 C   0  0  0  0  0  0  0  0  0  0  0  0
    2.9187    1.9041    1.9364 N   0  0  0  0  0  0  0  0  0  0  0  0
    1.5958    2.1755    2.2051 C   0  0  0  0  0  0  0  0  0  0  0  0
    0.8422    2.8575    1.5226 O   0  0  0  0  0  0  0  0  0  0  0  0
    1.0610    1.4353    3.4512 C   0  0  0  0  0  0  0  0  0  0  0  0
    1.8237    0.7725    4.1402 O   0  0  0  0  0  0  0  0  0  0  0  0
   -0.3008    1.5470    3.6095 N   0  0  0  0  0  0  0  0  0  0  0  0
   -1.0596    0.5502    4.3507 C   0  0  0  0  0  0  0  0  0  0  0  0
   -1.2806   -0.7682    3.5667 C   0  0  0  0  0  0  0  0  0  0  0  0
   -0.1689   -1.6663    3.7581 O   0  0  0  0  0  0  0  0  0  0  0  0
    0.3504   -2.0070    2.4708 C   0  0  0  0  0  0  0  0  0  0  0  0
   -0.7733   -1.7296    1.4993 C   0  0  0  0  0  0  0  0  0  0  0  0
   -1.3973   -0.5456    2.1023 N   0  0  0  0  0  0  0  0  0  0  0  0
   -2.9429   -0.1167    1.5957 S   0  0  0  0  0  6  0  0  0  0  0  0
   -3.7922   -1.2777    1.7558 O   0  0  0  0  0  0  0  0  0  0  0  0
   -3.2727    1.1451    2.2200 O   0  0  0  0  0  0  0  0  0  0  0  0
   -2.7193    0.1875   -0.1372 C   0  0  0  0  0  0  0  0  0  0  0  0
   -3.3399   -0.6351   -1.0804 C   0  0  0  0  0  0  0  0  0  0  0  0
   -3.1562   -0.3842   -2.4446 C   0  0  0  0  0  0  0  0  0  0  0  0
   -2.3608    0.6867   -2.8603 C   0  0  0  0  0  0  0  0  0  0  0  0
   -2.0926    1.0151   -4.1606 O   0  0  0  0  0  0  0  0  0  0  0  0
   -3.0238    0.5539   -5.1301 C   0  0  0  0  0  0  0  0  0  0  0  0
   -1.7430    1.5008   -1.9067 C   0  0  0  0  0  0  0  0  0  0  0  0
   -1.9248    1.2614   -0.5432 C   0  0  0  0  0  0  0  0  0  0  0  0
    4.2227   -0.0214   -0.4205 C   0  0  0  0  0  0  0  0  0  0  0  0
    3.9710   -1.1280   -1.2349 C   0  0  0  0  0  0  0  0  0  0  0  0
    1.5750   -3.3913   -4.0971 H   0  0  0  0  0  0  0  0  0  0  0  0
    0.5732   -2.5632   -2.9033 H   0  0  0  0  0  0  0  0  0  0  0  0
    1.4285   -1.6313   -4.1924 H   0  0  0  0  0  0  0  0  0  0  0  0
    0.8259   -0.3224   -2.2651 H   0  0  0  0  0  0  0  0  0  0  0  0
    1.2739    1.6126   -0.8550 H   0  0  0  0  0  0  0  0  0  0  0  0
    4.5623    2.3350    0.7742 H   0  0  0  0  0  0  0  0  0  0  0  0
    3.0575    3.0658    0.2049 H   0  0  0  0  0  0  0  0  0  0  0  0
    3.3442    1.2017    2.5345 H   0  0  0  0  0  0  0  0  0  0  0  0
   -0.7885    2.0237    2.8541 H   0  0  0  0  0  0  0  0  0  0  0  0
   -0.5446    0.3469    5.2962 H   0  0  0  0  0  0  0  0  0  0  0  0
   -2.0244    1.0138    4.5750 H   0  0  0  0  0  0  0  0  0  0  0  0
   -2.1547   -1.2948    3.9679 H   0  0  0  0  0  0  0  0  0  0  0  0
    1.2175   -1.3696    2.2724 H   0  0  0  0  0  0  0  0  0  0  0  0
    0.6728   -3.0522    2.4614 H   0  0  0  0  0  0  0  0  0  0  0  0
   -1.4726   -2.5714    1.4818 H   0  0  0  0  0  0  0  0  0  0  0  0
   -0.3957   -1.5393    0.4929 H   0  0  0  0  0  0  0  0  0  0  0  0
   -3.9683   -1.4676   -0.7698 H   0  0  0  0  0  0  0  0  0  0  0  0
   -3.6380   -1.0457   -3.1585 H   0  0  0  0  0  0  0  0  0  0  0  0
   -2.7897    1.0471   -6.0786 H   0  0  0  0  0  0  0  0  0  0  0  0
   -4.0504    0.8223   -4.8582 H   0  0  0  0  0  0  0  0  0  0  0  0
   -2.9271   -0.5239   -5.2833 H   0  0  0  0  0  0  0  0  0  0  0  0
   -1.1210    2.3330   -2.2274 H   0  0  0  0  0  0  0  0  0  0  0  0
   -1.4470    1.9075    0.1886 H   0  0  0  0  0  0  0  0  0  0  0  0
    5.1729    0.0462    0.1008 H   0  0  0  0  0  0  0  0  0  0  0  0
    4.7289   -1.8993   -1.3434 H   0  0  0  0  0  0  0  0  0  0  0  0
  1  2  1  0
  2  3  1  0
  3  4  2  0
  4  5  1  0
  5  6  2  0
  6  7  1  0
  7  8  1  0
  8  9  1  0
  9 10  2  0
  9 11  1  0
 11 12  2  0
 11 13  1  0
 13 14  1  0
 14 15  1  0
 15 16  1  0
 16 17  1  0
 17 18  1  0
 18 19  1  0
 19 20  1  0
 20 21  2  0
 20 22  2  0
 20 23  1  0
 23 24  2  0
 24 25  1  0
 25 26  2  0
 26 27  1  0
 27 28  1  0
 26 29  1  0
 29 30  2  0
  6 31  1  0
 31 32  2  0
 32  3  1  0
 19 15  1  0
 30 23  1  0
  1 33  1  0
  1 34  1  0
  1 35  1  0
  4 36  1  0
  5 37  1  0
  7 38  1  0
  7 39  1  0
  8 40  1  0
 13 41  1  0
 14 42  1  0
 14 43  1  0
 15 44  1  0
 17 45  1  0
 17 46  1  0
 18 47  1  0
 18 48  1  0
 24 49  1  0
 25 50  1  0
 28 51  1  0
 28 52  1  0
 28 53  1  0
 29 54  1  0
 30 55  1  0
 31 56  1  0
 32 57  1  0
M  END
$$$$
