
     RDKit          3D

 40 41  0  0  0  0  0  0  0  0999 V2000
   -6.7176    2.7465   -0.4817 C   0  0  0  0  0  0  0  0  0  0  0  0
   -5.5165    3.4610   -0.2180 O   0  0  0  0  0  0  0  0  0  0  0  0
   -4.4346    2.7291    0.1845 C   0  0  0  0  0  0  0  0  0  0  0  0
   -4.4010    1.3466    0.3703 C   0  0  0  0  0  0  0  0  0  0  0  0
   -3.2199    0.7190    0.7882 C   0  0  0  0  0  0  0  0  0  0  0  0
   -2.0621    1.4718    1.0237 C   0  0  0  0  0  0  0  0  0  0  0  0
   -0.7833    0.8540    1.4654 C   0  0  0  0  0  0  0  0  0  0  0  0
    0.2552    1.4781    1.6266 O   0  0  0  0  0  0  0  0  0  0  0  0
   -0.9291   -0.4801    1.6529 O   0  0  0  0  0  0  0  0  0  0  0  0
    0.2416   -1.1623    2.1034 C   0  0  0  0  0  0  0  0  0  0  0  0
    1.2686   -1.3919    0.9929 C   0  0  0  0  0  0  0  0  0  0  0  0
    1.3271   -2.4329    0.3389 O   0  0  0  0  0  0  0  0  0  0  0  0
    2.1389   -0.3412    0.7831 N   0  0  0  0  0  0  0  0  0  0  0  0
    3.0238   -0.3465   -0.3674 C   0  0  0  0  0  0  0  0  0  0  0  0
    4.1166   -1.4235   -0.2861 C   0  0  0  0  0  0  0  0  0  0  0  0
    4.3788   -2.0250   -1.5775 N   0  0  0  0  0  0  0  0  0  0  0  0
    3.7868   -3.1705   -2.0549 C   0  0  0  0  0  0  0  0  0  0  0  0
    2.8584   -3.8634   -1.3367 O   0  0  0  0  0  0  0  0  0  0  0  0
    4.1979   -3.5396   -3.2715 C   0  0  0  0  0  0  0  0  0  0  0  0
    5.3588   -2.4242   -3.9194 S   0  0  0  0  0  0  0  0  0  0  0  0
    5.2636   -1.4222   -2.4619 C   0  0  0  0  0  0  0  0  0  0  0  0
    5.8788   -0.3793   -2.3091 O   0  0  0  0  0  0  0  0  0  0  0  0
   -2.0981    2.8578    0.8357 C   0  0  0  0  0  0  0  0  0  0  0  0
   -3.2790    3.4783    0.4194 C   0  0  0  0  0  0  0  0  0  0  0  0
   -7.4760    3.4710   -0.7937 H   0  0  0  0  0  0  0  0  0  0  0  0
   -7.0855    2.2468    0.4205 H   0  0  0  0  0  0  0  0  0  0  0  0
   -6.5808    2.0334   -1.3013 H   0  0  0  0  0  0  0  0  0  0  0  0
   -5.2745    0.7258    0.1985 H   0  0  0  0  0  0  0  0  0  0  0  0
   -3.2229   -0.3603    0.9221 H   0  0  0  0  0  0  0  0  0  0  0  0
    0.7032   -0.6370    2.9487 H   0  0  0  0  0  0  0  0  0  0  0  0
   -0.0697   -2.1429    2.4795 H   0  0  0  0  0  0  0  0  0  0  0  0
    1.8245    0.5693    1.1285 H   0  0  0  0  0  0  0  0  0  0  0  0
    3.4810    0.6467   -0.4336 H   0  0  0  0  0  0  0  0  0  0  0  0
    2.3959   -0.4815   -1.2564 H   0  0  0  0  0  0  0  0  0  0  0  0
    3.8896   -2.2134    0.4380 H   0  0  0  0  0  0  0  0  0  0  0  0
    5.0408   -0.9526    0.0728 H   0  0  0  0  0  0  0  0  0  0  0  0
    2.3820   -3.2544   -0.7321 H   0  0  0  0  0  0  0  0  0  0  0  0
    3.8495   -4.4116   -3.8062 H   0  0  0  0  0  0  0  0  0  0  0  0
   -1.2120    3.4644    1.0115 H   0  0  0  0  0  0  0  0  0  0  0  0
   -3.2988    4.5566    0.2761 H   0  0  0  0  0  0  0  0  0  0  0  0
  1  2  1  0
  2  3  1  0
  3  4  2  0
  4  5  1  0
  5  6  2  0
  6  7  1  0
  7  8  2  0
  7  9  1  0
  9 10  1  0
 10 11  1  0
 11 12  2  0
 11 13  1  0
 13 14  1  0
 14 15  1  0
 15 16  1  0
 16 17  1  0
 17 18  1  0
 17 19  2  0
 19 20  1  0
 20 21  1  0
 21 22  2  0
  6 23  1  0
 23 24  2  0
 24  3  1  0
 21 16  1  0
  1 25  1  0
  1 26  1  0
  1 27  1  0
  4 28  1  0
  5 29  1  0
 10 30  1  0
 10 31  1  0
 13 32  1  0
 14 33  1  0
 14 34  1  0
 15 35  1  0
 15 36  1  0
 18 37  1  0
 19 38  1  0
 23 39  1  0
 24 40  1  0
M  END
$$$$
