
     RDKit          3D

 60 62  0  0  0  0  0  0  0  0999 V2000
   -3.9408    2.7791   -3.0252 C   0  0  0  0  0  0  0  0  0  0  0  0
   -2.4704    2.8649   -2.6236 C   0  0  0  0  0  0  0  0  0  0  0  0
   -2.0760    1.7522   -1.6810 C   0  0  0  0  0  0  0  0  0  0  0  0
   -2.1728    1.9324   -0.2971 C   0  0  0  0  0  0  0  0  0  0  0  0
   -1.7894    0.9094    0.5755 C   0  0  0  0  0  0  0  0  0  0  0  0
   -1.2819   -0.3005    0.0827 C   0  0  0  0  0  0  0  0  0  0  0  0
   -0.8476   -1.2414    1.0307 N   0  0  0  0  0  0  0  0  0  0  0  0
   -0.1327   -2.4085    0.8050 C   0  0  0  0  0  0  0  0  0  0  0  0
    0.1606   -2.8889   -0.2869 O   0  0  0  0  0  0  0  0  0  0  0  0
    0.2727   -3.1135    2.1185 C   0  0  0  0  0  0  0  0  0  0  0  0
    0.7495   -2.0725    3.0917 N   0  0  0  0  0  0  0  0  0  0  0  0
    2.3538   -1.5234    2.9190 S   0  0  0  0  0  6  0  0  0  0  0  0
    3.1495   -2.6138    2.4078 O   0  0  0  0  0  0  0  0  0  0  0  0
    2.6640   -0.8948    4.1830 O   0  0  0  0  0  0  0  0  0  0  0  0
    2.2344   -0.2466    1.7030 C   0  0  0  0  0  0  0  0  0  0  0  0
    1.8253    1.0401    2.0931 C   0  0  0  0  0  0  0  0  0  0  0  0
    1.6836    2.0507    1.1322 C   0  0  0  0  0  0  0  0  0  0  0  0
    1.9503    1.7467   -0.1941 C   0  0  0  0  0  0  0  0  0  0  0  0
    2.3928    0.4753   -0.5656 C   0  0  0  0  0  0  0  0  0  0  0  0
    2.5571   -0.5327    0.3707 C   0  0  0  0  0  0  0  0  0  0  0  0
    2.6073    0.3766   -2.0401 C   0  0  0  0  0  0  0  0  0  0  0  0
    2.1369    1.7524   -2.5186 C   0  0  0  0  0  0  0  0  0  0  0  0
    1.8243    2.5629   -1.3293 N   0  0  0  0  0  0  0  0  0  0  0  0
    1.3336    3.8539   -1.3535 C   0  0  0  0  0  0  0  0  0  0  0  0
    1.3206    4.5020   -2.7209 C   0  0  0  0  0  0  0  0  0  0  0  0
    0.9153    4.4906   -0.3844 O   0  0  0  0  0  0  0  0  0  0  0  0
   -0.9277   -3.8799    2.7351 C   0  0  0  0  0  0  0  0  0  0  0  0
   -0.5019   -4.7008    3.9668 C   0  0  0  0  0  0  0  0  0  0  0  0
   -1.5738   -4.8358    1.7236 C   0  0  0  0  0  0  0  0  0  0  0  0
   -1.2139   -0.4930   -1.2984 C   0  0  0  0  0  0  0  0  0  0  0  0
   -1.6088    0.5210   -2.1747 C   0  0  0  0  0  0  0  0  0  0  0  0
   -4.1502    1.8423   -3.5570 H   0  0  0  0  0  0  0  0  0  0  0  0
   -4.1975    3.6163   -3.6950 H   0  0  0  0  0  0  0  0  0  0  0  0
   -4.6029    2.8291   -2.1561 H   0  0  0  0  0  0  0  0  0  0  0  0
   -1.8382    2.8291   -3.5206 H   0  0  0  0  0  0  0  0  0  0  0  0
   -2.2730    3.8389   -2.1514 H   0  0  0  0  0  0  0  0  0  0  0  0
   -2.5408    2.8726    0.1188 H   0  0  0  0  0  0  0  0  0  0  0  0
   -1.8628    1.0923    1.6449 H   0  0  0  0  0  0  0  0  0  0  0  0
   -0.8934   -0.9556    2.0029 H   0  0  0  0  0  0  0  0  0  0  0  0
    1.0784   -3.8260    1.8963 H   0  0  0  0  0  0  0  0  0  0  0  0
    0.6182   -2.2877    4.0796 H   0  0  0  0  0  0  0  0  0  0  0  0
    1.6108    1.2583    3.1397 H   0  0  0  0  0  0  0  0  0  0  0  0
    1.3579    3.0398    1.4347 H   0  0  0  0  0  0  0  0  0  0  0  0
    2.8891   -1.5221    0.0609 H   0  0  0  0  0  0  0  0  0  0  0  0
    3.6630    0.2173   -2.2833 H   0  0  0  0  0  0  0  0  0  0  0  0
    2.0074   -0.4233   -2.4868 H   0  0  0  0  0  0  0  0  0  0  0  0
    2.9010    2.2505   -3.1202 H   0  0  0  0  0  0  0  0  0  0  0  0
    1.2248    1.6659   -3.1198 H   0  0  0  0  0  0  0  0  0  0  0  0
    1.0952    5.5697   -2.6175 H   0  0  0  0  0  0  0  0  0  0  0  0
    2.3012    4.4292   -3.1962 H   0  0  0  0  0  0  0  0  0  0  0  0
    0.5524    4.0434   -3.3453 H   0  0  0  0  0  0  0  0  0  0  0  0
   -1.6965   -3.1637    3.0544 H   0  0  0  0  0  0  0  0  0  0  0  0
   -1.3576   -5.2496    4.3759 H   0  0  0  0  0  0  0  0  0  0  0  0
    0.2765   -5.4272    3.7047 H   0  0  0  0  0  0  0  0  0  0  0  0
   -0.1145   -4.0671    4.7713 H   0  0  0  0  0  0  0  0  0  0  0  0
   -2.3966   -5.3974    2.1866 H   0  0  0  0  0  0  0  0  0  0  0  0
   -1.9902   -4.2963    0.8689 H   0  0  0  0  0  0  0  0  0  0  0  0
   -0.8465   -5.5627    1.3459 H   0  0  0  0  0  0  0  0  0  0  0  0
   -0.8577   -1.4247   -1.7255 H   0  0  0  0  0  0  0  0  0  0  0  0
   -1.5515    0.3449   -3.2461 H   0  0  0  0  0  0  0  0  0  0  0  0
  1  2  1  0
  2  3  1  0
  3  4  2  0
  4  5  1  0
  5  6  2  0
  6  7  1  0
  7  8  1  0
  8  9  2  0
  8 10  1  0
 10 11  1  0
 11 12  1  0
 12 13  2  0
 12 14  2  0
 12 15  1  0
 15 16  2  0
 16 17  1  0
 17 18  2  0
 18 19  1  0
 19 20  2  0
 19 21  1  0
 21 22  1  0
 22 23  1  0
 23 24  1  0
 24 25  1  0
 24 26  2  0
 10 27  1  0
 27 28  1  0
 27 29  1  0
  6 30  1  0
 30 31  2  0
 31  3  1  0
 20 15  1  0
 23 18  1  0
  1 32  1  0
  1 33  1  0
  1 34  1  0
  2 35  1  0
  2 36  1  0
  4 37  1  0
  5 38  1  0
  7 39  1  0
 10 40  1  0
 11 41  1  0
 16 42  1  0
 17 43  1  0
 20 44  1  0
 21 45  1  0
 21 46  1  0
 22 47  1  0
 22 48  1  0
 25 49  1  0
 25 50  1  0
 25 51  1  0
 27 52  1  0
 28 53  1  0
 28 54  1  0
 28 55  1  0
 29 56  1  0
 29 57  1  0
 29 58  1  0
 30 59  1  0
 31 60  1  0
M  END
$$$$
