
     RDKit          3D

 67 69  0  0  0  0  0  0  0  0999 V2000
    8.2160    0.1425   -1.9977 C   0  0  0  0  0  0  0  0  0  0  0  0
    7.3805   -0.2182   -0.7828 C   0  0  0  0  0  0  0  0  0  0  0  0
    6.2590   -1.0031   -1.1896 O   0  0  0  0  0  0  0  0  0  0  0  0
    5.0288   -0.4072   -1.1674 C   0  0  0  0  0  0  0  0  0  0  0  0
    4.8060    0.9553   -1.3830 C   0  0  0  0  0  0  0  0  0  0  0  0
    3.5042    1.4676   -1.3800 C   0  0  0  0  0  0  0  0  0  0  0  0
    2.4046    0.6272   -1.1629 C   0  0  0  0  0  0  0  0  0  0  0  0
    1.0028    1.1713   -1.2188 C   0  0  0  0  0  0  0  0  0  0  0  0
    0.5403    1.8086    0.0978 C   0  0  0  0  0  0  0  0  0  0  0  0
   -0.8493    2.2215    0.0134 N   0  0  0  0  0  0  0  0  0  0  0  0
   -1.2332    3.2529   -0.8151 C   0  0  0  0  0  0  0  0  0  0  0  0
   -0.4289    4.0057   -1.3605 O   0  0  0  0  0  0  0  0  0  0  0  0
   -2.7373    3.4083   -1.0006 C   0  0  0  0  0  0  0  0  0  0  0  0
   -3.4286    2.1949   -0.6935 O   0  0  0  0  0  0  0  0  0  0  0  0
   -4.2969    2.2650    0.3345 C   0  0  0  0  0  0  0  0  0  0  0  0
   -4.5871    3.2334    1.0143 O   0  0  0  0  0  0  0  0  0  0  0  0
   -4.9034    0.9389    0.5095 C   0  0  0  0  0  0  0  0  0  0  0  0
   -6.2054    0.7812    0.0127 C   0  0  0  0  0  0  0  0  0  0  0  0
   -6.8443   -0.4474    0.1713 C   0  0  0  0  0  0  0  0  0  0  0  0
   -8.2090   -0.6309   -0.3373 N   0  0  0  0  0  4  0  0  0  0  0  0
   -8.7850   -1.6983   -0.0739 O   0  0  0  0  0  0  0  0  0  0  0  0
   -8.7045    0.2949   -0.9974 O   0  0  0  0  0  1  0  0  0  0  0  0
   -6.2038   -1.4956    0.8430 C   0  0  0  0  0  0  0  0  0  0  0  0
   -4.9039   -1.3154    1.3363 C   0  0  0  0  0  0  0  0  0  0  0  0
   -4.2109   -0.1010    1.1727 C   0  0  0  0  0  0  0  0  0  0  0  0
   -2.9034    0.0889    1.6713 N   0  0  0  0  0  0  0  0  0  0  0  0
   -1.9781   -1.0798    1.6373 C   0  0  0  0  0  0  0  0  0  0  0  0
   -1.7212   -1.6352    3.0444 C   0  0  0  0  0  0  0  0  0  0  0  0
   -1.1381   -0.6765    3.9408 O   0  0  0  0  0  0  0  0  0  0  0  0
   -1.5322    0.6760    3.6651 C   0  0  0  0  0  0  0  0  0  0  0  0
   -2.9062    0.7920    2.9841 C   0  0  0  0  0  0  0  0  0  0  0  0
    2.6244   -0.7369   -0.9445 C   0  0  0  0  0  0  0  0  0  0  0  0
    3.9229   -1.2481   -0.9821 C   0  0  0  0  0  0  0  0  0  0  0  0
    4.0648   -2.6032   -0.8065 O   0  0  0  0  0  0  0  0  0  0  0  0
    4.2434   -3.2476   -2.0773 C   0  0  0  0  0  0  0  0  0  0  0  0
    3.3966   -4.5096   -2.0787 C   0  0  0  0  0  0  0  0  0  0  0  0
    7.6315    0.7343   -2.7111 H   0  0  0  0  0  0  0  0  0  0  0  0
    8.5393   -0.7605   -2.5242 H   0  0  0  0  0  0  0  0  0  0  0  0
    9.1006    0.7170   -1.7022 H   0  0  0  0  0  0  0  0  0  0  0  0
    7.1058    0.6691   -0.2016 H   0  0  0  0  0  0  0  0  0  0  0  0
    7.9781   -0.8426   -0.1120 H   0  0  0  0  0  0  0  0  0  0  0  0
    5.6208    1.6374   -1.5943 H   0  0  0  0  0  0  0  0  0  0  0  0
    3.3532    2.5304   -1.5709 H   0  0  0  0  0  0  0  0  0  0  0  0
    0.9419    1.8993   -2.0391 H   0  0  0  0  0  0  0  0  0  0  0  0
    0.3099    0.3640   -1.5040 H   0  0  0  0  0  0  0  0  0  0  0  0
    0.6180    1.0953    0.9259 H   0  0  0  0  0  0  0  0  0  0  0  0
    1.1537    2.6860    0.3351 H   0  0  0  0  0  0  0  0  0  0  0  0
   -1.5651    1.6414    0.4280 H   0  0  0  0  0  0  0  0  0  0  0  0
   -3.0748    4.2689   -0.4145 H   0  0  0  0  0  0  0  0  0  0  0  0
   -2.9192    3.6240   -2.0589 H   0  0  0  0  0  0  0  0  0  0  0  0
   -6.6951    1.6153   -0.4896 H   0  0  0  0  0  0  0  0  0  0  0  0
   -6.6986   -2.4523    0.9946 H   0  0  0  0  0  0  0  0  0  0  0  0
   -4.4603   -2.1431    1.8876 H   0  0  0  0  0  0  0  0  0  0  0  0
   -2.3386   -1.8727    0.9755 H   0  0  0  0  0  0  0  0  0  0  0  0
   -1.0302   -0.7334    1.2141 H   0  0  0  0  0  0  0  0  0  0  0  0
   -2.6534   -1.9821    3.5019 H   0  0  0  0  0  0  0  0  0  0  0  0
   -1.0443   -2.4948    2.9942 H   0  0  0  0  0  0  0  0  0  0  0  0
   -0.7543    1.1321    3.0444 H   0  0  0  0  0  0  0  0  0  0  0  0
   -1.5488    1.2063    4.6244 H   0  0  0  0  0  0  0  0  0  0  0  0
   -3.6611    0.3532    3.6450 H   0  0  0  0  0  0  0  0  0  0  0  0
   -3.1419    1.8486    2.8446 H   0  0  0  0  0  0  0  0  0  0  0  0
    1.7906   -1.4122   -0.7763 H   0  0  0  0  0  0  0  0  0  0  0  0
    5.3032   -3.5064   -2.2028 H   0  0  0  0  0  0  0  0  0  0  0  0
    3.9333   -2.6132   -2.9214 H   0  0  0  0  0  0  0  0  0  0  0  0
    3.4575   -5.0254   -3.0425 H   0  0  0  0  0  0  0  0  0  0  0  0
    2.3446   -4.2617   -1.8714 H   0  0  0  0  0  0  0  0  0  0  0  0
    3.7202   -5.1943   -1.2883 H   0  0  0  0  0  0  0  0  0  0  0  0
  1  2  1  0
  2  3  1  0
  3  4  1  0
  4  5  2  0
  5  6  1  0
  6  7  2  0
  7  8  1  0
  8  9  1  0
  9 10  1  0
 10 11  1  0
 11 12  2  0
 11 13  1  0
 13 14  1  0
 14 15  1  0
 15 16  2  0
 15 17  1  0
 17 18  2  0
 18 19  1  0
 19 20  1  0
 20 21  2  0
 20 22  1  0
 19 23  2  0
 23 24  1  0
 24 25  2  0
 25 26  1  0
 26 27  1  0
 27 28  1  0
 28 29  1  0
 29 30  1  0
 30 31  1  0
  7 32  1  0
 32 33  2  0
 33 34  1  0
 34 35  1  0
 35 36  1  0
 33  4  1  0
 25 17  1  0
 31 26  1  0
  1 37  1  0
  1 38  1  0
  1 39  1  0
  2 40  1  0
  2 41  1  0
  5 42  1  0
  6 43  1  0
  8 44  1  0
  8 45  1  0
  9 46  1  0
  9 47  1  0
 10 48  1  0
 13 49  1  0
 13 50  1  0
 18 51  1  0
 23 52  1  0
 24 53  1  0
 27 54  1  0
 27 55  1  0
 28 56  1  0
 28 57  1  0
 30 58  1  0
 30 59  1  0
 31 60  1  0
 31 61  1  0
 32 62  1  0
 35 63  1  0
 35 64  1  0
 36 65  1  0
 36 66  1  0
 36 67  1  0
M  CHG  2  20   1  22  -1
M  END
$$$$
