
     RDKit          3D

 68 69  0  0  0  0  0  0  0  0999 V2000
    0.7474   -2.6418    4.1816 C   0  0  0  0  0  0  0  0  0  0  0  0
    0.4016   -2.5656    2.8063 O   0  0  0  0  0  0  0  0  0  0  0  0
   -0.9901   -2.3040    2.6253 C   0  0  0  0  0  0  0  0  0  0  0  0
   -1.3301   -2.1570    1.1323 C   0  0  0  0  0  0  0  0  0  0  0  0
   -0.5970   -1.0663    0.4576 N   0  0  0  0  0  0  0  0  0  0  0  0
    0.6296   -1.3787   -0.1267 C   0  0  0  0  0  0  0  0  0  0  0  0
    1.0028   -2.5428   -0.2817 O   0  0  0  0  0  0  0  0  0  0  0  0
    1.4876   -0.2275   -0.6148 C   0  0  0  0  0  0  0  0  0  0  0  0
    2.8538   -0.7136   -1.0906 C   0  0  0  0  0  0  0  0  0  0  0  0
    3.7550    0.4403   -1.4786 C   0  0  0  0  0  0  0  0  0  0  0  0
    3.4104    1.6115   -1.3539 O   0  0  0  0  0  0  0  0  0  0  0  0
    4.9658    0.0033   -1.9658 N   0  0  0  0  0  0  0  0  0  0  0  0
    5.9989    0.8167   -2.3741 C   0  0  0  0  0  0  0  0  0  0  0  0
    6.0926    2.2255   -2.3651 C   0  0  0  0  0  0  0  0  0  0  0  0
    7.3451    2.4913   -2.8588 C   0  0  0  0  0  0  0  0  0  0  0  0
    8.1132    3.7229   -3.1112 C   0  0  0  0  0  0  0  0  0  0  0  0
    7.9605    1.3181   -3.1625 O   0  0  0  0  0  0  0  0  0  0  0  0
    7.1174    0.2660   -2.8604 N   0  0  0  0  0  0  0  0  0  0  0  0
   -1.2701    0.2541    0.2967 C   0  0  0  0  0  0  0  0  0  0  0  0
   -2.2838    0.2465   -0.8944 C   0  0  0  0  0  0  0  0  0  0  0  0
   -3.0679    1.1713   -1.1000 O   0  0  0  0  0  0  0  0  0  0  0  0
   -2.1757   -0.8432   -1.7422 N   0  0  0  0  0  0  0  0  0  0  0  0
   -3.0188   -1.1002   -2.9172 C   0  0  0  0  0  0  0  0  0  0  0  0
   -2.8838    0.0275   -3.9535 C   0  0  0  0  0  0  0  0  0  0  0  0
   -4.4888   -1.2683   -2.5048 C   0  0  0  0  0  0  0  0  0  0  0  0
   -2.5408   -2.4119   -3.5655 C   0  0  0  0  0  0  0  0  0  0  0  0
   -1.8322    0.7899    1.6090 C   0  0  0  0  0  0  0  0  0  0  0  0
   -3.1870    0.6830    1.9589 C   0  0  0  0  0  0  0  0  0  0  0  0
   -3.6552    1.1695    3.1863 C   0  0  0  0  0  0  0  0  0  0  0  0
   -2.7762    1.7636    4.0895 C   0  0  0  0  0  0  0  0  0  0  0  0
   -3.1034    2.2750    5.3145 O   0  0  0  0  0  0  0  0  0  0  0  0
   -4.4728    2.2159    5.6897 C   0  0  0  0  0  0  0  0  0  0  0  0
   -1.4258    1.8663    3.7549 C   0  0  0  0  0  0  0  0  0  0  0  0
   -0.9557    1.3860    2.5300 C   0  0  0  0  0  0  0  0  0  0  0  0
    0.5561   -1.6866    4.6775 H   0  0  0  0  0  0  0  0  0  0  0  0
    1.8133   -2.8649    4.2555 H   0  0  0  0  0  0  0  0  0  0  0  0
    0.1876   -3.4409    4.6751 H   0  0  0  0  0  0  0  0  0  0  0  0
   -1.5638   -3.1431    3.0354 H   0  0  0  0  0  0  0  0  0  0  0  0
   -1.2618   -1.4038    3.1809 H   0  0  0  0  0  0  0  0  0  0  0  0
   -1.0884   -3.1015    0.6300 H   0  0  0  0  0  0  0  0  0  0  0  0
   -2.4063   -2.0008    1.0013 H   0  0  0  0  0  0  0  0  0  0  0  0
    1.6191    0.4837    0.2089 H   0  0  0  0  0  0  0  0  0  0  0  0
    0.9742    0.2729   -1.4434 H   0  0  0  0  0  0  0  0  0  0  0  0
    3.3520   -1.2813   -0.2950 H   0  0  0  0  0  0  0  0  0  0  0  0
    2.7364   -1.3749   -1.9578 H   0  0  0  0  0  0  0  0  0  0  0  0
    5.1570   -0.9838   -2.0652 H   0  0  0  0  0  0  0  0  0  0  0  0
    5.3625    2.9471   -2.0312 H   0  0  0  0  0  0  0  0  0  0  0  0
    9.0797    3.6862   -2.5986 H   0  0  0  0  0  0  0  0  0  0  0  0
    8.2953    3.8496   -4.1835 H   0  0  0  0  0  0  0  0  0  0  0  0
    7.5727    4.6042   -2.7501 H   0  0  0  0  0  0  0  0  0  0  0  0
   -0.5325    0.9933   -0.0331 H   0  0  0  0  0  0  0  0  0  0  0  0
   -1.5558   -1.5878   -1.4401 H   0  0  0  0  0  0  0  0  0  0  0  0
   -3.4347   -0.2113   -4.8705 H   0  0  0  0  0  0  0  0  0  0  0  0
   -3.2746    0.9803   -3.5814 H   0  0  0  0  0  0  0  0  0  0  0  0
   -1.8330    0.1883   -4.2246 H   0  0  0  0  0  0  0  0  0  0  0  0
   -4.5982   -2.0582   -1.7536 H   0  0  0  0  0  0  0  0  0  0  0  0
   -5.1121   -1.5333   -3.3654 H   0  0  0  0  0  0  0  0  0  0  0  0
   -4.9006   -0.3510   -2.0725 H   0  0  0  0  0  0  0  0  0  0  0  0
   -3.1378   -2.6628   -4.4491 H   0  0  0  0  0  0  0  0  0  0  0  0
   -2.6133   -3.2497   -2.8629 H   0  0  0  0  0  0  0  0  0  0  0  0
   -1.4926   -2.3394   -3.8760 H   0  0  0  0  0  0  0  0  0  0  0  0
   -3.9046    0.2317    1.2760 H   0  0  0  0  0  0  0  0  0  0  0  0
   -4.7146    1.0741    3.4005 H   0  0  0  0  0  0  0  0  0  0  0  0
   -4.8120    1.1785    5.7731 H   0  0  0  0  0  0  0  0  0  0  0  0
   -4.5687    2.6775    6.6772 H   0  0  0  0  0  0  0  0  0  0  0  0
   -5.1001    2.7835    4.9945 H   0  0  0  0  0  0  0  0  0  0  0  0
   -0.7320    2.3257    4.4548 H   0  0  0  0  0  0  0  0  0  0  0  0
    0.1049    1.4754    2.3026 H   0  0  0  0  0  0  0  0  0  0  0  0
  1  2  1  0
  2  3  1  0
  3  4  1  0
  4  5  1  0
  5  6  1  0
  6  7  2  0
  6  8  1  0
  8  9  1  0
  9 10  1  0
 10 11  2  0
 10 12  1  0
 12 13  1  0
 13 14  1  0
 14 15  2  0
 15 16  1  0
 15 17  1  0
 17 18  1  0
  5 19  1  0
 19 20  1  0
 20 21  2  0
 20 22  1  0
 22 23  1  0
 23 24  1  0
 23 25  1  0
 23 26  1  0
 19 27  1  0
 27 28  2  0
 28 29  1  0
 29 30  2  0
 30 31  1  0
 31 32  1  0
 30 33  1  0
 33 34  2  0
 18 13  2  0
 34 27  1  0
  1 35  1  0
  1 36  1  0
  1 37  1  0
  3 38  1  0
  3 39  1  0
  4 40  1  0
  4 41  1  0
  8 42  1  0
  8 43  1  0
  9 44  1  0
  9 45  1  0
 12 46  1  0
 14 47  1  0
 16 48  1  0
 16 49  1  0
 16 50  1  0
 19 51  1  0
 22 52  1  0
 24 53  1  0
 24 54  1  0
 24 55  1  0
 25 56  1  0
 25 57  1  0
 25 58  1  0
 26 59  1  0
 26 60  1  0
 26 61  1  0
 28 62  1  0
 29 63  1  0
 32 64  1  0
 32 65  1  0
 32 66  1  0
 33 67  1  0
 34 68  1  0
M  END
$$$$
