
     RDKit          3D

 51 53  0  0  0  0  0  0  0  0999 V2000
    5.3995   -0.4050   -2.6989 N   0  0  0  0  0  0  0  0  0  0  0  0
    4.4931   -0.7024   -2.0386 C   0  0  0  0  0  0  0  0  0  0  0  0
    3.4142   -1.1151   -1.2056 C   0  0  0  0  0  0  0  0  0  0  0  0
    2.4882   -1.9463   -1.7175 C   0  0  0  0  0  0  0  0  0  0  0  0
    1.3680   -2.5144   -1.0490 C   0  0  0  0  0  0  0  0  0  0  0  0
    1.1190   -2.8178    0.2853 C   0  0  0  0  0  0  0  0  0  0  0  0
   -0.1717   -3.3918    0.3783 C   0  0  0  0  0  0  0  0  0  0  0  0
   -0.6565   -3.4402   -0.9052 C   0  0  0  0  0  0  0  0  0  0  0  0
   -1.9389   -3.8942   -1.4943 C   0  0  0  0  0  0  0  0  0  0  0  0
   -2.7384   -2.7339   -1.7911 N   0  0  0  0  0  0  0  0  0  0  0  0
   -3.6114   -2.1995   -0.8751 C   0  0  0  0  0  0  0  0  0  0  0  0
   -3.9633   -2.7117    0.1792 O   0  0  0  0  0  0  0  0  0  0  0  0
   -4.1532   -0.8071   -1.2662 C   0  0  0  0  0  0  0  0  0  0  0  0
   -3.7872   -0.3036   -2.3179 O   0  0  0  0  0  0  0  0  0  0  0  0
   -5.0156   -0.3069   -0.3130 N   0  0  0  0  0  0  0  0  0  0  0  0
   -5.6884    0.9274   -0.3201 C   0  0  0  0  0  0  0  0  0  0  0  0
   -6.5043    1.2174    0.7797 C   0  0  0  0  0  0  0  0  0  0  0  0
   -7.1993    2.4267    0.8404 C   0  0  0  0  0  0  0  0  0  0  0  0
   -8.1974    2.7664    2.2008 Cl  0  0  0  0  0  0  0  0  0  0  0  0
   -7.0939    3.3587   -0.1860 C   0  0  0  0  0  0  0  0  0  0  0  0
   -6.2843    3.0684   -1.2794 C   0  0  0  0  0  0  0  0  0  0  0  0
   -6.1482    4.2132   -2.5585 Cl  0  0  0  0  0  0  0  0  0  0  0  0
   -5.5831    1.8617   -1.3530 C   0  0  0  0  0  0  0  0  0  0  0  0
    0.2673   -2.9367   -1.7673 O   0  0  0  0  0  0  0  0  0  0  0  0
    3.3715   -0.5539    0.1749 C   0  0  0  0  0  0  0  0  0  0  0  0
    2.3407   -0.1063    0.6636 O   0  0  0  0  0  0  0  0  0  0  0  0
    4.5748   -0.5641    0.8456 N   0  0  0  0  0  0  0  0  0  0  0  0
    4.7178    0.0722    2.1372 C   0  0  0  0  0  0  0  0  0  0  0  0
    5.1710    1.4936    1.9930 C   0  0  0  0  0  0  0  0  0  0  0  0
    6.5262    1.8322    1.9356 C   0  0  0  0  0  0  0  0  0  0  0  0
    6.8982    3.1646    1.7797 C   0  0  0  0  0  0  0  0  0  0  0  0
    5.8990    4.1181    1.6810 C   0  0  0  0  0  0  0  0  0  0  0  0
    4.5815    3.8296    1.7236 N   0  0  0  0  0  0  0  0  0  0  0  0
    4.2469    2.5275    1.8712 C   0  0  0  0  0  0  0  0  0  0  0  0
    2.5739   -2.2386   -2.7637 H   0  0  0  0  0  0  0  0  0  0  0  0
    1.7863   -2.6351    1.1160 H   0  0  0  0  0  0  0  0  0  0  0  0
   -0.6880   -3.7181    1.2710 H   0  0  0  0  0  0  0  0  0  0  0  0
   -1.7657   -4.4301   -2.4327 H   0  0  0  0  0  0  0  0  0  0  0  0
   -2.4741   -4.5560   -0.8057 H   0  0  0  0  0  0  0  0  0  0  0  0
   -2.4319   -2.1095   -2.5326 H   0  0  0  0  0  0  0  0  0  0  0  0
   -5.1518   -0.9239    0.4865 H   0  0  0  0  0  0  0  0  0  0  0  0
   -6.6034    0.5077    1.5975 H   0  0  0  0  0  0  0  0  0  0  0  0
   -7.6355    4.2989   -0.1364 H   0  0  0  0  0  0  0  0  0  0  0  0
   -4.9625    1.6776   -2.2247 H   0  0  0  0  0  0  0  0  0  0  0  0
    5.4271   -0.8406    0.3756 H   0  0  0  0  0  0  0  0  0  0  0  0
    5.4571   -0.5043    2.7042 H   0  0  0  0  0  0  0  0  0  0  0  0
    3.7756    0.0209    2.6943 H   0  0  0  0  0  0  0  0  0  0  0  0
    7.2949    1.0681    2.0107 H   0  0  0  0  0  0  0  0  0  0  0  0
    7.9421    3.4537    1.7339 H   0  0  0  0  0  0  0  0  0  0  0  0
    6.1382    5.1707    1.5585 H   0  0  0  0  0  0  0  0  0  0  0  0
    3.1762    2.3315    1.8830 H   0  0  0  0  0  0  0  0  0  0  0  0
  1  2  3  0
  2  3  1  0
  3  4  2  3
  4  5  1  0
  5  6  2  0
  6  7  1  0
  7  8  2  0
  8  9  1  0
  9 10  1  0
 10 11  1  0
 11 12  2  0
 11 13  1  0
 13 14  2  0
 13 15  1  0
 15 16  1  0
 16 17  2  0
 17 18  1  0
 18 19  1  0
 18 20  2  0
 20 21  1  0
 21 22  1  0
 21 23  2  0
  8 24  1  0
  3 25  1  0
 25 26  2  0
 25 27  1  0
 27 28  1  0
 28 29  1  0
 29 30  2  0
 30 31  1  0
 31 32  2  0
 32 33  1  0
 33 34  2  0
 24  5  1  0
 34 29  1  0
 23 16  1  0
  4 35  1  0
  6 36  1  0
  7 37  1  0
  9 38  1  0
  9 39  1  0
 10 40  1  0
 15 41  1  0
 17 42  1  0
 20 43  1  0
 23 44  1  0
 27 45  1  0
 28 46  1  0
 28 47  1  0
 30 48  1  0
 31 49  1  0
 32 50  1  0
 34 51  1  0
M  END
$$$$
