
     RDKit          3D

 57 61  0  0  0  0  0  0  0  0999 V2000
   -6.4377    4.2976    0.5108 C   0  0  0  0  0  0  0  0  0  0  0  0
   -5.7659    3.1878    1.2637 C   0  0  0  0  0  0  0  0  0  0  0  0
   -6.5135    2.1058    1.7413 C   0  0  0  0  0  0  0  0  0  0  0  0
   -5.8884    1.0535    2.4140 C   0  0  0  0  0  0  0  0  0  0  0  0
   -4.5017    1.0625    2.6170 C   0  0  0  0  0  0  0  0  0  0  0  0
   -3.8246   -0.0802    3.3307 C   0  0  0  0  0  0  0  0  0  0  0  0
   -3.5713   -1.1893    2.4357 N   0  0  0  0  0  0  0  0  0  0  0  0
   -4.4215   -2.2451    2.3759 N   0  0  0  0  0  0  0  0  0  0  0  0
   -3.9324   -3.1103    1.4871 N   0  0  0  0  0  0  0  0  0  0  0  0
   -2.7676   -2.5893    1.0153 C   0  0  0  0  0  0  0  0  0  0  0  0
   -1.8324   -3.0942    0.0486 C   0  0  0  0  0  0  0  0  0  0  0  0
   -1.9230   -4.1591   -0.5512 O   0  0  0  0  0  0  0  0  0  0  0  0
   -0.7632   -2.2268   -0.1487 N   0  0  0  0  0  0  0  0  0  0  0  0
   -0.5951   -1.0255    0.5303 C   0  0  0  0  0  0  0  0  0  0  0  0
    0.6375   -0.1981    0.1844 C   0  0  0  0  0  0  0  0  0  0  0  0
    1.9355   -0.9671    0.4445 C   0  0  0  0  0  0  0  0  0  0  0  0
    3.0882   -0.3540   -0.3354 C   0  0  0  0  0  0  0  0  0  0  0  0
    2.8500   -0.4280   -1.8022 N   0  0  0  0  0  0  0  0  0  0  0  0
    3.7900   -1.5762   -2.6595 S   0  0  0  0  0  6  0  0  0  0  0  0
    3.6279   -2.8366   -1.9640 O   0  0  0  0  0  0  0  0  0  0  0  0
    3.4780   -1.4484   -4.0663 O   0  0  0  0  0  0  0  0  0  0  0  0
    5.4463   -0.9910   -2.4238 C   0  0  0  0  0  0  0  0  0  0  0  0
    6.3854   -1.7872   -1.7628 C   0  0  0  0  0  0  0  0  0  0  0  0
    7.6826   -1.3070   -1.5837 C   0  0  0  0  0  0  0  0  0  0  0  0
    8.0340   -0.0444   -2.0658 C   0  0  0  0  0  0  0  0  0  0  0  0
    7.0927    0.7430   -2.7318 C   0  0  0  0  0  0  0  0  0  0  0  0
    5.7937    0.2708   -2.9152 C   0  0  0  0  0  0  0  0  0  0  0  0
    1.4245   -0.4169   -2.2250 C   0  0  0  0  0  0  0  0  0  0  0  0
    0.5583    0.3615   -1.2435 C   0  0  0  0  0  0  0  0  0  0  0  0
   -1.4343   -0.5650    1.4180 N   0  0  0  0  0  0  0  0  0  0  0  0
   -2.4995   -1.3811    1.6112 C   0  0  0  0  0  0  0  0  0  0  0  0
   -3.7518    2.1362    2.1174 C   0  0  0  0  0  0  0  0  0  0  0  0
   -4.3787    3.1878    1.4447 C   0  0  0  0  0  0  0  0  0  0  0  0
   -6.5460    4.0229   -0.5431 H   0  0  0  0  0  0  0  0  0  0  0  0
   -5.8574    5.2240    0.5748 H   0  0  0  0  0  0  0  0  0  0  0  0
   -7.4288    4.5052    0.9284 H   0  0  0  0  0  0  0  0  0  0  0  0
   -7.5901    2.0722    1.5878 H   0  0  0  0  0  0  0  0  0  0  0  0
   -6.4918    0.2191    2.7686 H   0  0  0  0  0  0  0  0  0  0  0  0
   -4.4441   -0.4411    4.1603 H   0  0  0  0  0  0  0  0  0  0  0  0
   -2.8665    0.2327    3.7615 H   0  0  0  0  0  0  0  0  0  0  0  0
   -0.0747   -2.5719   -0.8010 H   0  0  0  0  0  0  0  0  0  0  0  0
    0.6232    0.6681    0.8621 H   0  0  0  0  0  0  0  0  0  0  0  0
    1.8407   -2.0265    0.1801 H   0  0  0  0  0  0  0  0  0  0  0  0
    2.1592   -0.9439    1.5181 H   0  0  0  0  0  0  0  0  0  0  0  0
    4.0196   -0.8551   -0.0546 H   0  0  0  0  0  0  0  0  0  0  0  0
    3.2179    0.7015   -0.0670 H   0  0  0  0  0  0  0  0  0  0  0  0
    6.1191   -2.7740   -1.3910 H   0  0  0  0  0  0  0  0  0  0  0  0
    8.4232   -1.9180   -1.0730 H   0  0  0  0  0  0  0  0  0  0  0  0
    9.0480    0.3245   -1.9282 H   0  0  0  0  0  0  0  0  0  0  0  0
    7.3751    1.7216   -3.1125 H   0  0  0  0  0  0  0  0  0  0  0  0
    5.0613    0.8798   -3.4404 H   0  0  0  0  0  0  0  0  0  0  0  0
    1.3583    0.0612   -3.2088 H   0  0  0  0  0  0  0  0  0  0  0  0
    1.0503   -1.4415   -2.3232 H   0  0  0  0  0  0  0  0  0  0  0  0
    0.9046    1.4038   -1.2286 H   0  0  0  0  0  0  0  0  0  0  0  0
   -0.4775    0.3865   -1.6023 H   0  0  0  0  0  0  0  0  0  0  0  0
   -2.6704    2.1566    2.2391 H   0  0  0  0  0  0  0  0  0  0  0  0
   -3.7753    4.0068    1.0595 H   0  0  0  0  0  0  0  0  0  0  0  0
  1  2  1  0
  2  3  2  0
  3  4  1  0
  4  5  2  0
  5  6  1  0
  6  7  1  0
  7  8  1  0
  8  9  2  0
  9 10  1  0
 10 11  1  0
 11 12  2  0
 11 13  1  0
 13 14  1  0
 14 15  1  0
 15 16  1  0
 16 17  1  0
 17 18  1  0
 18 19  1  0
 19 20  2  0
 19 21  2  0
 19 22  1  0
 22 23  2  0
 23 24  1  0
 24 25  2  0
 25 26  1  0
 26 27  2  0
 18 28  1  0
 28 29  1  0
 14 30  2  0
 30 31  1  0
  5 32  1  0
 32 33  2  0
 33  2  1  0
 31  7  1  0
 31 10  2  0
 29 15  1  0
 27 22  1  0
  1 34  1  0
  1 35  1  0
  1 36  1  0
  3 37  1  0
  4 38  1  0
  6 39  1  0
  6 40  1  0
 13 41  1  0
 15 42  1  0
 16 43  1  0
 16 44  1  0
 17 45  1  0
 17 46  1  0
 23 47  1  0
 24 48  1  0
 25 49  1  0
 26 50  1  0
 27 51  1  0
 28 52  1  0
 28 53  1  0
 29 54  1  0
 29 55  1  0
 32 56  1  0
 33 57  1  0
M  END
$$$$
