
     RDKit          3D

 52 57  0  0  0  0  0  0  0  0999 V2000
    4.9532   -2.4281   -0.9612 C   0  0  0  0  0  0  0  0  0  0  0  0
    3.9232   -1.8536   -0.0363 C   0  0  0  0  0  0  0  0  0  0  0  0
    3.8596   -2.2274    1.3203 C   0  0  0  0  0  0  0  0  0  0  0  0
    4.9715   -3.3755    1.9860 Cl  0  0  0  0  0  0  0  0  0  0  0  0
    2.8989   -1.6814    2.1951 C   0  0  0  0  0  0  0  0  0  0  0  0
    1.9691   -0.7464    1.7411 C   0  0  0  0  0  0  0  0  0  0  0  0
    2.0178   -0.3767    0.4072 C   0  0  0  0  0  0  0  0  0  0  0  0
    2.9856   -0.9168   -0.4540 C   0  0  0  0  0  0  0  0  0  0  0  0
    2.8460   -0.3570   -1.7245 N   0  0  0  0  0  0  0  0  0  0  0  0
    1.7953    0.5632   -1.7751 C   0  0  0  0  0  0  0  0  0  0  0  0
    1.4856    1.2108   -2.7648 O   0  0  0  0  0  0  0  0  0  0  0  0
    1.1710    0.5952   -0.3601 C   0  0  1  0  0  0  0  0  0  0  0  0
   -0.2498    0.1602   -0.3253 C   0  0  0  0  0  0  0  0  0  0  0  0
   -1.0877    1.2758   -0.1575 C   0  0  0  0  0  0  0  0  0  0  0  0
   -2.3851    0.8570   -0.0899 C   0  0  0  0  0  0  0  0  0  0  0  0
   -3.4718    1.5851    0.1604 O   0  0  0  0  0  0  0  0  0  0  0  0
   -2.3692   -0.5404   -0.2724 N   0  0  0  0  0  0  0  0  0  0  0  0
   -3.5120   -1.3926   -0.2875 C   0  0  0  0  0  0  0  0  0  0  0  0
   -3.4576   -2.6481    0.3326 C   0  0  0  0  0  0  0  0  0  0  0  0
   -4.5785   -3.4798    0.3181 C   0  0  0  0  0  0  0  0  0  0  0  0
   -5.7495   -3.0652   -0.3152 C   0  0  0  0  0  0  0  0  0  0  0  0
   -5.8053   -1.8175   -0.9353 C   0  0  0  0  0  0  0  0  0  0  0  0
   -4.6901   -0.9780   -0.9225 C   0  0  0  0  0  0  0  0  0  0  0  0
   -1.0328   -0.9559   -0.4471 C   0  0  0  0  0  0  0  0  0  0  0  0
   -0.6548   -2.1986   -0.7439 O   0  0  0  0  0  0  0  0  0  0  0  0
   -0.2829    2.5116   -0.1211 C   0  0  1  0  0  0  0  0  0  0  0  0
   -0.6291    3.6198    0.8779 C   0  0  0  0  0  0  0  0  0  0  0  0
    0.3890    4.7094    0.8430 N   0  0  0  0  0  0  0  0  0  0  0  0
    1.7485    4.1421    1.0278 C   0  0  0  0  0  0  0  0  0  0  0  0
    2.0974    2.9297    0.1142 C   0  0  0  0  0  0  0  0  0  0  0  0
    1.0480    1.9395    0.2424 N   0  0  0  0  0  0  0  0  0  0  0  0
    5.9577   -2.1368   -0.6371 H   0  0  0  0  0  0  0  0  0  0  0  0
    4.8306   -2.0828   -1.9913 H   0  0  0  0  0  0  0  0  0  0  0  0
    4.8801   -3.5205   -0.9832 H   0  0  0  0  0  0  0  0  0  0  0  0
    2.8761   -1.9879    3.2386 H   0  0  0  0  0  0  0  0  0  0  0  0
    1.2273   -0.3211    2.4104 H   0  0  0  0  0  0  0  0  0  0  0  0
    3.4120   -0.5636   -2.5324 H   0  0  0  0  0  0  0  0  0  0  0  0
   -4.1690    1.0030    0.5118 H   0  0  0  0  0  0  0  0  0  0  0  0
   -2.5699   -2.9774    0.8701 H   0  0  0  0  0  0  0  0  0  0  0  0
   -4.5424   -4.4492    0.8102 H   0  0  0  0  0  0  0  0  0  0  0  0
   -6.6206   -3.7162   -0.3261 H   0  0  0  0  0  0  0  0  0  0  0  0
   -6.7164   -1.5030   -1.4392 H   0  0  0  0  0  0  0  0  0  0  0  0
   -4.7456   -0.0289   -1.4530 H   0  0  0  0  0  0  0  0  0  0  0  0
   -1.4148   -2.6821   -1.1144 H   0  0  0  0  0  0  0  0  0  0  0  0
   -0.2508    2.9289   -1.1384 H   0  0  0  0  0  0  0  0  0  0  0  0
   -0.7024    3.2264    1.8999 H   0  0  0  0  0  0  0  0  0  0  0  0
   -1.6082    4.0505    0.6392 H   0  0  0  0  0  0  0  0  0  0  0  0
    0.3533    5.1301   -0.0862 H   0  0  0  0  0  0  0  0  0  0  0  0
    2.4814    4.9389    0.8584 H   0  0  0  0  0  0  0  0  0  0  0  0
    1.8523    3.8419    2.0784 H   0  0  0  0  0  0  0  0  0  0  0  0
    3.0610    2.5187    0.4347 H   0  0  0  0  0  0  0  0  0  0  0  0
    2.2047    3.2707   -0.9224 H   0  0  0  0  0  0  0  0  0  0  0  0
  1  2  1  0
  2  3  2  0
  3  4  1  0
  3  5  1  0
  5  6  2  0
  6  7  1  0
  7  8  2  0
  8  9  1  0
  9 10  1  0
 10 11  2  0
 10 12  1  0
 12 13  1  0
 13 14  1  0
 14 15  2  0
 15 16  1  0
 15 17  1  0
 17 18  1  0
 18 19  2  0
 19 20  1  0
 20 21  2  0
 21 22  1  0
 22 23  2  0
 17 24  1  0
 24 25  1  0
 14 26  1  0
 26 27  1  0
 27 28  1  0
 28 29  1  0
 29 30  1  0
 30 31  1  0
  8  2  1  0
 12 31  1  1
 12  7  1  0
 24 13  2  0
 31 26  1  0
 23 18  1  0
  1 32  1  0
  1 33  1  0
  1 34  1  0
  5 35  1  0
  6 36  1  0
  9 37  1  0
 16 38  1  0
 19 39  1  0
 20 40  1  0
 21 41  1  0
 22 42  1  0
 23 43  1  0
 25 44  1  0
 26 45  1  6
 27 46  1  0
 27 47  1  0
 28 48  1  0
 29 49  1  0
 29 50  1  0
 30 51  1  0
 30 52  1  0
M  END
$$$$
