
     RDKit          3D

 34 35  0  0  0  0  0  0  0  0999 V2000
   -3.5711   -0.7850    2.6638 O   0  0  0  0  0  0  0  0  0  0  0  0
   -3.5588   -0.7841    1.4285 C   0  0  0  0  0  0  0  0  0  0  0  0
   -4.6036   -1.5561    0.6094 C   0  0  0  0  0  0  0  0  0  0  0  0
   -4.0457   -3.2315    0.4128 Cl  0  0  0  0  0  0  0  0  0  0  0  0
   -6.1866   -1.5132    1.4194 Cl  0  0  0  0  0  0  0  0  0  0  0  0
   -2.5670   -0.0921    0.7303 N   0  0  0  0  0  0  0  0  0  0  0  0
   -2.5003    0.0285   -0.7293 C   0  0  0  0  0  0  0  0  0  0  0  0
   -1.3005    0.8606   -1.2240 C   0  0  0  0  0  0  0  0  0  0  0  0
   -0.0539    0.3876   -0.6152 N   0  0  0  0  0  0  0  0  0  0  0  0
    1.1175    1.0991   -1.1440 C   0  0  0  0  0  0  0  0  0  0  0  0
    2.4353    0.4646   -0.7506 C   0  0  0  0  0  0  0  0  0  0  0  0
    2.6946   -0.8830   -1.0433 C   0  0  0  0  0  0  0  0  0  0  0  0
    3.9145   -1.4642   -0.6944 C   0  0  0  0  0  0  0  0  0  0  0  0
    4.8910   -0.7037   -0.0545 C   0  0  0  0  0  0  0  0  0  0  0  0
    4.6489    0.6376    0.2365 C   0  0  0  0  0  0  0  0  0  0  0  0
    3.4286    1.2204   -0.1112 C   0  0  0  0  0  0  0  0  0  0  0  0
   -0.1154    0.4118    0.8640 C   0  0  0  0  0  0  0  0  0  0  0  0
   -1.5218    0.6111    1.4739 C   0  0  0  0  0  0  0  0  0  0  0  0
   -4.7547   -1.1263   -0.3804 H   0  0  0  0  0  0  0  0  0  0  0  0
   -2.4501   -0.9846   -1.1446 H   0  0  0  0  0  0  0  0  0  0  0  0
   -3.4300    0.4915   -1.0773 H   0  0  0  0  0  0  0  0  0  0  0  0
   -1.4629    1.9216   -0.9930 H   0  0  0  0  0  0  0  0  0  0  0  0
   -1.2515    0.7699   -2.3157 H   0  0  0  0  0  0  0  0  0  0  0  0
    1.0919    2.1530   -0.8369 H   0  0  0  0  0  0  0  0  0  0  0  0
    1.0892    1.0979   -2.2419 H   0  0  0  0  0  0  0  0  0  0  0  0
    1.9361   -1.4864   -1.5379 H   0  0  0  0  0  0  0  0  0  0  0  0
    4.1004   -2.5107   -0.9205 H   0  0  0  0  0  0  0  0  0  0  0  0
    5.8404   -1.1570    0.2179 H   0  0  0  0  0  0  0  0  0  0  0  0
    5.4116    1.2302    0.7348 H   0  0  0  0  0  0  0  0  0  0  0  0
    3.2587    2.2686    0.1231 H   0  0  0  0  0  0  0  0  0  0  0  0
    0.2774   -0.5502    1.2154 H   0  0  0  0  0  0  0  0  0  0  0  0
    0.5312    1.1910    1.2872 H   0  0  0  0  0  0  0  0  0  0  0  0
   -1.5063    0.3075    2.5256 H   0  0  0  0  0  0  0  0  0  0  0  0
   -1.7873    1.6754    1.4499 H   0  0  0  0  0  0  0  0  0  0  0  0
  1  2  2  0
  2  3  1  0
  3  4  1  0
  3  5  1  0
  2  6  1  0
  6  7  1  0
  7  8  1  0
  8  9  1  0
  9 10  1  0
 10 11  1  0
 11 12  2  0
 12 13  1  0
 13 14  2  0
 14 15  1  0
 15 16  2  0
  9 17  1  0
 17 18  1  0
 18  6  1  0
 16 11  1  0
  3 19  1  0
  7 20  1  0
  7 21  1  0
  8 22  1  0
  8 23  1  0
 10 24  1  0
 10 25  1  0
 12 26  1  0
 13 27  1  0
 14 28  1  0
 15 29  1  0
 16 30  1  0
 17 31  1  0
 17 32  1  0
 18 33  1  0
 18 34  1  0
M  END
$$$$
