
     RDKit          3D

 32 34  0  0  0  0  0  0  0  0999 V2000
   -3.0260    1.6621   -1.7023 C   0  0  0  0  0  0  0  0  0  0  0  0
   -2.7677    0.3644   -2.4455 C   0  0  0  0  0  0  0  0  0  0  0  0
   -3.3534   -0.7151   -1.7106 O   0  0  0  0  0  0  0  0  0  0  0  0
   -2.4709   -1.7474   -1.4446 C   0  0  0  0  0  0  0  0  0  0  0  0
   -2.9320   -3.0327   -1.7593 C   0  0  0  0  0  0  0  0  0  0  0  0
   -2.1500   -4.1499   -1.4866 C   0  0  0  0  0  0  0  0  0  0  0  0
   -0.9009   -4.0147   -0.8750 C   0  0  0  0  0  0  0  0  0  0  0  0
   -0.4617   -2.7250   -0.5294 C   0  0  0  0  0  0  0  0  0  0  0  0
    0.9984   -2.2569    0.2522 S   0  0  0  0  0  0  0  0  0  0  0  0
    0.5192   -0.6305    0.1897 C   0  0  0  0  0  0  0  0  0  0  0  0
    1.2778    0.3986    0.6808 N   0  0  0  0  0  0  0  0  0  0  0  0
    2.5205    0.3322    1.2697 C   0  0  0  0  0  0  0  0  0  0  0  0
    3.1524   -0.6999    1.4670 O   0  0  0  0  0  0  0  0  0  0  0  0
    3.0736    1.6310    1.6613 C   0  0  0  0  0  0  0  0  0  0  0  0
    4.3088    1.8581    2.2476 C   0  0  0  0  0  0  0  0  0  0  0  0
    4.5554    3.2405    2.4997 C   0  0  0  0  0  0  0  0  0  0  0  0
    3.4953    4.0102    2.0980 C   0  0  0  0  0  0  0  0  0  0  0  0
    3.4506    5.9128    2.2641 Br  0  0  0  0  0  0  0  0  0  0  0  0
    2.2276    3.1093    1.4314 S   0  0  0  0  0  0  0  0  0  0  0  0
   -0.6417   -0.3909   -0.3681 N   0  0  0  0  0  0  0  0  0  0  0  0
   -1.2212   -1.5820   -0.7941 C   0  0  0  0  0  0  0  0  0  0  0  0
   -4.0981    1.8009   -1.5304 H   0  0  0  0  0  0  0  0  0  0  0  0
   -2.6450    2.5177   -2.2682 H   0  0  0  0  0  0  0  0  0  0  0  0
   -2.5469    1.6490   -0.7181 H   0  0  0  0  0  0  0  0  0  0  0  0
   -3.2670    0.3985   -3.4192 H   0  0  0  0  0  0  0  0  0  0  0  0
   -1.6978    0.2405   -2.6473 H   0  0  0  0  0  0  0  0  0  0  0  0
   -3.9076   -3.1526   -2.2254 H   0  0  0  0  0  0  0  0  0  0  0  0
   -2.5158   -5.1392   -1.7476 H   0  0  0  0  0  0  0  0  0  0  0  0
   -0.2921   -4.8874   -0.6571 H   0  0  0  0  0  0  0  0  0  0  0  0
    0.8475    1.3059    0.5662 H   0  0  0  0  0  0  0  0  0  0  0  0
    5.0085    1.0601    2.4766 H   0  0  0  0  0  0  0  0  0  0  0  0
    5.4601    3.6323    2.9486 H   0  0  0  0  0  0  0  0  0  0  0  0
  1  2  1  0
  2  3  1  0
  3  4  1  0
  4  5  2  0
  5  6  1  0
  6  7  2  0
  7  8  1  0
  8  9  1  0
  9 10  1  0
 10 11  1  0
 11 12  1  0
 12 13  2  0
 12 14  1  0
 14 15  2  0
 15 16  1  0
 16 17  2  0
 17 18  1  0
 17 19  1  0
 10 20  2  0
 20 21  1  0
 21  4  1  0
 21  8  2  0
 19 14  1  0
  1 22  1  0
  1 23  1  0
  1 24  1  0
  2 25  1  0
  2 26  1  0
  5 27  1  0
  6 28  1  0
  7 29  1  0
 11 30  1  0
 15 31  1  0
 16 32  1  0
M  END
$$$$
