
     RDKit          3D

 65 66  0  0  0  0  0  0  0  0999 V2000
   -2.3795    7.0587   -0.5631 C   0  0  0  0  0  0  0  0  0  0  0  0
   -2.9317    6.2968    0.5033 O   0  0  0  0  0  0  0  0  0  0  0  0
   -2.8086    4.9377    0.4162 C   0  0  0  0  0  0  0  0  0  0  0  0
   -3.2030    4.2388    1.5569 C   0  0  0  0  0  0  0  0  0  0  0  0
   -3.1279    2.8437    1.6019 C   0  0  0  0  0  0  0  0  0  0  0  0
   -2.6659    2.1127    0.4952 C   0  0  0  0  0  0  0  0  0  0  0  0
   -2.5632    0.5944    0.5850 C   0  0  0  0  0  0  0  0  0  0  0  0
   -3.0256   -0.2114   -0.6704 C   0  0  0  0  0  0  0  0  0  0  0  0
   -3.7971    0.2341   -1.5158 O   0  0  0  0  0  0  0  0  0  0  0  0
   -2.6163   -1.5420   -0.6510 N   0  0  0  0  0  0  0  0  0  0  0  0
   -2.7093   -2.4603   -1.7931 C   0  0  0  0  0  0  0  0  0  0  0  0
   -4.1522   -2.6130   -2.3013 C   0  0  0  0  0  0  0  0  0  0  0  0
   -1.7961   -1.9812   -2.9311 C   0  0  0  0  0  0  0  0  0  0  0  0
   -2.2231   -3.8442   -1.3198 C   0  0  0  0  0  0  0  0  0  0  0  0
   -1.2500    0.1585    1.1234 N   0  0  0  0  0  0  0  0  0  0  0  0
   -1.2089   -0.2815    2.5252 C   0  0  0  0  0  0  0  0  0  0  0  0
   -1.7697   -1.6950    2.7177 C   0  0  0  0  0  0  0  0  0  0  0  0
   -1.1511   -2.6028    1.8098 O   0  0  0  0  0  0  0  0  0  0  0  0
   -0.1396    0.1985    0.2855 C   0  0  0  0  0  0  0  0  0  0  0  0
   -0.2257    0.5303   -0.8970 O   0  0  0  0  0  0  0  0  0  0  0  0
    1.2013   -0.2143    0.8633 C   0  0  0  0  0  0  0  0  0  0  0  0
    2.2632   -0.3085   -0.2282 C   0  0  0  0  0  0  0  0  0  0  0  0
    3.6289   -0.6472    0.3345 C   0  0  0  0  0  0  0  0  0  0  0  0
    3.8538   -0.6892    1.5407 O   0  0  0  0  0  0  0  0  0  0  0  0
    4.5478   -0.8749   -0.6670 N   0  0  0  0  0  0  0  0  0  0  0  0
    5.8779   -1.1737   -0.4754 C   0  0  0  0  0  0  0  0  0  0  0  0
    6.6153   -1.2702    0.7238 C   0  0  0  0  0  0  0  0  0  0  0  0
    7.8901   -1.5776    0.3236 C   0  0  0  0  0  0  0  0  0  0  0  0
    9.1616   -1.8116    1.0293 C   0  0  0  0  0  0  0  0  0  0  0  0
    7.9162   -1.6861   -1.0313 O   0  0  0  0  0  0  0  0  0  0  0  0
    6.6569   -1.4181   -1.5347 N   0  0  0  0  0  0  0  0  0  0  0  0
   -2.2787    2.8265   -0.6471 C   0  0  0  0  0  0  0  0  0  0  0  0
   -2.3518    4.2254   -0.6882 C   0  0  0  0  0  0  0  0  0  0  0  0
   -1.3040    6.8739   -0.6618 H   0  0  0  0  0  0  0  0  0  0  0  0
   -2.9048    6.8637   -1.5036 H   0  0  0  0  0  0  0  0  0  0  0  0
   -2.5161    8.1182   -0.3201 H   0  0  0  0  0  0  0  0  0  0  0  0
   -3.5668    4.7865    2.4217 H   0  0  0  0  0  0  0  0  0  0  0  0
   -3.4331    2.3344    2.5124 H   0  0  0  0  0  0  0  0  0  0  0  0
   -3.3155    0.2871    1.3281 H   0  0  0  0  0  0  0  0  0  0  0  0
   -1.8796   -1.7429    0.0218 H   0  0  0  0  0  0  0  0  0  0  0  0
   -4.8381   -2.8525   -1.4810 H   0  0  0  0  0  0  0  0  0  0  0  0
   -4.2191   -3.4151   -3.0437 H   0  0  0  0  0  0  0  0  0  0  0  0
   -4.5226   -1.7045   -2.7864 H   0  0  0  0  0  0  0  0  0  0  0  0
   -2.1053   -1.0067   -3.3195 H   0  0  0  0  0  0  0  0  0  0  0  0
   -1.7945   -2.6881   -3.7686 H   0  0  0  0  0  0  0  0  0  0  0  0
   -0.7630   -1.8784   -2.5800 H   0  0  0  0  0  0  0  0  0  0  0  0
   -2.8513   -4.2199   -0.5059 H   0  0  0  0  0  0  0  0  0  0  0  0
   -1.1946   -3.7960   -0.9450 H   0  0  0  0  0  0  0  0  0  0  0  0
   -2.2487   -4.5779   -2.1326 H   0  0  0  0  0  0  0  0  0  0  0  0
   -0.1808   -0.2600    2.8947 H   0  0  0  0  0  0  0  0  0  0  0  0
   -1.7721    0.4350    3.1321 H   0  0  0  0  0  0  0  0  0  0  0  0
   -2.8474   -1.7153    2.5350 H   0  0  0  0  0  0  0  0  0  0  0  0
   -1.5826   -2.0338    3.7412 H   0  0  0  0  0  0  0  0  0  0  0  0
   -1.3971   -3.5022    2.0924 H   0  0  0  0  0  0  0  0  0  0  0  0
    1.1109   -1.1909    1.3493 H   0  0  0  0  0  0  0  0  0  0  0  0
    1.4979    0.5313    1.6098 H   0  0  0  0  0  0  0  0  0  0  0  0
    2.3486    0.6460   -0.7624 H   0  0  0  0  0  0  0  0  0  0  0  0
    1.9782   -1.0790   -0.9556 H   0  0  0  0  0  0  0  0  0  0  0  0
    4.2703   -0.8366   -1.6379 H   0  0  0  0  0  0  0  0  0  0  0  0
    6.2733   -1.1229    1.7373 H   0  0  0  0  0  0  0  0  0  0  0  0
    9.1484   -1.3483    2.0216 H   0  0  0  0  0  0  0  0  0  0  0  0
   10.0029   -1.3893    0.4679 H   0  0  0  0  0  0  0  0  0  0  0  0
    9.3329   -2.8858    1.1517 H   0  0  0  0  0  0  0  0  0  0  0  0
   -1.9167    2.2977   -1.5294 H   0  0  0  0  0  0  0  0  0  0  0  0
   -2.0478    4.7194   -1.6045 H   0  0  0  0  0  0  0  0  0  0  0  0
  1  2  1  0
  2  3  1  0
  3  4  2  0
  4  5  1  0
  5  6  2  0
  6  7  1  0
  7  8  1  0
  8  9  2  0
  8 10  1  0
 10 11  1  0
 11 12  1  0
 11 13  1  0
 11 14  1  0
  7 15  1  0
 15 16  1  0
 16 17  1  0
 17 18  1  0
 15 19  1  0
 19 20  2  0
 19 21  1  0
 21 22  1  0
 22 23  1  0
 23 24  2  0
 23 25  1  0
 25 26  1  0
 26 27  1  0
 27 28  2  0
 28 29  1  0
 28 30  1  0
 30 31  1  0
  6 32  1  0
 32 33  2  0
 33  3  1  0
 31 26  2  0
  1 34  1  0
  1 35  1  0
  1 36  1  0
  4 37  1  0
  5 38  1  0
  7 39  1  0
 10 40  1  0
 12 41  1  0
 12 42  1  0
 12 43  1  0
 13 44  1  0
 13 45  1  0
 13 46  1  0
 14 47  1  0
 14 48  1  0
 14 49  1  0
 16 50  1  0
 16 51  1  0
 17 52  1  0
 17 53  1  0
 18 54  1  0
 21 55  1  0
 21 56  1  0
 22 57  1  0
 22 58  1  0
 25 59  1  0
 27 60  1  0
 29 61  1  0
 29 62  1  0
 29 63  1  0
 32 64  1  0
 33 65  1  0
M  END
$$$$
