
     RDKit          3D

 31 33  0  0  0  0  0  0  0  0999 V2000
   -2.1369    3.1733   -0.4063 N   0  0  0  0  0  0  0  0  0  0  0  0
   -2.1540    2.3092    0.6540 C   0  0  0  0  0  0  0  0  0  0  0  0
   -2.7777    2.5636    1.6734 O   0  0  0  0  0  0  0  0  0  0  0  0
   -1.3867    1.0519    0.4832 C   0  0  0  0  0  0  0  0  0  0  0  0
   -0.0820    1.1565   -0.0085 C   0  0  0  0  0  0  0  0  0  0  0  0
    0.6650    0.0020   -0.1680 C   0  0  0  0  0  0  0  0  0  0  0  0
    2.0546    0.0008   -0.6744 C   0  0  0  0  0  0  0  0  0  0  0  0
    2.9692   -0.9839   -0.2544 C   0  0  0  0  0  0  0  0  0  0  0  0
    4.2894   -1.0022   -0.7146 C   0  0  0  0  0  0  0  0  0  0  0  0
    4.7259   -0.0347   -1.6133 C   0  0  0  0  0  0  0  0  0  0  0  0
    3.8426    0.9459   -2.0541 C   0  0  0  0  0  0  0  0  0  0  0  0
    2.5220    0.9617   -1.5911 C   0  0  0  0  0  0  0  0  0  0  0  0
    0.1546   -1.2122    0.1516 N   0  0  0  0  0  0  0  0  0  0  0  0
   -1.0945   -1.3146    0.6324 C   0  0  0  0  0  0  0  0  0  0  0  0
   -1.5694   -2.5824    0.9423 C   0  0  0  0  0  0  0  0  0  0  0  0
   -2.8581   -2.7902    1.4390 C   0  0  0  0  0  0  0  0  0  0  0  0
   -3.6946   -1.7015    1.6299 C   0  0  0  0  0  0  0  0  0  0  0  0
   -5.4431   -1.9621    2.2951 Br  0  0  0  0  0  0  0  0  0  0  0  0
   -3.2466   -0.4178    1.3284 C   0  0  0  0  0  0  0  0  0  0  0  0
   -1.9354   -0.2034    0.8276 C   0  0  0  0  0  0  0  0  0  0  0  0
   -1.8300    2.8927   -1.3275 H   0  0  0  0  0  0  0  0  0  0  0  0
   -2.7484    3.9779   -0.3393 H   0  0  0  0  0  0  0  0  0  0  0  0
    0.3466    2.1306   -0.2191 H   0  0  0  0  0  0  0  0  0  0  0  0
    2.6508   -1.7530    0.4485 H   0  0  0  0  0  0  0  0  0  0  0  0
    4.9715   -1.7748   -0.3694 H   0  0  0  0  0  0  0  0  0  0  0  0
    5.7512   -0.0487   -1.9735 H   0  0  0  0  0  0  0  0  0  0  0  0
    4.1783    1.6978   -2.7639 H   0  0  0  0  0  0  0  0  0  0  0  0
    1.8585    1.7320   -1.9762 H   0  0  0  0  0  0  0  0  0  0  0  0
   -0.9147   -3.4385    0.7907 H   0  0  0  0  0  0  0  0  0  0  0  0
   -3.1893   -3.7992    1.6689 H   0  0  0  0  0  0  0  0  0  0  0  0
   -3.9187    0.4231    1.4886 H   0  0  0  0  0  0  0  0  0  0  0  0
  1  2  1  0
  2  3  2  0
  2  4  1  0
  4  5  2  0
  5  6  1  0
  6  7  1  0
  7  8  2  0
  8  9  1  0
  9 10  2  0
 10 11  1  0
 11 12  2  0
  6 13  2  0
 13 14  1  0
 14 15  2  0
 15 16  1  0
 16 17  2  0
 17 18  1  0
 17 19  1  0
 19 20  2  0
 20  4  1  0
 12  7  1  0
 20 14  1  0
  1 21  1  0
  1 22  1  0
  5 23  1  0
  8 24  1  0
  9 25  1  0
 10 26  1  0
 11 27  1  0
 12 28  1  0
 15 29  1  0
 16 30  1  0
 19 31  1  0
M  END
$$$$
