
     RDKit          3D

 57 60  0  0  0  0  0  0  0  0999 V2000
   -6.6166   -1.7400   -0.7171 C   0  0  0  0  0  0  0  0  0  0  0  0
   -5.2958   -1.4460   -0.0014 C   0  0  0  0  0  0  0  0  0  0  0  0
   -5.1156   -2.4083    1.1740 C   0  0  0  0  0  0  0  0  0  0  0  0
   -4.1129   -1.5773   -0.9665 C   0  0  0  0  0  0  0  0  0  0  0  0
   -4.2015   -2.2881   -1.9709 O   0  0  0  0  0  0  0  0  0  0  0  0
   -2.9357   -0.9077   -0.6449 N   0  0  0  0  0  0  0  0  0  0  0  0
   -2.8324    0.1400    0.3823 C   0  0  0  0  0  0  0  0  0  0  0  0
   -1.3868    0.5894    0.6548 C   0  0  0  0  0  0  0  0  0  0  0  0
   -0.6610    0.9785   -0.5802 N   0  0  0  0  0  0  0  0  0  0  0  0
   -0.4689    2.3824   -0.6695 C   0  0  0  0  0  0  0  0  0  0  0  0
   -1.4927    3.2645   -1.0433 C   0  0  0  0  0  0  0  0  0  0  0  0
   -1.2650    4.6413   -1.0838 C   0  0  0  0  0  0  0  0  0  0  0  0
   -0.0146    5.1522   -0.7448 C   0  0  0  0  0  0  0  0  0  0  0  0
    1.0160    4.2924   -0.3607 C   0  0  0  0  0  0  0  0  0  0  0  0
    0.7964    2.9154   -0.3179 C   0  0  0  0  0  0  0  0  0  0  0  0
    1.7762    1.9681    0.0475 N   0  0  0  0  0  0  0  0  0  0  0  0
    3.0543    2.1909    0.5094 C   0  0  0  0  0  0  0  0  0  0  0  0
    3.5546    3.2837    0.7576 O   0  0  0  0  0  0  0  0  0  0  0  0
    3.8656    0.9618    0.7647 C   0  0  0  0  0  0  0  0  0  0  0  0
    4.9008    1.0354    1.7100 C   0  0  0  0  0  0  0  0  0  0  0  0
    5.6837   -0.0881    1.9897 C   0  0  0  0  0  0  0  0  0  0  0  0
    5.4366   -1.2881    1.3266 C   0  0  0  0  0  0  0  0  0  0  0  0
    4.4297   -1.3584    0.3584 C   0  0  0  0  0  0  0  0  0  0  0  0
    3.6398   -0.2417    0.0798 C   0  0  0  0  0  0  0  0  0  0  0  0
    4.1539   -2.4959   -0.3569 O   0  0  0  0  0  0  0  0  0  0  0  0
    5.2084   -3.4584   -0.2408 C   0  0  0  0  0  0  0  0  0  0  0  0
    5.6713   -3.5862    1.2013 C   0  0  0  0  0  0  0  0  0  0  0  0
    6.2286   -2.3548    1.6652 O   0  0  0  0  0  0  0  0  0  0  0  0
   -1.1485    0.3509   -1.8336 C   0  0  0  0  0  0  0  0  0  0  0  0
   -1.7853   -1.0202   -1.5553 C   0  0  0  0  0  0  0  0  0  0  0  0
   -7.4669   -1.5822   -0.0434 H   0  0  0  0  0  0  0  0  0  0  0  0
   -6.6612   -2.7747   -1.0774 H   0  0  0  0  0  0  0  0  0  0  0  0
   -6.7434   -1.0795   -1.5828 H   0  0  0  0  0  0  0  0  0  0  0  0
   -5.3542   -0.4165    0.3654 H   0  0  0  0  0  0  0  0  0  0  0  0
   -4.1778   -2.2284    1.7111 H   0  0  0  0  0  0  0  0  0  0  0  0
   -5.0967   -3.4522    0.8329 H   0  0  0  0  0  0  0  0  0  0  0  0
   -5.9387   -2.3030    1.8873 H   0  0  0  0  0  0  0  0  0  0  0  0
   -3.2821   -0.2112    1.3138 H   0  0  0  0  0  0  0  0  0  0  0  0
   -3.4290    0.9897    0.0292 H   0  0  0  0  0  0  0  0  0  0  0  0
   -1.3802    1.3890    1.4074 H   0  0  0  0  0  0  0  0  0  0  0  0
   -0.8363   -0.2511    1.0974 H   0  0  0  0  0  0  0  0  0  0  0  0
   -2.4807    2.8945   -1.2983 H   0  0  0  0  0  0  0  0  0  0  0  0
   -2.0647    5.3158   -1.3790 H   0  0  0  0  0  0  0  0  0  0  0  0
    0.1641    6.2241   -0.7777 H   0  0  0  0  0  0  0  0  0  0  0  0
    1.9794    4.7218   -0.1066 H   0  0  0  0  0  0  0  0  0  0  0  0
    1.4111    1.0219    0.0002 H   0  0  0  0  0  0  0  0  0  0  0  0
    5.0974    1.9688    2.2320 H   0  0  0  0  0  0  0  0  0  0  0  0
    6.4786   -0.0266    2.7275 H   0  0  0  0  0  0  0  0  0  0  0  0
    2.8846   -0.3215   -0.6960 H   0  0  0  0  0  0  0  0  0  0  0  0
    4.8187   -4.4176   -0.5954 H   0  0  0  0  0  0  0  0  0  0  0  0
    6.0292   -3.1571   -0.9025 H   0  0  0  0  0  0  0  0  0  0  0  0
    6.4477   -4.3528    1.2838 H   0  0  0  0  0  0  0  0  0  0  0  0
    4.8443   -3.8668    1.8648 H   0  0  0  0  0  0  0  0  0  0  0  0
   -0.3001    0.2277   -2.5128 H   0  0  0  0  0  0  0  0  0  0  0  0
   -1.8914    0.9730   -2.3432 H   0  0  0  0  0  0  0  0  0  0  0  0
   -2.0744   -1.4913   -2.5001 H   0  0  0  0  0  0  0  0  0  0  0  0
   -1.0596   -1.6812   -1.0649 H   0  0  0  0  0  0  0  0  0  0  0  0
  1  2  1  0
  2  3  1  0
  2  4  1  0
  4  5  2  0
  4  6  1  0
  6  7  1  0
  7  8  1  0
  8  9  1  0
  9 10  1  0
 10 11  2  0
 11 12  1  0
 12 13  2  0
 13 14  1  0
 14 15  2  0
 15 16  1  0
 16 17  1  0
 17 18  2  0
 17 19  1  0
 19 20  2  0
 20 21  1  0
 21 22  2  0
 22 23  1  0
 23 24  2  0
 23 25  1  0
 25 26  1  0
 26 27  1  0
 27 28  1  0
  9 29  1  0
 29 30  1  0
 30  6  1  0
 15 10  1  0
 24 19  1  0
 28 22  1  0
  1 31  1  0
  1 32  1  0
  1 33  1  0
  2 34  1  0
  3 35  1  0
  3 36  1  0
  3 37  1  0
  7 38  1  0
  7 39  1  0
  8 40  1  0
  8 41  1  0
 11 42  1  0
 12 43  1  0
 13 44  1  0
 14 45  1  0
 16 46  1  0
 20 47  1  0
 21 48  1  0
 24 49  1  0
 26 50  1  0
 26 51  1  0
 27 52  1  0
 27 53  1  0
 29 54  1  0
 29 55  1  0
 30 56  1  0
 30 57  1  0
M  END
$$$$
