
     RDKit          3D

 58 62  0  0  0  0  0  0  0  0999 V2000
    7.6430    1.4777    3.8833 C   0  0  0  0  0  0  0  0  0  0  0  0
    7.1382    1.9153    2.6294 O   0  0  0  0  0  0  0  0  0  0  0  0
    5.8269    1.6344    2.3390 C   0  0  0  0  0  0  0  0  0  0  0  0
    4.9674    0.9241    3.1806 C   0  0  0  0  0  0  0  0  0  0  0  0
    3.6381    0.7055    2.8104 C   0  0  0  0  0  0  0  0  0  0  0  0
    3.1419    1.1868    1.5953 C   0  0  0  0  0  0  0  0  0  0  0  0
    1.7402    0.9584    1.2548 C   0  0  0  0  0  0  0  0  0  0  0  0
    0.7914    0.3919    1.9765 N   0  0  0  0  0  0  0  0  0  0  0  0
   -0.3294    0.4414    1.1724 C   0  0  0  0  0  0  0  0  0  0  0  0
   -1.6216   -0.1131    1.6506 C   0  0  0  0  0  0  0  0  0  0  0  0
   -2.0738   -1.2206    0.8261 N   0  0  0  0  0  0  0  0  0  0  0  0
   -3.2336   -1.3037    0.0912 C   0  0  0  0  0  0  0  0  0  0  0  0
   -4.3916   -0.0189   -0.0008 S   0  0  0  0  0  0  0  0  0  0  0  0
   -5.7396   -0.7856   -0.9449 C   0  0  0  0  0  0  0  0  0  0  0  0
   -5.6455   -0.4950   -2.4232 C   0  0  0  0  0  0  0  0  0  0  0  0
   -6.2202    0.6696   -2.9616 C   0  0  0  0  0  0  0  0  0  0  0  0
   -6.1254    0.9446   -4.3296 C   0  0  0  0  0  0  0  0  0  0  0  0
   -5.4581    0.0578   -5.1733 C   0  0  0  0  0  0  0  0  0  0  0  0
   -4.8854   -1.0928   -4.6439 C   0  0  0  0  0  0  0  0  0  0  0  0
   -4.2527   -1.9499   -5.4573 F   0  0  0  0  0  0  0  0  0  0  0  0
   -4.9701   -1.3761   -3.2853 C   0  0  0  0  0  0  0  0  0  0  0  0
   -3.3490   -2.4622   -0.5152 N   0  0  0  0  0  0  0  0  0  0  0  0
   -2.2309   -3.1724   -0.1609 C   0  0  0  0  0  0  0  0  0  0  0  0
   -1.8507   -4.4624   -0.5296 C   0  0  0  0  0  0  0  0  0  0  0  0
   -0.6566   -4.9112    0.0061 C   0  0  0  0  0  0  0  0  0  0  0  0
    0.1347   -4.1942    0.8380 N   0  0  0  0  0  0  0  0  0  0  0  0
   -0.2319   -2.9390    1.1929 C   0  0  0  0  0  0  0  0  0  0  0  0
   -1.4193   -2.4288    0.6888 C   0  0  0  0  0  0  0  0  0  0  0  0
   -0.0079    1.0538   -0.0218 C   0  0  0  0  0  0  0  0  0  0  0  0
   -0.7450    1.3854   -1.2545 C   0  0  0  0  0  0  0  0  0  0  0  0
    1.3172    1.3869    0.0230 O   0  0  0  0  0  0  0  0  0  0  0  0
    4.0115    1.8879    0.7454 C   0  0  0  0  0  0  0  0  0  0  0  0
    5.3459    2.1167    1.1064 C   0  0  0  0  0  0  0  0  0  0  0  0
    6.2521    2.8009    0.3314 O   0  0  0  0  0  0  0  0  0  0  0  0
    5.7970    3.3251   -0.9086 C   0  0  0  0  0  0  0  0  0  0  0  0
    7.6444    0.3839    3.9474 H   0  0  0  0  0  0  0  0  0  0  0  0
    8.6786    1.8182    3.9659 H   0  0  0  0  0  0  0  0  0  0  0  0
    7.0837    1.9230    4.7117 H   0  0  0  0  0  0  0  0  0  0  0  0
    5.2953    0.5299    4.1338 H   0  0  0  0  0  0  0  0  0  0  0  0
    2.9842    0.1558    3.4853 H   0  0  0  0  0  0  0  0  0  0  0  0
   -1.5269   -0.4975    2.6699 H   0  0  0  0  0  0  0  0  0  0  0  0
   -2.3732    0.6741    1.6715 H   0  0  0  0  0  0  0  0  0  0  0  0
   -5.8103   -1.8633   -0.7611 H   0  0  0  0  0  0  0  0  0  0  0  0
   -6.6781   -0.3649   -0.5621 H   0  0  0  0  0  0  0  0  0  0  0  0
   -6.7473    1.3682   -2.3168 H   0  0  0  0  0  0  0  0  0  0  0  0
   -6.5788    1.8443   -4.7377 H   0  0  0  0  0  0  0  0  0  0  0  0
   -5.3858    0.2514   -6.2386 H   0  0  0  0  0  0  0  0  0  0  0  0
   -4.5047   -2.2825   -2.9063 H   0  0  0  0  0  0  0  0  0  0  0  0
   -2.4545   -5.0720   -1.1917 H   0  0  0  0  0  0  0  0  0  0  0  0
   -0.2879   -5.9055   -0.2326 H   0  0  0  0  0  0  0  0  0  0  0  0
    0.4336   -2.3966    1.8493 H   0  0  0  0  0  0  0  0  0  0  0  0
   -0.1539    2.0388   -1.9065 H   0  0  0  0  0  0  0  0  0  0  0  0
   -1.6814    1.9009   -1.0189 H   0  0  0  0  0  0  0  0  0  0  0  0
   -0.9827    0.4739   -1.8101 H   0  0  0  0  0  0  0  0  0  0  0  0
    3.6241    2.2573   -0.1970 H   0  0  0  0  0  0  0  0  0  0  0  0
    5.4848    2.5220   -1.5840 H   0  0  0  0  0  0  0  0  0  0  0  0
    4.9935    4.0535   -0.7594 H   0  0  0  0  0  0  0  0  0  0  0  0
    6.6356    3.8487   -1.3809 H   0  0  0  0  0  0  0  0  0  0  0  0
  1  2  1  0
  2  3  1  0
  3  4  2  0
  4  5  1  0
  5  6  2  0
  6  7  1  0
  7  8  2  0
  8  9  1  0
  9 10  1  0
 10 11  1  0
 11 12  1  0
 12 13  1  0
 13 14  1  0
 14 15  1  0
 15 16  2  0
 16 17  1  0
 17 18  2  0
 18 19  1  0
 19 20  1  0
 19 21  2  0
 12 22  2  0
 22 23  1  0
 23 24  2  0
 24 25  1  0
 25 26  2  0
 26 27  1  0
 27 28  2  0
  9 29  2  0
 29 30  1  0
 29 31  1  0
  6 32  1  0
 32 33  2  0
 33 34  1  0
 34 35  1  0
 33  3  1  0
 31  7  1  0
 28 11  1  0
 21 15  1  0
 28 23  1  0
  1 36  1  0
  1 37  1  0
  1 38  1  0
  4 39  1  0
  5 40  1  0
 10 41  1  0
 10 42  1  0
 14 43  1  0
 14 44  1  0
 16 45  1  0
 17 46  1  0
 18 47  1  0
 21 48  1  0
 24 49  1  0
 25 50  1  0
 27 51  1  0
 30 52  1  0
 30 53  1  0
 30 54  1  0
 32 55  1  0
 35 56  1  0
 35 57  1  0
 35 58  1  0
M  END
$$$$
