
     RDKit          3D

 32 34  0  0  0  0  0  0  0  0999 V2000
   -4.3640   -0.3706   -1.0814 O   0  0  0  0  0  0  0  0  0  0  0  0
   -4.2001   -1.2538   -0.2575 C   0  0  0  0  0  0  0  0  0  0  0  0
   -5.1939   -2.1213    0.1059 N   0  0  0  0  0  0  0  0  0  0  0  0
   -4.9378   -3.0329    1.0801 C   0  0  0  0  0  0  0  0  0  0  0  0
   -6.0541   -4.1174    1.6410 S   0  0  0  0  0  0  0  0  0  0  0  0
   -3.2864   -2.8673    1.6156 S   0  0  0  0  0  0  0  0  0  0  0  0
   -2.9555   -1.5537    0.5118 C   0  0  0  0  0  0  0  0  0  0  0  0
   -1.7476   -0.9752    0.4827 C   0  0  0  0  0  0  0  0  0  0  0  0
   -1.3202    0.0907   -0.3534 C   0  0  0  0  0  0  0  0  0  0  0  0
   -1.6184    0.4424   -1.6637 C   0  0  0  0  0  0  0  0  0  0  0  0
   -0.8581    1.5911   -1.9943 C   0  0  0  0  0  0  0  0  0  0  0  0
   -0.0952    1.8824   -0.8889 C   0  0  0  0  0  0  0  0  0  0  0  0
    1.0672    3.1589   -0.6728 S   0  0  0  0  0  0  0  0  0  0  0  0
    2.6061    2.2570   -1.0197 C   0  0  0  0  0  0  0  0  0  0  0  0
    3.0010    1.2816    0.0629 C   0  0  0  0  0  0  0  0  0  0  0  0
    2.8464   -0.0998   -0.1317 C   0  0  0  0  0  0  0  0  0  0  0  0
    3.2113   -1.0020    0.8690 C   0  0  0  0  0  0  0  0  0  0  0  0
    3.7331   -0.5346    2.0748 C   0  0  0  0  0  0  0  0  0  0  0  0
    3.8873    0.8347    2.2832 C   0  0  0  0  0  0  0  0  0  0  0  0
    3.5242    1.7387    1.2831 C   0  0  0  0  0  0  0  0  0  0  0  0
   -0.3687    0.9828    0.0916 O   0  0  0  0  0  0  0  0  0  0  0  0
   -6.1072   -2.0399   -0.3155 H   0  0  0  0  0  0  0  0  0  0  0  0
   -0.9926   -1.3089    1.1936 H   0  0  0  0  0  0  0  0  0  0  0  0
   -2.3070   -0.0707   -2.3216 H   0  0  0  0  0  0  0  0  0  0  0  0
   -0.8591    2.1293   -2.9310 H   0  0  0  0  0  0  0  0  0  0  0  0
    2.5176    1.7486   -1.9875 H   0  0  0  0  0  0  0  0  0  0  0  0
    3.4101    2.9930   -1.1400 H   0  0  0  0  0  0  0  0  0  0  0  0
    2.4305   -0.4811   -1.0628 H   0  0  0  0  0  0  0  0  0  0  0  0
    3.0845   -2.0697    0.7093 H   0  0  0  0  0  0  0  0  0  0  0  0
    4.0149   -1.2375    2.8551 H   0  0  0  0  0  0  0  0  0  0  0  0
    4.2876    1.2004    3.2263 H   0  0  0  0  0  0  0  0  0  0  0  0
    3.6438    2.8051    1.4643 H   0  0  0  0  0  0  0  0  0  0  0  0
  1  2  2  0
  2  3  1  0
  3  4  1  0
  4  5  2  0
  4  6  1  0
  6  7  1  0
  7  8  2  3
  8  9  1  0
  9 10  2  0
 10 11  1  0
 11 12  2  0
 12 13  1  0
 13 14  1  0
 14 15  1  0
 15 16  2  0
 16 17  1  0
 17 18  2  0
 18 19  1  0
 19 20  2  0
 12 21  1  0
  7  2  1  0
 21  9  1  0
 20 15  1  0
  3 22  1  0
  8 23  1  0
 10 24  1  0
 11 25  1  0
 14 26  1  0
 14 27  1  0
 16 28  1  0
 17 29  1  0
 18 30  1  0
 19 31  1  0
 20 32  1  0
M  END
$$$$
