
     RDKit          3D

 54 57  0  0  0  0  0  0  0  0999 V2000
   -1.4313   -2.6098   -3.1150 O   0  0  0  0  0  0  0  0  0  0  0  0
   -1.2530   -1.4825   -2.6618 C   0  0  0  0  0  0  0  0  0  0  0  0
   -2.2123   -0.3355   -3.0106 C   0  0  0  0  0  0  0  0  0  0  0  0
   -3.0883    0.0480   -1.9487 O   0  0  0  0  0  0  0  0  0  0  0  0
   -2.5412    0.8442   -0.9999 C   0  0  0  0  0  0  0  0  0  0  0  0
   -1.3741    1.2093   -0.9797 O   0  0  0  0  0  0  0  0  0  0  0  0
   -3.5382    1.1996    0.0435 C   0  0  0  0  0  0  0  0  0  0  0  0
   -3.0937    1.9082    1.1702 C   0  0  0  0  0  0  0  0  0  0  0  0
   -3.9912    2.2590    2.1819 C   0  0  0  0  0  0  0  0  0  0  0  0
   -5.3333    1.9048    2.0708 C   0  0  0  0  0  0  0  0  0  0  0  0
   -5.7870    1.2261    0.9347 C   0  0  0  0  0  0  0  0  0  0  0  0
   -4.8923    0.8581   -0.0702 C   0  0  0  0  0  0  0  0  0  0  0  0
   -7.1007    0.8806    0.7428 O   0  0  0  0  0  0  0  0  0  0  0  0
   -7.9649    1.5861    1.6423 C   0  0  0  0  0  0  0  0  0  0  0  0
   -7.4028    1.5646    3.0540 C   0  0  0  0  0  0  0  0  0  0  0  0
   -6.1522    2.2617    3.1106 O   0  0  0  0  0  0  0  0  0  0  0  0
   -0.2168   -1.0848   -1.8350 N   0  0  0  0  0  0  0  0  0  0  0  0
    0.8328   -1.8679   -1.3189 C   0  0  0  0  0  0  0  0  0  0  0  0
    1.0262   -3.2182   -1.6224 C   0  0  0  0  0  0  0  0  0  0  0  0
    2.0903   -3.9329   -1.0582 C   0  0  0  0  0  0  0  0  0  0  0  0
    2.9764   -3.3031   -0.1880 C   0  0  0  0  0  0  0  0  0  0  0  0
    2.7911   -1.9523    0.1052 C   0  0  0  0  0  0  0  0  0  0  0  0
    3.8975   -1.1145    1.2076 S   0  0  0  0  0  6  0  0  0  0  0  0
    3.0870   -0.4142    2.1807 O   0  0  0  0  0  0  0  0  0  0  0  0
    4.9391   -2.0349    1.6126 O   0  0  0  0  0  0  0  0  0  0  0  0
    4.6216    0.0468    0.1901 N   0  0  0  0  0  0  0  0  0  0  0  0
    5.5132   -0.4944   -0.8886 C   0  0  0  0  0  0  0  0  0  0  0  0
    6.9888   -0.2620   -0.5499 C   0  0  0  0  0  0  0  0  0  0  0  0
    7.3239    1.1282   -0.4296 O   0  0  0  0  0  0  0  0  0  0  0  0
    6.2365    1.9351    0.0441 C   0  0  0  0  0  0  0  0  0  0  0  0
    5.2689    1.1673    0.9488 C   0  0  0  0  0  0  0  0  0  0  0  0
    1.7248   -1.2347   -0.4481 C   0  0  0  0  0  0  0  0  0  0  0  0
   -1.6431    0.5256   -3.3838 H   0  0  0  0  0  0  0  0  0  0  0  0
   -2.8418   -0.6693   -3.8434 H   0  0  0  0  0  0  0  0  0  0  0  0
   -2.0454    2.1841    1.2713 H   0  0  0  0  0  0  0  0  0  0  0  0
   -3.6416    2.7973    3.0591 H   0  0  0  0  0  0  0  0  0  0  0  0
   -5.2677    0.3179   -0.9350 H   0  0  0  0  0  0  0  0  0  0  0  0
   -8.9428    1.0952    1.6160 H   0  0  0  0  0  0  0  0  0  0  0  0
   -8.0871    2.6126    1.2745 H   0  0  0  0  0  0  0  0  0  0  0  0
   -7.2465    0.5377    3.4085 H   0  0  0  0  0  0  0  0  0  0  0  0
   -8.0912    2.0628    3.7438 H   0  0  0  0  0  0  0  0  0  0  0  0
   -0.2615   -0.1193   -1.5024 H   0  0  0  0  0  0  0  0  0  0  0  0
    0.3587   -3.7514   -2.2933 H   0  0  0  0  0  0  0  0  0  0  0  0
    2.2167   -4.9862   -1.2986 H   0  0  0  0  0  0  0  0  0  0  0  0
    3.7952   -3.8668    0.2529 H   0  0  0  0  0  0  0  0  0  0  0  0
    5.3356   -1.5592   -1.0620 H   0  0  0  0  0  0  0  0  0  0  0  0
    5.2504    0.0303   -1.8149 H   0  0  0  0  0  0  0  0  0  0  0  0
    7.2569   -0.7565    0.3904 H   0  0  0  0  0  0  0  0  0  0  0  0
    7.6262   -0.6833   -1.3338 H   0  0  0  0  0  0  0  0  0  0  0  0
    5.7117    2.3374   -0.8302 H   0  0  0  0  0  0  0  0  0  0  0  0
    6.6697    2.7822    0.5855 H   0  0  0  0  0  0  0  0  0  0  0  0
    5.8177    0.7639    1.8077 H   0  0  0  0  0  0  0  0  0  0  0  0
    4.4874    1.8445    1.3079 H   0  0  0  0  0  0  0  0  0  0  0  0
    1.5978   -0.1853   -0.1890 H   0  0  0  0  0  0  0  0  0  0  0  0
  1  2  2  0
  2  3  1  0
  3  4  1  0
  4  5  1  0
  5  6  2  0
  5  7  1  0
  7  8  2  0
  8  9  1  0
  9 10  2  0
 10 11  1  0
 11 12  2  0
 11 13  1  0
 13 14  1  0
 14 15  1  0
 15 16  1  0
  2 17  1  0
 17 18  1  0
 18 19  2  0
 19 20  1  0
 20 21  2  0
 21 22  1  0
 22 23  1  0
 23 24  2  0
 23 25  2  0
 23 26  1  0
 26 27  1  0
 27 28  1  0
 28 29  1  0
 29 30  1  0
 30 31  1  0
 22 32  2  0
 12  7  1  0
 32 18  1  0
 16 10  1  0
 31 26  1  0
  3 33  1  0
  3 34  1  0
  8 35  1  0
  9 36  1  0
 12 37  1  0
 14 38  1  0
 14 39  1  0
 15 40  1  0
 15 41  1  0
 17 42  1  0
 19 43  1  0
 20 44  1  0
 21 45  1  0
 27 46  1  0
 27 47  1  0
 28 48  1  0
 28 49  1  0
 30 50  1  0
 30 51  1  0
 31 52  1  0
 31 53  1  0
 32 54  1  0
M  END
$$$$
