
     RDKit          3D

 46 49  0  0  0  0  0  0  0  0999 V2000
    4.7241   -1.8109   -0.8067 O   0  0  0  0  0  0  0  0  0  0  0  0
    3.5190   -1.6466   -0.9991 C   0  0  0  0  0  0  0  0  0  0  0  0
    2.6134   -2.8731   -1.0695 C   0  0  0  0  0  0  0  0  0  0  0  0
    0.8483   -2.5535   -1.3524 S   0  0  0  0  0  0  0  0  0  0  0  0
    0.3433   -2.0643    0.2257 C   0  0  0  0  0  0  0  0  0  0  0  0
    1.1460   -1.6880    1.1921 N   0  0  0  0  0  0  0  0  0  0  0  0
    0.3748   -1.3910    2.2821 N   0  0  0  0  0  0  0  0  0  0  0  0
   -0.8907   -1.5966    1.9649 C   0  0  0  0  0  0  0  0  0  0  0  0
   -2.0478   -1.4248    2.8962 C   0  0  0  0  0  0  0  0  0  0  0  0
   -2.7922   -0.1305    2.7091 C   0  0  0  0  0  0  0  0  0  0  0  0
   -2.3230    1.0993    2.2780 C   0  0  0  0  0  0  0  0  0  0  0  0
   -3.3492    2.0860    2.2261 C   0  0  0  0  0  0  0  0  0  0  0  0
   -4.5640    1.5892    2.6444 C   0  0  0  0  0  0  0  0  0  0  0  0
   -4.4597   -0.0493    3.1165 S   0  0  0  0  0  0  0  0  0  0  0  0
   -0.9602   -1.9960    0.6446 N   0  0  0  0  0  0  0  0  0  0  0  0
   -2.1544   -2.3201   -0.1136 C   0  0  0  0  0  0  0  0  0  0  0  0
   -2.6953   -1.1293   -0.8166 C   0  0  0  0  0  0  0  0  0  0  0  0
   -3.8945   -0.4491   -0.7483 C   0  0  0  0  0  0  0  0  0  0  0  0
   -3.7951    0.6271   -1.6624 C   0  0  0  0  0  0  0  0  0  0  0  0
   -2.5597    0.5193   -2.2540 C   0  0  0  0  0  0  0  0  0  0  0  0
   -1.8932   -0.5521   -1.7584 O   0  0  0  0  0  0  0  0  0  0  0  0
    2.9136   -0.4263   -1.2079 N   0  0  0  0  0  0  0  0  0  0  0  0
    3.4965    0.8620   -1.2049 C   0  0  0  0  0  0  0  0  0  0  0  0
    4.8601    1.0876   -0.9885 C   0  0  0  0  0  0  0  0  0  0  0  0
    5.3793    2.3877   -1.0012 C   0  0  0  0  0  0  0  0  0  0  0  0
    4.5393    3.4730   -1.2316 C   0  0  0  0  0  0  0  0  0  0  0  0
    5.1853    5.0689   -1.2465 Cl  0  0  0  0  0  0  0  0  0  0  0  0
    3.1788    3.2752   -1.4451 C   0  0  0  0  0  0  0  0  0  0  0  0
    2.6635    1.9767   -1.4303 C   0  0  0  0  0  0  0  0  0  0  0  0
    0.9606    1.7805   -1.7010 Cl  0  0  0  0  0  0  0  0  0  0  0  0
    2.7445   -3.4635   -0.1550 H   0  0  0  0  0  0  0  0  0  0  0  0
    2.9649   -3.4785   -1.9132 H   0  0  0  0  0  0  0  0  0  0  0  0
   -2.7239   -2.2832    2.7966 H   0  0  0  0  0  0  0  0  0  0  0  0
   -1.6704   -1.4553    3.9277 H   0  0  0  0  0  0  0  0  0  0  0  0
   -1.2888    1.2821    1.9993 H   0  0  0  0  0  0  0  0  0  0  0  0
   -3.1995    3.1090    1.8998 H   0  0  0  0  0  0  0  0  0  0  0  0
   -5.5066    2.1168    2.7121 H   0  0  0  0  0  0  0  0  0  0  0  0
   -2.8963   -2.7351    0.5783 H   0  0  0  0  0  0  0  0  0  0  0  0
   -1.9139   -3.1164   -0.8268 H   0  0  0  0  0  0  0  0  0  0  0  0
   -4.7301   -0.6830   -0.1023 H   0  0  0  0  0  0  0  0  0  0  0  0
   -4.5312    1.3918   -1.8683 H   0  0  0  0  0  0  0  0  0  0  0  0
   -2.0347    1.0949   -3.0051 H   0  0  0  0  0  0  0  0  0  0  0  0
    1.9027   -0.4441   -1.3322 H   0  0  0  0  0  0  0  0  0  0  0  0
    5.5524    0.2716   -0.7988 H   0  0  0  0  0  0  0  0  0  0  0  0
    6.4419    2.5384   -0.8256 H   0  0  0  0  0  0  0  0  0  0  0  0
    2.5220    4.1237   -1.6188 H   0  0  0  0  0  0  0  0  0  0  0  0
  1  2  2  0
  2  3  1  0
  3  4  1  0
  4  5  1  0
  5  6  2  0
  6  7  1  0
  7  8  2  0
  8  9  1  0
  9 10  1  0
 10 11  2  0
 11 12  1  0
 12 13  2  0
 13 14  1  0
  8 15  1  0
 15 16  1  0
 16 17  1  0
 17 18  2  0
 18 19  1  0
 19 20  2  0
 20 21  1  0
  2 22  1  0
 22 23  1  0
 23 24  2  0
 24 25  1  0
 25 26  2  0
 26 27  1  0
 26 28  1  0
 28 29  2  0
 29 30  1  0
 15  5  1  0
 21 17  1  0
 29 23  1  0
 14 10  1  0
  3 31  1  0
  3 32  1  0
  9 33  1  0
  9 34  1  0
 11 35  1  0
 12 36  1  0
 13 37  1  0
 16 38  1  0
 16 39  1  0
 18 40  1  0
 19 41  1  0
 20 42  1  0
 22 43  1  0
 24 44  1  0
 25 45  1  0
 28 46  1  0
M  END
$$$$
