
     RDKit          3D

 46 49  0  0  0  0  0  0  0  0999 V2000
   -5.3851    3.1613    1.5394 C   0  0  0  0  0  0  0  0  0  0  0  0
   -5.2983    1.8456    2.0732 O   0  0  0  0  0  0  0  0  0  0  0  0
   -4.3158    1.0392    1.5701 C   0  0  0  0  0  0  0  0  0  0  0  0
   -3.4497    1.3545    0.5240 C   0  0  0  0  0  0  0  0  0  0  0  0
   -2.4811    0.4330    0.1044 C   0  0  0  0  0  0  0  0  0  0  0  0
   -2.3717   -0.8138    0.7311 C   0  0  0  0  0  0  0  0  0  0  0  0
   -1.3895   -1.7590    0.3121 N   0  0  0  0  0  0  0  0  0  0  0  0
   -0.0600   -1.5370   -0.0350 C   0  0  0  0  0  0  0  0  0  0  0  0
    0.7624   -0.0091    0.1065 S   0  0  0  0  0  0  0  0  0  0  0  0
    2.4900   -0.5634    0.0816 C   0  0  0  0  0  0  0  0  0  0  0  0
    3.3981    0.6524    0.1097 C   0  0  0  0  0  0  0  0  0  0  0  0
    3.8584    1.0884    1.1619 O   0  0  0  0  0  0  0  0  0  0  0  0
    3.6668    1.1590   -1.1487 N   0  0  0  0  0  0  0  0  0  0  0  0
    4.4646    2.2821   -1.3985 C   0  0  0  0  0  0  0  0  0  0  0  0
    5.2867    2.0979   -2.4625 N   0  0  0  0  0  0  0  0  0  0  0  0
    6.1372    3.1069   -2.7736 C   0  0  0  0  0  0  0  0  0  0  0  0
    6.1835    4.3119   -2.0928 C   0  0  0  0  0  0  0  0  0  0  0  0
    7.2848    5.5429   -2.5561 Cl  0  0  0  0  0  0  0  0  0  0  0  0
    5.2935    4.5141   -1.0465 C   0  0  0  0  0  0  0  0  0  0  0  0
    4.4040    3.4944   -0.6950 C   0  0  0  0  0  0  0  0  0  0  0  0
    3.1766    3.8937    0.4543 Cl  0  0  0  0  0  0  0  0  0  0  0  0
    0.5682   -2.6401   -0.3727 N   0  0  0  0  0  0  0  0  0  0  0  0
   -0.3583   -3.6346   -0.2443 C   0  0  0  0  0  0  0  0  0  0  0  0
   -0.2061   -5.0091   -0.4871 C   0  0  0  0  0  0  0  0  0  0  0  0
   -1.3075   -5.8544   -0.3242 C   0  0  0  0  0  0  0  0  0  0  0  0
   -2.5431   -5.3392    0.0607 C   0  0  0  0  0  0  0  0  0  0  0  0
   -2.7128   -3.9718    0.3080 C   0  0  0  0  0  0  0  0  0  0  0  0
   -1.5900   -3.1344    0.1751 C   0  0  0  0  0  0  0  0  0  0  0  0
   -3.2465   -1.1329    1.7761 C   0  0  0  0  0  0  0  0  0  0  0  0
   -4.2102   -0.2081    2.1885 C   0  0  0  0  0  0  0  0  0  0  0  0
   -6.1825    3.6867    2.0739 H   0  0  0  0  0  0  0  0  0  0  0  0
   -4.4547    3.7166    1.6998 H   0  0  0  0  0  0  0  0  0  0  0  0
   -5.6547    3.1383    0.4783 H   0  0  0  0  0  0  0  0  0  0  0  0
   -3.5034    2.3061    0.0050 H   0  0  0  0  0  0  0  0  0  0  0  0
   -1.8539    0.7040   -0.7416 H   0  0  0  0  0  0  0  0  0  0  0  0
    2.6980   -1.1559   -0.8156 H   0  0  0  0  0  0  0  0  0  0  0  0
    2.7065   -1.1834    0.9578 H   0  0  0  0  0  0  0  0  0  0  0  0
    3.7086    0.4876   -1.9046 H   0  0  0  0  0  0  0  0  0  0  0  0
    6.7973    2.9082   -3.6143 H   0  0  0  0  0  0  0  0  0  0  0  0
    5.2700    5.4668   -0.5237 H   0  0  0  0  0  0  0  0  0  0  0  0
    0.7543   -5.4003   -0.8054 H   0  0  0  0  0  0  0  0  0  0  0  0
   -1.1995   -6.9197   -0.5137 H   0  0  0  0  0  0  0  0  0  0  0  0
   -3.3951   -6.0092    0.1617 H   0  0  0  0  0  0  0  0  0  0  0  0
   -3.6921   -3.5870    0.5737 H   0  0  0  0  0  0  0  0  0  0  0  0
   -3.1701   -2.0720    2.3185 H   0  0  0  0  0  0  0  0  0  0  0  0
   -4.8780   -0.4572    3.0105 H   0  0  0  0  0  0  0  0  0  0  0  0
  1  2  1  0
  2  3  1  0
  3  4  2  0
  4  5  1  0
  5  6  2  0
  6  7  1  0
  7  8  1  0
  8  9  1  0
  9 10  1  0
 10 11  1  0
 11 12  2  0
 11 13  1  0
 13 14  1  0
 14 15  2  0
 15 16  1  0
 16 17  2  0
 17 18  1  0
 17 19  1  0
 19 20  2  0
 20 21  1  0
  8 22  2  0
 22 23  1  0
 23 24  2  0
 24 25  1  0
 25 26  2  0
 26 27  1  0
 27 28  2  0
  6 29  1  0
 29 30  2  0
 30  3  1  0
 28  7  1  0
 20 14  1  0
 28 23  1  0
  1 31  1  0
  1 32  1  0
  1 33  1  0
  4 34  1  0
  5 35  1  0
 10 36  1  0
 10 37  1  0
 13 38  1  0
 16 39  1  0
 19 40  1  0
 24 41  1  0
 25 42  1  0
 26 43  1  0
 27 44  1  0
 29 45  1  0
 30 46  1  0
M  END
$$$$
