
     RDKit          3D

 37 38  0  0  0  0  0  0  0  0999 V2000
   -5.8776   -0.8982   -0.1839 C   0  0  0  0  0  0  0  0  0  0  0  0
   -5.0043   -0.4964   -1.2860 N   0  0  0  0  0  0  0  0  0  0  0  0
   -5.6656    0.1907   -2.3948 C   0  0  0  0  0  0  0  0  0  0  0  0
   -3.6533   -0.2427   -1.0307 C   0  0  0  0  0  0  0  0  0  0  0  0
   -2.8255    0.4119   -1.9586 C   0  0  0  0  0  0  0  0  0  0  0  0
   -1.4628    0.6487   -1.7165 C   0  0  0  0  0  0  0  0  0  0  0  0
   -0.8639    0.2162   -0.5348 C   0  0  0  0  0  0  0  0  0  0  0  0
    0.5595    0.4994   -0.3055 C   0  0  0  0  0  0  0  0  0  0  0  0
    1.4042   -0.3804    0.2569 C   0  0  0  0  0  0  0  0  0  0  0  0
    2.8294   -0.1170    0.4862 C   0  0  0  0  0  0  0  0  0  0  0  0
    3.6184    0.5749   -0.4317 C   0  0  0  0  0  0  0  0  0  0  0  0
    4.9710    0.7673   -0.1733 C   0  0  0  0  0  0  0  0  0  0  0  0
    5.5332    0.2779    0.9540 N   0  0  0  0  0  4  0  0  0  0  0  0
    6.9653    0.5052    1.2116 C   0  0  0  0  0  0  0  0  0  0  0  0
    4.7909   -0.4023    1.8555 C   0  0  0  0  0  0  0  0  0  0  0  0
    3.4351   -0.6199    1.6364 C   0  0  0  0  0  0  0  0  0  0  0  0
   -1.6618   -0.4326    0.4062 C   0  0  0  0  0  0  0  0  0  0  0  0
   -3.0240   -0.6625    0.1538 C   0  0  0  0  0  0  0  0  0  0  0  0
   -6.9066   -1.0547   -0.5266 H   0  0  0  0  0  0  0  0  0  0  0  0
   -5.5571   -1.8525    0.2476 H   0  0  0  0  0  0  0  0  0  0  0  0
   -5.9030   -0.1304    0.5973 H   0  0  0  0  0  0  0  0  0  0  0  0
   -6.7165   -0.1083   -2.4792 H   0  0  0  0  0  0  0  0  0  0  0  0
   -5.6413    1.2770   -2.2543 H   0  0  0  0  0  0  0  0  0  0  0  0
   -5.2030   -0.0676   -3.3534 H   0  0  0  0  0  0  0  0  0  0  0  0
   -3.2198    0.7588   -2.9092 H   0  0  0  0  0  0  0  0  0  0  0  0
   -0.8830    1.1644   -2.4782 H   0  0  0  0  0  0  0  0  0  0  0  0
    0.8901    1.4804   -0.6367 H   0  0  0  0  0  0  0  0  0  0  0  0
    1.0424   -1.3566    0.5770 H   0  0  0  0  0  0  0  0  0  0  0  0
    3.1933    0.9598   -1.3566 H   0  0  0  0  0  0  0  0  0  0  0  0
    5.6114    1.3081   -0.8644 H   0  0  0  0  0  0  0  0  0  0  0  0
    7.0540    1.4495    1.7544 H   0  0  0  0  0  0  0  0  0  0  0  0
    7.3593   -0.3239    1.8050 H   0  0  0  0  0  0  0  0  0  0  0  0
    7.4978    0.5519    0.2582 H   0  0  0  0  0  0  0  0  0  0  0  0
    5.2897   -0.7688    2.7484 H   0  0  0  0  0  0  0  0  0  0  0  0
    2.8555   -1.1733    2.3734 H   0  0  0  0  0  0  0  0  0  0  0  0
   -1.2497   -0.7668    1.3544 H   0  0  0  0  0  0  0  0  0  0  0  0
   -3.5816   -1.1870    0.9240 H   0  0  0  0  0  0  0  0  0  0  0  0
  1  2  1  0
  2  3  1  0
  2  4  1  0
  4  5  2  0
  5  6  1  0
  6  7  2  0
  7  8  1  0
  8  9  2  3
  9 10  1  0
 10 11  2  0
 11 12  1  0
 12 13  2  0
 13 14  1  0
 13 15  1  0
 15 16  2  0
  7 17  1  0
 17 18  2  0
 18  4  1  0
 16 10  1  0
  1 19  1  0
  1 20  1  0
  1 21  1  0
  3 22  1  0
  3 23  1  0
  3 24  1  0
  5 25  1  0
  6 26  1  0
  8 27  1  0
  9 28  1  0
 11 29  1  0
 12 30  1  0
 14 31  1  0
 14 32  1  0
 14 33  1  0
 15 34  1  0
 16 35  1  0
 17 36  1  0
 18 37  1  0
M  CHG  1  13   1
M  END
$$$$
