
     RDKit          3D

 59 62  0  0  0  0  0  0  0  0999 V2000
    7.8836    2.2599   -0.4431 C   0  0  0  0  0  0  0  0  0  0  0  0
    7.3824    1.0548   -1.0097 O   0  0  0  0  0  0  0  0  0  0  0  0
    6.0831    0.7308   -0.7304 C   0  0  0  0  0  0  0  0  0  0  0  0
    5.6262   -0.4307   -1.3618 C   0  0  0  0  0  0  0  0  0  0  0  0
    4.3194   -0.8866   -1.1663 C   0  0  0  0  0  0  0  0  0  0  0  0
    3.4576   -0.1807   -0.3279 C   0  0  0  0  0  0  0  0  0  0  0  0
    2.0841   -0.6227   -0.0930 C   0  0  0  0  0  0  0  0  0  0  0  0
    1.2597    0.0694    0.7159 C   0  0  0  0  0  0  0  0  0  0  0  0
   -0.1663   -0.2963    1.0077 C   0  0  0  0  0  0  0  0  0  0  0  0
   -0.8556   -0.8475   -0.1915 N   0  0  0  0  0  0  0  0  0  0  0  0
   -1.7949   -1.9571    0.1272 C   0  0  0  0  0  0  0  0  0  0  0  0
   -1.0853   -3.3097    0.0258 C   0  0  0  0  0  0  0  0  0  0  0  0
   -0.6898   -3.6951   -1.3923 C   0  0  0  0  0  0  0  0  0  0  0  0
   -0.6767   -5.2005   -1.3072 C   0  0  0  0  0  0  0  0  0  0  0  0
   -1.8583   -5.4706   -0.4015 C   0  0  0  0  0  0  0  0  0  0  0  0
   -1.9572   -4.3558    0.4984 O   0  0  0  0  0  0  0  0  0  0  0  0
   -1.3786    0.2743   -1.3646 S   0  0  0  0  0  6  0  0  0  0  0  0
   -0.3206    1.2332   -1.5979 O   0  0  0  0  0  0  0  0  0  0  0  0
   -1.9513   -0.4744   -2.4641 O   0  0  0  0  0  0  0  0  0  0  0  0
   -2.7100    1.1456   -0.5582 C   0  0  0  0  0  0  0  0  0  0  0  0
   -4.0226    0.6880   -0.6929 C   0  0  0  0  0  0  0  0  0  0  0  0
   -5.0623    1.3917   -0.0794 C   0  0  0  0  0  0  0  0  0  0  0  0
   -4.7999    2.5606    0.6527 C   0  0  0  0  0  0  0  0  0  0  0  0
   -5.9487    3.2701    1.2916 C   0  0  0  0  0  0  0  0  0  0  0  0
   -5.6925    4.5523    2.0394 C   0  0  0  0  0  0  0  0  0  0  0  0
   -7.0810    2.7993    1.2050 O   0  0  0  0  0  0  0  0  0  0  0  0
   -3.4824    3.0258    0.7578 C   0  0  0  0  0  0  0  0  0  0  0  0
   -2.4392    2.3253    0.1439 C   0  0  0  0  0  0  0  0  0  0  0  0
    1.7524    1.3124    1.3849 C   0  0  0  0  0  0  0  0  0  0  0  0
    1.0293    1.9715    2.1284 O   0  0  0  0  0  0  0  0  0  0  0  0
    3.0475    1.6857    1.1452 N   0  0  0  0  0  0  0  0  0  0  0  0
    3.9161    0.9813    0.3020 C   0  0  0  0  0  0  0  0  0  0  0  0
    5.2210    1.4422    0.1055 C   0  0  0  0  0  0  0  0  0  0  0  0
    8.9189    2.3807   -0.7764 H   0  0  0  0  0  0  0  0  0  0  0  0
    7.8899    2.2087    0.6513 H   0  0  0  0  0  0  0  0  0  0  0  0
    7.3159    3.1283   -0.7957 H   0  0  0  0  0  0  0  0  0  0  0  0
    6.2967   -0.9851   -2.0155 H   0  0  0  0  0  0  0  0  0  0  0  0
    3.9902   -1.7904   -1.6732 H   0  0  0  0  0  0  0  0  0  0  0  0
    1.7460   -1.5162   -0.6043 H   0  0  0  0  0  0  0  0  0  0  0  0
   -0.1518   -1.0465    1.8090 H   0  0  0  0  0  0  0  0  0  0  0  0
   -0.7497    0.5377    1.4045 H   0  0  0  0  0  0  0  0  0  0  0  0
   -2.2159   -1.8236    1.1315 H   0  0  0  0  0  0  0  0  0  0  0  0
   -2.6624   -1.9673   -0.5409 H   0  0  0  0  0  0  0  0  0  0  0  0
   -0.2014   -3.3228    0.6750 H   0  0  0  0  0  0  0  0  0  0  0  0
   -1.4491   -3.3764   -2.1159 H   0  0  0  0  0  0  0  0  0  0  0  0
    0.2712   -3.2727   -1.6973 H   0  0  0  0  0  0  0  0  0  0  0  0
   -0.7597   -5.6975   -2.2777 H   0  0  0  0  0  0  0  0  0  0  0  0
    0.2500   -5.5370   -0.8268 H   0  0  0  0  0  0  0  0  0  0  0  0
   -1.7481   -6.3978    0.1692 H   0  0  0  0  0  0  0  0  0  0  0  0
   -2.7929   -5.5204   -0.9716 H   0  0  0  0  0  0  0  0  0  0  0  0
   -4.2494   -0.2032   -1.2743 H   0  0  0  0  0  0  0  0  0  0  0  0
   -6.0844    1.0276   -0.1814 H   0  0  0  0  0  0  0  0  0  0  0  0
   -5.0471    4.3649    2.9018 H   0  0  0  0  0  0  0  0  0  0  0  0
   -5.2500    5.2988    1.3744 H   0  0  0  0  0  0  0  0  0  0  0  0
   -6.6446    4.9497    2.4062 H   0  0  0  0  0  0  0  0  0  0  0  0
   -3.2378    3.9304    1.3083 H   0  0  0  0  0  0  0  0  0  0  0  0
   -1.4207    2.7047    0.2221 H   0  0  0  0  0  0  0  0  0  0  0  0
    3.3538    2.5346    1.5993 H   0  0  0  0  0  0  0  0  0  0  0  0
    5.5430    2.3444    0.6118 H   0  0  0  0  0  0  0  0  0  0  0  0
  1  2  1  0
  2  3  1  0
  3  4  2  0
  4  5  1  0
  5  6  2  0
  6  7  1  0
  7  8  2  0
  8  9  1  0
  9 10  1  0
 10 11  1  0
 11 12  1  0
 12 13  1  0
 13 14  1  0
 14 15  1  0
 15 16  1  0
 10 17  1  0
 17 18  2  0
 17 19  2  0
 17 20  1  0
 20 21  2  0
 21 22  1  0
 22 23  2  0
 23 24  1  0
 24 25  1  0
 24 26  2  0
 23 27  1  0
 27 28  2  0
  8 29  1  0
 29 30  2  0
 29 31  1  0
 31 32  1  0
 32 33  2  0
 33  3  1  0
 32  6  1  0
 16 12  1  0
 28 20  1  0
  1 34  1  0
  1 35  1  0
  1 36  1  0
  4 37  1  0
  5 38  1  0
  7 39  1  0
  9 40  1  0
  9 41  1  0
 11 42  1  0
 11 43  1  0
 12 44  1  0
 13 45  1  0
 13 46  1  0
 14 47  1  0
 14 48  1  0
 15 49  1  0
 15 50  1  0
 21 51  1  0
 22 52  1  0
 25 53  1  0
 25 54  1  0
 25 55  1  0
 27 56  1  0
 28 57  1  0
 31 58  1  0
 33 59  1  0
M  END
$$$$
