
     RDKit          3D

 53 52  0  0  0  0  0  0  0  0999 V2000
   -6.7504    2.7224    1.2174 C   0  0  0  0  0  0  0  0  0  0  0  0
   -6.2917    1.6539    0.2196 C   0  0  0  0  0  0  0  0  0  0  0  0
   -6.1281    2.2864   -1.1620 C   0  0  0  0  0  0  0  0  0  0  0  0
   -5.0037    0.9839    0.7401 C   0  0  0  0  0  0  0  0  0  0  0  0
   -4.5393   -0.2352   -0.0616 C   0  0  0  0  0  0  0  0  0  0  0  0
   -3.8424    0.1063   -1.2838 N   0  0  0  0  0  0  0  0  0  0  0  0
   -2.5286    0.5233   -1.2886 C   0  0  0  0  0  0  0  0  0  0  0  0
   -1.8563    0.6444   -0.2704 O   0  0  0  0  0  0  0  0  0  0  0  0
   -2.0189    0.8523   -2.6765 C   0  0  0  0  0  0  0  0  0  0  0  0
   -0.5076    1.0435   -2.7411 C   0  0  0  0  0  0  0  0  0  0  0  0
    0.4127   -0.4782   -3.1802 S   0  0  0  0  0  0  0  0  0  0  0  0
    0.2378   -1.4801   -1.6565 C   0  0  0  0  0  0  0  0  0  0  0  0
    0.9902   -0.9233   -0.4547 C   0  0  0  0  0  0  0  0  0  0  0  0
    2.4820   -1.1843   -0.5114 C   0  0  0  0  0  0  0  0  0  0  0  0
    2.9881   -2.1056   -1.1422 O   0  0  0  0  0  0  0  0  0  0  0  0
    3.2105   -0.3190    0.2796 N   0  0  0  0  0  0  0  0  0  0  0  0
    4.6466   -0.4414    0.4272 C   0  0  0  0  0  0  0  0  0  0  0  0
    5.0111   -1.4459    1.5208 C   0  0  0  0  0  0  0  0  0  0  0  0
    6.5255   -1.6901    1.6467 C   0  0  0  0  0  0  0  0  0  0  0  0
    6.7890   -2.8070    2.6595 C   0  0  0  0  0  0  0  0  0  0  0  0
    7.2873   -0.4296    2.0584 C   0  0  0  0  0  0  0  0  0  0  0  0
   -7.6912    3.1804    0.8935 H   0  0  0  0  0  0  0  0  0  0  0  0
   -6.0036    3.5172    1.3194 H   0  0  0  0  0  0  0  0  0  0  0  0
   -6.9189    2.2854    2.2074 H   0  0  0  0  0  0  0  0  0  0  0  0
   -7.0824    0.8953    0.1580 H   0  0  0  0  0  0  0  0  0  0  0  0
   -5.2640    2.9584   -1.1934 H   0  0  0  0  0  0  0  0  0  0  0  0
   -7.0168    2.8676   -1.4321 H   0  0  0  0  0  0  0  0  0  0  0  0
   -6.0034    1.5245   -1.9358 H   0  0  0  0  0  0  0  0  0  0  0  0
   -4.1989    1.7263    0.8089 H   0  0  0  0  0  0  0  0  0  0  0  0
   -5.1971    0.6399    1.7649 H   0  0  0  0  0  0  0  0  0  0  0  0
   -5.3861   -0.8760   -0.3279 H   0  0  0  0  0  0  0  0  0  0  0  0
   -3.8534   -0.8278    0.5551 H   0  0  0  0  0  0  0  0  0  0  0  0
   -4.3396    0.0251   -2.1616 H   0  0  0  0  0  0  0  0  0  0  0  0
   -2.4983    1.8013   -2.9505 H   0  0  0  0  0  0  0  0  0  0  0  0
   -2.3618    0.0970   -3.3928 H   0  0  0  0  0  0  0  0  0  0  0  0
   -0.0909    1.4943   -1.8367 H   0  0  0  0  0  0  0  0  0  0  0  0
   -0.2929    1.7439   -3.5564 H   0  0  0  0  0  0  0  0  0  0  0  0
   -0.8262   -1.5826   -1.4284 H   0  0  0  0  0  0  0  0  0  0  0  0
    0.5919   -2.4883   -1.8974 H   0  0  0  0  0  0  0  0  0  0  0  0
    0.6290   -1.4327    0.4478 H   0  0  0  0  0  0  0  0  0  0  0  0
    0.8019    0.1447   -0.3137 H   0  0  0  0  0  0  0  0  0  0  0  0
    2.7198    0.3479    0.8614 H   0  0  0  0  0  0  0  0  0  0  0  0
    5.0786   -0.7462   -0.5323 H   0  0  0  0  0  0  0  0  0  0  0  0
    5.0194    0.5578    0.6710 H   0  0  0  0  0  0  0  0  0  0  0  0
    4.5142   -2.4014    1.3074 H   0  0  0  0  0  0  0  0  0  0  0  0
    4.6053   -1.1008    2.4808 H   0  0  0  0  0  0  0  0  0  0  0  0
    6.9102   -2.0215    0.6739 H   0  0  0  0  0  0  0  0  0  0  0  0
    6.2859   -3.7321    2.3588 H   0  0  0  0  0  0  0  0  0  0  0  0
    6.4280   -2.5329    3.6567 H   0  0  0  0  0  0  0  0  0  0  0  0
    7.8606   -3.0207    2.7336 H   0  0  0  0  0  0  0  0  0  0  0  0
    7.2198    0.3458    1.2894 H   0  0  0  0  0  0  0  0  0  0  0  0
    8.3506   -0.6489    2.2038 H   0  0  0  0  0  0  0  0  0  0  0  0
    6.8965   -0.0175    2.9948 H   0  0  0  0  0  0  0  0  0  0  0  0
  1  2  1  0
  2  3  1  0
  2  4  1  0
  4  5  1  0
  5  6  1  0
  6  7  1  0
  7  8  2  0
  7  9  1  0
  9 10  1  0
 10 11  1  0
 11 12  1  0
 12 13  1  0
 13 14  1  0
 14 15  2  0
 14 16  1  0
 16 17  1  0
 17 18  1  0
 18 19  1  0
 19 20  1  0
 19 21  1  0
  1 22  1  0
  1 23  1  0
  1 24  1  0
  2 25  1  0
  3 26  1  0
  3 27  1  0
  3 28  1  0
  4 29  1  0
  4 30  1  0
  5 31  1  0
  5 32  1  0
  6 33  1  0
  9 34  1  0
  9 35  1  0
 10 36  1  0
 10 37  1  0
 12 38  1  0
 12 39  1  0
 13 40  1  0
 13 41  1  0
 16 42  1  0
 17 43  1  0
 17 44  1  0
 18 45  1  0
 18 46  1  0
 19 47  1  0
 20 48  1  0
 20 49  1  0
 20 50  1  0
 21 51  1  0
 21 52  1  0
 21 53  1  0
M  END
$$$$
