
     RDKit          3D

 49 51  0  0  0  0  0  0  0  0999 V2000
    4.6675    2.0065    0.4323 C   0  0  0  0  0  0  0  0  0  0  0  0
    3.8167    2.6618   -0.4973 O   0  0  0  0  0  0  0  0  0  0  0  0
    2.8939    1.8936   -1.1639 C   0  0  0  0  0  0  0  0  0  0  0  0
    2.7346    0.5147   -0.9812 C   0  0  0  0  0  0  0  0  0  0  0  0
    1.7661   -0.1860   -1.7017 C   0  0  0  0  0  0  0  0  0  0  0  0
    0.9407    0.4986   -2.5913 C   0  0  0  0  0  0  0  0  0  0  0  0
   -0.3010   -0.3799   -3.5081 S   0  0  0  0  0  6  0  0  0  0  0  0
   -0.3734    0.2348   -4.8190 O   0  0  0  0  0  0  0  0  0  0  0  0
   -0.0741   -1.8009   -3.3718 O   0  0  0  0  0  0  0  0  0  0  0  0
   -1.7302    0.0446   -2.7347 N   0  0  0  0  0  0  0  0  0  0  0  0
   -1.9293   -0.0745   -1.3283 C   0  0  0  0  0  0  0  0  0  0  0  0
   -2.7193    0.8971   -0.7179 C   0  0  0  0  0  0  0  0  0  0  0  0
   -3.0280    0.7998    0.6357 C   0  0  0  0  0  0  0  0  0  0  0  0
   -2.5584   -0.2811    1.3963 C   0  0  0  0  0  0  0  0  0  0  0  0
   -1.7296   -1.2582    0.8082 C   0  0  0  0  0  0  0  0  0  0  0  0
   -1.4676   -1.1564   -0.5715 C   0  0  0  0  0  0  0  0  0  0  0  0
   -1.2184   -2.3509    1.6037 N   0  0  0  0  0  0  0  0  0  0  0  0
   -0.0679   -3.0659    1.2180 C   0  0  0  0  0  0  0  0  0  0  0  0
    0.2745   -4.2828    2.0494 C   0  0  0  0  0  0  0  0  0  0  0  0
    0.6810   -2.7654    0.2879 O   0  0  0  0  0  0  0  0  0  0  0  0
   -1.7271   -2.5034    2.9730 C   0  0  0  0  0  0  0  0  0  0  0  0
   -3.0484   -1.8108    3.2515 C   0  0  0  0  0  0  0  0  0  0  0  0
   -2.9404   -0.3561    2.8480 C   0  0  0  0  0  0  0  0  0  0  0  0
    1.0987    1.8724   -2.8031 C   0  0  0  0  0  0  0  0  0  0  0  0
    2.0764    2.5747   -2.0921 C   0  0  0  0  0  0  0  0  0  0  0  0
    2.2980    3.9245   -2.2176 O   0  0  0  0  0  0  0  0  0  0  0  0
    1.6966    4.5862   -3.3217 C   0  0  0  0  0  0  0  0  0  0  0  0
    5.3341    2.7596    0.8636 H   0  0  0  0  0  0  0  0  0  0  0  0
    4.0915    1.5651    1.2522 H   0  0  0  0  0  0  0  0  0  0  0  0
    5.2918    1.2561   -0.0637 H   0  0  0  0  0  0  0  0  0  0  0  0
    3.3462   -0.0493   -0.2844 H   0  0  0  0  0  0  0  0  0  0  0  0
    1.6575   -1.2586   -1.5499 H   0  0  0  0  0  0  0  0  0  0  0  0
   -2.2332    0.7732   -3.2360 H   0  0  0  0  0  0  0  0  0  0  0  0
   -3.1107    1.7363   -1.2860 H   0  0  0  0  0  0  0  0  0  0  0  0
   -3.6508    1.5657    1.0935 H   0  0  0  0  0  0  0  0  0  0  0  0
   -0.9327   -1.9540   -1.0759 H   0  0  0  0  0  0  0  0  0  0  0  0
    1.1245   -4.8017    1.5944 H   0  0  0  0  0  0  0  0  0  0  0  0
    0.5599   -3.9887    3.0623 H   0  0  0  0  0  0  0  0  0  0  0  0
   -0.5668   -4.9805    2.0671 H   0  0  0  0  0  0  0  0  0  0  0  0
   -1.8543   -3.5682    3.1930 H   0  0  0  0  0  0  0  0  0  0  0  0
   -0.9509   -2.1247    3.6505 H   0  0  0  0  0  0  0  0  0  0  0  0
   -3.2997   -1.8931    4.3147 H   0  0  0  0  0  0  0  0  0  0  0  0
   -3.8518   -2.3028    2.6879 H   0  0  0  0  0  0  0  0  0  0  0  0
   -3.9057    0.1338    3.0208 H   0  0  0  0  0  0  0  0  0  0  0  0
   -2.1858    0.1654    3.4485 H   0  0  0  0  0  0  0  0  0  0  0  0
    0.4506    2.3696   -3.5166 H   0  0  0  0  0  0  0  0  0  0  0  0
    0.6101    4.6415   -3.1991 H   0  0  0  0  0  0  0  0  0  0  0  0
    1.9644    4.1075   -4.2696 H   0  0  0  0  0  0  0  0  0  0  0  0
    2.0800    5.6108   -3.3467 H   0  0  0  0  0  0  0  0  0  0  0  0
  1  2  1  0
  2  3  1  0
  3  4  2  0
  4  5  1  0
  5  6  2  0
  6  7  1  0
  7  8  2  0
  7  9  2  0
  7 10  1  0
 10 11  1  0
 11 12  2  0
 12 13  1  0
 13 14  2  0
 14 15  1  0
 15 16  2  0
 15 17  1  0
 17 18  1  0
 18 19  1  0
 18 20  2  0
 17 21  1  0
 21 22  1  0
 22 23  1  0
  6 24  1  0
 24 25  2  0
 25 26  1  0
 26 27  1  0
 25  3  1  0
 16 11  1  0
 23 14  1  0
  1 28  1  0
  1 29  1  0
  1 30  1  0
  4 31  1  0
  5 32  1  0
 10 33  1  0
 12 34  1  0
 13 35  1  0
 16 36  1  0
 19 37  1  0
 19 38  1  0
 19 39  1  0
 21 40  1  0
 21 41  1  0
 22 42  1  0
 22 43  1  0
 23 44  1  0
 23 45  1  0
 24 46  1  0
 27 47  1  0
 27 48  1  0
 27 49  1  0
M  END
$$$$
