
     RDKit          3D

 52 54  0  0  0  0  0  0  0  0999 V2000
   -3.8299   -2.8466   -1.4893 C   0  0  0  0  0  0  0  0  0  0  0  0
   -4.0214   -2.0863   -0.2625 N   0  0  0  0  0  0  0  0  0  0  0  0
   -5.3244   -1.4464   -0.0797 C   0  0  0  0  0  0  0  0  0  0  0  0
   -5.5704   -0.3382   -1.0778 C   0  0  0  0  0  0  0  0  0  0  0  0
   -6.5340   -0.4840   -2.0865 C   0  0  0  0  0  0  0  0  0  0  0  0
   -6.7500    0.5385   -3.0123 C   0  0  0  0  0  0  0  0  0  0  0  0
   -6.0059    1.7147   -2.9405 C   0  0  0  0  0  0  0  0  0  0  0  0
   -5.0460    1.8711   -1.9428 C   0  0  0  0  0  0  0  0  0  0  0  0
   -4.8294    0.8512   -1.0155 C   0  0  0  0  0  0  0  0  0  0  0  0
   -2.9800   -1.7084    0.5806 C   0  0  0  0  0  0  0  0  0  0  0  0
   -3.1595   -0.9987    1.5742 O   0  0  0  0  0  0  0  0  0  0  0  0
   -1.5742   -2.2256    0.2393 C   0  0  0  0  0  0  0  0  0  0  0  0
   -0.5639   -1.6402    1.0652 O   0  0  0  0  0  0  0  0  0  0  0  0
   -0.2902   -0.3386    0.7642 C   0  0  0  0  0  0  0  0  0  0  0  0
   -0.7448    0.2721   -0.1972 O   0  0  0  0  0  0  0  0  0  0  0  0
    0.6426    0.2540    1.8020 C   0  0  0  0  0  0  0  0  0  0  0  0
    1.1785    1.5319    1.3156 N   0  0  0  0  0  0  0  0  0  0  0  0
    2.3415    2.3109    2.2187 S   0  0  0  0  0  6  0  0  0  0  0  0
    2.1072    1.9982    3.6106 O   0  0  0  0  0  0  0  0  0  0  0  0
    2.4021    3.6721    1.7373 O   0  0  0  0  0  0  0  0  0  0  0  0
    3.8216    1.4911    1.6890 C   0  0  0  0  0  0  0  0  0  0  0  0
    4.5179    0.6653    2.5711 C   0  0  0  0  0  0  0  0  0  0  0  0
    5.6805    0.0266    2.1369 C   0  0  0  0  0  0  0  0  0  0  0  0
    6.1557    0.2107    0.8271 C   0  0  0  0  0  0  0  0  0  0  0  0
    7.3232   -0.4269    0.3785 C   0  0  0  0  0  0  0  0  0  0  0  0
    7.7866   -0.2332   -0.9239 C   0  0  0  0  0  0  0  0  0  0  0  0
    7.0904    0.6005   -1.7941 C   0  0  0  0  0  0  0  0  0  0  0  0
    5.9280    1.2430   -1.3651 C   0  0  0  0  0  0  0  0  0  0  0  0
    5.4475    1.0582   -0.0592 C   0  0  0  0  0  0  0  0  0  0  0  0
    4.2808    1.6976    0.3843 C   0  0  0  0  0  0  0  0  0  0  0  0
   -3.5825   -2.1562   -2.3007 H   0  0  0  0  0  0  0  0  0  0  0  0
   -4.7464   -3.3930   -1.7309 H   0  0  0  0  0  0  0  0  0  0  0  0
   -3.0203   -3.5715   -1.3799 H   0  0  0  0  0  0  0  0  0  0  0  0
   -5.4252   -1.0381    0.9326 H   0  0  0  0  0  0  0  0  0  0  0  0
   -6.0903   -2.2265   -0.1694 H   0  0  0  0  0  0  0  0  0  0  0  0
   -7.1242   -1.3945   -2.1582 H   0  0  0  0  0  0  0  0  0  0  0  0
   -7.5000    0.4186   -3.7898 H   0  0  0  0  0  0  0  0  0  0  0  0
   -6.1742    2.5107   -3.6610 H   0  0  0  0  0  0  0  0  0  0  0  0
   -4.4636    2.7871   -1.8845 H   0  0  0  0  0  0  0  0  0  0  0  0
   -4.0753    0.9873   -0.2415 H   0  0  0  0  0  0  0  0  0  0  0  0
   -1.5555   -3.3032    0.4315 H   0  0  0  0  0  0  0  0  0  0  0  0
   -1.3373   -2.0577   -0.8169 H   0  0  0  0  0  0  0  0  0  0  0  0
    1.4622   -0.4477    1.9816 H   0  0  0  0  0  0  0  0  0  0  0  0
    0.0616    0.4160    2.7147 H   0  0  0  0  0  0  0  0  0  0  0  0
    0.5442    2.1432    0.7973 H   0  0  0  0  0  0  0  0  0  0  0  0
    4.1701    0.5154    3.5907 H   0  0  0  0  0  0  0  0  0  0  0  0
    6.2189   -0.6156    2.8311 H   0  0  0  0  0  0  0  0  0  0  0  0
    7.8841   -1.0802    1.0433 H   0  0  0  0  0  0  0  0  0  0  0  0
    8.6931   -0.7320   -1.2572 H   0  0  0  0  0  0  0  0  0  0  0  0
    7.4524    0.7536   -2.8075 H   0  0  0  0  0  0  0  0  0  0  0  0
    5.4001    1.8926   -2.0601 H   0  0  0  0  0  0  0  0  0  0  0  0
    3.7276    2.3568   -0.2823 H   0  0  0  0  0  0  0  0  0  0  0  0
  1  2  1  0
  2  3  1  0
  3  4  1  0
  4  5  2  0
  5  6  1  0
  6  7  2  0
  7  8  1  0
  8  9  2  0
  2 10  1  0
 10 11  2  0
 10 12  1  0
 12 13  1  0
 13 14  1  0
 14 15  2  0
 14 16  1  0
 16 17  1  0
 17 18  1  0
 18 19  2  0
 18 20  2  0
 18 21  1  0
 21 22  2  0
 22 23  1  0
 23 24  2  0
 24 25  1  0
 25 26  2  0
 26 27  1  0
 27 28  2  0
 28 29  1  0
 29 30  2  0
  9  4  1  0
 30 21  1  0
 29 24  1  0
  1 31  1  0
  1 32  1  0
  1 33  1  0
  3 34  1  0
  3 35  1  0
  5 36  1  0
  6 37  1  0
  7 38  1  0
  8 39  1  0
  9 40  1  0
 12 41  1  0
 12 42  1  0
 16 43  1  0
 16 44  1  0
 17 45  1  0
 22 46  1  0
 23 47  1  0
 25 48  1  0
 26 49  1  0
 27 50  1  0
 28 51  1  0
 30 52  1  0
M  END
$$$$
