
     RDKit          3D

 39 40  0  0  0  0  0  0  0  0999 V2000
   -0.8663   -3.3329    0.7213 C   0  0  0  0  0  0  0  0  0  0  0  0
   -1.1989   -1.9949    0.0595 C   0  0  0  0  0  0  0  0  0  0  0  0
   -2.5516   -1.7145    0.4025 O   0  0  0  0  0  0  0  0  0  0  0  0
   -3.2639   -0.7941   -0.3174 C   0  0  0  0  0  0  0  0  0  0  0  0
   -2.7261    0.0395   -1.3040 C   0  0  0  0  0  0  0  0  0  0  0  0
   -3.5384    0.9608   -1.9762 C   0  0  0  0  0  0  0  0  0  0  0  0
   -4.8992    1.0511   -1.6597 C   0  0  0  0  0  0  0  0  0  0  0  0
   -5.7484    2.0171   -2.3668 N   0  0  0  0  0  4  0  0  0  0  0  0
   -5.2212    2.7067   -3.2509 O   0  0  0  0  0  0  0  0  0  0  0  0
   -6.9419    2.0813   -2.0416 O   0  0  0  0  0  1  0  0  0  0  0  0
   -5.4549    0.2287   -0.6767 C   0  0  0  0  0  0  0  0  0  0  0  0
   -4.6343   -0.6862   -0.0117 C   0  0  0  0  0  0  0  0  0  0  0  0
   -5.3653   -1.6917    1.1927 Cl  0  0  0  0  0  0  0  0  0  0  0  0
   -0.1772   -0.9286    0.5300 C   0  0  0  0  0  0  0  0  0  0  0  0
   -0.5104    0.0223    1.2310 O   0  0  0  0  0  0  0  0  0  0  0  0
    1.1013   -1.1568    0.0336 N   0  0  0  0  0  0  0  0  0  0  0  0
    2.2616   -0.3880    0.2638 C   0  0  0  0  0  0  0  0  0  0  0  0
    2.3063    0.7373    1.0894 C   0  0  0  0  0  0  0  0  0  0  0  0
    3.5019    1.4476    1.2677 C   0  0  0  0  0  0  0  0  0  0  0  0
    4.6682    1.0416    0.6127 C   0  0  0  0  0  0  0  0  0  0  0  0
    5.9635    1.7570    0.7671 C   0  0  0  0  0  0  0  0  0  0  0  0
    5.9276    3.0507    1.2076 N   0  0  0  0  0  0  0  0  0  0  0  0
    7.0278    1.2238    0.4792 O   0  0  0  0  0  0  0  0  0  0  0  0
    4.6312   -0.0939   -0.2027 C   0  0  0  0  0  0  0  0  0  0  0  0
    3.4366   -0.8009   -0.3768 C   0  0  0  0  0  0  0  0  0  0  0  0
   -1.5942   -4.0973    0.4278 H   0  0  0  0  0  0  0  0  0  0  0  0
   -0.9172   -3.2477    1.8130 H   0  0  0  0  0  0  0  0  0  0  0  0
    0.1336   -3.6886    0.4557 H   0  0  0  0  0  0  0  0  0  0  0  0
   -1.1076   -2.1277   -1.0263 H   0  0  0  0  0  0  0  0  0  0  0  0
   -1.6734    0.0189   -1.5660 H   0  0  0  0  0  0  0  0  0  0  0  0
   -3.0918    1.6031   -2.7338 H   0  0  0  0  0  0  0  0  0  0  0  0
   -6.5104    0.2903   -0.4209 H   0  0  0  0  0  0  0  0  0  0  0  0
    1.2262   -1.9621   -0.5675 H   0  0  0  0  0  0  0  0  0  0  0  0
    1.4300    1.0879    1.6265 H   0  0  0  0  0  0  0  0  0  0  0  0
    3.5002    2.2971    1.9443 H   0  0  0  0  0  0  0  0  0  0  0  0
    6.8095    3.5476    1.1907 H   0  0  0  0  0  0  0  0  0  0  0  0
    5.0843    3.6052    1.2012 H   0  0  0  0  0  0  0  0  0  0  0  0
    5.5350   -0.4325   -0.7066 H   0  0  0  0  0  0  0  0  0  0  0  0
    3.4478   -1.6773   -1.0199 H   0  0  0  0  0  0  0  0  0  0  0  0
  1  2  1  0
  2  3  1  0
  3  4  1  0
  4  5  2  0
  5  6  1  0
  6  7  2  0
  7  8  1  0
  8  9  2  0
  8 10  1  0
  7 11  1  0
 11 12  2  0
 12 13  1  0
  2 14  1  0
 14 15  2  0
 14 16  1  0
 16 17  1  0
 17 18  2  0
 18 19  1  0
 19 20  2  0
 20 21  1  0
 21 22  1  0
 21 23  2  0
 20 24  1  0
 24 25  2  0
 12  4  1  0
 25 17  1  0
  1 26  1  0
  1 27  1  0
  1 28  1  0
  2 29  1  0
  5 30  1  0
  6 31  1  0
 11 32  1  0
 16 33  1  0
 18 34  1  0
 19 35  1  0
 22 36  1  0
 22 37  1  0
 24 38  1  0
 25 39  1  0
M  CHG  2   8   1  10  -1
M  END
$$$$
