
     RDKit          3D

 97 99  0  0  0  0  0  0  0  0999 V2000
   -3.8855    2.2588   -3.6356 C   0  0  0  0  0  0  0  0  0  0  0  0
   -2.9358    1.5102   -2.7535 C   0  0  0  0  0  0  0  0  0  0  0  0
   -2.0021    0.8340   -3.1593 O   0  0  0  0  0  0  0  0  0  0  0  0
   -3.2628    1.7081   -1.4514 O   0  0  0  0  0  0  0  0  0  0  0  0
   -2.4174    1.0743   -0.4497 C   0  0  1  0  0  0  0  0  0  0  0  0
   -1.2867    2.0524   -0.0126 C   0  0  2  0  0  0  0  0  0  0  0  0
   -0.4884    2.4405   -1.1506 O   0  0  0  0  0  0  0  0  0  0  0  0
   -0.7649    3.6358   -1.7312 C   0  0  0  0  0  0  0  0  0  0  0  0
    0.1560    3.8905   -2.8850 C   0  0  0  0  0  0  0  0  0  0  0  0
   -1.6415    4.4156   -1.3781 O   0  0  0  0  0  0  0  0  0  0  0  0
   -0.2958    1.4955    1.0145 C   0  0  0  0  0  0  0  0  0  0  0  0
   -0.2771    2.2678    2.3154 C   0  0  0  0  0  0  0  0  0  0  0  0
    0.5916    0.4871    0.8472 C   0  0  0  0  0  0  0  0  0  0  0  0
    0.8705   -0.3637   -0.3813 C   0  0  1  0  0  0  0  0  0  0  0  0
    1.9349    0.2945   -1.2968 C   0  0  1  0  0  0  0  0  0  0  0  0
    3.0639    0.7302   -0.5143 O   0  0  0  0  0  0  0  0  0  0  0  0
    3.2976    2.0635   -0.4703 C   0  0  0  0  0  0  0  0  0  0  0  0
    2.6982    2.9300   -1.0867 O   0  0  0  0  0  0  0  0  0  0  0  0
    4.4042    2.3577    0.4779 C   0  0  0  0  0  0  0  0  0  0  0  0
    4.6312    3.6946    0.8304 C   0  0  0  0  0  0  0  0  0  0  0  0
    5.6562    4.0229    1.7201 C   0  0  0  0  0  0  0  0  0  0  0  0
    6.4605    3.0196    2.2570 C   0  0  0  0  0  0  0  0  0  0  0  0
    6.2463    1.6867    1.9041 C   0  0  0  0  0  0  0  0  0  0  0  0
    5.2194    1.3535    1.0179 C   0  0  0  0  0  0  0  0  0  0  0  0
    2.3497   -0.8654   -2.1973 C   0  0  1  0  0  0  0  0  0  0  0  0
    3.5883   -0.5935   -3.0365 C   0  0  0  0  0  0  0  0  0  0  0  0
    2.5599   -1.9862   -1.1882 C   0  0  0  0  0  0  0  0  0  0  0  0
    1.3956   -1.8591   -0.1480 C   0  0  1  0  0  0  0  0  0  0  0  0
    1.9285   -1.9589    1.2041 O   0  0  0  0  0  0  0  0  0  0  0  0
    2.7835   -2.9535    1.5674 C   0  0  0  0  0  0  0  0  0  0  0  0
    3.1506   -2.7985    3.0134 C   0  0  0  0  0  0  0  0  0  0  0  0
    3.1945   -3.8556    0.8551 O   0  0  0  0  0  0  0  0  0  0  0  0
    0.2578   -2.9223   -0.4107 C   0  0  1  0  0  0  0  0  0  0  0  0
    0.8615   -4.2382   -0.5765 O   0  0  0  0  0  0  0  0  0  0  0  0
    0.6576   -4.8922   -1.7495 C   0  0  0  0  0  0  0  0  0  0  0  0
    1.3246   -6.2337   -1.7087 C   0  0  0  0  0  0  0  0  0  0  0  0
    0.0178   -4.4671   -2.7011 O   0  0  0  0  0  0  0  0  0  0  0  0
   -0.8853   -3.1493    0.6275 C   0  0  1  0  0  0  0  0  0  0  0  0
   -0.4265   -3.6688    1.9945 C   0  0  0  0  0  0  0  0  0  0  0  0
   -1.8061   -1.9757    0.8326 C   0  0  0  0  0  0  0  0  0  0  0  0
   -3.0626   -1.9016    0.3578 C   0  0  0  0  0  0  0  0  0  0  0  0
   -4.0394   -0.7338    0.5428 C   0  0  0  0  0  0  0  0  0  0  0  0
   -4.9807   -0.6984   -0.6810 C   0  0  0  0  0  0  0  0  0  0  0  0
   -4.9061   -1.0583    1.7808 C   0  0  0  0  0  0  0  0  0  0  0  0
   -3.3189    0.6509    0.7506 C   0  0  2  0  0  0  0  0  0  0  0  0
   -4.3016    1.7011    0.9655 O   0  0  0  0  0  0  0  0  0  0  0  0
   -4.4068    2.2394    2.2081 C   0  0  0  0  0  0  0  0  0  0  0  0
   -5.4217    3.3402    2.2036 C   0  0  0  0  0  0  0  0  0  0  0  0
   -3.7736    1.8888    3.1933 O   0  0  0  0  0  0  0  0  0  0  0  0
   -3.6276    2.0779   -4.6830 H   0  0  0  0  0  0  0  0  0  0  0  0
   -4.9059    1.9100   -3.4627 H   0  0  0  0  0  0  0  0  0  0  0  0
   -3.8068    3.3299   -3.4366 H   0  0  0  0  0  0  0  0  0  0  0  0
   -1.9687    0.1866   -0.8945 H   0  0  0  0  0  0  0  0  0  0  0  0
   -1.7618    2.9437    0.4154 H   0  0  0  0  0  0  0  0  0  0  0  0
    0.4722    2.9477   -3.3387 H   0  0  0  0  0  0  0  0  0  0  0  0
    1.0271    4.4564   -2.5469 H   0  0  0  0  0  0  0  0  0  0  0  0
   -0.3817    4.4601   -3.6480 H   0  0  0  0  0  0  0  0  0  0  0  0
    0.4927    1.9057    3.0047 H   0  0  0  0  0  0  0  0  0  0  0  0
   -1.2388    2.1846    2.8256 H   0  0  0  0  0  0  0  0  0  0  0  0
   -0.0727    3.3271    2.1245 H   0  0  0  0  0  0  0  0  0  0  0  0
    1.2678    0.2876    1.6799 H   0  0  0  0  0  0  0  0  0  0  0  0
   -0.0324   -0.4369   -0.9926 H   0  0  0  0  0  0  0  0  0  0  0  0
    1.5128    1.1015   -1.9018 H   0  0  0  0  0  0  0  0  0  0  0  0
    4.0071    4.4843    0.4173 H   0  0  0  0  0  0  0  0  0  0  0  0
    5.8261    5.0614    1.9927 H   0  0  0  0  0  0  0  0  0  0  0  0
    7.2593    3.2771    2.9485 H   0  0  0  0  0  0  0  0  0  0  0  0
    6.8809    0.9069    2.3188 H   0  0  0  0  0  0  0  0  0  0  0  0
    5.0730    0.3108    0.7503 H   0  0  0  0  0  0  0  0  0  0  0  0
    1.5184   -1.1279   -2.8648 H   0  0  0  0  0  0  0  0  0  0  0  0
    3.8188   -1.4571   -3.6689 H   0  0  0  0  0  0  0  0  0  0  0  0
    4.4693   -0.3899   -2.4180 H   0  0  0  0  0  0  0  0  0  0  0  0
    3.4257    0.2698   -3.6902 H   0  0  0  0  0  0  0  0  0  0  0  0
    3.5349   -1.8565   -0.6994 H   0  0  0  0  0  0  0  0  0  0  0  0
    2.5976   -2.9520   -1.6981 H   0  0  0  0  0  0  0  0  0  0  0  0
    2.3461   -3.1886    3.6418 H   0  0  0  0  0  0  0  0  0  0  0  0
    4.0706   -3.3578    3.2117 H   0  0  0  0  0  0  0  0  0  0  0  0
    3.3383   -1.7439    3.2434 H   0  0  0  0  0  0  0  0  0  0  0  0
   -0.2224   -2.6319   -1.3541 H   0  0  0  0  0  0  0  0  0  0  0  0
    0.7950   -6.8859   -1.0094 H   0  0  0  0  0  0  0  0  0  0  0  0
    2.3716   -6.1193   -1.4129 H   0  0  0  0  0  0  0  0  0  0  0  0
    1.2983   -6.6837   -2.7061 H   0  0  0  0  0  0  0  0  0  0  0  0
   -1.4878   -3.9729    0.2130 H   0  0  0  0  0  0  0  0  0  0  0  0
    0.0361   -2.8838    2.6007 H   0  0  0  0  0  0  0  0  0  0  0  0
   -1.2854   -4.0439    2.5659 H   0  0  0  0  0  0  0  0  0  0  0  0
    0.2781   -4.4998    1.8966 H   0  0  0  0  0  0  0  0  0  0  0  0
   -1.4115   -1.1830    1.4590 H   0  0  0  0  0  0  0  0  0  0  0  0
   -3.4476   -2.7515   -0.2078 H   0  0  0  0  0  0  0  0  0  0  0  0
   -5.6550    0.1647   -0.6488 H   0  0  0  0  0  0  0  0  0  0  0  0
   -5.6083   -1.5968   -0.7241 H   0  0  0  0  0  0  0  0  0  0  0  0
   -4.4233   -0.6611   -1.6230 H   0  0  0  0  0  0  0  0  0  0  0  0
   -5.7209   -0.3371    1.9060 H   0  0  0  0  0  0  0  0  0  0  0  0
   -4.3065   -1.0481    2.6991 H   0  0  0  0  0  0  0  0  0  0  0  0
   -5.3660   -2.0511    1.7023 H   0  0  0  0  0  0  0  0  0  0  0  0
   -2.6951    0.5550    1.6442 H   0  0  0  0  0  0  0  0  0  0  0  0
   -6.4006    2.9445    1.9211 H   0  0  0  0  0  0  0  0  0  0  0  0
   -5.1094    4.1277    1.5138 H   0  0  0  0  0  0  0  0  0  0  0  0
   -5.4948    3.7691    3.2068 H   0  0  0  0  0  0  0  0  0  0  0  0
  1  2  1  0
  2  3  2  0
  2  4  1  0
  4  5  1  0
  5  6  1  0
  6  7  1  0
  7  8  1  0
  8  9  1  0
  8 10  2  0
  6 11  1  0
 11 12  1  0
 11 13  2  0
 13 14  1  0
 14 15  1  0
 15 16  1  0
 16 17  1  0
 17 18  2  0
 17 19  1  0
 19 20  2  0
 20 21  1  0
 21 22  2  0
 22 23  1  0
 23 24  2  0
 15 25  1  0
 25 26  1  0
 25 27  1  0
 27 28  1  0
 28 29  1  1
 29 30  1  0
 30 31  1  0
 30 32  2  0
 28 33  1  0
 33 34  1  0
 34 35  1  0
 35 36  1  0
 35 37  2  0
 33 38  1  0
 38 39  1  0
 38 40  1  0
 40 41  2  0
 41 42  1  0
 42 43  1  0
 42 44  1  0
 42 45  1  0
 45 46  1  0
 46 47  1  0
 47 48  1  0
 47 49  2  0
 45  5  1  0
 28 14  1  0
 24 19  1  0
  1 50  1  0
  1 51  1  0
  1 52  1  0
  5 53  1  6
  6 54  1  1
  9 55  1  0
  9 56  1  0
  9 57  1  0
 12 58  1  0
 12 59  1  0
 12 60  1  0
 13 61  1  0
 14 62  1  6
 15 63  1  6
 20 64  1  0
 21 65  1  0
 22 66  1  0
 23 67  1  0
 24 68  1  0
 25 69  1  6
 26 70  1  0
 26 71  1  0
 26 72  1  0
 27 73  1  0
 27 74  1  0
 31 75  1  0
 31 76  1  0
 31 77  1  0
 33 78  1  6
 36 79  1  0
 36 80  1  0
 36 81  1  0
 38 82  1  6
 39 83  1  0
 39 84  1  0
 39 85  1  0
 40 86  1  0
 41 87  1  0
 43 88  1  0
 43 89  1  0
 43 90  1  0
 44 91  1  0
 44 92  1  0
 44 93  1  0
 45 94  1  1
 48 95  1  0
 48 96  1  0
 48 97  1  0
M  END
$$$$
