
     RDKit          3D

 52 51  0  0  0  0  0  0  0  0999 V2000
   -3.0385    2.2029   -1.9684 C   0  0  0  0  0  0  0  0  0  0  0  0
   -3.4058    1.1413   -1.5419 C   0  0  0  0  0  0  0  0  0  0  0  0
   -3.8481   -0.1623   -1.0399 C   0  0  0  0  0  0  0  0  0  0  0  0
   -4.5468   -0.0632    0.3303 N   0  0  0  0  0  4  0  0  0  0  0  0
   -5.0671   -1.4473    0.7035 C   0  0  0  0  0  0  0  0  0  0  0  0
   -5.7777    0.8511    0.1761 C   0  0  0  0  0  0  0  0  0  0  0  0
   -3.6492    0.5424    1.4334 C   0  0  0  0  0  0  0  0  0  0  0  0
   -2.7519   -0.4202    2.2231 C   0  0  0  0  0  0  0  0  0  0  0  0
   -1.5751   -1.1122    1.5321 C   0  0  0  0  0  0  0  0  0  0  0  0
   -0.2722   -0.3060    1.4614 C   0  0  0  0  0  0  0  0  0  0  0  0
   -0.2791    0.8239    0.4344 C   0  0  0  0  0  0  0  0  0  0  0  0
    1.0705    1.5398    0.3065 C   0  0  0  0  0  0  0  0  0  0  0  0
    2.1589    0.6798   -0.3422 C   0  0  0  0  0  0  0  0  0  0  0  0
    3.4465    1.4827   -0.5474 C   0  0  0  0  0  0  0  0  0  0  0  0
    4.5343    0.7086   -1.2978 C   0  0  0  0  0  0  0  0  0  0  0  0
    5.0729   -0.4943   -0.5202 C   0  0  0  0  0  0  0  0  0  0  0  0
    6.2343   -1.1572   -1.2622 C   0  0  0  0  0  0  0  0  0  0  0  0
    6.7705   -2.3579   -0.4989 C   0  0  0  0  0  0  0  0  0  0  0  0
   -2.7035    3.1393   -2.3578 H   0  0  0  0  0  0  0  0  0  0  0  0
   -4.5708   -0.6081   -1.7340 H   0  0  0  0  0  0  0  0  0  0  0  0
   -3.0124   -0.8548   -0.9468 H   0  0  0  0  0  0  0  0  0  0  0  0
   -5.8026   -1.7564   -0.0460 H   0  0  0  0  0  0  0  0  0  0  0  0
   -5.5379   -1.3877    1.6891 H   0  0  0  0  0  0  0  0  0  0  0  0
   -4.2320   -2.1521    0.7087 H   0  0  0  0  0  0  0  0  0  0  0  0
   -6.3665    0.7910    1.0971 H   0  0  0  0  0  0  0  0  0  0  0  0
   -6.3714    0.4985   -0.6728 H   0  0  0  0  0  0  0  0  0  0  0  0
   -5.4408    1.8795    0.0178 H   0  0  0  0  0  0  0  0  0  0  0  0
   -3.0937    1.3763    1.0034 H   0  0  0  0  0  0  0  0  0  0  0  0
   -4.3421    0.9815    2.1635 H   0  0  0  0  0  0  0  0  0  0  0  0
   -2.3543    0.1399    3.0804 H   0  0  0  0  0  0  0  0  0  0  0  0
   -3.3815   -1.1955    2.6767 H   0  0  0  0  0  0  0  0  0  0  0  0
   -1.3447   -2.0013    2.1360 H   0  0  0  0  0  0  0  0  0  0  0  0
   -1.8392   -1.5023    0.5497 H   0  0  0  0  0  0  0  0  0  0  0  0
   -0.0300    0.0956    2.4529 H   0  0  0  0  0  0  0  0  0  0  0  0
    0.5269   -1.0133    1.2119 H   0  0  0  0  0  0  0  0  0  0  0  0
   -0.5823    0.4377   -0.5451 H   0  0  0  0  0  0  0  0  0  0  0  0
   -1.0135    1.5765    0.7323 H   0  0  0  0  0  0  0  0  0  0  0  0
    0.9195    2.4394   -0.3034 H   0  0  0  0  0  0  0  0  0  0  0  0
    1.4038    1.8803    1.2943 H   0  0  0  0  0  0  0  0  0  0  0  0
    1.8026    0.3042   -1.3086 H   0  0  0  0  0  0  0  0  0  0  0  0
    2.3672   -0.1881    0.2902 H   0  0  0  0  0  0  0  0  0  0  0  0
    3.2162    2.3885   -1.1220 H   0  0  0  0  0  0  0  0  0  0  0  0
    3.8343    1.8149    0.4233 H   0  0  0  0  0  0  0  0  0  0  0  0
    4.1465    0.3783   -2.2691 H   0  0  0  0  0  0  0  0  0  0  0  0
    5.3611    1.3989   -1.5065 H   0  0  0  0  0  0  0  0  0  0  0  0
    4.2770   -1.2324   -0.3704 H   0  0  0  0  0  0  0  0  0  0  0  0
    5.4083   -0.1707    0.4726 H   0  0  0  0  0  0  0  0  0  0  0  0
    5.9040   -1.4810   -2.2562 H   0  0  0  0  0  0  0  0  0  0  0  0
    7.0448   -0.4337   -1.4087 H   0  0  0  0  0  0  0  0  0  0  0  0
    7.1387   -2.0626    0.4889 H   0  0  0  0  0  0  0  0  0  0  0  0
    5.9925   -3.1162   -0.3636 H   0  0  0  0  0  0  0  0  0  0  0  0
    7.5993   -2.8161   -1.0476 H   0  0  0  0  0  0  0  0  0  0  0  0
  1  2  3  0
  2  3  1  0
  3  4  1  0
  4  5  1  0
  4  6  1  0
  4  7  1  0
  7  8  1  0
  8  9  1  0
  9 10  1  0
 10 11  1  0
 11 12  1  0
 12 13  1  0
 13 14  1  0
 14 15  1  0
 15 16  1  0
 16 17  1  0
 17 18  1  0
  1 19  1  0
  3 20  1  0
  3 21  1  0
  5 22  1  0
  5 23  1  0
  5 24  1  0
  6 25  1  0
  6 26  1  0
  6 27  1  0
  7 28  1  0
  7 29  1  0
  8 30  1  0
  8 31  1  0
  9 32  1  0
  9 33  1  0
 10 34  1  0
 10 35  1  0
 11 36  1  0
 11 37  1  0
 12 38  1  0
 12 39  1  0
 13 40  1  0
 13 41  1  0
 14 42  1  0
 14 43  1  0
 15 44  1  0
 15 45  1  0
 16 46  1  0
 16 47  1  0
 17 48  1  0
 17 49  1  0
 18 50  1  0
 18 51  1  0
 18 52  1  0
M  CHG  1   4   1
M  END
$$$$
