
     RDKit          3D

 61 65  0  0  0  0  0  0  0  0999 V2000
    6.3903   -4.2128    2.2768 C   0  0  0  0  0  0  0  0  0  0  0  0
    5.1735   -3.4361    1.8663 C   0  0  0  0  0  0  0  0  0  0  0  0
    4.9113   -2.1836    2.4278 C   0  0  0  0  0  0  0  0  0  0  0  0
    3.7946   -1.4445    2.0246 C   0  0  0  0  0  0  0  0  0  0  0  0
    2.9169   -1.9341    1.0440 C   0  0  0  0  0  0  0  0  0  0  0  0
    1.7422   -1.1577    0.6223 C   0  0  0  0  0  0  0  0  0  0  0  0
    1.8579    0.1654    0.2041 C   0  0  0  0  0  0  0  0  0  0  0  0
    0.7339    0.9045   -0.1918 C   0  0  0  0  0  0  0  0  0  0  0  0
    0.8759    2.3058   -0.6006 C   0  0  0  0  0  0  0  0  0  0  0  0
    1.3557    2.6311   -1.8800 C   0  0  0  0  0  0  0  0  0  0  0  0
    1.4934    3.9645   -2.2735 C   0  0  0  0  0  0  0  0  0  0  0  0
    1.1578    5.0008   -1.3969 C   0  0  0  0  0  0  0  0  0  0  0  0
    1.3402    6.4320   -1.8131 C   0  0  0  0  0  0  0  0  0  0  0  0
    0.7130    4.6855   -0.1097 C   0  0  0  0  0  0  0  0  0  0  0  0
    0.5746    3.3525    0.2858 C   0  0  0  0  0  0  0  0  0  0  0  0
   -0.5096    0.3319   -0.1793 N   0  0  0  0  0  4  0  0  0  0  0  0
   -1.6656    1.0991   -0.5806 C   0  0  0  0  0  0  0  0  0  0  0  0
   -1.8906    1.3196   -1.9409 C   0  0  0  0  0  0  0  0  0  0  0  0
   -3.0057    2.0642   -2.3187 C   0  0  0  0  0  0  0  0  0  0  0  0
   -3.8714    2.5708   -1.3446 C   0  0  0  0  0  0  0  0  0  0  0  0
   -3.6308    2.3388    0.0128 C   0  0  0  0  0  0  0  0  0  0  0  0
   -2.5189    1.5976    0.4063 C   0  0  0  0  0  0  0  0  0  0  0  0
   -0.6529   -0.9694    0.2212 C   0  0  0  0  0  0  0  0  0  0  0  0
   -1.9834   -1.5862    0.1985 C   0  0  0  0  0  0  0  0  0  0  0  0
   -2.7104   -1.7614    1.3872 C   0  0  0  0  0  0  0  0  0  0  0  0
   -3.9774   -2.3502    1.3697 C   0  0  0  0  0  0  0  0  0  0  0  0
   -4.5350   -2.7969    0.1682 C   0  0  0  0  0  0  0  0  0  0  0  0
   -5.9099   -3.4002    0.1452 C   0  0  0  0  0  0  0  0  0  0  0  0
   -3.8151   -2.6318   -1.0186 C   0  0  0  0  0  0  0  0  0  0  0  0
   -2.5477   -2.0440   -1.0031 C   0  0  0  0  0  0  0  0  0  0  0  0
    0.4654   -1.7134    0.6242 C   0  0  0  0  0  0  0  0  0  0  0  0
    3.1987   -3.1873    0.4767 C   0  0  0  0  0  0  0  0  0  0  0  0
    4.3160   -3.9267    0.8783 C   0  0  0  0  0  0  0  0  0  0  0  0
    6.2396   -5.2869    2.1267 H   0  0  0  0  0  0  0  0  0  0  0  0
    6.6078   -4.0608    3.3390 H   0  0  0  0  0  0  0  0  0  0  0  0
    7.2548   -3.8924    1.6873 H   0  0  0  0  0  0  0  0  0  0  0  0
    5.5755   -1.7761    3.1880 H   0  0  0  0  0  0  0  0  0  0  0  0
    3.6184   -0.4817    2.4998 H   0  0  0  0  0  0  0  0  0  0  0  0
    2.8399    0.6409    0.1808 H   0  0  0  0  0  0  0  0  0  0  0  0
    1.6326    1.8524   -2.5896 H   0  0  0  0  0  0  0  0  0  0  0  0
    1.8703    4.1941   -3.2693 H   0  0  0  0  0  0  0  0  0  0  0  0
    0.6947    7.0971   -1.2297 H   0  0  0  0  0  0  0  0  0  0  0  0
    1.0761    6.5647   -2.8675 H   0  0  0  0  0  0  0  0  0  0  0  0
    2.3813    6.7346   -1.6647 H   0  0  0  0  0  0  0  0  0  0  0  0
    0.4764    5.4810    0.5959 H   0  0  0  0  0  0  0  0  0  0  0  0
    0.2347    3.1491    1.3000 H   0  0  0  0  0  0  0  0  0  0  0  0
   -1.2250    0.9249   -2.7019 H   0  0  0  0  0  0  0  0  0  0  0  0
   -3.2084    2.2559   -3.3711 H   0  0  0  0  0  0  0  0  0  0  0  0
   -4.7422    3.1523   -1.6464 H   0  0  0  0  0  0  0  0  0  0  0  0
   -4.3161    2.7408    0.7574 H   0  0  0  0  0  0  0  0  0  0  0  0
   -2.3338    1.4263    1.4618 H   0  0  0  0  0  0  0  0  0  0  0  0
   -2.3039   -1.4406    2.3452 H   0  0  0  0  0  0  0  0  0  0  0  0
   -4.5277   -2.4660    2.3024 H   0  0  0  0  0  0  0  0  0  0  0  0
   -6.0002   -4.1350   -0.6621 H   0  0  0  0  0  0  0  0  0  0  0  0
   -6.6589   -2.6164   -0.0044 H   0  0  0  0  0  0  0  0  0  0  0  0
   -6.1241   -3.9213    1.0845 H   0  0  0  0  0  0  0  0  0  0  0  0
   -4.2380   -2.9692   -1.9639 H   0  0  0  0  0  0  0  0  0  0  0  0
   -2.0108   -1.9540   -1.9459 H   0  0  0  0  0  0  0  0  0  0  0  0
    0.3264   -2.7468    0.9461 H   0  0  0  0  0  0  0  0  0  0  0  0
    2.5601   -3.6041   -0.2994 H   0  0  0  0  0  0  0  0  0  0  0  0
    4.5135   -4.8906    0.4124 H   0  0  0  0  0  0  0  0  0  0  0  0
  1  2  1  0
  2  3  2  0
  3  4  1  0
  4  5  2  0
  5  6  1  0
  6  7  2  0
  7  8  1  0
  8  9  1  0
  9 10  2  0
 10 11  1  0
 11 12  2  0
 12 13  1  0
 12 14  1  0
 14 15  2  0
  8 16  2  0
 16 17  1  0
 17 18  2  0
 18 19  1  0
 19 20  2  0
 20 21  1  0
 21 22  2  0
 16 23  1  0
 23 24  1  0
 24 25  2  0
 25 26  1  0
 26 27  2  0
 27 28  1  0
 27 29  1  0
 29 30  2  0
 23 31  2  0
  5 32  1  0
 32 33  2  0
 33  2  1  0
 31  6  1  0
 15  9  1  0
 22 17  1  0
 30 24  1  0
  1 34  1  0
  1 35  1  0
  1 36  1  0
  3 37  1  0
  4 38  1  0
  7 39  1  0
 10 40  1  0
 11 41  1  0
 13 42  1  0
 13 43  1  0
 13 44  1  0
 14 45  1  0
 15 46  1  0
 18 47  1  0
 19 48  1  0
 20 49  1  0
 21 50  1  0
 22 51  1  0
 25 52  1  0
 26 53  1  0
 28 54  1  0
 28 55  1  0
 28 56  1  0
 29 57  1  0
 30 58  1  0
 31 59  1  0
 32 60  1  0
 33 61  1  0
M  CHG  1  16   1
M  END
$$$$
