
     RDKit          3D

 46 48  0  0  0  0  0  0  0  0999 V2000
   -3.3313    1.2960   -0.6190 C   0  0  0  0  0  0  0  0  0  0  0  0
   -2.7688    0.6874    0.6522 C   0  0  0  0  0  0  0  0  0  0  0  0
   -2.7183   -0.8019    0.5277 N   0  0  0  0  0  4  0  0  0  0  0  0
   -1.5549   -1.3979    0.1238 C   0  0  0  0  0  0  0  0  0  0  0  0
   -0.3974   -0.5949   -0.2895 C   0  0  0  0  0  0  0  0  0  0  0  0
    0.7694   -0.6184    0.3748 C   0  0  0  0  0  0  0  0  0  0  0  0
    1.9225    0.2058   -0.0081 C   0  0  0  0  0  0  0  0  0  0  0  0
    2.3033    0.3956   -1.3357 C   0  0  0  0  0  0  0  0  0  0  0  0
    3.4199    1.1855   -1.6535 C   0  0  0  0  0  0  0  0  0  0  0  0
    4.2136    1.8010   -0.6705 C   0  0  0  0  0  0  0  0  0  0  0  0
    5.3071    2.6087   -0.9955 N   0  0  0  0  0  0  0  0  0  0  0  0
    5.8634    2.5501   -2.3476 C   0  0  0  0  0  0  0  0  0  0  0  0
    6.2528    2.9907    0.0538 C   0  0  0  0  0  0  0  0  0  0  0  0
    3.8104    1.5850    0.6581 C   0  0  0  0  0  0  0  0  0  0  0  0
    2.6970    0.7963    0.9887 C   0  0  0  0  0  0  0  0  0  0  0  0
   -1.4506   -2.7880    0.0594 C   0  0  0  0  0  0  0  0  0  0  0  0
   -2.5266   -3.5825    0.4059 C   0  0  0  0  0  0  0  0  0  0  0  0
   -3.7150   -2.9845    0.8043 C   0  0  0  0  0  0  0  0  0  0  0  0
   -4.8122   -3.7894    1.1452 C   0  0  0  0  0  0  0  0  0  0  0  0
   -6.0180   -3.2168    1.5389 C   0  0  0  0  0  0  0  0  0  0  0  0
   -6.1401   -1.8354    1.5924 C   0  0  0  0  0  0  0  0  0  0  0  0
   -5.0537   -1.0200    1.2567 C   0  0  0  0  0  0  0  0  0  0  0  0
   -3.8153   -1.5661    0.8613 C   0  0  0  0  0  0  0  0  0  0  0  0
   -3.3628    2.3864   -0.5332 H   0  0  0  0  0  0  0  0  0  0  0  0
   -4.3468    0.9430   -0.8213 H   0  0  0  0  0  0  0  0  0  0  0  0
   -2.7184    1.0412   -1.4887 H   0  0  0  0  0  0  0  0  0  0  0  0
   -3.3603    0.9498    1.5337 H   0  0  0  0  0  0  0  0  0  0  0  0
   -1.7679    1.0740    0.8633 H   0  0  0  0  0  0  0  0  0  0  0  0
   -0.5377    0.0406   -1.1600 H   0  0  0  0  0  0  0  0  0  0  0  0
    0.9108   -1.2316    1.2638 H   0  0  0  0  0  0  0  0  0  0  0  0
    1.7551   -0.0676   -2.1518 H   0  0  0  0  0  0  0  0  0  0  0  0
    3.6520    1.3027   -2.7082 H   0  0  0  0  0  0  0  0  0  0  0  0
    5.1282    2.8731   -3.0924 H   0  0  0  0  0  0  0  0  0  0  0  0
    6.7180    3.2272   -2.4572 H   0  0  0  0  0  0  0  0  0  0  0  0
    6.2103    1.5387   -2.5862 H   0  0  0  0  0  0  0  0  0  0  0  0
    7.0531    3.6257   -0.3429 H   0  0  0  0  0  0  0  0  0  0  0  0
    5.7612    3.5815    0.8341 H   0  0  0  0  0  0  0  0  0  0  0  0
    6.7221    2.1071    0.5004 H   0  0  0  0  0  0  0  0  0  0  0  0
    4.3572    2.0296    1.4847 H   0  0  0  0  0  0  0  0  0  0  0  0
    2.4497    0.6681    2.0400 H   0  0  0  0  0  0  0  0  0  0  0  0
   -0.5257   -3.2604   -0.2704 H   0  0  0  0  0  0  0  0  0  0  0  0
   -2.4294   -4.6666    0.3516 H   0  0  0  0  0  0  0  0  0  0  0  0
   -4.7432   -4.8768    1.1066 H   0  0  0  0  0  0  0  0  0  0  0  0
   -6.8639   -3.8513    1.8001 H   0  0  0  0  0  0  0  0  0  0  0  0
   -7.0873   -1.3899    1.8947 H   0  0  0  0  0  0  0  0  0  0  0  0
   -5.2315    0.0494    1.3107 H   0  0  0  0  0  0  0  0  0  0  0  0
  1  2  1  0
  2  3  1  0
  3  4  2  0
  4  5  1  0
  5  6  2  3
  6  7  1  0
  7  8  2  0
  8  9  1  0
  9 10  2  0
 10 11  1  0
 11 12  1  0
 11 13  1  0
 10 14  1  0
 14 15  2  0
  4 16  1  0
 16 17  2  0
 17 18  1  0
 18 19  2  0
 19 20  1  0
 20 21  2  0
 21 22  1  0
 22 23  2  0
 23  3  1  0
 15  7  1  0
 23 18  1  0
  1 24  1  0
  1 25  1  0
  1 26  1  0
  2 27  1  0
  2 28  1  0
  5 29  1  0
  6 30  1  0
  8 31  1  0
  9 32  1  0
 12 33  1  0
 12 34  1  0
 12 35  1  0
 13 36  1  0
 13 37  1  0
 13 38  1  0
 14 39  1  0
 15 40  1  0
 16 41  1  0
 17 42  1  0
 19 43  1  0
 20 44  1  0
 21 45  1  0
 22 46  1  0
M  CHG  1   3   1
M  END
$$$$
