
     RDKit          3D

 51 55  0  0  0  0  0  0  0  0999 V2000
   -3.2539    3.0013   -1.7183 O   0  0  0  0  0  0  0  0  0  0  0  0
   -3.6105    1.8143   -1.6141 C   0  0  0  0  0  0  0  0  0  0  0  0
   -5.1200    1.5357   -1.5237 C   0  0  0  0  0  0  0  0  0  0  0  0
   -5.7315    0.9635   -0.2229 C   0  0  0  0  0  0  0  0  0  0  0  0
   -6.8311    0.3251   -1.0943 C   0  0  0  0  0  0  0  0  0  0  0  0
   -5.8637    0.4218   -2.2921 C   0  0  0  0  0  0  0  0  0  0  0  0
   -2.6779    0.7786   -1.5502 N   0  0  0  0  0  0  0  0  0  0  0  0
   -2.9383   -0.6715   -1.5166 C   0  0  0  0  0  0  0  0  0  0  0  0
   -1.6185   -1.3741   -1.1835 C   0  0  0  0  0  0  0  0  0  0  0  0
   -0.6319   -0.2852   -1.4451 C   0  0  0  0  0  0  0  0  0  0  0  0
    0.7509   -0.3988   -1.4628 C   0  0  0  0  0  0  0  0  0  0  0  0
    1.4975    0.7661   -1.6581 C   0  0  0  0  0  0  0  0  0  0  0  0
    3.2703    0.6795   -1.6901 S   0  0  0  0  0  6  0  0  0  0  0  0
    3.6708   -0.7110   -1.6940 O   0  0  0  0  0  0  0  0  0  0  0  0
    3.7272    1.5892   -2.7197 O   0  0  0  0  0  0  0  0  0  0  0  0
    3.7027    1.3853   -0.2141 N   0  0  0  0  0  0  0  0  0  0  0  0
    3.6303    0.5796    0.9551 C   0  0  0  0  0  0  0  0  0  0  0  0
    2.4281    0.4931    1.6594 C   0  0  0  0  0  0  0  0  0  0  0  0
    2.3396   -0.3235    2.7882 C   0  0  0  0  0  0  0  0  0  0  0  0
    3.4517   -1.0523    3.2047 C   0  0  0  0  0  0  0  0  0  0  0  0
    4.6448   -0.9886    2.4763 C   0  0  0  0  0  0  0  0  0  0  0  0
    4.7395   -0.1642    1.3563 C   0  0  0  0  0  0  0  0  0  0  0  0
    5.7657   -1.7060    2.8093 O   0  0  0  0  0  0  0  0  0  0  0  0
    5.4553   -2.7601    3.7280 C   0  0  0  0  0  0  0  0  0  0  0  0
    4.5641   -2.2484    4.8476 C   0  0  0  0  0  0  0  0  0  0  0  0
    3.2988   -1.8179    4.3319 O   0  0  0  0  0  0  0  0  0  0  0  0
    0.8689    2.0085   -1.8417 C   0  0  0  0  0  0  0  0  0  0  0  0
   -0.5276    2.1010   -1.8112 C   0  0  0  0  0  0  0  0  0  0  0  0
   -1.2724    0.9472   -1.6139 C   0  0  0  0  0  0  0  0  0  0  0  0
   -5.6310    2.4908   -1.7528 H   0  0  0  0  0  0  0  0  0  0  0  0
   -5.1122    0.2417    0.3162 H   0  0  0  0  0  0  0  0  0  0  0  0
   -6.0865    1.7104    0.4936 H   0  0  0  0  0  0  0  0  0  0  0  0
   -7.7251    0.9502   -1.2006 H   0  0  0  0  0  0  0  0  0  0  0  0
   -7.1341   -0.6855   -0.8092 H   0  0  0  0  0  0  0  0  0  0  0  0
   -6.3274    0.7374   -3.2319 H   0  0  0  0  0  0  0  0  0  0  0  0
   -5.3300   -0.5096   -2.4786 H   0  0  0  0  0  0  0  0  0  0  0  0
   -3.2649   -0.9648   -2.5209 H   0  0  0  0  0  0  0  0  0  0  0  0
   -3.7189   -0.9299   -0.8006 H   0  0  0  0  0  0  0  0  0  0  0  0
   -1.5853   -1.6627   -0.1277 H   0  0  0  0  0  0  0  0  0  0  0  0
   -1.4588   -2.2532   -1.8141 H   0  0  0  0  0  0  0  0  0  0  0  0
    1.2337   -1.3609   -1.3152 H   0  0  0  0  0  0  0  0  0  0  0  0
    4.5281    1.9731   -0.3292 H   0  0  0  0  0  0  0  0  0  0  0  0
    1.5613    1.0708    1.3498 H   0  0  0  0  0  0  0  0  0  0  0  0
    1.4102   -0.3817    3.3477 H   0  0  0  0  0  0  0  0  0  0  0  0
    5.6672   -0.1299    0.7932 H   0  0  0  0  0  0  0  0  0  0  0  0
    4.9761   -3.5767    3.1737 H   0  0  0  0  0  0  0  0  0  0  0  0
    6.3999   -3.1329    4.1363 H   0  0  0  0  0  0  0  0  0  0  0  0
    5.0282   -1.4075    5.3777 H   0  0  0  0  0  0  0  0  0  0  0  0
    4.3724   -3.0452    5.5730 H   0  0  0  0  0  0  0  0  0  0  0  0
    1.4605    2.9070   -2.0062 H   0  0  0  0  0  0  0  0  0  0  0  0
   -0.9925    3.0705   -1.9545 H   0  0  0  0  0  0  0  0  0  0  0  0
  1  2  2  0
  2  3  1  0
  3  4  1  0
  4  5  1  0
  5  6  1  0
  2  7  1  0
  7  8  1  0
  8  9  1  0
  9 10  1  0
 10 11  2  0
 11 12  1  0
 12 13  1  0
 13 14  2  0
 13 15  2  0
 13 16  1  0
 16 17  1  0
 17 18  2  0
 18 19  1  0
 19 20  2  0
 20 21  1  0
 21 22  2  0
 21 23  1  0
 23 24  1  0
 24 25  1  0
 25 26  1  0
 12 27  2  0
 27 28  1  0
 28 29  2  0
  6  3  1  0
 29  7  1  0
 29 10  1  0
 22 17  1  0
 26 20  1  0
  3 30  1  0
  4 31  1  0
  4 32  1  0
  5 33  1  0
  5 34  1  0
  6 35  1  0
  6 36  1  0
  8 37  1  0
  8 38  1  0
  9 39  1  0
  9 40  1  0
 11 41  1  0
 16 42  1  0
 18 43  1  0
 19 44  1  0
 22 45  1  0
 24 46  1  0
 24 47  1  0
 25 48  1  0
 25 49  1  0
 27 50  1  0
 28 51  1  0
M  END
$$$$
