
     RDKit          3D

 68 71  0  0  0  0  0  0  0  0999 V2000
    9.2298   -0.1025    4.2993 C   0  0  0  0  0  0  0  0  0  0  0  0
    8.1637   -0.7294    3.5005 C   0  0  0  0  0  0  0  0  0  0  0  0
    6.9154   -0.3338    3.0874 C   0  0  0  0  0  0  0  0  0  0  0  0
    6.4184   -1.4348    2.3561 C   0  0  0  0  0  0  0  0  0  0  0  0
    5.2061   -1.5891    1.7227 N   0  0  0  0  0  0  0  0  0  0  0  0
    4.1833   -0.6678    1.7258 C   0  0  0  0  0  0  0  0  0  0  0  0
    4.2015    0.4238    2.2857 O   0  0  0  0  0  0  0  0  0  0  0  0
    2.9911   -1.1497    0.9243 C   0  0  0  0  0  0  0  0  0  0  0  0
    1.7980   -0.2085    1.0655 C   0  0  0  0  0  0  0  0  0  0  0  0
    0.6145   -0.6816    0.2403 C   0  0  0  0  0  0  0  0  0  0  0  0
    0.6850   -1.7361   -0.3977 O   0  0  0  0  0  0  0  0  0  0  0  0
   -0.5400    0.0951    0.2484 N   0  0  0  0  0  0  0  0  0  0  0  0
   -0.5762    1.4661    0.7743 C   0  0  0  0  0  0  0  0  0  0  0  0
   -0.6559    1.4798    2.2614 C   0  0  0  0  0  0  0  0  0  0  0  0
    0.0726    2.1334    3.2366 C   0  0  0  0  0  0  0  0  0  0  0  0
   -0.4823    1.7464    4.4797 C   0  0  0  0  0  0  0  0  0  0  0  0
   -1.5211    0.8955    4.1860 C   0  0  0  0  0  0  0  0  0  0  0  0
   -1.6360    0.7308    2.8444 O   0  0  0  0  0  0  0  0  0  0  0  0
   -1.6115   -0.3131   -0.6827 C   0  0  0  0  0  0  0  0  0  0  0  0
   -1.4182    0.3864   -2.0616 C   0  0  0  0  0  0  0  0  0  0  0  0
   -0.7926    1.4389   -2.2051 O   0  0  0  0  0  0  0  0  0  0  0  0
   -2.0488   -0.2543   -3.1174 N   0  0  0  0  0  0  0  0  0  0  0  0
   -2.0911    0.3355   -4.4363 C   0  0  0  0  0  0  0  0  0  0  0  0
   -3.1806    1.3989   -4.5729 C   0  0  0  0  0  0  0  0  0  0  0  0
   -3.5169    1.4412   -6.0628 C   0  0  0  0  0  0  0  0  0  0  0  0
   -2.8599    0.2115   -6.6884 C   0  0  0  0  0  0  0  0  0  0  0  0
   -2.4624   -0.6726   -5.5160 C   0  0  0  0  0  0  0  0  0  0  0  0
   -3.0255   -0.1607   -0.1074 C   0  0  0  0  0  0  0  0  0  0  0  0
   -3.8393    0.9328   -0.4690 C   0  0  0  0  0  0  0  0  0  0  0  0
   -5.1293    1.0772    0.0428 C   0  0  0  0  0  0  0  0  0  0  0  0
   -5.6313    0.1370    0.9323 C   0  0  0  0  0  0  0  0  0  0  0  0
   -4.8435   -0.9465    1.3140 C   0  0  0  0  0  0  0  0  0  0  0  0
   -3.5417   -1.1087    0.8091 C   0  0  0  0  0  0  0  0  0  0  0  0
   -2.7332   -2.2927    1.2730 C   0  0  0  0  0  0  0  0  0  0  0  0
    7.3173   -2.4250    2.3126 N   0  0  0  0  0  0  0  0  0  0  0  0
    8.4076   -1.9853    3.0409 O   0  0  0  0  0  0  0  0  0  0  0  0
    9.3843   -0.6535    5.2322 H   0  0  0  0  0  0  0  0  0  0  0  0
   10.1726   -0.0935    3.7439 H   0  0  0  0  0  0  0  0  0  0  0  0
    8.9745    0.9311    4.5522 H   0  0  0  0  0  0  0  0  0  0  0  0
    6.4350    0.6102    3.2973 H   0  0  0  0  0  0  0  0  0  0  0  0
    5.0965   -2.4799    1.2554 H   0  0  0  0  0  0  0  0  0  0  0  0
    3.2953   -1.2201   -0.1267 H   0  0  0  0  0  0  0  0  0  0  0  0
    2.7186   -2.1552    1.2669 H   0  0  0  0  0  0  0  0  0  0  0  0
    1.5027   -0.1725    2.1182 H   0  0  0  0  0  0  0  0  0  0  0  0
    2.0917    0.7936    0.7384 H   0  0  0  0  0  0  0  0  0  0  0  0
   -1.4328    2.0144    0.3738 H   0  0  0  0  0  0  0  0  0  0  0  0
    0.3174    1.9986    0.4342 H   0  0  0  0  0  0  0  0  0  0  0  0
    0.9070    2.8005    3.0687 H   0  0  0  0  0  0  0  0  0  0  0  0
   -0.1679    2.0529    5.4674 H   0  0  0  0  0  0  0  0  0  0  0  0
   -2.2393    0.3529    4.7848 H   0  0  0  0  0  0  0  0  0  0  0  0
   -1.4911   -1.3794   -0.9138 H   0  0  0  0  0  0  0  0  0  0  0  0
   -2.7216   -0.9793   -2.8924 H   0  0  0  0  0  0  0  0  0  0  0  0
   -1.1131    0.7803   -4.6606 H   0  0  0  0  0  0  0  0  0  0  0  0
   -2.8537    2.3746   -4.1976 H   0  0  0  0  0  0  0  0  0  0  0  0
   -4.0756    1.1174   -4.0025 H   0  0  0  0  0  0  0  0  0  0  0  0
   -3.1372    2.3562   -6.5298 H   0  0  0  0  0  0  0  0  0  0  0  0
   -4.6028    1.4260   -6.2088 H   0  0  0  0  0  0  0  0  0  0  0  0
   -1.9657    0.5166   -7.2456 H   0  0  0  0  0  0  0  0  0  0  0  0
   -3.5262   -0.3045   -7.3865 H   0  0  0  0  0  0  0  0  0  0  0  0
   -1.6353   -1.3452   -5.7630 H   0  0  0  0  0  0  0  0  0  0  0  0
   -3.3141   -1.2895   -5.2036 H   0  0  0  0  0  0  0  0  0  0  0  0
   -3.4766    1.6998   -1.1507 H   0  0  0  0  0  0  0  0  0  0  0  0
   -5.7367    1.9297   -0.2483 H   0  0  0  0  0  0  0  0  0  0  0  0
   -6.6325    0.2500    1.3390 H   0  0  0  0  0  0  0  0  0  0  0  0
   -5.2506   -1.6655    2.0217 H   0  0  0  0  0  0  0  0  0  0  0  0
   -3.2816   -2.8892    2.0110 H   0  0  0  0  0  0  0  0  0  0  0  0
   -2.5029   -2.9509    0.4292 H   0  0  0  0  0  0  0  0  0  0  0  0
   -1.8052   -1.9649    1.7500 H   0  0  0  0  0  0  0  0  0  0  0  0
  1  2  1  0
  2  3  2  0
  3  4  1  0
  4  5  1  0
  5  6  1  0
  6  7  2  0
  6  8  1  0
  8  9  1  0
  9 10  1  0
 10 11  2  0
 10 12  1  0
 12 13  1  0
 13 14  1  0
 14 15  2  0
 15 16  1  0
 16 17  2  0
 17 18  1  0
 12 19  1  0
 19 20  1  0
 20 21  2  0
 20 22  1  0
 22 23  1  0
 23 24  1  0
 24 25  1  0
 25 26  1  0
 26 27  1  0
 19 28  1  0
 28 29  2  0
 29 30  1  0
 30 31  2  0
 31 32  1  0
 32 33  2  0
 33 34  1  0
  4 35  2  0
 35 36  1  0
 36  2  1  0
 18 14  1  0
 27 23  1  0
 33 28  1  0
  1 37  1  0
  1 38  1  0
  1 39  1  0
  3 40  1  0
  5 41  1  0
  8 42  1  0
  8 43  1  0
  9 44  1  0
  9 45  1  0
 13 46  1  0
 13 47  1  0
 15 48  1  0
 16 49  1  0
 17 50  1  0
 19 51  1  0
 22 52  1  0
 23 53  1  0
 24 54  1  0
 24 55  1  0
 25 56  1  0
 25 57  1  0
 26 58  1  0
 26 59  1  0
 27 60  1  0
 27 61  1  0
 29 62  1  0
 30 63  1  0
 31 64  1  0
 32 65  1  0
 34 66  1  0
 34 67  1  0
 34 68  1  0
M  END
$$$$
