
     RDKit          3D

 46 49  0  0  0  0  0  0  0  0999 V2000
    0.4365    1.9204   -0.7922 O   0  0  0  0  0  0  0  0  0  0  0  0
    0.7663    0.7509   -0.9669 C   0  0  0  0  0  0  0  0  0  0  0  0
   -0.2515   -0.2746   -1.4333 C   0  0  0  0  0  0  0  0  0  0  0  0
   -0.4139   -1.3476   -0.4710 N   0  0  0  0  0  0  0  0  0  0  0  0
   -1.1077   -1.2789    0.7210 C   0  0  0  0  0  0  0  0  0  0  0  0
   -1.8770   -0.0803    1.1838 C   0  0  0  0  0  0  0  0  0  0  0  0
   -2.9277    0.1242    0.2425 O   0  0  0  0  0  0  0  0  0  0  0  0
   -3.7290    1.2153    0.4370 C   0  0  0  0  0  0  0  0  0  0  0  0
   -4.7289    1.3808   -0.5257 C   0  0  0  0  0  0  0  0  0  0  0  0
   -5.6149    2.4571   -0.4544 C   0  0  0  0  0  0  0  0  0  0  0  0
   -5.5054    3.3774    0.5844 C   0  0  0  0  0  0  0  0  0  0  0  0
   -4.5135    3.2168    1.5507 C   0  0  0  0  0  0  0  0  0  0  0  0
   -3.6261    2.1376    1.4793 C   0  0  0  0  0  0  0  0  0  0  0  0
   -0.9692   -2.4026    1.3995 N   0  0  0  0  0  0  0  0  0  0  0  0
   -0.2071   -3.2281    0.6182 C   0  0  0  0  0  0  0  0  0  0  0  0
    0.2258   -4.5384    0.8675 C   0  0  0  0  0  0  0  0  0  0  0  0
    1.0118   -5.1840   -0.0930 C   0  0  0  0  0  0  0  0  0  0  0  0
    1.3556   -4.5392   -1.2820 C   0  0  0  0  0  0  0  0  0  0  0  0
    0.9310   -3.2327   -1.5498 C   0  0  0  0  0  0  0  0  0  0  0  0
    0.1509   -2.6005   -0.5711 C   0  0  0  0  0  0  0  0  0  0  0  0
    2.0436    0.2445   -0.8122 N   0  0  0  0  0  0  0  0  0  0  0  0
    3.2117    0.9236   -0.3871 C   0  0  0  0  0  0  0  0  0  0  0  0
    3.2324    2.2762   -0.0346 C   0  0  0  0  0  0  0  0  0  0  0  0
    4.4227    2.8861    0.3860 C   0  0  0  0  0  0  0  0  0  0  0  0
    4.3612    4.5612    0.8105 Cl  0  0  0  0  0  0  0  0  0  0  0  0
    5.6067    2.1440    0.4551 C   0  0  0  0  0  0  0  0  0  0  0  0
    7.1060    2.8334    0.9643 Cl  0  0  0  0  0  0  0  0  0  0  0  0
    5.6017    0.7939    0.1040 C   0  0  0  0  0  0  0  0  0  0  0  0
    4.4132    0.1917   -0.3115 C   0  0  0  0  0  0  0  0  0  0  0  0
    4.4596   -1.4856   -0.7424 Cl  0  0  0  0  0  0  0  0  0  0  0  0
   -1.2213    0.2038   -1.5918 H   0  0  0  0  0  0  0  0  0  0  0  0
    0.0647   -0.6899   -2.3947 H   0  0  0  0  0  0  0  0  0  0  0  0
   -2.2957   -0.2820    2.1765 H   0  0  0  0  0  0  0  0  0  0  0  0
   -1.2089    0.7870    1.2300 H   0  0  0  0  0  0  0  0  0  0  0  0
   -4.8202    0.6629   -1.3374 H   0  0  0  0  0  0  0  0  0  0  0  0
   -6.3877    2.5750   -1.2089 H   0  0  0  0  0  0  0  0  0  0  0  0
   -6.1924    4.2173    0.6428 H   0  0  0  0  0  0  0  0  0  0  0  0
   -4.4285    3.9345    2.3630 H   0  0  0  0  0  0  0  0  0  0  0  0
   -2.8724    2.0507    2.2546 H   0  0  0  0  0  0  0  0  0  0  0  0
   -0.0495   -5.0331    1.7918 H   0  0  0  0  0  0  0  0  0  0  0  0
    1.3530   -6.2003    0.0899 H   0  0  0  0  0  0  0  0  0  0  0  0
    1.9644   -5.0650   -2.0153 H   0  0  0  0  0  0  0  0  0  0  0  0
    1.1987   -2.7505   -2.4848 H   0  0  0  0  0  0  0  0  0  0  0  0
    2.1770   -0.7495   -0.9773 H   0  0  0  0  0  0  0  0  0  0  0  0
    2.3335    2.8846   -0.0704 H   0  0  0  0  0  0  0  0  0  0  0  0
    6.5203    0.2121    0.1552 H   0  0  0  0  0  0  0  0  0  0  0  0
  1  2  2  0
  2  3  1  0
  3  4  1  0
  4  5  1  0
  5  6  1  0
  6  7  1  0
  7  8  1  0
  8  9  2  0
  9 10  1  0
 10 11  2  0
 11 12  1  0
 12 13  2  0
  5 14  2  0
 14 15  1  0
 15 16  2  0
 16 17  1  0
 17 18  2  0
 18 19  1  0
 19 20  2  0
  2 21  1  0
 21 22  1  0
 22 23  2  0
 23 24  1  0
 24 25  1  0
 24 26  2  0
 26 27  1  0
 26 28  1  0
 28 29  2  0
 29 30  1  0
 20  4  1  0
 29 22  1  0
 13  8  1  0
 20 15  1  0
  3 31  1  0
  3 32  1  0
  6 33  1  0
  6 34  1  0
  9 35  1  0
 10 36  1  0
 11 37  1  0
 12 38  1  0
 13 39  1  0
 16 40  1  0
 17 41  1  0
 18 42  1  0
 19 43  1  0
 21 44  1  0
 23 45  1  0
 28 46  1  0
M  END
$$$$
