
     RDKit          3D

 92 94  0  0  0  0  0  0  0  0999 V2000
   -1.1866   -4.5035    0.8854 C   0  0  0  0  0  0  0  0  0  0  0  0
   -0.7939   -3.0606    0.9688 C   0  0  0  0  0  0  0  0  0  0  0  0
    0.1289   -2.6416    1.6518 O   0  0  0  0  0  0  0  0  0  0  0  0
   -1.6312   -2.3072    0.2109 O   0  0  0  0  0  0  0  0  0  0  0  0
   -1.3811   -0.8771    0.1774 C   0  0  1  0  0  0  0  0  0  0  0  0
   -1.0723   -0.4589   -1.2903 C   0  0  2  0  0  0  0  0  0  0  0  0
   -2.0719   -1.0415   -2.1567 O   0  0  0  0  0  0  0  0  0  0  0  0
   -2.5831   -0.2464   -3.1327 C   0  0  0  0  0  0  0  0  0  0  0  0
   -3.5450   -1.0264   -3.9770 C   0  0  0  0  0  0  0  0  0  0  0  0
   -2.2840    0.9241   -3.3297 O   0  0  0  0  0  0  0  0  0  0  0  0
    0.3223   -0.8706   -1.7694 C   0  0  0  0  0  0  0  0  0  0  0  0
    0.4093   -2.0678   -2.6821 C   0  0  0  0  0  0  0  0  0  0  0  0
    1.4554   -0.2136   -1.4313 C   0  0  0  0  0  0  0  0  0  0  0  0
    1.5981    0.9155   -0.4226 C   0  0  1  0  0  0  0  0  0  0  0  0
    2.6194    0.6209    0.7124 C   0  0  1  0  0  0  0  0  0  0  0  0
    2.9019   -0.7724    0.8550 O   0  0  0  0  0  0  0  0  0  0  0  0
    3.3264   -1.1678    2.0809 C   0  0  0  0  0  0  0  0  0  0  0  0
    3.5033   -0.4381    3.0446 O   0  0  0  0  0  0  0  0  0  0  0  0
    3.5788   -2.6340    2.0978 C   0  0  0  0  0  0  0  0  0  0  0  0
    3.3931   -3.4426    0.9673 C   0  0  0  0  0  0  0  0  0  0  0  0
    3.6557   -4.8134    1.0337 C   0  0  0  0  0  0  0  0  0  0  0  0
    4.1053   -5.3816    2.2256 C   0  0  0  0  0  0  0  0  0  0  0  0
    4.2908   -4.5841    3.3540 C   0  0  0  0  0  0  0  0  0  0  0  0
    4.0272   -3.2143    3.2918 C   0  0  0  0  0  0  0  0  0  0  0  0
    3.8543    1.4649    0.3925 C   0  0  1  0  0  0  0  0  0  0  0  0
    4.8345    0.8364   -0.5952 C   0  0  0  0  0  0  0  0  0  0  0  0
    3.2205    2.7584   -0.1208 C   0  0  0  0  0  0  0  0  0  0  0  0
    1.9913    2.3274   -0.9557 C   0  0  1  0  0  0  0  0  0  0  0  0
    2.4597    2.2205   -2.3163 O   0  0  0  0  0  0  0  0  0  0  0  0
    0.8771    3.4320   -0.9287 C   0  0  1  0  0  0  0  0  0  0  0  0
   -0.0457    3.1714   -2.0213 O   0  0  0  0  0  0  0  0  0  0  0  0
   -0.3965    4.2409   -2.7913 C   0  0  0  0  0  0  0  0  0  0  0  0
   -1.3578    3.8297   -3.8609 C   0  0  0  0  0  0  0  0  0  0  0  0
   -0.0119    5.3906   -2.6330 O   0  0  0  0  0  0  0  0  0  0  0  0
    0.0865    3.6252    0.4133 C   0  0  1  0  0  0  0  0  0  0  0  0
   -0.5116    5.0352    0.4983 C   0  0  0  0  0  0  0  0  0  0  0  0
   -1.0563    2.6421    0.6360 C   0  0  0  0  0  0  0  0  0  0  0  0
   -1.1813    1.8573    1.7226 C   0  0  0  0  0  0  0  0  0  0  0  0
   -2.2828    0.8232    1.9822 C   0  0  0  0  0  0  0  0  0  0  0  0
   -3.5586    1.5909    2.4015 C   0  0  0  0  0  0  0  0  0  0  0  0
   -1.8575   -0.0461    3.1889 C   0  0  0  0  0  0  0  0  0  0  0  0
   -2.6138   -0.0907    0.7370 C   0  0  2  0  0  0  0  0  0  0  0  0
   -3.6594   -1.0218    1.1241 O   0  0  0  0  0  0  0  0  0  0  0  0
   -4.6558   -1.2321    0.2236 C   0  0  0  0  0  0  0  0  0  0  0  0
   -5.5838   -2.2932    0.7282 C   0  0  0  0  0  0  0  0  0  0  0  0
   -4.7865   -0.6509   -0.8450 O   0  0  0  0  0  0  0  0  0  0  0  0
   -1.9688   -4.7138    1.6180 H   0  0  0  0  0  0  0  0  0  0  0  0
   -0.3109   -5.1286    1.0861 H   0  0  0  0  0  0  0  0  0  0  0  0
   -1.5387   -4.7419   -0.1234 H   0  0  0  0  0  0  0  0  0  0  0  0
   -0.5096   -0.6348    0.7875 H   0  0  0  0  0  0  0  0  0  0  0  0
   -1.1229    0.6330   -1.3499 H   0  0  0  0  0  0  0  0  0  0  0  0
   -4.3993   -1.3487   -3.3783 H   0  0  0  0  0  0  0  0  0  0  0  0
   -3.0377   -1.8888   -4.4156 H   0  0  0  0  0  0  0  0  0  0  0  0
   -3.9091   -0.3937   -4.7894 H   0  0  0  0  0  0  0  0  0  0  0  0
   -0.0075   -1.8294   -3.6650 H   0  0  0  0  0  0  0  0  0  0  0  0
    1.4421   -2.3995   -2.8313 H   0  0  0  0  0  0  0  0  0  0  0  0
   -0.1412   -2.9140   -2.2601 H   0  0  0  0  0  0  0  0  0  0  0  0
    2.3982   -0.5573   -1.8560 H   0  0  0  0  0  0  0  0  0  0  0  0
    0.6509    0.9904    0.0898 H   0  0  0  0  0  0  0  0  0  0  0  0
    2.1669    0.9984    1.6427 H   0  0  0  0  0  0  0  0  0  0  0  0
    3.0376   -3.0194    0.0313 H   0  0  0  0  0  0  0  0  0  0  0  0
    3.5123   -5.4372    0.1559 H   0  0  0  0  0  0  0  0  0  0  0  0
    4.3090   -6.4483    2.2774 H   0  0  0  0  0  0  0  0  0  0  0  0
    4.6389   -5.0262    4.2840 H   0  0  0  0  0  0  0  0  0  0  0  0
    4.1740   -2.5991    4.1783 H   0  0  0  0  0  0  0  0  0  0  0  0
    4.4163    1.6648    1.3132 H   0  0  0  0  0  0  0  0  0  0  0  0
    5.2560   -0.0897   -0.1911 H   0  0  0  0  0  0  0  0  0  0  0  0
    4.3763    0.6039   -1.5588 H   0  0  0  0  0  0  0  0  0  0  0  0
    5.6687    1.5204   -0.7855 H   0  0  0  0  0  0  0  0  0  0  0  0
    2.9166    3.3572    0.7449 H   0  0  0  0  0  0  0  0  0  0  0  0
    3.9335    3.3533   -0.7028 H   0  0  0  0  0  0  0  0  0  0  0  0
    1.6714    2.0417   -2.8618 H   0  0  0  0  0  0  0  0  0  0  0  0
    1.4150    4.3665   -1.1399 H   0  0  0  0  0  0  0  0  0  0  0  0
   -2.3166    3.5683   -3.4080 H   0  0  0  0  0  0  0  0  0  0  0  0
   -0.9469    2.9918   -4.4324 H   0  0  0  0  0  0  0  0  0  0  0  0
   -1.5130    4.6682   -4.5491 H   0  0  0  0  0  0  0  0  0  0  0  0
    0.7972    3.5440    1.2441 H   0  0  0  0  0  0  0  0  0  0  0  0
    0.2578    5.7972    0.3409 H   0  0  0  0  0  0  0  0  0  0  0  0
   -0.9466    5.2115    1.4886 H   0  0  0  0  0  0  0  0  0  0  0  0
   -1.3052    5.1905   -0.2398 H   0  0  0  0  0  0  0  0  0  0  0  0
   -1.8104    2.6085   -0.1493 H   0  0  0  0  0  0  0  0  0  0  0  0
   -0.4337    1.9555    2.5112 H   0  0  0  0  0  0  0  0  0  0  0  0
   -3.9558    2.1900    1.5741 H   0  0  0  0  0  0  0  0  0  0  0  0
   -4.3505    0.9065    2.7247 H   0  0  0  0  0  0  0  0  0  0  0  0
   -3.3575    2.2738    3.2362 H   0  0  0  0  0  0  0  0  0  0  0  0
   -0.9073   -0.5555    3.0083 H   0  0  0  0  0  0  0  0  0  0  0  0
   -2.6061   -0.8080    3.4270 H   0  0  0  0  0  0  0  0  0  0  0  0
   -1.7247    0.5655    4.0883 H   0  0  0  0  0  0  0  0  0  0  0  0
   -2.9973    0.5818   -0.0399 H   0  0  0  0  0  0  0  0  0  0  0  0
   -5.0484   -3.2421    0.8110 H   0  0  0  0  0  0  0  0  0  0  0  0
   -6.4081   -2.4170    0.0204 H   0  0  0  0  0  0  0  0  0  0  0  0
   -5.9964   -1.9982    1.6977 H   0  0  0  0  0  0  0  0  0  0  0  0
  1  2  1  0
  2  3  2  0
  2  4  1  0
  4  5  1  0
  5  6  1  0
  6  7  1  0
  7  8  1  0
  8  9  1  0
  8 10  2  0
  6 11  1  0
 11 12  1  0
 11 13  2  0
 13 14  1  0
 14 15  1  0
 15 16  1  0
 16 17  1  0
 17 18  2  0
 17 19  1  0
 19 20  2  0
 20 21  1  0
 21 22  2  0
 22 23  1  0
 23 24  2  0
 15 25  1  0
 25 26  1  0
 25 27  1  0
 27 28  1  0
 28 29  1  6
 28 30  1  0
 30 31  1  0
 31 32  1  0
 32 33  1  0
 32 34  2  0
 30 35  1  0
 35 36  1  0
 35 37  1  0
 37 38  2  0
 38 39  1  0
 39 40  1  0
 39 41  1  0
 39 42  1  0
 42 43  1  0
 43 44  1  0
 44 45  1  0
 44 46  2  0
 42  5  1  0
 28 14  1  0
 24 19  1  0
  1 47  1  0
  1 48  1  0
  1 49  1  0
  5 50  1  1
  6 51  1  1
  9 52  1  0
  9 53  1  0
  9 54  1  0
 12 55  1  0
 12 56  1  0
 12 57  1  0
 13 58  1  0
 14 59  1  1
 15 60  1  1
 20 61  1  0
 21 62  1  0
 22 63  1  0
 23 64  1  0
 24 65  1  0
 25 66  1  1
 26 67  1  0
 26 68  1  0
 26 69  1  0
 27 70  1  0
 27 71  1  0
 29 72  1  0
 30 73  1  6
 33 74  1  0
 33 75  1  0
 33 76  1  0
 35 77  1  1
 36 78  1  0
 36 79  1  0
 36 80  1  0
 37 81  1  0
 38 82  1  0
 40 83  1  0
 40 84  1  0
 40 85  1  0
 41 86  1  0
 41 87  1  0
 41 88  1  0
 42 89  1  6
 45 90  1  0
 45 91  1  0
 45 92  1  0
M  END
$$$$
