
     RDKit          3D

 69 71  0  0  0  0  0  0  0  0999 V2000
   -4.3677    4.2813   -0.0137 C   0  0  0  0  0  0  0  0  0  0  0  0
   -3.2223    3.9357    0.7699 O   0  0  0  0  0  0  0  0  0  0  0  0
   -2.3546    3.1590    0.0462 C   0  0  0  0  0  0  0  0  0  0  0  0
   -1.6423    3.7219   -1.0128 C   0  0  0  0  0  0  0  0  0  0  0  0
   -0.7704    2.9328   -1.7584 C   0  0  0  0  0  0  0  0  0  0  0  0
   -0.6102    1.5798   -1.4510 C   0  0  0  0  0  0  0  0  0  0  0  0
   -1.2932    0.9979   -0.3689 C   0  0  0  0  0  0  0  0  0  0  0  0
   -1.1456   -0.4824   -0.0292 C   0  0  0  0  0  0  0  0  0  0  0  0
   -2.1638   -1.3927   -0.7762 C   0  0  0  0  0  0  0  0  0  0  0  0
   -3.0718   -0.9641   -1.4788 O   0  0  0  0  0  0  0  0  0  0  0  0
   -2.0041   -2.7432   -0.4841 N   0  0  0  0  0  0  0  0  0  0  0  0
   -2.8155   -3.8300   -1.0527 C   0  0  0  0  0  0  0  0  0  0  0  0
   -2.6657   -3.8867   -2.5838 C   0  0  0  0  0  0  0  0  0  0  0  0
   -4.3000   -3.6703   -0.6809 C   0  0  0  0  0  0  0  0  0  0  0  0
   -2.3080   -5.1582   -0.4618 C   0  0  0  0  0  0  0  0  0  0  0  0
    0.2651   -0.9871   -0.0931 N   0  0  0  0  0  0  0  0  0  0  0  0
    1.1191   -0.9183    1.0149 C   0  0  0  0  0  0  0  0  0  0  0  0
    2.1848   -1.5335    1.0991 O   0  0  0  0  0  0  0  0  0  0  0  0
    0.6856   -0.0369    2.1801 C   0  0  0  0  0  0  0  0  0  0  0  0
    1.8397    0.2562    3.1298 C   0  0  0  0  0  0  0  0  0  0  0  0
    2.8229    1.2019    2.4665 C   0  0  0  0  0  0  0  0  0  0  0  0
    2.5857    2.4060    2.4161 O   0  0  0  0  0  0  0  0  0  0  0  0
    3.9285    0.5658    1.9490 N   0  0  0  0  0  0  0  0  0  0  0  0
    4.9103    1.1673    1.1959 C   0  0  0  0  0  0  0  0  0  0  0  0
    5.0462    2.5195    0.8163 C   0  0  0  0  0  0  0  0  0  0  0  0
    6.1864    2.5548    0.0543 C   0  0  0  0  0  0  0  0  0  0  0  0
    6.9127    3.6195   -0.6564 C   0  0  0  0  0  0  0  0  0  0  0  0
    6.7053    1.2982   -0.0245 O   0  0  0  0  0  0  0  0  0  0  0  0
    5.9138    0.4299    0.6969 N   0  0  0  0  0  0  0  0  0  0  0  0
    0.7018   -1.5431   -1.3761 C   0  0  0  0  0  0  0  0  0  0  0  0
    2.1304   -1.5913   -1.8426 C   0  0  0  0  0  0  0  0  0  0  0  0
    1.4126   -2.8653   -1.4861 C   0  0  0  0  0  0  0  0  0  0  0  0
   -2.1487    1.8163    0.4008 C   0  0  0  0  0  0  0  0  0  0  0  0
   -2.7899    1.2205    1.4599 O   0  0  0  0  0  0  0  0  0  0  0  0
   -2.6463    1.9325    2.6870 C   0  0  0  0  0  0  0  0  0  0  0  0
   -5.1277    4.6908    0.6594 H   0  0  0  0  0  0  0  0  0  0  0  0
   -4.1169    5.0566   -0.7444 H   0  0  0  0  0  0  0  0  0  0  0  0
   -4.7968    3.4041   -0.5135 H   0  0  0  0  0  0  0  0  0  0  0  0
   -1.7625    4.7716   -1.2587 H   0  0  0  0  0  0  0  0  0  0  0  0
   -0.2177    3.3690   -2.5871 H   0  0  0  0  0  0  0  0  0  0  0  0
    0.0684    0.9933   -2.0668 H   0  0  0  0  0  0  0  0  0  0  0  0
   -1.4411   -0.6207    1.0183 H   0  0  0  0  0  0  0  0  0  0  0  0
   -1.1166   -3.0009   -0.0674 H   0  0  0  0  0  0  0  0  0  0  0  0
   -1.6102   -3.9440   -2.8805 H   0  0  0  0  0  0  0  0  0  0  0  0
   -3.1796   -4.7634   -2.9973 H   0  0  0  0  0  0  0  0  0  0  0  0
   -3.0911   -2.9978   -3.0657 H   0  0  0  0  0  0  0  0  0  0  0  0
   -4.4355   -3.6207    0.4019 H   0  0  0  0  0  0  0  0  0  0  0  0
   -4.7369   -2.7620   -1.1021 H   0  0  0  0  0  0  0  0  0  0  0  0
   -4.8873   -4.5134   -1.0601 H   0  0  0  0  0  0  0  0  0  0  0  0
   -2.3850   -5.1542    0.6309 H   0  0  0  0  0  0  0  0  0  0  0  0
   -2.8825   -6.0110   -0.8399 H   0  0  0  0  0  0  0  0  0  0  0  0
   -1.2548   -5.3264   -0.7147 H   0  0  0  0  0  0  0  0  0  0  0  0
   -0.0981   -0.5634    2.7322 H   0  0  0  0  0  0  0  0  0  0  0  0
    0.2942    0.9095    1.8068 H   0  0  0  0  0  0  0  0  0  0  0  0
    2.3416   -0.6571    3.4665 H   0  0  0  0  0  0  0  0  0  0  0  0
    1.4659    0.7553    4.0311 H   0  0  0  0  0  0  0  0  0  0  0  0
    3.9698   -0.4497    1.9455 H   0  0  0  0  0  0  0  0  0  0  0  0
    4.3979    3.3507    1.0424 H   0  0  0  0  0  0  0  0  0  0  0  0
    6.2813    4.5039   -0.7930 H   0  0  0  0  0  0  0  0  0  0  0  0
    7.7997    3.9191   -0.0927 H   0  0  0  0  0  0  0  0  0  0  0  0
    7.2296    3.2768   -1.6468 H   0  0  0  0  0  0  0  0  0  0  0  0
   -0.0018   -1.3339   -2.1835 H   0  0  0  0  0  0  0  0  0  0  0  0
    2.9298   -1.2584   -1.1930 H   0  0  0  0  0  0  0  0  0  0  0  0
    2.3318   -1.3936   -2.8888 H   0  0  0  0  0  0  0  0  0  0  0  0
    1.7159   -3.3769   -0.5809 H   0  0  0  0  0  0  0  0  0  0  0  0
    1.1332   -3.5297   -2.2950 H   0  0  0  0  0  0  0  0  0  0  0  0
   -1.7186    2.5118    2.7323 H   0  0  0  0  0  0  0  0  0  0  0  0
   -2.6161    1.1980    3.4995 H   0  0  0  0  0  0  0  0  0  0  0  0
   -3.5132    2.5728    2.8534 H   0  0  0  0  0  0  0  0  0  0  0  0
  1  2  1  0
  2  3  1  0
  3  4  2  0
  4  5  1  0
  5  6  2  0
  6  7  1  0
  7  8  1  0
  8  9  1  0
  9 10  2  0
  9 11  1  0
 11 12  1  0
 12 13  1  0
 12 14  1  0
 12 15  1  0
  8 16  1  0
 16 17  1  0
 17 18  2  0
 17 19  1  0
 19 20  1  0
 20 21  1  0
 21 22  2  0
 21 23  1  0
 23 24  1  0
 24 25  1  0
 25 26  2  0
 26 27  1  0
 26 28  1  0
 28 29  1  0
 16 30  1  0
 30 31  1  0
 31 32  1  0
  7 33  2  0
 33 34  1  0
 34 35  1  0
 33  3  1  0
 29 24  2  0
 32 30  1  0
  1 36  1  0
  1 37  1  0
  1 38  1  0
  4 39  1  0
  5 40  1  0
  6 41  1  0
  8 42  1  0
 11 43  1  0
 13 44  1  0
 13 45  1  0
 13 46  1  0
 14 47  1  0
 14 48  1  0
 14 49  1  0
 15 50  1  0
 15 51  1  0
 15 52  1  0
 19 53  1  0
 19 54  1  0
 20 55  1  0
 20 56  1  0
 23 57  1  0
 25 58  1  0
 27 59  1  0
 27 60  1  0
 27 61  1  0
 30 62  1  0
 31 63  1  0
 31 64  1  0
 32 65  1  0
 32 66  1  0
 35 67  1  0
 35 68  1  0
 35 69  1  0
M  END
$$$$
