
     RDKit          3D

 30 31  0  0  0  0  0  0  0  0999 V2000
   -2.9649   -1.2709   -0.2691 C   0  0  0  0  0  0  0  0  0  0  0  0
   -3.2635   -0.1324    0.7111 C   0  0  0  0  0  0  0  0  0  0  0  0
   -4.7781    0.0035    0.8766 C   0  0  0  0  0  0  0  0  0  0  0  0
   -2.7475   -0.4356    2.0149 O   0  0  0  0  0  0  0  0  0  0  0  0
   -1.4532   -0.1951    2.2777 C   0  0  0  0  0  0  0  0  0  0  0  0
   -0.9129   -0.4334    3.3419 O   0  0  0  0  0  0  0  0  0  0  0  0
   -0.7299    0.4482    1.1268 C   0  0  0  0  0  0  0  0  0  0  0  0
    0.4849    0.0666    0.8497 N   0  0  0  0  0  0  0  0  0  0  0  0
    1.0905    0.6490   -0.2255 N   0  0  0  0  0  0  0  0  0  0  0  0
    2.4438    0.3284   -0.4794 C   0  0  0  0  0  0  0  0  0  0  0  0
    3.0797   -0.7710    0.1116 C   0  0  0  0  0  0  0  0  0  0  0  0
    4.3993   -1.0989   -0.2130 C   0  0  0  0  0  0  0  0  0  0  0  0
    5.0946   -0.3430   -1.1534 C   0  0  0  0  0  0  0  0  0  0  0  0
    4.4679    0.7343   -1.7746 C   0  0  0  0  0  0  0  0  0  0  0  0
    3.1485    1.0597   -1.4468 C   0  0  0  0  0  0  0  0  0  0  0  0
   -1.5142    1.4467    0.3215 C   0  0  0  0  0  0  0  0  0  0  0  0
   -0.9964    2.4494   -0.1420 O   0  0  0  0  0  0  0  0  0  0  0  0
   -2.8077    1.1234    0.1866 O   0  0  0  0  0  0  0  0  0  0  0  0
   -3.3976   -1.0661   -1.2542 H   0  0  0  0  0  0  0  0  0  0  0  0
   -1.8892   -1.4063   -0.4191 H   0  0  0  0  0  0  0  0  0  0  0  0
   -3.3539   -2.2243    0.1043 H   0  0  0  0  0  0  0  0  0  0  0  0
   -5.2651    0.2460   -0.0741 H   0  0  0  0  0  0  0  0  0  0  0  0
   -5.0135    0.8148    1.5758 H   0  0  0  0  0  0  0  0  0  0  0  0
   -5.2206   -0.9118    1.2844 H   0  0  0  0  0  0  0  0  0  0  0  0
    0.8765    1.6310   -0.4428 H   0  0  0  0  0  0  0  0  0  0  0  0
    2.5495   -1.3795    0.8397 H   0  0  0  0  0  0  0  0  0  0  0  0
    4.8781   -1.9475    0.2679 H   0  0  0  0  0  0  0  0  0  0  0  0
    6.1199   -0.5984   -1.4069 H   0  0  0  0  0  0  0  0  0  0  0  0
    5.0021    1.3191   -2.5187 H   0  0  0  0  0  0  0  0  0  0  0  0
    2.6729    1.8941   -1.9557 H   0  0  0  0  0  0  0  0  0  0  0  0
  1  2  1  0
  2  3  1  0
  2  4  1  0
  4  5  1  0
  5  6  2  0
  5  7  1  0
  7  8  2  3
  8  9  1  0
  9 10  1  0
 10 11  2  0
 11 12  1  0
 12 13  2  0
 13 14  1  0
 14 15  2  0
  7 16  1  0
 16 17  2  0
 16 18  1  0
 18  2  1  0
 15 10  1  0
  1 19  1  0
  1 20  1  0
  1 21  1  0
  3 22  1  0
  3 23  1  0
  3 24  1  0
  9 25  1  0
 11 26  1  0
 12 27  1  0
 13 28  1  0
 14 29  1  0
 15 30  1  0
M  END
$$$$
