
     RDKit          3D

 61 64  0  0  0  0  0  0  0  0999 V2000
    8.6655    1.8151   -0.9888 C   0  0  0  0  0  0  0  0  0  0  0  0
    7.3511    2.3379   -0.8645 O   0  0  0  0  0  0  0  0  0  0  0  0
    6.3650    1.4510   -0.5230 C   0  0  0  0  0  0  0  0  0  0  0  0
    6.4952    0.0614   -0.5566 C   0  0  0  0  0  0  0  0  0  0  0  0
    5.4221   -0.7591   -0.1733 C   0  0  0  0  0  0  0  0  0  0  0  0
    4.2091   -0.2067    0.2514 C   0  0  0  0  0  0  0  0  0  0  0  0
    3.1052   -0.9687    0.6847 N   0  0  0  0  0  0  0  0  0  0  0  0
    2.9587   -2.3454    0.6531 C   0  0  0  0  0  0  0  0  0  0  0  0
    3.7521   -3.1447    0.1683 O   0  0  0  0  0  0  0  0  0  0  0  0
    1.6867   -2.8355    1.3273 C   0  0  0  0  0  0  0  0  0  0  0  0
    0.2574   -2.7105    0.2119 S   0  0  0  0  0  0  0  0  0  0  0  0
   -0.3377   -1.1365    0.6359 C   0  0  0  0  0  0  0  0  0  0  0  0
    0.4278   -0.1552    1.0591 N   0  0  0  0  0  0  0  0  0  0  0  0
   -0.3853    0.8746    1.4365 N   0  0  0  0  0  0  0  0  0  0  0  0
   -1.6417    0.5116    1.2311 C   0  0  0  0  0  0  0  0  0  0  0  0
   -2.8260    1.4183    1.3499 C   0  0  0  0  0  0  0  0  0  0  0  0
   -3.3521    1.8587    0.0100 C   0  0  0  0  0  0  0  0  0  0  0  0
   -2.6559    2.4026   -1.0592 C   0  0  0  0  0  0  0  0  0  0  0  0
   -3.5767    2.6603   -2.0969 C   0  0  0  0  0  0  0  0  0  0  0  0
   -4.8171    2.2894   -1.6418 C   0  0  0  0  0  0  0  0  0  0  0  0
   -4.6801    1.8114   -0.3636 N   0  0  0  0  0  0  0  0  0  0  0  0
   -5.7931    1.3622    0.4446 C   0  0  0  0  0  0  0  0  0  0  0  0
   -1.6709   -0.7901    0.7472 N   0  0  0  0  0  0  0  0  0  0  0  0
   -2.8103   -1.5856    0.4764 C   0  0  0  0  0  0  0  0  0  0  0  0
   -2.9245   -2.2524   -0.7473 C   0  0  0  0  0  0  0  0  0  0  0  0
   -4.0416   -3.0548   -0.9973 C   0  0  0  0  0  0  0  0  0  0  0  0
   -5.0438   -3.2061   -0.0289 C   0  0  0  0  0  0  0  0  0  0  0  0
   -6.2135   -4.1106   -0.2866 C   0  0  0  0  0  0  0  0  0  0  0  0
   -4.9068   -2.5537    1.2022 C   0  0  0  0  0  0  0  0  0  0  0  0
   -3.8023   -1.7347    1.4541 C   0  0  0  0  0  0  0  0  0  0  0  0
    4.0723    1.1842    0.2777 C   0  0  0  0  0  0  0  0  0  0  0  0
    5.1323    1.9999   -0.1304 C   0  0  0  0  0  0  0  0  0  0  0  0
    4.9545    3.3611   -0.0694 O   0  0  0  0  0  0  0  0  0  0  0  0
    4.5885    3.8646   -1.3531 C   0  0  0  0  0  0  0  0  0  0  0  0
    9.3465    2.6604   -1.1178 H   0  0  0  0  0  0  0  0  0  0  0  0
    8.7517    1.1803   -1.8771 H   0  0  0  0  0  0  0  0  0  0  0  0
    8.9706    1.2724   -0.0871 H   0  0  0  0  0  0  0  0  0  0  0  0
    7.4144   -0.4213   -0.8716 H   0  0  0  0  0  0  0  0  0  0  0  0
    5.5777   -1.8344   -0.2026 H   0  0  0  0  0  0  0  0  0  0  0  0
    2.2880   -0.4363    0.9800 H   0  0  0  0  0  0  0  0  0  0  0  0
    1.5196   -2.2985    2.2698 H   0  0  0  0  0  0  0  0  0  0  0  0
    1.8282   -3.8916    1.5879 H   0  0  0  0  0  0  0  0  0  0  0  0
   -2.5203    2.3171    1.9006 H   0  0  0  0  0  0  0  0  0  0  0  0
   -3.6002    0.9504    1.9608 H   0  0  0  0  0  0  0  0  0  0  0  0
   -1.5893    2.5947   -1.0837 H   0  0  0  0  0  0  0  0  0  0  0  0
   -3.3539    3.0778   -3.0766 H   0  0  0  0  0  0  0  0  0  0  0  0
   -5.7848    2.3304   -2.1265 H   0  0  0  0  0  0  0  0  0  0  0  0
   -6.7299    1.7206    0.0090 H   0  0  0  0  0  0  0  0  0  0  0  0
   -5.6916    1.7695    1.4550 H   0  0  0  0  0  0  0  0  0  0  0  0
   -5.7842    0.2695    0.4530 H   0  0  0  0  0  0  0  0  0  0  0  0
   -2.1783   -2.1402   -1.5301 H   0  0  0  0  0  0  0  0  0  0  0  0
   -4.1204   -3.5662   -1.9569 H   0  0  0  0  0  0  0  0  0  0  0  0
   -7.0657   -3.8400    0.3428 H   0  0  0  0  0  0  0  0  0  0  0  0
   -6.5434   -4.0313   -1.3260 H   0  0  0  0  0  0  0  0  0  0  0  0
   -5.9390   -5.1498   -0.0770 H   0  0  0  0  0  0  0  0  0  0  0  0
   -5.6585   -2.6908    1.9795 H   0  0  0  0  0  0  0  0  0  0  0  0
   -3.7113   -1.2718    2.4344 H   0  0  0  0  0  0  0  0  0  0  0  0
    3.1455    1.6515    0.6104 H   0  0  0  0  0  0  0  0  0  0  0  0
    5.1435    3.3960   -2.1756 H   0  0  0  0  0  0  0  0  0  0  0  0
    3.5136    3.7283   -1.5064 H   0  0  0  0  0  0  0  0  0  0  0  0
    4.8071    4.9392   -1.3722 H   0  0  0  0  0  0  0  0  0  0  0  0
  1  2  1  0
  2  3  1  0
  3  4  2  0
  4  5  1  0
  5  6  2  0
  6  7  1  0
  7  8  1  0
  8  9  2  0
  8 10  1  0
 10 11  1  0
 11 12  1  0
 12 13  2  0
 13 14  1  0
 14 15  2  0
 15 16  1  0
 16 17  1  0
 17 18  2  0
 18 19  1  0
 19 20  2  0
 20 21  1  0
 21 22  1  0
 15 23  1  0
 23 24  1  0
 24 25  2  0
 25 26  1  0
 26 27  2  0
 27 28  1  0
 27 29  1  0
 29 30  2  0
  6 31  1  0
 31 32  2  0
 32 33  1  0
 33 34  1  0
 32  3  1  0
 23 12  1  0
 30 24  1  0
 21 17  1  0
  1 35  1  0
  1 36  1  0
  1 37  1  0
  4 38  1  0
  5 39  1  0
  7 40  1  0
 10 41  1  0
 10 42  1  0
 16 43  1  0
 16 44  1  0
 18 45  1  0
 19 46  1  0
 20 47  1  0
 22 48  1  0
 22 49  1  0
 22 50  1  0
 25 51  1  0
 26 52  1  0
 28 53  1  0
 28 54  1  0
 28 55  1  0
 29 56  1  0
 30 57  1  0
 31 58  1  0
 34 59  1  0
 34 60  1  0
 34 61  1  0
M  END
$$$$
