
     RDKit          3D

 59 62  0  0  0  0  0  0  0  0999 V2000
    4.0578   -5.0283   -0.6352 C   0  0  0  0  0  0  0  0  0  0  0  0
    3.7934   -3.5417   -0.7699 C   0  0  0  0  0  0  0  0  0  0  0  0
    4.0883   -2.9185    0.4787 O   0  0  0  0  0  0  0  0  0  0  0  0
    4.0776   -1.4916    0.4283 C   0  0  0  0  0  0  0  0  0  0  0  0
    2.6742   -0.9145    0.2648 C   0  0  0  0  0  0  0  0  0  0  0  0
    2.4506   -0.3667   -1.1484 C   0  0  0  0  0  0  0  0  0  0  0  0
    1.0480    0.0638   -1.3177 N   0  0  0  0  0  0  0  0  0  0  0  0
    0.1119   -0.8667   -1.8013 C   0  0  0  0  0  0  0  0  0  0  0  0
    0.5147   -2.0566   -2.1459 N   0  0  0  0  0  0  0  0  0  0  0  0
   -1.3236   -0.4556   -1.9067 C   0  0  0  0  0  0  0  0  0  0  0  0
   -2.5844   -1.5358   -2.3717 S   0  0  0  0  0  6  0  0  0  0  0  0
   -2.0251   -2.7447   -2.9560 O   0  0  0  0  0  0  0  0  0  0  0  0
   -3.6241   -0.8079   -3.0792 O   0  0  0  0  0  0  0  0  0  0  0  0
   -3.2597   -2.0169   -0.7912 C   0  0  0  0  0  0  0  0  0  0  0  0
   -2.5291   -2.8827    0.0301 C   0  0  0  0  0  0  0  0  0  0  0  0
   -3.0531   -3.2567    1.2685 C   0  0  0  0  0  0  0  0  0  0  0  0
   -4.3100   -2.7892    1.6800 C   0  0  0  0  0  0  0  0  0  0  0  0
   -4.8626   -3.1733    3.0227 C   0  0  0  0  0  0  0  0  0  0  0  0
   -5.0297   -1.9224    0.8446 C   0  0  0  0  0  0  0  0  0  0  0  0
   -4.5123   -1.5405   -0.3946 C   0  0  0  0  0  0  0  0  0  0  0  0
   -1.6289    0.8036   -1.5523 C   0  0  0  0  0  0  0  0  0  0  0  0
   -0.6247    1.7399   -1.0696 C   0  0  0  0  0  0  0  0  0  0  0  0
   -1.0374    3.1142   -0.6681 C   0  0  0  0  0  0  0  0  0  0  0  0
   -2.2246    3.4377   -0.7391 O   0  0  0  0  0  0  0  0  0  0  0  0
   -0.0274    3.9465   -0.2195 N   0  0  0  0  0  0  0  0  0  0  0  0
   -0.3326    5.2492    0.1631 C   0  0  0  0  0  0  0  0  0  0  0  0
    0.6031    6.0980    0.6170 C   0  0  0  0  0  0  0  0  0  0  0  0
    0.3021    7.5043    1.0369 C   0  0  0  0  0  0  0  0  0  0  0  0
    1.9722    5.6458    0.7114 C   0  0  0  0  0  0  0  0  0  0  0  0
    2.3069    4.4000    0.3561 C   0  0  0  0  0  0  0  0  0  0  0  0
    1.2640    3.4637   -0.1443 C   0  0  0  0  0  0  0  0  0  0  0  0
    1.6182    2.2642   -0.4766 N   0  0  0  0  0  0  0  0  0  0  0  0
    0.6742    1.3807   -0.9488 C   0  0  0  0  0  0  0  0  0  0  0  0
    3.4542   -5.4572    0.1729 H   0  0  0  0  0  0  0  0  0  0  0  0
    3.8243   -5.5508   -1.5674 H   0  0  0  0  0  0  0  0  0  0  0  0
    5.1071   -5.2112   -0.3813 H   0  0  0  0  0  0  0  0  0  0  0  0
    2.7421   -3.3831   -1.0238 H   0  0  0  0  0  0  0  0  0  0  0  0
    4.4253   -3.1227   -1.5597 H   0  0  0  0  0  0  0  0  0  0  0  0
    4.4745   -1.1622    1.3956 H   0  0  0  0  0  0  0  0  0  0  0  0
    4.7786   -1.1364   -0.3355 H   0  0  0  0  0  0  0  0  0  0  0  0
    2.5512   -0.0870    0.9737 H   0  0  0  0  0  0  0  0  0  0  0  0
    1.9125   -1.6603    0.5179 H   0  0  0  0  0  0  0  0  0  0  0  0
    3.1368    0.4698   -1.3364 H   0  0  0  0  0  0  0  0  0  0  0  0
    2.7222   -1.1133   -1.9037 H   0  0  0  0  0  0  0  0  0  0  0  0
   -0.2434   -2.6419   -2.5350 H   0  0  0  0  0  0  0  0  0  0  0  0
   -1.5605   -3.2717   -0.2794 H   0  0  0  0  0  0  0  0  0  0  0  0
   -2.4783   -3.9225    1.9105 H   0  0  0  0  0  0  0  0  0  0  0  0
   -5.9478   -3.3091    2.9687 H   0  0  0  0  0  0  0  0  0  0  0  0
   -4.6357   -2.3944    3.7573 H   0  0  0  0  0  0  0  0  0  0  0  0
   -4.4321   -4.1198    3.3697 H   0  0  0  0  0  0  0  0  0  0  0  0
   -6.0029   -1.5445    1.1532 H   0  0  0  0  0  0  0  0  0  0  0  0
   -5.0919   -0.8794   -1.0356 H   0  0  0  0  0  0  0  0  0  0  0  0
   -2.6554    1.1644   -1.5979 H   0  0  0  0  0  0  0  0  0  0  0  0
   -1.3747    5.5497    0.0757 H   0  0  0  0  0  0  0  0  0  0  0  0
   -0.7652    7.7361    0.9484 H   0  0  0  0  0  0  0  0  0  0  0  0
    0.8503    8.2182    0.4120 H   0  0  0  0  0  0  0  0  0  0  0  0
    0.5899    7.6642    2.0820 H   0  0  0  0  0  0  0  0  0  0  0  0
    2.7293    6.3332    1.0766 H   0  0  0  0  0  0  0  0  0  0  0  0
    3.3216    4.0307    0.4144 H   0  0  0  0  0  0  0  0  0  0  0  0
  1  2  1  0
  2  3  1  0
  3  4  1  0
  4  5  1  0
  5  6  1  0
  6  7  1  0
  7  8  1  0
  8  9  2  3
  8 10  1  0
 10 11  1  0
 11 12  2  0
 11 13  2  0
 11 14  1  0
 14 15  2  0
 15 16  1  0
 16 17  2  0
 17 18  1  0
 17 19  1  0
 19 20  2  0
 10 21  2  0
 21 22  1  0
 22 23  1  0
 23 24  2  0
 23 25  1  0
 25 26  1  0
 26 27  2  0
 27 28  1  0
 27 29  1  0
 29 30  2  0
 30 31  1  0
 31 32  2  0
 32 33  1  0
 33  7  1  0
 20 14  1  0
 33 22  2  0
 31 25  1  0
  1 34  1  0
  1 35  1  0
  1 36  1  0
  2 37  1  0
  2 38  1  0
  4 39  1  0
  4 40  1  0
  5 41  1  0
  5 42  1  0
  6 43  1  0
  6 44  1  0
  9 45  1  0
 15 46  1  0
 16 47  1  0
 18 48  1  0
 18 49  1  0
 18 50  1  0
 19 51  1  0
 20 52  1  0
 21 53  1  0
 26 54  1  0
 28 55  1  0
 28 56  1  0
 28 57  1  0
 29 58  1  0
 30 59  1  0
M  END
$$$$
