
     RDKit          3D

 35 37  0  0  0  0  0  0  0  0999 V2000
   -3.7706    1.5818    1.4356 C   0  0  0  0  0  0  0  0  0  0  0  0
   -3.5848    0.2591    0.7436 C   0  0  0  0  0  0  0  0  0  0  0  0
   -4.0836   -0.9097    1.3382 C   0  0  0  0  0  0  0  0  0  0  0  0
   -3.9247   -2.1448    0.7135 C   0  0  0  0  0  0  0  0  0  0  0  0
   -3.2667   -2.2224   -0.5098 C   0  0  0  0  0  0  0  0  0  0  0  0
   -2.7660   -1.0664   -1.1139 C   0  0  0  0  0  0  0  0  0  0  0  0
   -2.9229    0.1782   -0.4958 C   0  0  0  0  0  0  0  0  0  0  0  0
   -2.4478    1.3675   -0.9868 O   0  0  0  0  0  0  0  0  0  0  0  0
   -1.8728    1.3836   -2.2887 C   0  0  0  0  0  0  0  0  0  0  0  0
   -0.4142    0.9168   -2.3478 C   0  0  0  0  0  0  0  0  0  0  0  0
    0.0969    0.5969   -3.4158 O   0  0  0  0  0  0  0  0  0  0  0  0
    0.1962    0.9391   -1.1144 N   0  0  0  0  0  0  0  0  0  0  0  0
    1.4893    0.5460   -0.9268 C   0  0  0  0  0  0  0  0  0  0  0  0
    2.3910    0.1531   -1.7898 N   0  0  0  0  0  0  0  0  0  0  0  0
    3.5884   -0.1593   -1.1678 N   0  0  0  0  0  0  0  0  0  0  0  0
    3.5336    0.0124    0.1383 C   0  0  0  0  0  0  0  0  0  0  0  0
    4.6506   -0.2466    1.0053 C   0  0  0  0  0  0  0  0  0  0  0  0
    4.7580   -0.1238    2.3853 C   0  0  0  0  0  0  0  0  0  0  0  0
    6.0739   -0.5040    2.7479 C   0  0  0  0  0  0  0  0  0  0  0  0
    6.7046   -0.8394    1.5771 C   0  0  0  0  0  0  0  0  0  0  0  0
    5.8623   -0.6893    0.5268 O   0  0  0  0  0  0  0  0  0  0  0  0
    2.0059    0.5737    0.6985 S   0  0  0  0  0  0  0  0  0  0  0  0
   -4.3050    1.4681    2.3846 H   0  0  0  0  0  0  0  0  0  0  0  0
   -2.7979    2.0341    1.6550 H   0  0  0  0  0  0  0  0  0  0  0  0
   -4.3543    2.2603    0.8052 H   0  0  0  0  0  0  0  0  0  0  0  0
   -4.6024   -0.8641    2.2934 H   0  0  0  0  0  0  0  0  0  0  0  0
   -4.3150   -3.0457    1.1802 H   0  0  0  0  0  0  0  0  0  0  0  0
   -3.1407   -3.1862   -0.9978 H   0  0  0  0  0  0  0  0  0  0  0  0
   -2.2556   -1.1857   -2.0647 H   0  0  0  0  0  0  0  0  0  0  0  0
   -1.8753    2.4283   -2.6205 H   0  0  0  0  0  0  0  0  0  0  0  0
   -2.4827    0.8237   -3.0067 H   0  0  0  0  0  0  0  0  0  0  0  0
   -0.3522    1.1783   -0.2985 H   0  0  0  0  0  0  0  0  0  0  0  0
    3.9779    0.2025    3.0593 H   0  0  0  0  0  0  0  0  0  0  0  0
    6.5072   -0.5302    3.7380 H   0  0  0  0  0  0  0  0  0  0  0  0
    7.6991   -1.1861    1.3315 H   0  0  0  0  0  0  0  0  0  0  0  0
  1  2  1  0
  2  3  2  0
  3  4  1  0
  4  5  2  0
  5  6  1  0
  6  7  2  0
  7  8  1  0
  8  9  1  0
  9 10  1  0
 10 11  2  0
 10 12  1  0
 12 13  1  0
 13 14  2  0
 14 15  1  0
 15 16  2  0
 16 17  1  0
 17 18  2  0
 18 19  1  0
 19 20  2  0
 20 21  1  0
 16 22  1  0
  7  2  1  0
 22 13  1  0
 21 17  1  0
  1 23  1  0
  1 24  1  0
  1 25  1  0
  3 26  1  0
  4 27  1  0
  5 28  1  0
  6 29  1  0
  9 30  1  0
  9 31  1  0
 12 32  1  0
 18 33  1  0
 19 34  1  0
 20 35  1  0
M  END
$$$$
