
     RDKit          3D

 56 61  0  0  0  0  0  0  0  0999 V2000
   -5.0314   -2.6278    1.9484 C   0  0  0  0  0  0  0  0  0  0  0  0
   -3.8568   -1.7052    2.0756 C   0  0  0  0  0  0  0  0  0  0  0  0
   -3.7754   -0.7543    3.1107 C   0  0  0  0  0  0  0  0  0  0  0  0
   -5.0316   -0.6058    4.2927 Cl  0  0  0  0  0  0  0  0  0  0  0  0
   -2.6739    0.1165    3.2308 C   0  0  0  0  0  0  0  0  0  0  0  0
   -1.6187    0.0658    2.3196 C   0  0  0  0  0  0  0  0  0  0  0  0
   -1.6895   -0.8634    1.2934 C   0  0  0  0  0  0  0  0  0  0  0  0
   -2.7909   -1.7274    1.1837 C   0  0  0  0  0  0  0  0  0  0  0  0
   -2.6249   -2.5589    0.0774 N   0  0  0  0  0  0  0  0  0  0  0  0
   -1.4345   -2.2912   -0.6031 C   0  0  0  0  0  0  0  0  0  0  0  0
   -1.0685   -2.8721   -1.6150 O   0  0  0  0  0  0  0  0  0  0  0  0
   -0.7230   -1.1575    0.1802 C   0  0  0  0  0  0  0  0  0  0  0  0
    0.6445   -1.5713    0.6371 N   0  0  0  0  0  0  0  0  0  0  0  0
    1.6706   -0.8850   -0.2298 C   0  0  2  0  0  0  0  0  0  0  0  0
    2.8752   -0.3657    0.5795 C   0  0  0  0  0  0  0  0  0  0  0  0
    3.6598   -1.4370    1.3017 C   0  0  0  0  0  0  0  0  0  0  0  0
    3.7725   -1.4106    2.6992 C   0  0  0  0  0  0  0  0  0  0  0  0
    4.5040   -2.3922    3.3703 C   0  0  0  0  0  0  0  0  0  0  0  0
    5.1333   -3.4069    2.6528 C   0  0  0  0  0  0  0  0  0  0  0  0
    5.0341   -3.4397    1.2637 C   0  0  0  0  0  0  0  0  0  0  0  0
    4.3040   -2.4588    0.5903 C   0  0  0  0  0  0  0  0  0  0  0  0
    0.8858    0.2049   -0.8641 C   0  0  0  0  0  0  0  0  0  0  0  0
   -0.4753    0.0541   -0.6099 C   0  0  0  0  0  0  0  0  0  0  0  0
   -1.1614    1.0397   -1.2647 C   0  0  0  0  0  0  0  0  0  0  0  0
   -2.4802    1.1644   -1.4067 O   0  0  0  0  0  0  0  0  0  0  0  0
   -0.2041    1.8951   -1.8465 N   0  0  0  0  0  0  0  0  0  0  0  0
   -0.4809    3.1442   -2.4894 C   0  0  0  0  0  0  0  0  0  0  0  0
   -1.5581    3.9338   -2.0558 C   0  0  0  0  0  0  0  0  0  0  0  0
   -1.8373    5.1524   -2.6795 C   0  0  0  0  0  0  0  0  0  0  0  0
   -1.0435    5.5951   -3.7347 C   0  0  0  0  0  0  0  0  0  0  0  0
    0.0353    4.8244   -4.1623 C   0  0  0  0  0  0  0  0  0  0  0  0
    0.3211    3.6057   -3.5402 C   0  0  0  0  0  0  0  0  0  0  0  0
    1.0636    1.3047   -1.6648 C   0  0  0  0  0  0  0  0  0  0  0  0
    2.1791    1.8289   -2.1653 O   0  0  0  0  0  0  0  0  0  0  0  0
   -4.9303   -3.3232    1.1108 H   0  0  0  0  0  0  0  0  0  0  0  0
   -5.9486   -2.0534    1.7828 H   0  0  0  0  0  0  0  0  0  0  0  0
   -5.1396   -3.2336    2.8542 H   0  0  0  0  0  0  0  0  0  0  0  0
   -2.6429    0.8435    4.0398 H   0  0  0  0  0  0  0  0  0  0  0  0
   -0.7777    0.7462    2.4079 H   0  0  0  0  0  0  0  0  0  0  0  0
   -3.2692   -3.2636   -0.2443 H   0  0  0  0  0  0  0  0  0  0  0  0
    0.7645   -1.2296    1.5870 H   0  0  0  0  0  0  0  0  0  0  0  0
    1.9929   -1.5957   -1.0000 H   0  0  0  0  0  0  0  0  0  0  0  0
    3.5715    0.1613   -0.0858 H   0  0  0  0  0  0  0  0  0  0  0  0
    2.5359    0.3919    1.2999 H   0  0  0  0  0  0  0  0  0  0  0  0
    3.2916   -0.6262    3.2788 H   0  0  0  0  0  0  0  0  0  0  0  0
    4.5823   -2.3655    4.4540 H   0  0  0  0  0  0  0  0  0  0  0  0
    5.7004   -4.1724    3.1757 H   0  0  0  0  0  0  0  0  0  0  0  0
    5.5238   -4.2318    0.7031 H   0  0  0  0  0  0  0  0  0  0  0  0
    4.2411   -2.5046   -0.4944 H   0  0  0  0  0  0  0  0  0  0  0  0
   -2.6568    1.6838   -2.2127 H   0  0  0  0  0  0  0  0  0  0  0  0
   -2.1647    3.6473   -1.1990 H   0  0  0  0  0  0  0  0  0  0  0  0
   -2.6663    5.7636   -2.3310 H   0  0  0  0  0  0  0  0  0  0  0  0
   -1.2591    6.5444   -4.2182 H   0  0  0  0  0  0  0  0  0  0  0  0
    0.6578    5.1696   -4.9842 H   0  0  0  0  0  0  0  0  0  0  0  0
    1.1550    3.0217   -3.9194 H   0  0  0  0  0  0  0  0  0  0  0  0
    2.9157    1.2274   -1.9634 H   0  0  0  0  0  0  0  0  0  0  0  0
  1  2  1  0
  2  3  2  0
  3  4  1  0
  3  5  1  0
  5  6  2  0
  6  7  1  0
  7  8  2  0
  8  9  1  0
  9 10  1  0
 10 11  2  0
 10 12  1  0
 12 13  1  0
 13 14  1  0
 14 15  1  0
 15 16  1  0
 16 17  2  0
 17 18  1  0
 18 19  2  0
 19 20  1  0
 20 21  2  0
 14 22  1  0
 22 23  1  0
 23 24  2  0
 24 25  1  0
 24 26  1  0
 26 27  1  0
 27 28  2  0
 28 29  1  0
 29 30  2  0
 30 31  1  0
 31 32  2  0
 26 33  1  0
 33 34  1  0
  8  2  1  0
 23 12  1  0
 32 27  1  0
 12  7  1  0
 21 16  1  0
 33 22  2  0
  1 35  1  0
  1 36  1  0
  1 37  1  0
  5 38  1  0
  6 39  1  0
  9 40  1  0
 13 41  1  0
 14 42  1  6
 15 43  1  0
 15 44  1  0
 17 45  1  0
 18 46  1  0
 19 47  1  0
 20 48  1  0
 21 49  1  0
 25 50  1  0
 28 51  1  0
 29 52  1  0
 30 53  1  0
 31 54  1  0
 32 55  1  0
 34 56  1  0
M  END
$$$$
