
     RDKit          3D

 61 66  0  0  0  0  0  0  0  0999 V2000
   -6.7439   -2.8739    2.1795 F   0  0  0  0  0  0  0  0  0  0  0  0
   -6.9402   -1.9888    1.1931 C   0  0  0  0  0  0  0  0  0  0  0  0
   -8.1468   -1.3035    1.1208 C   0  0  0  0  0  0  0  0  0  0  0  0
   -8.3506   -0.3809    0.0968 C   0  0  0  0  0  0  0  0  0  0  0  0
   -7.3455   -0.1528   -0.8476 C   0  0  0  0  0  0  0  0  0  0  0  0
   -6.1283   -0.8485   -0.7787 C   0  0  0  0  0  0  0  0  0  0  0  0
   -5.0381   -0.5950   -1.7943 C   0  0  0  0  0  0  0  0  0  0  0  0
   -3.9846    0.4275   -1.3247 C   0  0  0  0  0  0  0  0  0  0  0  0
   -3.1005   -0.0725   -0.2598 N   0  0  0  0  0  0  0  0  0  0  0  0
   -2.4568    1.0511    0.4578 C   0  0  0  0  0  0  0  0  0  0  0  0
   -1.2298    0.6199    1.2879 C   0  0  0  0  0  0  0  0  0  0  0  0
   -0.1626    0.0396    0.4359 N   0  0  0  0  0  0  0  0  0  0  0  0
    1.0331    0.7054    0.3691 C   0  0  0  0  0  0  0  0  0  0  0  0
    1.2571    2.0503    0.1431 C   0  0  0  0  0  0  0  0  0  0  0  0
    2.6471    2.2477    0.0182 C   0  0  0  0  0  0  0  0  0  0  0  0
    3.2629    1.0272    0.2180 C   0  0  0  0  0  0  0  0  0  0  0  0
    4.6541    0.6288    0.1776 C   0  0  0  0  0  0  0  0  0  0  0  0
    5.7223    1.6264   -0.0828 C   0  0  0  0  0  0  0  0  0  0  0  0
    6.6733    1.3543   -1.0724 C   0  0  0  0  0  0  0  0  0  0  0  0
    7.6949    2.2706   -1.3254 C   0  0  0  0  0  0  0  0  0  0  0  0
    7.7746    3.4493   -0.5822 C   0  0  0  0  0  0  0  0  0  0  0  0
    6.8403    3.7107    0.4211 C   0  0  0  0  0  0  0  0  0  0  0  0
    5.8164    2.7973    0.6777 C   0  0  0  0  0  0  0  0  0  0  0  0
    4.9991   -0.6127    0.3475 N   0  0  0  0  0  0  0  0  0  0  0  0
    4.0075   -1.5665    0.6490 C   0  0  0  0  0  0  0  0  0  0  0  0
    4.4267   -2.8780    0.8930 C   0  0  0  0  0  0  0  0  0  0  0  0
    3.5081   -3.8702    1.2372 C   0  0  0  0  0  0  0  0  0  0  0  0
    2.1568   -3.5535    1.3512 C   0  0  0  0  0  0  0  0  0  0  0  0
    1.7184   -2.2496    1.1090 C   0  0  0  0  0  0  0  0  0  0  0  0
    2.6380   -1.2622    0.7417 C   0  0  0  0  0  0  0  0  0  0  0  0
    2.2777    0.0814    0.4645 N   0  0  0  0  0  0  0  0  0  0  0  0
   -0.6534   -0.4918   -0.8625 C   0  0  0  0  0  0  0  0  0  0  0  0
   -2.0912   -1.0447   -0.7398 C   0  0  0  0  0  0  0  0  0  0  0  0
   -5.9339   -1.7704    0.2580 C   0  0  0  0  0  0  0  0  0  0  0  0
   -8.9164   -1.4912    1.8622 H   0  0  0  0  0  0  0  0  0  0  0  0
   -9.2902    0.1618    0.0334 H   0  0  0  0  0  0  0  0  0  0  0  0
   -7.5194    0.5729   -1.6394 H   0  0  0  0  0  0  0  0  0  0  0  0
   -5.4989   -0.2158   -2.7161 H   0  0  0  0  0  0  0  0  0  0  0  0
   -4.5775   -1.5488   -2.0772 H   0  0  0  0  0  0  0  0  0  0  0  0
   -4.5212    1.3175   -0.9688 H   0  0  0  0  0  0  0  0  0  0  0  0
   -3.3838    0.7493   -2.1854 H   0  0  0  0  0  0  0  0  0  0  0  0
   -2.1383    1.8264   -0.2525 H   0  0  0  0  0  0  0  0  0  0  0  0
   -3.1952    1.5063    1.1282 H   0  0  0  0  0  0  0  0  0  0  0  0
   -0.8637    1.4733    1.8720 H   0  0  0  0  0  0  0  0  0  0  0  0
   -1.5319   -0.1433    2.0161 H   0  0  0  0  0  0  0  0  0  0  0  0
    0.4890    2.8013    0.0183 H   0  0  0  0  0  0  0  0  0  0  0  0
    3.1365    3.1844   -0.2139 H   0  0  0  0  0  0  0  0  0  0  0  0
    6.6183    0.4305   -1.6438 H   0  0  0  0  0  0  0  0  0  0  0  0
    8.4318    2.0621   -2.0969 H   0  0  0  0  0  0  0  0  0  0  0  0
    8.5742    4.1599   -0.7777 H   0  0  0  0  0  0  0  0  0  0  0  0
    6.9163    4.6217    1.0098 H   0  0  0  0  0  0  0  0  0  0  0  0
    5.1108    2.9948    1.4803 H   0  0  0  0  0  0  0  0  0  0  0  0
    5.4840   -3.1198    0.8222 H   0  0  0  0  0  0  0  0  0  0  0  0
    3.8504   -4.8835    1.4289 H   0  0  0  0  0  0  0  0  0  0  0  0
    1.4412   -4.3202    1.6377 H   0  0  0  0  0  0  0  0  0  0  0  0
    0.6639   -2.0345    1.2361 H   0  0  0  0  0  0  0  0  0  0  0  0
   -0.6345    0.2960   -1.6277 H   0  0  0  0  0  0  0  0  0  0  0  0
    0.0087   -1.2962   -1.2037 H   0  0  0  0  0  0  0  0  0  0  0  0
   -2.0779   -1.8710   -0.0173 H   0  0  0  0  0  0  0  0  0  0  0  0
   -2.3792   -1.4910   -1.6981 H   0  0  0  0  0  0  0  0  0  0  0  0
   -4.9991   -2.3150    0.3521 H   0  0  0  0  0  0  0  0  0  0  0  0
  1  2  1  0
  2  3  2  0
  3  4  1  0
  4  5  2  0
  5  6  1  0
  6  7  1  0
  7  8  1  0
  8  9  1  0
  9 10  1  0
 10 11  1  0
 11 12  1  0
 12 13  1  0
 13 14  2  0
 14 15  1  0
 15 16  2  0
 16 17  1  0
 17 18  1  0
 18 19  2  0
 19 20  1  0
 20 21  2  0
 21 22  1  0
 22 23  2  0
 17 24  2  0
 24 25  1  0
 25 26  2  0
 26 27  1  0
 27 28  2  0
 28 29  1  0
 29 30  2  0
 30 31  1  0
 12 32  1  0
 32 33  1  0
  6 34  2  0
 34  2  1  0
 33  9  1  0
 31 13  1  0
 31 16  1  0
 23 18  1  0
 30 25  1  0
  3 35  1  0
  4 36  1  0
  5 37  1  0
  7 38  1  0
  7 39  1  0
  8 40  1  0
  8 41  1  0
 10 42  1  0
 10 43  1  0
 11 44  1  0
 11 45  1  0
 14 46  1  0
 15 47  1  0
 19 48  1  0
 20 49  1  0
 21 50  1  0
 22 51  1  0
 23 52  1  0
 26 53  1  0
 27 54  1  0
 28 55  1  0
 29 56  1  0
 32 57  1  0
 32 58  1  0
 33 59  1  0
 33 60  1  0
 34 61  1  0
M  END
$$$$
