
     RDKit          3D

 51 53  0  0  0  0  0  0  0  0999 V2000
    7.9896    0.8371    2.7202 C   0  0  0  0  0  0  0  0  0  0  0  0
    8.6292    0.4598    1.5079 O   0  0  0  0  0  0  0  0  0  0  0  0
    7.8225    0.1275    0.4544 C   0  0  0  0  0  0  0  0  0  0  0  0
    8.5047   -0.2327   -0.7079 C   0  0  0  0  0  0  0  0  0  0  0  0
    7.8022   -0.5941   -1.8558 C   0  0  0  0  0  0  0  0  0  0  0  0
    6.4063   -0.5982   -1.8496 C   0  0  0  0  0  0  0  0  0  0  0  0
    5.7083   -0.2407   -0.6954 C   0  0  0  0  0  0  0  0  0  0  0  0
    4.3046   -0.2202   -0.6119 N   0  0  0  0  0  0  0  0  0  0  0  0
    3.3909   -0.5390   -1.5947 C   0  0  0  0  0  0  0  0  0  0  0  0
    3.5840   -0.9101   -2.7435 O   0  0  0  0  0  0  0  0  0  0  0  0
    1.9382   -0.3866   -1.1023 C   0  0  0  0  0  0  0  0  0  0  0  0
    1.7408   -0.0382    0.0552 O   0  0  0  0  0  0  0  0  0  0  0  0
    1.0185   -0.6944   -2.0887 N   0  0  0  0  0  0  0  0  0  0  0  0
   -0.3425   -0.7963   -1.9587 N   0  0  0  0  0  0  0  0  0  0  0  0
   -0.9413   -0.1806   -0.9910 C   0  0  0  0  0  0  0  0  0  0  0  0
   -2.3816   -0.3343   -0.8611 C   0  0  0  0  0  0  0  0  0  0  0  0
   -3.2446   -1.0778   -1.7005 C   0  0  0  0  0  0  0  0  0  0  0  0
   -4.5367   -0.9458   -1.2339 C   0  0  0  0  0  0  0  0  0  0  0  0
   -5.7744   -1.4772   -1.8741 C   0  0  0  0  0  0  0  0  0  0  0  0
   -4.5036   -0.1364   -0.1028 N   0  0  0  0  0  0  0  0  0  0  0  0
   -5.6342    0.2731    0.6641 C   0  0  0  0  0  0  0  0  0  0  0  0
   -6.6157   -0.6566    1.0251 C   0  0  0  0  0  0  0  0  0  0  0  0
   -7.7211   -0.2493    1.7773 C   0  0  0  0  0  0  0  0  0  0  0  0
   -7.8544    1.0855    2.1698 C   0  0  0  0  0  0  0  0  0  0  0  0
   -9.2458    1.5151    3.0989 Cl  0  0  0  0  0  0  0  0  0  0  0  0
   -6.8756    2.0172    1.8073 C   0  0  0  0  0  0  0  0  0  0  0  0
   -6.9772    3.6851    2.2487 Cl  0  0  0  0  0  0  0  0  0  0  0  0
   -5.7667    1.6117    1.0560 C   0  0  0  0  0  0  0  0  0  0  0  0
   -3.1736    0.2154    0.1420 C   0  0  0  0  0  0  0  0  0  0  0  0
   -2.7259    0.9809    1.3474 C   0  0  0  0  0  0  0  0  0  0  0  0
    6.4249    0.1223    0.4564 C   0  0  0  0  0  0  0  0  0  0  0  0
    7.3832    1.7384    2.5824 H   0  0  0  0  0  0  0  0  0  0  0  0
    8.7695    1.0695    3.4517 H   0  0  0  0  0  0  0  0  0  0  0  0
    7.3900    0.0141    3.1228 H   0  0  0  0  0  0  0  0  0  0  0  0
    9.5920   -0.2316   -0.7187 H   0  0  0  0  0  0  0  0  0  0  0  0
    8.3413   -0.8736   -2.7573 H   0  0  0  0  0  0  0  0  0  0  0  0
    5.8958   -0.8855   -2.7635 H   0  0  0  0  0  0  0  0  0  0  0  0
    3.8866    0.0544    0.2748 H   0  0  0  0  0  0  0  0  0  0  0  0
    1.3988   -1.0871   -2.9515 H   0  0  0  0  0  0  0  0  0  0  0  0
   -0.4413    0.4817   -0.2699 H   0  0  0  0  0  0  0  0  0  0  0  0
   -2.9493   -1.6347   -2.5823 H   0  0  0  0  0  0  0  0  0  0  0  0
   -6.1022   -2.3968   -1.3809 H   0  0  0  0  0  0  0  0  0  0  0  0
   -5.5855   -1.7203   -2.9258 H   0  0  0  0  0  0  0  0  0  0  0  0
   -6.5875   -0.7453   -1.8575 H   0  0  0  0  0  0  0  0  0  0  0  0
   -6.5184   -1.7091    0.7703 H   0  0  0  0  0  0  0  0  0  0  0  0
   -8.4724   -0.9827    2.0623 H   0  0  0  0  0  0  0  0  0  0  0  0
   -5.0361    2.3555    0.7482 H   0  0  0  0  0  0  0  0  0  0  0  0
   -1.7105    0.6924    1.6379 H   0  0  0  0  0  0  0  0  0  0  0  0
   -3.3585    0.7848    2.2181 H   0  0  0  0  0  0  0  0  0  0  0  0
   -2.7211    2.0550    1.1388 H   0  0  0  0  0  0  0  0  0  0  0  0
    5.8759    0.3986    1.3499 H   0  0  0  0  0  0  0  0  0  0  0  0
  1  2  1  0
  2  3  1  0
  3  4  2  0
  4  5  1  0
  5  6  2  0
  6  7  1  0
  7  8  1  0
  8  9  1  0
  9 10  2  0
  9 11  1  0
 11 12  2  0
 11 13  1  0
 13 14  1  0
 14 15  2  3
 15 16  1  0
 16 17  1  0
 17 18  2  0
 18 19  1  0
 18 20  1  0
 20 21  1  0
 21 22  2  0
 22 23  1  0
 23 24  2  0
 24 25  1  0
 24 26  1  0
 26 27  1  0
 26 28  2  0
 20 29  1  0
 29 30  1  0
  7 31  2  0
 31  3  1  0
 29 16  2  0
 28 21  1  0
  1 32  1  0
  1 33  1  0
  1 34  1  0
  4 35  1  0
  5 36  1  0
  6 37  1  0
  8 38  1  0
 13 39  1  0
 15 40  1  0
 17 41  1  0
 19 42  1  0
 19 43  1  0
 19 44  1  0
 22 45  1  0
 23 46  1  0
 28 47  1  0
 30 48  1  0
 30 49  1  0
 30 50  1  0
 31 51  1  0
M  END
$$$$
