
     RDKit          3D

 61 67  0  0  0  0  0  0  0  0999 V2000
    3.0243    2.2301   -1.9723 O   0  0  0  0  0  0  0  0  0  0  0  0
    3.0490    1.3335   -1.1314 C   0  0  0  0  0  0  0  0  0  0  0  0
    4.2905    1.1602   -0.3435 C   0  0  0  0  0  0  0  0  0  0  0  0
    4.8664    2.2964    0.2616 C   0  0  0  0  0  0  0  0  0  0  0  0
    6.0565    2.1846    0.9861 C   0  0  0  0  0  0  0  0  0  0  0  0
    6.6421    0.9391    1.0643 C   0  0  0  0  0  0  0  0  0  0  0  0
    6.0879   -0.1662    0.4572 C   0  0  0  0  0  0  0  0  0  0  0  0
    4.9142   -0.0924   -0.2611 C   0  0  0  0  0  0  0  0  0  0  0  0
    6.8325   -1.2896    0.6452 O   0  0  0  0  0  0  0  0  0  0  0  0
    7.9362   -0.7596    1.4105 C   0  0  0  0  0  0  0  0  0  0  0  0
    7.8019    0.6455    1.7109 O   0  0  0  0  0  0  0  0  0  0  0  0
    1.9690    0.4811   -0.8991 N   0  0  0  0  0  0  0  0  0  0  0  0
    0.8197    0.6025   -1.7862 C   0  0  0  0  0  0  0  0  0  0  0  0
   -0.0749   -0.6301   -1.7442 C   0  0  0  0  0  0  0  0  0  0  0  0
   -0.5697   -0.9820   -0.3139 C   0  0  0  0  0  0  0  0  0  0  0  0
    0.3436   -0.3388    0.7653 C   0  0  0  0  0  0  0  0  0  0  0  0
    1.8018   -0.3186    0.3170 C   0  0  0  0  0  0  0  0  0  0  0  0
   -0.3389   -2.4086   -0.1186 O   0  0  0  0  0  0  0  0  0  0  0  0
   -1.2717   -3.2792   -0.5956 C   0  0  0  0  0  0  0  0  0  0  0  0
   -0.8916   -4.6225   -0.6348 C   0  0  0  0  0  0  0  0  0  0  0  0
   -1.7748   -5.5852   -1.1264 C   0  0  0  0  0  0  0  0  0  0  0  0
   -3.0340   -5.1977   -1.5727 C   0  0  0  0  0  0  0  0  0  0  0  0
   -3.8775   -6.1226   -2.0470 F   0  0  0  0  0  0  0  0  0  0  0  0
   -3.4301   -3.8679   -1.5299 C   0  0  0  0  0  0  0  0  0  0  0  0
   -2.5423   -2.9132   -1.0269 C   0  0  0  0  0  0  0  0  0  0  0  0
   -2.9366   -1.5018   -0.9435 C   0  0  0  0  0  0  0  0  0  0  0  0
   -3.9165   -1.1081   -1.5715 O   0  0  0  0  0  0  0  0  0  0  0  0
   -2.0607   -0.6097   -0.0695 C   0  0  0  0  0  0  0  0  0  0  0  0
   -2.4093    0.8584   -0.2737 C   0  0  0  0  0  0  0  0  0  0  0  0
   -3.3329    1.0430    0.8825 C   0  0  0  0  0  0  0  0  0  0  0  0
   -4.1761    2.2537    1.0326 C   0  0  0  0  0  0  0  0  0  0  0  0
   -4.1662    3.2795    0.0799 C   0  0  0  0  0  0  0  0  0  0  0  0
   -4.9666    4.4113    0.2631 C   0  0  0  0  0  0  0  0  0  0  0  0
   -5.7728    4.5255    1.3951 C   0  0  0  0  0  0  0  0  0  0  0  0
   -5.7861    3.5078    2.3472 C   0  0  0  0  0  0  0  0  0  0  0  0
   -4.9916    2.3740    2.1664 C   0  0  0  0  0  0  0  0  0  0  0  0
   -3.3032    0.0893    1.7584 N   0  0  0  0  0  0  0  0  0  0  0  0
   -2.4010   -0.8927    1.2981 O   0  0  0  0  0  0  0  0  0  0  0  0
    4.3851    3.2668    0.1558 H   0  0  0  0  0  0  0  0  0  0  0  0
    6.5117    3.0491    1.4569 H   0  0  0  0  0  0  0  0  0  0  0  0
    4.5102   -0.9669   -0.7576 H   0  0  0  0  0  0  0  0  0  0  0  0
    8.8609   -0.9087    0.8391 H   0  0  0  0  0  0  0  0  0  0  0  0
    8.0115   -1.3185    2.3516 H   0  0  0  0  0  0  0  0  0  0  0  0
    0.2676    1.5023   -1.4935 H   0  0  0  0  0  0  0  0  0  0  0  0
    1.1728    0.7653   -2.8113 H   0  0  0  0  0  0  0  0  0  0  0  0
   -0.9178   -0.4773   -2.4280 H   0  0  0  0  0  0  0  0  0  0  0  0
    0.4924   -1.4757   -2.1573 H   0  0  0  0  0  0  0  0  0  0  0  0
    0.2767   -0.9030    1.7044 H   0  0  0  0  0  0  0  0  0  0  0  0
    0.0412    0.6899    0.9878 H   0  0  0  0  0  0  0  0  0  0  0  0
    2.4194    0.0876    1.1240 H   0  0  0  0  0  0  0  0  0  0  0  0
    2.1536   -1.3328    0.0966 H   0  0  0  0  0  0  0  0  0  0  0  0
    0.0951   -4.9195   -0.2875 H   0  0  0  0  0  0  0  0  0  0  0  0
   -1.4901   -6.6324   -1.1650 H   0  0  0  0  0  0  0  0  0  0  0  0
   -4.4223   -3.5899   -1.8735 H   0  0  0  0  0  0  0  0  0  0  0  0
   -1.5661    1.5381   -0.1334 H   0  0  0  0  0  0  0  0  0  0  0  0
   -2.8823    1.0754   -1.2345 H   0  0  0  0  0  0  0  0  0  0  0  0
   -3.5494    3.2262   -0.8123 H   0  0  0  0  0  0  0  0  0  0  0  0
   -4.9606    5.2063   -0.4792 H   0  0  0  0  0  0  0  0  0  0  0  0
   -6.3932    5.4069    1.5356 H   0  0  0  0  0  0  0  0  0  0  0  0
   -6.4137    3.5950    3.2317 H   0  0  0  0  0  0  0  0  0  0  0  0
   -5.0131    1.5869    2.9181 H   0  0  0  0  0  0  0  0  0  0  0  0
  1  2  2  0
  2  3  1  0
  3  4  2  0
  4  5  1  0
  5  6  2  0
  6  7  1  0
  7  8  2  0
  7  9  1  0
  9 10  1  0
 10 11  1  0
  2 12  1  0
 12 13  1  0
 13 14  1  0
 14 15  1  0
 15 16  1  0
 16 17  1  0
 15 18  1  0
 18 19  1  0
 19 20  2  0
 20 21  1  0
 21 22  2  0
 22 23  1  0
 22 24  1  0
 24 25  2  0
 25 26  1  0
 26 27  2  0
 26 28  1  0
 28 29  1  0
 29 30  1  0
 30 31  1  0
 31 32  2  0
 32 33  1  0
 33 34  2  0
 34 35  1  0
 35 36  2  0
 30 37  2  0
 37 38  1  0
  8  3  1  0
 17 12  1  0
 25 19  1  0
 38 28  1  0
 11  6  1  0
 28 15  1  0
 36 31  1  0
  4 39  1  0
  5 40  1  0
  8 41  1  0
 10 42  1  0
 10 43  1  0
 13 44  1  0
 13 45  1  0
 14 46  1  0
 14 47  1  0
 16 48  1  0
 16 49  1  0
 17 50  1  0
 17 51  1  0
 20 52  1  0
 21 53  1  0
 24 54  1  0
 29 55  1  0
 29 56  1  0
 32 57  1  0
 33 58  1  0
 34 59  1  0
 35 60  1  0
 36 61  1  0
M  END
$$$$
