
     RDKit          3D

 51 55  0  0  0  0  0  0  0  0999 V2000
    7.4102    1.3003    4.0004 F   0  0  0  0  0  0  0  0  0  0  0  0
    6.5294    1.1704    3.0010 C   0  0  0  0  0  0  0  0  0  0  0  0
    5.2791    1.7657    3.1066 C   0  0  0  0  0  0  0  0  0  0  0  0
    4.3607    1.6295    2.0650 C   0  0  0  0  0  0  0  0  0  0  0  0
    4.6964    0.8959    0.9170 C   0  0  0  0  0  0  0  0  0  0  0  0
    3.6969    0.7309   -0.2073 C   0  0  0  0  0  0  0  0  0  0  0  0
    2.5864   -0.2688    0.1581 C   0  0  0  0  0  0  0  0  0  0  0  0
    1.6967   -0.6040   -0.9699 N   0  0  0  0  0  0  0  0  0  0  0  0
    0.7616   -1.6828   -0.5631 C   0  0  0  0  0  0  0  0  0  0  0  0
   -0.2422   -2.0617   -1.6775 C   0  0  0  0  0  0  0  0  0  0  0  0
   -1.0145   -0.8809   -2.1097 N   0  0  0  0  0  0  0  0  0  0  0  0
   -2.1672   -0.5417   -1.4008 C   0  0  0  0  0  0  0  0  0  0  0  0
   -2.2342    0.6235   -0.8078 N   0  0  0  0  0  0  0  0  0  0  0  0
   -3.3692    0.9845   -0.0558 C   0  0  0  0  0  0  0  0  0  0  0  0
   -3.3779    2.2312    0.5724 C   0  0  0  0  0  0  0  0  0  0  0  0
   -4.4714    2.6326    1.3460 C   0  0  0  0  0  0  0  0  0  0  0  0
   -5.5718    1.7876    1.4955 C   0  0  0  0  0  0  0  0  0  0  0  0
   -5.5866    0.5392    0.8733 C   0  0  0  0  0  0  0  0  0  0  0  0
   -4.4847    0.1500    0.1054 C   0  0  0  0  0  0  0  0  0  0  0  0
   -4.4181   -1.0839   -0.5608 N   0  0  0  0  0  0  0  0  0  0  0  0
   -5.3443   -2.0974   -0.6223 C   0  0  0  0  0  0  0  0  0  0  0  0
   -4.8468   -3.0860   -1.4444 C   0  0  0  0  0  0  0  0  0  0  0  0
   -3.5740   -2.6597   -1.8903 C   0  0  0  0  0  0  0  0  0  0  0  0
   -3.3124   -1.4336   -1.3049 C   0  0  0  0  0  0  0  0  0  0  0  0
   -0.1063    0.2031   -2.5371 C   0  0  0  0  0  0  0  0  0  0  0  0
    0.9085    0.5675   -1.4287 C   0  0  0  0  0  0  0  0  0  0  0  0
    5.9637    0.3010    0.8303 C   0  0  0  0  0  0  0  0  0  0  0  0
    6.8813    0.4414    1.8717 C   0  0  0  0  0  0  0  0  0  0  0  0
    5.0261    2.3283    3.9980 H   0  0  0  0  0  0  0  0  0  0  0  0
    3.3816    2.0960    2.1528 H   0  0  0  0  0  0  0  0  0  0  0  0
    4.2152    0.3951   -1.1149 H   0  0  0  0  0  0  0  0  0  0  0  0
    3.2776    1.7176   -0.4392 H   0  0  0  0  0  0  0  0  0  0  0  0
    2.0040    0.1129    1.0071 H   0  0  0  0  0  0  0  0  0  0  0  0
    3.0692   -1.1933    0.5037 H   0  0  0  0  0  0  0  0  0  0  0  0
    0.2039   -1.3841    0.3350 H   0  0  0  0  0  0  0  0  0  0  0  0
    1.3374   -2.5813   -0.3096 H   0  0  0  0  0  0  0  0  0  0  0  0
   -0.8926   -2.8623   -1.3111 H   0  0  0  0  0  0  0  0  0  0  0  0
    0.2986   -2.4681   -2.5424 H   0  0  0  0  0  0  0  0  0  0  0  0
   -2.5229    2.8914    0.4590 H   0  0  0  0  0  0  0  0  0  0  0  0
   -4.4629    3.6051    1.8303 H   0  0  0  0  0  0  0  0  0  0  0  0
   -6.4189    2.1042    2.1008 H   0  0  0  0  0  0  0  0  0  0  0  0
   -6.4543   -0.0992    1.0030 H   0  0  0  0  0  0  0  0  0  0  0  0
   -6.2854   -2.0403   -0.0982 H   0  0  0  0  0  0  0  0  0  0  0  0
   -5.3519   -4.0069   -1.7045 H   0  0  0  0  0  0  0  0  0  0  0  0
   -2.9147   -3.1886   -2.5677 H   0  0  0  0  0  0  0  0  0  0  0  0
   -0.6733    1.0903   -2.8413 H   0  0  0  0  0  0  0  0  0  0  0  0
    0.4379   -0.1312   -3.4301 H   0  0  0  0  0  0  0  0  0  0  0  0
    1.5811    1.3245   -1.8469 H   0  0  0  0  0  0  0  0  0  0  0  0
    0.3875    1.0257   -0.5787 H   0  0  0  0  0  0  0  0  0  0  0  0
    6.2433   -0.2745   -0.0497 H   0  0  0  0  0  0  0  0  0  0  0  0
    7.8641   -0.0151    1.8101 H   0  0  0  0  0  0  0  0  0  0  0  0
  1  2  1  0
  2  3  2  0
  3  4  1  0
  4  5  2  0
  5  6  1  0
  6  7  1  0
  7  8  1  0
  8  9  1  0
  9 10  1  0
 10 11  1  0
 11 12  1  0
 12 13  2  0
 13 14  1  0
 14 15  2  0
 15 16  1  0
 16 17  2  0
 17 18  1  0
 18 19  2  0
 19 20  1  0
 20 21  1  0
 21 22  2  0
 22 23  1  0
 23 24  2  0
 11 25  1  0
 25 26  1  0
  5 27  1  0
 27 28  2  0
 28  2  1  0
 26  8  1  0
 24 12  1  0
 19 14  1  0
 24 20  1  0
  3 29  1  0
  4 30  1  0
  6 31  1  0
  6 32  1  0
  7 33  1  0
  7 34  1  0
  9 35  1  0
  9 36  1  0
 10 37  1  0
 10 38  1  0
 15 39  1  0
 16 40  1  0
 17 41  1  0
 18 42  1  0
 21 43  1  0
 22 44  1  0
 23 45  1  0
 25 46  1  0
 25 47  1  0
 26 48  1  0
 26 49  1  0
 27 50  1  0
 28 51  1  0
M  END
$$$$
