
     RDKit          3D

 56 58  0  0  0  0  0  0  0  0999 V2000
    6.4898   -1.9919   -1.3908 C   0  0  0  0  0  0  0  0  0  0  0  0
    5.4217   -1.3357   -0.7222 O   0  0  0  0  0  0  0  0  0  0  0  0
    4.6097   -0.5329   -1.4773 C   0  0  0  0  0  0  0  0  0  0  0  0
    4.7248   -0.3190   -2.8509 C   0  0  0  0  0  0  0  0  0  0  0  0
    3.8268    0.5284   -3.5101 C   0  0  0  0  0  0  0  0  0  0  0  0
    2.8097    1.1683   -2.7980 C   0  0  0  0  0  0  0  0  0  0  0  0
    1.8759    2.0152   -3.3487 O   0  0  0  0  0  0  0  0  0  0  0  0
    2.0794    2.4085   -4.7004 C   0  0  0  0  0  0  0  0  0  0  0  0
    2.6849    0.9484   -1.4117 C   0  0  0  0  0  0  0  0  0  0  0  0
    1.6225    1.6103   -0.7583 N   0  0  0  0  0  0  0  0  0  0  0  0
    1.2267    1.5082    0.5605 C   0  0  0  0  0  0  0  0  0  0  0  0
    1.7949    0.8825    1.4517 O   0  0  0  0  0  0  0  0  0  0  0  0
   -0.0232    2.3165    0.8736 C   0  0  0  0  0  0  0  0  0  0  0  0
   -1.4695    1.7656   -0.0762 S   0  0  0  0  0  0  0  0  0  0  0  0
   -1.4259    0.0669    0.3415 C   0  0  0  0  0  0  0  0  0  0  0  0
   -0.6874   -0.6751   -0.4127 N   0  0  0  0  0  0  0  0  0  0  0  0
   -0.5694   -2.0322   -0.1051 C   0  0  0  0  0  0  0  0  0  0  0  0
    0.3210   -2.8170   -0.8410 C   0  0  0  0  0  0  0  0  0  0  0  0
    0.4654   -4.1784   -0.5600 C   0  0  0  0  0  0  0  0  0  0  0  0
   -0.2857   -4.7656    0.4580 C   0  0  0  0  0  0  0  0  0  0  0  0
   -1.1764   -3.9892    1.1998 C   0  0  0  0  0  0  0  0  0  0  0  0
   -1.3042   -2.6245    0.9158 C   0  0  0  0  0  0  0  0  0  0  0  0
   -2.2147   -1.7610    1.6858 C   0  0  0  0  0  0  0  0  0  0  0  0
   -2.9756   -2.2694    2.5073 O   0  0  0  0  0  0  0  0  0  0  0  0
   -2.1695   -0.3934    1.4110 N   0  0  0  0  0  0  0  0  0  0  0  0
   -3.0443    0.4497    2.2328 C   0  0  0  0  0  0  0  0  0  0  0  0
   -4.4613    0.5580    1.6513 C   0  0  0  0  0  0  0  0  0  0  0  0
   -5.3961    1.1909    2.5638 N   0  0  0  0  0  0  0  0  0  0  0  0
   -5.3296    2.5329    2.8506 C   0  0  0  0  0  0  0  0  0  0  0  0
   -6.3572    3.0103    3.8415 C   0  0  0  0  0  0  0  0  0  0  0  0
   -4.4977    3.2861    2.3544 O   0  0  0  0  0  0  0  0  0  0  0  0
    3.5884    0.1027   -0.7638 C   0  0  0  0  0  0  0  0  0  0  0  0
    7.0336   -2.5845   -0.6483 H   0  0  0  0  0  0  0  0  0  0  0  0
    7.1906   -1.2681   -1.8207 H   0  0  0  0  0  0  0  0  0  0  0  0
    6.1136   -2.6819   -2.1542 H   0  0  0  0  0  0  0  0  0  0  0  0
    5.5005   -0.7973   -3.4395 H   0  0  0  0  0  0  0  0  0  0  0  0
    3.9454    0.6577   -4.5790 H   0  0  0  0  0  0  0  0  0  0  0  0
    1.9470    1.5637   -5.3834 H   0  0  0  0  0  0  0  0  0  0  0  0
    3.0603    2.8778   -4.8369 H   0  0  0  0  0  0  0  0  0  0  0  0
    1.3202    3.1553   -4.9472 H   0  0  0  0  0  0  0  0  0  0  0  0
    1.0119    2.1198   -1.3939 H   0  0  0  0  0  0  0  0  0  0  0  0
    0.1747    3.3708    0.6565 H   0  0  0  0  0  0  0  0  0  0  0  0
   -0.2414    2.2330    1.9436 H   0  0  0  0  0  0  0  0  0  0  0  0
    0.9123   -2.3570   -1.6287 H   0  0  0  0  0  0  0  0  0  0  0  0
    1.1685   -4.7767   -1.1351 H   0  0  0  0  0  0  0  0  0  0  0  0
   -0.1733   -5.8237    0.6766 H   0  0  0  0  0  0  0  0  0  0  0  0
   -1.7598   -4.4431    1.9967 H   0  0  0  0  0  0  0  0  0  0  0  0
   -3.1017    0.0232    3.2407 H   0  0  0  0  0  0  0  0  0  0  0  0
   -2.6006    1.4411    2.3655 H   0  0  0  0  0  0  0  0  0  0  0  0
   -4.8659   -0.4323    1.4175 H   0  0  0  0  0  0  0  0  0  0  0  0
   -4.4469    1.1387    0.7209 H   0  0  0  0  0  0  0  0  0  0  0  0
   -6.0331    0.5996    3.0816 H   0  0  0  0  0  0  0  0  0  0  0  0
   -6.9231    3.8328    3.4008 H   0  0  0  0  0  0  0  0  0  0  0  0
   -7.0589    2.2183    4.1173 H   0  0  0  0  0  0  0  0  0  0  0  0
   -5.8472    3.3555    4.7439 H   0  0  0  0  0  0  0  0  0  0  0  0
    3.5198   -0.0868    0.3034 H   0  0  0  0  0  0  0  0  0  0  0  0
  1  2  1  0
  2  3  1  0
  3  4  2  0
  4  5  1  0
  5  6  2  0
  6  7  1  0
  7  8  1  0
  6  9  1  0
  9 10  1  0
 10 11  1  0
 11 12  2  0
 11 13  1  0
 13 14  1  0
 14 15  1  0
 15 16  2  0
 16 17  1  0
 17 18  2  0
 18 19  1  0
 19 20  2  0
 20 21  1  0
 21 22  2  0
 22 23  1  0
 23 24  2  0
 23 25  1  0
 25 26  1  0
 26 27  1  0
 27 28  1  0
 28 29  1  0
 29 30  1  0
 29 31  2  0
  9 32  2  0
 32  3  1  0
 25 15  1  0
 22 17  1  0
  1 33  1  0
  1 34  1  0
  1 35  1  0
  4 36  1  0
  5 37  1  0
  8 38  1  0
  8 39  1  0
  8 40  1  0
 10 41  1  0
 13 42  1  0
 13 43  1  0
 18 44  1  0
 19 45  1  0
 20 46  1  0
 21 47  1  0
 26 48  1  0
 26 49  1  0
 27 50  1  0
 27 51  1  0
 28 52  1  0
 30 53  1  0
 30 54  1  0
 30 55  1  0
 32 56  1  0
M  END
$$$$
