
     RDKit          3D

 55 58  0  0  0  0  0  0  0  0999 V2000
    5.0858   -2.7551   -3.5227 O   0  0  0  0  0  0  0  0  0  0  0  0
    5.4931   -3.3541   -2.2949 C   0  0  0  0  0  0  0  0  0  0  0  0
    5.6143   -2.3034   -1.1780 C   0  0  0  0  0  0  0  0  0  0  0  0
    4.3435   -1.9998   -0.4851 N   0  0  0  0  0  0  0  0  0  0  0  0
    4.5980   -1.0913    0.6527 C   0  0  0  0  0  0  0  0  0  0  0  0
    3.3002   -0.6918    1.3878 C   0  0  0  0  0  0  0  0  0  0  0  0
    2.3242   -0.0348    0.4922 N   0  0  0  0  0  0  0  0  0  0  0  0
    1.0916    0.2806    1.2371 C   0  0  0  0  0  0  0  0  0  0  0  0
    0.1117    1.1709    0.4473 C   0  0  0  0  0  0  0  0  0  0  0  0
   -1.0415    1.6192    1.3147 C   0  0  0  0  0  0  0  0  0  0  0  0
   -2.3726    1.4778    1.1162 C   0  0  0  0  0  0  0  0  0  0  0  0
   -3.2755    1.8357    2.2473 C   0  0  0  0  0  0  0  0  0  0  0  0
   -3.1502    3.0451    2.9495 C   0  0  0  0  0  0  0  0  0  0  0  0
   -4.0151    3.3466    4.0033 C   0  0  0  0  0  0  0  0  0  0  0  0
   -5.0182    2.4490    4.3615 C   0  0  0  0  0  0  0  0  0  0  0  0
   -5.1675    1.2525    3.6589 C   0  0  0  0  0  0  0  0  0  0  0  0
   -4.3101    0.9444    2.5949 C   0  0  0  0  0  0  0  0  0  0  0  0
   -4.5693   -0.5969    1.7123 S   0  0  0  0  0  0  0  0  0  0  0  0
   -3.9484   -0.1563    0.0889 C   0  0  0  0  0  0  0  0  0  0  0  0
   -4.5088   -0.7869   -1.0285 C   0  0  0  0  0  0  0  0  0  0  0  0
   -4.1051   -0.4323   -2.3177 C   0  0  0  0  0  0  0  0  0  0  0  0
   -3.1403    0.5653   -2.5107 C   0  0  0  0  0  0  0  0  0  0  0  0
   -2.7307    0.9912   -3.8991 C   0  0  0  0  0  0  0  0  0  0  0  0
   -3.3723    2.1217   -4.3040 F   0  0  0  0  0  0  0  0  0  0  0  0
   -2.9922    0.0506   -4.8500 F   0  0  0  0  0  0  0  0  0  0  0  0
   -1.3985    1.2589   -3.9987 F   0  0  0  0  0  0  0  0  0  0  0  0
   -2.5819    1.1958   -1.3860 C   0  0  0  0  0  0  0  0  0  0  0  0
   -2.9452    0.8154   -0.0843 C   0  0  0  0  0  0  0  0  0  0  0  0
    2.0686   -0.9268   -0.6591 C   0  0  0  0  0  0  0  0  0  0  0  0
    3.3645   -1.3603   -1.3894 C   0  0  0  0  0  0  0  0  0  0  0  0
    4.9724   -3.4784   -4.1625 H   0  0  0  0  0  0  0  0  0  0  0  0
    4.7835   -4.1436   -2.0250 H   0  0  0  0  0  0  0  0  0  0  0  0
    6.4710   -3.8161   -2.4666 H   0  0  0  0  0  0  0  0  0  0  0  0
    6.0643   -1.3859   -1.5786 H   0  0  0  0  0  0  0  0  0  0  0  0
    6.3056   -2.7161   -0.4325 H   0  0  0  0  0  0  0  0  0  0  0  0
    5.2569   -1.5886    1.3750 H   0  0  0  0  0  0  0  0  0  0  0  0
    5.1122   -0.1814    0.3139 H   0  0  0  0  0  0  0  0  0  0  0  0
    3.5698   -0.0044    2.1989 H   0  0  0  0  0  0  0  0  0  0  0  0
    2.8592   -1.5857    1.8498 H   0  0  0  0  0  0  0  0  0  0  0  0
    1.3707    0.8216    2.1515 H   0  0  0  0  0  0  0  0  0  0  0  0
    0.5831   -0.6385    1.5585 H   0  0  0  0  0  0  0  0  0  0  0  0
    0.6345    2.0652    0.0872 H   0  0  0  0  0  0  0  0  0  0  0  0
   -0.2360    0.6204   -0.4280 H   0  0  0  0  0  0  0  0  0  0  0  0
   -0.7029    2.0696    2.2487 H   0  0  0  0  0  0  0  0  0  0  0  0
   -2.3841    3.7665    2.6750 H   0  0  0  0  0  0  0  0  0  0  0  0
   -3.9076    4.2848    4.5419 H   0  0  0  0  0  0  0  0  0  0  0  0
   -5.6909    2.6833    5.1827 H   0  0  0  0  0  0  0  0  0  0  0  0
   -5.9622    0.5663    3.9424 H   0  0  0  0  0  0  0  0  0  0  0  0
   -5.2766   -1.5476   -0.9029 H   0  0  0  0  0  0  0  0  0  0  0  0
   -4.5607   -0.9300   -3.1730 H   0  0  0  0  0  0  0  0  0  0  0  0
   -1.8563    1.9960   -1.5319 H   0  0  0  0  0  0  0  0  0  0  0  0
    1.5285   -1.8260   -0.3327 H   0  0  0  0  0  0  0  0  0  0  0  0
    1.4393   -0.4162   -1.3961 H   0  0  0  0  0  0  0  0  0  0  0  0
    3.8078   -0.4823   -1.8781 H   0  0  0  0  0  0  0  0  0  0  0  0
    3.0664   -2.0636   -2.1742 H   0  0  0  0  0  0  0  0  0  0  0  0
  1  2  1  0
  2  3  1  0
  3  4  1  0
  4  5  1  0
  5  6  1  0
  6  7  1  0
  7  8  1  0
  8  9  1  0
  9 10  1  0
 10 11  2  3
 11 12  1  0
 12 13  2  0
 13 14  1  0
 14 15  2  0
 15 16  1  0
 16 17  2  0
 17 18  1  0
 18 19  1  0
 19 20  2  0
 20 21  1  0
 21 22  2  0
 22 23  1  0
 23 24  1  0
 23 25  1  0
 23 26  1  0
 22 27  1  0
 27 28  2  0
  7 29  1  0
 29 30  1  0
 30  4  1  0
 28 11  1  0
 17 12  1  0
 28 19  1  0
  1 31  1  0
  2 32  1  0
  2 33  1  0
  3 34  1  0
  3 35  1  0
  5 36  1  0
  5 37  1  0
  6 38  1  0
  6 39  1  0
  8 40  1  0
  8 41  1  0
  9 42  1  0
  9 43  1  0
 10 44  1  0
 13 45  1  0
 14 46  1  0
 15 47  1  0
 16 48  1  0
 20 49  1  0
 21 50  1  0
 27 51  1  0
 29 52  1  0
 29 53  1  0
 30 54  1  0
 30 55  1  0
M  END
$$$$
