
     RDKit          3D

 53 58  0  0  0  0  0  0  0  0999 V2000
   -0.9618   -1.5009   -1.4577 O   0  0  0  0  0  0  0  0  0  0  0  0
   -1.4867   -1.0147   -0.4515 C   0  0  0  0  0  0  0  0  0  0  0  0
   -0.7269   -1.1364    0.8877 C   0  0  0  0  0  0  0  0  0  0  0  0
    0.7188   -0.9204    0.6832 N   0  0  0  0  0  4  0  0  0  0  0  0
    1.4390    0.2370    0.9758 C   0  0  0  0  0  0  0  0  0  0  0  0
    2.7588    0.0615    0.5757 C   0  0  0  0  0  0  0  0  0  0  0  0
    3.9168    1.1195    0.6901 C   0  0  0  0  0  0  0  0  0  0  0  0
    5.1885    0.8442    0.1813 C   0  0  0  0  0  0  0  0  0  0  0  0
    6.2108    1.7941    0.2883 C   0  0  0  0  0  0  0  0  0  0  0  0
    5.9628    3.0193    0.9012 C   0  0  0  0  0  0  0  0  0  0  0  0
    7.2202    4.1827    1.0311 Cl  0  0  0  0  0  0  0  0  0  0  0  0
    4.6977    3.3046    1.4068 C   0  0  0  0  0  0  0  0  0  0  0  0
    3.6734    2.3575    1.3010 C   0  0  0  0  0  0  0  0  0  0  0  0
    2.7688   -1.2268    0.0721 N   0  0  0  0  0  0  0  0  0  0  0  0
    1.5551   -1.7730    0.0980 C   0  0  0  0  0  0  0  0  0  0  0  0
    1.5194   -3.1408   -0.4721 C   0  0  0  0  0  0  0  0  0  0  0  0
    3.0176   -3.4960   -0.5403 C   0  0  0  0  0  0  0  0  0  0  0  0
    3.7527   -2.1282   -0.5115 C   0  0  0  0  0  0  0  0  0  0  0  0
   -2.6586   -0.2385   -0.4207 N   0  0  0  0  0  0  0  0  0  0  0  0
   -3.5112   -0.1978    0.7397 C   0  0  0  0  0  0  0  0  0  0  0  0
   -3.6816   -1.3637    1.5140 C   0  0  0  0  0  0  0  0  0  0  0  0
   -4.4884   -1.3662    2.6546 C   0  0  0  0  0  0  0  0  0  0  0  0
   -5.1527   -0.2075    3.0355 C   0  0  0  0  0  0  0  0  0  0  0  0
   -5.0283    0.9445    2.2626 C   0  0  0  0  0  0  0  0  0  0  0  0
   -4.2282    0.9498    1.1109 C   0  0  0  0  0  0  0  0  0  0  0  0
   -4.1219    2.4515    0.1799 S   0  0  0  0  0  0  0  0  0  0  0  0
   -3.7853    1.7465   -1.4183 C   0  0  0  0  0  0  0  0  0  0  0  0
   -4.1785    2.4947   -2.5398 C   0  0  0  0  0  0  0  0  0  0  0  0
   -3.8913    2.0475   -3.8250 C   0  0  0  0  0  0  0  0  0  0  0  0
   -3.2048    0.8537   -3.9939 C   0  0  0  0  0  0  0  0  0  0  0  0
   -2.8050    0.1078   -2.8790 C   0  0  0  0  0  0  0  0  0  0  0  0
   -3.0862    0.5312   -1.5675 C   0  0  0  0  0  0  0  0  0  0  0  0
   -0.8635   -2.1440    1.2919 H   0  0  0  0  0  0  0  0  0  0  0  0
   -1.0612   -0.3987    1.6220 H   0  0  0  0  0  0  0  0  0  0  0  0
    0.9086    1.0593    1.4256 H   0  0  0  0  0  0  0  0  0  0  0  0
    5.4214   -0.0886   -0.3158 H   0  0  0  0  0  0  0  0  0  0  0  0
    7.1987    1.5747   -0.1117 H   0  0  0  0  0  0  0  0  0  0  0  0
    4.5037    4.2632    1.8838 H   0  0  0  0  0  0  0  0  0  0  0  0
    2.7017    2.6197    1.7096 H   0  0  0  0  0  0  0  0  0  0  0  0
    0.9459   -3.7903    0.1899 H   0  0  0  0  0  0  0  0  0  0  0  0
    1.0733   -3.0647   -1.4648 H   0  0  0  0  0  0  0  0  0  0  0  0
    3.2916   -4.0654    0.3559 H   0  0  0  0  0  0  0  0  0  0  0  0
    3.2753   -4.0990   -1.4150 H   0  0  0  0  0  0  0  0  0  0  0  0
    3.9894   -1.7848   -1.5228 H   0  0  0  0  0  0  0  0  0  0  0  0
    4.6524   -2.1806    0.1055 H   0  0  0  0  0  0  0  0  0  0  0  0
   -3.2457   -2.3131    1.2116 H   0  0  0  0  0  0  0  0  0  0  0  0
   -4.6212   -2.2790    3.2324 H   0  0  0  0  0  0  0  0  0  0  0  0
   -5.7897   -0.2044    3.9178 H   0  0  0  0  0  0  0  0  0  0  0  0
   -5.5741    1.8391    2.5598 H   0  0  0  0  0  0  0  0  0  0  0  0
   -4.7096    3.4373   -2.4182 H   0  0  0  0  0  0  0  0  0  0  0  0
   -4.2039    2.6285   -4.6895 H   0  0  0  0  0  0  0  0  0  0  0  0
   -2.9855    0.4909   -4.9961 H   0  0  0  0  0  0  0  0  0  0  0  0
   -2.3108   -0.8369   -3.0843 H   0  0  0  0  0  0  0  0  0  0  0  0
  1  2  2  0
  2  3  1  0
  3  4  1  0
  4  5  1  0
  5  6  2  0
  6  7  1  0
  7  8  2  0
  8  9  1  0
  9 10  2  0
 10 11  1  0
 10 12  1  0
 12 13  2  0
  6 14  1  0
 14 15  1  0
 15 16  1  0
 16 17  1  0
 17 18  1  0
  2 19  1  0
 19 20  1  0
 20 21  2  0
 21 22  1  0
 22 23  2  0
 23 24  1  0
 24 25  2  0
 25 26  1  0
 26 27  1  0
 27 28  2  0
 28 29  1  0
 29 30  2  0
 30 31  1  0
 31 32  2  0
 15  4  2  0
 32 19  1  0
 13  7  1  0
 18 14  1  0
 25 20  1  0
 32 27  1  0
  3 33  1  0
  3 34  1  0
  5 35  1  0
  8 36  1  0
  9 37  1  0
 12 38  1  0
 13 39  1  0
 16 40  1  0
 16 41  1  0
 17 42  1  0
 17 43  1  0
 18 44  1  0
 18 45  1  0
 21 46  1  0
 22 47  1  0
 23 48  1  0
 24 49  1  0
 28 50  1  0
 29 51  1  0
 30 52  1  0
 31 53  1  0
M  CHG  1   4   1
M  END
$$$$
