
     RDKit          3D

 41 44  0  0  0  0  0  0  0  0999 V2000
   -4.5540    0.9259    0.4673 O   0  0  0  0  0  0  0  0  0  0  0  0
   -3.1481    0.9436    0.8153 S   0  0  0  0  0  6  0  0  0  0  0  0
   -2.6612    1.7457    1.9165 O   0  0  0  0  0  0  0  0  0  0  0  0
   -2.7160   -0.6685    1.0654 N   0  0  0  0  0  0  0  0  0  0  0  0
   -1.3330   -1.0285    1.1222 C   0  0  0  0  0  0  0  0  0  0  0  0
   -0.5885   -0.5965    2.2241 C   0  0  0  0  0  0  0  0  0  0  0  0
    0.7749   -0.8776    2.3200 C   0  0  0  0  0  0  0  0  0  0  0  0
    1.6299   -0.3359    3.7935 S   0  0  0  0  0  0  0  0  0  0  0  0
    2.7426    0.8350    3.1469 C   0  0  0  0  0  0  0  0  0  0  0  0
    2.6302    2.1812    3.3414 N   0  0  0  0  0  0  0  0  0  0  0  0
    3.6706    2.6609    2.7022 C   0  0  0  0  0  0  0  0  0  0  0  0
    4.3762    1.6382    2.1520 N   0  0  0  0  0  0  0  0  0  0  0  0
    3.8007    0.4519    2.4197 N   0  0  0  0  0  0  0  0  0  0  0  0
    1.3839   -1.6132    1.2920 C   0  0  0  0  0  0  0  0  0  0  0  0
    2.7255   -1.9205    1.3427 O   0  0  0  0  0  0  0  0  0  0  0  0
    0.6526   -2.0699    0.1710 C   0  0  0  0  0  0  0  0  0  0  0  0
    1.2659   -2.8103   -0.8629 C   0  0  0  0  0  0  0  0  0  0  0  0
    0.5495   -3.2472   -1.9757 C   0  0  0  0  0  0  0  0  0  0  0  0
   -0.8007   -2.9522   -2.0807 C   0  0  0  0  0  0  0  0  0  0  0  0
   -1.4318   -2.2245   -1.0704 C   0  0  0  0  0  0  0  0  0  0  0  0
   -0.7293   -1.7706    0.0740 C   0  0  0  0  0  0  0  0  0  0  0  0
   -2.2391    1.3990   -0.6431 C   0  0  0  0  0  0  0  0  0  0  0  0
   -2.8076    1.1914   -1.9037 C   0  0  0  0  0  0  0  0  0  0  0  0
   -2.0928    1.5530   -3.0454 C   0  0  0  0  0  0  0  0  0  0  0  0
   -0.8262    2.1275   -2.9244 C   0  0  0  0  0  0  0  0  0  0  0  0
   -0.2728    2.3534   -1.6629 C   0  0  0  0  0  0  0  0  0  0  0  0
   -0.9815    1.9981   -0.5161 C   0  0  0  0  0  0  0  0  0  0  0  0
   -3.3726   -1.3226    0.6462 H   0  0  0  0  0  0  0  0  0  0  0  0
   -1.0842   -0.0418    3.0196 H   0  0  0  0  0  0  0  0  0  0  0  0
    3.9534    3.7001    2.6102 H   0  0  0  0  0  0  0  0  0  0  0  0
    5.2277    1.6703    1.6015 H   0  0  0  0  0  0  0  0  0  0  0  0
    3.1651   -1.2760    1.9378 H   0  0  0  0  0  0  0  0  0  0  0  0
    2.3265   -3.0515   -0.8008 H   0  0  0  0  0  0  0  0  0  0  0  0
    1.0505   -3.8149   -2.7552 H   0  0  0  0  0  0  0  0  0  0  0  0
   -1.3658   -3.2865   -2.9470 H   0  0  0  0  0  0  0  0  0  0  0  0
   -2.4895   -2.0120   -1.1983 H   0  0  0  0  0  0  0  0  0  0  0  0
   -3.7979    0.7537   -2.0044 H   0  0  0  0  0  0  0  0  0  0  0  0
   -2.5230    1.3919   -4.0308 H   0  0  0  0  0  0  0  0  0  0  0  0
   -0.2714    2.4075   -3.8168 H   0  0  0  0  0  0  0  0  0  0  0  0
    0.7099    2.8094   -1.5740 H   0  0  0  0  0  0  0  0  0  0  0  0
   -0.5483    2.1831    0.4647 H   0  0  0  0  0  0  0  0  0  0  0  0
  1  2  2  0
  2  3  2  0
  2  4  1  0
  4  5  1  0
  5  6  2  0
  6  7  1  0
  7  8  1  0
  8  9  1  0
  9 10  1  0
 10 11  2  0
 11 12  1  0
 12 13  1  0
  7 14  2  0
 14 15  1  0
 14 16  1  0
 16 17  2  0
 17 18  1  0
 18 19  2  0
 19 20  1  0
 20 21  2  0
  2 22  1  0
 22 23  2  0
 23 24  1  0
 24 25  2  0
 25 26  1  0
 26 27  2  0
 21  5  1  0
 27 22  1  0
 13  9  2  0
 21 16  1  0
  4 28  1  0
  6 29  1  0
 11 30  1  0
 12 31  1  0
 15 32  1  0
 17 33  1  0
 18 34  1  0
 19 35  1  0
 20 36  1  0
 23 37  1  0
 24 38  1  0
 25 39  1  0
 26 40  1  0
 27 41  1  0
M  END
$$$$
