
     RDKit          3D

 39 40  0  0  0  0  0  0  0  0999 V2000
   -1.0933    1.7189   -0.3519 O   0  0  0  0  0  0  0  0  0  0  0  0
   -1.2300    0.5055   -0.4345 C   0  0  0  0  0  0  0  0  0  0  0  0
   -0.1583   -0.3905   -1.0404 C   0  0  0  0  0  0  0  0  0  0  0  0
    1.1157    0.3464   -1.4451 C   0  0  0  0  0  0  0  0  0  0  0  0
    1.9191    0.8581   -0.2487 C   0  0  0  0  0  0  0  0  0  0  0  0
    3.1753    1.3792   -0.6868 O   0  0  0  0  0  0  0  0  0  0  0  0
    4.2662    0.5547   -0.6682 C   0  0  0  0  0  0  0  0  0  0  0  0
    4.2499   -0.8319   -0.5217 C   0  0  0  0  0  0  0  0  0  0  0  0
    5.4488   -1.5532   -0.5223 C   0  0  0  0  0  0  0  0  0  0  0  0
    6.6671   -0.8935   -0.6755 C   0  0  0  0  0  0  0  0  0  0  0  0
    6.6894    0.4901   -0.8326 C   0  0  0  0  0  0  0  0  0  0  0  0
    5.4920    1.2079   -0.8322 C   0  0  0  0  0  0  0  0  0  0  0  0
   -2.3241   -0.2372   -0.0138 N   0  0  0  0  0  0  0  0  0  0  0  0
   -3.5204    0.2269    0.5894 C   0  0  0  0  0  0  0  0  0  0  0  0
   -3.7670    1.5918    0.7929 C   0  0  0  0  0  0  0  0  0  0  0  0
   -4.9541    2.0362    1.3837 C   0  0  0  0  0  0  0  0  0  0  0  0
   -5.9189    1.1232    1.7858 C   0  0  0  0  0  0  0  0  0  0  0  0
   -5.6947   -0.2362    1.5947 C   0  0  0  0  0  0  0  0  0  0  0  0
   -4.5042   -0.7021    0.9947 C   0  0  0  0  0  0  0  0  0  0  0  0
   -4.3379   -2.1949    0.8654 C   0  0  0  0  0  0  0  0  0  0  0  0
   -3.3628   -2.5668   -0.0183 F   0  0  0  0  0  0  0  0  0  0  0  0
   -5.4698   -2.8242    0.4417 F   0  0  0  0  0  0  0  0  0  0  0  0
   -4.0010   -2.7848    2.0455 F   0  0  0  0  0  0  0  0  0  0  0  0
    0.0821   -1.1904   -0.3298 H   0  0  0  0  0  0  0  0  0  0  0  0
   -0.5911   -0.8529   -1.9381 H   0  0  0  0  0  0  0  0  0  0  0  0
    1.7370   -0.3330   -2.0408 H   0  0  0  0  0  0  0  0  0  0  0  0
    0.8816    1.1867   -2.1109 H   0  0  0  0  0  0  0  0  0  0  0  0
    2.0346    0.1027    0.5374 H   0  0  0  0  0  0  0  0  0  0  0  0
    1.3909    1.6949    0.2206 H   0  0  0  0  0  0  0  0  0  0  0  0
    3.3242   -1.3855   -0.4125 H   0  0  0  0  0  0  0  0  0  0  0  0
    5.4299   -2.6323   -0.4012 H   0  0  0  0  0  0  0  0  0  0  0  0
    7.5975   -1.4558   -0.6734 H   0  0  0  0  0  0  0  0  0  0  0  0
    7.6362    1.0124   -0.9517 H   0  0  0  0  0  0  0  0  0  0  0  0
    5.5129    2.2890   -0.9506 H   0  0  0  0  0  0  0  0  0  0  0  0
   -2.2575   -1.2389   -0.1761 H   0  0  0  0  0  0  0  0  0  0  0  0
   -3.0519    2.3543    0.4961 H   0  0  0  0  0  0  0  0  0  0  0  0
   -5.1166    3.1018    1.5277 H   0  0  0  0  0  0  0  0  0  0  0  0
   -6.8406    1.4691    2.2470 H   0  0  0  0  0  0  0  0  0  0  0  0
   -6.4562   -0.9458    1.9184 H   0  0  0  0  0  0  0  0  0  0  0  0
  1  2  2  0
  2  3  1  0
  3  4  1  0
  4  5  1  0
  5  6  1  0
  6  7  1  0
  7  8  2  0
  8  9  1  0
  9 10  2  0
 10 11  1  0
 11 12  2  0
  2 13  1  0
 13 14  1  0
 14 15  2  0
 15 16  1  0
 16 17  2  0
 17 18  1  0
 18 19  2  0
 19 20  1  0
 20 21  1  0
 20 22  1  0
 20 23  1  0
 12  7  1  0
 19 14  1  0
  3 24  1  0
  3 25  1  0
  4 26  1  0
  4 27  1  0
  5 28  1  0
  5 29  1  0
  8 30  1  0
  9 31  1  0
 10 32  1  0
 11 33  1  0
 12 34  1  0
 13 35  1  0
 15 36  1  0
 16 37  1  0
 17 38  1  0
 18 39  1  0
M  END
$$$$
