
     RDKit          3D

 40 42  0  0  0  0  0  0  0  0999 V2000
   -3.7560    1.3541    2.0662 C   0  0  0  0  0  0  0  0  0  0  0  0
   -4.2830    0.3551    1.0198 C   0  0  0  0  0  0  0  0  0  0  0  0
   -5.4563    1.0240    0.2716 C   0  0  0  0  0  0  0  0  0  0  0  0
   -4.8250   -0.9004    1.7273 C   0  0  0  0  0  0  0  0  0  0  0  0
   -3.1860   -0.0166    0.0329 C   0  0  0  0  0  0  0  0  0  0  0  0
   -3.2399    0.2044   -1.2674 N   0  0  0  0  0  0  0  0  0  0  0  0
   -2.1083   -0.2305   -1.9305 N   0  0  0  0  0  0  0  0  0  0  0  0
   -1.2412   -0.7639   -1.1096 C   0  0  0  0  0  0  0  0  0  0  0  0
   -0.0123   -1.3063   -1.3480 N   0  0  0  0  0  0  0  0  0  0  0  0
    0.5616   -1.3192   -2.5988 C   0  0  0  0  0  0  0  0  0  0  0  0
    0.0671   -0.9036   -3.6414 O   0  0  0  0  0  0  0  0  0  0  0  0
    1.9500   -1.9667   -2.5979 C   0  0  0  0  0  0  0  0  0  0  0  0
    2.5907   -1.9881   -1.3266 O   0  0  0  0  0  0  0  0  0  0  0  0
    3.2348   -0.8528   -0.9107 C   0  0  0  0  0  0  0  0  0  0  0  0
    3.1983    0.3994   -1.5530 C   0  0  0  0  0  0  0  0  0  0  0  0
    3.8833    1.4970   -1.0150 C   0  0  0  0  0  0  0  0  0  0  0  0
    4.5853    1.3100    0.1548 C   0  0  0  0  0  0  0  0  0  0  0  0
    4.6197    0.0909    0.7858 C   0  0  0  0  0  0  0  0  0  0  0  0
    3.9550   -1.0058    0.2802 C   0  0  0  0  0  0  0  0  0  0  0  0
    5.3621    0.1167    1.9246 O   0  0  0  0  0  0  0  0  0  0  0  0
    5.8001    1.4920    1.9319 C   0  0  0  0  0  0  0  0  0  0  0  0
    5.3018    2.2574    0.8148 O   0  0  0  0  0  0  0  0  0  0  0  0
   -1.7176   -0.7870    0.5270 S   0  0  0  0  0  0  0  0  0  0  0  0
   -3.3372    2.2471    1.5872 H   0  0  0  0  0  0  0  0  0  0  0  0
   -4.5575    1.6807    2.7388 H   0  0  0  0  0  0  0  0  0  0  0  0
   -2.9690    0.9160    2.6903 H   0  0  0  0  0  0  0  0  0  0  0  0
   -6.2611    1.3018    0.9620 H   0  0  0  0  0  0  0  0  0  0  0  0
   -5.1338    1.9365   -0.2440 H   0  0  0  0  0  0  0  0  0  0  0  0
   -5.8849    0.3526   -0.4822 H   0  0  0  0  0  0  0  0  0  0  0  0
   -5.6628   -0.6502    2.3884 H   0  0  0  0  0  0  0  0  0  0  0  0
   -4.0599   -1.3848    2.3444 H   0  0  0  0  0  0  0  0  0  0  0  0
   -5.1813   -1.6420    1.0025 H   0  0  0  0  0  0  0  0  0  0  0  0
    0.5186   -1.6419   -0.5554 H   0  0  0  0  0  0  0  0  0  0  0  0
    1.8046   -3.0113   -2.8967 H   0  0  0  0  0  0  0  0  0  0  0  0
    2.5866   -1.5059   -3.3621 H   0  0  0  0  0  0  0  0  0  0  0  0
    2.6422    0.5628   -2.4720 H   0  0  0  0  0  0  0  0  0  0  0  0
    3.8606    2.4657   -1.5026 H   0  0  0  0  0  0  0  0  0  0  0  0
    3.9967   -1.9603    0.7931 H   0  0  0  0  0  0  0  0  0  0  0  0
    5.4580    1.9636    2.8603 H   0  0  0  0  0  0  0  0  0  0  0  0
    6.8958    1.5115    1.9100 H   0  0  0  0  0  0  0  0  0  0  0  0
  1  2  1  0
  2  3  1  0
  2  4  1  0
  2  5  1  0
  5  6  2  0
  6  7  1  0
  7  8  2  0
  8  9  1  0
  9 10  1  0
 10 11  2  0
 10 12  1  0
 12 13  1  0
 13 14  1  0
 14 15  2  0
 15 16  1  0
 16 17  2  0
 17 18  1  0
 18 19  2  0
 18 20  1  0
 20 21  1  0
 21 22  1  0
  8 23  1  0
 23  5  1  0
 19 14  1  0
 22 17  1  0
  1 24  1  0
  1 25  1  0
  1 26  1  0
  3 27  1  0
  3 28  1  0
  3 29  1  0
  4 30  1  0
  4 31  1  0
  4 32  1  0
  9 33  1  0
 12 34  1  0
 12 35  1  0
 15 36  1  0
 16 37  1  0
 19 38  1  0
 21 39  1  0
 21 40  1  0
M  END
$$$$
