
     RDKit          3D

 57 59  0  0  0  0  0  0  0  0999 V2000
   10.9733    0.3245   -1.5176 C   0  0  0  0  0  0  0  0  0  0  0  0
    9.8868   -0.2946   -2.1943 O   0  0  0  0  0  0  0  0  0  0  0  0
    8.6288    0.0221   -1.7635 C   0  0  0  0  0  0  0  0  0  0  0  0
    8.3103    0.8932   -0.7220 C   0  0  0  0  0  0  0  0  0  0  0  0
    6.9710    1.1321   -0.3789 C   0  0  0  0  0  0  0  0  0  0  0  0
    5.9402    0.5028   -1.0750 C   0  0  0  0  0  0  0  0  0  0  0  0
    4.6008    0.6383   -0.8482 O   0  0  0  0  0  0  0  0  0  0  0  0
    4.1501    1.5425    0.1649 C   0  0  0  0  0  0  0  0  0  0  0  0
    4.1280    0.8897    1.5495 C   0  0  0  0  0  0  0  0  0  0  0  0
    2.9073   -0.4623    1.6810 S   0  0  0  0  0  0  0  0  0  0  0  0
    1.4296    0.4318    1.7403 C   0  0  0  0  0  0  0  0  0  0  0  0
    1.3084    1.7311    1.8774 N   0  0  0  0  0  0  0  0  0  0  0  0
   -0.0317    2.0279    1.8793 N   0  0  0  0  0  0  0  0  0  0  0  0
   -0.7024    0.9000    1.7491 C   0  0  0  0  0  0  0  0  0  0  0  0
   -2.1837    0.7746    1.7034 C   0  0  0  0  0  0  0  0  0  0  0  0
   -2.6928    0.8226    0.2623 C   0  0  0  0  0  0  0  0  0  0  0  0
   -4.1144    0.5462    0.1655 N   0  0  0  0  0  0  0  0  0  0  0  0
   -4.5942   -0.7420    0.2925 C   0  0  0  0  0  0  0  0  0  0  0  0
   -3.8644   -1.7083    0.4875 O   0  0  0  0  0  0  0  0  0  0  0  0
   -6.0714   -0.9110    0.2268 C   0  0  0  0  0  0  0  0  0  0  0  0
   -6.8880   -0.0415   -0.5065 C   0  0  0  0  0  0  0  0  0  0  0  0
   -8.2746   -0.2396   -0.5453 C   0  0  0  0  0  0  0  0  0  0  0  0
   -8.8520   -1.3090    0.1413 C   0  0  0  0  0  0  0  0  0  0  0  0
  -10.1844   -1.6118    0.1850 O   0  0  0  0  0  0  0  0  0  0  0  0
  -11.0634   -0.7663   -0.5464 C   0  0  0  0  0  0  0  0  0  0  0  0
   -8.0321   -2.1828    0.8599 C   0  0  0  0  0  0  0  0  0  0  0  0
   -6.6487   -1.9918    0.9001 C   0  0  0  0  0  0  0  0  0  0  0  0
    0.1913   -0.1417    1.6488 N   0  0  0  0  0  0  0  0  0  0  0  0
   -0.1029   -1.5410    1.4705 C   0  0  0  0  0  0  0  0  0  0  0  0
    6.2632   -0.3702   -2.1151 C   0  0  0  0  0  0  0  0  0  0  0  0
    7.5964   -0.6082   -2.4575 C   0  0  0  0  0  0  0  0  0  0  0  0
   11.9002   -0.0307   -1.9784 H   0  0  0  0  0  0  0  0  0  0  0  0
   10.9408    1.4132   -1.6315 H   0  0  0  0  0  0  0  0  0  0  0  0
   10.9956    0.0373   -0.4611 H   0  0  0  0  0  0  0  0  0  0  0  0
    9.0789    1.4051   -0.1524 H   0  0  0  0  0  0  0  0  0  0  0  0
    6.7780    1.8140    0.4416 H   0  0  0  0  0  0  0  0  0  0  0  0
    3.1436    1.8623   -0.1265 H   0  0  0  0  0  0  0  0  0  0  0  0
    4.7467    2.4619    0.1707 H   0  0  0  0  0  0  0  0  0  0  0  0
    3.9252    1.6396    2.3210 H   0  0  0  0  0  0  0  0  0  0  0  0
    5.1019    0.4455    1.7754 H   0  0  0  0  0  0  0  0  0  0  0  0
   -2.5053   -0.1402    2.2130 H   0  0  0  0  0  0  0  0  0  0  0  0
   -2.6332    1.5995    2.2705 H   0  0  0  0  0  0  0  0  0  0  0  0
   -2.5237    1.8133   -0.1746 H   0  0  0  0  0  0  0  0  0  0  0  0
   -2.1635    0.0922   -0.3616 H   0  0  0  0  0  0  0  0  0  0  0  0
   -4.7553    1.3274    0.2108 H   0  0  0  0  0  0  0  0  0  0  0  0
   -6.4629    0.7783   -1.0786 H   0  0  0  0  0  0  0  0  0  0  0  0
   -8.8730    0.4532   -1.1281 H   0  0  0  0  0  0  0  0  0  0  0  0
  -12.0813   -1.1441   -0.4101 H   0  0  0  0  0  0  0  0  0  0  0  0
  -11.0346    0.2589   -0.1630 H   0  0  0  0  0  0  0  0  0  0  0  0
  -10.8381   -0.7950   -1.6176 H   0  0  0  0  0  0  0  0  0  0  0  0
   -8.4742   -3.0235    1.3900 H   0  0  0  0  0  0  0  0  0  0  0  0
   -6.0264   -2.6874    1.4592 H   0  0  0  0  0  0  0  0  0  0  0  0
    0.4503   -1.9114    0.6034 H   0  0  0  0  0  0  0  0  0  0  0  0
    0.1949   -2.0754    2.3763 H   0  0  0  0  0  0  0  0  0  0  0  0
   -1.1684   -1.6903    1.2935 H   0  0  0  0  0  0  0  0  0  0  0  0
    5.4705   -0.8704   -2.6658 H   0  0  0  0  0  0  0  0  0  0  0  0
    7.8290   -1.2905   -3.2710 H   0  0  0  0  0  0  0  0  0  0  0  0
  1  2  1  0
  2  3  1  0
  3  4  2  0
  4  5  1  0
  5  6  2  0
  6  7  1  0
  7  8  1  0
  8  9  1  0
  9 10  1  0
 10 11  1  0
 11 12  2  0
 12 13  1  0
 13 14  2  0
 14 15  1  0
 15 16  1  0
 16 17  1  0
 17 18  1  0
 18 19  2  0
 18 20  1  0
 20 21  2  0
 21 22  1  0
 22 23  2  0
 23 24  1  0
 24 25  1  0
 23 26  1  0
 26 27  2  0
 14 28  1  0
 28 29  1  0
  6 30  1  0
 30 31  2  0
 31  3  1  0
 28 11  1  0
 27 20  1  0
  1 32  1  0
  1 33  1  0
  1 34  1  0
  4 35  1  0
  5 36  1  0
  8 37  1  0
  8 38  1  0
  9 39  1  0
  9 40  1  0
 15 41  1  0
 15 42  1  0
 16 43  1  0
 16 44  1  0
 17 45  1  0
 21 46  1  0
 22 47  1  0
 25 48  1  0
 25 49  1  0
 25 50  1  0
 26 51  1  0
 27 52  1  0
 29 53  1  0
 29 54  1  0
 29 55  1  0
 30 56  1  0
 31 57  1  0
M  END
$$$$
