
     RDKit          3D

 60 63  0  0  0  0  0  0  0  0999 V2000
    9.0119    0.0072   -2.0258 C   0  0  0  0  0  0  0  0  0  0  0  0
    8.2312   -1.2360   -1.6267 C   0  0  0  0  0  0  0  0  0  0  0  0
    7.9377   -1.2243   -0.2276 O   0  0  0  0  0  0  0  0  0  0  0  0
    6.7619   -0.6769    0.1996 C   0  0  0  0  0  0  0  0  0  0  0  0
    5.8620    0.0618   -0.5679 C   0  0  0  0  0  0  0  0  0  0  0  0
    4.6895    0.5685    0.0112 C   0  0  0  0  0  0  0  0  0  0  0  0
    4.4042    0.3405    1.3631 C   0  0  0  0  0  0  0  0  0  0  0  0
    3.1258    0.8415    1.9851 C   0  0  0  0  0  0  0  0  0  0  0  0
    2.0288   -0.0575    1.7246 N   0  0  0  0  0  0  0  0  0  0  0  0
    1.7963   -1.1731    2.4931 C   0  0  0  0  0  0  0  0  0  0  0  0
    2.4465   -1.4373    3.5034 O   0  0  0  0  0  0  0  0  0  0  0  0
    0.7883   -2.1529    1.8951 C   0  0  0  0  0  0  0  0  0  0  0  0
   -0.2420   -1.4755    1.1125 N   0  0  0  0  0  0  0  0  0  0  0  0
    0.0699   -1.1920   -0.2280 N   0  0  0  0  0  0  0  0  0  0  0  0
   -0.8030   -0.6180   -1.0109 C   0  0  0  0  0  0  0  0  0  0  0  0
   -0.4206   -0.3673   -2.4422 C   0  0  0  0  0  0  0  0  0  0  0  0
   -2.0909   -0.2395   -0.4814 C   0  0  0  0  0  0  0  0  0  0  0  0
   -3.1967    0.4140   -1.0019 C   0  0  0  0  0  0  0  0  0  0  0  0
   -3.3774    1.0888   -2.3133 C   0  0  0  0  0  0  0  0  0  0  0  0
   -4.1635    0.3712    0.0124 N   0  0  0  0  0  0  0  0  0  0  0  0
   -5.5597    0.6768   -0.0113 C   0  0  0  0  0  0  0  0  0  0  0  0
   -6.2353    0.8489    1.2085 C   0  0  0  0  0  0  0  0  0  0  0  0
   -7.6029    1.1352    1.2355 C   0  0  0  0  0  0  0  0  0  0  0  0
   -8.3243    1.2469    0.0448 C   0  0  0  0  0  0  0  0  0  0  0  0
   -9.8002    1.5122    0.0757 C   0  0  0  0  0  0  0  0  0  0  0  0
   -7.6630    1.0375   -1.1696 C   0  0  0  0  0  0  0  0  0  0  0  0
   -6.2922    0.7520   -1.2004 C   0  0  0  0  0  0  0  0  0  0  0  0
   -3.6152   -0.0529    1.1824 N   0  0  0  0  0  0  0  0  0  0  0  0
   -2.3974   -0.4890    0.8595 C   0  0  0  0  0  0  0  0  0  0  0  0
   -1.4463   -1.1297    1.7574 C   0  0  0  0  0  0  0  0  0  0  0  0
   -1.6696   -1.3508    2.9441 O   0  0  0  0  0  0  0  0  0  0  0  0
    5.3119   -0.4049    2.1258 C   0  0  0  0  0  0  0  0  0  0  0  0
    6.4828   -0.8974    1.5503 C   0  0  0  0  0  0  0  0  0  0  0  0
    9.8979    0.1275   -1.3899 H   0  0  0  0  0  0  0  0  0  0  0  0
    9.3344   -0.0539   -3.0705 H   0  0  0  0  0  0  0  0  0  0  0  0
    8.4105    0.9100   -1.9011 H   0  0  0  0  0  0  0  0  0  0  0  0
    8.8678   -2.1106   -1.8003 H   0  0  0  0  0  0  0  0  0  0  0  0
    7.3356   -1.3882   -2.2461 H   0  0  0  0  0  0  0  0  0  0  0  0
    6.0414    0.2666   -1.6172 H   0  0  0  0  0  0  0  0  0  0  0  0
    3.9999    1.1413   -0.6055 H   0  0  0  0  0  0  0  0  0  0  0  0
    2.8646    1.8183    1.5637 H   0  0  0  0  0  0  0  0  0  0  0  0
    3.2433    0.9734    3.0653 H   0  0  0  0  0  0  0  0  0  0  0  0
    1.6273   -0.0757    0.7916 H   0  0  0  0  0  0  0  0  0  0  0  0
    1.3233   -2.8500    1.2427 H   0  0  0  0  0  0  0  0  0  0  0  0
    0.3278   -2.7172    2.7114 H   0  0  0  0  0  0  0  0  0  0  0  0
    0.4996   -0.9095   -2.6891 H   0  0  0  0  0  0  0  0  0  0  0  0
   -0.2454    0.7020   -2.5918 H   0  0  0  0  0  0  0  0  0  0  0  0
   -1.2148   -0.7102   -3.1105 H   0  0  0  0  0  0  0  0  0  0  0  0
   -3.7616    0.3880   -3.0600 H   0  0  0  0  0  0  0  0  0  0  0  0
   -2.4271    1.4843   -2.6829 H   0  0  0  0  0  0  0  0  0  0  0  0
   -4.0459    1.9522   -2.2418 H   0  0  0  0  0  0  0  0  0  0  0  0
   -5.7045    0.7725    2.1579 H   0  0  0  0  0  0  0  0  0  0  0  0
   -8.0971    1.2662    2.1961 H   0  0  0  0  0  0  0  0  0  0  0  0
  -10.3469    0.5720    0.2009 H   0  0  0  0  0  0  0  0  0  0  0  0
  -10.1335    1.9926   -0.8519 H   0  0  0  0  0  0  0  0  0  0  0  0
  -10.0554    2.1874    0.9005 H   0  0  0  0  0  0  0  0  0  0  0  0
   -8.2183    1.0755   -2.1062 H   0  0  0  0  0  0  0  0  0  0  0  0
   -5.8540    0.5470   -2.1689 H   0  0  0  0  0  0  0  0  0  0  0  0
    5.1044   -0.6189    3.1729 H   0  0  0  0  0  0  0  0  0  0  0  0
    7.1781   -1.4709    2.1594 H   0  0  0  0  0  0  0  0  0  0  0  0
  1  2  1  0
  2  3  1  0
  3  4  1  0
  4  5  2  0
  5  6  1  0
  6  7  2  0
  7  8  1  0
  8  9  1  0
  9 10  1  0
 10 11  2  0
 10 12  1  0
 12 13  1  0
 13 14  1  0
 14 15  2  0
 15 16  1  0
 15 17  1  0
 17 18  2  0
 18 19  1  0
 18 20  1  0
 20 21  1  0
 21 22  2  0
 22 23  1  0
 23 24  2  0
 24 25  1  0
 24 26  1  0
 26 27  2  0
 20 28  1  0
 28 29  2  0
 29 30  1  0
 30 31  2  0
  7 32  1  0
 32 33  2  0
 33  4  1  0
 30 13  1  0
 29 17  1  0
 27 21  1  0
  1 34  1  0
  1 35  1  0
  1 36  1  0
  2 37  1  0
  2 38  1  0
  5 39  1  0
  6 40  1  0
  8 41  1  0
  8 42  1  0
  9 43  1  0
 12 44  1  0
 12 45  1  0
 16 46  1  0
 16 47  1  0
 16 48  1  0
 19 49  1  0
 19 50  1  0
 19 51  1  0
 22 52  1  0
 23 53  1  0
 25 54  1  0
 25 55  1  0
 25 56  1  0
 26 57  1  0
 27 58  1  0
 32 59  1  0
 33 60  1  0
M  END
$$$$
