
     RDKit          3D

 44 46  0  0  0  0  0  0  0  0999 V2000
   -3.0460   -3.1332   -0.7574 C   0  0  0  0  0  0  0  0  0  0  0  0
   -2.6736   -1.7727   -0.2466 C   0  0  0  0  0  0  0  0  0  0  0  0
   -2.9584   -1.4061    1.0680 C   0  0  0  0  0  0  0  0  0  0  0  0
   -2.5870   -0.1479    1.5789 C   0  0  0  0  0  0  0  0  0  0  0  0
   -2.9972    0.1492    2.9980 C   0  0  0  0  0  0  0  0  0  0  0  0
   -1.9004    0.7661    0.7343 C   0  0  0  0  0  0  0  0  0  0  0  0
   -1.4192    2.3807    1.3946 S   0  0  0  0  0  6  0  0  0  0  0  0
   -0.9022    3.2244    0.3400 O   0  0  0  0  0  0  0  0  0  0  0  0
   -2.5000    2.8627    2.2298 O   0  0  0  0  0  0  0  0  0  0  0  0
   -0.1425    2.0108    2.4427 N   0  0  0  0  0  0  0  0  0  0  0  0
    0.9511    1.2366    1.9695 C   0  0  0  0  0  0  0  0  0  0  0  0
    1.1423   -0.0451    2.4832 C   0  0  0  0  0  0  0  0  0  0  0  0
    2.1821   -0.8362    1.9981 C   0  0  0  0  0  0  0  0  0  0  0  0
    3.0194   -0.3481    0.9962 C   0  0  0  0  0  0  0  0  0  0  0  0
    3.9959   -1.2048    0.5679 O   0  0  0  0  0  0  0  0  0  0  0  0
    2.8480    0.9438    0.4791 C   0  0  0  0  0  0  0  0  0  0  0  0
    3.9222    1.6778   -0.7445 S   0  0  0  0  0  0  0  0  0  0  0  0
    3.6267    0.6714   -2.1312 C   0  0  0  0  0  0  0  0  0  0  0  0
    3.9201   -0.6691   -2.1353 N   0  0  0  0  0  0  0  0  0  0  0  0
    3.5791   -1.0374   -3.3487 C   0  0  0  0  0  0  0  0  0  0  0  0
    3.1132    0.0386   -4.0369 N   0  0  0  0  0  0  0  0  0  0  0  0
    3.1362    1.1450   -3.2787 N   0  0  0  0  0  0  0  0  0  0  0  0
    1.8066    1.7343    0.9857 C   0  0  0  0  0  0  0  0  0  0  0  0
   -1.6108    0.4059   -0.6061 C   0  0  0  0  0  0  0  0  0  0  0  0
   -0.9281    1.2996   -1.6077 C   0  0  0  0  0  0  0  0  0  0  0  0
   -1.9958   -0.8694   -1.0657 C   0  0  0  0  0  0  0  0  0  0  0  0
   -3.2613   -3.1023   -1.8307 H   0  0  0  0  0  0  0  0  0  0  0  0
   -3.9461   -3.5064   -0.2575 H   0  0  0  0  0  0  0  0  0  0  0  0
   -2.2262   -3.8362   -0.5807 H   0  0  0  0  0  0  0  0  0  0  0  0
   -3.4879   -2.1129    1.7063 H   0  0  0  0  0  0  0  0  0  0  0  0
   -2.1651    0.5416    3.5853 H   0  0  0  0  0  0  0  0  0  0  0  0
   -3.3257   -0.7594    3.5157 H   0  0  0  0  0  0  0  0  0  0  0  0
   -3.8378    0.8490    3.0126 H   0  0  0  0  0  0  0  0  0  0  0  0
   -0.4511    1.8771    3.4026 H   0  0  0  0  0  0  0  0  0  0  0  0
    0.4851   -0.4460    3.2491 H   0  0  0  0  0  0  0  0  0  0  0  0
    2.3352   -1.8389    2.3883 H   0  0  0  0  0  0  0  0  0  0  0  0
    4.2407   -0.9507   -0.3470 H   0  0  0  0  0  0  0  0  0  0  0  0
    3.6480   -2.0299   -3.7712 H   0  0  0  0  0  0  0  0  0  0  0  0
    2.7776    0.0956   -4.9923 H   0  0  0  0  0  0  0  0  0  0  0  0
    1.6608    2.7461    0.6114 H   0  0  0  0  0  0  0  0  0  0  0  0
   -0.7839    0.7907   -2.5680 H   0  0  0  0  0  0  0  0  0  0  0  0
    0.0681    1.5868   -1.2662 H   0  0  0  0  0  0  0  0  0  0  0  0
   -1.5418    2.1811   -1.8147 H   0  0  0  0  0  0  0  0  0  0  0  0
   -1.7702   -1.1621   -2.0909 H   0  0  0  0  0  0  0  0  0  0  0  0
  1  2  1  0
  2  3  2  0
  3  4  1  0
  4  5  1  0
  4  6  2  0
  6  7  1  0
  7  8  2  0
  7  9  2  0
  7 10  1  0
 10 11  1  0
 11 12  2  0
 12 13  1  0
 13 14  2  0
 14 15  1  0
 14 16  1  0
 16 17  1  0
 17 18  1  0
 18 19  1  0
 19 20  2  0
 20 21  1  0
 21 22  1  0
 16 23  2  0
  6 24  1  0
 24 25  1  0
 24 26  2  0
 26  2  1  0
 23 11  1  0
 22 18  2  0
  1 27  1  0
  1 28  1  0
  1 29  1  0
  3 30  1  0
  5 31  1  0
  5 32  1  0
  5 33  1  0
 10 34  1  0
 12 35  1  0
 13 36  1  0
 15 37  1  0
 20 38  1  0
 21 39  1  0
 23 40  1  0
 25 41  1  0
 25 42  1  0
 25 43  1  0
 26 44  1  0
M  END
$$$$
