
     RDKit          3D

 50 53  0  0  0  0  0  0  0  0999 V2000
   -4.5610   -0.5675    5.4794 C   0  0  0  0  0  0  0  0  0  0  0  0
   -3.7679   -0.6114    4.2075 C   0  0  0  0  0  0  0  0  0  0  0  0
   -4.1050    0.2034    3.1251 C   0  0  0  0  0  0  0  0  0  0  0  0
   -3.3928    0.1326    1.9207 C   0  0  0  0  0  0  0  0  0  0  0  0
   -2.3460   -0.7796    1.7770 C   0  0  0  0  0  0  0  0  0  0  0  0
   -1.5987   -0.8923    0.5670 N   0  0  0  0  0  0  0  0  0  0  0  0
   -0.3547   -1.4400    0.6159 N   0  0  0  0  0  0  0  0  0  0  0  0
    0.1665   -1.2280   -0.5932 C   0  0  0  0  0  0  0  0  0  0  0  0
    1.5171   -1.5676   -1.0250 C   0  0  0  0  0  0  0  0  0  0  0  0
    2.3732   -2.0533   -0.2874 O   0  0  0  0  0  0  0  0  0  0  0  0
    1.7451   -1.2602   -2.3823 N   0  0  0  0  0  0  0  0  0  0  0  0
    3.0652   -1.5397   -2.9441 C   0  0  0  0  0  0  0  0  0  0  0  0
    4.0498   -0.3903   -2.7195 C   0  0  0  0  0  0  0  0  0  0  0  0
    5.2632   -0.5420   -2.8496 O   0  0  0  0  0  0  0  0  0  0  0  0
    3.4711    0.8315   -2.4657 N   0  0  0  0  0  0  0  0  0  0  0  0
    4.2323    2.0205   -2.1781 C   0  0  0  0  0  0  0  0  0  0  0  0
    4.0100    2.4395   -0.7563 C   0  0  0  0  0  0  0  0  0  0  0  0
    3.6205    1.6935    0.3466 C   0  0  0  0  0  0  0  0  0  0  0  0
    3.5446    2.4836    1.5357 C   0  0  0  0  0  0  0  0  0  0  0  0
    3.8878    3.7916    1.3090 C   0  0  0  0  0  0  0  0  0  0  0  0
    4.2919    4.0822   -0.3253 S   0  0  0  0  0  0  0  0  0  0  0  0
    0.8182   -0.6478   -3.2385 N   0  0  0  0  0  0  0  0  0  0  0  0
   -0.3862   -0.3543   -2.8284 C   0  0  0  0  0  0  0  0  0  0  0  0
   -1.3374    0.2877   -3.8009 C   0  0  0  0  0  0  0  0  0  0  0  0
   -0.7581   -0.6451   -1.4664 C   0  0  0  0  0  0  0  0  0  0  0  0
   -1.9306   -0.5192   -0.7406 C   0  0  0  0  0  0  0  0  0  0  0  0
   -3.2984   -0.1601   -1.1963 C   0  0  0  0  0  0  0  0  0  0  0  0
   -1.9958   -1.5844    2.8713 C   0  0  0  0  0  0  0  0  0  0  0  0
   -2.7128   -1.5124    4.0703 C   0  0  0  0  0  0  0  0  0  0  0  0
   -3.9278   -0.7857    6.3434 H   0  0  0  0  0  0  0  0  0  0  0  0
   -4.9950    0.4205    5.6357 H   0  0  0  0  0  0  0  0  0  0  0  0
   -5.3668   -1.3041    5.4397 H   0  0  0  0  0  0  0  0  0  0  0  0
   -4.9163    0.9164    3.2166 H   0  0  0  0  0  0  0  0  0  0  0  0
   -3.6533    0.8376    1.1392 H   0  0  0  0  0  0  0  0  0  0  0  0
    3.4768   -2.4406   -2.4721 H   0  0  0  0  0  0  0  0  0  0  0  0
    2.9674   -1.7159   -4.0210 H   0  0  0  0  0  0  0  0  0  0  0  0
    2.4597    0.8847   -2.4766 H   0  0  0  0  0  0  0  0  0  0  0  0
    3.8669    2.7915   -2.8656 H   0  0  0  0  0  0  0  0  0  0  0  0
    5.2988    1.8594   -2.3704 H   0  0  0  0  0  0  0  0  0  0  0  0
    3.4088    0.6273    0.3125 H   0  0  0  0  0  0  0  0  0  0  0  0
    3.2633    2.1027    2.5111 H   0  0  0  0  0  0  0  0  0  0  0  0
    3.9270    4.5949    2.0277 H   0  0  0  0  0  0  0  0  0  0  0  0
   -0.8045    0.6041   -4.6995 H   0  0  0  0  0  0  0  0  0  0  0  0
   -2.1013   -0.4345   -4.0940 H   0  0  0  0  0  0  0  0  0  0  0  0
   -1.8101    1.1639   -3.3519 H   0  0  0  0  0  0  0  0  0  0  0  0
   -3.4430    0.9248   -1.1805 H   0  0  0  0  0  0  0  0  0  0  0  0
   -3.4679   -0.5080   -2.2202 H   0  0  0  0  0  0  0  0  0  0  0  0
   -4.0721   -0.6415   -0.5945 H   0  0  0  0  0  0  0  0  0  0  0  0
   -1.1783   -2.2953    2.7997 H   0  0  0  0  0  0  0  0  0  0  0  0
   -2.4435   -2.1728    4.8925 H   0  0  0  0  0  0  0  0  0  0  0  0
  1  2  1  0
  2  3  2  0
  3  4  1  0
  4  5  2  0
  5  6  1  0
  6  7  1  0
  7  8  2  0
  8  9  1  0
  9 10  2  0
  9 11  1  0
 11 12  1  0
 12 13  1  0
 13 14  2  0
 13 15  1  0
 15 16  1  0
 16 17  1  0
 17 18  2  0
 18 19  1  0
 19 20  2  0
 20 21  1  0
 11 22  1  0
 22 23  2  0
 23 24  1  0
 23 25  1  0
 25 26  2  0
 26 27  1  0
  5 28  1  0
 28 29  2  0
 29  2  1  0
 26  6  1  0
 25  8  1  0
 21 17  1  0
  1 30  1  0
  1 31  1  0
  1 32  1  0
  3 33  1  0
  4 34  1  0
 12 35  1  0
 12 36  1  0
 15 37  1  0
 16 38  1  0
 16 39  1  0
 18 40  1  0
 19 41  1  0
 20 42  1  0
 24 43  1  0
 24 44  1  0
 24 45  1  0
 27 46  1  0
 27 47  1  0
 27 48  1  0
 28 49  1  0
 29 50  1  0
M  END
$$$$
