
     RDKit          3D

 61 65  0  0  0  0  0  0  0  0999 V2000
    7.3970    1.4994    2.9490 C   0  0  0  0  0  0  0  0  0  0  0  0
    6.1252    1.9391    2.4921 O   0  0  0  0  0  0  0  0  0  0  0  0
    5.7707    1.5865    1.2194 C   0  0  0  0  0  0  0  0  0  0  0  0
    4.4808    1.9691    0.8446 C   0  0  0  0  0  0  0  0  0  0  0  0
    3.9878    1.6703   -0.4277 C   0  0  0  0  0  0  0  0  0  0  0  0
    4.7874    0.9873   -1.3530 C   0  0  0  0  0  0  0  0  0  0  0  0
    4.2554    0.6423   -2.7221 C   0  0  0  0  0  0  0  0  0  0  0  0
    3.8420   -0.7439   -2.7913 N   0  0  0  0  0  0  0  0  0  0  0  0
    4.6697   -1.6963   -3.2918 N   0  0  0  0  0  0  0  0  0  0  0  0
    4.0393   -2.8676   -3.2050 N   0  0  0  0  0  0  0  0  0  0  0  0
    2.8126   -2.6269   -2.6675 C   0  0  0  0  0  0  0  0  0  0  0  0
    1.7356   -3.5193   -2.3398 C   0  0  0  0  0  0  0  0  0  0  0  0
    1.7249   -4.7322   -2.5155 O   0  0  0  0  0  0  0  0  0  0  0  0
    0.6528   -2.8488   -1.7834 N   0  0  0  0  0  0  0  0  0  0  0  0
    0.5941   -1.4685   -1.5986 C   0  0  0  0  0  0  0  0  0  0  0  0
   -0.6973   -0.9723   -0.9641 C   0  0  0  0  0  0  0  0  0  0  0  0
   -0.9268    0.5247   -1.2010 C   0  0  0  0  0  0  0  0  0  0  0  0
   -2.1924    1.0038   -0.4970 C   0  0  0  0  0  0  0  0  0  0  0  0
   -2.0863    0.6973    0.9479 N   0  0  0  0  0  0  0  0  0  0  0  0
   -3.1175    1.5732    1.9902 S   0  0  0  0  0  6  0  0  0  0  0  0
   -3.0839    2.9650    1.5922 O   0  0  0  0  0  0  0  0  0  0  0  0
   -2.8231    1.1772    3.3514 O   0  0  0  0  0  0  0  0  0  0  0  0
   -4.7322    0.9393    1.5862 C   0  0  0  0  0  0  0  0  0  0  0  0
   -5.4957    1.5694    0.6004 C   0  0  0  0  0  0  0  0  0  0  0  0
   -6.7691    1.0829    0.3003 C   0  0  0  0  0  0  0  0  0  0  0  0
   -7.2930   -0.0142    0.9978 C   0  0  0  0  0  0  0  0  0  0  0  0
   -8.6533   -0.5520    0.6599 C   0  0  0  0  0  0  0  0  0  0  0  0
   -6.5199   -0.6303    1.9915 C   0  0  0  0  0  0  0  0  0  0  0  0
   -5.2462   -0.1480    2.2972 C   0  0  0  0  0  0  0  0  0  0  0  0
   -1.9386   -0.7483    1.2273 C   0  0  0  0  0  0  0  0  0  0  0  0
   -0.6784   -1.2702    0.5412 C   0  0  0  0  0  0  0  0  0  0  0  0
    1.5652   -0.6522   -1.9012 N   0  0  0  0  0  0  0  0  0  0  0  0
    2.6457   -1.2863   -2.4192 C   0  0  0  0  0  0  0  0  0  0  0  0
    6.0814    0.6040   -0.9726 C   0  0  0  0  0  0  0  0  0  0  0  0
    6.5699    0.9020    0.3047 C   0  0  0  0  0  0  0  0  0  0  0  0
    7.4585    0.4058    2.9514 H   0  0  0  0  0  0  0  0  0  0  0  0
    8.2042    1.9407    2.3562 H   0  0  0  0  0  0  0  0  0  0  0  0
    7.5178    1.8416    3.9812 H   0  0  0  0  0  0  0  0  0  0  0  0
    3.8493    2.5000    1.5545 H   0  0  0  0  0  0  0  0  0  0  0  0
    2.9720    1.9679   -0.6830 H   0  0  0  0  0  0  0  0  0  0  0  0
    5.0202    0.8143   -3.4890 H   0  0  0  0  0  0  0  0  0  0  0  0
    3.3921    1.2658   -2.9843 H   0  0  0  0  0  0  0  0  0  0  0  0
   -0.1261   -3.4428   -1.5401 H   0  0  0  0  0  0  0  0  0  0  0  0
   -1.5256   -1.5311   -1.4203 H   0  0  0  0  0  0  0  0  0  0  0  0
   -1.0037    0.7272   -2.2759 H   0  0  0  0  0  0  0  0  0  0  0  0
   -0.0708    1.1034   -0.8308 H   0  0  0  0  0  0  0  0  0  0  0  0
   -2.2905    2.0815   -0.6600 H   0  0  0  0  0  0  0  0  0  0  0  0
   -3.0722    0.5093   -0.9243 H   0  0  0  0  0  0  0  0  0  0  0  0
   -5.1121    2.4375    0.0694 H   0  0  0  0  0  0  0  0  0  0  0  0
   -7.3577    1.5740   -0.4723 H   0  0  0  0  0  0  0  0  0  0  0  0
   -8.5615   -1.3827   -0.0456 H   0  0  0  0  0  0  0  0  0  0  0  0
   -9.1655   -0.9042    1.5610 H   0  0  0  0  0  0  0  0  0  0  0  0
   -9.2828    0.2225    0.2113 H   0  0  0  0  0  0  0  0  0  0  0  0
   -6.9140   -1.4822    2.5427 H   0  0  0  0  0  0  0  0  0  0  0  0
   -4.6688   -0.6183    3.0897 H   0  0  0  0  0  0  0  0  0  0  0  0
   -2.8159   -1.2944    0.8633 H   0  0  0  0  0  0  0  0  0  0  0  0
   -1.8435   -0.9278    2.3027 H   0  0  0  0  0  0  0  0  0  0  0  0
    0.2060   -0.8050    0.9966 H   0  0  0  0  0  0  0  0  0  0  0  0
   -0.5886   -2.3480    0.7189 H   0  0  0  0  0  0  0  0  0  0  0  0
    6.7186    0.0575   -1.6672 H   0  0  0  0  0  0  0  0  0  0  0  0
    7.5769    0.5819    0.5514 H   0  0  0  0  0  0  0  0  0  0  0  0
  1  2  1  0
  2  3  1  0
  3  4  2  0
  4  5  1  0
  5  6  2  0
  6  7  1  0
  7  8  1  0
  8  9  1  0
  9 10  2  0
 10 11  1  0
 11 12  1  0
 12 13  2  0
 12 14  1  0
 14 15  1  0
 15 16  1  0
 16 17  1  0
 17 18  1  0
 18 19  1  0
 19 20  1  0
 20 21  2  0
 20 22  2  0
 20 23  1  0
 23 24  2  0
 24 25  1  0
 25 26  2  0
 26 27  1  0
 26 28  1  0
 28 29  2  0
 19 30  1  0
 30 31  1  0
 15 32  2  0
 32 33  1  0
  6 34  1  0
 34 35  2  0
 35  3  1  0
 33  8  1  0
 33 11  2  0
 31 16  1  0
 29 23  1  0
  1 36  1  0
  1 37  1  0
  1 38  1  0
  4 39  1  0
  5 40  1  0
  7 41  1  0
  7 42  1  0
 14 43  1  0
 16 44  1  0
 17 45  1  0
 17 46  1  0
 18 47  1  0
 18 48  1  0
 24 49  1  0
 25 50  1  0
 27 51  1  0
 27 52  1  0
 27 53  1  0
 28 54  1  0
 29 55  1  0
 30 56  1  0
 30 57  1  0
 31 58  1  0
 31 59  1  0
 34 60  1  0
 35 61  1  0
M  END
$$$$
