
     RDKit          3D

 46 49  0  0  0  0  0  0  0  0999 V2000
   -3.6705   -3.6547    0.4235 C   0  0  0  0  0  0  0  0  0  0  0  0
   -3.7779   -3.0658   -0.8659 O   0  0  0  0  0  0  0  0  0  0  0  0
   -3.2201   -1.8275   -1.0311 C   0  0  0  0  0  0  0  0  0  0  0  0
   -3.3905   -1.2785   -2.3042 C   0  0  0  0  0  0  0  0  0  0  0  0
   -2.8705   -0.0218   -2.6130 C   0  0  0  0  0  0  0  0  0  0  0  0
   -2.1759    0.6996   -1.6438 C   0  0  0  0  0  0  0  0  0  0  0  0
   -2.0028    0.1652   -0.3623 C   0  0  0  0  0  0  0  0  0  0  0  0
   -1.2680    0.9168    0.6490 C   0  0  0  0  0  0  0  0  0  0  0  0
    0.1008    1.0717    0.8250 C   0  0  0  0  0  0  0  0  0  0  0  0
    1.1941    0.5280    0.0239 C   0  0  0  0  0  0  0  0  0  0  0  0
    1.0155   -0.1186   -1.0038 O   0  0  0  0  0  0  0  0  0  0  0  0
    2.4511    0.8341    0.5548 N   0  0  0  0  0  0  0  0  0  0  0  0
    3.5826    0.7570   -0.2185 N   0  0  0  0  0  0  0  0  0  0  0  0
    3.9863   -0.4051   -0.6604 C   0  0  0  0  0  0  0  0  0  0  0  0
    3.3918   -1.7377   -0.2396 C   0  0  0  0  0  0  0  0  0  0  0  0
    5.1094   -0.3892   -1.5985 C   0  0  0  0  0  0  0  0  0  0  0  0
    5.8421    0.7136   -2.0163 C   0  0  0  0  0  0  0  0  0  0  0  0
    6.8682    0.3786   -2.9491 C   0  0  0  0  0  0  0  0  0  0  0  0
    6.8713   -0.9653   -3.2086 C   0  0  0  0  0  0  0  0  0  0  0  0
    7.9326   -1.8022   -4.2672 Cl  0  0  0  0  0  0  0  0  0  0  0  0
    5.6809   -1.8170   -2.3658 S   0  0  0  0  0  0  0  0  0  0  0  0
    0.3320    1.8537    1.9262 N   0  0  0  0  0  0  0  0  0  0  0  0
   -0.8326    2.1978    2.4433 N   0  0  0  0  0  0  0  0  0  0  0  0
   -1.8373    1.6587    1.6887 N   0  0  0  0  0  0  0  0  0  0  0  0
   -3.2007    1.8987    1.9972 C   0  0  0  0  0  0  0  0  0  0  0  0
   -4.1800    1.4270    1.2257 N   0  0  0  0  0  0  0  0  0  0  0  0
   -5.3462    1.8808    1.8377 O   0  0  0  0  0  0  0  0  0  0  0  0
   -5.0605    2.6267    2.9764 N   0  0  0  0  0  0  0  0  0  0  0  0
   -3.7320    2.6311    3.0758 C   0  0  0  0  0  0  0  0  0  0  0  0
   -3.0482    3.2429    4.0617 N   0  0  0  0  0  0  0  0  0  0  0  0
   -2.5201   -1.1052   -0.0622 C   0  0  0  0  0  0  0  0  0  0  0  0
   -4.1806   -4.6223    0.3928 H   0  0  0  0  0  0  0  0  0  0  0  0
   -2.6236   -3.8387    0.6867 H   0  0  0  0  0  0  0  0  0  0  0  0
   -4.1674   -3.0403    1.1817 H   0  0  0  0  0  0  0  0  0  0  0  0
   -3.9310   -1.8386   -3.0635 H   0  0  0  0  0  0  0  0  0  0  0  0
   -3.0033    0.3903   -3.6096 H   0  0  0  0  0  0  0  0  0  0  0  0
   -1.7676    1.6738   -1.9011 H   0  0  0  0  0  0  0  0  0  0  0  0
    2.4477    1.6234    1.1995 H   0  0  0  0  0  0  0  0  0  0  0  0
    2.7436   -1.6453    0.6341 H   0  0  0  0  0  0  0  0  0  0  0  0
    2.8167   -2.1619   -1.0677 H   0  0  0  0  0  0  0  0  0  0  0  0
    4.1885   -2.4349    0.0371 H   0  0  0  0  0  0  0  0  0  0  0  0
    5.6445    1.7201   -1.6641 H   0  0  0  0  0  0  0  0  0  0  0  0
    7.5533    1.0866   -3.3980 H   0  0  0  0  0  0  0  0  0  0  0  0
   -3.5350    3.9065    4.6558 H   0  0  0  0  0  0  0  0  0  0  0  0
   -2.0442    3.3986    3.9908 H   0  0  0  0  0  0  0  0  0  0  0  0
   -2.3665   -1.5108    0.9319 H   0  0  0  0  0  0  0  0  0  0  0  0
  1  2  1  0
  2  3  1  0
  3  4  2  0
  4  5  1  0
  5  6  2  0
  6  7  1  0
  7  8  1  0
  8  9  2  0
  9 10  1  0
 10 11  2  0
 10 12  1  0
 12 13  1  0
 13 14  2  3
 14 15  1  0
 14 16  1  0
 16 17  2  0
 17 18  1  0
 18 19  2  0
 19 20  1  0
 19 21  1  0
  9 22  1  0
 22 23  2  0
 23 24  1  0
 24 25  1  0
 25 26  2  0
 26 27  1  0
 27 28  1  0
 28 29  2  0
 29 30  1  0
  7 31  2  0
 31  3  1  0
 24  8  1  0
 29 25  1  0
 21 16  1  0
  1 32  1  0
  1 33  1  0
  1 34  1  0
  4 35  1  0
  5 36  1  0
  6 37  1  0
 12 38  1  0
 15 39  1  0
 15 40  1  0
 15 41  1  0
 17 42  1  0
 18 43  1  0
 30 44  1  0
 30 45  1  0
 31 46  1  0
M  END
$$$$
