
     RDKit          3D

 45 48  0  0  0  0  0  0  0  0999 V2000
    4.7301    0.7504   -1.3702 C   0  0  0  0  0  0  0  0  0  0  0  0
    3.8249    0.5795   -0.1634 C   0  0  0  0  0  0  0  0  0  0  0  0
    3.5308   -0.8206   -0.0251 O   0  0  0  0  0  0  0  0  0  0  0  0
    2.8302   -1.0458    1.1363 C   0  0  0  0  0  0  0  0  0  0  0  0
    3.5967   -1.3817    2.2621 C   0  0  0  0  0  0  0  0  0  0  0  0
    2.9786   -1.6273    3.4842 C   0  0  0  0  0  0  0  0  0  0  0  0
    1.5947   -1.5508    3.5802 C   0  0  0  0  0  0  0  0  0  0  0  0
    0.8310   -1.2421    2.4483 C   0  0  0  0  0  0  0  0  0  0  0  0
    1.4230   -0.9938    1.1900 C   0  0  0  0  0  0  0  0  0  0  0  0
    0.5690   -0.7052    0.0210 C   0  0  0  0  0  0  0  0  0  0  0  0
    1.0361   -1.0093   -1.2037 N   0  0  0  0  0  0  0  0  0  0  0  0
    0.2291   -0.7433   -2.2565 C   0  0  0  0  0  0  0  0  0  0  0  0
    0.7574   -1.0820   -3.6067 C   0  0  0  0  0  0  0  0  0  0  0  0
    2.0317   -1.5815   -3.6292 N   0  0  0  0  0  0  0  0  0  0  0  0
    0.0990   -0.9238   -4.6261 O   0  0  0  0  0  0  0  0  0  0  0  0
   -1.0029   -0.1945   -2.0933 C   0  0  0  0  0  0  0  0  0  0  0  0
   -1.9955    0.1640   -2.9889 N   0  0  0  0  0  0  0  0  0  0  0  0
   -3.0802    0.6870   -2.2688 C   0  0  0  0  0  0  0  0  0  0  0  0
   -4.1065    1.0768   -2.8039 O   0  0  0  0  0  0  0  0  0  0  0  0
   -2.7129    0.6403   -0.8866 N   0  0  0  0  0  0  0  0  0  0  0  0
   -3.5101    1.0397    0.2248 C   0  0  0  0  0  0  0  0  0  0  0  0
   -3.0835    0.9200    1.5587 C   0  0  0  0  0  0  0  0  0  0  0  0
   -3.8985    1.2995    2.6367 C   0  0  0  0  0  0  0  0  0  0  0  0
   -5.1674    1.8129    2.4077 C   0  0  0  0  0  0  0  0  0  0  0  0
   -5.6147    1.9542    1.0998 C   0  0  0  0  0  0  0  0  0  0  0  0
   -4.7953    1.5748    0.0266 C   0  0  0  0  0  0  0  0  0  0  0  0
   -1.4072    0.0816   -0.8106 C   0  0  0  0  0  0  0  0  0  0  0  0
   -0.6436   -0.1665    0.2597 N   0  0  0  0  0  0  0  0  0  0  0  0
    4.9642    1.8038   -1.5350 H   0  0  0  0  0  0  0  0  0  0  0  0
    5.6654    0.1990   -1.2314 H   0  0  0  0  0  0  0  0  0  0  0  0
    4.2531    0.3505   -2.2714 H   0  0  0  0  0  0  0  0  0  0  0  0
    4.3368    0.9616    0.7290 H   0  0  0  0  0  0  0  0  0  0  0  0
    2.8975    1.1491   -0.3203 H   0  0  0  0  0  0  0  0  0  0  0  0
    4.6779   -1.4466    2.1797 H   0  0  0  0  0  0  0  0  0  0  0  0
    3.5744   -1.8814    4.3581 H   0  0  0  0  0  0  0  0  0  0  0  0
    1.1026   -1.7416    4.5311 H   0  0  0  0  0  0  0  0  0  0  0  0
   -0.2526   -1.2113    2.5538 H   0  0  0  0  0  0  0  0  0  0  0  0
    2.5244   -1.7517   -2.7558 H   0  0  0  0  0  0  0  0  0  0  0  0
    2.4278   -1.8939   -4.4976 H   0  0  0  0  0  0  0  0  0  0  0  0
   -1.9577    0.0531   -3.9956 H   0  0  0  0  0  0  0  0  0  0  0  0
   -2.1092    0.5273    1.8196 H   0  0  0  0  0  0  0  0  0  0  0  0
   -3.5336    1.1892    3.6553 H   0  0  0  0  0  0  0  0  0  0  0  0
   -5.8021    2.1060    3.2434 H   0  0  0  0  0  0  0  0  0  0  0  0
   -6.6038    2.3579    0.9030 H   0  0  0  0  0  0  0  0  0  0  0  0
   -5.2091    1.7164   -0.9691 H   0  0  0  0  0  0  0  0  0  0  0  0
  1  2  1  0
  2  3  1  0
  3  4  1  0
  4  5  2  0
  5  6  1  0
  6  7  2  0
  7  8  1  0
  8  9  2  0
  9 10  1  0
 10 11  2  0
 11 12  1  0
 12 13  1  0
 13 14  1  0
 13 15  2  0
 12 16  2  0
 16 17  1  0
 17 18  1  0
 18 19  2  0
 18 20  1  0
 20 21  1  0
 21 22  2  0
 22 23  1  0
 23 24  2  0
 24 25  1  0
 25 26  2  0
 20 27  1  0
 27 28  2  0
  9  4  1  0
 28 10  1  0
 27 16  1  0
 26 21  1  0
  1 29  1  0
  1 30  1  0
  1 31  1  0
  2 32  1  0
  2 33  1  0
  5 34  1  0
  6 35  1  0
  7 36  1  0
  8 37  1  0
 14 38  1  0
 14 39  1  0
 17 40  1  0
 22 41  1  0
 23 42  1  0
 24 43  1  0
 25 44  1  0
 26 45  1  0
M  END
$$$$
