
     RDKit          3D

 32 34  0  0  0  0  0  0  0  0999 V2000
   -0.3511   -1.7427    0.5073 O   0  0  0  0  0  0  0  0  0  0  0  0
   -0.3804   -0.6488   -0.0444 C   0  0  0  0  0  0  0  0  0  0  0  0
   -1.6893    0.1001   -0.3303 C   0  0  0  0  0  0  0  0  0  0  0  0
   -2.8224   -0.6454    0.0841 O   0  0  0  0  0  0  0  0  0  0  0  0
   -4.0537   -0.0907   -0.1224 C   0  0  0  0  0  0  0  0  0  0  0  0
   -4.3100    1.1522   -0.7070 C   0  0  0  0  0  0  0  0  0  0  0  0
   -5.6281    1.5951   -0.8565 C   0  0  0  0  0  0  0  0  0  0  0  0
   -6.6793    0.7958   -0.4232 C   0  0  0  0  0  0  0  0  0  0  0  0
   -7.9388    1.2267   -0.5693 F   0  0  0  0  0  0  0  0  0  0  0  0
   -6.4398   -0.4413    0.1586 C   0  0  0  0  0  0  0  0  0  0  0  0
   -5.1244   -0.8825    0.3080 C   0  0  0  0  0  0  0  0  0  0  0  0
    0.7181    0.0674   -0.4850 N   0  0  0  0  0  0  0  0  0  0  0  0
    1.9954   -0.4007   -0.3380 C   0  0  0  0  0  0  0  0  0  0  0  0
    2.4447   -1.5080    0.1985 N   0  0  0  0  0  0  0  0  0  0  0  0
    3.8264   -1.5844    0.1344 N   0  0  0  0  0  0  0  0  0  0  0  0
    4.3426   -0.5233   -0.4432 C   0  0  0  0  0  0  0  0  0  0  0  0
    5.8782   -0.3564   -0.6569 C   0  0  0  0  0  0  0  0  0  0  0  0
    6.8215   -0.7639    0.4462 C   0  0  0  0  0  0  0  0  0  0  0  0
    6.6259    0.6901    0.1305 C   0  0  0  0  0  0  0  0  0  0  0  0
    3.1998    0.6391   -0.9646 S   0  0  0  0  0  0  0  0  0  0  0  0
   -1.7335    0.2802   -1.4119 H   0  0  0  0  0  0  0  0  0  0  0  0
   -1.6458    1.0503    0.2166 H   0  0  0  0  0  0  0  0  0  0  0  0
   -3.5144    1.8006   -1.0556 H   0  0  0  0  0  0  0  0  0  0  0  0
   -5.8422    2.5583   -1.3084 H   0  0  0  0  0  0  0  0  0  0  0  0
   -7.2712   -1.0533    0.4921 H   0  0  0  0  0  0  0  0  0  0  0  0
   -4.9282   -1.8507    0.7640 H   0  0  0  0  0  0  0  0  0  0  0  0
    0.6148    0.9626   -0.9371 H   0  0  0  0  0  0  0  0  0  0  0  0
    6.2039   -0.5524   -1.6730 H   0  0  0  0  0  0  0  0  0  0  0  0
    7.7580   -1.2293    0.1617 H   0  0  0  0  0  0  0  0  0  0  0  0
    6.4015   -1.1497    1.3690 H   0  0  0  0  0  0  0  0  0  0  0  0
    7.4356    1.2142   -0.3643 H   0  0  0  0  0  0  0  0  0  0  0  0
    6.0863    1.2905    0.8542 H   0  0  0  0  0  0  0  0  0  0  0  0
  1  2  2  0
  2  3  1  0
  3  4  1  0
  4  5  1  0
  5  6  2  0
  6  7  1  0
  7  8  2  0
  8  9  1  0
  8 10  1  0
 10 11  2  0
  2 12  1  0
 12 13  1  0
 13 14  2  0
 14 15  1  0
 15 16  2  0
 16 17  1  0
 17 18  1  0
 18 19  1  0
 16 20  1  0
 11  5  1  0
 20 13  1  0
 19 17  1  0
  3 21  1  0
  3 22  1  0
  6 23  1  0
  7 24  1  0
 10 25  1  0
 11 26  1  0
 12 27  1  0
 17 28  1  0
 18 29  1  0
 18 30  1  0
 19 31  1  0
 19 32  1  0
M  END
$$$$
