
     RDKit          3D

 32 34  0  0  0  0  0  0  0  0999 V2000
    0.0791    1.3857   -0.2647 O   0  0  0  0  0  0  0  0  0  0  0  0
   -0.2271    0.2145   -0.0720 C   0  0  0  0  0  0  0  0  0  0  0  0
   -1.6846   -0.2694   -0.0861 C   0  0  0  0  0  0  0  0  0  0  0  0
   -2.5827    0.7979   -0.3448 O   0  0  0  0  0  0  0  0  0  0  0  0
   -3.9164    0.5038   -0.3849 C   0  0  0  0  0  0  0  0  0  0  0  0
   -4.4882   -0.7570   -0.1944 C   0  0  0  0  0  0  0  0  0  0  0  0
   -5.8764   -0.9118   -0.2640 C   0  0  0  0  0  0  0  0  0  0  0  0
   -6.6829    0.1905   -0.5226 C   0  0  0  0  0  0  0  0  0  0  0  0
   -8.0114    0.0351   -0.5879 F   0  0  0  0  0  0  0  0  0  0  0  0
   -6.1289    1.4486   -0.7139 C   0  0  0  0  0  0  0  0  0  0  0  0
   -4.7438    1.6027   -0.6444 C   0  0  0  0  0  0  0  0  0  0  0  0
    0.6456   -0.8274    0.1802 N   0  0  0  0  0  0  0  0  0  0  0  0
    2.0141   -0.7560    0.2632 C   0  0  0  0  0  0  0  0  0  0  0  0
    2.7463   -1.8210    0.5099 N   0  0  0  0  0  0  0  0  0  0  0  0
    4.0957   -1.5257    0.5513 N   0  0  0  0  0  0  0  0  0  0  0  0
    4.3136   -0.2493    0.3256 C   0  0  0  0  0  0  0  0  0  0  0  0
    5.7472    0.3637    0.3218 C   0  0  0  0  0  0  0  0  0  0  0  0
    6.8766   -0.4102   -0.3098 C   0  0  0  0  0  0  0  0  0  0  0  0
    6.3500    0.8242   -0.9813 C   0  0  0  0  0  0  0  0  0  0  0  0
    2.9059    0.6816    0.0642 S   0  0  0  0  0  0  0  0  0  0  0  0
   -1.8937   -0.7058    0.8984 H   0  0  0  0  0  0  0  0  0  0  0  0
   -1.7689   -1.0299   -0.8722 H   0  0  0  0  0  0  0  0  0  0  0  0
   -3.8894   -1.6378    0.0090 H   0  0  0  0  0  0  0  0  0  0  0  0
   -6.3342   -1.8853   -0.1180 H   0  0  0  0  0  0  0  0  0  0  0  0
   -6.7724    2.2987   -0.9149 H   0  0  0  0  0  0  0  0  0  0  0  0
   -4.3022    2.5858   -0.7933 H   0  0  0  0  0  0  0  0  0  0  0  0
    0.2917   -1.7628    0.3262 H   0  0  0  0  0  0  0  0  0  0  0  0
    5.9830    0.9354    1.2130 H   0  0  0  0  0  0  0  0  0  0  0  0
    7.8498   -0.3595    0.1643 H   0  0  0  0  0  0  0  0  0  0  0  0
    6.6558   -1.3711   -0.7621 H   0  0  0  0  0  0  0  0  0  0  0  0
    5.7817    0.6965   -1.8959 H   0  0  0  0  0  0  0  0  0  0  0  0
    6.9671    1.7151   -0.9655 H   0  0  0  0  0  0  0  0  0  0  0  0
  1  2  2  0
  2  3  1  0
  3  4  1  0
  4  5  1  0
  5  6  2  0
  6  7  1  0
  7  8  2  0
  8  9  1  0
  8 10  1  0
 10 11  2  0
  2 12  1  0
 12 13  1  0
 13 14  2  0
 14 15  1  0
 15 16  2  0
 16 17  1  0
 17 18  1  0
 18 19  1  0
 16 20  1  0
 11  5  1  0
 20 13  1  0
 19 17  1  0
  3 21  1  0
  3 22  1  0
  6 23  1  0
  7 24  1  0
 10 25  1  0
 11 26  1  0
 12 27  1  0
 17 28  1  0
 18 29  1  0
 18 30  1  0
 19 31  1  0
 19 32  1  0
M  END
$$$$
