
     RDKit          3D

 56 59  0  0  0  0  0  0  0  0999 V2000
   -4.5407   -1.5194    3.6924 C   0  0  0  0  0  0  0  0  0  0  0  0
   -3.1442   -1.3686    3.1000 C   0  0  0  0  0  0  0  0  0  0  0  0
   -3.1641   -0.7215    1.7066 C   0  0  0  0  0  0  0  0  0  0  0  0
   -3.5027   -1.7059    0.5625 C   0  0  0  0  0  0  0  0  0  0  0  0
   -4.0951   -2.7637    0.7545 O   0  0  0  0  0  0  0  0  0  0  0  0
   -3.2173   -1.1705   -0.6854 N   0  0  0  0  0  0  0  0  0  0  0  0
   -3.4026   -1.7537   -1.9533 C   0  0  0  0  0  0  0  0  0  0  0  0
   -3.9315   -3.0257   -2.1654 C   0  0  0  0  0  0  0  0  0  0  0  0
   -4.0659   -3.5053   -3.4682 C   0  0  0  0  0  0  0  0  0  0  0  0
   -4.5764   -4.7272   -3.6696 F   0  0  0  0  0  0  0  0  0  0  0  0
   -3.6822   -2.7427   -4.5685 C   0  0  0  0  0  0  0  0  0  0  0  0
   -3.1512   -1.4722   -4.3668 C   0  0  0  0  0  0  0  0  0  0  0  0
   -3.0157   -0.9913   -3.0665 C   0  0  0  0  0  0  0  0  0  0  0  0
   -2.4973    0.2340   -2.8800 F   0  0  0  0  0  0  0  0  0  0  0  0
   -1.9190    0.0043    1.3717 N   0  0  0  0  0  0  0  0  0  0  0  0
   -2.1017    1.2947    0.8446 N   0  0  0  0  0  0  0  0  0  0  0  0
   -1.0855    2.0346    0.4943 C   0  0  0  0  0  0  0  0  0  0  0  0
   -1.3573    3.4074   -0.0521 C   0  0  0  0  0  0  0  0  0  0  0  0
    0.2498    1.5125    0.6356 C   0  0  0  0  0  0  0  0  0  0  0  0
    1.5168    2.0367    0.4389 C   0  0  0  0  0  0  0  0  0  0  0  0
    1.9343    3.4298    0.1344 C   0  0  0  0  0  0  0  0  0  0  0  0
    2.3980    0.9679    0.6508 N   0  0  0  0  0  0  0  0  0  0  0  0
    3.8001    0.8497    0.3963 C   0  0  0  0  0  0  0  0  0  0  0  0
    4.4831    1.7108   -0.4688 C   0  0  0  0  0  0  0  0  0  0  0  0
    5.8565    1.5487   -0.6920 C   0  0  0  0  0  0  0  0  0  0  0  0
    6.5691    0.5251   -0.0597 C   0  0  0  0  0  0  0  0  0  0  0  0
    8.0319    0.3344   -0.3307 C   0  0  0  0  0  0  0  0  0  0  0  0
    5.8815   -0.3607    0.7733 C   0  0  0  0  0  0  0  0  0  0  0  0
    4.5108   -0.2026    0.9980 C   0  0  0  0  0  0  0  0  0  0  0  0
    1.7418   -0.1007    1.1798 N   0  0  0  0  0  0  0  0  0  0  0  0
    0.4474    0.2119    1.1077 C   0  0  0  0  0  0  0  0  0  0  0  0
   -0.6687   -0.6449    1.4867 C   0  0  0  0  0  0  0  0  0  0  0  0
   -0.5356   -1.8080    1.8545 O   0  0  0  0  0  0  0  0  0  0  0  0
   -5.0297   -0.5453    3.7948 H   0  0  0  0  0  0  0  0  0  0  0  0
   -4.4794   -1.9711    4.6877 H   0  0  0  0  0  0  0  0  0  0  0  0
   -5.1754   -2.1588    3.0722 H   0  0  0  0  0  0  0  0  0  0  0  0
   -2.5528   -0.7517    3.7878 H   0  0  0  0  0  0  0  0  0  0  0  0
   -2.6731   -2.3575    3.0661 H   0  0  0  0  0  0  0  0  0  0  0  0
   -3.9658    0.0307    1.6951 H   0  0  0  0  0  0  0  0  0  0  0  0
   -2.8055   -0.2378   -0.6780 H   0  0  0  0  0  0  0  0  0  0  0  0
   -4.2461   -3.6693   -1.3514 H   0  0  0  0  0  0  0  0  0  0  0  0
   -3.7997   -3.1473   -5.5691 H   0  0  0  0  0  0  0  0  0  0  0  0
   -2.8422   -0.8578   -5.2061 H   0  0  0  0  0  0  0  0  0  0  0  0
   -1.0953    4.1568    0.6994 H   0  0  0  0  0  0  0  0  0  0  0  0
   -2.4188    3.5160   -0.2942 H   0  0  0  0  0  0  0  0  0  0  0  0
   -0.7750    3.5767   -0.9617 H   0  0  0  0  0  0  0  0  0  0  0  0
    1.9931    3.5902   -0.9461 H   0  0  0  0  0  0  0  0  0  0  0  0
    2.8934    3.6800    0.5968 H   0  0  0  0  0  0  0  0  0  0  0  0
    1.2189    4.1499    0.5407 H   0  0  0  0  0  0  0  0  0  0  0  0
    3.9823    2.4893   -1.0305 H   0  0  0  0  0  0  0  0  0  0  0  0
    6.3656    2.2232   -1.3778 H   0  0  0  0  0  0  0  0  0  0  0  0
    8.1699   -0.3163   -1.1995 H   0  0  0  0  0  0  0  0  0  0  0  0
    8.5339   -0.1157    0.5323 H   0  0  0  0  0  0  0  0  0  0  0  0
    8.5206    1.2948   -0.5255 H   0  0  0  0  0  0  0  0  0  0  0  0
    6.4041   -1.1850    1.2543 H   0  0  0  0  0  0  0  0  0  0  0  0
    4.0107   -0.9116    1.6570 H   0  0  0  0  0  0  0  0  0  0  0  0
  1  2  1  0
  2  3  1  0
  3  4  1  0
  4  5  2  0
  4  6  1  0
  6  7  1  0
  7  8  2  0
  8  9  1  0
  9 10  1  0
  9 11  2  0
 11 12  1  0
 12 13  2  0
 13 14  1  0
  3 15  1  0
 15 16  1  0
 16 17  2  0
 17 18  1  0
 17 19  1  0
 19 20  2  0
 20 21  1  0
 20 22  1  0
 22 23  1  0
 23 24  2  0
 24 25  1  0
 25 26  2  0
 26 27  1  0
 26 28  1  0
 28 29  2  0
 22 30  1  0
 30 31  2  0
 31 32  1  0
 32 33  2  0
 13  7  1  0
 32 15  1  0
 31 19  1  0
 29 23  1  0
  1 34  1  0
  1 35  1  0
  1 36  1  0
  2 37  1  0
  2 38  1  0
  3 39  1  0
  6 40  1  0
  8 41  1  0
 11 42  1  0
 12 43  1  0
 18 44  1  0
 18 45  1  0
 18 46  1  0
 21 47  1  0
 21 48  1  0
 21 49  1  0
 24 50  1  0
 25 51  1  0
 27 52  1  0
 27 53  1  0
 27 54  1  0
 28 55  1  0
 29 56  1  0
M  END
$$$$
