
     RDKit          3D

 37 38  0  0  0  0  0  0  0  0999 V2000
    0.9182   -2.0204    0.0051 O   0  0  0  0  0  0  0  0  0  0  0  0
    0.3365   -1.2854   -0.7835 C   0  0  0  0  0  0  0  0  0  0  0  0
   -1.0874   -1.5607   -1.2426 C   0  0  0  0  0  0  0  0  0  0  0  0
   -1.8740   -2.4602   -0.2865 C   0  0  0  0  0  0  0  0  0  0  0  0
   -2.0774   -1.8740    1.1179 C   0  0  0  0  0  0  0  0  0  0  0  0
   -2.7518   -0.5239    1.1218 C   0  0  0  0  0  0  0  0  0  0  0  0
   -4.1034   -0.3990    0.7742 C   0  0  0  0  0  0  0  0  0  0  0  0
   -4.7173    0.8545    0.7625 C   0  0  0  0  0  0  0  0  0  0  0  0
   -3.9874    1.9930    1.0991 C   0  0  0  0  0  0  0  0  0  0  0  0
   -2.6435    1.8796    1.4500 C   0  0  0  0  0  0  0  0  0  0  0  0
   -2.0278    0.6273    1.4622 C   0  0  0  0  0  0  0  0  0  0  0  0
    0.8641   -0.1593   -1.3942 N   0  0  0  0  0  0  0  0  0  0  0  0
    2.1472    0.3977   -1.2142 C   0  0  0  0  0  0  0  0  0  0  0  0
    2.4432    1.5540   -1.9523 C   0  0  0  0  0  0  0  0  0  0  0  0
    3.6876    2.1803   -1.8436 C   0  0  0  0  0  0  0  0  0  0  0  0
    4.6561    1.6573   -0.9912 C   0  0  0  0  0  0  0  0  0  0  0  0
    4.3664    0.5044   -0.2500 C   0  0  0  0  0  0  0  0  0  0  0  0
    5.3876   -0.0456    0.6511 N   0  0  0  0  0  4  0  0  0  0  0  0
    6.5146    0.4707    0.6236 O   0  0  0  0  0  0  0  0  0  0  0  0
    5.0674   -0.9877    1.3881 O   0  0  0  0  0  1  0  0  0  0  0  0
    3.1173   -0.1276   -0.3573 C   0  0  0  0  0  0  0  0  0  0  0  0
   -1.6193   -0.6157   -1.3982 H   0  0  0  0  0  0  0  0  0  0  0  0
   -1.0186   -2.0560   -2.2188 H   0  0  0  0  0  0  0  0  0  0  0  0
   -1.3652   -3.4271   -0.1881 H   0  0  0  0  0  0  0  0  0  0  0  0
   -2.8513   -2.6699   -0.7390 H   0  0  0  0  0  0  0  0  0  0  0  0
   -1.1176   -1.8133    1.6445 H   0  0  0  0  0  0  0  0  0  0  0  0
   -2.6889   -2.5676    1.7094 H   0  0  0  0  0  0  0  0  0  0  0  0
   -4.6871   -1.2793    0.5145 H   0  0  0  0  0  0  0  0  0  0  0  0
   -5.7673    0.9417    0.4956 H   0  0  0  0  0  0  0  0  0  0  0  0
   -4.4680    2.9677    1.0952 H   0  0  0  0  0  0  0  0  0  0  0  0
   -2.0755    2.7657    1.7211 H   0  0  0  0  0  0  0  0  0  0  0  0
   -0.9787    0.5541    1.7428 H   0  0  0  0  0  0  0  0  0  0  0  0
    0.2520    0.3307   -2.0357 H   0  0  0  0  0  0  0  0  0  0  0  0
    1.7064    1.9858   -2.6266 H   0  0  0  0  0  0  0  0  0  0  0  0
    3.8994    3.0753   -2.4244 H   0  0  0  0  0  0  0  0  0  0  0  0
    5.6214    2.1535   -0.9140 H   0  0  0  0  0  0  0  0  0  0  0  0
    2.9222   -1.0206    0.2290 H   0  0  0  0  0  0  0  0  0  0  0  0
  1  2  2  0
  2  3  1  0
  3  4  1  0
  4  5  1  0
  5  6  1  0
  6  7  2  0
  7  8  1  0
  8  9  2  0
  9 10  1  0
 10 11  2  0
  2 12  1  0
 12 13  1  0
 13 14  2  0
 14 15  1  0
 15 16  2  0
 16 17  1  0
 17 18  1  0
 18 19  2  0
 18 20  1  0
 17 21  2  0
 11  6  1  0
 21 13  1  0
  3 22  1  0
  3 23  1  0
  4 24  1  0
  4 25  1  0
  5 26  1  0
  5 27  1  0
  7 28  1  0
  8 29  1  0
  9 30  1  0
 10 31  1  0
 11 32  1  0
 12 33  1  0
 14 34  1  0
 15 35  1  0
 16 36  1  0
 21 37  1  0
M  CHG  2  18   1  20  -1
M  END
$$$$
