
     RDKit          3D

 55 60  0  0  0  0  0  0  0  0999 V2000
    5.1405   -1.5980    0.2376 O   0  0  0  0  0  0  0  0  0  0  0  0
    4.4390   -0.6719    0.6412 C   0  0  0  0  0  0  0  0  0  0  0  0
    5.0535    0.5301    1.1823 C   0  0  0  0  0  0  0  0  0  0  0  0
    4.6857    1.9037    1.0620 C   0  0  0  0  0  0  0  0  0  0  0  0
    5.6422    2.6280    1.7340 C   0  0  0  0  0  0  0  0  0  0  0  0
    6.5903    1.8012    2.2414 O   0  0  0  0  0  0  0  0  0  0  0  0
    6.2431    0.5386    1.8843 C   0  0  0  0  0  0  0  0  0  0  0  0
    3.0442   -0.7259    0.5633 N   0  0  0  0  0  0  0  0  0  0  0  0
    2.4698   -1.8368   -0.1857 C   0  0  0  0  0  0  0  0  0  0  0  0
    0.9411   -1.7761   -0.2640 C   0  0  0  0  0  0  0  0  0  0  0  0
    0.4310   -0.3236   -0.4494 C   0  0  0  0  0  0  0  0  0  0  0  0
    0.9649    0.5786    0.7052 C   0  0  0  0  0  0  0  0  0  0  0  0
    2.1376   -0.0391    1.4682 C   0  0  0  0  0  0  0  0  0  0  0  0
    1.0646    0.0985   -1.6907 O   0  0  0  0  0  0  0  0  0  0  0  0
    0.5309    1.1631   -2.3532 C   0  0  0  0  0  0  0  0  0  0  0  0
    1.3060    1.6941   -3.3857 C   0  0  0  0  0  0  0  0  0  0  0  0
    0.8509    2.8035   -4.1003 C   0  0  0  0  0  0  0  0  0  0  0  0
   -0.3773    3.3727   -3.7780 C   0  0  0  0  0  0  0  0  0  0  0  0
   -0.8070    4.4405   -4.4617 F   0  0  0  0  0  0  0  0  0  0  0  0
   -1.1644    2.8492   -2.7608 C   0  0  0  0  0  0  0  0  0  0  0  0
   -0.7048    1.7321   -2.0595 C   0  0  0  0  0  0  0  0  0  0  0  0
   -1.5151    1.1340   -0.9914 C   0  0  0  0  0  0  0  0  0  0  0  0
   -2.4337    1.7760   -0.4892 O   0  0  0  0  0  0  0  0  0  0  0  0
   -1.1192   -0.2757   -0.5676 C   0  0  0  0  0  0  0  0  0  0  0  0
   -1.8833   -0.7127    0.6754 C   0  0  0  0  0  0  0  0  0  0  0  0
   -2.9857   -1.4698    0.0165 C   0  0  0  0  0  0  0  0  0  0  0  0
   -4.1962   -1.9052    0.7535 C   0  0  0  0  0  0  0  0  0  0  0  0
   -5.2142   -2.5666    0.0522 C   0  0  0  0  0  0  0  0  0  0  0  0
   -6.3675   -2.9941    0.7161 C   0  0  0  0  0  0  0  0  0  0  0  0
   -6.5041   -2.7617    2.0823 C   0  0  0  0  0  0  0  0  0  0  0  0
   -7.9212   -3.2870    2.9030 Cl  0  0  0  0  0  0  0  0  0  0  0  0
   -5.4972   -2.1061    2.7896 C   0  0  0  0  0  0  0  0  0  0  0  0
   -4.3417   -1.6774    2.1272 C   0  0  0  0  0  0  0  0  0  0  0  0
   -2.7850   -1.7431   -1.2327 N   0  0  0  0  0  0  0  0  0  0  0  0
   -1.5500   -1.1721   -1.6049 O   0  0  0  0  0  0  0  0  0  0  0  0
    3.8365    2.3141    0.5341 H   0  0  0  0  0  0  0  0  0  0  0  0
    5.7945    3.6826    1.9192 H   0  0  0  0  0  0  0  0  0  0  0  0
    6.9257   -0.2413    2.1947 H   0  0  0  0  0  0  0  0  0  0  0  0
    2.9085   -1.8268   -1.1910 H   0  0  0  0  0  0  0  0  0  0  0  0
    2.7772   -2.7762    0.2895 H   0  0  0  0  0  0  0  0  0  0  0  0
    0.5290   -2.2156    0.6508 H   0  0  0  0  0  0  0  0  0  0  0  0
    0.6230   -2.4174   -1.0948 H   0  0  0  0  0  0  0  0  0  0  0  0
    0.1807    0.8003    1.4373 H   0  0  0  0  0  0  0  0  0  0  0  0
    1.2934    1.5442    0.3014 H   0  0  0  0  0  0  0  0  0  0  0  0
    2.6355    0.7163    2.0783 H   0  0  0  0  0  0  0  0  0  0  0  0
    1.7697   -0.7885    2.1812 H   0  0  0  0  0  0  0  0  0  0  0  0
    2.2674    1.2480   -3.6302 H   0  0  0  0  0  0  0  0  0  0  0  0
    1.4456    3.2273   -4.9041 H   0  0  0  0  0  0  0  0  0  0  0  0
   -2.1241    3.3035   -2.5331 H   0  0  0  0  0  0  0  0  0  0  0  0
   -1.3286   -1.4070    1.3112 H   0  0  0  0  0  0  0  0  0  0  0  0
   -2.2502    0.1133    1.2889 H   0  0  0  0  0  0  0  0  0  0  0  0
   -5.1186   -2.7520   -1.0166 H   0  0  0  0  0  0  0  0  0  0  0  0
   -7.1505   -3.5041    0.1607 H   0  0  0  0  0  0  0  0  0  0  0  0
   -5.6067   -1.9250    3.8562 H   0  0  0  0  0  0  0  0  0  0  0  0
   -3.5755   -1.1707    2.7060 H   0  0  0  0  0  0  0  0  0  0  0  0
  1  2  2  0
  2  3  1  0
  3  4  1  0
  4  5  2  0
  5  6  1  0
  6  7  1  0
  2  8  1  0
  8  9  1  0
  9 10  1  0
 10 11  1  0
 11 12  1  0
 12 13  1  0
 11 14  1  0
 14 15  1  0
 15 16  2  0
 16 17  1  0
 17 18  2  0
 18 19  1  0
 18 20  1  0
 20 21  2  0
 21 22  1  0
 22 23  2  0
 22 24  1  0
 24 25  1  0
 25 26  1  0
 26 27  1  0
 27 28  2  0
 28 29  1  0
 29 30  2  0
 30 31  1  0
 30 32  1  0
 32 33  2  0
 26 34  2  0
 34 35  1  0
  7  3  2  0
 13  8  1  0
 21 15  1  0
 35 24  1  0
 24 11  1  0
 33 27  1  0
  4 36  1  0
  5 37  1  0
  7 38  1  0
  9 39  1  0
  9 40  1  0
 10 41  1  0
 10 42  1  0
 12 43  1  0
 12 44  1  0
 13 45  1  0
 13 46  1  0
 16 47  1  0
 17 48  1  0
 20 49  1  0
 25 50  1  0
 25 51  1  0
 28 52  1  0
 29 53  1  0
 32 54  1  0
 33 55  1  0
M  END
$$$$
