
     RDKit          3D

 32 34  0  0  0  0  0  0  0  0999 V2000
   -3.2564    1.6742   -2.1386 C   0  0  0  0  0  0  0  0  0  0  0  0
   -2.8699    0.2572   -2.5109 C   0  0  0  0  0  0  0  0  0  0  0  0
   -3.3226   -0.6207   -1.4752 O   0  0  0  0  0  0  0  0  0  0  0  0
   -2.4591   -1.6846   -1.3023 C   0  0  0  0  0  0  0  0  0  0  0  0
   -2.9604   -2.9594   -1.5823 C   0  0  0  0  0  0  0  0  0  0  0  0
   -2.1645   -4.0827   -1.3828 C   0  0  0  0  0  0  0  0  0  0  0  0
   -0.8619   -3.9623   -0.8856 C   0  0  0  0  0  0  0  0  0  0  0  0
   -0.3876   -2.6799   -0.5635 C   0  0  0  0  0  0  0  0  0  0  0  0
    1.1297   -2.2200    0.1074 S   0  0  0  0  0  0  0  0  0  0  0  0
    0.6356   -0.5965    0.1307 C   0  0  0  0  0  0  0  0  0  0  0  0
    1.4045    0.4203    0.6344 N   0  0  0  0  0  0  0  0  0  0  0  0
    2.6461    0.3361    1.2228 C   0  0  0  0  0  0  0  0  0  0  0  0
    3.2957   -0.6973    1.3542 O   0  0  0  0  0  0  0  0  0  0  0  0
    3.1671    1.6134    1.7159 C   0  0  0  0  0  0  0  0  0  0  0  0
    4.3621    1.8118    2.3893 C   0  0  0  0  0  0  0  0  0  0  0  0
    4.5746    3.1776    2.7464 C   0  0  0  0  0  0  0  0  0  0  0  0
    3.5373    3.9646    2.3190 C   0  0  0  0  0  0  0  0  0  0  0  0
    3.4768    5.8544    2.5770 Br  0  0  0  0  0  0  0  0  0  0  0  0
    2.3251    3.0981    1.5212 S   0  0  0  0  0  0  0  0  0  0  0  0
   -0.5509   -0.3456   -0.3623 N   0  0  0  0  0  0  0  0  0  0  0  0
   -1.1612   -1.5328   -0.7547 C   0  0  0  0  0  0  0  0  0  0  0  0
   -2.9801    2.3735   -2.9335 H   0  0  0  0  0  0  0  0  0  0  0  0
   -4.3320    1.7479   -1.9574 H   0  0  0  0  0  0  0  0  0  0  0  0
   -2.7548    1.9763   -1.2121 H   0  0  0  0  0  0  0  0  0  0  0  0
   -3.3721   -0.0305   -3.4390 H   0  0  0  0  0  0  0  0  0  0  0  0
   -1.7896    0.2073   -2.6874 H   0  0  0  0  0  0  0  0  0  0  0  0
   -3.9754   -3.0677   -1.9547 H   0  0  0  0  0  0  0  0  0  0  0  0
   -2.5635   -5.0664   -1.6047 H   0  0  0  0  0  0  0  0  0  0  0  0
   -0.2437   -4.8410   -0.7215 H   0  0  0  0  0  0  0  0  0  0  0  0
    0.9600    1.3252    0.5792 H   0  0  0  0  0  0  0  0  0  0  0  0
    5.0476    1.0022    2.6179 H   0  0  0  0  0  0  0  0  0  0  0  0
    5.4433    3.5473    3.2769 H   0  0  0  0  0  0  0  0  0  0  0  0
  1  2  1  0
  2  3  1  0
  3  4  1  0
  4  5  2  0
  5  6  1  0
  6  7  2  0
  7  8  1  0
  8  9  1  0
  9 10  1  0
 10 11  1  0
 11 12  1  0
 12 13  2  0
 12 14  1  0
 14 15  2  0
 15 16  1  0
 16 17  2  0
 17 18  1  0
 17 19  1  0
 10 20  2  0
 20 21  1  0
 21  4  1  0
 21  8  2  0
 19 14  1  0
  1 22  1  0
  1 23  1  0
  1 24  1  0
  2 25  1  0
  2 26  1  0
  5 27  1  0
  6 28  1  0
  7 29  1  0
 11 30  1  0
 15 31  1  0
 16 32  1  0
M  END
$$$$
