
     RDKit          3D

 32 32  0  0  0  0  0  0  0  0999 V2000
   -3.6718   -0.9428   -3.1043 C   0  0  0  0  0  0  0  0  0  0  0  0
   -3.4124    0.1101   -2.5870 C   0  0  0  0  0  0  0  0  0  0  0  0
   -3.1020    1.4016   -1.9489 C   0  0  0  0  0  0  0  0  0  0  0  0
   -1.6827    1.7929   -2.0139 N   0  0  0  0  0  0  0  0  0  0  0  0
   -1.2482    2.0077   -3.3935 C   0  0  0  0  0  0  0  0  0  0  0  0
   -0.8227    0.8480   -1.2812 C   0  0  0  0  0  0  0  0  0  0  0  0
    0.5560    1.4415   -0.9572 C   0  0  0  0  0  0  0  0  0  0  0  0
    1.4271    0.4587   -0.1740 C   0  0  0  0  0  0  0  0  0  0  0  0
    0.8019    0.1728    1.0753 O   0  0  0  0  0  0  0  0  0  0  0  0
    1.3932   -0.7498    1.8977 C   0  0  0  0  0  0  0  0  0  0  0  0
    2.6407   -1.3372    1.6617 C   0  0  0  0  0  0  0  0  0  0  0  0
    3.1599   -2.2663    2.5675 C   0  0  0  0  0  0  0  0  0  0  0  0
    4.6958   -2.9826    2.2641 Cl  0  0  0  0  0  0  0  0  0  0  0  0
    2.4517   -2.6199    3.7135 C   0  0  0  0  0  0  0  0  0  0  0  0
    1.2093   -2.0379    3.9598 C   0  0  0  0  0  0  0  0  0  0  0  0
    0.6836   -1.1076    3.0578 C   0  0  0  0  0  0  0  0  0  0  0  0
   -0.8641   -0.4226    3.4141 Cl  0  0  0  0  0  0  0  0  0  0  0  0
   -3.9020   -1.8773   -3.5614 H   0  0  0  0  0  0  0  0  0  0  0  0
   -3.4188    1.3741   -0.8987 H   0  0  0  0  0  0  0  0  0  0  0  0
   -3.7114    2.1895   -2.4093 H   0  0  0  0  0  0  0  0  0  0  0  0
   -1.1837    1.0760   -3.9661 H   0  0  0  0  0  0  0  0  0  0  0  0
   -1.9346    2.6847   -3.9152 H   0  0  0  0  0  0  0  0  0  0  0  0
   -0.2688    2.4949   -3.4258 H   0  0  0  0  0  0  0  0  0  0  0  0
   -1.3062    0.5917   -0.3298 H   0  0  0  0  0  0  0  0  0  0  0  0
   -0.7015   -0.0892   -1.8394 H   0  0  0  0  0  0  0  0  0  0  0  0
    1.0895    1.7127   -1.8740 H   0  0  0  0  0  0  0  0  0  0  0  0
    0.4198    2.3549   -0.3649 H   0  0  0  0  0  0  0  0  0  0  0  0
    2.4049    0.9230    0.0000 H   0  0  0  0  0  0  0  0  0  0  0  0
    1.5535   -0.4611   -0.7580 H   0  0  0  0  0  0  0  0  0  0  0  0
    3.2305   -1.0870    0.7865 H   0  0  0  0  0  0  0  0  0  0  0  0
    2.8595   -3.3427    4.4155 H   0  0  0  0  0  0  0  0  0  0  0  0
    0.6541   -2.3108    4.8538 H   0  0  0  0  0  0  0  0  0  0  0  0
  1  2  3  0
  2  3  1  0
  3  4  1  0
  4  5  1  0
  4  6  1  0
  6  7  1  0
  7  8  1  0
  8  9  1  0
  9 10  1  0
 10 11  2  0
 11 12  1  0
 12 13  1  0
 12 14  2  0
 14 15  1  0
 15 16  2  0
 16 17  1  0
 16 10  1  0
  1 18  1  0
  3 19  1  0
  3 20  1  0
  5 21  1  0
  5 22  1  0
  5 23  1  0
  6 24  1  0
  6 25  1  0
  7 26  1  0
  7 27  1  0
  8 28  1  0
  8 29  1  0
 11 30  1  0
 14 31  1  0
 15 32  1  0
M  END
$$$$
