
     RDKit          3D

 37 38  0  0  0  0  0  0  0  0999 V2000
   -4.9876    0.8934   -0.4115 C   0  0  0  0  0  0  0  0  0  0  0  0
   -4.3328   -0.4024   -0.7013 N   0  0  0  0  0  0  0  0  0  0  0  0
   -5.2337   -1.2995   -1.4646 C   0  0  0  0  0  0  0  0  0  0  0  0
   -3.6162   -1.1780    0.6471 S   0  0  0  0  0  6  0  0  0  0  0  0
   -4.5897   -1.2050    1.7138 O   0  0  0  0  0  0  0  0  0  0  0  0
   -3.0235   -2.4154    0.1811 O   0  0  0  0  0  0  0  0  0  0  0  0
   -2.2635   -0.0954    1.0453 C   0  0  0  0  0  0  0  0  0  0  0  0
   -1.1028   -0.2372    0.2609 C   0  0  0  0  0  0  0  0  0  0  0  0
    0.0479    0.5253    0.5196 C   0  0  0  0  0  0  0  0  0  0  0  0
    1.2086    0.3020   -0.3828 C   0  0  0  0  0  0  0  0  0  0  0  0
    0.9787    0.1640   -1.5796 O   0  0  0  0  0  0  0  0  0  0  0  0
    2.4327    0.2175    0.2299 N   0  0  0  0  0  0  0  0  0  0  0  0
    3.6269   -0.0172   -0.4052 C   0  0  0  0  0  0  0  0  0  0  0  0
    3.8989   -0.2341   -1.7729 C   0  0  0  0  0  0  0  0  0  0  0  0
    5.2604   -0.4154   -1.8460 C   0  0  0  0  0  0  0  0  0  0  0  0
    5.7153   -0.3025   -0.5678 N   0  0  0  0  0  0  0  0  0  0  0  0
    7.0818   -0.4146   -0.1196 C   0  0  0  0  0  0  0  0  0  0  0  0
    4.7419   -0.0617    0.3292 N   0  0  0  0  0  0  0  0  0  0  0  0
    0.0264    1.4503    1.5659 C   0  0  0  0  0  0  0  0  0  0  0  0
    1.3504    2.4938    1.9380 Cl  0  0  0  0  0  0  0  0  0  0  0  0
   -1.1290    1.5906    2.3451 C   0  0  0  0  0  0  0  0  0  0  0  0
   -2.2762    0.8219    2.0945 C   0  0  0  0  0  0  0  0  0  0  0  0
   -3.6300    1.1552    3.1074 Cl  0  0  0  0  0  0  0  0  0  0  0  0
   -5.8160    0.7711    0.2923 H   0  0  0  0  0  0  0  0  0  0  0  0
   -5.3841    1.3247   -1.3369 H   0  0  0  0  0  0  0  0  0  0  0  0
   -4.2666    1.6122   -0.0158 H   0  0  0  0  0  0  0  0  0  0  0  0
   -6.0871   -1.6096   -0.8540 H   0  0  0  0  0  0  0  0  0  0  0  0
   -5.6102   -0.7826   -2.3534 H   0  0  0  0  0  0  0  0  0  0  0  0
   -4.6911   -2.1816   -1.8162 H   0  0  0  0  0  0  0  0  0  0  0  0
   -1.0903   -0.9529   -0.5642 H   0  0  0  0  0  0  0  0  0  0  0  0
    2.5401    0.3518    1.2257 H   0  0  0  0  0  0  0  0  0  0  0  0
    3.2007   -0.2559   -2.5977 H   0  0  0  0  0  0  0  0  0  0  0  0
    5.9181   -0.6095   -2.6812 H   0  0  0  0  0  0  0  0  0  0  0  0
    7.7314   -0.6092   -0.9766 H   0  0  0  0  0  0  0  0  0  0  0  0
    7.3661    0.5264    0.3580 H   0  0  0  0  0  0  0  0  0  0  0  0
    7.1445   -1.2418    0.5917 H   0  0  0  0  0  0  0  0  0  0  0  0
   -1.1405    2.3213    3.1537 H   0  0  0  0  0  0  0  0  0  0  0  0
  1  2  1  0
  2  3  1  0
  2  4  1  0
  4  5  2  0
  4  6  2  0
  4  7  1  0
  7  8  2  0
  8  9  1  0
  9 10  1  0
 10 11  2  0
 10 12  1  0
 12 13  1  0
 13 14  1  0
 14 15  2  0
 15 16  1  0
 16 17  1  0
 16 18  1  0
  9 19  2  0
 19 20  1  0
 19 21  1  0
 21 22  2  0
 22 23  1  0
 22  7  1  0
 18 13  2  0
  1 24  1  0
  1 25  1  0
  1 26  1  0
  3 27  1  0
  3 28  1  0
  3 29  1  0
  8 30  1  0
 12 31  1  0
 14 32  1  0
 15 33  1  0
 17 34  1  0
 17 35  1  0
 17 36  1  0
 21 37  1  0
M  END
$$$$
