
     RDKit          3D

 37 38  0  0  0  0  0  0  0  0999 V2000
   -6.0123    0.2049   -0.7662 C   0  0  0  0  0  0  0  0  0  0  0  0
   -4.5702    0.4334   -0.5203 N   0  0  0  0  0  0  0  0  0  0  0  0
   -3.8465    0.7408   -1.7730 C   0  0  0  0  0  0  0  0  0  0  0  0
   -3.8594   -0.7736    0.4596 S   0  0  0  0  0  6  0  0  0  0  0  0
   -3.5074   -1.8660   -0.4246 O   0  0  0  0  0  0  0  0  0  0  0  0
   -4.6898   -1.0046    1.6202 O   0  0  0  0  0  0  0  0  0  0  0  0
   -2.3574   -0.0178    1.0238 C   0  0  0  0  0  0  0  0  0  0  0  0
   -1.1366   -0.6225    0.6828 C   0  0  0  0  0  0  0  0  0  0  0  0
    0.0852   -0.0689    1.1062 C   0  0  0  0  0  0  0  0  0  0  0  0
    1.3184   -0.7876    0.6772 C   0  0  0  0  0  0  0  0  0  0  0  0
    1.2740   -2.0121    0.6210 O   0  0  0  0  0  0  0  0  0  0  0  0
    2.3823    0.0010    0.3197 N   0  0  0  0  0  0  0  0  0  0  0  0
    3.5938   -0.4535   -0.1390 C   0  0  0  0  0  0  0  0  0  0  0  0
    4.0413   -1.7727   -0.3649 C   0  0  0  0  0  0  0  0  0  0  0  0
    5.3323   -1.6431   -0.8213 C   0  0  0  0  0  0  0  0  0  0  0  0
    5.5814   -0.3049   -0.8442 N   0  0  0  0  0  0  0  0  0  0  0  0
    6.8057    0.3433   -1.2463 C   0  0  0  0  0  0  0  0  0  0  0  0
    4.5382    0.4424   -0.4394 N   0  0  0  0  0  0  0  0  0  0  0  0
    0.0677    1.0826    1.9019 C   0  0  0  0  0  0  0  0  0  0  0  0
    1.4917    1.8183    2.5453 Cl  0  0  0  0  0  0  0  0  0  0  0  0
   -1.1540    1.6787    2.2422 C   0  0  0  0  0  0  0  0  0  0  0  0
   -2.3691    1.1364    1.8058 C   0  0  0  0  0  0  0  0  0  0  0  0
   -3.7999    1.9750    2.2808 Cl  0  0  0  0  0  0  0  0  0  0  0  0
   -6.4274    1.0321   -1.3514 H   0  0  0  0  0  0  0  0  0  0  0  0
   -6.5621    0.1749    0.1790 H   0  0  0  0  0  0  0  0  0  0  0  0
   -6.1732   -0.7266   -1.3173 H   0  0  0  0  0  0  0  0  0  0  0  0
   -2.7936    0.9579   -1.5757 H   0  0  0  0  0  0  0  0  0  0  0  0
   -4.2751    1.6370   -2.2334 H   0  0  0  0  0  0  0  0  0  0  0  0
   -3.9217   -0.0858   -2.4858 H   0  0  0  0  0  0  0  0  0  0  0  0
   -1.1272   -1.5348    0.0837 H   0  0  0  0  0  0  0  0  0  0  0  0
    2.3518    1.0076    0.4063 H   0  0  0  0  0  0  0  0  0  0  0  0
    3.5011   -2.6967   -0.2142 H   0  0  0  0  0  0  0  0  0  0  0  0
    6.0686   -2.3759   -1.1192 H   0  0  0  0  0  0  0  0  0  0  0  0
    6.5864    0.9995   -2.0922 H   0  0  0  0  0  0  0  0  0  0  0  0
    7.5384   -0.4123   -1.5405 H   0  0  0  0  0  0  0  0  0  0  0  0
    7.1845    0.9204   -0.3991 H   0  0  0  0  0  0  0  0  0  0  0  0
   -1.1599    2.5731    2.8643 H   0  0  0  0  0  0  0  0  0  0  0  0
  1  2  1  0
  2  3  1  0
  2  4  1  0
  4  5  2  0
  4  6  2  0
  4  7  1  0
  7  8  2  0
  8  9  1  0
  9 10  1  0
 10 11  2  0
 10 12  1  0
 12 13  1  0
 13 14  1  0
 14 15  2  0
 15 16  1  0
 16 17  1  0
 16 18  1  0
  9 19  2  0
 19 20  1  0
 19 21  1  0
 21 22  2  0
 22 23  1  0
 22  7  1  0
 18 13  2  0
  1 24  1  0
  1 25  1  0
  1 26  1  0
  3 27  1  0
  3 28  1  0
  3 29  1  0
  8 30  1  0
 12 31  1  0
 14 32  1  0
 15 33  1  0
 17 34  1  0
 17 35  1  0
 17 36  1  0
 21 37  1  0
M  END
$$$$
