
     RDKit          3D

 32 34  0  0  0  0  0  0  0  0999 V2000
    7.0242   -0.5286   -0.0058 C   0  0  0  0  0  0  0  0  0  0  0  0
    5.6843   -0.6153    0.6271 C   0  0  0  0  0  0  0  0  0  0  0  0
    5.4008   -1.0313    1.9135 C   0  0  0  0  0  0  0  0  0  0  0  0
    3.7124   -0.9598    2.1886 S   0  0  0  0  0  0  0  0  0  0  0  0
    3.4839   -0.3940    0.6014 C   0  0  0  0  0  0  0  0  0  0  0  0
    2.2595   -0.0887    0.0692 N   0  0  0  0  0  0  0  0  0  0  0  0
    1.0259   -0.2042    0.6744 C   0  0  0  0  0  0  0  0  0  0  0  0
    0.8378   -0.6221    1.8120 O   0  0  0  0  0  0  0  0  0  0  0  0
   -0.0780    0.2248   -0.1782 C   0  0  0  0  0  0  0  0  0  0  0  0
   -0.1498    0.8433   -1.4169 C   0  0  0  0  0  0  0  0  0  0  0  0
   -1.5256    1.0081   -1.7196 C   0  0  0  0  0  0  0  0  0  0  0  0
   -2.2226    0.4666   -0.6625 C   0  0  0  0  0  0  0  0  0  0  0  0
   -3.6345    0.3355   -0.3406 C   0  0  0  0  0  0  0  0  0  0  0  0
   -4.4274    1.4957   -0.3208 C   0  0  0  0  0  0  0  0  0  0  0  0
   -5.7876    1.4270   -0.0082 C   0  0  0  0  0  0  0  0  0  0  0  0
   -6.3680    0.1956    0.2830 C   0  0  0  0  0  0  0  0  0  0  0  0
   -8.0432    0.1121    0.6649 Cl  0  0  0  0  0  0  0  0  0  0  0  0
   -5.6045   -0.9679    0.2602 C   0  0  0  0  0  0  0  0  0  0  0  0
   -4.2422   -0.9002   -0.0529 C   0  0  0  0  0  0  0  0  0  0  0  0
   -3.3746   -2.3972   -0.1191 Cl  0  0  0  0  0  0  0  0  0  0  0  0
   -1.3532    0.0107    0.2793 O   0  0  0  0  0  0  0  0  0  0  0  0
    4.5734   -0.2488   -0.1174 N   0  0  0  0  0  0  0  0  0  0  0  0
    7.0648   -1.1667   -0.8940 H   0  0  0  0  0  0  0  0  0  0  0  0
    7.8133   -0.8491    0.6817 H   0  0  0  0  0  0  0  0  0  0  0  0
    7.2329    0.5019   -0.3094 H   0  0  0  0  0  0  0  0  0  0  0  0
    6.0823   -1.3639    2.6832 H   0  0  0  0  0  0  0  0  0  0  0  0
    2.3277    0.2268   -0.8844 H   0  0  0  0  0  0  0  0  0  0  0  0
    0.6792    1.1556   -2.0359 H   0  0  0  0  0  0  0  0  0  0  0  0
   -1.9560    1.4576   -2.6038 H   0  0  0  0  0  0  0  0  0  0  0  0
   -3.9842    2.4671   -0.5331 H   0  0  0  0  0  0  0  0  0  0  0  0
   -6.3838    2.3361    0.0107 H   0  0  0  0  0  0  0  0  0  0  0  0
   -6.0670   -1.9267    0.4801 H   0  0  0  0  0  0  0  0  0  0  0  0
  1  2  1  0
  2  3  2  0
  3  4  1  0
  4  5  1  0
  5  6  1  0
  6  7  1  0
  7  8  2  0
  7  9  1  0
  9 10  2  0
 10 11  1  0
 11 12  2  0
 12 13  1  0
 13 14  2  0
 14 15  1  0
 15 16  2  0
 16 17  1  0
 16 18  1  0
 18 19  2  0
 19 20  1  0
 12 21  1  0
  5 22  2  0
 22  2  1  0
 21  9  1  0
 19 13  1  0
  1 23  1  0
  1 24  1  0
  1 25  1  0
  3 26  1  0
  6 27  1  0
 10 28  1  0
 11 29  1  0
 14 30  1  0
 15 31  1  0
 18 32  1  0
M  END
$$$$
