
     RDKit          3D

 44 46  0  0  0  0  0  0  0  0999 V2000
   -2.1538    0.0494    4.4323 C   0  0  0  0  0  0  0  0  0  0  0  0
   -2.1043   -0.4994    3.0340 C   0  0  0  0  0  0  0  0  0  0  0  0
   -2.1861   -1.8895    2.8475 C   0  0  0  0  0  0  0  0  0  0  0  0
   -2.1524   -2.4771    1.5687 C   0  0  0  0  0  0  0  0  0  0  0  0
   -2.2852   -3.9735    1.4944 C   0  0  0  0  0  0  0  0  0  0  0  0
   -2.0089   -1.6350    0.4537 C   0  0  0  0  0  0  0  0  0  0  0  0
   -1.9413   -2.2303   -1.2356 S   0  0  0  0  0  6  0  0  0  0  0  0
   -2.9109   -1.4839   -2.0134 O   0  0  0  0  0  0  0  0  0  0  0  0
   -1.9623   -3.6818   -1.2394 O   0  0  0  0  0  0  0  0  0  0  0  0
   -0.3859   -1.8643   -1.7540 N   0  0  0  0  0  0  0  0  0  0  0  0
    0.1221   -0.5468   -1.8518 C   0  0  0  0  0  0  0  0  0  0  0  0
   -0.5141    0.4295   -2.6214 C   0  0  0  0  0  0  0  0  0  0  0  0
    0.0153    1.7195   -2.6880 C   0  0  0  0  0  0  0  0  0  0  0  0
    1.1913    2.0229   -2.0021 C   0  0  0  0  0  0  0  0  0  0  0  0
    1.6466    3.3081   -2.1306 O   0  0  0  0  0  0  0  0  0  0  0  0
    1.8516    1.0471   -1.2404 C   0  0  0  0  0  0  0  0  0  0  0  0
    3.3556    1.3726   -0.3340 S   0  0  0  0  0  0  0  0  0  0  0  0
    4.4340    1.7121   -1.6578 C   0  0  0  0  0  0  0  0  0  0  0  0
    5.0808    0.7544   -2.3756 N   0  0  0  0  0  0  0  0  0  0  0  0
    5.6955    1.4496   -3.3082 C   0  0  0  0  0  0  0  0  0  0  0  0
    5.4071    2.7710   -3.1574 N   0  0  0  0  0  0  0  0  0  0  0  0
    4.6043    2.9701   -2.0998 N   0  0  0  0  0  0  0  0  0  0  0  0
    1.3043   -0.2408   -1.1714 C   0  0  0  0  0  0  0  0  0  0  0  0
   -1.9482   -0.2449    0.6392 C   0  0  0  0  0  0  0  0  0  0  0  0
   -1.9506    0.3317    1.9174 C   0  0  0  0  0  0  0  0  0  0  0  0
   -1.8403    1.8278    2.0427 C   0  0  0  0  0  0  0  0  0  0  0  0
   -2.6436   -0.6557    5.1146 H   0  0  0  0  0  0  0  0  0  0  0  0
   -2.7341    0.9790    4.4700 H   0  0  0  0  0  0  0  0  0  0  0  0
   -1.1432    0.2370    4.8006 H   0  0  0  0  0  0  0  0  0  0  0  0
   -2.2895   -2.5290    3.7234 H   0  0  0  0  0  0  0  0  0  0  0  0
   -3.1120   -4.2505    0.8257 H   0  0  0  0  0  0  0  0  0  0  0  0
   -1.3398   -4.4271    1.1645 H   0  0  0  0  0  0  0  0  0  0  0  0
   -2.5420   -4.4130    2.4730 H   0  0  0  0  0  0  0  0  0  0  0  0
    0.2652   -2.6490   -1.6854 H   0  0  0  0  0  0  0  0  0  0  0  0
   -1.4190    0.1967   -3.1827 H   0  0  0  0  0  0  0  0  0  0  0  0
   -0.4841    2.4842   -3.2782 H   0  0  0  0  0  0  0  0  0  0  0  0
    2.5519    3.3591   -1.7594 H   0  0  0  0  0  0  0  0  0  0  0  0
    6.3272    1.0633   -4.0998 H   0  0  0  0  0  0  0  0  0  0  0  0
    5.7126    3.5654   -3.7220 H   0  0  0  0  0  0  0  0  0  0  0  0
    1.8021   -1.0063   -0.5751 H   0  0  0  0  0  0  0  0  0  0  0  0
   -1.9031    0.4110   -0.2219 H   0  0  0  0  0  0  0  0  0  0  0  0
   -1.1748    2.0920    2.8693 H   0  0  0  0  0  0  0  0  0  0  0  0
   -1.4098    2.2744    1.1407 H   0  0  0  0  0  0  0  0  0  0  0  0
   -2.8281    2.2702    2.2142 H   0  0  0  0  0  0  0  0  0  0  0  0
  1  2  1  0
  2  3  2  0
  3  4  1  0
  4  5  1  0
  4  6  2  0
  6  7  1  0
  7  8  2  0
  7  9  2  0
  7 10  1  0
 10 11  1  0
 11 12  2  0
 12 13  1  0
 13 14  2  0
 14 15  1  0
 14 16  1  0
 16 17  1  0
 17 18  1  0
 18 19  1  0
 19 20  2  0
 20 21  1  0
 21 22  1  0
 16 23  2  0
  6 24  1  0
 24 25  2  0
 25 26  1  0
 25  2  1  0
 23 11  1  0
 22 18  2  0
  1 27  1  0
  1 28  1  0
  1 29  1  0
  3 30  1  0
  5 31  1  0
  5 32  1  0
  5 33  1  0
 10 34  1  0
 12 35  1  0
 13 36  1  0
 15 37  1  0
 20 38  1  0
 21 39  1  0
 23 40  1  0
 24 41  1  0
 26 42  1  0
 26 43  1  0
 26 44  1  0
M  END
$$$$
