
     RDKit          3D

 40 42  0  0  0  0  0  0  0  0999 V2000
   -6.0469    0.6452    1.9587 C   0  0  0  0  0  0  0  0  0  0  0  0
   -5.4311    0.0281    0.6843 C   0  0  0  0  0  0  0  0  0  0  0  0
   -5.9998    0.7832   -0.5312 C   0  0  0  0  0  0  0  0  0  0  0  0
   -5.8538   -1.4511    0.6212 C   0  0  0  0  0  0  0  0  0  0  0  0
   -3.9152    0.1518    0.7320 C   0  0  0  0  0  0  0  0  0  0  0  0
   -3.2365    0.7055    1.7195 N   0  0  0  0  0  0  0  0  0  0  0  0
   -1.8748    0.6825    1.5025 N   0  0  0  0  0  0  0  0  0  0  0  0
   -1.5635    0.1138    0.3604 C   0  0  0  0  0  0  0  0  0  0  0  0
   -0.2669   -0.0180   -0.0593 N   0  0  0  0  0  0  0  0  0  0  0  0
    0.1856   -0.5897   -1.2250 C   0  0  0  0  0  0  0  0  0  0  0  0
   -0.4947   -1.0929   -2.1145 O   0  0  0  0  0  0  0  0  0  0  0  0
    1.7124   -0.5539   -1.3492 C   0  0  0  0  0  0  0  0  0  0  0  0
    2.3075    0.0707   -0.2135 O   0  0  0  0  0  0  0  0  0  0  0  0
    3.6734    0.1645   -0.2046 C   0  0  0  0  0  0  0  0  0  0  0  0
    4.2050    0.7905    0.9416 C   0  0  0  0  0  0  0  0  0  0  0  0
    5.5842    0.9615    1.0985 C   0  0  0  0  0  0  0  0  0  0  0  0
    6.4005    0.4963    0.0932 C   0  0  0  0  0  0  0  0  0  0  0  0
    5.8874   -0.1146   -1.0262 C   0  0  0  0  0  0  0  0  0  0  0  0
    4.5303   -0.2969   -1.2077 C   0  0  0  0  0  0  0  0  0  0  0  0
    6.8597   -0.5001   -1.8967 O   0  0  0  0  0  0  0  0  0  0  0  0
    8.0425   -0.0611   -1.1955 C   0  0  0  0  0  0  0  0  0  0  0  0
    7.7571    0.5723    0.0688 O   0  0  0  0  0  0  0  0  0  0  0  0
   -2.9005   -0.4354   -0.5350 S   0  0  0  0  0  0  0  0  0  0  0  0
   -5.6885    0.1378    2.8623 H   0  0  0  0  0  0  0  0  0  0  0  0
   -7.1404    0.5687    1.9488 H   0  0  0  0  0  0  0  0  0  0  0  0
   -5.7911    1.7074    2.0528 H   0  0  0  0  0  0  0  0  0  0  0  0
   -7.0957    0.7581   -0.5339 H   0  0  0  0  0  0  0  0  0  0  0  0
   -5.6643    0.3458   -1.4783 H   0  0  0  0  0  0  0  0  0  0  0  0
   -5.6897    1.8348   -0.5262 H   0  0  0  0  0  0  0  0  0  0  0  0
   -6.9448   -1.5516    0.6574 H   0  0  0  0  0  0  0  0  0  0  0  0
   -5.4379   -2.0193    1.4616 H   0  0  0  0  0  0  0  0  0  0  0  0
   -5.5153   -1.9344   -0.3022 H   0  0  0  0  0  0  0  0  0  0  0  0
    0.4247    0.3572    0.5805 H   0  0  0  0  0  0  0  0  0  0  0  0
    1.9469    0.0124   -2.2579 H   0  0  0  0  0  0  0  0  0  0  0  0
    2.0518   -1.5931   -1.4298 H   0  0  0  0  0  0  0  0  0  0  0  0
    3.5340    1.1480    1.7199 H   0  0  0  0  0  0  0  0  0  0  0  0
    5.9959    1.4422    1.9785 H   0  0  0  0  0  0  0  0  0  0  0  0
    4.1844   -0.7847   -2.1097 H   0  0  0  0  0  0  0  0  0  0  0  0
    8.5824    0.6507   -1.8306 H   0  0  0  0  0  0  0  0  0  0  0  0
    8.6857   -0.9301   -1.0152 H   0  0  0  0  0  0  0  0  0  0  0  0
  1  2  1  0
  2  3  1  0
  2  4  1  0
  2  5  1  0
  5  6  2  0
  6  7  1  0
  7  8  2  0
  8  9  1  0
  9 10  1  0
 10 11  2  0
 10 12  1  0
 12 13  1  0
 13 14  1  0
 14 15  2  0
 15 16  1  0
 16 17  2  0
 17 18  1  0
 18 19  2  0
 18 20  1  0
 20 21  1  0
 21 22  1  0
  8 23  1  0
 23  5  1  0
 19 14  1  0
 22 17  1  0
  1 24  1  0
  1 25  1  0
  1 26  1  0
  3 27  1  0
  3 28  1  0
  3 29  1  0
  4 30  1  0
  4 31  1  0
  4 32  1  0
  9 33  1  0
 12 34  1  0
 12 35  1  0
 15 36  1  0
 16 37  1  0
 19 38  1  0
 21 39  1  0
 21 40  1  0
M  END
$$$$
