
     RDKit          3D

 56 60  0  0  0  0  0  0  0  0999 V2000
   -7.2501    0.6906    0.9877 C   0  0  0  0  0  0  0  0  0  0  0  0
   -5.9622    0.1834    0.5922 N   0  0  0  0  0  0  0  0  0  0  0  0
   -4.8466    0.0241    1.3719 C   0  0  0  0  0  0  0  0  0  0  0  0
   -4.6727    0.6559    2.9701 S   0  0  0  0  0  0  0  0  0  0  0  0
   -3.1080   -0.0947    3.4846 C   0  0  0  0  0  0  0  0  0  0  0  0
   -1.9098    0.6618    2.9346 C   0  0  0  0  0  0  0  0  0  0  0  0
   -1.3944    1.5783    3.5694 O   0  0  0  0  0  0  0  0  0  0  0  0
   -1.4836    0.1919    1.6952 N   0  0  0  0  0  0  0  0  0  0  0  0
   -0.2510    0.4247    1.0687 C   0  0  0  0  0  0  0  0  0  0  0  0
   -0.1019   -0.0576   -0.2358 C   0  0  0  0  0  0  0  0  0  0  0  0
    1.1211    0.0485   -0.9105 C   0  0  0  0  0  0  0  0  0  0  0  0
    2.2335    0.6138   -0.2618 C   0  0  0  0  0  0  0  0  0  0  0  0
    3.5209    0.7181   -0.7894 N   0  0  0  0  0  0  0  0  0  0  0  0
    4.3145    1.2279    0.1235 C   0  0  0  0  0  0  0  0  0  0  0  0
    6.0426    1.3575   -0.1424 S   0  0  0  0  0  0  0  0  0  0  0  0
    6.3443   -0.2276   -0.9861 C   0  0  0  0  0  0  0  0  0  0  0  0
    7.6219   -0.8942   -0.5066 C   0  0  0  0  0  0  0  0  0  0  0  0
    7.7093   -2.1189   -0.4259 O   0  0  0  0  0  0  0  0  0  0  0  0
    8.6793   -0.0480   -0.2267 N   0  0  0  0  0  0  0  0  0  0  0  0
    9.8553   -0.5183    0.4267 C   0  0  0  0  0  0  0  0  0  0  0  0
    9.8893   -0.5928    1.9259 C   0  0  0  0  0  0  0  0  0  0  0  0
   10.7440    0.4129    1.2033 C   0  0  0  0  0  0  0  0  0  0  0  0
    3.5727    1.7334    1.5852 S   0  0  0  0  0  0  0  0  0  0  0  0
    2.0661    1.1044    1.0344 C   0  0  0  0  0  0  0  0  0  0  0  0
    0.8278    1.0415    1.7132 C   0  0  0  0  0  0  0  0  0  0  0  0
   -3.9317   -0.6539    0.7134 N   0  0  0  0  0  0  0  0  0  0  0  0
   -4.4263   -0.9174   -0.5373 N   0  0  0  0  0  0  0  0  0  0  0  0
   -5.6411   -0.3925   -0.6300 C   0  0  0  0  0  0  0  0  0  0  0  0
   -6.5125   -0.4597   -1.8092 C   0  0  0  0  0  0  0  0  0  0  0  0
   -6.6407   -1.6769   -2.4897 C   0  0  0  0  0  0  0  0  0  0  0  0
   -7.4573   -1.7759   -3.6185 C   0  0  0  0  0  0  0  0  0  0  0  0
   -8.1453   -0.6581   -4.0796 C   0  0  0  0  0  0  0  0  0  0  0  0
   -8.0172    0.5679   -3.4246 C   0  0  0  0  0  0  0  0  0  0  0  0
   -7.2033    0.6646   -2.2928 C   0  0  0  0  0  0  0  0  0  0  0  0
   -7.3558    0.6562    2.0801 H   0  0  0  0  0  0  0  0  0  0  0  0
   -8.0383    0.0690    0.5578 H   0  0  0  0  0  0  0  0  0  0  0  0
   -7.3373    1.7231    0.6246 H   0  0  0  0  0  0  0  0  0  0  0  0
   -3.0542   -1.1554    3.2100 H   0  0  0  0  0  0  0  0  0  0  0  0
   -3.0511   -0.0580    4.5746 H   0  0  0  0  0  0  0  0  0  0  0  0
   -2.1683   -0.3444    1.1583 H   0  0  0  0  0  0  0  0  0  0  0  0
   -0.9396   -0.5230   -0.7501 H   0  0  0  0  0  0  0  0  0  0  0  0
    1.2263   -0.3177   -1.9225 H   0  0  0  0  0  0  0  0  0  0  0  0
    5.5245   -0.9297   -0.7832 H   0  0  0  0  0  0  0  0  0  0  0  0
    6.4113   -0.0647   -2.0669 H   0  0  0  0  0  0  0  0  0  0  0  0
    8.4620    0.9412   -0.1648 H   0  0  0  0  0  0  0  0  0  0  0  0
   10.3474   -1.3265   -0.1139 H   0  0  0  0  0  0  0  0  0  0  0  0
    9.0251   -0.2318    2.4734 H   0  0  0  0  0  0  0  0  0  0  0  0
   10.3726   -1.4511    2.3755 H   0  0  0  0  0  0  0  0  0  0  0  0
   11.8133    0.2333    1.1818 H   0  0  0  0  0  0  0  0  0  0  0  0
   10.4753    1.4586    1.2893 H   0  0  0  0  0  0  0  0  0  0  0  0
    0.7486    1.4458    2.7142 H   0  0  0  0  0  0  0  0  0  0  0  0
   -6.0999   -2.5594   -2.1413 H   0  0  0  0  0  0  0  0  0  0  0  0
   -7.5447   -2.7272   -4.1381 H   0  0  0  0  0  0  0  0  0  0  0  0
   -8.7744   -0.7303   -4.9651 H   0  0  0  0  0  0  0  0  0  0  0  0
   -8.5364    1.4444   -3.7991 H   0  0  0  0  0  0  0  0  0  0  0  0
   -7.0934    1.6326   -1.8142 H   0  0  0  0  0  0  0  0  0  0  0  0
  1  2  1  0
  2  3  1  0
  3  4  1  0
  4  5  1  0
  5  6  1  0
  6  7  2  0
  6  8  1  0
  8  9  1  0
  9 10  2  0
 10 11  1  0
 11 12  2  0
 12 13  1  0
 13 14  2  0
 14 15  1  0
 15 16  1  0
 16 17  1  0
 17 18  2  0
 17 19  1  0
 19 20  1  0
 20 21  1  0
 21 22  1  0
 14 23  1  0
 23 24  1  0
 24 25  2  0
  3 26  2  0
 26 27  1  0
 27 28  2  0
 28 29  1  0
 29 30  2  0
 30 31  1  0
 31 32  2  0
 32 33  1  0
 33 34  2  0
 28  2  1  0
 34 29  1  0
 25  9  1  0
 24 12  1  0
 22 20  1  0
  1 35  1  0
  1 36  1  0
  1 37  1  0
  5 38  1  0
  5 39  1  0
  8 40  1  0
 10 41  1  0
 11 42  1  0
 16 43  1  0
 16 44  1  0
 19 45  1  0
 20 46  1  0
 21 47  1  0
 21 48  1  0
 22 49  1  0
 22 50  1  0
 25 51  1  0
 30 52  1  0
 31 53  1  0
 32 54  1  0
 33 55  1  0
 34 56  1  0
M  END
$$$$
