
     RDKit          3D

 45 46  0  0  0  0  0  0  0  0999 V2000
    7.4959   -1.6329    2.4315 C   0  0  0  0  0  0  0  0  0  0  0  0
    6.3236   -2.2585    1.9226 O   0  0  0  0  0  0  0  0  0  0  0  0
    5.3910   -1.4453    1.3403 C   0  0  0  0  0  0  0  0  0  0  0  0
    5.4803   -0.0610    1.2051 C   0  0  0  0  0  0  0  0  0  0  0  0
    4.4455    0.6493    0.5866 C   0  0  0  0  0  0  0  0  0  0  0  0
    3.3061   -0.0131    0.1057 C   0  0  0  0  0  0  0  0  0  0  0  0
    2.2644    0.8266   -0.5405 C   0  0  0  0  0  0  0  0  0  0  0  0
    2.5966    1.8157   -1.1886 O   0  0  0  0  0  0  0  0  0  0  0  0
    0.8354    0.4819   -0.3128 C   0  0  0  0  0  0  0  0  0  0  0  0
   -0.1236    1.1624   -0.9592 C   0  0  0  0  0  0  0  0  0  0  0  0
   -1.5599    0.9062   -0.7853 C   0  0  0  0  0  0  0  0  0  0  0  0
   -2.0745   -0.3978   -0.7196 C   0  0  0  0  0  0  0  0  0  0  0  0
   -3.4469   -0.6150   -0.5744 C   0  0  0  0  0  0  0  0  0  0  0  0
   -4.0390   -1.8494   -0.4924 O   0  0  0  0  0  0  0  0  0  0  0  0
   -3.2410   -2.9769   -0.8244 C   0  0  0  0  0  0  0  0  0  0  0  0
   -4.3036    0.4948   -0.4844 C   0  0  0  0  0  0  0  0  0  0  0  0
   -5.6624    0.2894   -0.3774 O   0  0  0  0  0  0  0  0  0  0  0  0
   -6.0360    0.2512    0.9986 C   0  0  0  0  0  0  0  0  0  0  0  0
   -3.8120    1.8068   -0.5884 C   0  0  0  0  0  0  0  0  0  0  0  0
   -4.7419    2.8123   -0.5184 O   0  0  0  0  0  0  0  0  0  0  0  0
   -4.2986    4.1323   -0.8015 C   0  0  0  0  0  0  0  0  0  0  0  0
   -2.4363    2.0007   -0.7358 C   0  0  0  0  0  0  0  0  0  0  0  0
    3.2327   -1.4047    0.2239 C   0  0  0  0  0  0  0  0  0  0  0  0
    2.1716   -2.0996   -0.2881 O   0  0  0  0  0  0  0  0  0  0  0  0
    4.2662   -2.1128    0.8449 C   0  0  0  0  0  0  0  0  0  0  0  0
    8.0599   -1.1419    1.6315 H   0  0  0  0  0  0  0  0  0  0  0  0
    7.2506   -0.9287    3.2333 H   0  0  0  0  0  0  0  0  0  0  0  0
    8.1332   -2.4138    2.8574 H   0  0  0  0  0  0  0  0  0  0  0  0
    6.3381    0.4986    1.5641 H   0  0  0  0  0  0  0  0  0  0  0  0
    4.5305    1.7301    0.4803 H   0  0  0  0  0  0  0  0  0  0  0  0
    0.6065   -0.3027    0.3969 H   0  0  0  0  0  0  0  0  0  0  0  0
    0.1398    1.9688   -1.6421 H   0  0  0  0  0  0  0  0  0  0  0  0
   -1.3855   -1.2330   -0.7914 H   0  0  0  0  0  0  0  0  0  0  0  0
   -2.8115   -2.8814   -1.8273 H   0  0  0  0  0  0  0  0  0  0  0  0
   -3.8901   -3.8579   -0.8233 H   0  0  0  0  0  0  0  0  0  0  0  0
   -2.4610   -3.1387   -0.0733 H   0  0  0  0  0  0  0  0  0  0  0  0
   -5.8199    1.2016    1.4987 H   0  0  0  0  0  0  0  0  0  0  0  0
   -5.5427   -0.5738    1.5242 H   0  0  0  0  0  0  0  0  0  0  0  0
   -7.1161    0.0833    1.0471 H   0  0  0  0  0  0  0  0  0  0  0  0
   -5.1745    4.7881   -0.7924 H   0  0  0  0  0  0  0  0  0  0  0  0
   -3.8457    4.1960   -1.7966 H   0  0  0  0  0  0  0  0  0  0  0  0
   -3.6096    4.4882   -0.0288 H   0  0  0  0  0  0  0  0  0  0  0  0
   -2.0177    3.0002   -0.8018 H   0  0  0  0  0  0  0  0  0  0  0  0
    2.3638   -3.0522   -0.2386 H   0  0  0  0  0  0  0  0  0  0  0  0
    4.2182   -3.1935    0.9493 H   0  0  0  0  0  0  0  0  0  0  0  0
  1  2  1  0
  2  3  1  0
  3  4  2  0
  4  5  1  0
  5  6  2  0
  6  7  1  0
  7  8  2  0
  7  9  1  0
  9 10  2  0
 10 11  1  0
 11 12  2  0
 12 13  1  0
 13 14  1  0
 14 15  1  0
 13 16  2  0
 16 17  1  0
 17 18  1  0
 16 19  1  0
 19 20  1  0
 20 21  1  0
 19 22  2  0
  6 23  1  0
 23 24  1  0
 23 25  2  0
 25  3  1  0
 22 11  1  0
  1 26  1  0
  1 27  1  0
  1 28  1  0
  4 29  1  0
  5 30  1  0
  9 31  1  0
 10 32  1  0
 12 33  1  0
 15 34  1  0
 15 35  1  0
 15 36  1  0
 18 37  1  0
 18 38  1  0
 18 39  1  0
 21 40  1  0
 21 41  1  0
 21 42  1  0
 22 43  1  0
 24 44  1  0
 25 45  1  0
M  END
$$$$
