
     RDKit          3D

 36 37  0  0  0  0  0  0  0  0999 V2000
   -1.6842    1.0360    2.8648 O   0  0  0  0  0  0  0  0  0  0  0  0
   -0.7899    0.2928    2.4714 C   0  0  0  0  0  0  0  0  0  0  0  0
    0.5816    0.2286    3.1483 C   0  0  0  0  0  0  0  0  0  0  0  0
    1.6288   -0.2830    2.3173 O   0  0  0  0  0  0  0  0  0  0  0  0
    2.0953    0.5959    1.3951 C   0  0  0  0  0  0  0  0  0  0  0  0
    1.6678    1.7217    1.2047 O   0  0  0  0  0  0  0  0  0  0  0  0
    3.1945   -0.0121    0.5995 C   0  0  0  0  0  0  0  0  0  0  0  0
    3.6868    0.7045   -0.5014 C   0  0  0  0  0  0  0  0  0  0  0  0
    4.7155    0.1770   -1.2842 C   0  0  0  0  0  0  0  0  0  0  0  0
    5.2590   -1.0679   -0.9698 C   0  0  0  0  0  0  0  0  0  0  0  0
    4.7728   -1.7793    0.1264 C   0  0  0  0  0  0  0  0  0  0  0  0
    5.4489   -3.3142    0.5127 Cl  0  0  0  0  0  0  0  0  0  0  0  0
    3.7450   -1.2612    0.9140 C   0  0  0  0  0  0  0  0  0  0  0  0
   -0.9507   -0.5966    1.4295 N   0  0  0  0  0  0  0  0  0  0  0  0
   -2.1410   -0.5930    0.6004 C   0  0  0  0  0  0  0  0  0  0  0  0
   -2.1675    0.5781   -0.3893 C   0  0  0  0  0  0  0  0  0  0  0  0
   -3.2119    0.4250   -1.3862 N   0  0  0  0  0  0  0  0  0  0  0  0
   -4.4926    0.8910   -1.2264 C   0  0  0  0  0  0  0  0  0  0  0  0
   -4.8081    1.5718   -0.0916 O   0  0  0  0  0  0  0  0  0  0  0  0
   -5.3186    0.6050   -2.2392 C   0  0  0  0  0  0  0  0  0  0  0  0
   -4.5053   -0.3073   -3.4757 S   0  0  0  0  0  0  0  0  0  0  0  0
   -2.9946   -0.3017   -2.5449 C   0  0  0  0  0  0  0  0  0  0  0  0
   -1.9755   -0.8713   -2.8989 O   0  0  0  0  0  0  0  0  0  0  0  0
    0.8473    1.2220    3.5284 H   0  0  0  0  0  0  0  0  0  0  0  0
    0.4915   -0.4432    4.0082 H   0  0  0  0  0  0  0  0  0  0  0  0
    3.2686    1.6779   -0.7554 H   0  0  0  0  0  0  0  0  0  0  0  0
    5.0912    0.7365   -2.1381 H   0  0  0  0  0  0  0  0  0  0  0  0
    6.0598   -1.4769   -1.5811 H   0  0  0  0  0  0  0  0  0  0  0  0
    3.3871   -1.8327    1.7659 H   0  0  0  0  0  0  0  0  0  0  0  0
   -0.1341   -1.0984    1.1015 H   0  0  0  0  0  0  0  0  0  0  0  0
   -3.0244   -0.5592    1.2482 H   0  0  0  0  0  0  0  0  0  0  0  0
   -2.1554   -1.5506    0.0687 H   0  0  0  0  0  0  0  0  0  0  0  0
   -2.2834    1.5360    0.1308 H   0  0  0  0  0  0  0  0  0  0  0  0
   -1.2041    0.6252   -0.9132 H   0  0  0  0  0  0  0  0  0  0  0  0
   -5.7390    1.8464   -0.1385 H   0  0  0  0  0  0  0  0  0  0  0  0
   -6.3611    0.8770   -2.3113 H   0  0  0  0  0  0  0  0  0  0  0  0
  1  2  2  0
  2  3  1  0
  3  4  1  0
  4  5  1  0
  5  6  2  0
  5  7  1  0
  7  8  2  0
  8  9  1  0
  9 10  2  0
 10 11  1  0
 11 12  1  0
 11 13  2  0
  2 14  1  0
 14 15  1  0
 15 16  1  0
 16 17  1  0
 17 18  1  0
 18 19  1  0
 18 20  2  0
 20 21  1  0
 21 22  1  0
 22 23  2  0
 13  7  1  0
 22 17  1  0
  3 24  1  0
  3 25  1  0
  8 26  1  0
  9 27  1  0
 10 28  1  0
 13 29  1  0
 14 30  1  0
 15 31  1  0
 15 32  1  0
 16 33  1  0
 16 34  1  0
 19 35  1  0
 20 36  1  0
M  END
$$$$
