
     RDKit          3D

 55 57  0  0  0  0  0  0  0  0999 V2000
   -5.5719   -1.8122   -1.6003 C   0  0  0  0  0  0  0  0  0  0  0  0
   -4.6094   -0.7721   -1.4836 O   0  0  0  0  0  0  0  0  0  0  0  0
   -4.5575   -0.0882   -0.2924 C   0  0  0  0  0  0  0  0  0  0  0  0
   -5.1612   -0.5249    0.8941 C   0  0  0  0  0  0  0  0  0  0  0  0
   -5.0215    0.2202    2.0715 C   0  0  0  0  0  0  0  0  0  0  0  0
   -5.6494   -0.1979    3.3614 C   0  0  0  0  0  0  0  0  0  0  0  0
   -6.4369   -1.4809    3.4121 C   0  0  0  0  0  0  0  0  0  0  0  0
   -5.5229    0.5081    4.3595 O   0  0  0  0  0  0  0  0  0  0  0  0
   -4.2680    1.3993    2.0529 C   0  0  0  0  0  0  0  0  0  0  0  0
   -3.6593    1.8390    0.8742 C   0  0  0  0  0  0  0  0  0  0  0  0
   -3.8016    1.1024   -0.3032 C   0  0  0  0  0  0  0  0  0  0  0  0
   -3.2596    1.4501   -1.5164 O   0  0  0  0  0  0  0  0  0  0  0  0
   -2.2595    2.4593   -1.5543 C   0  0  0  0  0  0  0  0  0  0  0  0
   -0.8898    2.0059   -1.0354 C   0  0  0  0  0  0  0  0  0  0  0  0
   -0.0711    2.8200   -0.6207 O   0  0  0  0  0  0  0  0  0  0  0  0
   -0.7071    0.6379   -1.1519 N   0  0  0  0  0  0  0  0  0  0  0  0
    0.4125   -0.1250   -0.7784 C   0  0  0  0  0  0  0  0  0  0  0  0
    0.3529   -1.4992   -1.0291 C   0  0  0  0  0  0  0  0  0  0  0  0
    1.4263   -2.3306   -0.6984 C   0  0  0  0  0  0  0  0  0  0  0  0
    2.5771   -1.8038   -0.1054 C   0  0  0  0  0  0  0  0  0  0  0  0
    3.8480   -2.9207    0.2337 Cl  0  0  0  0  0  0  0  0  0  0  0  0
    2.6375   -0.4341    0.1554 C   0  0  0  0  0  0  0  0  0  0  0  0
    4.0532    0.2914    0.9345 S   0  0  0  0  0  6  0  0  0  0  0  0
    4.3276   -0.4559    2.1423 O   0  0  0  0  0  0  0  0  0  0  0  0
    3.8727    1.7279    0.9860 O   0  0  0  0  0  0  0  0  0  0  0  0
    5.3044    0.0106   -0.1865 N   0  0  0  0  0  0  0  0  0  0  0  0
    5.1966    0.7416   -1.4905 C   0  0  0  0  0  0  0  0  0  0  0  0
    6.2214    1.8764   -1.5709 C   0  0  0  0  0  0  0  0  0  0  0  0
    7.5769    1.4108   -1.4957 O   0  0  0  0  0  0  0  0  0  0  0  0
    7.7292    0.2370   -0.6834 C   0  0  0  0  0  0  0  0  0  0  0  0
    6.6713    0.1225    0.4173 C   0  0  0  0  0  0  0  0  0  0  0  0
    1.5566    0.4035   -0.1789 C   0  0  0  0  0  0  0  0  0  0  0  0
   -5.2973   -2.6697   -0.9773 H   0  0  0  0  0  0  0  0  0  0  0  0
   -6.5787   -1.4537   -1.3598 H   0  0  0  0  0  0  0  0  0  0  0  0
   -5.5773   -2.1472   -2.6424 H   0  0  0  0  0  0  0  0  0  0  0  0
   -5.7302   -1.4461    0.9069 H   0  0  0  0  0  0  0  0  0  0  0  0
   -5.8072   -2.3266    3.1245 H   0  0  0  0  0  0  0  0  0  0  0  0
   -7.3166   -1.4094    2.7669 H   0  0  0  0  0  0  0  0  0  0  0  0
   -6.7797   -1.6513    4.4373 H   0  0  0  0  0  0  0  0  0  0  0  0
   -4.1484    1.9879    2.9622 H   0  0  0  0  0  0  0  0  0  0  0  0
   -3.0910    2.7623    0.9219 H   0  0  0  0  0  0  0  0  0  0  0  0
   -2.1162    2.7223   -2.6090 H   0  0  0  0  0  0  0  0  0  0  0  0
   -2.5824    3.3750   -1.0487 H   0  0  0  0  0  0  0  0  0  0  0  0
   -1.5071    0.1328   -1.5269 H   0  0  0  0  0  0  0  0  0  0  0  0
   -0.5271   -1.9436   -1.4892 H   0  0  0  0  0  0  0  0  0  0  0  0
    1.3562   -3.3961   -0.9094 H   0  0  0  0  0  0  0  0  0  0  0  0
    5.3813    0.0084   -2.2846 H   0  0  0  0  0  0  0  0  0  0  0  0
    4.1891    1.1376   -1.6480 H   0  0  0  0  0  0  0  0  0  0  0  0
    6.1144    2.4132   -2.5186 H   0  0  0  0  0  0  0  0  0  0  0  0
    6.0675    2.6019   -0.7645 H   0  0  0  0  0  0  0  0  0  0  0  0
    8.7309    0.2715   -0.2429 H   0  0  0  0  0  0  0  0  0  0  0  0
    7.6909   -0.6350   -1.3461 H   0  0  0  0  0  0  0  0  0  0  0  0
    6.8655   -0.7716    1.0189 H   0  0  0  0  0  0  0  0  0  0  0  0
    6.7202    1.0074    1.0623 H   0  0  0  0  0  0  0  0  0  0  0  0
    1.6257    1.4643    0.0472 H   0  0  0  0  0  0  0  0  0  0  0  0
  1  2  1  0
  2  3  1  0
  3  4  2  0
  4  5  1  0
  5  6  1  0
  6  7  1  0
  6  8  2  0
  5  9  2  0
  9 10  1  0
 10 11  2  0
 11 12  1  0
 12 13  1  0
 13 14  1  0
 14 15  2  0
 14 16  1  0
 16 17  1  0
 17 18  2  0
 18 19  1  0
 19 20  2  0
 20 21  1  0
 20 22  1  0
 22 23  1  0
 23 24  2  0
 23 25  2  0
 23 26  1  0
 26 27  1  0
 27 28  1  0
 28 29  1  0
 29 30  1  0
 30 31  1  0
 22 32  2  0
 11  3  1  0
 32 17  1  0
 31 26  1  0
  1 33  1  0
  1 34  1  0
  1 35  1  0
  4 36  1  0
  7 37  1  0
  7 38  1  0
  7 39  1  0
  9 40  1  0
 10 41  1  0
 13 42  1  0
 13 43  1  0
 16 44  1  0
 18 45  1  0
 19 46  1  0
 27 47  1  0
 27 48  1  0
 28 49  1  0
 28 50  1  0
 30 51  1  0
 30 52  1  0
 31 53  1  0
 31 54  1  0
 32 55  1  0
M  END
$$$$
