
     RDKit          3D

 71 77  0  0  0  0  0  0  0  0999 V2000
    3.7326    3.4921    2.0873 C   0  0  0  0  0  0  0  0  0  0  0  0
    4.5085    2.8895    1.0611 O   0  0  0  0  0  0  0  0  0  0  0  0
    3.7811    1.9082    0.3216 C   0  0  0  0  0  0  0  0  0  0  0  0
    3.4751    0.5820    1.0965 C   0  0  0  0  0  0  0  0  0  0  0  0
    4.0547    0.3202    2.1561 O   0  0  0  0  0  0  0  0  0  0  0  0
    2.4889   -0.2709    0.5945 N   0  0  0  0  0  0  0  0  0  0  0  0
    2.2674   -1.5427    1.2751 C   0  0  0  0  0  0  0  0  0  0  0  0
    0.7814   -1.9140    1.2415 C   0  0  0  0  0  0  0  0  0  0  0  0
    0.2360   -2.0775   -0.1227 N   0  0  0  0  0  0  0  0  0  0  0  0
    0.6007   -0.8774   -0.9900 C   0  0  2  0  0  0  0  0  0  0  0  0
    1.9964   -0.2466   -0.7826 C   0  0  0  0  0  0  0  0  0  0  0  0
   -0.5705    0.0243   -0.7804 C   0  0  0  0  0  0  0  0  0  0  0  0
   -1.6666   -0.7016   -0.2989 C   0  0  0  0  0  0  0  0  0  0  0  0
   -2.7243    0.1565   -0.1334 C   0  0  0  0  0  0  0  0  0  0  0  0
   -3.9439   -0.0782    0.3452 O   0  0  0  0  0  0  0  0  0  0  0  0
   -2.2867    1.4472   -0.5124 N   0  0  0  0  0  0  0  0  0  0  0  0
   -3.0562    2.6624   -0.4627 C   0  0  0  0  0  0  0  0  0  0  0  0
   -4.4580    2.6330   -0.4923 C   0  0  0  0  0  0  0  0  0  0  0  0
   -5.2001    3.8182   -0.4404 C   0  0  0  0  0  0  0  0  0  0  0  0
   -4.5533    5.0471   -0.3563 C   0  0  0  0  0  0  0  0  0  0  0  0
   -3.1632    5.0927   -0.3243 C   0  0  0  0  0  0  0  0  0  0  0  0
   -2.4185    3.9095   -0.3771 C   0  0  0  0  0  0  0  0  0  0  0  0
   -0.9544    1.3248   -0.9709 C   0  0  0  0  0  0  0  0  0  0  0  0
   -0.2958    2.3322   -1.5393 O   0  0  0  0  0  0  0  0  0  0  0  0
   -1.2827   -2.1251   -0.1378 C   0  0  1  0  0  0  0  0  0  0  0  0
   -1.7289   -3.0001   -1.3626 C   0  0  0  0  0  0  0  0  0  0  0  0
   -1.4444   -2.8644   -2.5439 O   0  0  0  0  0  0  0  0  0  0  0  0
   -2.5379   -4.0161   -0.8643 N   0  0  0  0  0  0  0  0  0  0  0  0
   -2.7437   -3.8933    0.5050 C   0  0  0  0  0  0  0  0  0  0  0  0
   -2.0518   -2.7702    0.9916 C   0  0  0  0  0  0  0  0  0  0  0  0
   -2.1945   -2.4026    2.3227 C   0  0  0  0  0  0  0  0  0  0  0  0
   -2.9881   -3.1944    3.1550 C   0  0  0  0  0  0  0  0  0  0  0  0
   -3.6447   -4.3340    2.6572 C   0  0  0  0  0  0  0  0  0  0  0  0
   -4.5982   -5.2501    3.7724 Cl  0  0  0  0  0  0  0  0  0  0  0  0
   -3.5436   -4.7049    1.3049 C   0  0  0  0  0  0  0  0  0  0  0  0
   -4.2581   -5.9110    0.7706 C   0  0  0  0  0  0  0  0  0  0  0  0
    4.6015    1.6587   -0.9371 C   0  0  0  0  0  0  0  0  0  0  0  0
    5.7029    0.7884   -0.9302 C   0  0  0  0  0  0  0  0  0  0  0  0
    6.4408    0.5667   -2.0943 C   0  0  0  0  0  0  0  0  0  0  0  0
    6.0987    1.2237   -3.2743 C   0  0  0  0  0  0  0  0  0  0  0  0
    5.0273    2.1139   -3.2898 C   0  0  0  0  0  0  0  0  0  0  0  0
    4.2877    2.3374   -2.1271 C   0  0  0  0  0  0  0  0  0  0  0  0
    3.4339    2.7595    2.8413 H   0  0  0  0  0  0  0  0  0  0  0  0
    2.8481    3.9786    1.6654 H   0  0  0  0  0  0  0  0  0  0  0  0
    4.3446    4.2556    2.5743 H   0  0  0  0  0  0  0  0  0  0  0  0
    2.8153    2.3485    0.0414 H   0  0  0  0  0  0  0  0  0  0  0  0
    2.8778   -2.3055    0.7768 H   0  0  0  0  0  0  0  0  0  0  0  0
    2.5956   -1.4887    2.3184 H   0  0  0  0  0  0  0  0  0  0  0  0
    0.2505   -1.1247    1.7866 H   0  0  0  0  0  0  0  0  0  0  0  0
    0.6570   -2.8545    1.7900 H   0  0  0  0  0  0  0  0  0  0  0  0
    0.5616   -1.2052   -2.0382 H   0  0  0  0  0  0  0  0  0  0  0  0
    2.7284   -0.8234   -1.3631 H   0  0  0  0  0  0  0  0  0  0  0  0
    2.0063    0.7692   -1.1753 H   0  0  0  0  0  0  0  0  0  0  0  0
   -4.0149   -1.0196    0.5792 H   0  0  0  0  0  0  0  0  0  0  0  0
   -5.0093    1.7038   -0.5938 H   0  0  0  0  0  0  0  0  0  0  0  0
   -6.2858    3.7766   -0.4730 H   0  0  0  0  0  0  0  0  0  0  0  0
   -5.1313    5.9662   -0.3163 H   0  0  0  0  0  0  0  0  0  0  0  0
   -2.6520    6.0490   -0.2521 H   0  0  0  0  0  0  0  0  0  0  0  0
   -1.3380    3.9952   -0.3137 H   0  0  0  0  0  0  0  0  0  0  0  0
    0.4137    1.9606   -2.0886 H   0  0  0  0  0  0  0  0  0  0  0  0
   -2.9400   -4.7132   -1.4729 H   0  0  0  0  0  0  0  0  0  0  0  0
   -1.7191   -1.5124    2.7243 H   0  0  0  0  0  0  0  0  0  0  0  0
   -3.0987   -2.9179    4.2022 H   0  0  0  0  0  0  0  0  0  0  0  0
   -5.3360   -5.8265    0.9488 H   0  0  0  0  0  0  0  0  0  0  0  0
   -4.1238   -6.0370   -0.3073 H   0  0  0  0  0  0  0  0  0  0  0  0
   -3.8796   -6.8188    1.2530 H   0  0  0  0  0  0  0  0  0  0  0  0
    6.0028    0.2860   -0.0113 H   0  0  0  0  0  0  0  0  0  0  0  0
    7.2909   -0.1103   -2.0756 H   0  0  0  0  0  0  0  0  0  0  0  0
    6.6801    1.0553   -4.1773 H   0  0  0  0  0  0  0  0  0  0  0  0
    4.7773    2.6446   -4.2049 H   0  0  0  0  0  0  0  0  0  0  0  0
    3.4712    3.0554   -2.1511 H   0  0  0  0  0  0  0  0  0  0  0  0
  1  2  1  0
  2  3  1  0
  3  4  1  0
  4  5  2  0
  4  6  1  0
  6  7  1  0
  7  8  1  0
  8  9  1  0
  9 10  1  0
 10 11  1  0
 10 12  1  0
 12 13  1  0
 13 14  2  0
 14 15  1  0
 14 16  1  0
 16 17  1  0
 17 18  2  0
 18 19  1  0
 19 20  2  0
 20 21  1  0
 21 22  2  0
 16 23  1  0
 23 24  1  0
 13 25  1  0
 25 26  1  0
 26 27  2  0
 26 28  1  0
 28 29  1  0
 29 30  2  0
 30 31  1  0
 31 32  2  0
 32 33  1  0
 33 34  1  0
 33 35  2  0
 35 36  1  0
  3 37  1  0
 37 38  2  0
 38 39  1  0
 39 40  2  0
 40 41  1  0
 41 42  2  0
 11  6  1  0
 23 12  2  0
 30 25  1  0
 42 37  1  0
 25  9  1  1
 35 29  1  0
 22 17  1  0
  1 43  1  0
  1 44  1  0
  1 45  1  0
  3 46  1  0
  7 47  1  0
  7 48  1  0
  8 49  1  0
  8 50  1  0
 10 51  1  6
 11 52  1  0
 11 53  1  0
 15 54  1  0
 18 55  1  0
 19 56  1  0
 20 57  1  0
 21 58  1  0
 22 59  1  0
 24 60  1  0
 28 61  1  0
 31 62  1  0
 32 63  1  0
 36 64  1  0
 36 65  1  0
 36 66  1  0
 38 67  1  0
 39 68  1  0
 40 69  1  0
 41 70  1  0
 42 71  1  0
M  END
$$$$
