
     RDKit          3D

 44 47  0  0  0  0  0  0  0  0999 V2000
   -5.8366   -0.6528    3.1299 C   0  0  0  0  0  0  0  0  0  0  0  0
   -5.4182   -1.1367    1.7502 C   0  0  0  0  0  0  0  0  0  0  0  0
   -4.7382   -0.0706    1.0707 O   0  0  0  0  0  0  0  0  0  0  0  0
   -3.4836   -0.4262    0.6542 C   0  0  0  0  0  0  0  0  0  0  0  0
   -2.4934   -0.7530    1.5819 C   0  0  0  0  0  0  0  0  0  0  0  0
   -1.2149   -1.1107    1.1459 C   0  0  0  0  0  0  0  0  0  0  0  0
   -0.9106   -1.1246   -0.2216 C   0  0  0  0  0  0  0  0  0  0  0  0
    0.4215   -1.5105   -0.6990 C   0  0  0  0  0  0  0  0  0  0  0  0
    1.5693   -0.8653   -0.4380 C   0  0  0  0  0  0  0  0  0  0  0  0
    1.7727    0.6007    0.5056 S   0  0  0  0  0  0  0  0  0  0  0  0
    3.4662    0.5201    0.2542 C   0  0  0  0  0  0  0  0  0  0  0  0
    4.4953    1.2141    0.6417 N   0  0  0  0  0  0  0  0  0  0  0  0
    5.5379    0.5213    0.0448 C   0  0  0  0  0  0  0  0  0  0  0  0
    7.0307    0.9576    0.2188 C   0  0  0  0  0  0  0  0  0  0  0  0
    8.1289    0.3310   -0.3417 C   0  0  0  0  0  0  0  0  0  0  0  0
    9.2717    1.0511    0.0840 C   0  0  0  0  0  0  0  0  0  0  0  0
    8.8028    2.0694    0.8821 C   0  0  0  0  0  0  0  0  0  0  0  0
    7.4483    2.0260    0.9643 O   0  0  0  0  0  0  0  0  0  0  0  0
    5.1708   -0.5574   -0.6801 N   0  0  0  0  0  0  0  0  0  0  0  0
    3.8376   -0.5242   -0.5113 N   0  0  0  0  0  0  0  0  0  0  0  0
    2.8649   -1.3833   -0.9762 C   0  0  0  0  0  0  0  0  0  0  0  0
    3.0857   -2.3581   -1.6724 O   0  0  0  0  0  0  0  0  0  0  0  0
   -1.9036   -0.7869   -1.1495 C   0  0  0  0  0  0  0  0  0  0  0  0
   -3.1747   -0.4066   -0.7105 C   0  0  0  0  0  0  0  0  0  0  0  0
   -4.0950   -0.0963   -1.6789 O   0  0  0  0  0  0  0  0  0  0  0  0
   -4.4533    1.2888   -1.6284 C   0  0  0  0  0  0  0  0  0  0  0  0
   -5.0605    1.6649   -2.9715 C   0  0  0  0  0  0  0  0  0  0  0  0
   -4.9614   -0.3748    3.7275 H   0  0  0  0  0  0  0  0  0  0  0  0
   -6.4650    0.2421    3.0512 H   0  0  0  0  0  0  0  0  0  0  0  0
   -6.3932   -1.4308    3.6652 H   0  0  0  0  0  0  0  0  0  0  0  0
   -4.8226   -2.0550    1.8343 H   0  0  0  0  0  0  0  0  0  0  0  0
   -6.3115   -1.3814    1.1629 H   0  0  0  0  0  0  0  0  0  0  0  0
   -2.7080   -0.7254    2.6454 H   0  0  0  0  0  0  0  0  0  0  0  0
   -0.4638   -1.3784    1.8863 H   0  0  0  0  0  0  0  0  0  0  0  0
    0.4325   -2.4019   -1.3248 H   0  0  0  0  0  0  0  0  0  0  0  0
    8.0996   -0.5408   -0.9816 H   0  0  0  0  0  0  0  0  0  0  0  0
   10.3070    0.8520   -0.1581 H   0  0  0  0  0  0  0  0  0  0  0  0
    9.2769    2.8670    1.4365 H   0  0  0  0  0  0  0  0  0  0  0  0
   -1.6965   -0.7998   -2.2186 H   0  0  0  0  0  0  0  0  0  0  0  0
   -3.5724    1.9180   -1.4443 H   0  0  0  0  0  0  0  0  0  0  0  0
   -5.1983    1.4621   -0.8427 H   0  0  0  0  0  0  0  0  0  0  0  0
   -5.9375    1.0428   -3.1949 H   0  0  0  0  0  0  0  0  0  0  0  0
   -4.3404    1.5077   -3.7837 H   0  0  0  0  0  0  0  0  0  0  0  0
   -5.3671    2.7149   -2.9791 H   0  0  0  0  0  0  0  0  0  0  0  0
  1  2  1  0
  2  3  1  0
  3  4  1  0
  4  5  2  0
  5  6  1  0
  6  7  2  0
  7  8  1  0
  8  9  2  3
  9 10  1  0
 10 11  1  0
 11 12  2  0
 12 13  1  0
 13 14  1  0
 14 15  2  0
 15 16  1  0
 16 17  2  0
 17 18  1  0
 13 19  2  0
 19 20  1  0
 20 21  1  0
 21 22  2  0
  7 23  1  0
 23 24  2  0
 24 25  1  0
 25 26  1  0
 26 27  1  0
 24  4  1  0
 21  9  1  0
 20 11  1  0
 18 14  1  0
  1 28  1  0
  1 29  1  0
  1 30  1  0
  2 31  1  0
  2 32  1  0
  5 33  1  0
  6 34  1  0
  8 35  1  0
 15 36  1  0
 16 37  1  0
 17 38  1  0
 23 39  1  0
 26 40  1  0
 26 41  1  0
 27 42  1  0
 27 43  1  0
 27 44  1  0
M  END
$$$$
