
     RDKit          3D

 53 55  0  0  0  0  0  0  0  0999 V2000
   -6.6847    0.0899   -0.4318 C   0  0  0  0  0  0  0  0  0  0  0  0
   -6.3745   -0.4426    0.8498 O   0  0  0  0  0  0  0  0  0  0  0  0
   -5.0491   -0.5766    1.1596 C   0  0  0  0  0  0  0  0  0  0  0  0
   -4.7997   -1.0803    2.4415 C   0  0  0  0  0  0  0  0  0  0  0  0
   -3.4922   -1.2719    2.8922 C   0  0  0  0  0  0  0  0  0  0  0  0
   -2.4283   -0.9674    2.0429 C   0  0  0  0  0  0  0  0  0  0  0  0
   -0.7567   -1.1924    2.5874 S   0  0  0  0  0  6  0  0  0  0  0  0
    0.0276   -0.0920    2.0675 O   0  0  0  0  0  0  0  0  0  0  0  0
   -0.7574   -1.5135    3.9982 O   0  0  0  0  0  0  0  0  0  0  0  0
   -0.2880   -2.5808    1.7498 N   0  0  0  0  0  0  0  0  0  0  0  0
   -0.9004   -3.8588    2.1627 C   0  0  0  0  0  0  0  0  0  0  0  0
    0.2478   -4.6057    2.8011 C   0  0  0  0  0  0  0  0  0  0  0  0
    1.3797   -4.2047    2.0264 O   0  0  0  0  0  0  0  0  0  0  0  0
    1.1815   -2.8070    1.7494 C   0  0  0  0  0  0  0  0  0  0  0  0
    1.7814   -2.4790    0.3699 C   0  0  0  0  0  0  0  0  0  0  0  0
    1.5442   -1.1246   -0.0906 N   0  0  0  0  0  0  0  0  0  0  0  0
    1.9457   -0.7036   -1.3342 C   0  0  0  0  0  0  0  0  0  0  0  0
    2.6324   -1.3421   -2.1206 O   0  0  0  0  0  0  0  0  0  0  0  0
    1.4507    0.7104   -1.7145 C   0  0  0  0  0  0  0  0  0  0  0  0
    0.6009    1.2733   -1.0400 O   0  0  0  0  0  0  0  0  0  0  0  0
    2.0578    1.2144   -2.8400 N   0  0  0  0  0  0  0  0  0  0  0  0
    1.8737    2.5734   -3.2743 C   0  0  0  0  0  0  0  0  0  0  0  0
    2.9983    3.4489   -2.7835 C   0  0  0  0  0  0  0  0  0  0  0  0
    4.1172    3.6994   -3.5944 C   0  0  0  0  0  0  0  0  0  0  0  0
    5.1657    4.4916   -3.1231 C   0  0  0  0  0  0  0  0  0  0  0  0
    5.0996    5.0274   -1.8422 C   0  0  0  0  0  0  0  0  0  0  0  0
    6.1082    5.7856   -1.3924 F   0  0  0  0  0  0  0  0  0  0  0  0
    4.0065    4.7833   -1.0200 C   0  0  0  0  0  0  0  0  0  0  0  0
    2.9568    3.9917   -1.4881 C   0  0  0  0  0  0  0  0  0  0  0  0
   -2.6619   -0.4497    0.7657 C   0  0  0  0  0  0  0  0  0  0  0  0
   -3.9750   -0.2578    0.3251 C   0  0  0  0  0  0  0  0  0  0  0  0
   -6.3014    1.1104   -0.5378 H   0  0  0  0  0  0  0  0  0  0  0  0
   -7.7745    0.1326   -0.5206 H   0  0  0  0  0  0  0  0  0  0  0  0
   -6.3106   -0.5589   -1.2307 H   0  0  0  0  0  0  0  0  0  0  0  0
   -5.6360   -1.3205    3.0952 H   0  0  0  0  0  0  0  0  0  0  0  0
   -3.3197   -1.6534    3.8959 H   0  0  0  0  0  0  0  0  0  0  0  0
   -1.2417   -4.3691    1.2550 H   0  0  0  0  0  0  0  0  0  0  0  0
   -1.7530   -3.7618    2.8379 H   0  0  0  0  0  0  0  0  0  0  0  0
    0.1249   -5.6911    2.7583 H   0  0  0  0  0  0  0  0  0  0  0  0
    0.4076   -4.3017    3.8416 H   0  0  0  0  0  0  0  0  0  0  0  0
    1.6859   -2.2354    2.5372 H   0  0  0  0  0  0  0  0  0  0  0  0
    2.8642   -2.6533    0.3821 H   0  0  0  0  0  0  0  0  0  0  0  0
    1.3759   -3.1630   -0.3873 H   0  0  0  0  0  0  0  0  0  0  0  0
    0.9706   -0.4818    0.4636 H   0  0  0  0  0  0  0  0  0  0  0  0
    2.8025    0.6521   -3.2413 H   0  0  0  0  0  0  0  0  0  0  0  0
    1.8423    2.5679   -4.3694 H   0  0  0  0  0  0  0  0  0  0  0  0
    0.9109    2.9615   -2.9228 H   0  0  0  0  0  0  0  0  0  0  0  0
    4.1790    3.2784   -4.5958 H   0  0  0  0  0  0  0  0  0  0  0  0
    6.0336    4.6915   -3.7439 H   0  0  0  0  0  0  0  0  0  0  0  0
    3.9794    5.2046   -0.0199 H   0  0  0  0  0  0  0  0  0  0  0  0
    2.1065    3.7917   -0.8375 H   0  0  0  0  0  0  0  0  0  0  0  0
   -1.8314   -0.1879    0.1117 H   0  0  0  0  0  0  0  0  0  0  0  0
   -4.1233    0.1463   -0.6714 H   0  0  0  0  0  0  0  0  0  0  0  0
  1  2  1  0
  2  3  1  0
  3  4  2  0
  4  5  1  0
  5  6  2  0
  6  7  1  0
  7  8  2  0
  7  9  2  0
  7 10  1  0
 10 11  1  0
 11 12  1  0
 12 13  1  0
 13 14  1  0
 14 15  1  0
 15 16  1  0
 16 17  1  0
 17 18  2  0
 17 19  1  0
 19 20  2  0
 19 21  1  0
 21 22  1  0
 22 23  1  0
 23 24  2  0
 24 25  1  0
 25 26  2  0
 26 27  1  0
 26 28  1  0
 28 29  2  0
  6 30  1  0
 30 31  2  0
 31  3  1  0
 14 10  1  0
 29 23  1  0
  1 32  1  0
  1 33  1  0
  1 34  1  0
  4 35  1  0
  5 36  1  0
 11 37  1  0
 11 38  1  0
 12 39  1  0
 12 40  1  0
 14 41  1  0
 15 42  1  0
 15 43  1  0
 16 44  1  0
 21 45  1  0
 22 46  1  0
 22 47  1  0
 24 48  1  0
 25 49  1  0
 28 50  1  0
 29 51  1  0
 30 52  1  0
 31 53  1  0
M  END
$$$$
