
     RDKit          3D

 57 61  0  0  0  0  0  0  0  0999 V2000
    5.6753   -0.2022   -0.5057 C   0  0  0  0  0  0  0  0  0  0  0  0
    4.8850    1.0759   -0.2293 C   0  0  0  0  0  0  0  0  0  0  0  0
    5.8443    2.2144    0.1239 C   0  0  0  0  0  0  0  0  0  0  0  0
    3.8933    0.8343    0.9107 C   0  0  0  0  0  0  0  0  0  0  0  0
    4.1995    1.1068    2.0740 O   0  0  0  0  0  0  0  0  0  0  0  0
    2.6645    0.2578    0.6010 N   0  0  0  0  0  0  0  0  0  0  0  0
    1.7056    0.0639    1.6872 C   0  0  0  0  0  0  0  0  0  0  0  0
    0.2705    0.2165    1.1921 C   0  0  0  0  0  0  0  0  0  0  0  0
   -0.0881   -0.8611    0.1322 C   0  0  0  0  0  0  0  0  0  0  0  0
    1.1722   -1.1832   -0.7294 C   0  0  0  0  0  0  0  0  0  0  0  0
    2.1902   -0.0476   -0.7485 C   0  0  0  0  0  0  0  0  0  0  0  0
   -0.4246   -2.0362    0.9186 O   0  0  0  0  0  0  0  0  0  0  0  0
   -1.0070   -3.0696    0.2421 C   0  0  0  0  0  0  0  0  0  0  0  0
   -0.9667   -4.3152    0.8705 C   0  0  0  0  0  0  0  0  0  0  0  0
   -1.5238   -5.4302    0.2426 C   0  0  0  0  0  0  0  0  0  0  0  0
   -2.1218   -5.2896   -1.0057 C   0  0  0  0  0  0  0  0  0  0  0  0
   -2.6543   -6.3622   -1.6041 F   0  0  0  0  0  0  0  0  0  0  0  0
   -2.1828   -4.0535   -1.6359 C   0  0  0  0  0  0  0  0  0  0  0  0
   -1.6292   -2.9399   -0.9986 C   0  0  0  0  0  0  0  0  0  0  0  0
   -1.7182   -1.6051   -1.6170 C   0  0  0  0  0  0  0  0  0  0  0  0
   -2.1461   -1.4971   -2.7617 O   0  0  0  0  0  0  0  0  0  0  0  0
   -1.3085   -0.4322   -0.7311 C   0  0  0  0  0  0  0  0  0  0  0  0
   -2.5455    0.0178    0.0370 C   0  0  0  0  0  0  0  0  0  0  0  0
   -2.4728    1.4826   -0.2186 C   0  0  0  0  0  0  0  0  0  0  0  0
   -3.3515    2.4473    0.4839 C   0  0  0  0  0  0  0  0  0  0  0  0
   -4.3623    2.0189    1.3530 C   0  0  0  0  0  0  0  0  0  0  0  0
   -5.1710    2.9578    2.0026 C   0  0  0  0  0  0  0  0  0  0  0  0
   -4.9716    4.3202    1.7836 C   0  0  0  0  0  0  0  0  0  0  0  0
   -5.9688    5.4689    2.5857 Cl  0  0  0  0  0  0  0  0  0  0  0  0
   -3.9708    4.7550    0.9182 C   0  0  0  0  0  0  0  0  0  0  0  0
   -3.1617    3.8192    0.2678 C   0  0  0  0  0  0  0  0  0  0  0  0
   -1.5896    1.8408   -1.0937 N   0  0  0  0  0  0  0  0  0  0  0  0
   -0.9545    0.6733   -1.5703 O   0  0  0  0  0  0  0  0  0  0  0  0
    6.3536   -0.0627   -1.3540 H   0  0  0  0  0  0  0  0  0  0  0  0
    6.2762   -0.4888    0.3650 H   0  0  0  0  0  0  0  0  0  0  0  0
    5.0207   -1.0487   -0.7330 H   0  0  0  0  0  0  0  0  0  0  0  0
    4.3404    1.3844   -1.1274 H   0  0  0  0  0  0  0  0  0  0  0  0
    6.5150    2.4303   -0.7144 H   0  0  0  0  0  0  0  0  0  0  0  0
    5.2894    3.1296    0.3579 H   0  0  0  0  0  0  0  0  0  0  0  0
    6.4613    1.9689    0.9955 H   0  0  0  0  0  0  0  0  0  0  0  0
    1.8747   -0.9373    2.1005 H   0  0  0  0  0  0  0  0  0  0  0  0
    1.8901    0.7853    2.4906 H   0  0  0  0  0  0  0  0  0  0  0  0
   -0.4021    0.1441    2.0552 H   0  0  0  0  0  0  0  0  0  0  0  0
    0.1698    1.2265    0.7806 H   0  0  0  0  0  0  0  0  0  0  0  0
    0.8977   -1.4226   -1.7629 H   0  0  0  0  0  0  0  0  0  0  0  0
    1.6666   -2.0829   -0.3376 H   0  0  0  0  0  0  0  0  0  0  0  0
    3.0232   -0.3295   -1.3951 H   0  0  0  0  0  0  0  0  0  0  0  0
    1.7552    0.8693   -1.1617 H   0  0  0  0  0  0  0  0  0  0  0  0
   -0.4913   -4.4221    1.8429 H   0  0  0  0  0  0  0  0  0  0  0  0
   -1.4925   -6.4072    0.7161 H   0  0  0  0  0  0  0  0  0  0  0  0
   -2.6650   -3.9680   -2.6058 H   0  0  0  0  0  0  0  0  0  0  0  0
   -3.4808   -0.3666   -0.3849 H   0  0  0  0  0  0  0  0  0  0  0  0
   -2.5101   -0.2206    1.1023 H   0  0  0  0  0  0  0  0  0  0  0  0
   -4.5475    0.9649    1.5376 H   0  0  0  0  0  0  0  0  0  0  0  0
   -5.9558    2.6208    2.6756 H   0  0  0  0  0  0  0  0  0  0  0  0
   -3.8142    5.8163    0.7428 H   0  0  0  0  0  0  0  0  0  0  0  0
   -2.3839    4.1702   -0.4086 H   0  0  0  0  0  0  0  0  0  0  0  0
  1  2  1  0
  2  3  1  0
  2  4  1  0
  4  5  2  0
  4  6  1  0
  6  7  1  0
  7  8  1  0
  8  9  1  0
  9 10  1  0
 10 11  1  0
  9 12  1  0
 12 13  1  0
 13 14  2  0
 14 15  1  0
 15 16  2  0
 16 17  1  0
 16 18  1  0
 18 19  2  0
 19 20  1  0
 20 21  2  0
 20 22  1  0
 22 23  1  0
 23 24  1  0
 24 25  1  0
 25 26  2  0
 26 27  1  0
 27 28  2  0
 28 29  1  0
 28 30  1  0
 30 31  2  0
 24 32  2  0
 32 33  1  0
 11  6  1  0
 19 13  1  0
 33 22  1  0
 22  9  1  0
 31 25  1  0
  1 34  1  0
  1 35  1  0
  1 36  1  0
  2 37  1  0
  3 38  1  0
  3 39  1  0
  3 40  1  0
  7 41  1  0
  7 42  1  0
  8 43  1  0
  8 44  1  0
 10 45  1  0
 10 46  1  0
 11 47  1  0
 11 48  1  0
 14 49  1  0
 15 50  1  0
 18 51  1  0
 23 52  1  0
 23 53  1  0
 26 54  1  0
 27 55  1  0
 30 56  1  0
 31 57  1  0
M  END
$$$$
