
     RDKit          3D

 55 58  0  0  0  0  0  0  0  0999 V2000
    4.0287   -3.4139    0.2133 C   0  0  0  0  0  0  0  0  0  0  0  0
    3.2288   -2.2323    0.0259 N   0  0  0  0  0  0  0  0  0  0  0  0
    3.3021   -1.3249   -1.0080 C   0  0  0  0  0  0  0  0  0  0  0  0
    4.2897   -1.3623   -2.1309 C   0  0  0  0  0  0  0  0  0  0  0  0
    5.6886   -0.9842   -1.6912 C   0  0  0  0  0  0  0  0  0  0  0  0
    5.9306    0.2419   -1.0478 C   0  0  0  0  0  0  0  0  0  0  0  0
    7.2169    0.5826   -0.6282 C   0  0  0  0  0  0  0  0  0  0  0  0
    8.2799   -0.2916   -0.8589 C   0  0  0  0  0  0  0  0  0  0  0  0
    8.0586   -1.5019   -1.5162 C   0  0  0  0  0  0  0  0  0  0  0  0
    6.7701   -1.8476   -1.9341 C   0  0  0  0  0  0  0  0  0  0  0  0
    2.4006   -0.3783   -0.8039 N   0  0  0  0  0  0  0  0  0  0  0  0
    1.7688   -0.6356    0.3847 N   0  0  0  0  0  0  0  0  0  0  0  0
    2.2807   -1.7386    0.8777 C   0  0  0  0  0  0  0  0  0  0  0  0
    1.8720   -2.4593    2.3931 S   0  0  0  0  0  0  0  0  0  0  0  0
    1.1882   -1.0330    3.2796 C   0  0  0  0  0  0  0  0  0  0  0  0
   -0.3021   -0.8862    3.0219 C   0  0  0  0  0  0  0  0  0  0  0  0
   -1.1205   -1.3560    3.8108 O   0  0  0  0  0  0  0  0  0  0  0  0
   -0.5907   -0.1821    1.8655 N   0  0  0  0  0  0  0  0  0  0  0  0
   -1.8536    0.2311    1.4022 C   0  0  0  0  0  0  0  0  0  0  0  0
   -1.9148    0.8127    0.1355 C   0  0  0  0  0  0  0  0  0  0  0  0
   -3.1406    1.2644   -0.3867 C   0  0  0  0  0  0  0  0  0  0  0  0
   -4.3379    1.1717    0.3373 C   0  0  0  0  0  0  0  0  0  0  0  0
   -5.5488    1.6265   -0.1642 N   0  0  0  0  0  0  0  0  0  0  0  0
   -5.7483    1.9060   -1.5954 C   0  0  0  0  0  0  0  0  0  0  0  0
   -7.2530    1.9380   -1.9200 C   0  0  0  0  0  0  0  0  0  0  0  0
   -7.9862    2.9326   -1.1870 O   0  0  0  0  0  0  0  0  0  0  0  0
   -7.4241    3.2133    0.1058 C   0  0  0  0  0  0  0  0  0  0  0  0
   -6.6498    2.0366    0.7256 C   0  0  0  0  0  0  0  0  0  0  0  0
   -4.2446    0.5784    1.6055 C   0  0  0  0  0  0  0  0  0  0  0  0
   -3.0296    0.1171    2.1345 C   0  0  0  0  0  0  0  0  0  0  0  0
    4.5405   -3.6776   -0.7141 H   0  0  0  0  0  0  0  0  0  0  0  0
    3.3778   -4.2439    0.4967 H   0  0  0  0  0  0  0  0  0  0  0  0
    4.7572   -3.2118    0.9998 H   0  0  0  0  0  0  0  0  0  0  0  0
    3.9774   -0.6670   -2.9197 H   0  0  0  0  0  0  0  0  0  0  0  0
    4.2908   -2.3577   -2.5909 H   0  0  0  0  0  0  0  0  0  0  0  0
    5.1084    0.9378   -0.8664 H   0  0  0  0  0  0  0  0  0  0  0  0
    7.3942    1.5283   -0.1202 H   0  0  0  0  0  0  0  0  0  0  0  0
    9.2827   -0.0240   -0.5298 H   0  0  0  0  0  0  0  0  0  0  0  0
    8.8933   -2.1739   -1.6954 H   0  0  0  0  0  0  0  0  0  0  0  0
    6.6170   -2.7925   -2.4537 H   0  0  0  0  0  0  0  0  0  0  0  0
    1.7150   -0.1061    3.0305 H   0  0  0  0  0  0  0  0  0  0  0  0
    1.3286   -1.1936    4.3544 H   0  0  0  0  0  0  0  0  0  0  0  0
    0.1907   -0.0305    1.2229 H   0  0  0  0  0  0  0  0  0  0  0  0
   -1.0151    0.9258   -0.4675 H   0  0  0  0  0  0  0  0  0  0  0  0
   -3.1254    1.7201   -1.3723 H   0  0  0  0  0  0  0  0  0  0  0  0
   -5.2812    1.1305   -2.2139 H   0  0  0  0  0  0  0  0  0  0  0  0
   -5.2977    2.8750   -1.8390 H   0  0  0  0  0  0  0  0  0  0  0  0
   -7.4040    2.1376   -2.9869 H   0  0  0  0  0  0  0  0  0  0  0  0
   -7.7109    0.9648   -1.7031 H   0  0  0  0  0  0  0  0  0  0  0  0
   -6.7645    4.0833   -0.0025 H   0  0  0  0  0  0  0  0  0  0  0  0
   -8.2498    3.5087    0.7638 H   0  0  0  0  0  0  0  0  0  0  0  0
   -7.3205    1.1821    0.8678 H   0  0  0  0  0  0  0  0  0  0  0  0
   -6.2792    2.3616    1.7051 H   0  0  0  0  0  0  0  0  0  0  0  0
   -5.1369    0.4281    2.2072 H   0  0  0  0  0  0  0  0  0  0  0  0
   -3.0478   -0.3302    3.1233 H   0  0  0  0  0  0  0  0  0  0  0  0
  1  2  1  0
  2  3  1  0
  3  4  1  0
  4  5  1  0
  5  6  2  0
  6  7  1  0
  7  8  2  0
  8  9  1  0
  9 10  2  0
  3 11  2  0
 11 12  1  0
 12 13  2  0
 13 14  1  0
 14 15  1  0
 15 16  1  0
 16 17  2  0
 16 18  1  0
 18 19  1  0
 19 20  2  0
 20 21  1  0
 21 22  2  0
 22 23  1  0
 23 24  1  0
 24 25  1  0
 25 26  1  0
 26 27  1  0
 27 28  1  0
 22 29  1  0
 29 30  2  0
 13  2  1  0
 30 19  1  0
 10  5  1  0
 28 23  1  0
  1 31  1  0
  1 32  1  0
  1 33  1  0
  4 34  1  0
  4 35  1  0
  6 36  1  0
  7 37  1  0
  8 38  1  0
  9 39  1  0
 10 40  1  0
 15 41  1  0
 15 42  1  0
 18 43  1  0
 20 44  1  0
 21 45  1  0
 24 46  1  0
 24 47  1  0
 25 48  1  0
 25 49  1  0
 27 50  1  0
 27 51  1  0
 28 52  1  0
 28 53  1  0
 29 54  1  0
 30 55  1  0
M  END
$$$$
