
     RDKit          3D

 57 60  0  0  0  0  0  0  0  0999 V2000
    5.1038    2.8634    1.1468 C   0  0  0  0  0  0  0  0  0  0  0  0
    4.2302    1.8189    0.5351 C   0  0  0  0  0  0  0  0  0  0  0  0
    2.8530    1.8415    0.4379 C   0  0  0  0  0  0  0  0  0  0  0  0
    2.4287    0.6128   -0.1090 C   0  0  0  0  0  0  0  0  0  0  0  0
    1.0881    0.1884   -0.3722 C   0  0  0  0  0  0  0  0  0  0  0  0
   -0.0100    0.9455   -0.2079 C   0  0  0  0  0  0  0  0  0  0  0  0
   -1.3616    0.4494   -0.4868 C   0  0  0  0  0  0  0  0  0  0  0  0
   -1.6945    0.1209   -1.8018 C   0  0  0  0  0  0  0  0  0  0  0  0
   -2.9789   -0.2899   -2.1092 C   0  0  0  0  0  0  0  0  0  0  0  0
   -3.9405   -0.3476   -1.1053 C   0  0  0  0  0  0  0  0  0  0  0  0
   -5.2598   -0.7403   -1.4114 C   0  0  0  0  0  0  0  0  0  0  0  0
   -6.2832   -0.7991   -0.4513 C   0  0  0  0  0  0  0  0  0  0  0  0
   -7.5739   -1.2134   -0.7662 N   0  0  0  0  0  0  0  0  0  0  0  0
   -8.6596   -1.0476    0.2022 C   0  0  0  0  0  0  0  0  0  0  0  0
   -7.9916   -1.3277   -2.1654 C   0  0  0  0  0  0  0  0  0  0  0  0
   -5.9100   -0.4490    0.8525 C   0  0  0  0  0  0  0  0  0  0  0  0
   -4.6026   -0.0572    1.1852 C   0  0  0  0  0  0  0  0  0  0  0  0
   -3.5875   -0.0061    0.2202 C   0  0  0  0  0  0  0  0  0  0  0  0
   -2.2939    0.3589    0.5052 N   0  0  0  0  0  4  0  0  0  0  0  0
   -1.9079    0.6291    1.9120 C   0  0  0  0  0  0  0  0  0  0  0  0
    3.5644   -0.1376   -0.3768 C   0  0  0  0  0  0  0  0  0  0  0  0
    3.6774   -1.4587   -1.0735 C   0  0  0  0  0  0  0  0  0  0  0  0
    4.6800    0.5950    0.0467 N   0  0  0  0  0  0  0  0  0  0  0  0
    6.0375    0.1616    0.0016 C   0  0  0  0  0  0  0  0  0  0  0  0
    6.3788   -1.1239    0.4409 C   0  0  0  0  0  0  0  0  0  0  0  0
    7.7095   -1.5451    0.4005 C   0  0  0  0  0  0  0  0  0  0  0  0
    8.7000   -0.6892   -0.0786 C   0  0  0  0  0  0  0  0  0  0  0  0
    8.3637    0.5905   -0.5174 C   0  0  0  0  0  0  0  0  0  0  0  0
    7.0354    1.0192   -0.4771 C   0  0  0  0  0  0  0  0  0  0  0  0
    4.5122    3.5278    1.7865 H   0  0  0  0  0  0  0  0  0  0  0  0
    5.8824    2.4238    1.7773 H   0  0  0  0  0  0  0  0  0  0  0  0
    5.5666    3.4838    0.3741 H   0  0  0  0  0  0  0  0  0  0  0  0
    2.2397    2.6717    0.7633 H   0  0  0  0  0  0  0  0  0  0  0  0
    0.9673   -0.8358   -0.7230 H   0  0  0  0  0  0  0  0  0  0  0  0
    0.0547    1.9723    0.1407 H   0  0  0  0  0  0  0  0  0  0  0  0
   -0.9548    0.1965   -2.5981 H   0  0  0  0  0  0  0  0  0  0  0  0
   -3.2250   -0.5449   -3.1399 H   0  0  0  0  0  0  0  0  0  0  0  0
   -5.4808   -1.0088   -2.4429 H   0  0  0  0  0  0  0  0  0  0  0  0
   -9.6073   -1.4388   -0.1841 H   0  0  0  0  0  0  0  0  0  0  0  0
   -8.4554   -1.6060    1.1221 H   0  0  0  0  0  0  0  0  0  0  0  0
   -8.8112    0.0108    0.4405 H   0  0  0  0  0  0  0  0  0  0  0  0
   -9.0313   -1.6630   -2.2503 H   0  0  0  0  0  0  0  0  0  0  0  0
   -7.3896   -2.0736   -2.6955 H   0  0  0  0  0  0  0  0  0  0  0  0
   -7.9141   -0.3615   -2.6760 H   0  0  0  0  0  0  0  0  0  0  0  0
   -6.6377   -0.4733    1.6611 H   0  0  0  0  0  0  0  0  0  0  0  0
   -4.4324    0.2052    2.2251 H   0  0  0  0  0  0  0  0  0  0  0  0
   -0.8261    0.6571    2.0436 H   0  0  0  0  0  0  0  0  0  0  0  0
   -2.3434    1.5912    2.1956 H   0  0  0  0  0  0  0  0  0  0  0  0
   -2.2821   -0.1848    2.5394 H   0  0  0  0  0  0  0  0  0  0  0  0
    3.6617   -2.2762   -0.3466 H   0  0  0  0  0  0  0  0  0  0  0  0
    2.8434   -1.6115   -1.7657 H   0  0  0  0  0  0  0  0  0  0  0  0
    4.5871   -1.5288   -1.6772 H   0  0  0  0  0  0  0  0  0  0  0  0
    5.6337   -1.7962    0.8565 H   0  0  0  0  0  0  0  0  0  0  0  0
    7.9771   -2.5390    0.7514 H   0  0  0  0  0  0  0  0  0  0  0  0
    9.7356   -1.0193   -0.1096 H   0  0  0  0  0  0  0  0  0  0  0  0
    9.1374    1.2528   -0.8991 H   0  0  0  0  0  0  0  0  0  0  0  0
    6.7974    2.0060   -0.8631 H   0  0  0  0  0  0  0  0  0  0  0  0
  1  2  1  0
  2  3  2  0
  3  4  1  0
  4  5  1  0
  5  6  2  3
  6  7  1  0
  7  8  2  0
  8  9  1  0
  9 10  2  0
 10 11  1  0
 11 12  2  0
 12 13  1  0
 13 14  1  0
 13 15  1  0
 12 16  1  0
 16 17  2  0
 17 18  1  0
 18 19  2  0
 19 20  1  0
  4 21  2  0
 21 22  1  0
 21 23  1  0
 23 24  1  0
 24 25  2  0
 25 26  1  0
 26 27  2  0
 27 28  1  0
 28 29  2  0
 23  2  1  0
 29 24  1  0
 19  7  1  0
 18 10  1  0
  1 30  1  0
  1 31  1  0
  1 32  1  0
  3 33  1  0
  5 34  1  0
  6 35  1  0
  8 36  1  0
  9 37  1  0
 11 38  1  0
 14 39  1  0
 14 40  1  0
 14 41  1  0
 15 42  1  0
 15 43  1  0
 15 44  1  0
 16 45  1  0
 17 46  1  0
 20 47  1  0
 20 48  1  0
 20 49  1  0
 22 50  1  0
 22 51  1  0
 22 52  1  0
 25 53  1  0
 26 54  1  0
 27 55  1  0
 28 56  1  0
 29 57  1  0
M  CHG  1  19   1
M  END
$$$$
