
     RDKit          3D

 43 45  0  0  0  0  0  0  0  0999 V2000
    6.5856   -1.9143   -0.0360 C   0  0  0  0  0  0  0  0  0  0  0  0
    5.6683   -0.7461    0.1787 C   0  0  0  0  0  0  0  0  0  0  0  0
    6.1895    0.5321    0.4091 C   0  0  0  0  0  0  0  0  0  0  0  0
    5.3381    1.6300    0.5683 C   0  0  0  0  0  0  0  0  0  0  0  0
    5.9001    2.9910    0.8549 C   0  0  0  0  0  0  0  0  0  0  0  0
    3.9514    1.4316    0.5110 C   0  0  0  0  0  0  0  0  0  0  0  0
    3.4110    0.1609    0.2701 C   0  0  0  0  0  0  0  0  0  0  0  0
    2.0043    0.0621    0.2082 N   0  0  0  0  0  0  0  0  0  0  0  0
    1.2477   -1.0858    0.0583 C   0  0  0  0  0  0  0  0  0  0  0  0
    1.6559   -2.2403    0.0217 O   0  0  0  0  0  0  0  0  0  0  0  0
   -0.2245   -0.8613   -0.0201 C   0  0  0  0  0  0  0  0  0  0  0  0
   -1.0778   -1.8244    0.5261 C   0  0  0  0  0  0  0  0  0  0  0  0
   -2.4643   -1.6486    0.4716 C   0  0  0  0  0  0  0  0  0  0  0  0
   -3.0197   -0.5136   -0.1344 C   0  0  0  0  0  0  0  0  0  0  0  0
   -4.4273   -0.4173   -0.1430 N   0  0  0  0  0  0  0  0  0  0  0  0
   -5.2091    0.6224   -0.6331 C   0  0  0  0  0  0  0  0  0  0  0  0
   -4.7530    1.6533   -1.1192 O   0  0  0  0  0  0  0  0  0  0  0  0
   -6.6449    0.3931   -0.5113 C   0  0  0  0  0  0  0  0  0  0  0  0
   -7.4153   -0.6751   -0.0765 C   0  0  0  0  0  0  0  0  0  0  0  0
   -8.7732   -0.2862   -0.2000 C   0  0  0  0  0  0  0  0  0  0  0  0
   -8.7591    0.9908   -0.7024 C   0  0  0  0  0  0  0  0  0  0  0  0
   -7.4847    1.4093   -0.8946 O   0  0  0  0  0  0  0  0  0  0  0  0
   -2.1623    0.4344   -0.6979 C   0  0  0  0  0  0  0  0  0  0  0  0
   -0.7724    0.2621   -0.6474 C   0  0  0  0  0  0  0  0  0  0  0  0
    4.2779   -0.9187    0.0945 C   0  0  0  0  0  0  0  0  0  0  0  0
    6.7984   -2.0312   -1.1030 H   0  0  0  0  0  0  0  0  0  0  0  0
    7.5306   -1.7740    0.4994 H   0  0  0  0  0  0  0  0  0  0  0  0
    6.1347   -2.8386    0.3400 H   0  0  0  0  0  0  0  0  0  0  0  0
    7.2676    0.6719    0.4634 H   0  0  0  0  0  0  0  0  0  0  0  0
    5.9965    3.1359    1.9353 H   0  0  0  0  0  0  0  0  0  0  0  0
    5.2520    3.7746    0.4485 H   0  0  0  0  0  0  0  0  0  0  0  0
    6.8851    3.1130    0.3921 H   0  0  0  0  0  0  0  0  0  0  0  0
    3.2942    2.2859    0.6548 H   0  0  0  0  0  0  0  0  0  0  0  0
    1.5028    0.9276    0.3560 H   0  0  0  0  0  0  0  0  0  0  0  0
   -0.6642   -2.7143    0.9973 H   0  0  0  0  0  0  0  0  0  0  0  0
   -3.0971   -2.4157    0.9110 H   0  0  0  0  0  0  0  0  0  0  0  0
   -4.9173   -1.1915    0.2798 H   0  0  0  0  0  0  0  0  0  0  0  0
   -7.0593   -1.6292    0.2836 H   0  0  0  0  0  0  0  0  0  0  0  0
   -9.6530   -0.8655    0.0438 H   0  0  0  0  0  0  0  0  0  0  0  0
   -9.5288    1.7028   -0.9674 H   0  0  0  0  0  0  0  0  0  0  0  0
   -2.5395    1.3190   -1.2026 H   0  0  0  0  0  0  0  0  0  0  0  0
   -0.1409    1.0018   -1.1326 H   0  0  0  0  0  0  0  0  0  0  0  0
    3.8959   -1.9142   -0.1108 H   0  0  0  0  0  0  0  0  0  0  0  0
  1  2  1  0
  2  3  2  0
  3  4  1  0
  4  5  1  0
  4  6  2  0
  6  7  1  0
  7  8  1  0
  8  9  1  0
  9 10  2  0
  9 11  1  0
 11 12  2  0
 12 13  1  0
 13 14  2  0
 14 15  1  0
 15 16  1  0
 16 17  2  0
 16 18  1  0
 18 19  2  0
 19 20  1  0
 20 21  2  0
 21 22  1  0
 14 23  1  0
 23 24  2  0
  7 25  2  0
 25  2  1  0
 24 11  1  0
 22 18  1  0
  1 26  1  0
  1 27  1  0
  1 28  1  0
  3 29  1  0
  5 30  1  0
  5 31  1  0
  5 32  1  0
  6 33  1  0
  8 34  1  0
 12 35  1  0
 13 36  1  0
 15 37  1  0
 19 38  1  0
 20 39  1  0
 21 40  1  0
 23 41  1  0
 24 42  1  0
 25 43  1  0
M  END
$$$$
