
     RDKit          3D

 40 42  0  0  0  0  0  0  0  0999 V2000
   -2.2020   -1.1413   -2.4820 O   0  0  0  0  0  0  0  0  0  0  0  0
   -1.8951   -0.6213   -1.4153 C   0  0  0  0  0  0  0  0  0  0  0  0
   -2.7617   -0.2075   -0.4226 N   0  0  0  0  0  0  0  0  0  0  0  0
   -4.1816   -0.2209   -0.4278 C   0  0  0  0  0  0  0  0  0  0  0  0
   -4.9184   -0.6294   -1.5467 C   0  0  0  0  0  0  0  0  0  0  0  0
   -6.3170   -0.6337   -1.5283 C   0  0  0  0  0  0  0  0  0  0  0  0
   -7.0054   -0.2268   -0.3916 C   0  0  0  0  0  0  0  0  0  0  0  0
   -6.2953    0.1894    0.7325 C   0  0  0  0  0  0  0  0  0  0  0  0
   -4.8886    0.1982    0.7253 C   0  0  0  0  0  0  0  0  0  0  0  0
   -4.1522    0.6565    1.9358 C   0  0  0  0  0  0  0  0  0  0  0  0
   -2.9394    0.7400    2.0376 O   0  0  0  0  0  0  0  0  0  0  0  0
   -4.9556    0.9882    2.9622 O   0  0  0  0  0  0  0  0  0  0  0  0
   -0.4431   -0.4371   -1.1144 C   0  0  0  0  0  0  0  0  0  0  0  0
    0.4734   -1.3172   -1.7000 C   0  0  0  0  0  0  0  0  0  0  0  0
    1.8431   -1.1805   -1.4517 C   0  0  0  0  0  0  0  0  0  0  0  0
    2.3205   -0.1584   -0.6225 C   0  0  0  0  0  0  0  0  0  0  0  0
    3.7115   -0.0923   -0.4249 N   0  0  0  0  0  0  0  0  0  0  0  0
    4.4304    0.8083    0.3411 C   0  0  0  0  0  0  0  0  0  0  0  0
    3.9534    1.7272    0.9981 O   0  0  0  0  0  0  0  0  0  0  0  0
    5.8609    0.5587    0.2982 C   0  0  0  0  0  0  0  0  0  0  0  0
    6.9171    1.2109    0.9063 C   0  0  0  0  0  0  0  0  0  0  0  0
    8.0967    0.5345    0.5110 C   0  0  0  0  0  0  0  0  0  0  0  0
    7.6935   -0.4897   -0.3138 C   0  0  0  0  0  0  0  0  0  0  0  0
    8.8492   -1.7450   -1.1539 Br  0  0  0  0  0  0  0  0  0  0  0  0
    6.3404   -0.4860   -0.4508 O   0  0  0  0  0  0  0  0  0  0  0  0
    1.4057    0.7285   -0.0518 C   0  0  0  0  0  0  0  0  0  0  0  0
    0.0319    0.5956   -0.2983 C   0  0  0  0  0  0  0  0  0  0  0  0
   -2.3452    0.0976    0.4574 H   0  0  0  0  0  0  0  0  0  0  0  0
   -4.4323   -0.9524   -2.4625 H   0  0  0  0  0  0  0  0  0  0  0  0
   -6.8641   -0.9573   -2.4110 H   0  0  0  0  0  0  0  0  0  0  0  0
   -8.0925   -0.2314   -0.3810 H   0  0  0  0  0  0  0  0  0  0  0  0
   -6.8506    0.5079    1.6117 H   0  0  0  0  0  0  0  0  0  0  0  0
   -4.3430    1.2629    3.6765 H   0  0  0  0  0  0  0  0  0  0  0  0
    0.1232   -2.1156   -2.3520 H   0  0  0  0  0  0  0  0  0  0  0  0
    2.5265   -1.8847   -1.9202 H   0  0  0  0  0  0  0  0  0  0  0  0
    4.2768   -0.7893   -0.8989 H   0  0  0  0  0  0  0  0  0  0  0  0
    6.8310    2.0723    1.5558 H   0  0  0  0  0  0  0  0  0  0  0  0
    9.1138    0.7675    0.7942 H   0  0  0  0  0  0  0  0  0  0  0  0
    1.7251    1.5461    0.5875 H   0  0  0  0  0  0  0  0  0  0  0  0
   -0.6411    1.3274    0.1415 H   0  0  0  0  0  0  0  0  0  0  0  0
  1  2  2  0
  2  3  1  0
  3  4  1  0
  4  5  2  0
  5  6  1  0
  6  7  2  0
  7  8  1  0
  8  9  2  0
  9 10  1  0
 10 11  2  0
 10 12  1  0
  2 13  1  0
 13 14  2  0
 14 15  1  0
 15 16  2  0
 16 17  1  0
 17 18  1  0
 18 19  2  0
 18 20  1  0
 20 21  2  0
 21 22  1  0
 22 23  2  0
 23 24  1  0
 23 25  1  0
 16 26  1  0
 26 27  2  0
  9  4  1  0
 27 13  1  0
 25 20  1  0
  3 28  1  0
  5 29  1  0
  6 30  1  0
  7 31  1  0
  8 32  1  0
 12 33  1  0
 14 34  1  0
 15 35  1  0
 17 36  1  0
 21 37  1  0
 22 38  1  0
 26 39  1  0
 27 40  1  0
M  END
$$$$
