
     RDKit          3D

 57 60  0  0  0  0  0  0  0  0999 V2000
   -1.9485    4.5511    0.1163 C   0  0  0  0  0  0  0  0  0  0  0  0
   -1.4431    3.4519   -0.8125 C   0  0  0  0  0  0  0  0  0  0  0  0
   -0.8111    2.2878   -0.0348 C   0  0  0  0  0  0  0  0  0  0  0  0
   -0.5967    0.8377   -1.1501 S   0  0  0  0  0  0  0  0  0  0  0  0
   -2.2343    0.1955   -1.2429 C   0  0  0  0  0  0  0  0  0  0  0  0
   -3.0739    0.6257   -0.3499 N   0  0  0  0  0  0  0  0  0  0  0  0
   -4.3617    0.1084   -0.4525 C   0  0  0  0  0  0  0  0  0  0  0  0
   -5.4213    0.4518    0.4150 C   0  0  0  0  0  0  0  0  0  0  0  0
   -6.5785   -0.2168    0.0647 C   0  0  0  0  0  0  0  0  0  0  0  0
   -6.3466   -1.2372   -1.3023 S   0  0  0  0  0  0  0  0  0  0  0  0
   -4.7170   -0.7834   -1.4171 C   0  0  0  0  0  0  0  0  0  0  0  0
   -3.7958   -1.2673   -2.4003 C   0  0  0  0  0  0  0  0  0  0  0  0
   -4.0955   -2.0726   -3.2796 O   0  0  0  0  0  0  0  0  0  0  0  0
   -2.5068   -0.7316   -2.2561 N   0  0  0  0  0  0  0  0  0  0  0  0
   -1.5055   -1.2122   -3.2166 C   0  0  0  0  0  0  0  0  0  0  0  0
   -0.6228   -2.3122   -2.6546 C   0  0  0  0  0  0  0  0  0  0  0  0
    0.7686   -2.1398   -2.5854 C   0  0  0  0  0  0  0  0  0  0  0  0
    1.5899   -3.1460   -2.0673 C   0  0  0  0  0  0  0  0  0  0  0  0
    1.0310   -4.3472   -1.6201 C   0  0  0  0  0  0  0  0  0  0  0  0
    1.8591   -5.4413   -1.0577 C   0  0  0  0  0  0  0  0  0  0  0  0
    1.4445   -6.5044   -0.6351 O   0  0  0  0  0  0  0  0  0  0  0  0
    3.1715   -5.1492   -1.0467 O   0  0  0  0  0  0  0  0  0  0  0  0
   -0.3523   -4.5358   -1.7026 C   0  0  0  0  0  0  0  0  0  0  0  0
   -1.1716   -3.5285   -2.2209 C   0  0  0  0  0  0  0  0  0  0  0  0
    0.5837    2.6386    0.5232 C   0  0  0  0  0  0  0  0  0  0  0  0
    1.1473    3.6970    0.2620 O   0  0  0  0  0  0  0  0  0  0  0  0
    1.0864    1.6354    1.3454 N   0  0  0  0  0  0  0  0  0  0  0  0
    2.3099    1.6228    2.0449 C   0  0  0  0  0  0  0  0  0  0  0  0
    3.1874    2.7042    2.1033 C   0  0  0  0  0  0  0  0  0  0  0  0
    4.3859    2.6112    2.8213 C   0  0  0  0  0  0  0  0  0  0  0  0
    4.7318    1.4341    3.4980 C   0  0  0  0  0  0  0  0  0  0  0  0
    6.0273    1.3663    4.2553 C   0  0  0  0  0  0  0  0  0  0  0  0
    3.8454    0.3513    3.4390 C   0  0  0  0  0  0  0  0  0  0  0  0
    4.1895   -1.1415    4.2403 Cl  0  0  0  0  0  0  0  0  0  0  0  0
    2.6465    0.4458    2.7225 C   0  0  0  0  0  0  0  0  0  0  0  0
   -2.4053    5.3556   -0.4689 H   0  0  0  0  0  0  0  0  0  0  0  0
   -2.7064    4.1623    0.8039 H   0  0  0  0  0  0  0  0  0  0  0  0
   -1.1382    4.9861    0.7085 H   0  0  0  0  0  0  0  0  0  0  0  0
   -0.7255    3.8865   -1.5195 H   0  0  0  0  0  0  0  0  0  0  0  0
   -2.3009    3.1076   -1.4027 H   0  0  0  0  0  0  0  0  0  0  0  0
   -1.4335    2.0158    0.8255 H   0  0  0  0  0  0  0  0  0  0  0  0
   -5.3519    1.1430    1.2449 H   0  0  0  0  0  0  0  0  0  0  0  0
   -7.5491   -0.1603    0.5389 H   0  0  0  0  0  0  0  0  0  0  0  0
   -0.8992   -0.3663   -3.5590 H   0  0  0  0  0  0  0  0  0  0  0  0
   -1.9874   -1.5988   -4.1229 H   0  0  0  0  0  0  0  0  0  0  0  0
    1.2309   -1.2162   -2.9305 H   0  0  0  0  0  0  0  0  0  0  0  0
    2.6640   -2.9816   -2.0192 H   0  0  0  0  0  0  0  0  0  0  0  0
    3.5862   -5.9463   -0.6546 H   0  0  0  0  0  0  0  0  0  0  0  0
   -0.7991   -5.4709   -1.3688 H   0  0  0  0  0  0  0  0  0  0  0  0
   -2.2421   -3.7131   -2.2897 H   0  0  0  0  0  0  0  0  0  0  0  0
    0.5444    0.7789    1.3766 H   0  0  0  0  0  0  0  0  0  0  0  0
    2.9716    3.6438    1.6030 H   0  0  0  0  0  0  0  0  0  0  0  0
    5.0476    3.4754    2.8436 H   0  0  0  0  0  0  0  0  0  0  0  0
    5.8411    1.1634    5.3147 H   0  0  0  0  0  0  0  0  0  0  0  0
    6.6723    0.5862    3.8388 H   0  0  0  0  0  0  0  0  0  0  0  0
    6.5763    2.3124    4.1956 H   0  0  0  0  0  0  0  0  0  0  0  0
    1.9814   -0.4134    2.6961 H   0  0  0  0  0  0  0  0  0  0  0  0
  1  2  1  0
  2  3  1  0
  3  4  1  0
  4  5  1  0
  5  6  2  0
  6  7  1  0
  7  8  1  0
  8  9  2  0
  9 10  1  0
 10 11  1  0
 11 12  1  0
 12 13  2  0
 12 14  1  0
 14 15  1  0
 15 16  1  0
 16 17  2  0
 17 18  1  0
 18 19  2  0
 19 20  1  0
 20 21  2  0
 20 22  1  0
 19 23  1  0
 23 24  2  0
  3 25  1  0
 25 26  2  0
 25 27  1  0
 27 28  1  0
 28 29  2  0
 29 30  1  0
 30 31  2  0
 31 32  1  0
 31 33  1  0
 33 34  1  0
 33 35  2  0
 14  5  1  0
 24 16  1  0
 35 28  1  0
 11  7  2  0
  1 36  1  0
  1 37  1  0
  1 38  1  0
  2 39  1  0
  2 40  1  0
  3 41  1  0
  8 42  1  0
  9 43  1  0
 15 44  1  0
 15 45  1  0
 17 46  1  0
 18 47  1  0
 22 48  1  0
 23 49  1  0
 24 50  1  0
 27 51  1  0
 29 52  1  0
 30 53  1  0
 32 54  1  0
 32 55  1  0
 32 56  1  0
 35 57  1  0
M  END
$$$$
