
     RDKit          3D

 34 35  0  0  0  0  0  0  0  0999 V2000
    4.1890    0.8511    2.0924 C   0  0  0  0  0  0  0  0  0  0  0  0
    3.0903   -0.0515    2.0664 O   0  0  0  0  0  0  0  0  0  0  0  0
    2.5790   -0.3681    0.8389 C   0  0  0  0  0  0  0  0  0  0  0  0
    2.9704    0.1847   -0.3810 C   0  0  0  0  0  0  0  0  0  0  0  0
    2.3497   -0.2237   -1.5675 C   0  0  0  0  0  0  0  0  0  0  0  0
    1.3262   -1.1726   -1.5444 C   0  0  0  0  0  0  0  0  0  0  0  0
    0.7031   -1.5744   -2.7294 N   0  0  0  0  0  0  0  0  0  0  0  0
   -0.3761   -0.9682   -3.1274 C   0  0  0  0  0  0  0  0  0  0  0  0
   -1.0700    0.1926   -2.4654 C   0  0  0  0  0  0  0  0  0  0  0  0
   -2.2916   -0.2530   -1.6994 C   0  0  0  0  0  0  0  0  0  0  0  0
   -3.1346   -0.9691   -2.2427 O   0  0  0  0  0  0  0  0  0  0  0  0
   -2.5226    0.1904   -0.2882 C   0  0  0  0  0  0  0  0  0  0  0  0
   -1.5465    0.8143    0.4988 C   0  0  0  0  0  0  0  0  0  0  0  0
   -1.8337    1.1886    1.8177 C   0  0  0  0  0  0  0  0  0  0  0  0
   -3.0953    0.9443    2.3550 C   0  0  0  0  0  0  0  0  0  0  0  0
   -3.4406    1.4074    3.9744 Cl  0  0  0  0  0  0  0  0  0  0  0  0
   -4.0751    0.3235    1.5868 C   0  0  0  0  0  0  0  0  0  0  0  0
   -3.7881   -0.0541    0.2715 C   0  0  0  0  0  0  0  0  0  0  0  0
    0.9561   -1.7446   -0.3271 C   0  0  0  0  0  0  0  0  0  0  0  0
    1.5729   -1.3373    0.8582 C   0  0  0  0  0  0  0  0  0  0  0  0
    5.0397    0.4564    1.5270 H   0  0  0  0  0  0  0  0  0  0  0  0
    4.5047    0.9636    3.1340 H   0  0  0  0  0  0  0  0  0  0  0  0
    3.8941    1.8396    1.7253 H   0  0  0  0  0  0  0  0  0  0  0  0
    3.7561    0.9296   -0.4478 H   0  0  0  0  0  0  0  0  0  0  0  0
    2.6670    0.1986   -2.5172 H   0  0  0  0  0  0  0  0  0  0  0  0
   -0.8607   -1.3609   -4.0387 H   0  0  0  0  0  0  0  0  0  0  0  0
   -1.4196    0.8619   -3.2607 H   0  0  0  0  0  0  0  0  0  0  0  0
   -0.3720    0.7742   -1.8698 H   0  0  0  0  0  0  0  0  0  0  0  0
   -0.5428    1.0094    0.1368 H   0  0  0  0  0  0  0  0  0  0  0  0
   -1.0629    1.6631    2.4210 H   0  0  0  0  0  0  0  0  0  0  0  0
   -5.0603    0.1255    2.0013 H   0  0  0  0  0  0  0  0  0  0  0  0
   -4.5634   -0.5449   -0.3159 H   0  0  0  0  0  0  0  0  0  0  0  0
    0.1860   -2.5110   -0.3014 H   0  0  0  0  0  0  0  0  0  0  0  0
    1.2719   -1.7854    1.8021 H   0  0  0  0  0  0  0  0  0  0  0  0
  1  2  1  0
  2  3  1  0
  3  4  2  0
  4  5  1  0
  5  6  2  0
  6  7  1  0
  7  8  2  3
  8  9  1  0
  9 10  1  0
 10 11  2  0
 10 12  1  0
 12 13  2  0
 13 14  1  0
 14 15  2  0
 15 16  1  0
 15 17  1  0
 17 18  2  0
  6 19  1  0
 19 20  2  0
 20  3  1  0
 18 12  1  0
  1 21  1  0
  1 22  1  0
  1 23  1  0
  4 24  1  0
  5 25  1  0
  8 26  1  0
  9 27  1  0
  9 28  1  0
 13 29  1  0
 14 30  1  0
 17 31  1  0
 18 32  1  0
 19 33  1  0
 20 34  1  0
M  END
$$$$
