
     RDKit          3D

 40 42  0  0  0  0  0  0  0  0999 V2000
    2.8020    4.0683   -0.1670 C   0  0  0  0  0  0  0  0  0  0  0  0
    1.5894    4.1322    0.7461 C   0  0  0  0  0  0  0  0  0  0  0  0
    0.0429    3.8224   -0.1699 S   0  0  0  0  0  0  0  0  0  0  0  0
   -0.0686    2.0388   -0.0900 C   0  0  0  0  0  0  0  0  0  0  0  0
   -1.2835    1.4470   -0.3593 C   0  0  0  0  0  0  0  0  0  0  0  0
   -1.3590    0.0716   -0.2806 C   0  0  0  0  0  0  0  0  0  0  0  0
   -2.5434   -0.6051   -0.4979 N   0  0  0  0  0  0  0  0  0  0  0  0
   -2.5821   -2.0525   -0.2529 C   0  0  0  0  0  0  0  0  0  0  0  0
   -4.0489   -2.5004   -0.1318 C   0  0  0  0  0  0  0  0  0  0  0  0
   -4.8459   -2.2305   -1.2950 O   0  0  0  0  0  0  0  0  0  0  0  0
   -4.3100   -1.1947   -2.1280 C   0  0  0  0  0  0  0  0  0  0  0  0
   -3.6124   -0.0658   -1.3489 C   0  0  0  0  0  0  0  0  0  0  0  0
   -0.2715   -0.6423    0.0575 N   0  0  0  0  0  0  0  0  0  0  0  0
    0.8811    0.0094    0.2990 C   0  0  0  0  0  0  0  0  0  0  0  0
    2.0620   -0.7944    0.6752 C   0  0  0  0  0  0  0  0  0  0  0  0
    1.9580   -2.1722    0.9495 C   0  0  0  0  0  0  0  0  0  0  0  0
    3.0734   -2.9319    1.3181 C   0  0  0  0  0  0  0  0  0  0  0  0
    4.3240   -2.3303    1.4178 C   0  0  0  0  0  0  0  0  0  0  0  0
    4.4614   -0.9724    1.1502 C   0  0  0  0  0  0  0  0  0  0  0  0
    3.3434   -0.2157    0.7840 C   0  0  0  0  0  0  0  0  0  0  0  0
    1.0259    1.3406    0.2327 N   0  0  0  0  0  0  0  0  0  0  0  0
    3.7104    4.2634    0.4099 H   0  0  0  0  0  0  0  0  0  0  0  0
    2.9139    3.0902   -0.6409 H   0  0  0  0  0  0  0  0  0  0  0  0
    2.7436    4.8258   -0.9550 H   0  0  0  0  0  0  0  0  0  0  0  0
    1.5180    5.1423    1.1663 H   0  0  0  0  0  0  0  0  0  0  0  0
    1.6833    3.4437    1.5926 H   0  0  0  0  0  0  0  0  0  0  0  0
   -2.1485    2.0530   -0.5890 H   0  0  0  0  0  0  0  0  0  0  0  0
   -2.0995   -2.5785   -1.0869 H   0  0  0  0  0  0  0  0  0  0  0  0
   -2.0630   -2.3162    0.6764 H   0  0  0  0  0  0  0  0  0  0  0  0
   -4.1024   -3.5767    0.0605 H   0  0  0  0  0  0  0  0  0  0  0  0
   -4.5265   -1.9931    0.7144 H   0  0  0  0  0  0  0  0  0  0  0  0
   -5.1384   -0.7844   -2.7166 H   0  0  0  0  0  0  0  0  0  0  0  0
   -3.6110   -1.6609   -2.8346 H   0  0  0  0  0  0  0  0  0  0  0  0
   -4.3421    0.4420   -0.7070 H   0  0  0  0  0  0  0  0  0  0  0  0
   -3.2287    0.6560   -2.0785 H   0  0  0  0  0  0  0  0  0  0  0  0
    0.9897   -2.6673    0.8834 H   0  0  0  0  0  0  0  0  0  0  0  0
    2.9601   -3.9919    1.5299 H   0  0  0  0  0  0  0  0  0  0  0  0
    5.1895   -2.9182    1.7100 H   0  0  0  0  0  0  0  0  0  0  0  0
    5.4343   -0.4966    1.2245 H   0  0  0  0  0  0  0  0  0  0  0  0
    3.4791    0.8453    0.5800 H   0  0  0  0  0  0  0  0  0  0  0  0
  1  2  1  0
  2  3  1  0
  3  4  1  0
  4  5  2  0
  5  6  1  0
  6  7  1  0
  7  8  1  0
  8  9  1  0
  9 10  1  0
 10 11  1  0
 11 12  1  0
  6 13  2  0
 13 14  1  0
 14 15  1  0
 15 16  2  0
 16 17  1  0
 17 18  2  0
 18 19  1  0
 19 20  2  0
 14 21  2  0
 21  4  1  0
 12  7  1  0
 20 15  1  0
  1 22  1  0
  1 23  1  0
  1 24  1  0
  2 25  1  0
  2 26  1  0
  5 27  1  0
  8 28  1  0
  8 29  1  0
  9 30  1  0
  9 31  1  0
 11 32  1  0
 11 33  1  0
 12 34  1  0
 12 35  1  0
 16 36  1  0
 17 37  1  0
 18 38  1  0
 19 39  1  0
 20 40  1  0
M  END
$$$$
