
     RDKit          3D

 53 54  0  0  0  0  0  0  0  0999 V2000
   -5.8459    0.3010    2.5438 C   0  0  0  0  0  0  0  0  0  0  0  0
   -5.1758   -0.8025    1.7403 C   0  0  0  0  0  0  0  0  0  0  0  0
   -5.6373   -0.7458    0.3247 N   0  0  0  0  0  0  0  0  0  0  0  0
   -6.9758   -1.3732    0.1230 C   0  0  0  0  0  0  0  0  0  0  0  0
   -7.9077   -0.3601   -0.5191 C   0  0  0  0  0  0  0  0  0  0  0  0
   -4.4738   -1.2362   -0.8365 S   0  0  0  0  0  6  0  0  0  0  0  0
   -3.9019   -2.4807   -0.3680 O   0  0  0  0  0  0  0  0  0  0  0  0
   -5.0637   -1.1241   -2.1531 O   0  0  0  0  0  0  0  0  0  0  0  0
   -3.2467    0.0412   -0.7108 C   0  0  0  0  0  0  0  0  0  0  0  0
   -3.6055    1.3524   -1.0383 C   0  0  0  0  0  0  0  0  0  0  0  0
   -2.6548    2.3671   -0.9487 C   0  0  0  0  0  0  0  0  0  0  0  0
   -1.3531    2.0705   -0.5339 C   0  0  0  0  0  0  0  0  0  0  0  0
   -0.9929    0.7534   -0.2069 C   0  0  0  0  0  0  0  0  0  0  0  0
    0.3806    0.3924    0.2374 C   0  0  0  0  0  0  0  0  0  0  0  0
    0.7386   -0.7543    0.4557 O   0  0  0  0  0  0  0  0  0  0  0  0
    1.1463    1.5016    0.3863 O   0  0  0  0  0  0  0  0  0  0  0  0
    2.5090    1.2196    0.7027 C   0  0  0  0  0  0  0  0  0  0  0  0
    3.2909    0.6760   -0.4967 C   0  0  0  0  0  0  0  0  0  0  0  0
    2.9787    0.9127   -1.6615 O   0  0  0  0  0  0  0  0  0  0  0  0
    4.3902   -0.0807   -0.1549 N   0  0  0  0  0  0  0  0  0  0  0  0
    5.1919   -0.7413   -1.1708 C   0  0  0  0  0  0  0  0  0  0  0  0
    6.3975   -1.4861   -0.5885 C   0  0  0  0  0  0  0  0  0  0  0  0
    7.3362   -0.5973    0.0778 N   0  0  0  0  0  0  0  0  0  0  0  0
    8.4295   -0.0429   -0.5398 C   0  0  0  0  0  0  0  0  0  0  0  0
    8.6967   -0.3757   -1.8332 O   0  0  0  0  0  0  0  0  0  0  0  0
    9.1316    0.8007    0.2258 C   0  0  0  0  0  0  0  0  0  0  0  0
    8.4224    0.9567    1.8058 S   0  0  0  0  0  0  0  0  0  0  0  0
    7.1100   -0.1521    1.3701 C   0  0  0  0  0  0  0  0  0  0  0  0
    6.1705   -0.4223    2.1034 O   0  0  0  0  0  0  0  0  0  0  0  0
   -1.9465   -0.2684   -0.3025 C   0  0  0  0  0  0  0  0  0  0  0  0
   -5.4794    0.2942    3.5752 H   0  0  0  0  0  0  0  0  0  0  0  0
   -5.6320    1.2841    2.1106 H   0  0  0  0  0  0  0  0  0  0  0  0
   -6.9329    0.1766    2.5714 H   0  0  0  0  0  0  0  0  0  0  0  0
   -5.3937   -1.7842    2.1755 H   0  0  0  0  0  0  0  0  0  0  0  0
   -4.0939   -0.6530    1.8056 H   0  0  0  0  0  0  0  0  0  0  0  0
   -7.4040   -1.7020    1.0765 H   0  0  0  0  0  0  0  0  0  0  0  0
   -6.9025   -2.2706   -0.5015 H   0  0  0  0  0  0  0  0  0  0  0  0
   -7.5298   -0.0306   -1.4920 H   0  0  0  0  0  0  0  0  0  0  0  0
   -8.8995   -0.7975   -0.6692 H   0  0  0  0  0  0  0  0  0  0  0  0
   -8.0176    0.5273    0.1131 H   0  0  0  0  0  0  0  0  0  0  0  0
   -4.6178    1.5802   -1.3669 H   0  0  0  0  0  0  0  0  0  0  0  0
   -2.9226    3.3889   -1.2084 H   0  0  0  0  0  0  0  0  0  0  0  0
   -0.6243    2.8766   -0.4810 H   0  0  0  0  0  0  0  0  0  0  0  0
    2.9793    2.1638    0.9974 H   0  0  0  0  0  0  0  0  0  0  0  0
    2.5728    0.5399    1.5604 H   0  0  0  0  0  0  0  0  0  0  0  0
    4.5136   -0.3609    0.8171 H   0  0  0  0  0  0  0  0  0  0  0  0
    4.5393   -1.4476   -1.6962 H   0  0  0  0  0  0  0  0  0  0  0  0
    5.5140    0.0167   -1.8940 H   0  0  0  0  0  0  0  0  0  0  0  0
    6.9127   -2.0480   -1.3752 H   0  0  0  0  0  0  0  0  0  0  0  0
    6.0460   -2.2165    0.1510 H   0  0  0  0  0  0  0  0  0  0  0  0
    9.4864    0.1144   -2.1198 H   0  0  0  0  0  0  0  0  0  0  0  0
   10.0201    1.3415   -0.0651 H   0  0  0  0  0  0  0  0  0  0  0  0
   -1.6736   -1.2949   -0.0619 H   0  0  0  0  0  0  0  0  0  0  0  0
  1  2  1  0
  2  3  1  0
  3  4  1  0
  4  5  1  0
  3  6  1  0
  6  7  2  0
  6  8  2  0
  6  9  1  0
  9 10  2  0
 10 11  1  0
 11 12  2  0
 12 13  1  0
 13 14  1  0
 14 15  2  0
 14 16  1  0
 16 17  1  0
 17 18  1  0
 18 19  2  0
 18 20  1  0
 20 21  1  0
 21 22  1  0
 22 23  1  0
 23 24  1  0
 24 25  1  0
 24 26  2  0
 26 27  1  0
 27 28  1  0
 28 29  2  0
 13 30  2  0
 30  9  1  0
 28 23  1  0
  1 31  1  0
  1 32  1  0
  1 33  1  0
  2 34  1  0
  2 35  1  0
  4 36  1  0
  4 37  1  0
  5 38  1  0
  5 39  1  0
  5 40  1  0
 10 41  1  0
 11 42  1  0
 12 43  1  0
 17 44  1  0
 17 45  1  0
 20 46  1  0
 21 47  1  0
 21 48  1  0
 22 49  1  0
 22 50  1  0
 25 51  1  0
 26 52  1  0
 30 53  1  0
M  END
$$$$
