
     RDKit          3D

 60 65  0  0  0  0  0  0  0  0999 V2000
    4.7931   -0.8093   -4.0375 C   0  0  0  0  0  0  0  0  0  0  0  0
    4.9220   -1.5857   -2.7814 C   0  0  0  0  0  0  0  0  0  0  0  0
    5.4817   -2.8009   -2.8043 N   0  0  0  0  0  0  0  0  0  0  0  0
    5.4864   -3.2367   -1.4930 O   0  0  0  0  0  0  0  0  0  0  0  0
    4.9040   -2.2995   -0.6981 C   0  0  0  0  0  0  0  0  0  0  0  0
    4.8942   -2.5996    0.7453 C   0  0  0  0  0  0  0  0  0  0  0  0
    4.4852   -1.2420   -1.4757 C   0  0  0  0  0  0  0  0  0  0  0  0
    3.8301   -0.0330   -1.0336 C   0  0  0  0  0  0  0  0  0  0  0  0
    4.3602    1.0621   -1.2052 O   0  0  0  0  0  0  0  0  0  0  0  0
    2.5788   -0.1653   -0.4228 N   0  0  0  0  0  0  0  0  0  0  0  0
    1.7465   -1.3631   -0.5292 C   0  0  0  0  0  0  0  0  0  0  0  0
    0.2601   -1.0171   -0.4947 C   0  0  0  0  0  0  0  0  0  0  0  0
   -0.1245   -0.3185    0.8348 C   0  0  0  0  0  0  0  0  0  0  0  0
    0.9812    0.6965    1.2576 C   0  0  0  0  0  0  0  0  0  0  0  0
    1.9673    1.0290    0.1429 C   0  0  0  0  0  0  0  0  0  0  0  0
   -0.0794   -1.3247    1.8898 O   0  0  0  0  0  0  0  0  0  0  0  0
   -1.1699   -2.1256    2.0640 C   0  0  0  0  0  0  0  0  0  0  0  0
   -1.0021   -3.2127    2.9226 C   0  0  0  0  0  0  0  0  0  0  0  0
   -2.0561   -4.1037    3.1338 C   0  0  0  0  0  0  0  0  0  0  0  0
   -3.2701   -3.9011    2.4848 C   0  0  0  0  0  0  0  0  0  0  0  0
   -4.2739   -4.7661    2.6811 F   0  0  0  0  0  0  0  0  0  0  0  0
   -3.4569   -2.8164    1.6379 C   0  0  0  0  0  0  0  0  0  0  0  0
   -2.4009   -1.9243    1.4436 C   0  0  0  0  0  0  0  0  0  0  0  0
   -2.5614   -0.7520    0.5745 C   0  0  0  0  0  0  0  0  0  0  0  0
   -3.4727   -0.7141   -0.2470 O   0  0  0  0  0  0  0  0  0  0  0  0
   -1.5269    0.3505    0.7637 C   0  0  0  0  0  0  0  0  0  0  0  0
   -1.6782    1.4468   -0.2798 C   0  0  0  0  0  0  0  0  0  0  0  0
   -2.5908    2.3511    0.4785 C   0  0  0  0  0  0  0  0  0  0  0  0
   -3.3382    3.4511   -0.1760 C   0  0  0  0  0  0  0  0  0  0  0  0
   -3.1172    3.7916   -1.5156 C   0  0  0  0  0  0  0  0  0  0  0  0
   -3.8393    4.8381   -2.1005 C   0  0  0  0  0  0  0  0  0  0  0  0
   -4.7809    5.5421   -1.3495 C   0  0  0  0  0  0  0  0  0  0  0  0
   -5.6659    6.8258   -2.0751 Cl  0  0  0  0  0  0  0  0  0  0  0  0
   -5.0048    5.2120   -0.0151 C   0  0  0  0  0  0  0  0  0  0  0  0
   -4.2828    4.1687    0.5721 C   0  0  0  0  0  0  0  0  0  0  0  0
   -2.6461    2.1168    1.7513 N   0  0  0  0  0  0  0  0  0  0  0  0
   -1.8243    0.9989    2.0131 O   0  0  0  0  0  0  0  0  0  0  0  0
    5.7062   -0.8845   -4.6372 H   0  0  0  0  0  0  0  0  0  0  0  0
    3.9558   -1.1903   -4.6330 H   0  0  0  0  0  0  0  0  0  0  0  0
    4.6128    0.2520   -3.8390 H   0  0  0  0  0  0  0  0  0  0  0  0
    4.2765   -1.8895    1.3019 H   0  0  0  0  0  0  0  0  0  0  0  0
    4.5011   -3.6048    0.9269 H   0  0  0  0  0  0  0  0  0  0  0  0
    5.9113   -2.5491    1.1478 H   0  0  0  0  0  0  0  0  0  0  0  0
    2.0063   -2.0263    0.3025 H   0  0  0  0  0  0  0  0  0  0  0  0
    1.9710   -1.8891   -1.4628 H   0  0  0  0  0  0  0  0  0  0  0  0
    0.0296   -0.3708   -1.3501 H   0  0  0  0  0  0  0  0  0  0  0  0
   -0.3064   -1.9447   -0.6316 H   0  0  0  0  0  0  0  0  0  0  0  0
    1.5540    0.2912    2.1036 H   0  0  0  0  0  0  0  0  0  0  0  0
    0.5464    1.6335    1.6239 H   0  0  0  0  0  0  0  0  0  0  0  0
    2.7476    1.6937    0.5314 H   0  0  0  0  0  0  0  0  0  0  0  0
    1.4731    1.5630   -0.6768 H   0  0  0  0  0  0  0  0  0  0  0  0
   -0.0495   -3.3735    3.4219 H   0  0  0  0  0  0  0  0  0  0  0  0
   -1.9377   -4.9560    3.7962 H   0  0  0  0  0  0  0  0  0  0  0  0
   -4.4156   -2.6714    1.1488 H   0  0  0  0  0  0  0  0  0  0  0  0
   -0.7539    1.9975   -0.4651 H   0  0  0  0  0  0  0  0  0  0  0  0
   -2.1007    1.1108   -1.2286 H   0  0  0  0  0  0  0  0  0  0  0  0
   -2.3875    3.2657   -2.1239 H   0  0  0  0  0  0  0  0  0  0  0  0
   -3.6620    5.1003   -3.1405 H   0  0  0  0  0  0  0  0  0  0  0  0
   -5.7378    5.7564    0.5741 H   0  0  0  0  0  0  0  0  0  0  0  0
   -4.4682    3.9161    1.6149 H   0  0  0  0  0  0  0  0  0  0  0  0
  1  2  1  0
  2  3  2  0
  3  4  1  0
  4  5  1  0
  5  6  1  0
  5  7  2  0
  7  8  1  0
  8  9  2  0
  8 10  1  0
 10 11  1  0
 11 12  1  0
 12 13  1  0
 13 14  1  0
 14 15  1  0
 13 16  1  0
 16 17  1  0
 17 18  2  0
 18 19  1  0
 19 20  2  0
 20 21  1  0
 20 22  1  0
 22 23  2  0
 23 24  1  0
 24 25  2  0
 24 26  1  0
 26 27  1  0
 27 28  1  0
 28 29  1  0
 29 30  2  0
 30 31  1  0
 31 32  2  0
 32 33  1  0
 32 34  1  0
 34 35  2  0
 28 36  2  0
 36 37  1  0
  7  2  1  0
 15 10  1  0
 23 17  1  0
 37 26  1  0
 26 13  1  0
 35 29  1  0
  1 38  1  0
  1 39  1  0
  1 40  1  0
  6 41  1  0
  6 42  1  0
  6 43  1  0
 11 44  1  0
 11 45  1  0
 12 46  1  0
 12 47  1  0
 14 48  1  0
 14 49  1  0
 15 50  1  0
 15 51  1  0
 18 52  1  0
 19 53  1  0
 22 54  1  0
 27 55  1  0
 27 56  1  0
 30 57  1  0
 31 58  1  0
 34 59  1  0
 35 60  1  0
M  END
$$$$
