
     RDKit          3D

 48 49  0  0  0  0  0  0  0  0999 V2000
   -7.5014   -1.2460    1.9737 C   0  0  0  0  0  0  0  0  0  0  0  0
   -6.8170   -0.4672    0.8890 C   0  0  0  0  0  0  0  0  0  0  0  0
   -7.5581    0.3041   -0.0052 C   0  0  0  0  0  0  0  0  0  0  0  0
   -6.9107    1.0483   -0.9895 C   0  0  0  0  0  0  0  0  0  0  0  0
   -5.5089    1.0450   -1.0942 C   0  0  0  0  0  0  0  0  0  0  0  0
   -4.8774    1.8720   -2.1824 C   0  0  0  0  0  0  0  0  0  0  0  0
   -4.7479    0.2794   -0.1834 C   0  0  0  0  0  0  0  0  0  0  0  0
   -3.3368    0.2923   -0.2968 N   0  0  0  0  0  0  0  0  0  0  0  0
   -2.4084   -0.3797    0.4812 C   0  0  0  0  0  0  0  0  0  0  0  0
   -2.6342   -1.1214    1.4301 O   0  0  0  0  0  0  0  0  0  0  0  0
   -0.9919   -0.0926    0.0191 C   0  0  0  0  0  0  0  0  0  0  0  0
    0.0364   -0.8360    0.8631 C   0  0  0  0  0  0  0  0  0  0  0  0
    1.4490   -0.5573    0.3947 C   0  0  0  0  0  0  0  0  0  0  0  0
    1.6982    0.1725   -0.5603 O   0  0  0  0  0  0  0  0  0  0  0  0
    2.3897   -1.2264    1.1791 N   0  0  0  0  0  0  0  0  0  0  0  0
    3.7317   -1.2877    0.8995 N   0  0  0  0  0  0  0  0  0  0  0  0
    4.2999   -0.2103    0.4505 C   0  0  0  0  0  0  0  0  0  0  0  0
    5.7290   -0.2032    0.0686 C   0  0  0  0  0  0  0  0  0  0  0  0
    6.2759    0.9974   -0.3980 C   0  0  0  0  0  0  0  0  0  0  0  0
    7.6287    1.0359   -0.7684 C   0  0  0  0  0  0  0  0  0  0  0  0
    8.2105    2.2926   -1.2577 N   0  0  0  0  0  4  0  0  0  0  0  0
    9.3972    2.2799   -1.6124 O   0  0  0  0  0  0  0  0  0  0  0  0
    7.4780    3.2916   -1.2838 O   0  0  0  0  0  1  0  0  0  0  0  0
    8.4319   -0.1095   -0.6766 C   0  0  0  0  0  0  0  0  0  0  0  0
    7.8761   -1.3025   -0.2112 C   0  0  0  0  0  0  0  0  0  0  0  0
    6.5326   -1.3481    0.1579 C   0  0  0  0  0  0  0  0  0  0  0  0
    6.0664   -2.5550    0.6001 O   0  0  0  0  0  0  0  0  0  0  0  0
   -5.4162   -0.4622    0.7998 C   0  0  0  0  0  0  0  0  0  0  0  0
   -8.5103   -1.5417    1.6671 H   0  0  0  0  0  0  0  0  0  0  0  0
   -7.5723   -0.6394    2.8817 H   0  0  0  0  0  0  0  0  0  0  0  0
   -6.9501   -2.1644    2.2015 H   0  0  0  0  0  0  0  0  0  0  0  0
   -8.6435    0.3304    0.0573 H   0  0  0  0  0  0  0  0  0  0  0  0
   -7.5133    1.6372   -1.6782 H   0  0  0  0  0  0  0  0  0  0  0  0
   -5.6304    2.3866   -2.7892 H   0  0  0  0  0  0  0  0  0  0  0  0
   -4.2964    1.2341   -2.8562 H   0  0  0  0  0  0  0  0  0  0  0  0
   -4.2277    2.6388   -1.7481 H   0  0  0  0  0  0  0  0  0  0  0  0
   -2.9577    0.8621   -1.0409 H   0  0  0  0  0  0  0  0  0  0  0  0
   -0.9028   -0.3914   -1.0324 H   0  0  0  0  0  0  0  0  0  0  0  0
   -0.8186    0.9887    0.0809 H   0  0  0  0  0  0  0  0  0  0  0  0
   -0.0467   -0.5333    1.9139 H   0  0  0  0  0  0  0  0  0  0  0  0
   -0.1405   -1.9169    0.8059 H   0  0  0  0  0  0  0  0  0  0  0  0
    2.0525   -2.0099    1.7342 H   0  0  0  0  0  0  0  0  0  0  0  0
    3.7658    0.7514    0.3573 H   0  0  0  0  0  0  0  0  0  0  0  0
    5.6535    1.8869   -0.4735 H   0  0  0  0  0  0  0  0  0  0  0  0
    9.4823   -0.0915   -0.9612 H   0  0  0  0  0  0  0  0  0  0  0  0
    8.4877   -2.1990   -0.1365 H   0  0  0  0  0  0  0  0  0  0  0  0
    5.1121   -2.4454    0.8071 H   0  0  0  0  0  0  0  0  0  0  0  0
   -4.8658   -1.0563    1.5229 H   0  0  0  0  0  0  0  0  0  0  0  0
  1  2  1  0
  2  3  2  0
  3  4  1  0
  4  5  2  0
  5  6  1  0
  5  7  1  0
  7  8  1  0
  8  9  1  0
  9 10  2  0
  9 11  1  0
 11 12  1  0
 12 13  1  0
 13 14  2  0
 13 15  1  0
 15 16  1  0
 16 17  2  3
 17 18  1  0
 18 19  2  0
 19 20  1  0
 20 21  1  0
 21 22  2  0
 21 23  1  0
 20 24  2  0
 24 25  1  0
 25 26  2  0
 26 27  1  0
  7 28  2  0
 28  2  1  0
 26 18  1  0
  1 29  1  0
  1 30  1  0
  1 31  1  0
  3 32  1  0
  4 33  1  0
  6 34  1  0
  6 35  1  0
  6 36  1  0
  8 37  1  0
 11 38  1  0
 11 39  1  0
 12 40  1  0
 12 41  1  0
 15 42  1  0
 17 43  1  0
 19 44  1  0
 24 45  1  0
 25 46  1  0
 27 47  1  0
 28 48  1  0
M  CHG  2  21   1  23  -1
M  END
$$$$
