
     RDKit          3D

 39 41  0  0  0  0  0  0  0  0999 V2000
   -1.4216    0.7551   -2.0582 C   0  0  0  0  0  0  0  0  0  0  0  0
   -1.2632   -0.0886   -0.9213 O   0  0  0  0  0  0  0  0  0  0  0  0
   -2.4085   -0.4014   -0.2278 C   0  0  0  0  0  0  0  0  0  0  0  0
   -3.6531    0.2172   -0.3980 C   0  0  0  0  0  0  0  0  0  0  0  0
   -4.7597   -0.1740    0.3766 C   0  0  0  0  0  0  0  0  0  0  0  0
   -6.0835    0.5144    0.1967 C   0  0  0  0  0  0  0  0  0  0  0  0
   -4.6073   -1.1848    1.3362 C   0  0  0  0  0  0  0  0  0  0  0  0
   -3.3712   -1.8064    1.5154 C   0  0  0  0  0  0  0  0  0  0  0  0
   -2.2774   -1.4033    0.7471 C   0  0  0  0  0  0  0  0  0  0  0  0
   -1.0570   -2.0188    0.8771 O   0  0  0  0  0  0  0  0  0  0  0  0
   -0.5385   -1.9230    2.2096 C   0  0  0  0  0  0  0  0  0  0  0  0
    0.9643   -1.6535    2.1557 C   0  0  0  0  0  0  0  0  0  0  0  0
    1.6835   -1.9011    3.1213 O   0  0  0  0  0  0  0  0  0  0  0  0
    1.3503   -1.0885    0.9612 N   0  0  0  0  0  0  0  0  0  0  0  0
    2.6254   -0.6621    0.7302 C   0  0  0  0  0  0  0  0  0  0  0  0
    3.6719   -0.6467    1.5211 N   0  0  0  0  0  0  0  0  0  0  0  0
    4.7697   -0.0728    0.9039 N   0  0  0  0  0  0  0  0  0  0  0  0
    4.4895    0.3134   -0.3201 C   0  0  0  0  0  0  0  0  0  0  0  0
    5.5618    1.0071   -1.2173 C   0  0  0  0  0  0  0  0  0  0  0  0
    6.1415    2.3131   -0.7325 C   0  0  0  0  0  0  0  0  0  0  0  0
    5.2465    2.2879   -1.9394 C   0  0  0  0  0  0  0  0  0  0  0  0
    2.8921   -0.0238   -0.8310 S   0  0  0  0  0  0  0  0  0  0  0  0
   -0.4599    0.7929   -2.5797 H   0  0  0  0  0  0  0  0  0  0  0  0
   -2.1630    0.3540   -2.7565 H   0  0  0  0  0  0  0  0  0  0  0  0
   -1.6766    1.7758   -1.7563 H   0  0  0  0  0  0  0  0  0  0  0  0
   -3.7943    1.0144   -1.1239 H   0  0  0  0  0  0  0  0  0  0  0  0
   -6.3409    0.5830   -0.8671 H   0  0  0  0  0  0  0  0  0  0  0  0
   -6.0367    1.5177    0.6282 H   0  0  0  0  0  0  0  0  0  0  0  0
   -6.8912   -0.0381    0.6939 H   0  0  0  0  0  0  0  0  0  0  0  0
   -5.4530   -1.4986    1.9456 H   0  0  0  0  0  0  0  0  0  0  0  0
   -3.2724   -2.6085    2.2429 H   0  0  0  0  0  0  0  0  0  0  0  0
   -0.9868   -1.1011    2.7828 H   0  0  0  0  0  0  0  0  0  0  0  0
   -0.7040   -2.8795    2.7182 H   0  0  0  0  0  0  0  0  0  0  0  0
    0.6569   -0.9803    0.2237 H   0  0  0  0  0  0  0  0  0  0  0  0
    6.2564    0.3163   -1.6867 H   0  0  0  0  0  0  0  0  0  0  0  0
    7.2066    2.4786   -0.8781 H   0  0  0  0  0  0  0  0  0  0  0  0
    5.7443    2.7491    0.1882 H   0  0  0  0  0  0  0  0  0  0  0  0
    5.7070    2.4428   -2.9097 H   0  0  0  0  0  0  0  0  0  0  0  0
    4.2520    2.7220   -1.8445 H   0  0  0  0  0  0  0  0  0  0  0  0
  1  2  1  0
  2  3  1  0
  3  4  2  0
  4  5  1  0
  5  6  1  0
  5  7  2  0
  7  8  1  0
  8  9  2  0
  9 10  1  0
 10 11  1  0
 11 12  1  0
 12 13  2  0
 12 14  1  0
 14 15  1  0
 15 16  2  0
 16 17  1  0
 17 18  2  0
 18 19  1  0
 19 20  1  0
 20 21  1  0
 18 22  1  0
  9  3  1  0
 22 15  1  0
 21 19  1  0
  1 23  1  0
  1 24  1  0
  1 25  1  0
  4 26  1  0
  6 27  1  0
  6 28  1  0
  6 29  1  0
  7 30  1  0
  8 31  1  0
 11 32  1  0
 11 33  1  0
 14 34  1  0
 19 35  1  0
 20 36  1  0
 20 37  1  0
 21 38  1  0
 21 39  1  0
M  END
$$$$
