
     RDKit          3D

 37 38  0  0  0  0  0  0  0  0999 V2000
   -5.6050   -0.7565   -2.4280 C   0  0  0  0  0  0  0  0  0  0  0  0
   -5.0410   -0.4883   -1.1056 N   0  0  0  0  0  0  0  0  0  0  0  0
   -5.9438    0.1618   -0.1563 C   0  0  0  0  0  0  0  0  0  0  0  0
   -3.6614   -0.3040   -0.9736 C   0  0  0  0  0  0  0  0  0  0  0  0
   -3.0835    0.2027    0.2030 C   0  0  0  0  0  0  0  0  0  0  0  0
   -1.6967    0.3676    0.3514 C   0  0  0  0  0  0  0  0  0  0  0  0
   -0.8242    0.0103   -0.6753 C   0  0  0  0  0  0  0  0  0  0  0  0
    0.6310    0.1860   -0.5747 C   0  0  0  0  0  0  0  0  0  0  0  0
    1.3323   -0.0985    0.5349 C   0  0  0  0  0  0  0  0  0  0  0  0
    2.7861    0.0638    0.6499 C   0  0  0  0  0  0  0  0  0  0  0  0
    3.3272    0.4864    1.8629 C   0  0  0  0  0  0  0  0  0  0  0  0
    4.7049    0.6192    1.9967 C   0  0  0  0  0  0  0  0  0  0  0  0
    5.5272    0.3349    0.9627 N   0  0  0  0  0  4  0  0  0  0  0  0
    6.9839    0.4719    1.1308 C   0  0  0  0  0  0  0  0  0  0  0  0
    5.0284   -0.1009   -0.2153 C   0  0  0  0  0  0  0  0  0  0  0  0
    3.6571   -0.2460   -0.3938 C   0  0  0  0  0  0  0  0  0  0  0  0
   -1.3701   -0.4898   -1.8560 C   0  0  0  0  0  0  0  0  0  0  0  0
   -2.7582   -0.6517   -1.9925 C   0  0  0  0  0  0  0  0  0  0  0  0
   -5.2124   -1.6904   -2.8442 H   0  0  0  0  0  0  0  0  0  0  0  0
   -6.6923   -0.8842   -2.3793 H   0  0  0  0  0  0  0  0  0  0  0  0
   -5.3998    0.0697   -3.1176 H   0  0  0  0  0  0  0  0  0  0  0  0
   -5.7746   -0.2011    0.8631 H   0  0  0  0  0  0  0  0  0  0  0  0
   -6.9919   -0.0627   -0.3843 H   0  0  0  0  0  0  0  0  0  0  0  0
   -5.8258    1.2507   -0.1844 H   0  0  0  0  0  0  0  0  0  0  0  0
   -3.7023    0.4875    1.0487 H   0  0  0  0  0  0  0  0  0  0  0  0
   -1.3242    0.7863    1.2824 H   0  0  0  0  0  0  0  0  0  0  0  0
    1.1106    0.5576   -1.4766 H   0  0  0  0  0  0  0  0  0  0  0  0
    0.8223   -0.4710    1.4223 H   0  0  0  0  0  0  0  0  0  0  0  0
    2.6819    0.7220    2.7076 H   0  0  0  0  0  0  0  0  0  0  0  0
    5.1578    0.9489    2.9276 H   0  0  0  0  0  0  0  0  0  0  0  0
    7.3626   -0.4859    1.4957 H   0  0  0  0  0  0  0  0  0  0  0  0
    7.1882    1.2709    1.8482 H   0  0  0  0  0  0  0  0  0  0  0  0
    7.4331    0.7276    0.1677 H   0  0  0  0  0  0  0  0  0  0  0  0
    5.7339   -0.3374   -1.0069 H   0  0  0  0  0  0  0  0  0  0  0  0
    3.2804   -0.6143   -1.3460 H   0  0  0  0  0  0  0  0  0  0  0  0
   -0.7306   -0.7770   -2.6872 H   0  0  0  0  0  0  0  0  0  0  0  0
   -3.1112   -1.0658   -2.9323 H   0  0  0  0  0  0  0  0  0  0  0  0
  1  2  1  0
  2  3  1  0
  2  4  1  0
  4  5  2  0
  5  6  1  0
  6  7  2  0
  7  8  1  0
  8  9  2  3
  9 10  1  0
 10 11  2  0
 11 12  1  0
 12 13  2  0
 13 14  1  0
 13 15  1  0
 15 16  2  0
  7 17  1  0
 17 18  2  0
 18  4  1  0
 16 10  1  0
  1 19  1  0
  1 20  1  0
  1 21  1  0
  3 22  1  0
  3 23  1  0
  3 24  1  0
  5 25  1  0
  6 26  1  0
  8 27  1  0
  9 28  1  0
 11 29  1  0
 12 30  1  0
 14 31  1  0
 14 32  1  0
 14 33  1  0
 15 34  1  0
 16 35  1  0
 17 36  1  0
 18 37  1  0
M  CHG  1  13   1
M  END
$$$$
