
     RDKit          3D

 46 48  0  0  0  0  0  0  0  0999 V2000
   -2.3176    0.3310    2.8018 C   0  0  0  0  0  0  0  0  0  0  0  0
   -2.5907    0.4941    1.3182 C   0  0  0  0  0  0  0  0  0  0  0  0
   -2.6823   -0.8472    0.6655 N   0  0  0  0  0  4  0  0  0  0  0  0
   -1.5677   -1.3790    0.0782 C   0  0  0  0  0  0  0  0  0  0  0  0
   -0.2676   -0.7032    0.1680 C   0  0  0  0  0  0  0  0  0  0  0  0
    0.3163   -0.1395   -0.9019 C   0  0  0  0  0  0  0  0  0  0  0  0
    1.6217    0.5368   -0.8699 C   0  0  0  0  0  0  0  0  0  0  0  0
    2.0999    1.2216    0.2469 C   0  0  0  0  0  0  0  0  0  0  0  0
    3.3404    1.8801    0.2086 C   0  0  0  0  0  0  0  0  0  0  0  0
    4.1559    1.8893   -0.9353 C   0  0  0  0  0  0  0  0  0  0  0  0
    5.3776    2.5664   -0.9697 N   0  0  0  0  0  0  0  0  0  0  0  0
    6.2742    2.3787   -2.1103 C   0  0  0  0  0  0  0  0  0  0  0  0
    6.0305    2.9253    0.2894 C   0  0  0  0  0  0  0  0  0  0  0  0
    3.6378    1.2166   -2.0536 C   0  0  0  0  0  0  0  0  0  0  0  0
    2.4000    0.5540   -2.0271 C   0  0  0  0  0  0  0  0  0  0  0  0
   -1.6288   -2.5967   -0.5997 C   0  0  0  0  0  0  0  0  0  0  0  0
   -2.8240   -3.2847   -0.6838 C   0  0  0  0  0  0  0  0  0  0  0  0
   -3.9571   -2.7598   -0.0757 C   0  0  0  0  0  0  0  0  0  0  0  0
   -5.1685   -3.4634   -0.1485 C   0  0  0  0  0  0  0  0  0  0  0  0
   -6.3165   -2.9658    0.4606 C   0  0  0  0  0  0  0  0  0  0  0  0
   -6.2646   -1.7631    1.1511 C   0  0  0  0  0  0  0  0  0  0  0  0
   -5.0638   -1.0492    1.2306 C   0  0  0  0  0  0  0  0  0  0  0  0
   -3.8841   -1.5192    0.6181 C   0  0  0  0  0  0  0  0  0  0  0  0
   -3.1115   -0.2342    3.2988 H   0  0  0  0  0  0  0  0  0  0  0  0
   -1.3780   -0.2013    2.9778 H   0  0  0  0  0  0  0  0  0  0  0  0
   -2.2475    1.3115    3.2825 H   0  0  0  0  0  0  0  0  0  0  0  0
   -1.8063    1.0853    0.8378 H   0  0  0  0  0  0  0  0  0  0  0  0
   -3.5138    1.0476    1.1256 H   0  0  0  0  0  0  0  0  0  0  0  0
    0.2057   -0.7056    1.1458 H   0  0  0  0  0  0  0  0  0  0  0  0
   -0.1591   -0.1733   -1.8821 H   0  0  0  0  0  0  0  0  0  0  0  0
    1.5258    1.2797    1.1664 H   0  0  0  0  0  0  0  0  0  0  0  0
    3.6459    2.4045    1.1095 H   0  0  0  0  0  0  0  0  0  0  0  0
    6.5968    1.3346   -2.1883 H   0  0  0  0  0  0  0  0  0  0  0  0
    7.1734    2.9978   -2.0155 H   0  0  0  0  0  0  0  0  0  0  0  0
    5.7956    2.6878   -3.0458 H   0  0  0  0  0  0  0  0  0  0  0  0
    6.9959    3.4136    0.1150 H   0  0  0  0  0  0  0  0  0  0  0  0
    5.4286    3.6437    0.8561 H   0  0  0  0  0  0  0  0  0  0  0  0
    6.2171    2.0367    0.9026 H   0  0  0  0  0  0  0  0  0  0  0  0
    4.1867    1.1885   -2.9906 H   0  0  0  0  0  0  0  0  0  0  0  0
    2.0672    0.0528   -2.9336 H   0  0  0  0  0  0  0  0  0  0  0  0
   -0.7372   -3.0193   -1.0620 H   0  0  0  0  0  0  0  0  0  0  0  0
   -2.8571   -4.2345   -1.2172 H   0  0  0  0  0  0  0  0  0  0  0  0
   -5.2341   -4.4130   -0.6802 H   0  0  0  0  0  0  0  0  0  0  0  0
   -7.2515   -3.5212    0.3990 H   0  0  0  0  0  0  0  0  0  0  0  0
   -7.1635   -1.3795    1.6328 H   0  0  0  0  0  0  0  0  0  0  0  0
   -5.1004   -0.1253    1.7992 H   0  0  0  0  0  0  0  0  0  0  0  0
  1  2  1  0
  2  3  1  0
  3  4  2  0
  4  5  1  0
  5  6  2  3
  6  7  1  0
  7  8  2  0
  8  9  1  0
  9 10  2  0
 10 11  1  0
 11 12  1  0
 11 13  1  0
 10 14  1  0
 14 15  2  0
  4 16  1  0
 16 17  2  0
 17 18  1  0
 18 19  2  0
 19 20  1  0
 20 21  2  0
 21 22  1  0
 22 23  2  0
 23  3  1  0
 15  7  1  0
 23 18  1  0
  1 24  1  0
  1 25  1  0
  1 26  1  0
  2 27  1  0
  2 28  1  0
  5 29  1  0
  6 30  1  0
  8 31  1  0
  9 32  1  0
 12 33  1  0
 12 34  1  0
 12 35  1  0
 13 36  1  0
 13 37  1  0
 13 38  1  0
 14 39  1  0
 15 40  1  0
 16 41  1  0
 17 42  1  0
 19 43  1  0
 20 44  1  0
 21 45  1  0
 22 46  1  0
M  CHG  1   3   1
M  END
$$$$
