
     RDKit          3D

 58 63  0  0  0  0  0  0  0  0999 V2000
    5.3870   -4.2856    1.2491 C   0  0  0  0  0  0  0  0  0  0  0  0
    5.1397   -2.8401    1.5128 C   0  0  0  0  0  0  0  0  0  0  0  0
    5.4836   -2.1009    2.6253 C   0  0  0  0  0  0  0  0  0  0  0  0
    5.0909   -0.7364    2.5058 C   0  0  0  0  0  0  0  0  0  0  0  0
    4.4228   -0.4809    1.3235 C   0  0  0  0  0  0  0  0  0  0  0  0
    3.9292    0.8072    0.8599 C   0  0  0  0  0  0  0  0  0  0  0  0
    4.6292    1.8184    0.9417 O   0  0  0  0  0  0  0  0  0  0  0  0
    2.6269    0.8926    0.3477 N   0  0  0  0  0  0  0  0  0  0  0  0
    2.2128    2.1526   -0.2557 C   0  0  0  0  0  0  0  0  0  0  0  0
    1.0179    1.9534   -1.1815 C   0  0  0  0  0  0  0  0  0  0  0  0
   -0.2361    1.4215   -0.4163 C   0  0  0  0  0  0  0  0  0  0  0  0
    0.2324    0.5836    0.8103 C   0  0  0  0  0  0  0  0  0  0  0  0
    1.5786   -0.0994    0.5906 C   0  0  0  0  0  0  0  0  0  0  0  0
   -0.9499    2.5445    0.1718 O   0  0  0  0  0  0  0  0  0  0  0  0
   -1.6678    3.3250   -0.6914 C   0  0  0  0  0  0  0  0  0  0  0  0
   -2.0490    4.5785   -0.2146 C   0  0  0  0  0  0  0  0  0  0  0  0
   -2.7612    5.4522   -1.0399 C   0  0  0  0  0  0  0  0  0  0  0  0
   -3.0935    5.0671   -2.3393 C   0  0  0  0  0  0  0  0  0  0  0  0
   -3.9688    6.1483   -3.3499 Cl  0  0  0  0  0  0  0  0  0  0  0  0
   -2.7298    3.8116   -2.8196 C   0  0  0  0  0  0  0  0  0  0  0  0
   -2.0249    2.9402   -1.9838 C   0  0  0  0  0  0  0  0  0  0  0  0
   -1.6674    1.5853   -2.4460 C   0  0  0  0  0  0  0  0  0  0  0  0
   -1.8137    1.2870   -3.6262 O   0  0  0  0  0  0  0  0  0  0  0  0
   -1.1927    0.6295   -1.3564 C   0  0  0  0  0  0  0  0  0  0  0  0
   -2.4388    0.0349   -0.7059 C   0  0  0  0  0  0  0  0  0  0  0  0
   -2.0410   -1.3995   -0.6793 C   0  0  0  0  0  0  0  0  0  0  0  0
   -2.8211   -2.4162    0.0637 C   0  0  0  0  0  0  0  0  0  0  0  0
   -4.0343   -2.0970    0.6842 C   0  0  0  0  0  0  0  0  0  0  0  0
   -4.7416   -3.0791    1.3829 C   0  0  0  0  0  0  0  0  0  0  0  0
   -4.2430   -4.3788    1.4626 C   0  0  0  0  0  0  0  0  0  0  0  0
   -3.0379   -4.7027    0.8420 C   0  0  0  0  0  0  0  0  0  0  0  0
   -2.3279   -3.7247    0.1432 C   0  0  0  0  0  0  0  0  0  0  0  0
   -0.9644   -1.6759   -1.3414 N   0  0  0  0  0  0  0  0  0  0  0  0
   -0.5124   -0.4813   -1.9455 O   0  0  0  0  0  0  0  0  0  0  0  0
    4.3723   -1.8732    0.3280 S   0  0  0  0  0  0  0  0  0  0  0  0
    6.2645   -4.4105    0.6051 H   0  0  0  0  0  0  0  0  0  0  0  0
    4.5264   -4.7559    0.7623 H   0  0  0  0  0  0  0  0  0  0  0  0
    5.5730   -4.8244    2.1852 H   0  0  0  0  0  0  0  0  0  0  0  0
    6.0066   -2.5128    3.4808 H   0  0  0  0  0  0  0  0  0  0  0  0
    5.2820    0.0267    3.2512 H   0  0  0  0  0  0  0  0  0  0  0  0
    1.9717    2.8541    0.5519 H   0  0  0  0  0  0  0  0  0  0  0  0
    3.0525    2.5763   -0.8183 H   0  0  0  0  0  0  0  0  0  0  0  0
    1.3141    1.2452   -1.9656 H   0  0  0  0  0  0  0  0  0  0  0  0
    0.8113    2.9086   -1.6765 H   0  0  0  0  0  0  0  0  0  0  0  0
   -0.5113   -0.1600    1.1079 H   0  0  0  0  0  0  0  0  0  0  0  0
    0.3227    1.2435    1.6856 H   0  0  0  0  0  0  0  0  0  0  0  0
    1.8215   -0.6942    1.4765 H   0  0  0  0  0  0  0  0  0  0  0  0
    1.5440   -0.7685   -0.2742 H   0  0  0  0  0  0  0  0  0  0  0  0
   -1.7813    4.8845    0.7944 H   0  0  0  0  0  0  0  0  0  0  0  0
   -3.0487    6.4323   -0.6659 H   0  0  0  0  0  0  0  0  0  0  0  0
   -2.9980    3.5090   -3.8297 H   0  0  0  0  0  0  0  0  0  0  0  0
   -3.3391    0.1358   -1.3222 H   0  0  0  0  0  0  0  0  0  0  0  0
   -2.6401    0.4299    0.2929 H   0  0  0  0  0  0  0  0  0  0  0  0
   -4.4556   -1.0980    0.6329 H   0  0  0  0  0  0  0  0  0  0  0  0
   -5.6858   -2.8321    1.8627 H   0  0  0  0  0  0  0  0  0  0  0  0
   -4.7961   -5.1419    2.0050 H   0  0  0  0  0  0  0  0  0  0  0  0
   -2.6506   -5.7173    0.8980 H   0  0  0  0  0  0  0  0  0  0  0  0
   -1.3898   -3.9926   -0.3392 H   0  0  0  0  0  0  0  0  0  0  0  0
  1  2  1  0
  2  3  2  0
  3  4  1  0
  4  5  2  0
  5  6  1  0
  6  7  2  0
  6  8  1  0
  8  9  1  0
  9 10  1  0
 10 11  1  0
 11 12  1  0
 12 13  1  0
 11 14  1  0
 14 15  1  0
 15 16  2  0
 16 17  1  0
 17 18  2  0
 18 19  1  0
 18 20  1  0
 20 21  2  0
 21 22  1  0
 22 23  2  0
 22 24  1  0
 24 25  1  0
 25 26  1  0
 26 27  1  0
 27 28  2  0
 28 29  1  0
 29 30  2  0
 30 31  1  0
 31 32  2  0
 26 33  2  0
 33 34  1  0
  5 35  1  0
 35  2  1  0
 13  8  1  0
 21 15  1  0
 34 24  1  0
 24 11  1  0
 32 27  1  0
  1 36  1  0
  1 37  1  0
  1 38  1  0
  3 39  1  0
  4 40  1  0
  9 41  1  0
  9 42  1  0
 10 43  1  0
 10 44  1  0
 12 45  1  0
 12 46  1  0
 13 47  1  0
 13 48  1  0
 16 49  1  0
 17 50  1  0
 20 51  1  0
 25 52  1  0
 25 53  1  0
 28 54  1  0
 29 55  1  0
 30 56  1  0
 31 57  1  0
 32 58  1  0
M  END
$$$$
