
     RDKit          3D

 52 55  0  0  0  0  0  0  0  0999 V2000
    7.9632    0.7118    1.2408 C   0  0  0  0  0  0  0  0  0  0  0  0
    6.6931    1.0078    1.8100 O   0  0  0  0  0  0  0  0  0  0  0  0
    5.5934    0.6374    1.0876 C   0  0  0  0  0  0  0  0  0  0  0  0
    5.5997   -0.0096   -0.1468 C   0  0  0  0  0  0  0  0  0  0  0  0
    4.3934   -0.3282   -0.7868 C   0  0  0  0  0  0  0  0  0  0  0  0
    3.1697   -0.0026   -0.2021 C   0  0  0  0  0  0  0  0  0  0  0  0
    1.9185   -0.2612   -0.7929 N   0  0  0  0  0  0  0  0  0  0  0  0
    1.6557   -0.9742   -1.9485 C   0  0  0  0  0  0  0  0  0  0  0  0
    2.4903   -1.5425   -2.6532 O   0  0  0  0  0  0  0  0  0  0  0  0
    0.1932   -0.9574   -2.3627 C   0  0  0  0  0  0  0  0  0  0  0  0
   -0.8950   -1.6142   -1.0673 S   0  0  0  0  0  0  0  0  0  0  0  0
   -1.5413   -0.0927   -0.4625 C   0  0  0  0  0  0  0  0  0  0  0  0
   -0.6556    0.7375    0.0065 N   0  0  0  0  0  0  0  0  0  0  0  0
   -1.1233    1.9641    0.3763 C   0  0  0  0  0  0  0  0  0  0  0  0
   -2.3777    2.3821    0.2288 C   0  0  0  0  0  0  0  0  0  0  0  0
   -3.3918    1.4669   -0.3341 C   0  0  0  0  0  0  0  0  0  0  0  0
   -4.5477    1.8437   -0.5214 O   0  0  0  0  0  0  0  0  0  0  0  0
   -2.9012    0.1847   -0.6031 N   0  0  0  0  0  0  0  0  0  0  0  0
   -3.8539   -0.8148   -0.9743 C   0  0  0  0  0  0  0  0  0  0  0  0
   -4.6099   -0.6429   -2.1440 C   0  0  0  0  0  0  0  0  0  0  0  0
   -5.5315   -1.6124   -2.5337 C   0  0  0  0  0  0  0  0  0  0  0  0
   -5.7150   -2.7488   -1.7506 C   0  0  0  0  0  0  0  0  0  0  0  0
   -4.9929   -2.9142   -0.5650 C   0  0  0  0  0  0  0  0  0  0  0  0
   -4.0665   -1.9482   -0.1602 C   0  0  0  0  0  0  0  0  0  0  0  0
   -3.3655   -1.9860    1.0199 O   0  0  0  0  0  0  0  0  0  0  0  0
   -3.5338   -3.1319    1.8426 C   0  0  0  0  0  0  0  0  0  0  0  0
   -2.6840    3.9944    0.7281 S   0  0  0  0  0  0  0  0  0  0  0  0
   -1.0517    4.1213    1.5320 C   0  0  0  0  0  0  0  0  0  0  0  0
   -0.1931    2.9919    0.9515 C   0  0  0  0  0  0  0  0  0  0  0  0
    3.1691    0.6394    1.0395 C   0  0  0  0  0  0  0  0  0  0  0  0
    4.3715    0.9553    1.6783 C   0  0  0  0  0  0  0  0  0  0  0  0
    8.1033   -0.3688    1.1313 H   0  0  0  0  0  0  0  0  0  0  0  0
    8.7315    1.0791    1.9283 H   0  0  0  0  0  0  0  0  0  0  0  0
    8.0983    1.2288    0.2848 H   0  0  0  0  0  0  0  0  0  0  0  0
    6.5237   -0.2831   -0.6477 H   0  0  0  0  0  0  0  0  0  0  0  0
    4.4502   -0.8247   -1.7511 H   0  0  0  0  0  0  0  0  0  0  0  0
    1.0998    0.0803   -0.2843 H   0  0  0  0  0  0  0  0  0  0  0  0
   -0.0852    0.0567   -2.6578 H   0  0  0  0  0  0  0  0  0  0  0  0
    0.0820   -1.5952   -3.2433 H   0  0  0  0  0  0  0  0  0  0  0  0
   -4.4811    0.2428   -2.7614 H   0  0  0  0  0  0  0  0  0  0  0  0
   -6.1100   -1.4778   -3.4446 H   0  0  0  0  0  0  0  0  0  0  0  0
   -6.4373   -3.5031   -2.0539 H   0  0  0  0  0  0  0  0  0  0  0  0
   -5.1910   -3.8022    0.0256 H   0  0  0  0  0  0  0  0  0  0  0  0
   -3.2358   -4.0455    1.3187 H   0  0  0  0  0  0  0  0  0  0  0  0
   -2.8770   -3.0171    2.7080 H   0  0  0  0  0  0  0  0  0  0  0  0
   -4.5605   -3.2026    2.2108 H   0  0  0  0  0  0  0  0  0  0  0  0
   -0.6042    5.1041    1.3581 H   0  0  0  0  0  0  0  0  0  0  0  0
   -1.1863    3.9867    2.6095 H   0  0  0  0  0  0  0  0  0  0  0  0
    0.4422    2.5659    1.7367 H   0  0  0  0  0  0  0  0  0  0  0  0
    0.4652    3.3764    0.1617 H   0  0  0  0  0  0  0  0  0  0  0  0
    2.2373    0.8911    1.5333 H   0  0  0  0  0  0  0  0  0  0  0  0
    4.3555    1.4515    2.6448 H   0  0  0  0  0  0  0  0  0  0  0  0
  1  2  1  0
  2  3  1  0
  3  4  2  0
  4  5  1  0
  5  6  2  0
  6  7  1  0
  7  8  1  0
  8  9  2  0
  8 10  1  0
 10 11  1  0
 11 12  1  0
 12 13  2  0
 13 14  1  0
 14 15  2  0
 15 16  1  0
 16 17  2  0
 16 18  1  0
 18 19  1  0
 19 20  2  0
 20 21  1  0
 21 22  2  0
 22 23  1  0
 23 24  2  0
 24 25  1  0
 25 26  1  0
 15 27  1  0
 27 28  1  0
 28 29  1  0
  6 30  1  0
 30 31  2  0
 31  3  1  0
 18 12  1  0
 24 19  1  0
 29 14  1  0
  1 32  1  0
  1 33  1  0
  1 34  1  0
  4 35  1  0
  5 36  1  0
  7 37  1  0
 10 38  1  0
 10 39  1  0
 20 40  1  0
 21 41  1  0
 22 42  1  0
 23 43  1  0
 26 44  1  0
 26 45  1  0
 26 46  1  0
 28 47  1  0
 28 48  1  0
 29 49  1  0
 29 50  1  0
 30 51  1  0
 31 52  1  0
M  END
$$$$
