
     RDKit          3D

 92 95  0  0  0  0  0  0  0  0999 V2000
    2.1908    4.2102    4.1375 C   0  0  0  0  0  0  0  0  0  0  0  0
    1.6248    3.3078    3.3267 C   0  0  0  0  0  0  0  0  0  0  0  0
    2.2144    1.9584    3.0147 C   0  0  0  0  0  0  0  0  0  0  0  0
    2.6848    1.8468    1.5554 C   0  0  0  0  0  0  0  0  0  0  0  0
    3.6128    0.6510    1.2820 C   0  0  0  0  0  0  0  0  0  0  0  0
    3.0926   -0.7220    1.6844 C   0  0  0  0  0  0  0  0  0  0  0  0
    1.9392   -0.8843    2.0953 O   0  0  0  0  0  0  0  0  0  0  0  0
    3.9541   -1.8037    1.5530 N   0  0  0  0  0  0  0  0  0  0  0  0
    3.4602   -3.1375    1.9360 C   0  0  0  0  0  0  0  0  0  0  0  0
    2.6025   -3.7941    0.8442 C   0  0  0  0  0  0  0  0  0  0  0  0
    1.3557   -3.1304    0.6428 O   0  0  0  0  0  0  0  0  0  0  0  0
    5.2565   -1.7497    0.8774 C   0  0  0  0  0  0  0  0  0  0  0  0
    6.4150   -2.1124    1.7786 C   0  0  0  0  0  0  0  0  0  0  0  0
    7.4446   -2.9357    1.2974 C   0  0  0  0  0  0  0  0  0  0  0  0
    8.5303   -3.2649    2.1109 C   0  0  0  0  0  0  0  0  0  0  0  0
    8.6053   -2.7694    3.4103 C   0  0  0  0  0  0  0  0  0  0  0  0
    7.5983   -1.9379    3.8959 C   0  0  0  0  0  0  0  0  0  0  0  0
    6.5128   -1.6053    3.0836 C   0  0  0  0  0  0  0  0  0  0  0  0
    1.5578    1.8912    0.5262 C   0  0  0  0  0  0  0  0  0  0  0  0
    1.5735    2.7080   -0.3922 O   0  0  0  0  0  0  0  0  0  0  0  0
    0.5821    0.9398    0.6681 N   0  0  0  0  0  0  0  0  0  0  0  0
   -0.5721    0.8265   -0.2262 C   0  0  0  0  0  0  0  0  0  0  0  0
   -0.5651   -0.5556   -0.9102 C   0  0  0  0  0  0  0  0  0  0  0  0
   -1.7026   -0.7253   -1.7733 O   0  0  0  0  0  0  0  0  0  0  0  0
   -1.5685   -0.2507   -3.0420 C   0  0  0  0  0  0  0  0  0  0  0  0
   -0.5490    0.2412   -3.5049 O   0  0  0  0  0  0  0  0  0  0  0  0
   -2.8528   -0.4263   -3.8290 C   0  0  0  0  0  0  0  0  0  0  0  0
   -4.0074    0.2490   -3.0648 C   0  0  0  0  0  0  0  0  0  0  0  0
   -5.1352    0.7105   -3.9467 C   0  0  0  0  0  0  0  0  0  0  0  0
   -5.4407    1.9987   -4.1512 C   0  0  0  0  0  0  0  0  0  0  0  0
   -3.0396   -1.9316   -4.0843 C   0  0  0  0  0  0  0  0  0  0  0  0
   -4.1012   -2.2864   -5.0968 C   0  0  0  0  0  0  0  0  0  0  0  0
   -3.9570   -1.9156   -6.4431 C   0  0  0  0  0  0  0  0  0  0  0  0
   -4.9391   -2.2518   -7.3759 C   0  0  0  0  0  0  0  0  0  0  0  0
   -6.0604   -2.9621   -6.9655 C   0  0  0  0  0  0  0  0  0  0  0  0
   -7.0019   -3.2851   -7.8624 F   0  0  0  0  0  0  0  0  0  0  0  0
   -6.2191   -3.3442   -5.6394 C   0  0  0  0  0  0  0  0  0  0  0  0
   -5.2389   -3.0092   -4.7044 C   0  0  0  0  0  0  0  0  0  0  0  0
   -1.8926    1.0391    0.5465 C   0  0  0  0  0  0  0  0  0  0  0  0
   -2.0759    2.3990    1.1601 C   0  0  0  0  0  0  0  0  0  0  0  0
   -1.5995    3.6084    0.6898 C   0  0  0  0  0  0  0  0  0  0  0  0
   -1.9979    4.5977    1.5455 N   0  0  0  0  0  0  0  0  0  0  0  0
   -2.7602    4.0695    2.5599 C   0  0  0  0  0  0  0  0  0  0  0  0
   -3.3868    4.7027    3.6394 C   0  0  0  0  0  0  0  0  0  0  0  0
   -4.1217    3.9041    4.5211 C   0  0  0  0  0  0  0  0  0  0  0  0
   -4.2192    2.5282    4.3307 C   0  0  0  0  0  0  0  0  0  0  0  0
   -3.5794    1.9106    3.2495 C   0  0  0  0  0  0  0  0  0  0  0  0
   -2.8322    2.6930    2.3435 C   0  0  0  0  0  0  0  0  0  0  0  0
    1.7009    5.1598    4.3311 H   0  0  0  0  0  0  0  0  0  0  0  0
    3.1414    4.0269    4.6275 H   0  0  0  0  0  0  0  0  0  0  0  0
    0.6645    3.5403    2.8683 H   0  0  0  0  0  0  0  0  0  0  0  0
    3.0652    1.7661    3.6818 H   0  0  0  0  0  0  0  0  0  0  0  0
    1.4522    1.2120    3.2618 H   0  0  0  0  0  0  0  0  0  0  0  0
    3.2911    2.7421    1.3465 H   0  0  0  0  0  0  0  0  0  0  0  0
    4.5522    0.8227    1.8212 H   0  0  0  0  0  0  0  0  0  0  0  0
    3.8291    0.6209    0.2072 H   0  0  0  0  0  0  0  0  0  0  0  0
    2.8624   -3.0299    2.8491 H   0  0  0  0  0  0  0  0  0  0  0  0
    4.3122   -3.7812    2.1771 H   0  0  0  0  0  0  0  0  0  0  0  0
    2.3780   -4.8267    1.1276 H   0  0  0  0  0  0  0  0  0  0  0  0
    3.1329   -3.8109   -0.1125 H   0  0  0  0  0  0  0  0  0  0  0  0
    1.3104   -2.3846    1.2774 H   0  0  0  0  0  0  0  0  0  0  0  0
    5.1987   -2.4431    0.0297 H   0  0  0  0  0  0  0  0  0  0  0  0
    5.4587   -0.7625    0.4563 H   0  0  0  0  0  0  0  0  0  0  0  0
    7.4098   -3.3299    0.2847 H   0  0  0  0  0  0  0  0  0  0  0  0
    9.3197   -3.9079    1.7312 H   0  0  0  0  0  0  0  0  0  0  0  0
    9.4492   -3.0283    4.0449 H   0  0  0  0  0  0  0  0  0  0  0  0
    7.6582   -1.5477    4.9087 H   0  0  0  0  0  0  0  0  0  0  0  0
    5.7397   -0.9526    3.4817 H   0  0  0  0  0  0  0  0  0  0  0  0
    0.6735    0.2586    1.4203 H   0  0  0  0  0  0  0  0  0  0  0  0
   -0.5000    1.5914   -1.0081 H   0  0  0  0  0  0  0  0  0  0  0  0
    0.3719   -0.7270   -1.4551 H   0  0  0  0  0  0  0  0  0  0  0  0
   -0.6275   -1.3453   -0.1528 H   0  0  0  0  0  0  0  0  0  0  0  0
   -2.6980    0.1009   -4.7799 H   0  0  0  0  0  0  0  0  0  0  0  0
   -3.6216    1.1120   -2.5052 H   0  0  0  0  0  0  0  0  0  0  0  0
   -4.4147   -0.4340   -2.3085 H   0  0  0  0  0  0  0  0  0  0  0  0
   -5.7478   -0.0500   -4.4251 H   0  0  0  0  0  0  0  0  0  0  0  0
   -6.2747    2.2753   -4.7891 H   0  0  0  0  0  0  0  0  0  0  0  0
   -4.8743    2.8035   -3.6921 H   0  0  0  0  0  0  0  0  0  0  0  0
   -3.2483   -2.4448   -3.1361 H   0  0  0  0  0  0  0  0  0  0  0  0
   -2.0943   -2.3664   -4.4380 H   0  0  0  0  0  0  0  0  0  0  0  0
   -3.0786   -1.3649   -6.7737 H   0  0  0  0  0  0  0  0  0  0  0  0
   -4.8349   -1.9664   -8.4178 H   0  0  0  0  0  0  0  0  0  0  0  0
   -7.1020   -3.9008   -5.3426 H   0  0  0  0  0  0  0  0  0  0  0  0
   -5.3710   -3.3124   -3.6678 H   0  0  0  0  0  0  0  0  0  0  0  0
   -1.9605    0.2808    1.3379 H   0  0  0  0  0  0  0  0  0  0  0  0
   -2.7472    0.8738   -0.1208 H   0  0  0  0  0  0  0  0  0  0  0  0
   -0.9899    3.8467   -0.1734 H   0  0  0  0  0  0  0  0  0  0  0  0
   -1.7723    5.5777    1.4438 H   0  0  0  0  0  0  0  0  0  0  0  0
   -3.3146    5.7749    3.7871 H   0  0  0  0  0  0  0  0  0  0  0  0
   -4.6255    4.3669    5.3661 H   0  0  0  0  0  0  0  0  0  0  0  0
   -4.8010    1.9261    5.0253 H   0  0  0  0  0  0  0  0  0  0  0  0
   -3.6659    0.8374    3.1100 H   0  0  0  0  0  0  0  0  0  0  0  0
  1  2  2  0
  2  3  1  0
  3  4  1  0
  4  5  1  0
  5  6  1  0
  6  7  2  0
  6  8  1  0
  8  9  1  0
  9 10  1  0
 10 11  1  0
  8 12  1  0
 12 13  1  0
 13 14  2  0
 14 15  1  0
 15 16  2  0
 16 17  1  0
 17 18  2  0
  4 19  1  0
 19 20  2  0
 19 21  1  0
 21 22  1  0
 22 23  1  0
 23 24  1  0
 24 25  1  0
 25 26  2  0
 25 27  1  0
 27 28  1  0
 28 29  1  0
 29 30  2  0
 27 31  1  0
 31 32  1  0
 32 33  2  0
 33 34  1  0
 34 35  2  0
 35 36  1  0
 35 37  1  0
 37 38  2  0
 22 39  1  0
 39 40  1  0
 40 41  2  0
 41 42  1  0
 42 43  1  0
 43 44  2  0
 44 45  1  0
 45 46  2  0
 46 47  1  0
 47 48  2  0
 18 13  1  0
 38 32  1  0
 48 40  1  0
 48 43  1  0
  1 49  1  0
  1 50  1  0
  2 51  1  0
  3 52  1  0
  3 53  1  0
  4 54  1  0
  5 55  1  0
  5 56  1  0
  9 57  1  0
  9 58  1  0
 10 59  1  0
 10 60  1  0
 11 61  1  0
 12 62  1  0
 12 63  1  0
 14 64  1  0
 15 65  1  0
 16 66  1  0
 17 67  1  0
 18 68  1  0
 21 69  1  0
 22 70  1  0
 23 71  1  0
 23 72  1  0
 27 73  1  0
 28 74  1  0
 28 75  1  0
 29 76  1  0
 30 77  1  0
 30 78  1  0
 31 79  1  0
 31 80  1  0
 33 81  1  0
 34 82  1  0
 37 83  1  0
 38 84  1  0
 39 85  1  0
 39 86  1  0
 41 87  1  0
 42 88  1  0
 44 89  1  0
 45 90  1  0
 46 91  1  0
 47 92  1  0
M  END
$$$$
