
     RDKit          3D

 71 75  0  0  0  0  0  0  0  0999 V2000
   -1.1084    4.1681   -0.0835 C   0  0  0  0  0  0  0  0  0  0  0  0
   -1.1900    2.6747    0.1468 C   0  0  0  0  0  0  0  0  0  0  0  0
   -1.6196    1.8738   -0.8463 C   0  0  0  0  0  0  0  0  0  0  0  0
   -1.8372    0.4268   -1.0071 C   0  0  0  0  0  0  0  0  0  0  0  0
   -2.9548   -0.4007   -0.4189 C   0  0  2  0  0  0  0  0  0  0  0  0
   -2.8304   -1.8923   -0.1938 C   0  0  0  0  0  0  0  0  0  0  0  0
   -2.8042   -2.3096    1.2734 C   0  0  0  0  0  0  0  0  0  0  0  0
   -1.5122   -1.9304    1.9508 C   0  0  2  0  0  0  0  0  0  0  0  0
   -0.3069   -2.7463    1.6105 C   0  0  0  0  0  0  0  0  0  0  0  0
   -1.6601   -1.7001    3.3647 O   0  0  0  0  0  0  0  0  0  0  0  0
   -1.4569   -0.5372    2.5500 C   0  0  1  0  0  0  0  0  0  0  0  0
   -0.3141    0.3227    2.9601 C   0  0  1  0  0  0  0  0  0  0  0  0
    0.8897   -0.2335    3.7138 C   0  0  1  0  0  0  0  0  0  0  0  0
    1.6852   -1.1209    2.9435 O   0  0  0  0  0  0  0  0  0  0  0  0
    1.6730    1.0670    3.9458 C   0  0  1  0  0  0  0  0  0  0  0  0
    3.1270    0.8786    4.3576 C   0  0  0  0  0  0  0  0  0  0  0  0
    3.1988    0.0650    5.5234 O   0  0  0  0  0  0  0  0  0  0  0  0
    1.5219    1.8429    2.6162 C   0  0  0  0  0  0  0  0  0  0  0  0
    0.2904    1.2312    1.8509 C   0  0  1  0  0  0  0  0  0  0  0  0
    0.7478    0.4227    0.7606 O   0  0  0  0  0  0  0  0  0  0  0  0
    1.4989    1.0133   -0.2011 C   0  0  0  0  0  0  0  0  0  0  0  0
    1.7894    2.1958   -0.2775 O   0  0  0  0  0  0  0  0  0  0  0  0
    1.8882   -0.0223   -1.1787 C   0  0  0  0  0  0  0  0  0  0  0  0
    2.4324    0.3425   -2.3484 C   0  0  0  0  0  0  0  0  0  0  0  0
    2.7925   -0.5863   -3.4294 C   0  0  0  0  0  0  0  0  0  0  0  0
    2.7789   -0.1113   -4.7502 C   0  0  0  0  0  0  0  0  0  0  0  0
    3.1199   -0.9489   -5.8154 C   0  0  0  0  0  0  0  0  0  0  0  0
    3.4873   -2.2713   -5.5710 C   0  0  0  0  0  0  0  0  0  0  0  0
    3.5256   -2.7510   -4.2629 C   0  0  0  0  0  0  0  0  0  0  0  0
    3.1859   -1.9119   -3.1972 C   0  0  0  0  0  0  0  0  0  0  0  0
   -0.7671    2.3256    1.5426 C   0  0  0  0  0  0  0  0  0  0  0  0
   -1.2312    3.0191    2.4597 O   0  0  0  0  0  0  0  0  0  0  0  0
   -3.0698    0.0680   -1.8575 C   0  0  0  0  0  0  0  0  0  0  0  0
   -4.1900    1.0521   -2.1277 C   0  0  0  0  0  0  0  0  0  0  0  0
   -2.8352   -0.8746   -3.0166 C   0  0  0  0  0  0  0  0  0  0  0  0
   -0.1182    4.5450    0.1973 H   0  0  0  0  0  0  0  0  0  0  0  0
   -1.2691    4.4413   -1.1320 H   0  0  0  0  0  0  0  0  0  0  0  0
   -1.8639    4.6919    0.5116 H   0  0  0  0  0  0  0  0  0  0  0  0
   -1.8298    2.4066   -1.7779 H   0  0  0  0  0  0  0  0  0  0  0  0
   -0.9241   -0.1096   -1.2452 H   0  0  0  0  0  0  0  0  0  0  0  0
   -3.6159    0.0636    0.3061 H   0  0  0  0  0  0  0  0  0  0  0  0
   -1.9439   -2.2888   -0.7030 H   0  0  0  0  0  0  0  0  0  0  0  0
   -3.7033   -2.3708   -0.6561 H   0  0  0  0  0  0  0  0  0  0  0  0
   -3.6629   -1.8702    1.7957 H   0  0  0  0  0  0  0  0  0  0  0  0
   -2.9317   -3.3969    1.3418 H   0  0  0  0  0  0  0  0  0  0  0  0
   -0.5905   -3.6712    1.0961 H   0  0  0  0  0  0  0  0  0  0  0  0
    0.3581   -2.1988    0.9392 H   0  0  0  0  0  0  0  0  0  0  0  0
    0.2457   -3.0518    2.5036 H   0  0  0  0  0  0  0  0  0  0  0  0
   -2.3325    0.0886    2.3901 H   0  0  0  0  0  0  0  0  0  0  0  0
   -0.7978    0.9828    3.7006 H   0  0  0  0  0  0  0  0  0  0  0  0
    0.6022   -0.7271    4.6480 H   0  0  0  0  0  0  0  0  0  0  0  0
    2.2815   -1.5673    3.5771 H   0  0  0  0  0  0  0  0  0  0  0  0
    1.1617    1.6312    4.7388 H   0  0  0  0  0  0  0  0  0  0  0  0
    3.7109    0.3898    3.5711 H   0  0  0  0  0  0  0  0  0  0  0  0
    3.6045    1.8412    4.5707 H   0  0  0  0  0  0  0  0  0  0  0  0
    2.9533    0.6224    6.2835 H   0  0  0  0  0  0  0  0  0  0  0  0
    2.4498    1.7518    2.0434 H   0  0  0  0  0  0  0  0  0  0  0  0
    1.3841    2.9087    2.8329 H   0  0  0  0  0  0  0  0  0  0  0  0
    1.6695   -1.0482   -0.9167 H   0  0  0  0  0  0  0  0  0  0  0  0
    2.5966    1.3975   -2.5611 H   0  0  0  0  0  0  0  0  0  0  0  0
    2.4949    0.9179   -4.9645 H   0  0  0  0  0  0  0  0  0  0  0  0
    3.0994   -0.5664   -6.8343 H   0  0  0  0  0  0  0  0  0  0  0  0
    3.7520   -2.9246   -6.3983 H   0  0  0  0  0  0  0  0  0  0  0  0
    3.8225   -3.7807   -4.0705 H   0  0  0  0  0  0  0  0  0  0  0  0
    3.2443   -2.3102   -2.1867 H   0  0  0  0  0  0  0  0  0  0  0  0
   -5.1200    0.5123   -2.3369 H   0  0  0  0  0  0  0  0  0  0  0  0
   -4.3790    1.7172   -1.2787 H   0  0  0  0  0  0  0  0  0  0  0  0
   -3.9526    1.6723   -2.9982 H   0  0  0  0  0  0  0  0  0  0  0  0
   -1.9549   -1.5079   -2.8742 H   0  0  0  0  0  0  0  0  0  0  0  0
   -3.7038   -1.5260   -3.1590 H   0  0  0  0  0  0  0  0  0  0  0  0
   -2.6818   -0.3067   -3.9410 H   0  0  0  0  0  0  0  0  0  0  0  0
  1  2  1  0
  2  3  2  3
  3  4  1  0
  4  5  1  0
  5  6  1  0
  6  7  1  0
  7  8  1  0
  8  9  1  1
  8 10  1  0
 10 11  1  0
 11 12  1  0
 12 13  1  0
 13 14  1  0
 13 15  1  0
 15 16  1  0
 16 17  1  0
 15 18  1  0
 18 19  1  0
 19 20  1  6
 20 21  1  0
 21 22  2  0
 21 23  1  0
 23 24  2  0
 24 25  1  0
 25 26  2  0
 26 27  1  0
 27 28  2  0
 28 29  1  0
 29 30  2  0
 19 31  1  0
 31 32  2  0
  5 33  1  0
 33 34  1  0
 33 35  1  0
 31  2  1  0
 33  4  1  0
 11  8  1  0
 19 12  1  0
 30 25  1  0
  1 36  1  0
  1 37  1  0
  1 38  1  0
  3 39  1  0
  4 40  1  0
  5 41  1  1
  6 42  1  0
  6 43  1  0
  7 44  1  0
  7 45  1  0
  9 46  1  0
  9 47  1  0
  9 48  1  0
 11 49  1  6
 12 50  1  1
 13 51  1  1
 14 52  1  0
 15 53  1  1
 16 54  1  0
 16 55  1  0
 17 56  1  0
 18 57  1  0
 18 58  1  0
 23 59  1  0
 24 60  1  0
 26 61  1  0
 27 62  1  0
 28 63  1  0
 29 64  1  0
 30 65  1  0
 34 66  1  0
 34 67  1  0
 34 68  1  0
 35 69  1  0
 35 70  1  0
 35 71  1  0
M  END
$$$$
