
     RDKit          3D

 51 53  0  0  0  0  0  0  0  0999 V2000
    4.5655   -3.3010   -1.9036 C   0  0  0  0  0  0  0  0  0  0  0  0
    5.8838   -2.7708   -1.8437 O   0  0  0  0  0  0  0  0  0  0  0  0
    6.0280   -1.5302   -1.2830 C   0  0  0  0  0  0  0  0  0  0  0  0
    7.3470   -1.0784   -1.2089 C   0  0  0  0  0  0  0  0  0  0  0  0
    7.6369    0.1677   -0.6582 C   0  0  0  0  0  0  0  0  0  0  0  0
    6.6028    0.9707   -0.1789 C   0  0  0  0  0  0  0  0  0  0  0  0
    5.2746    0.5346   -0.2496 C   0  0  0  0  0  0  0  0  0  0  0  0
    4.2903    1.4044    0.2504 N   0  0  0  0  0  0  0  0  0  0  0  0
    2.9248    1.2186    0.2827 C   0  0  0  0  0  0  0  0  0  0  0  0
    2.2611    0.2684   -0.1096 O   0  0  0  0  0  0  0  0  0  0  0  0
    2.1969    2.4186    0.9144 C   0  0  0  0  0  0  0  0  0  0  0  0
    2.8555    3.3697    1.3161 O   0  0  0  0  0  0  0  0  0  0  0  0
    0.8281    2.2458    0.9390 N   0  0  0  0  0  0  0  0  0  0  0  0
    0.0216    3.1629    1.5411 N   0  0  0  0  0  0  0  0  0  0  0  0
   -1.2675    2.9989    1.5114 C   0  0  0  0  0  0  0  0  0  0  0  0
   -1.9909    1.9746    0.7747 C   0  0  0  0  0  0  0  0  0  0  0  0
   -1.7688    1.5322   -0.5514 C   0  0  0  0  0  0  0  0  0  0  0  0
   -2.6995    0.5586   -0.8529 C   0  0  0  0  0  0  0  0  0  0  0  0
   -2.7682   -0.2543   -2.1023 C   0  0  0  0  0  0  0  0  0  0  0  0
   -3.5246    0.3939    0.2548 N   0  0  0  0  0  0  0  0  0  0  0  0
   -4.5978   -0.5377    0.3667 C   0  0  0  0  0  0  0  0  0  0  0  0
   -4.7290   -1.3207    1.5195 C   0  0  0  0  0  0  0  0  0  0  0  0
   -5.7773   -2.2390    1.6249 C   0  0  0  0  0  0  0  0  0  0  0  0
   -6.7000   -2.3788    0.5847 C   0  0  0  0  0  0  0  0  0  0  0  0
   -7.9676   -3.5344    0.7855 Cl  0  0  0  0  0  0  0  0  0  0  0  0
   -6.5720   -1.5950   -0.5671 C   0  0  0  0  0  0  0  0  0  0  0  0
   -7.6809   -1.7046   -1.8880 Cl  0  0  0  0  0  0  0  0  0  0  0  0
   -5.5212   -0.6766   -0.6767 C   0  0  0  0  0  0  0  0  0  0  0  0
   -3.1122    1.2953    1.2393 C   0  0  0  0  0  0  0  0  0  0  0  0
   -3.8342    1.4923    2.5352 C   0  0  0  0  0  0  0  0  0  0  0  0
    4.9937   -0.7195   -0.8037 C   0  0  0  0  0  0  0  0  0  0  0  0
    4.1381   -3.4130   -0.9015 H   0  0  0  0  0  0  0  0  0  0  0  0
    3.9225   -2.6876   -2.5436 H   0  0  0  0  0  0  0  0  0  0  0  0
    4.6263   -4.2974   -2.3519 H   0  0  0  0  0  0  0  0  0  0  0  0
    8.1530   -1.7052   -1.5829 H   0  0  0  0  0  0  0  0  0  0  0  0
    8.6664    0.5117   -0.6041 H   0  0  0  0  0  0  0  0  0  0  0  0
    6.8501    1.9400    0.2470 H   0  0  0  0  0  0  0  0  0  0  0  0
    4.5976    2.2941    0.6411 H   0  0  0  0  0  0  0  0  0  0  0  0
    0.4547    1.3550    0.6151 H   0  0  0  0  0  0  0  0  0  0  0  0
   -1.8765    3.7056    2.0992 H   0  0  0  0  0  0  0  0  0  0  0  0
   -0.9966    1.8817   -1.2276 H   0  0  0  0  0  0  0  0  0  0  0  0
   -2.9712   -1.3079   -1.8901 H   0  0  0  0  0  0  0  0  0  0  0  0
   -3.5347    0.1358   -2.7780 H   0  0  0  0  0  0  0  0  0  0  0  0
   -1.8118   -0.2147   -2.6359 H   0  0  0  0  0  0  0  0  0  0  0  0
   -4.0030   -1.2649    2.3271 H   0  0  0  0  0  0  0  0  0  0  0  0
   -5.8626   -2.8517    2.5197 H   0  0  0  0  0  0  0  0  0  0  0  0
   -5.4615   -0.0472   -1.5606 H   0  0  0  0  0  0  0  0  0  0  0  0
   -4.9156    1.3667    2.4229 H   0  0  0  0  0  0  0  0  0  0  0  0
   -3.4642    0.7923    3.2905 H   0  0  0  0  0  0  0  0  0  0  0  0
   -3.6799    2.5049    2.9212 H   0  0  0  0  0  0  0  0  0  0  0  0
    3.9699   -1.0644   -0.8621 H   0  0  0  0  0  0  0  0  0  0  0  0
  1  2  1  0
  2  3  1  0
  3  4  2  0
  4  5  1  0
  5  6  2  0
  6  7  1  0
  7  8  1  0
  8  9  1  0
  9 10  2  0
  9 11  1  0
 11 12  2  0
 11 13  1  0
 13 14  1  0
 14 15  2  3
 15 16  1  0
 16 17  1  0
 17 18  2  0
 18 19  1  0
 18 20  1  0
 20 21  1  0
 21 22  2  0
 22 23  1  0
 23 24  2  0
 24 25  1  0
 24 26  1  0
 26 27  1  0
 26 28  2  0
 20 29  1  0
 29 30  1  0
  7 31  2  0
 31  3  1  0
 29 16  2  0
 28 21  1  0
  1 32  1  0
  1 33  1  0
  1 34  1  0
  4 35  1  0
  5 36  1  0
  6 37  1  0
  8 38  1  0
 13 39  1  0
 15 40  1  0
 17 41  1  0
 19 42  1  0
 19 43  1  0
 19 44  1  0
 22 45  1  0
 23 46  1  0
 28 47  1  0
 30 48  1  0
 30 49  1  0
 30 50  1  0
 31 51  1  0
M  END
$$$$
