
     RDKit          3D

 39 41  0  0  0  0  0  0  0  0999 V2000
    1.7722   -2.2312   -1.9979 O   0  0  0  0  0  0  0  0  0  0  0  0
    1.5611   -1.2950   -1.2332 C   0  0  0  0  0  0  0  0  0  0  0  0
    2.6646   -0.4420   -0.7119 C   0  0  0  0  0  0  0  0  0  0  0  0
    3.9379   -0.8151   -0.9133 C   0  0  0  0  0  0  0  0  0  0  0  0
    5.1010   -0.0348   -0.4718 C   0  0  0  0  0  0  0  0  0  0  0  0
    5.1310    0.6374    0.7579 C   0  0  0  0  0  0  0  0  0  0  0  0
    6.2690    1.3477    1.1528 C   0  0  0  0  0  0  0  0  0  0  0  0
    7.3870    1.3797    0.3228 C   0  0  0  0  0  0  0  0  0  0  0  0
    8.9255    2.3391    0.8561 Br  0  0  0  0  0  0  0  0  0  0  0  0
    7.3800    0.7040   -0.8947 C   0  0  0  0  0  0  0  0  0  0  0  0
    6.2411   -0.0057   -1.2865 C   0  0  0  0  0  0  0  0  0  0  0  0
    0.1663   -0.9618   -0.8359 C   0  0  0  0  0  0  0  0  0  0  0  0
   -0.8710   -1.3358   -1.6967 C   0  0  0  0  0  0  0  0  0  0  0  0
   -2.2009   -1.0522   -1.3680 C   0  0  0  0  0  0  0  0  0  0  0  0
   -2.5188   -0.3978   -0.1711 C   0  0  0  0  0  0  0  0  0  0  0  0
   -3.8850   -0.1510    0.0803 N   0  0  0  0  0  0  0  0  0  0  0  0
   -4.4487    0.5002    1.1715 C   0  0  0  0  0  0  0  0  0  0  0  0
   -3.7976    0.9828    2.0936 O   0  0  0  0  0  0  0  0  0  0  0  0
   -5.9055    0.5733    1.1316 C   0  0  0  0  0  0  0  0  0  0  0  0
   -6.8701    0.0933    0.2582 C   0  0  0  0  0  0  0  0  0  0  0  0
   -8.1305    0.4952    0.7684 C   0  0  0  0  0  0  0  0  0  0  0  0
   -7.8694    1.1945    1.9201 C   0  0  0  0  0  0  0  0  0  0  0  0
   -6.5349    1.2470    2.1490 O   0  0  0  0  0  0  0  0  0  0  0  0
   -1.4817   -0.0429    0.6938 C   0  0  0  0  0  0  0  0  0  0  0  0
   -0.1473   -0.3260    0.3687 C   0  0  0  0  0  0  0  0  0  0  0  0
    2.4128    0.4845   -0.2134 H   0  0  0  0  0  0  0  0  0  0  0  0
    4.1602   -1.7333   -1.4556 H   0  0  0  0  0  0  0  0  0  0  0  0
    4.2773    0.6066    1.4303 H   0  0  0  0  0  0  0  0  0  0  0  0
    6.2734    1.8644    2.1089 H   0  0  0  0  0  0  0  0  0  0  0  0
    8.2511    0.7198   -1.5443 H   0  0  0  0  0  0  0  0  0  0  0  0
    6.2498   -0.5300   -2.2403 H   0  0  0  0  0  0  0  0  0  0  0  0
   -0.6475   -1.8497   -2.6303 H   0  0  0  0  0  0  0  0  0  0  0  0
   -2.9784   -1.3546   -2.0651 H   0  0  0  0  0  0  0  0  0  0  0  0
   -4.5224   -0.4792   -0.6297 H   0  0  0  0  0  0  0  0  0  0  0  0
   -6.7049   -0.4824   -0.6407 H   0  0  0  0  0  0  0  0  0  0  0  0
   -9.1079    0.2982    0.3502 H   0  0  0  0  0  0  0  0  0  0  0  0
   -8.4884    1.6920    2.6541 H   0  0  0  0  0  0  0  0  0  0  0  0
   -1.6715    0.4493    1.6432 H   0  0  0  0  0  0  0  0  0  0  0  0
    0.6209   -0.0594    1.0890 H   0  0  0  0  0  0  0  0  0  0  0  0
  1  2  2  0
  2  3  1  0
  3  4  2  3
  4  5  1  0
  5  6  2  0
  6  7  1  0
  7  8  2  0
  8  9  1  0
  8 10  1  0
 10 11  2  0
  2 12  1  0
 12 13  2  0
 13 14  1  0
 14 15  2  0
 15 16  1  0
 16 17  1  0
 17 18  2  0
 17 19  1  0
 19 20  2  0
 20 21  1  0
 21 22  2  0
 22 23  1  0
 15 24  1  0
 24 25  2  0
 11  5  1  0
 25 12  1  0
 23 19  1  0
  3 26  1  0
  4 27  1  0
  6 28  1  0
  7 29  1  0
 10 30  1  0
 11 31  1  0
 13 32  1  0
 14 33  1  0
 16 34  1  0
 20 35  1  0
 21 36  1  0
 22 37  1  0
 24 38  1  0
 25 39  1  0
M  END
$$$$
