
     RDKit          3D

 50 53  0  0  0  0  0  0  0  0999 V2000
   -1.7212    2.8425    2.3185 C   0  0  0  0  0  0  0  0  0  0  0  0
   -0.4944    1.9574    2.4588 C   0  0  0  0  0  0  0  0  0  0  0  0
   -0.8544    0.4957    2.2769 C   0  0  0  0  0  0  0  0  0  0  0  0
   -1.1814   -0.1555    3.2727 O   0  0  0  0  0  0  0  0  0  0  0  0
   -0.8502   -0.0525    1.0041 N   0  0  0  0  0  0  0  0  0  0  0  0
   -1.3929   -1.4085    0.8513 C   0  0  0  0  0  0  0  0  0  0  0  0
   -2.8439   -1.3883    0.4196 C   0  0  0  0  0  0  0  0  0  0  0  0
   -3.1951   -1.5355   -0.9301 C   0  0  0  0  0  0  0  0  0  0  0  0
   -4.5325   -1.4589   -1.3304 C   0  0  0  0  0  0  0  0  0  0  0  0
   -5.5449   -1.2382   -0.3895 C   0  0  0  0  0  0  0  0  0  0  0  0
   -6.9814   -1.1760   -0.8183 C   0  0  0  0  0  0  0  0  0  0  0  0
   -5.2016   -1.1296    0.9646 C   0  0  0  0  0  0  0  0  0  0  0  0
   -3.8627   -1.1904    1.3634 C   0  0  0  0  0  0  0  0  0  0  0  0
   -0.4374    0.6402   -0.2247 C   0  0  0  0  0  0  0  0  0  0  0  0
    0.9694    0.2641   -0.6145 C   0  0  0  0  0  0  0  0  0  0  0  0
    2.0640    0.9232   -0.1861 C   0  0  0  0  0  0  0  0  0  0  0  0
    3.4075    0.5511   -0.6322 C   0  0  0  0  0  0  0  0  0  0  0  0
    4.5383    1.2609   -0.2056 C   0  0  0  0  0  0  0  0  0  0  0  0
    5.7671    0.8528   -0.6837 C   0  0  0  0  0  0  0  0  0  0  0  0
    5.8967   -0.2166   -1.5432 C   0  0  0  0  0  0  0  0  0  0  0  0
    4.8057   -0.9405   -1.9797 C   0  0  0  0  0  0  0  0  0  0  0  0
    3.5497   -0.5390   -1.5184 C   0  0  0  0  0  0  0  0  0  0  0  0
    2.3996   -1.2038   -1.9636 N   0  0  0  0  0  0  0  0  0  0  0  0
    1.1258   -0.8330   -1.6227 C   0  0  0  0  0  0  0  0  0  0  0  0
    0.1571   -1.3749   -2.1479 O   0  0  0  0  0  0  0  0  0  0  0  0
    7.1920   -0.4384   -1.8969 O   0  0  0  0  0  0  0  0  0  0  0  0
    7.8653    0.5965   -1.1474 C   0  0  0  0  0  0  0  0  0  0  0  0
    6.9638    1.4341   -0.3929 O   0  0  0  0  0  0  0  0  0  0  0  0
   -1.4540    3.8853    2.5140 H   0  0  0  0  0  0  0  0  0  0  0  0
   -2.1529    2.7840    1.3136 H   0  0  0  0  0  0  0  0  0  0  0  0
   -2.5004    2.5513    3.0321 H   0  0  0  0  0  0  0  0  0  0  0  0
   -0.0690    2.0699    3.4639 H   0  0  0  0  0  0  0  0  0  0  0  0
    0.2913    2.2713    1.7739 H   0  0  0  0  0  0  0  0  0  0  0  0
   -1.3140   -1.9656    1.7948 H   0  0  0  0  0  0  0  0  0  0  0  0
   -0.7835   -1.9712    0.1373 H   0  0  0  0  0  0  0  0  0  0  0  0
   -2.4265   -1.7022   -1.6836 H   0  0  0  0  0  0  0  0  0  0  0  0
   -4.7758   -1.5620   -2.3876 H   0  0  0  0  0  0  0  0  0  0  0  0
   -7.0665   -0.8100   -1.8473 H   0  0  0  0  0  0  0  0  0  0  0  0
   -7.5460   -0.4845   -0.1842 H   0  0  0  0  0  0  0  0  0  0  0  0
   -7.4384   -2.1694   -0.7604 H   0  0  0  0  0  0  0  0  0  0  0  0
   -5.9725   -0.9817    1.7180 H   0  0  0  0  0  0  0  0  0  0  0  0
   -3.6138   -1.0820    2.4190 H   0  0  0  0  0  0  0  0  0  0  0  0
   -1.1522    0.4224   -1.0255 H   0  0  0  0  0  0  0  0  0  0  0  0
   -0.4990    1.7238   -0.0893 H   0  0  0  0  0  0  0  0  0  0  0  0
    1.9906    1.7561    0.5045 H   0  0  0  0  0  0  0  0  0  0  0  0
    4.4689    2.1047    0.4714 H   0  0  0  0  0  0  0  0  0  0  0  0
    4.9325   -1.7702   -2.6637 H   0  0  0  0  0  0  0  0  0  0  0  0
    2.4754   -1.9610   -2.6300 H   0  0  0  0  0  0  0  0  0  0  0  0
    8.5681    0.1240   -0.4535 H   0  0  0  0  0  0  0  0  0  0  0  0
    8.4295    1.2283   -1.8445 H   0  0  0  0  0  0  0  0  0  0  0  0
  1  2  1  0
  2  3  1  0
  3  4  2  0
  3  5  1  0
  5  6  1  0
  6  7  1  0
  7  8  2  0
  8  9  1  0
  9 10  2  0
 10 11  1  0
 10 12  1  0
 12 13  2  0
  5 14  1  0
 14 15  1  0
 15 16  2  0
 16 17  1  0
 17 18  2  0
 18 19  1  0
 19 20  2  0
 20 21  1  0
 21 22  2  0
 22 23  1  0
 23 24  1  0
 24 25  2  0
 20 26  1  0
 26 27  1  0
 27 28  1  0
 13  7  1  0
 24 15  1  0
 22 17  1  0
 28 19  1  0
  1 29  1  0
  1 30  1  0
  1 31  1  0
  2 32  1  0
  2 33  1  0
  6 34  1  0
  6 35  1  0
  8 36  1  0
  9 37  1  0
 11 38  1  0
 11 39  1  0
 11 40  1  0
 12 41  1  0
 13 42  1  0
 14 43  1  0
 14 44  1  0
 16 45  1  0
 18 46  1  0
 21 47  1  0
 23 48  1  0
 27 49  1  0
 27 50  1  0
M  END
$$$$
