
     RDKit          3D

 41 42  0  0  0  0  0  0  0  0999 V2000
    0.4603    4.8934    0.4262 C   0  0  0  0  0  0  0  0  0  0  0  0
    0.2046    3.9229    1.5638 C   0  0  0  0  0  0  0  0  0  0  0  0
    0.1780    2.5772    1.0658 O   0  0  0  0  0  0  0  0  0  0  0  0
    1.3838    1.9497    0.9500 C   0  0  0  0  0  0  0  0  0  0  0  0
    2.4501    2.4400    1.3137 O   0  0  0  0  0  0  0  0  0  0  0  0
    1.2694    0.5159    0.3608 C   0  0  0  0  0  0  0  0  0  0  0  0
   -0.1184    0.0654    0.2652 N   0  0  0  0  0  0  0  0  0  0  0  0
   -0.9638    0.4661   -0.7334 C   0  0  0  0  0  0  0  0  0  0  0  0
   -0.6093    1.2129   -1.6342 O   0  0  0  0  0  0  0  0  0  0  0  0
   -2.3494   -0.0728   -0.7008 C   0  0  0  0  0  0  0  0  0  0  0  0
   -3.0462   -0.1754   -1.9133 C   0  0  0  0  0  0  0  0  0  0  0  0
   -4.3492   -0.6755   -1.9379 C   0  0  0  0  0  0  0  0  0  0  0  0
   -4.9645   -1.0674   -0.7498 C   0  0  0  0  0  0  0  0  0  0  0  0
   -4.2769   -0.9496    0.4575 C   0  0  0  0  0  0  0  0  0  0  0  0
   -5.0456   -1.4188    1.9242 Cl  0  0  0  0  0  0  0  0  0  0  0  0
   -2.9743   -0.4514    0.4928 C   0  0  0  0  0  0  0  0  0  0  0  0
    1.8364   -0.4137    1.3936 N   0  0  0  0  0  0  0  0  0  0  0  0
    2.2595   -1.6584    1.0310 C   0  0  0  0  0  0  0  0  0  0  0  0
    3.4539   -2.1092    1.3454 N   0  0  0  0  0  0  0  0  0  0  0  0
    3.6815   -3.3955    0.9046 N   0  0  0  0  0  0  0  0  0  0  0  0
    2.6338   -3.8982    0.2912 C   0  0  0  0  0  0  0  0  0  0  0  0
    2.5629   -5.2583   -0.2971 C   0  0  0  0  0  0  0  0  0  0  0  0
    1.2915   -2.8341    0.2191 S   0  0  0  0  0  0  0  0  0  0  0  0
    2.1155    0.6253   -0.9594 C   0  0  0  0  0  0  0  0  0  0  0  0
    1.9205    1.7735   -1.6450 F   0  0  0  0  0  0  0  0  0  0  0  0
    1.8581   -0.4052   -1.8063 F   0  0  0  0  0  0  0  0  0  0  0  0
    3.4469    0.5650   -0.6876 F   0  0  0  0  0  0  0  0  0  0  0  0
   -0.2865    4.7642   -0.3642 H   0  0  0  0  0  0  0  0  0  0  0  0
    1.4395    4.7155   -0.0295 H   0  0  0  0  0  0  0  0  0  0  0  0
    0.4231    5.9269    0.7820 H   0  0  0  0  0  0  0  0  0  0  0  0
    0.9437    4.0369    2.3647 H   0  0  0  0  0  0  0  0  0  0  0  0
   -0.7788    4.1206    2.0027 H   0  0  0  0  0  0  0  0  0  0  0  0
   -0.3985   -0.5961    0.9710 H   0  0  0  0  0  0  0  0  0  0  0  0
   -2.5728    0.1334   -2.8445 H   0  0  0  0  0  0  0  0  0  0  0  0
   -4.8832   -0.7556   -2.8821 H   0  0  0  0  0  0  0  0  0  0  0  0
   -5.9803   -1.4547   -0.7706 H   0  0  0  0  0  0  0  0  0  0  0  0
   -2.4775   -0.3395    1.4511 H   0  0  0  0  0  0  0  0  0  0  0  0
    2.6146    0.0683    1.8579 H   0  0  0  0  0  0  0  0  0  0  0  0
    1.7737   -5.8485    0.1795 H   0  0  0  0  0  0  0  0  0  0  0  0
    2.3634   -5.2080   -1.3722 H   0  0  0  0  0  0  0  0  0  0  0  0
    3.5108   -5.7873   -0.1552 H   0  0  0  0  0  0  0  0  0  0  0  0
  1  2  1  0
  2  3  1  0
  3  4  1  0
  4  5  2  0
  4  6  1  0
  6  7  1  0
  7  8  1  0
  8  9  2  0
  8 10  1  0
 10 11  2  0
 11 12  1  0
 12 13  2  0
 13 14  1  0
 14 15  1  0
 14 16  2  0
  6 17  1  0
 17 18  1  0
 18 19  2  0
 19 20  1  0
 20 21  2  0
 21 22  1  0
 21 23  1  0
  6 24  1  0
 24 25  1  0
 24 26  1  0
 24 27  1  0
 16 10  1  0
 23 18  1  0
  1 28  1  0
  1 29  1  0
  1 30  1  0
  2 31  1  0
  2 32  1  0
  7 33  1  0
 11 34  1  0
 12 35  1  0
 13 36  1  0
 16 37  1  0
 17 38  1  0
 22 39  1  0
 22 40  1  0
 22 41  1  0
M  END
$$$$
