
     RDKit          3D

 38 39  0  0  0  0  0  0  0  0999 V2000
   -4.3441    2.9686    2.0859 C   0  0  0  0  0  0  0  0  0  0  0  0
   -3.1358    2.4173    1.9110 C   0  0  0  0  0  0  0  0  0  0  0  0
   -2.6677    1.1637    2.5947 C   0  0  0  0  0  0  0  0  0  0  0  0
   -2.2946    0.0811    1.6096 C   0  0  0  0  0  0  0  0  0  0  0  0
   -3.2819   -0.7265    1.0361 C   0  0  0  0  0  0  0  0  0  0  0  0
   -2.9344   -1.7220    0.1254 C   0  0  0  0  0  0  0  0  0  0  0  0
   -1.5947   -1.9053   -0.2256 C   0  0  0  0  0  0  0  0  0  0  0  0
   -1.2733   -2.9175   -1.0938 O   0  0  0  0  0  0  0  0  0  0  0  0
   -0.5702   -1.1047    0.3079 C   0  0  0  0  0  0  0  0  0  0  0  0
    0.8593   -1.2359   -0.0723 C   0  0  0  0  0  0  0  0  0  0  0  0
    1.5693   -0.0890   -0.4890 C   0  0  0  0  0  0  0  0  0  0  0  0
    2.9408   -0.1267   -0.8008 C   0  0  0  0  0  0  0  0  0  0  0  0
    3.6548    1.1248   -1.2534 C   0  0  0  0  0  0  0  0  0  0  0  0
    3.3971    1.4370   -2.7005 C   0  0  0  0  0  0  0  0  0  0  0  0
    2.8488    2.5763   -3.1432 C   0  0  0  0  0  0  0  0  0  0  0  0
    3.6235   -1.3426   -0.7041 C   0  0  0  0  0  0  0  0  0  0  0  0
    2.9472   -2.4935   -0.3069 C   0  0  0  0  0  0  0  0  0  0  0  0
    1.5848   -2.4392   -0.0102 C   0  0  0  0  0  0  0  0  0  0  0  0
    1.0103   -3.6334    0.3367 O   0  0  0  0  0  0  0  0  0  0  0  0
   -0.9537   -0.1135    1.2354 C   0  0  0  0  0  0  0  0  0  0  0  0
   -5.0829    2.5296    2.7491 H   0  0  0  0  0  0  0  0  0  0  0  0
   -4.6190    3.8788    1.5615 H   0  0  0  0  0  0  0  0  0  0  0  0
   -2.4301    2.8990    1.2369 H   0  0  0  0  0  0  0  0  0  0  0  0
   -3.4319    0.7751    3.2800 H   0  0  0  0  0  0  0  0  0  0  0  0
   -1.8019    1.4074    3.2230 H   0  0  0  0  0  0  0  0  0  0  0  0
   -4.3271   -0.5852    1.3031 H   0  0  0  0  0  0  0  0  0  0  0  0
   -3.7159   -2.3508   -0.2902 H   0  0  0  0  0  0  0  0  0  0  0  0
   -2.0789   -3.1760   -1.5747 H   0  0  0  0  0  0  0  0  0  0  0  0
    1.0419    0.8601   -0.5811 H   0  0  0  0  0  0  0  0  0  0  0  0
    4.7359    1.0084   -1.1072 H   0  0  0  0  0  0  0  0  0  0  0  0
    3.3550    1.9591   -0.6063 H   0  0  0  0  0  0  0  0  0  0  0  0
    3.6843    0.6750   -3.4226 H   0  0  0  0  0  0  0  0  0  0  0  0
    2.6890    2.7377   -4.2050 H   0  0  0  0  0  0  0  0  0  0  0  0
    2.5450    3.3666   -2.4641 H   0  0  0  0  0  0  0  0  0  0  0  0
    4.6821   -1.4049   -0.9433 H   0  0  0  0  0  0  0  0  0  0  0  0
    3.4752   -3.4405   -0.2391 H   0  0  0  0  0  0  0  0  0  0  0  0
    0.0807   -3.5761    0.0413 H   0  0  0  0  0  0  0  0  0  0  0  0
   -0.1869    0.5176    1.6842 H   0  0  0  0  0  0  0  0  0  0  0  0
  1  2  2  0
  2  3  1  0
  3  4  1  0
  4  5  2  0
  5  6  1  0
  6  7  2  0
  7  8  1  0
  7  9  1  0
  9 10  1  0
 10 11  2  0
 11 12  1  0
 12 13  1  0
 13 14  1  0
 14 15  2  0
 12 16  2  0
 16 17  1  0
 17 18  2  0
 18 19  1  0
  9 20  2  0
 20  4  1  0
 18 10  1  0
  1 21  1  0
  1 22  1  0
  2 23  1  0
  3 24  1  0
  3 25  1  0
  5 26  1  0
  6 27  1  0
  8 28  1  0
 11 29  1  0
 13 30  1  0
 13 31  1  0
 14 32  1  0
 15 33  1  0
 15 34  1  0
 16 35  1  0
 17 36  1  0
 19 37  1  0
 20 38  1  0
M  END
$$$$
