
     RDKit          3D

 68 74  0  0  0  0  0  0  0  0999 V2000
   -3.4559   -4.0212   -3.0187 C   0  0  0  0  0  0  0  0  0  0  0  0
   -2.9397   -3.2890   -1.8162 C   0  0  0  0  0  0  0  0  0  0  0  0
   -3.0243   -3.8430   -0.5251 C   0  0  0  0  0  0  0  0  0  0  0  0
   -3.7280   -5.4027   -0.2617 Cl  0  0  0  0  0  0  0  0  0  0  0  0
   -2.5426   -3.1545    0.6049 C   0  0  0  0  0  0  0  0  0  0  0  0
   -1.9520   -1.8957    0.4802 C   0  0  0  0  0  0  0  0  0  0  0  0
   -1.8451   -1.3443   -0.7863 C   0  0  0  0  0  0  0  0  0  0  0  0
   -2.3448   -2.0355   -1.9033 C   0  0  0  0  0  0  0  0  0  0  0  0
   -2.1596   -1.2673   -3.0498 N   0  0  0  0  0  0  0  0  0  0  0  0
   -1.5348   -0.0498   -2.7725 C   0  0  0  0  0  0  0  0  0  0  0  0
   -1.2821    0.7970   -3.6160 O   0  0  0  0  0  0  0  0  0  0  0  0
   -1.2605   -0.0314   -1.2453 C   0  0  1  0  0  0  0  0  0  0  0  0
   -1.9569    1.0543   -0.5181 C   0  0  0  0  0  0  0  0  0  0  0  0
   -1.0509    1.8004    0.2387 C   0  0  0  0  0  0  0  0  0  0  0  0
   -1.7264    2.8008    0.8840 C   0  0  0  0  0  0  0  0  0  0  0  0
   -1.2492    3.7830    1.6438 O   0  0  0  0  0  0  0  0  0  0  0  0
   -3.0972    2.6654    0.5633 N   0  0  0  0  0  0  0  0  0  0  0  0
   -4.1727    3.4882    1.0539 C   0  0  0  0  0  0  0  0  0  0  0  0
   -4.0414    4.2049    2.2534 C   0  0  0  0  0  0  0  0  0  0  0  0
   -5.0899    4.9978    2.7333 C   0  0  0  0  0  0  0  0  0  0  0  0
   -6.2831    5.0875    2.0231 C   0  0  0  0  0  0  0  0  0  0  0  0
   -6.4279    4.3855    0.8310 C   0  0  0  0  0  0  0  0  0  0  0  0
   -5.3816    3.5911    0.3487 C   0  0  0  0  0  0  0  0  0  0  0  0
   -3.2148    1.5673   -0.3231 C   0  0  0  0  0  0  0  0  0  0  0  0
   -4.3846    1.1333   -0.7868 O   0  0  0  0  0  0  0  0  0  0  0  0
    0.3333    1.2905    0.1035 C   0  0  1  0  0  0  0  0  0  0  0  0
    0.8845    0.7254    1.4307 C   0  0  0  0  0  0  0  0  0  0  0  0
    2.0244   -0.1464    1.1777 N   0  0  0  0  0  0  0  0  0  0  0  0
    3.2854    0.4287    1.1727 C   0  0  0  0  0  0  0  0  0  0  0  0
    3.5100    1.5722    1.5527 O   0  0  0  0  0  0  0  0  0  0  0  0
    4.2389   -0.4120    0.6990 O   0  0  0  0  0  0  0  0  0  0  0  0
    5.5550    0.1444    0.6900 C   0  0  0  0  0  0  0  0  0  0  0  0
    6.5291   -0.9678    0.3922 C   0  0  0  0  0  0  0  0  0  0  0  0
    7.0256   -1.7692    1.4314 C   0  0  0  0  0  0  0  0  0  0  0  0
    7.9226   -2.8043    1.1618 C   0  0  0  0  0  0  0  0  0  0  0  0
    8.3261   -3.0541   -0.1488 C   0  0  0  0  0  0  0  0  0  0  0  0
    7.8284   -2.2734   -1.1916 C   0  0  0  0  0  0  0  0  0  0  0  0
    6.9298   -1.2381   -0.9236 C   0  0  0  0  0  0  0  0  0  0  0  0
    1.6972   -1.2921    0.3300 C   0  0  0  0  0  0  0  0  0  0  0  0
    1.1635   -0.8072   -1.0354 C   0  0  0  0  0  0  0  0  0  0  0  0
    0.1650    0.2523   -0.9608 N   0  0  0  0  0  0  0  0  0  0  0  0
   -2.9018   -4.9553   -3.1588 H   0  0  0  0  0  0  0  0  0  0  0  0
   -3.3521   -3.4419   -3.9410 H   0  0  0  0  0  0  0  0  0  0  0  0
   -4.5219   -4.2438   -2.9009 H   0  0  0  0  0  0  0  0  0  0  0  0
   -2.6336   -3.6028    1.5930 H   0  0  0  0  0  0  0  0  0  0  0  0
   -1.6007   -1.3678    1.3608 H   0  0  0  0  0  0  0  0  0  0  0  0
   -2.4260   -1.5173   -3.9907 H   0  0  0  0  0  0  0  0  0  0  0  0
   -0.2779    3.7726    1.5858 H   0  0  0  0  0  0  0  0  0  0  0  0
   -3.1449    4.1444    2.8639 H   0  0  0  0  0  0  0  0  0  0  0  0
   -4.9703    5.5406    3.6675 H   0  0  0  0  0  0  0  0  0  0  0  0
   -7.0966    5.7027    2.3973 H   0  0  0  0  0  0  0  0  0  0  0  0
   -7.3554    4.4566    0.2673 H   0  0  0  0  0  0  0  0  0  0  0  0
   -5.5324    3.0938   -0.6047 H   0  0  0  0  0  0  0  0  0  0  0  0
   -4.2284    0.3542   -1.3463 H   0  0  0  0  0  0  0  0  0  0  0  0
    1.0022    2.0697   -0.2803 H   0  0  0  0  0  0  0  0  0  0  0  0
    1.1587    1.5418    2.1065 H   0  0  0  0  0  0  0  0  0  0  0  0
    0.1288    0.1281    1.9534 H   0  0  0  0  0  0  0  0  0  0  0  0
    5.6181    0.9212   -0.0830 H   0  0  0  0  0  0  0  0  0  0  0  0
    5.8007    0.5948    1.6616 H   0  0  0  0  0  0  0  0  0  0  0  0
    6.7140   -1.5881    2.4585 H   0  0  0  0  0  0  0  0  0  0  0  0
    8.3041   -3.4144    1.9764 H   0  0  0  0  0  0  0  0  0  0  0  0
    9.0262   -3.8589   -0.3598 H   0  0  0  0  0  0  0  0  0  0  0  0
    8.1397   -2.4734   -2.2133 H   0  0  0  0  0  0  0  0  0  0  0  0
    6.5457   -0.6397   -1.7477 H   0  0  0  0  0  0  0  0  0  0  0  0
    0.9372   -1.8823    0.8538 H   0  0  0  0  0  0  0  0  0  0  0  0
    2.5663   -1.9405    0.1834 H   0  0  0  0  0  0  0  0  0  0  0  0
    0.8126   -1.6653   -1.6211 H   0  0  0  0  0  0  0  0  0  0  0  0
    2.0150   -0.4002   -1.5981 H   0  0  0  0  0  0  0  0  0  0  0  0
  1  2  1  0
  2  3  2  0
  3  4  1  0
  3  5  1  0
  5  6  2  0
  6  7  1  0
  7  8  2  0
  8  9  1  0
  9 10  1  0
 10 11  2  0
 10 12  1  0
 12 13  1  0
 13 14  1  0
 14 15  2  0
 15 16  1  0
 15 17  1  0
 17 18  1  0
 18 19  2  0
 19 20  1  0
 20 21  2  0
 21 22  1  0
 22 23  2  0
 17 24  1  0
 24 25  1  0
 14 26  1  0
 26 27  1  0
 27 28  1  0
 28 29  1  0
 29 30  2  0
 29 31  1  0
 31 32  1  0
 32 33  1  0
 33 34  2  0
 34 35  1  0
 35 36  2  0
 36 37  1  0
 37 38  2  0
 28 39  1  0
 39 40  1  0
 40 41  1  0
  8  2  1  0
 12 41  1  6
 12  7  1  0
 24 13  2  0
 41 26  1  0
 23 18  1  0
 38 33  1  0
  1 42  1  0
  1 43  1  0
  1 44  1  0
  5 45  1  0
  6 46  1  0
  9 47  1  0
 16 48  1  0
 19 49  1  0
 20 50  1  0
 21 51  1  0
 22 52  1  0
 23 53  1  0
 25 54  1  0
 26 55  1  6
 27 56  1  0
 27 57  1  0
 32 58  1  0
 32 59  1  0
 34 60  1  0
 35 61  1  0
 36 62  1  0
 37 63  1  0
 38 64  1  0
 39 65  1  0
 39 66  1  0
 40 67  1  0
 40 68  1  0
M  END
$$$$
