
     RDKit          3D

 48 51  0  0  0  0  0  0  0  0999 V2000
   -0.0490    1.5721    1.6007 C   0  0  0  0  0  0  0  0  0  0  0  0
    1.1169    0.8212    1.0530 C   0  0  0  0  0  0  0  0  0  0  0  0
    1.0795   -0.2152    0.1975 C   0  0  0  0  0  0  0  0  0  0  0  0
   -0.0122   -0.7806   -0.4026 N   0  0  0  0  0  0  0  0  0  0  0  0
   -0.0876   -2.1011   -0.8010 C   0  0  0  0  0  0  0  0  0  0  0  0
    0.6856   -2.9857   -0.4438 O   0  0  0  0  0  0  0  0  0  0  0  0
   -1.2804   -2.3985   -1.6896 C   0  0  0  0  0  0  0  0  0  0  0  0
   -2.7659   -2.6918   -0.6793 S   0  0  0  0  0  0  0  0  0  0  0  0
   -3.5744   -1.0931   -0.7794 C   0  0  0  0  0  0  0  0  0  0  0  0
   -2.7444   -0.0239   -0.7921 N   0  0  0  0  0  0  0  0  0  0  0  0
   -3.3484    1.1696   -0.8447 C   0  0  0  0  0  0  0  0  0  0  0  0
   -4.6658    1.3923   -0.8371 N   0  0  0  0  0  0  0  0  0  0  0  0
   -5.4670    0.3225   -0.8103 C   0  0  0  0  0  0  0  0  0  0  0  0
   -6.8432    0.5250   -0.8044 C   0  0  0  0  0  0  0  0  0  0  0  0
   -7.7510   -0.5386   -0.8014 C   0  0  0  0  0  0  0  0  0  0  0  0
   -7.2803   -1.8445   -0.8062 C   0  0  0  0  0  0  0  0  0  0  0  0
   -5.9064   -2.0751   -0.7960 C   0  0  0  0  0  0  0  0  0  0  0  0
   -4.9790   -0.9917   -0.7923 C   0  0  0  0  0  0  0  0  0  0  0  0
    2.5124   -0.5865   -0.0579 C   0  0  0  0  0  0  0  0  0  0  0  0
    2.8867   -1.3426   -0.9438 O   0  0  0  0  0  0  0  0  0  0  0  0
    3.2814    0.2403    0.7831 N   0  0  0  0  0  0  0  0  0  0  0  0
    4.6442    0.5610    0.5463 C   0  0  0  0  0  0  0  0  0  0  0  0
    5.1514    1.8447    0.8052 C   0  0  0  0  0  0  0  0  0  0  0  0
    6.4993    2.1416    0.5796 C   0  0  0  0  0  0  0  0  0  0  0  0
    7.3612    1.1563    0.1044 C   0  0  0  0  0  0  0  0  0  0  0  0
    6.8749   -0.1233   -0.1531 C   0  0  0  0  0  0  0  0  0  0  0  0
    5.5252   -0.4157    0.0613 C   0  0  0  0  0  0  0  0  0  0  0  0
    2.4179    1.1391    1.4753 N   0  0  0  0  0  0  0  0  0  0  0  0
    2.6878    1.2100    2.9201 C   0  0  0  0  0  0  0  0  0  0  0  0
   -0.9812    1.3314    1.0854 H   0  0  0  0  0  0  0  0  0  0  0  0
    0.1143    2.6510    1.5008 H   0  0  0  0  0  0  0  0  0  0  0  0
   -0.1897    1.3460    2.6611 H   0  0  0  0  0  0  0  0  0  0  0  0
   -0.9082   -0.3025   -0.3418 H   0  0  0  0  0  0  0  0  0  0  0  0
   -1.0597   -3.3139   -2.2497 H   0  0  0  0  0  0  0  0  0  0  0  0
   -1.4230   -1.6024   -2.4289 H   0  0  0  0  0  0  0  0  0  0  0  0
   -2.7118    2.0445   -0.9062 H   0  0  0  0  0  0  0  0  0  0  0  0
   -7.2239    1.5445   -0.8020 H   0  0  0  0  0  0  0  0  0  0  0  0
   -8.8189   -0.3387   -0.8017 H   0  0  0  0  0  0  0  0  0  0  0  0
   -7.9753   -2.6807   -0.8110 H   0  0  0  0  0  0  0  0  0  0  0  0
   -5.5591   -3.1068   -0.8004 H   0  0  0  0  0  0  0  0  0  0  0  0
    4.4965    2.6398    1.1551 H   0  0  0  0  0  0  0  0  0  0  0  0
    6.8722    3.1449    0.7730 H   0  0  0  0  0  0  0  0  0  0  0  0
    8.4095    1.3843   -0.0671 H   0  0  0  0  0  0  0  0  0  0  0  0
    7.5422   -0.9019   -0.5172 H   0  0  0  0  0  0  0  0  0  0  0  0
    5.1782   -1.4301   -0.1368 H   0  0  0  0  0  0  0  0  0  0  0  0
    2.1170    2.0269    3.3730 H   0  0  0  0  0  0  0  0  0  0  0  0
    2.4081    0.2734    3.4163 H   0  0  0  0  0  0  0  0  0  0  0  0
    3.7434    1.4026    3.1309 H   0  0  0  0  0  0  0  0  0  0  0  0
  1  2  1  0
  2  3  2  0
  3  4  1  0
  4  5  1  0
  5  6  2  0
  5  7  1  0
  7  8  1  0
  8  9  1  0
  9 10  2  0
 10 11  1  0
 11 12  2  0
 12 13  1  0
 13 14  2  0
 14 15  1  0
 15 16  2  0
 16 17  1  0
 17 18  2  0
  3 19  1  0
 19 20  2  0
 19 21  1  0
 21 22  1  0
 22 23  2  0
 23 24  1  0
 24 25  2  0
 25 26  1  0
 26 27  2  0
 21 28  1  0
 28 29  1  0
 28  2  1  0
 18  9  1  0
 27 22  1  0
 18 13  1  0
  1 30  1  0
  1 31  1  0
  1 32  1  0
  4 33  1  0
  7 34  1  0
  7 35  1  0
 11 36  1  0
 14 37  1  0
 15 38  1  0
 16 39  1  0
 17 40  1  0
 23 41  1  0
 24 42  1  0
 25 43  1  0
 26 44  1  0
 27 45  1  0
 29 46  1  0
 29 47  1  0
 29 48  1  0
M  END
$$$$
