
     RDKit          3D

 28 30  0  0  0  0  0  0  0  0999 V2000
    1.3299    3.1298   -1.0708 N   0  0  0  0  0  0  0  0  0  0  0  0
    0.8162    2.1521   -0.7126 C   0  0  0  0  0  0  0  0  0  0  0  0
    0.1896    0.9389   -0.2874 C   0  0  0  0  0  0  0  0  0  0  0  0
   -1.1346    0.7355   -0.4695 C   0  0  0  0  0  0  0  0  0  0  0  0
   -2.0863    1.6628   -1.0984 C   0  0  0  0  0  0  0  0  0  0  0  0
   -3.1943    2.0959   -0.3695 C   0  0  0  0  0  0  0  0  0  0  0  0
   -4.0956    2.9496   -0.9843 C   0  0  0  0  0  0  0  0  0  0  0  0
   -3.9699    3.3833   -2.2556 N   0  0  0  0  0  0  0  0  0  0  0  0
   -2.8951    2.9443   -2.9440 C   0  0  0  0  0  0  0  0  0  0  0  0
   -1.9402    2.0883   -2.4191 C   0  0  0  0  0  0  0  0  0  0  0  0
    0.9440   -0.1011    0.3662 C   0  0  0  0  0  0  0  0  0  0  0  0
    0.4490   -1.2393    0.8255 N   0  0  0  0  0  0  0  0  0  0  0  0
    1.4312   -2.0280    1.3990 C   0  0  0  0  0  0  0  0  0  0  0  0
    1.2377   -3.2974    1.9805 C   0  0  0  0  0  0  0  0  0  0  0  0
    2.3267   -3.9854    2.5256 C   0  0  0  0  0  0  0  0  0  0  0  0
    3.5993   -3.4243    2.4972 C   0  0  0  0  0  0  0  0  0  0  0  0
    3.8152   -2.1665    1.9255 C   0  0  0  0  0  0  0  0  0  0  0  0
    2.7132   -1.4860    1.3815 C   0  0  0  0  0  0  0  0  0  0  0  0
    2.6570    0.0509    0.6208 S   0  0  0  0  0  0  0  0  0  0  0  0
   -1.5990   -0.1848   -0.1128 H   0  0  0  0  0  0  0  0  0  0  0  0
   -3.3595    1.7849    0.6567 H   0  0  0  0  0  0  0  0  0  0  0  0
   -4.9698    3.3172   -0.4544 H   0  0  0  0  0  0  0  0  0  0  0  0
   -2.8195    3.3078   -3.9651 H   0  0  0  0  0  0  0  0  0  0  0  0
   -1.1105    1.7674   -3.0399 H   0  0  0  0  0  0  0  0  0  0  0  0
    0.2432   -3.7321    2.0007 H   0  0  0  0  0  0  0  0  0  0  0  0
    2.1745   -4.9647    2.9737 H   0  0  0  0  0  0  0  0  0  0  0  0
    4.4386   -3.9695    2.9247 H   0  0  0  0  0  0  0  0  0  0  0  0
    4.8092   -1.7297    1.9040 H   0  0  0  0  0  0  0  0  0  0  0  0
  1  2  3  0
  2  3  1  0
  3  4  2  3
  4  5  1  0
  5  6  2  0
  6  7  1  0
  7  8  2  0
  8  9  1  0
  9 10  2  0
  3 11  1  0
 11 12  2  0
 12 13  1  0
 13 14  2  0
 14 15  1  0
 15 16  2  0
 16 17  1  0
 17 18  2  0
 18 19  1  0
 10  5  1  0
 19 11  1  0
 18 13  1  0
  4 20  1  0
  6 21  1  0
  7 22  1  0
  9 23  1  0
 10 24  1  0
 14 25  1  0
 15 26  1  0
 16 27  1  0
 17 28  1  0
M  END
$$$$
