
     RDKit          3D

 55 58  0  0  0  0  0  0  0  0999 V2000
    0.9842   -1.2675   -3.6119 C   0  0  0  0  0  0  0  0  0  0  0  0
    1.3261    0.1117   -3.0808 C   0  0  0  0  0  0  0  0  0  0  0  0
    2.1480    0.0003   -1.9052 O   0  0  0  0  0  0  0  0  0  0  0  0
    3.4846   -0.1103   -2.1286 C   0  0  0  0  0  0  0  0  0  0  0  0
    4.0112   -0.1266   -3.2302 O   0  0  0  0  0  0  0  0  0  0  0  0
    4.2531   -0.2470   -0.8518 C   0  0  0  0  0  0  0  0  0  0  0  0
    5.5894   -0.6687   -1.0018 C   0  0  0  0  0  0  0  0  0  0  0  0
    6.4176   -0.8335    0.1056 C   0  0  0  0  0  0  0  0  0  0  0  0
    5.9202   -0.5783    1.3760 C   0  0  0  0  0  0  0  0  0  0  0  0
    4.5984   -0.1535    1.5427 C   0  0  0  0  0  0  0  0  0  0  0  0
    3.7468    0.0243    0.4427 C   0  0  0  0  0  0  0  0  0  0  0  0
    2.4106    0.4626    0.6083 N   0  0  0  0  0  0  0  0  0  0  0  0
    1.7558    0.8267    1.7669 C   0  0  0  0  0  0  0  0  0  0  0  0
    2.2187    0.9034    2.8965 O   0  0  0  0  0  0  0  0  0  0  0  0
    0.3291    1.1892    1.5122 C   0  0  0  0  0  0  0  0  0  0  0  0
   -0.4674    0.2141    1.0477 C   0  0  0  0  0  0  0  0  0  0  0  0
   -1.8223    0.3792    0.7606 N   0  0  0  0  0  0  0  0  0  0  0  0
   -2.6029   -0.7260    0.2377 C   0  0  0  0  0  0  0  0  0  0  0  0
   -3.9835   -0.8316    0.4623 C   0  0  0  0  0  0  0  0  0  0  0  0
   -4.7332   -1.9095   -0.0345 C   0  0  0  0  0  0  0  0  0  0  0  0
   -4.1160   -2.9138   -0.7721 C   0  0  0  0  0  0  0  0  0  0  0  0
   -4.7242   -4.0118   -1.3115 O   0  0  0  0  0  0  0  0  0  0  0  0
   -6.1296   -4.1231   -1.1234 C   0  0  0  0  0  0  0  0  0  0  0  0
   -2.7451   -2.8298   -1.0023 C   0  0  0  0  0  0  0  0  0  0  0  0
   -1.9981   -1.7540   -0.5049 C   0  0  0  0  0  0  0  0  0  0  0  0
   -2.4360    1.6435    0.9594 C   0  0  0  0  0  0  0  0  0  0  0  0
   -3.5923    1.9377    0.6595 O   0  0  0  0  0  0  0  0  0  0  0  0
   -1.5927    2.7302    1.5375 C   0  0  0  0  0  0  0  0  0  0  0  0
   -2.1685    3.9842    1.7973 C   0  0  0  0  0  0  0  0  0  0  0  0
   -1.3958    5.0166    2.3259 C   0  0  0  0  0  0  0  0  0  0  0  0
   -0.0476    4.8012    2.5950 C   0  0  0  0  0  0  0  0  0  0  0  0
    0.5293    3.5553    2.3357 C   0  0  0  0  0  0  0  0  0  0  0  0
   -0.2373    2.5060    1.8051 C   0  0  0  0  0  0  0  0  0  0  0  0
    1.8850   -1.7992   -3.9337 H   0  0  0  0  0  0  0  0  0  0  0  0
    0.2987   -1.1976   -4.4614 H   0  0  0  0  0  0  0  0  0  0  0  0
    0.5182   -1.8771   -2.8312 H   0  0  0  0  0  0  0  0  0  0  0  0
    1.8078    0.7306   -3.8466 H   0  0  0  0  0  0  0  0  0  0  0  0
    0.4088    0.6277   -2.7781 H   0  0  0  0  0  0  0  0  0  0  0  0
    5.9939   -0.8719   -1.9927 H   0  0  0  0  0  0  0  0  0  0  0  0
    7.4459   -1.1614   -0.0247 H   0  0  0  0  0  0  0  0  0  0  0  0
    6.5587   -0.7064    2.2474 H   0  0  0  0  0  0  0  0  0  0  0  0
    4.2644    0.0309    2.5598 H   0  0  0  0  0  0  0  0  0  0  0  0
    1.8779    0.5316   -0.2555 H   0  0  0  0  0  0  0  0  0  0  0  0
   -0.0602   -0.7844    0.9165 H   0  0  0  0  0  0  0  0  0  0  0  0
   -4.5152   -0.0953    1.0594 H   0  0  0  0  0  0  0  0  0  0  0  0
   -5.7963   -1.9261    0.1811 H   0  0  0  0  0  0  0  0  0  0  0  0
   -6.3795   -4.2099   -0.0612 H   0  0  0  0  0  0  0  0  0  0  0  0
   -6.4621   -5.0401   -1.6195 H   0  0  0  0  0  0  0  0  0  0  0  0
   -6.6580   -3.2838   -1.5873 H   0  0  0  0  0  0  0  0  0  0  0  0
   -2.2510   -3.6045   -1.5841 H   0  0  0  0  0  0  0  0  0  0  0  0
   -0.9428   -1.7315   -0.7556 H   0  0  0  0  0  0  0  0  0  0  0  0
   -3.2222    4.1594    1.5876 H   0  0  0  0  0  0  0  0  0  0  0  0
   -1.8461    5.9854    2.5279 H   0  0  0  0  0  0  0  0  0  0  0  0
    0.5587    5.6025    3.0114 H   0  0  0  0  0  0  0  0  0  0  0  0
    1.5849    3.4197    2.5664 H   0  0  0  0  0  0  0  0  0  0  0  0
  1  2  1  0
  2  3  1  0
  3  4  1  0
  4  5  2  0
  4  6  1  0
  6  7  2  0
  7  8  1  0
  8  9  2  0
  9 10  1  0
 10 11  2  0
 11 12  1  0
 12 13  1  0
 13 14  2  0
 13 15  1  0
 15 16  2  0
 16 17  1  0
 17 18  1  0
 18 19  2  0
 19 20  1  0
 20 21  2  0
 21 22  1  0
 22 23  1  0
 21 24  1  0
 24 25  2  0
 17 26  1  0
 26 27  2  0
 26 28  1  0
 28 29  2  0
 29 30  1  0
 30 31  2  0
 31 32  1  0
 32 33  2  0
 11  6  1  0
 33 15  1  0
 25 18  1  0
 33 28  1  0
  1 34  1  0
  1 35  1  0
  1 36  1  0
  2 37  1  0
  2 38  1  0
  7 39  1  0
  8 40  1  0
  9 41  1  0
 10 42  1  0
 12 43  1  0
 16 44  1  0
 19 45  1  0
 20 46  1  0
 23 47  1  0
 23 48  1  0
 23 49  1  0
 24 50  1  0
 25 51  1  0
 29 52  1  0
 30 53  1  0
 31 54  1  0
 32 55  1  0
M  END
$$$$
