
     RDKit          3D

 32 34  0  0  0  0  0  0  0  0999 V2000
   -3.3657    1.4718   -2.8618 C   0  0  0  0  0  0  0  0  0  0  0  0
   -2.4494    0.5561   -2.0678 C   0  0  0  0  0  0  0  0  0  0  0  0
   -2.9288   -0.7776   -2.2181 O   0  0  0  0  0  0  0  0  0  0  0  0
   -2.2160   -1.7710   -1.5528 C   0  0  0  0  0  0  0  0  0  0  0  0
   -2.7533   -3.0550   -1.7421 C   0  0  0  0  0  0  0  0  0  0  0  0
   -2.1742   -4.1722   -1.1521 C   0  0  0  0  0  0  0  0  0  0  0  0
   -1.0387   -4.0423   -0.3540 C   0  0  0  0  0  0  0  0  0  0  0  0
   -0.4983   -2.7588   -0.1646 C   0  0  0  0  0  0  0  0  0  0  0  0
    0.8818   -2.3121    0.7620 S   0  0  0  0  0  0  0  0  0  0  0  0
    0.6488   -0.6879    0.3396 C   0  0  0  0  0  0  0  0  0  0  0  0
    1.4537    0.3342    0.7726 N   0  0  0  0  0  0  0  0  0  0  0  0
    2.5910    0.2397    1.5482 C   0  0  0  0  0  0  0  0  0  0  0  0
    3.0717   -0.8156    1.9486 O   0  0  0  0  0  0  0  0  0  0  0  0
    3.2011    1.5388    1.8510 C   0  0  0  0  0  0  0  0  0  0  0  0
    2.6995    2.8277    1.7324 C   0  0  0  0  0  0  0  0  0  0  0  0
    3.6378    3.8257    2.1427 C   0  0  0  0  0  0  0  0  0  0  0  0
    4.8106    3.2584    2.5646 C   0  0  0  0  0  0  0  0  0  0  0  0
    6.3020    4.2719    3.1957 Br  0  0  0  0  0  0  0  0  0  0  0  0
    4.8068    1.5709    2.4779 S   0  0  0  0  0  0  0  0  0  0  0  0
   -0.3762   -0.4347   -0.4355 N   0  0  0  0  0  0  0  0  0  0  0  0
   -1.0566   -1.6130   -0.7439 C   0  0  0  0  0  0  0  0  0  0  0  0
   -3.0343    2.5114   -2.7874 H   0  0  0  0  0  0  0  0  0  0  0  0
   -3.3827    1.1797   -3.9172 H   0  0  0  0  0  0  0  0  0  0  0  0
   -4.3945    1.4019   -2.4937 H   0  0  0  0  0  0  0  0  0  0  0  0
   -2.4796    0.8575   -1.0150 H   0  0  0  0  0  0  0  0  0  0  0  0
   -1.4342    0.6458   -2.4700 H   0  0  0  0  0  0  0  0  0  0  0  0
   -3.6388   -3.1743   -2.3627 H   0  0  0  0  0  0  0  0  0  0  0  0
   -2.6117   -5.1556   -1.3132 H   0  0  0  0  0  0  0  0  0  0  0  0
   -0.5828   -4.9127    0.1091 H   0  0  0  0  0  0  0  0  0  0  0  0
    1.1611    1.2284    0.4142 H   0  0  0  0  0  0  0  0  0  0  0  0
    1.7030    3.0710    1.3854 H   0  0  0  0  0  0  0  0  0  0  0  0
    3.4469    4.8917    2.1322 H   0  0  0  0  0  0  0  0  0  0  0  0
  1  2  1  0
  2  3  1  0
  3  4  1  0
  4  5  2  0
  5  6  1  0
  6  7  2  0
  7  8  1  0
  8  9  1  0
  9 10  1  0
 10 11  1  0
 11 12  1  0
 12 13  2  0
 12 14  1  0
 14 15  2  0
 15 16  1  0
 16 17  2  0
 17 18  1  0
 17 19  1  0
 10 20  2  0
 20 21  1  0
 21  4  1  0
 21  8  2  0
 19 14  1  0
  1 22  1  0
  1 23  1  0
  1 24  1  0
  2 25  1  0
  2 26  1  0
  5 27  1  0
  6 28  1  0
  7 29  1  0
 11 30  1  0
 15 31  1  0
 16 32  1  0
M  END
$$$$
