
     RDKit          3D

 54 57  0  0  0  0  0  0  0  0999 V2000
    7.9736    2.6633    0.9434 C   0  0  0  0  0  0  0  0  0  0  0  0
    7.7414    1.3484    0.3470 N   0  0  0  0  0  0  0  0  0  0  0  0
    8.7778    0.3494    0.6023 C   0  0  0  0  0  0  0  0  0  0  0  0
    6.4235    0.9266    0.1338 C   0  0  0  0  0  0  0  0  0  0  0  0
    6.0959   -0.4233   -0.0961 C   0  0  0  0  0  0  0  0  0  0  0  0
    4.7792   -0.8480   -0.3268 C   0  0  0  0  0  0  0  0  0  0  0  0
    3.7442    0.0808   -0.3463 C   0  0  0  0  0  0  0  0  0  0  0  0
    2.3460   -0.3302   -0.5889 C   0  0  0  0  0  0  0  0  0  0  0  0
    2.0266   -1.5711   -0.7819 N   0  0  0  0  0  0  0  0  0  0  0  0
    0.7028   -1.8858   -0.9575 N   0  0  0  0  0  0  0  0  0  0  0  0
   -0.3844   -1.2677   -0.3469 C   0  0  0  0  0  0  0  0  0  0  0  0
   -0.3387   -0.2564    0.3464 O   0  0  0  0  0  0  0  0  0  0  0  0
   -1.6366   -1.9815   -0.5955 C   0  0  0  0  0  0  0  0  0  0  0  0
   -1.6744   -3.1644   -1.2837 N   0  0  0  0  0  0  0  0  0  0  0  0
   -2.9308   -3.5635   -1.3543 N   0  0  0  0  0  0  0  0  0  0  0  0
   -3.7293   -2.6580   -0.7137 N   0  0  0  0  0  0  0  0  0  0  0  0
   -5.1338   -2.8446   -0.6357 C   0  0  0  0  0  0  0  0  0  0  0  0
   -5.9168   -1.9700   -0.0036 N   0  0  0  0  0  0  0  0  0  0  0  0
   -7.2014   -2.4868   -0.1592 O   0  0  0  0  0  0  0  0  0  0  0  0
   -7.1823   -3.6791   -0.8742 N   0  0  0  0  0  0  0  0  0  0  0  0
   -5.9007   -3.9027   -1.1612 C   0  0  0  0  0  0  0  0  0  0  0  0
   -5.4522   -4.9751   -1.8406 N   0  0  0  0  0  0  0  0  0  0  0  0
   -2.9254   -1.6333   -0.2201 C   0  0  0  0  0  0  0  0  0  0  0  0
   -3.4287   -0.4390    0.5025 C   0  0  0  0  0  0  0  0  0  0  0  0
   -3.9835    0.4053   -0.5013 O   0  0  0  0  0  0  0  0  0  0  0  0
   -4.5674    1.5700   -0.0863 C   0  0  0  0  0  0  0  0  0  0  0  0
   -5.1785    2.3081   -1.1069 C   0  0  0  0  0  0  0  0  0  0  0  0
   -5.8120    3.5193   -0.8258 C   0  0  0  0  0  0  0  0  0  0  0  0
   -5.8298    3.9901    0.4799 C   0  0  0  0  0  0  0  0  0  0  0  0
   -6.4354    5.1523    0.7559 F   0  0  0  0  0  0  0  0  0  0  0  0
   -5.2254    3.2720    1.5049 C   0  0  0  0  0  0  0  0  0  0  0  0
   -4.5911    2.0579    1.2229 C   0  0  0  0  0  0  0  0  0  0  0  0
    4.0266    1.4268   -0.1391 C   0  0  0  0  0  0  0  0  0  0  0  0
    5.3485    1.8355    0.0915 C   0  0  0  0  0  0  0  0  0  0  0  0
    7.6194    3.4645    0.2862 H   0  0  0  0  0  0  0  0  0  0  0  0
    9.0430    2.8499    1.0937 H   0  0  0  0  0  0  0  0  0  0  0  0
    7.4850    2.7446    1.9207 H   0  0  0  0  0  0  0  0  0  0  0  0
    9.7601    0.8196    0.7253 H   0  0  0  0  0  0  0  0  0  0  0  0
    8.8809   -0.3403   -0.2424 H   0  0  0  0  0  0  0  0  0  0  0  0
    8.5639   -0.2152    1.5164 H   0  0  0  0  0  0  0  0  0  0  0  0
    6.8620   -1.1926   -0.1019 H   0  0  0  0  0  0  0  0  0  0  0  0
    4.5795   -1.9035   -0.4934 H   0  0  0  0  0  0  0  0  0  0  0  0
    1.6094    0.4898   -0.6241 H   0  0  0  0  0  0  0  0  0  0  0  0
    0.5438   -2.8203   -1.3293 H   0  0  0  0  0  0  0  0  0  0  0  0
   -6.1168   -5.5570   -2.3399 H   0  0  0  0  0  0  0  0  0  0  0  0
   -4.4996   -5.0146   -2.1994 H   0  0  0  0  0  0  0  0  0  0  0  0
   -2.6132    0.0795    1.0149 H   0  0  0  0  0  0  0  0  0  0  0  0
   -4.1709   -0.7172    1.2582 H   0  0  0  0  0  0  0  0  0  0  0  0
   -5.1617    1.9340   -2.1278 H   0  0  0  0  0  0  0  0  0  0  0  0
   -6.2879    4.0932   -1.6139 H   0  0  0  0  0  0  0  0  0  0  0  0
   -5.2498    3.6616    2.5177 H   0  0  0  0  0  0  0  0  0  0  0  0
   -4.1247    1.5261    2.0455 H   0  0  0  0  0  0  0  0  0  0  0  0
    3.2365    2.1729   -0.1555 H   0  0  0  0  0  0  0  0  0  0  0  0
    5.5130    2.8997    0.2315 H   0  0  0  0  0  0  0  0  0  0  0  0
  1  2  1  0
  2  3  1  0
  2  4  1  0
  4  5  2  0
  5  6  1  0
  6  7  2  0
  7  8  1  0
  8  9  2  3
  9 10  1  0
 10 11  1  0
 11 12  2  0
 11 13  1  0
 13 14  1  0
 14 15  2  0
 15 16  1  0
 16 17  1  0
 17 18  2  0
 18 19  1  0
 19 20  1  0
 20 21  2  0
 21 22  1  0
 16 23  1  0
 23 24  1  0
 24 25  1  0
 25 26  1  0
 26 27  2  0
 27 28  1  0
 28 29  2  0
 29 30  1  0
 29 31  1  0
 31 32  2  0
  7 33  1  0
 33 34  2  0
 34  4  1  0
 23 13  2  0
 32 26  1  0
 21 17  1  0
  1 35  1  0
  1 36  1  0
  1 37  1  0
  3 38  1  0
  3 39  1  0
  3 40  1  0
  5 41  1  0
  6 42  1  0
  8 43  1  0
 10 44  1  0
 22 45  1  0
 22 46  1  0
 24 47  1  0
 24 48  1  0
 27 49  1  0
 28 50  1  0
 31 51  1  0
 32 52  1  0
 33 53  1  0
 34 54  1  0
M  END
$$$$
