
     RDKit          3D

 33 33  0  0  0  0  0  0  0  0999 V2000
   -2.6714    0.4639    2.1714 C   0  0  0  0  0  0  0  0  0  0  0  0
   -3.1804    0.1241    0.7681 C   0  0  0  0  0  0  0  0  0  0  0  0
   -4.6573    0.5082    0.6486 C   0  0  0  0  0  0  0  0  0  0  0  0
   -2.3657    0.8355   -0.3299 C   0  0  0  0  0  0  0  0  0  0  0  0
   -0.9362    0.3601   -0.4332 C   0  0  0  0  0  0  0  0  0  0  0  0
   -0.6429   -0.9002   -0.9666 C   0  0  0  0  0  0  0  0  0  0  0  0
    0.6789   -1.3433   -1.0596 C   0  0  0  0  0  0  0  0  0  0  0  0
    1.7374   -0.5371   -0.6179 C   0  0  0  0  0  0  0  0  0  0  0  0
    3.1675   -1.0332   -0.7328 C   0  0  0  0  0  0  0  0  0  0  0  0
    3.8924   -1.0559    0.6156 C   0  0  0  0  0  0  0  0  0  0  0  0
    3.9409   -0.2717   -1.7942 C   0  0  0  0  0  0  0  0  0  0  0  0
    3.9713   -0.5402   -2.9862 O   0  0  0  0  0  0  0  0  0  0  0  0
    4.5999    0.8123   -1.3374 O   0  0  0  0  0  0  0  0  0  0  0  0
    1.4402    0.7283   -0.0917 C   0  0  0  0  0  0  0  0  0  0  0  0
    0.1181    1.1710    0.0010 C   0  0  0  0  0  0  0  0  0  0  0  0
   -1.6452    0.1133    2.3185 H   0  0  0  0  0  0  0  0  0  0  0  0
   -2.6918    1.5443    2.3506 H   0  0  0  0  0  0  0  0  0  0  0  0
   -3.2924   -0.0163    2.9354 H   0  0  0  0  0  0  0  0  0  0  0  0
   -3.1065   -0.9625    0.6335 H   0  0  0  0  0  0  0  0  0  0  0  0
   -5.2567   -0.0094    1.4051 H   0  0  0  0  0  0  0  0  0  0  0  0
   -4.8001    1.5860    0.7820 H   0  0  0  0  0  0  0  0  0  0  0  0
   -5.0525    0.2323   -0.3347 H   0  0  0  0  0  0  0  0  0  0  0  0
   -2.8408    0.6757   -1.3073 H   0  0  0  0  0  0  0  0  0  0  0  0
   -2.3872    1.9211   -0.1667 H   0  0  0  0  0  0  0  0  0  0  0  0
   -1.4444   -1.5462   -1.3181 H   0  0  0  0  0  0  0  0  0  0  0  0
    0.8729   -2.3258   -1.4851 H   0  0  0  0  0  0  0  0  0  0  0  0
    3.1554   -2.0764   -1.0789 H   0  0  0  0  0  0  0  0  0  0  0  0
    3.9821   -0.0588    1.0601 H   0  0  0  0  0  0  0  0  0  0  0  0
    4.9074   -1.4523    0.4999 H   0  0  0  0  0  0  0  0  0  0  0  0
    3.3602   -1.6910    1.3325 H   0  0  0  0  0  0  0  0  0  0  0  0
    4.9917    1.2013   -2.1476 H   0  0  0  0  0  0  0  0  0  0  0  0
    2.2366    1.3872    0.2486 H   0  0  0  0  0  0  0  0  0  0  0  0
   -0.0816    2.1560    0.4170 H   0  0  0  0  0  0  0  0  0  0  0  0
  1  2  1  0
  2  3  1  0
  2  4  1  0
  4  5  1  0
  5  6  2  0
  6  7  1  0
  7  8  2  0
  8  9  1  0
  9 10  1  0
  9 11  1  0
 11 12  2  0
 11 13  1  0
  8 14  1  0
 14 15  2  0
 15  5  1  0
  1 16  1  0
  1 17  1  0
  1 18  1  0
  2 19  1  0
  3 20  1  0
  3 21  1  0
  3 22  1  0
  4 23  1  0
  4 24  1  0
  6 25  1  0
  7 26  1  0
  9 27  1  0
 10 28  1  0
 10 29  1  0
 10 30  1  0
 13 31  1  0
 14 32  1  0
 15 33  1  0
M  END
$$$$
