
     RDKit          3D

 61 66  0  0  0  0  0  0  0  0999 V2000
   -9.5543   -0.7605   -0.6211 F   0  0  0  0  0  0  0  0  0  0  0  0
   -8.2936   -0.4850   -0.9814 C   0  0  0  0  0  0  0  0  0  0  0  0
   -8.0346    0.6371   -1.7587 C   0  0  0  0  0  0  0  0  0  0  0  0
   -6.7237    0.9210   -2.1348 C   0  0  0  0  0  0  0  0  0  0  0  0
   -5.6848    0.0784   -1.7299 C   0  0  0  0  0  0  0  0  0  0  0  0
   -5.9430   -1.0544   -0.9428 C   0  0  0  0  0  0  0  0  0  0  0  0
   -4.8169   -1.9625   -0.5022 C   0  0  0  0  0  0  0  0  0  0  0  0
   -3.9621   -1.3849    0.6451 C   0  0  0  0  0  0  0  0  0  0  0  0
   -3.0491   -0.3071    0.2297 N   0  0  0  0  0  0  0  0  0  0  0  0
   -2.6236    0.4973    1.3989 C   0  0  0  0  0  0  0  0  0  0  0  0
   -1.3389    1.3096    1.1304 C   0  0  0  0  0  0  0  0  0  0  0  0
   -0.1899    0.4030    0.9048 N   0  0  0  0  0  0  0  0  0  0  0  0
    1.0087    0.9522    0.5229 C   0  0  0  0  0  0  0  0  0  0  0  0
    1.2526    2.0917   -0.2236 C   0  0  0  0  0  0  0  0  0  0  0  0
    2.6286    2.1263   -0.5369 C   0  0  0  0  0  0  0  0  0  0  0  0
    3.2139    1.0170    0.0436 C   0  0  0  0  0  0  0  0  0  0  0  0
    4.5678    0.5070    0.0206 C   0  0  0  0  0  0  0  0  0  0  0  0
    5.5785    1.0749   -0.9086 C   0  0  0  0  0  0  0  0  0  0  0  0
    6.8568    1.3684   -0.4187 C   0  0  0  0  0  0  0  0  0  0  0  0
    7.8298    1.8844   -1.2757 C   0  0  0  0  0  0  0  0  0  0  0  0
    7.5320    2.0939   -2.6228 C   0  0  0  0  0  0  0  0  0  0  0  0
    6.2646    1.7828   -3.1181 C   0  0  0  0  0  0  0  0  0  0  0  0
    5.2874    1.2682   -2.2641 C   0  0  0  0  0  0  0  0  0  0  0  0
    4.9283   -0.4614    0.8111 N   0  0  0  0  0  0  0  0  0  0  0  0
    3.9835   -1.0118    1.6995 C   0  0  0  0  0  0  0  0  0  0  0  0
    4.4232   -2.0002    2.5849 C   0  0  0  0  0  0  0  0  0  0  0  0
    3.5513   -2.5604    3.5199 C   0  0  0  0  0  0  0  0  0  0  0  0
    2.2302   -2.1241    3.5855 C   0  0  0  0  0  0  0  0  0  0  0  0
    1.7707   -1.1432    2.7046 C   0  0  0  0  0  0  0  0  0  0  0  0
    2.6375   -0.6095    1.7470 C   0  0  0  0  0  0  0  0  0  0  0  0
    2.2539    0.3951    0.8244 N   0  0  0  0  0  0  0  0  0  0  0  0
   -0.5563   -0.8927    0.2703 C   0  0  0  0  0  0  0  0  0  0  0  0
   -1.8747   -0.7925   -0.5329 C   0  0  0  0  0  0  0  0  0  0  0  0
   -7.2658   -1.3292   -0.5709 C   0  0  0  0  0  0  0  0  0  0  0  0
   -8.8522    1.2812   -2.0640 H   0  0  0  0  0  0  0  0  0  0  0  0
   -6.5062    1.7978   -2.7393 H   0  0  0  0  0  0  0  0  0  0  0  0
   -4.6650    0.3157   -2.0254 H   0  0  0  0  0  0  0  0  0  0  0  0
   -4.2061   -2.2235   -1.3744 H   0  0  0  0  0  0  0  0  0  0  0  0
   -5.2456   -2.9133   -0.1580 H   0  0  0  0  0  0  0  0  0  0  0  0
   -4.6495   -1.0092    1.4157 H   0  0  0  0  0  0  0  0  0  0  0  0
   -3.3861   -2.1966    1.1093 H   0  0  0  0  0  0  0  0  0  0  0  0
   -2.4454   -0.1516    2.2672 H   0  0  0  0  0  0  0  0  0  0  0  0
   -3.4343    1.1850    1.6644 H   0  0  0  0  0  0  0  0  0  0  0  0
   -1.5053    1.9636    0.2647 H   0  0  0  0  0  0  0  0  0  0  0  0
   -1.1272    1.9461    1.9980 H   0  0  0  0  0  0  0  0  0  0  0  0
    0.5048    2.7851   -0.5831 H   0  0  0  0  0  0  0  0  0  0  0  0
    3.1259    2.8692   -1.1476 H   0  0  0  0  0  0  0  0  0  0  0  0
    7.0938    1.1949    0.6291 H   0  0  0  0  0  0  0  0  0  0  0  0
    8.8217    2.1161   -0.8948 H   0  0  0  0  0  0  0  0  0  0  0  0
    8.2934    2.4907   -3.2899 H   0  0  0  0  0  0  0  0  0  0  0  0
    6.0421    1.9306   -4.1721 H   0  0  0  0  0  0  0  0  0  0  0  0
    4.3137    1.0024   -2.6665 H   0  0  0  0  0  0  0  0  0  0  0  0
    5.4592   -2.3262    2.5465 H   0  0  0  0  0  0  0  0  0  0  0  0
    3.9095   -3.3226    4.2061 H   0  0  0  0  0  0  0  0  0  0  0  0
    1.5576   -2.5391    4.3321 H   0  0  0  0  0  0  0  0  0  0  0  0
    0.7506   -0.7917    2.8101 H   0  0  0  0  0  0  0  0  0  0  0  0
   -0.6748   -1.6470    1.0582 H   0  0  0  0  0  0  0  0  0  0  0  0
    0.2370   -1.2494   -0.3995 H   0  0  0  0  0  0  0  0  0  0  0  0
   -1.7168   -0.0835   -1.3564 H   0  0  0  0  0  0  0  0  0  0  0  0
   -2.0711   -1.7589   -1.0101 H   0  0  0  0  0  0  0  0  0  0  0  0
   -7.5120   -2.1948    0.0362 H   0  0  0  0  0  0  0  0  0  0  0  0
  1  2  1  0
  2  3  2  0
  3  4  1  0
  4  5  2  0
  5  6  1  0
  6  7  1  0
  7  8  1  0
  8  9  1  0
  9 10  1  0
 10 11  1  0
 11 12  1  0
 12 13  1  0
 13 14  2  0
 14 15  1  0
 15 16  2  0
 16 17  1  0
 17 18  1  0
 18 19  2  0
 19 20  1  0
 20 21  2  0
 21 22  1  0
 22 23  2  0
 17 24  2  0
 24 25  1  0
 25 26  2  0
 26 27  1  0
 27 28  2  0
 28 29  1  0
 29 30  2  0
 30 31  1  0
 12 32  1  0
 32 33  1  0
  6 34  2  0
 34  2  1  0
 33  9  1  0
 31 13  1  0
 31 16  1  0
 23 18  1  0
 30 25  1  0
  3 35  1  0
  4 36  1  0
  5 37  1  0
  7 38  1  0
  7 39  1  0
  8 40  1  0
  8 41  1  0
 10 42  1  0
 10 43  1  0
 11 44  1  0
 11 45  1  0
 14 46  1  0
 15 47  1  0
 19 48  1  0
 20 49  1  0
 21 50  1  0
 22 51  1  0
 23 52  1  0
 26 53  1  0
 27 54  1  0
 28 55  1  0
 29 56  1  0
 32 57  1  0
 32 58  1  0
 33 59  1  0
 33 60  1  0
 34 61  1  0
M  END
$$$$
