
     RDKit          3D

 36 37  0  0  0  0  0  0  0  0999 V2000
    4.7786   -0.9705    0.9072 C   0  0  0  0  0  0  0  0  0  0  0  0
    4.6390    0.3824    0.3421 N   0  0  0  0  0  0  0  0  0  0  0  0
    4.2157    1.3853    1.3339 C   0  0  0  0  0  0  0  0  0  0  0  0
    3.9687    0.5049   -1.2159 S   0  0  0  0  0  6  0  0  0  0  0  0
    4.5599   -0.5189   -2.0512 O   0  0  0  0  0  0  0  0  0  0  0  0
    3.9896    1.8969   -1.6135 O   0  0  0  0  0  0  0  0  0  0  0  0
    2.2613    0.0563   -0.9589 C   0  0  0  0  0  0  0  0  0  0  0  0
    1.3152    1.0535   -0.7009 C   0  0  0  0  0  0  0  0  0  0  0  0
   -0.0269    0.7048   -0.5239 C   0  0  0  0  0  0  0  0  0  0  0  0
   -0.4264   -0.6369   -0.6193 C   0  0  0  0  0  0  0  0  0  0  0  0
   -1.8394   -1.0642   -0.4296 C   0  0  0  0  0  0  0  0  0  0  0  0
   -2.1959   -2.2311   -0.4285 O   0  0  0  0  0  0  0  0  0  0  0  0
   -2.6518    0.0122   -0.2820 O   0  0  0  0  0  0  0  0  0  0  0  0
   -3.9931   -0.3151    0.0489 C   0  0  0  0  0  0  0  0  0  0  0  0
   -4.9020    0.8572   -0.2381 C   0  0  0  0  0  0  0  0  0  0  0  0
   -6.0695    0.5669    0.6692 C   0  0  0  0  0  0  0  0  0  0  0  0
   -5.5004   -0.0253    1.8384 O   0  0  0  0  0  0  0  0  0  0  0  0
   -4.2497   -0.4994    1.5353 C   0  0  0  0  0  0  0  0  0  0  0  0
   -3.4818   -0.9693    2.3589 O   0  0  0  0  0  0  0  0  0  0  0  0
    0.5298   -1.6252   -0.9000 C   0  0  0  0  0  0  0  0  0  0  0  0
    1.8717   -1.2806   -1.0799 C   0  0  0  0  0  0  0  0  0  0  0  0
    5.4884   -0.9484    1.7408 H   0  0  0  0  0  0  0  0  0  0  0  0
    3.8201   -1.3426    1.2794 H   0  0  0  0  0  0  0  0  0  0  0  0
    5.1802   -1.6698    0.1690 H   0  0  0  0  0  0  0  0  0  0  0  0
    3.2199    1.1571    1.7239 H   0  0  0  0  0  0  0  0  0  0  0  0
    4.2188    2.3917    0.9067 H   0  0  0  0  0  0  0  0  0  0  0  0
    4.9215    1.3947    2.1711 H   0  0  0  0  0  0  0  0  0  0  0  0
    1.6128    2.0987   -0.6395 H   0  0  0  0  0  0  0  0  0  0  0  0
   -0.7489    1.4905   -0.3137 H   0  0  0  0  0  0  0  0  0  0  0  0
   -4.3517   -1.2025   -0.4883 H   0  0  0  0  0  0  0  0  0  0  0  0
   -4.4145    1.7988    0.0446 H   0  0  0  0  0  0  0  0  0  0  0  0
   -5.1850    0.9379   -1.2915 H   0  0  0  0  0  0  0  0  0  0  0  0
   -6.7750   -0.1441    0.2260 H   0  0  0  0  0  0  0  0  0  0  0  0
   -6.6089    1.4779    0.9436 H   0  0  0  0  0  0  0  0  0  0  0  0
    0.2301   -2.6691   -0.9848 H   0  0  0  0  0  0  0  0  0  0  0  0
    2.5997   -2.0546   -1.3149 H   0  0  0  0  0  0  0  0  0  0  0  0
  1  2  1  0
  2  3  1  0
  2  4  1  0
  4  5  2  0
  4  6  2  0
  4  7  1  0
  7  8  2  0
  8  9  1  0
  9 10  2  0
 10 11  1  0
 11 12  2  0
 11 13  1  0
 13 14  1  0
 14 15  1  0
 15 16  1  0
 16 17  1  0
 17 18  1  0
 18 19  2  0
 10 20  1  0
 20 21  2  0
 21  7  1  0
 18 14  1  0
  1 22  1  0
  1 23  1  0
  1 24  1  0
  3 25  1  0
  3 26  1  0
  3 27  1  0
  8 28  1  0
  9 29  1  0
 14 30  1  0
 15 31  1  0
 15 32  1  0
 16 33  1  0
 16 34  1  0
 20 35  1  0
 21 36  1  0
M  END
$$$$
