
     RDKit          3D

 40 44  0  0  0  0  0  0  0  0999 V2000
   -8.6167   -1.0618    1.7100 O   0  0  0  0  0  0  0  0  0  0  0  0
   -7.5144   -1.0717    2.2192 C   0  0  0  0  0  0  0  0  0  0  0  0
   -7.3654   -1.2623    3.5445 O   0  0  0  0  0  0  0  0  0  0  0  0
   -6.2054   -0.8917    1.5498 C   0  0  0  0  0  0  0  0  0  0  0  0
   -5.0927   -1.5957    2.0337 C   0  0  0  0  0  0  0  0  0  0  0  0
   -3.8474   -1.4738    1.4080 C   0  0  0  0  0  0  0  0  0  0  0  0
   -3.6815   -0.6498    0.2866 C   0  0  0  0  0  0  0  0  0  0  0  0
   -2.3844   -0.5178   -0.3734 C   0  0  0  0  0  0  0  0  0  0  0  0
   -1.9186    0.1902   -1.4578 C   0  0  0  0  0  0  0  0  0  0  0  0
   -0.5436   -0.1263   -1.5828 C   0  0  0  0  0  0  0  0  0  0  0  0
   -0.2061   -0.9980   -0.5566 C   0  0  0  0  0  0  0  0  0  0  0  0
    1.0092   -1.6516   -0.2213 C   0  0  0  0  0  0  0  0  0  0  0  0
    2.2427   -1.1286   -0.2766 C   0  0  0  0  0  0  0  0  0  0  0  0
    3.6392   -2.1093    0.1825 S   0  0  0  0  0  0  0  0  0  0  0  0
    4.6834   -0.7831   -0.1310 C   0  0  0  0  0  0  0  0  0  0  0  0
    5.9759   -0.6366   -0.0509 N   0  0  0  0  0  0  0  0  0  0  0  0
    6.1720    0.6746   -0.4377 C   0  0  0  0  0  0  0  0  0  0  0  0
    7.3679    1.3998   -0.5447 C   0  0  0  0  0  0  0  0  0  0  0  0
    7.3122    2.7355   -0.9630 C   0  0  0  0  0  0  0  0  0  0  0  0
    6.0914    3.3414   -1.2696 C   0  0  0  0  0  0  0  0  0  0  0  0
    4.8849    2.6397   -1.1711 C   0  0  0  0  0  0  0  0  0  0  0  0
    4.9626    1.3075   -0.7521 C   0  0  0  0  0  0  0  0  0  0  0  0
    4.0267    0.3266   -0.5418 N   0  0  0  0  0  0  0  0  0  0  0  0
    2.6544    0.2603   -0.6584 C   0  0  0  0  0  0  0  0  0  0  0  0
    1.9980    1.2207   -1.0099 O   0  0  0  0  0  0  0  0  0  0  0  0
   -1.3593   -1.2442    0.1564 O   0  0  0  0  0  0  0  0  0  0  0  0
   -4.7989    0.0531   -0.1880 C   0  0  0  0  0  0  0  0  0  0  0  0
   -6.0522   -0.0630    0.4339 C   0  0  0  0  0  0  0  0  0  0  0  0
   -7.3346    0.8933   -0.2207 Cl  0  0  0  0  0  0  0  0  0  0  0  0
   -8.2862   -1.3464    3.8721 H   0  0  0  0  0  0  0  0  0  0  0  0
   -5.1861   -2.2507    2.8980 H   0  0  0  0  0  0  0  0  0  0  0  0
   -3.0048   -2.0349    1.8095 H   0  0  0  0  0  0  0  0  0  0  0  0
   -2.4900    0.8514   -2.0934 H   0  0  0  0  0  0  0  0  0  0  0  0
    0.1248    0.2464   -2.3472 H   0  0  0  0  0  0  0  0  0  0  0  0
    0.8839   -2.6671    0.1499 H   0  0  0  0  0  0  0  0  0  0  0  0
    8.3148    0.9276   -0.3055 H   0  0  0  0  0  0  0  0  0  0  0  0
    8.2339    3.3071   -1.0488 H   0  0  0  0  0  0  0  0  0  0  0  0
    6.0771    4.3814   -1.5914 H   0  0  0  0  0  0  0  0  0  0  0  0
    3.9361    3.1123   -1.4088 H   0  0  0  0  0  0  0  0  0  0  0  0
   -4.7026    0.7082   -1.0514 H   0  0  0  0  0  0  0  0  0  0  0  0
  1  2  2  0
  2  3  1  0
  2  4  1  0
  4  5  2  0
  5  6  1  0
  6  7  2  0
  7  8  1  0
  8  9  2  0
  9 10  1  0
 10 11  2  0
 11 12  1  0
 12 13  2  3
 13 14  1  0
 14 15  1  0
 15 16  2  0
 16 17  1  0
 17 18  2  0
 18 19  1  0
 19 20  2  0
 20 21  1  0
 21 22  2  0
 22 23  1  0
 23 24  1  0
 24 25  2  0
 11 26  1  0
  7 27  1  0
 27 28  2  0
 28 29  1  0
 28  4  1  0
 26  8  1  0
 24 13  1  0
 23 15  1  0
 22 17  1  0
  3 30  1  0
  5 31  1  0
  6 32  1  0
  9 33  1  0
 10 34  1  0
 12 35  1  0
 18 36  1  0
 19 37  1  0
 20 38  1  0
 21 39  1  0
 27 40  1  0
M  END
$$$$
