
     RDKit          3D

 46 48  0  0  0  0  0  0  0  0999 V2000
   -1.8186   -0.6994    3.0872 C   0  0  0  0  0  0  0  0  0  0  0  0
   -2.2815    0.0369    1.8439 C   0  0  0  0  0  0  0  0  0  0  0  0
   -2.6207   -0.9421    0.7670 N   0  0  0  0  0  4  0  0  0  0  0  0
   -1.6724   -1.2606   -0.1654 C   0  0  0  0  0  0  0  0  0  0  0  0
   -0.3036   -0.7394   -0.0640 C   0  0  0  0  0  0  0  0  0  0  0  0
    0.1964    0.1329   -0.9541 C   0  0  0  0  0  0  0  0  0  0  0  0
    1.5688    0.6555   -0.9010 C   0  0  0  0  0  0  0  0  0  0  0  0
    2.2333    0.9307   -2.0953 C   0  0  0  0  0  0  0  0  0  0  0  0
    3.5383    1.4488   -2.0892 C   0  0  0  0  0  0  0  0  0  0  0  0
    4.2297    1.7355   -0.9007 C   0  0  0  0  0  0  0  0  0  0  0  0
    5.5366    2.2279   -0.8982 N   0  0  0  0  0  0  0  0  0  0  0  0
    6.0847    2.8084    0.3272 C   0  0  0  0  0  0  0  0  0  0  0  0
    6.1280    2.7135   -2.1449 C   0  0  0  0  0  0  0  0  0  0  0  0
    3.5345    1.4553    0.2877 C   0  0  0  0  0  0  0  0  0  0  0  0
    2.2296    0.9353    0.2946 C   0  0  0  0  0  0  0  0  0  0  0  0
   -1.9716   -2.1191   -1.2239 C   0  0  0  0  0  0  0  0  0  0  0  0
   -3.2372   -2.6607   -1.3422 C   0  0  0  0  0  0  0  0  0  0  0  0
   -4.2014   -2.3542   -0.3907 C   0  0  0  0  0  0  0  0  0  0  0  0
   -5.4831   -2.9134   -0.5018 C   0  0  0  0  0  0  0  0  0  0  0  0
   -6.4652   -2.6316    0.4431 C   0  0  0  0  0  0  0  0  0  0  0  0
   -6.1753   -1.7921    1.5094 C   0  0  0  0  0  0  0  0  0  0  0  0
   -4.9017   -1.2256    1.6323 C   0  0  0  0  0  0  0  0  0  0  0  0
   -3.8858   -1.4823    0.6890 C   0  0  0  0  0  0  0  0  0  0  0  0
   -1.5661    0.0150    3.8767 H   0  0  0  0  0  0  0  0  0  0  0  0
   -2.5931   -1.3695    3.4717 H   0  0  0  0  0  0  0  0  0  0  0  0
   -0.9322   -1.3075    2.8835 H   0  0  0  0  0  0  0  0  0  0  0  0
   -1.5112    0.7259    1.4865 H   0  0  0  0  0  0  0  0  0  0  0  0
   -3.1525    0.6691    2.0374 H   0  0  0  0  0  0  0  0  0  0  0  0
    0.2949   -1.1212    0.7588 H   0  0  0  0  0  0  0  0  0  0  0  0
   -0.3986    0.4851   -1.7962 H   0  0  0  0  0  0  0  0  0  0  0  0
    1.7615    0.7369   -3.0562 H   0  0  0  0  0  0  0  0  0  0  0  0
    4.0001    1.6206   -3.0574 H   0  0  0  0  0  0  0  0  0  0  0  0
    7.1082    3.1698    0.1766 H   0  0  0  0  0  0  0  0  0  0  0  0
    5.4810    3.6589    0.6626 H   0  0  0  0  0  0  0  0  0  0  0  0
    6.1443    2.0616    1.1262 H   0  0  0  0  0  0  0  0  0  0  0  0
    7.1618    3.0440   -1.9939 H   0  0  0  0  0  0  0  0  0  0  0  0
    5.5630    3.5641   -2.5416 H   0  0  0  0  0  0  0  0  0  0  0  0
    6.1745    1.9187   -2.8972 H   0  0  0  0  0  0  0  0  0  0  0  0
    3.9972    1.6330    1.2543 H   0  0  0  0  0  0  0  0  0  0  0  0
    1.7568    0.7644    1.2569 H   0  0  0  0  0  0  0  0  0  0  0  0
   -1.2114   -2.3765   -1.9609 H   0  0  0  0  0  0  0  0  0  0  0  0
   -3.4563   -3.3291   -2.1746 H   0  0  0  0  0  0  0  0  0  0  0  0
   -5.7341   -3.5803   -1.3271 H   0  0  0  0  0  0  0  0  0  0  0  0
   -7.4566   -3.0726    0.3478 H   0  0  0  0  0  0  0  0  0  0  0  0
   -6.9442   -1.5790    2.2514 H   0  0  0  0  0  0  0  0  0  0  0  0
   -4.7487   -0.5915    2.4999 H   0  0  0  0  0  0  0  0  0  0  0  0
  1  2  1  0
  2  3  1  0
  3  4  2  0
  4  5  1  0
  5  6  2  3
  6  7  1  0
  7  8  2  0
  8  9  1  0
  9 10  2  0
 10 11  1  0
 11 12  1  0
 11 13  1  0
 10 14  1  0
 14 15  2  0
  4 16  1  0
 16 17  2  0
 17 18  1  0
 18 19  2  0
 19 20  1  0
 20 21  2  0
 21 22  1  0
 22 23  2  0
 23  3  1  0
 15  7  1  0
 23 18  1  0
  1 24  1  0
  1 25  1  0
  1 26  1  0
  2 27  1  0
  2 28  1  0
  5 29  1  0
  6 30  1  0
  8 31  1  0
  9 32  1  0
 12 33  1  0
 12 34  1  0
 12 35  1  0
 13 36  1  0
 13 37  1  0
 13 38  1  0
 14 39  1  0
 15 40  1  0
 16 41  1  0
 17 42  1  0
 19 43  1  0
 20 44  1  0
 21 45  1  0
 22 46  1  0
M  CHG  1   3   1
M  END
$$$$
