
     RDKit          3D

 57 59  0  0  0  0  0  0  0  0999 V2000
   -1.4279    2.3826   -3.1639 C   0  0  0  0  0  0  0  0  0  0  0  0
   -1.6704    0.9783   -3.4402 N   0  0  0  0  0  0  0  0  0  0  0  0
   -1.3719   -0.0299   -2.5635 C   0  0  0  0  0  0  0  0  0  0  0  0
   -0.6709   -1.3995   -3.2290 S   0  0  0  0  0  0  0  0  0  0  0  0
   -1.6901    0.1717   -1.2282 N   0  0  0  0  0  0  0  0  0  0  0  0
   -2.9870    0.7824   -0.8687 C   0  0  0  0  0  0  0  0  0  0  0  0
   -4.1946   -0.1375   -1.1225 C   0  0  0  0  0  0  0  0  0  0  0  0
   -4.2631   -1.3390   -0.2108 C   0  0  0  0  0  0  0  0  0  0  0  0
   -3.9463   -2.6147   -0.6930 C   0  0  0  0  0  0  0  0  0  0  0  0
   -3.9817   -3.7191    0.1573 C   0  0  0  0  0  0  0  0  0  0  0  0
   -4.3393   -3.5611    1.4959 C   0  0  0  0  0  0  0  0  0  0  0  0
   -4.6762   -2.2979    1.9938 C   0  0  0  0  0  0  0  0  0  0  0  0
   -5.0267   -2.1196    3.4413 C   0  0  0  0  0  0  0  0  0  0  0  0
   -4.6250   -1.1905    1.1366 C   0  0  0  0  0  0  0  0  0  0  0  0
   -1.0260   -0.5716   -0.1406 C   0  0  0  0  0  0  0  0  0  0  0  0
    0.2967    0.0713    0.1735 C   0  0  0  0  0  0  0  0  0  0  0  0
    1.4788   -0.4333   -0.2247 C   0  0  0  0  0  0  0  0  0  0  0  0
    2.7390    0.2258    0.1160 C   0  0  0  0  0  0  0  0  0  0  0  0
    3.9674   -0.2779   -0.3208 C   0  0  0  0  0  0  0  0  0  0  0  0
    5.1585    0.3750    0.0211 C   0  0  0  0  0  0  0  0  0  0  0  0
    6.4090   -0.0452   -0.3613 O   0  0  0  0  0  0  0  0  0  0  0  0
    6.4964   -1.1975   -1.1872 C   0  0  0  0  0  0  0  0  0  0  0  0
    5.1160    1.5443    0.8122 C   0  0  0  0  0  0  0  0  0  0  0  0
    6.3304    2.1175    1.1012 O   0  0  0  0  0  0  0  0  0  0  0  0
    6.3372    3.2879    1.9054 C   0  0  0  0  0  0  0  0  0  0  0  0
    3.8837    2.0453    1.2458 C   0  0  0  0  0  0  0  0  0  0  0  0
    2.7067    1.3848    0.8941 C   0  0  0  0  0  0  0  0  0  0  0  0
    1.4714    1.8810    1.3253 N   0  0  0  0  0  0  0  0  0  0  0  0
    0.2673    1.2970    1.0286 C   0  0  0  0  0  0  0  0  0  0  0  0
   -0.7780    1.7710    1.4648 O   0  0  0  0  0  0  0  0  0  0  0  0
   -1.0832    2.5474   -2.1402 H   0  0  0  0  0  0  0  0  0  0  0  0
   -2.3489    2.9366   -3.3593 H   0  0  0  0  0  0  0  0  0  0  0  0
   -0.6526    2.7307   -3.8525 H   0  0  0  0  0  0  0  0  0  0  0  0
   -1.4699    0.7090   -4.3968 H   0  0  0  0  0  0  0  0  0  0  0  0
   -2.9526    1.1141    0.1744 H   0  0  0  0  0  0  0  0  0  0  0  0
   -3.1438    1.6835   -1.4651 H   0  0  0  0  0  0  0  0  0  0  0  0
   -4.2046   -0.4642   -2.1698 H   0  0  0  0  0  0  0  0  0  0  0  0
   -5.1163    0.4429   -0.9850 H   0  0  0  0  0  0  0  0  0  0  0  0
   -3.6573   -2.7542   -1.7326 H   0  0  0  0  0  0  0  0  0  0  0  0
   -3.7259   -4.7041   -0.2243 H   0  0  0  0  0  0  0  0  0  0  0  0
   -4.3549   -4.4312    2.1481 H   0  0  0  0  0  0  0  0  0  0  0  0
   -5.4882   -3.0259    3.8470 H   0  0  0  0  0  0  0  0  0  0  0  0
   -5.7457   -1.3039    3.5707 H   0  0  0  0  0  0  0  0  0  0  0  0
   -4.1254   -1.8930    4.0190 H   0  0  0  0  0  0  0  0  0  0  0  0
   -4.8647   -0.2018    1.5240 H   0  0  0  0  0  0  0  0  0  0  0  0
   -1.6515   -0.5786    0.7586 H   0  0  0  0  0  0  0  0  0  0  0  0
   -0.8982   -1.6213   -0.4238 H   0  0  0  0  0  0  0  0  0  0  0  0
    1.5253   -1.3373   -0.8232 H   0  0  0  0  0  0  0  0  0  0  0  0
    3.9740   -1.1778   -0.9263 H   0  0  0  0  0  0  0  0  0  0  0  0
    6.1114   -2.0830   -0.6710 H   0  0  0  0  0  0  0  0  0  0  0  0
    5.9835   -1.0400   -2.1417 H   0  0  0  0  0  0  0  0  0  0  0  0
    7.5545   -1.3740   -1.4041 H   0  0  0  0  0  0  0  0  0  0  0  0
    5.9218    3.0875    2.8985 H   0  0  0  0  0  0  0  0  0  0  0  0
    7.3785    3.5973    2.0374 H   0  0  0  0  0  0  0  0  0  0  0  0
    5.8068    4.1089    1.4120 H   0  0  0  0  0  0  0  0  0  0  0  0
    3.8210    2.9410    1.8519 H   0  0  0  0  0  0  0  0  0  0  0  0
    1.4236    2.7096    1.9017 H   0  0  0  0  0  0  0  0  0  0  0  0
  1  2  1  0
  2  3  1  0
  3  4  2  0
  3  5  1  0
  5  6  1  0
  6  7  1  0
  7  8  1  0
  8  9  2  0
  9 10  1  0
 10 11  2  0
 11 12  1  0
 12 13  1  0
 12 14  2  0
  5 15  1  0
 15 16  1  0
 16 17  2  0
 17 18  1  0
 18 19  2  0
 19 20  1  0
 20 21  1  0
 21 22  1  0
 20 23  2  0
 23 24  1  0
 24 25  1  0
 23 26  1  0
 26 27  2  0
 27 28  1  0
 28 29  1  0
 29 30  2  0
 14  8  1  0
 29 16  1  0
 27 18  1  0
  1 31  1  0
  1 32  1  0
  1 33  1  0
  2 34  1  0
  6 35  1  0
  6 36  1  0
  7 37  1  0
  7 38  1  0
  9 39  1  0
 10 40  1  0
 11 41  1  0
 13 42  1  0
 13 43  1  0
 13 44  1  0
 14 45  1  0
 15 46  1  0
 15 47  1  0
 17 48  1  0
 19 49  1  0
 22 50  1  0
 22 51  1  0
 22 52  1  0
 25 53  1  0
 25 54  1  0
 25 55  1  0
 26 56  1  0
 28 57  1  0
M  END
$$$$
