
     RDKit          3D

 37 39  0  0  0  0  0  0  0  0999 V2000
   -0.3638   -1.5508    1.8872 C   0  0  0  0  0  0  0  0  0  0  0  0
   -0.8304   -0.6178    0.8822 N   0  0  0  0  0  0  0  0  0  0  0  0
   -0.1005    0.0459   -0.1131 C   0  0  0  0  0  0  0  0  0  0  0  0
    1.2278    0.1811   -0.3058 C   0  0  0  0  0  0  0  0  0  0  0  0
    2.3066   -0.2711    0.5488 C   0  0  0  0  0  0  0  0  0  0  0  0
    3.6142   -0.2570    0.2561 C   0  0  0  0  0  0  0  0  0  0  0  0
    4.3852    0.2565   -1.2011 S   0  0  0  0  0  0  0  0  0  0  0  0
    5.9800   -0.1164   -0.5881 C   0  0  0  0  0  0  0  0  0  0  0  0
    7.4146    0.0840   -1.3889 S   0  0  0  0  0  0  0  0  0  0  0  0
    5.8835   -0.6099    0.6764 N   0  0  0  0  0  0  0  0  0  0  0  0
    4.6387   -0.7312    1.2269 C   0  0  0  0  0  0  0  0  0  0  0  0
    4.4127   -1.1671    2.3440 O   0  0  0  0  0  0  0  0  0  0  0  0
   -1.1214    0.7288   -1.0887 C   0  0  0  0  0  0  0  0  0  0  0  0
   -0.9127    2.2485   -1.1784 C   0  0  0  0  0  0  0  0  0  0  0  0
   -1.0821    0.0846   -2.4818 C   0  0  0  0  0  0  0  0  0  0  0  0
   -2.4433    0.4214   -0.4044 C   0  0  0  0  0  0  0  0  0  0  0  0
   -3.7279    0.8049   -0.7714 C   0  0  0  0  0  0  0  0  0  0  0  0
   -4.7931    0.4004    0.0310 C   0  0  0  0  0  0  0  0  0  0  0  0
   -4.5625   -0.3707    1.1778 C   0  0  0  0  0  0  0  0  0  0  0  0
   -3.2637   -0.7530    1.5349 C   0  0  0  0  0  0  0  0  0  0  0  0
   -2.2001   -0.3618    0.7368 C   0  0  0  0  0  0  0  0  0  0  0  0
   -1.1345   -2.2614    2.2029 H   0  0  0  0  0  0  0  0  0  0  0  0
    0.4509   -2.1707    1.4989 H   0  0  0  0  0  0  0  0  0  0  0  0
   -0.0130   -1.0126    2.7736 H   0  0  0  0  0  0  0  0  0  0  0  0
    1.5439    0.7316   -1.1906 H   0  0  0  0  0  0  0  0  0  0  0  0
    2.0260   -0.6201    1.5378 H   0  0  0  0  0  0  0  0  0  0  0  0
    6.6982   -0.8888    1.2014 H   0  0  0  0  0  0  0  0  0  0  0  0
   -1.7012    2.7261   -1.7717 H   0  0  0  0  0  0  0  0  0  0  0  0
    0.0427    2.4982   -1.6528 H   0  0  0  0  0  0  0  0  0  0  0  0
   -0.9238    2.7152   -0.1860 H   0  0  0  0  0  0  0  0  0  0  0  0
   -0.1223    0.2639   -2.9790 H   0  0  0  0  0  0  0  0  0  0  0  0
   -1.2309   -1.0008   -2.4292 H   0  0  0  0  0  0  0  0  0  0  0  0
   -1.8673    0.4896   -3.1308 H   0  0  0  0  0  0  0  0  0  0  0  0
   -3.9039    1.4050   -1.6578 H   0  0  0  0  0  0  0  0  0  0  0  0
   -5.8085    0.6875   -0.2309 H   0  0  0  0  0  0  0  0  0  0  0  0
   -5.4018   -0.6737    1.7991 H   0  0  0  0  0  0  0  0  0  0  0  0
   -3.1163   -1.3383    2.4347 H   0  0  0  0  0  0  0  0  0  0  0  0
  1  2  1  0
  2  3  1  0
  3  4  2  3
  4  5  1  0
  5  6  2  3
  6  7  1  0
  7  8  1  0
  8  9  2  0
  8 10  1  0
 10 11  1  0
 11 12  2  0
  3 13  1  0
 13 14  1  0
 13 15  1  0
 13 16  1  0
 16 17  2  0
 17 18  1  0
 18 19  2  0
 19 20  1  0
 20 21  2  0
 21  2  1  0
 11  6  1  0
 21 16  1  0
  1 22  1  0
  1 23  1  0
  1 24  1  0
  4 25  1  0
  5 26  1  0
 10 27  1  0
 14 28  1  0
 14 29  1  0
 14 30  1  0
 15 31  1  0
 15 32  1  0
 15 33  1  0
 17 34  1  0
 18 35  1  0
 19 36  1  0
 20 37  1  0
M  END
$$$$
