
     RDKit          3D

 29 30  0  0  0  0  0  0  0  0999 V2000
    2.3355    2.9571   -0.3051 C   0  0  0  0  0  0  0  0  0  0  0  0
    2.4444    1.4767   -0.3754 C   0  0  0  0  0  0  0  0  0  0  0  0
    3.6294    0.9082   -0.6353 N   0  0  0  0  0  0  0  0  0  0  0  0
    3.3708   -0.4055   -0.6253 N   0  0  0  0  0  0  0  0  0  0  0  0
    4.4429   -1.3388   -0.8741 C   0  0  0  0  0  0  0  0  0  0  0  0
    2.0640   -0.7020   -0.3687 C   0  0  0  0  0  0  0  0  0  0  0  0
    1.4103    0.5078   -0.1962 C   0  0  0  0  0  0  0  0  0  0  0  0
   -0.0006    0.7666    0.0997 C   0  0  0  0  0  0  0  0  0  0  0  0
   -0.4125    1.9145    0.2209 O   0  0  0  0  0  0  0  0  0  0  0  0
   -0.7730   -0.3726    0.2201 N   0  0  0  0  0  0  0  0  0  0  0  0
   -2.1565   -0.4754    0.4986 C   0  0  0  0  0  0  0  0  0  0  0  0
   -2.9837    0.6324    0.7032 C   0  0  0  0  0  0  0  0  0  0  0  0
   -4.3466    0.4656    0.9755 C   0  0  0  0  0  0  0  0  0  0  0  0
   -4.9009   -0.8097    1.0470 C   0  0  0  0  0  0  0  0  0  0  0  0
   -4.0932   -1.9259    0.8462 C   0  0  0  0  0  0  0  0  0  0  0  0
   -2.7317   -1.7590    0.5742 C   0  0  0  0  0  0  0  0  0  0  0  0
   -1.6866   -3.3293    0.3102 Br  0  0  0  0  0  0  0  0  0  0  0  0
    3.3018    3.4394   -0.4863 H   0  0  0  0  0  0  0  0  0  0  0  0
    1.9865    3.2689    0.6844 H   0  0  0  0  0  0  0  0  0  0  0  0
    1.6316    3.3255   -1.0580 H   0  0  0  0  0  0  0  0  0  0  0  0
    4.0550   -2.3593   -0.8282 H   0  0  0  0  0  0  0  0  0  0  0  0
    4.8502   -1.1388   -1.8683 H   0  0  0  0  0  0  0  0  0  0  0  0
    5.2089   -1.1960   -0.1078 H   0  0  0  0  0  0  0  0  0  0  0  0
    1.7304   -1.7287   -0.3341 H   0  0  0  0  0  0  0  0  0  0  0  0
   -0.3067   -1.2604    0.0962 H   0  0  0  0  0  0  0  0  0  0  0  0
   -2.6039    1.6484    0.6588 H   0  0  0  0  0  0  0  0  0  0  0  0
   -4.9736    1.3409    1.1316 H   0  0  0  0  0  0  0  0  0  0  0  0
   -5.9602   -0.9320    1.2588 H   0  0  0  0  0  0  0  0  0  0  0  0
   -4.5320   -2.9187    0.9033 H   0  0  0  0  0  0  0  0  0  0  0  0
  1  2  1  0
  2  3  2  0
  3  4  1  0
  4  5  1  0
  4  6  1  0
  6  7  2  0
  7  8  1  0
  8  9  2  0
  8 10  1  0
 10 11  1  0
 11 12  2  0
 12 13  1  0
 13 14  2  0
 14 15  1  0
 15 16  2  0
 16 17  1  0
  7  2  1  0
 16 11  1  0
  1 18  1  0
  1 19  1  0
  1 20  1  0
  5 21  1  0
  5 22  1  0
  5 23  1  0
  6 24  1  0
 10 25  1  0
 12 26  1  0
 13 27  1  0
 14 28  1  0
 15 29  1  0
M  END
$$$$
