
     RDKit          3D

 51 53  0  0  0  0  0  0  0  0999 V2000
  -10.2806    0.9813    0.0753 C   0  0  0  0  0  0  0  0  0  0  0  0
   -8.7894    0.8983   -0.0591 C   0  0  0  0  0  0  0  0  0  0  0  0
   -8.1565   -0.3412   -0.1906 C   0  0  0  0  0  0  0  0  0  0  0  0
   -6.7621   -0.4267   -0.2844 C   0  0  0  0  0  0  0  0  0  0  0  0
   -5.9770    0.7248   -0.2374 C   0  0  0  0  0  0  0  0  0  0  0  0
   -4.5687    0.7288   -0.3257 N   0  0  0  0  0  0  0  0  0  0  0  0
   -3.7246   -0.3687   -0.4663 C   0  0  0  0  0  0  0  0  0  0  0  0
   -4.0735   -1.5423   -0.5382 O   0  0  0  0  0  0  0  0  0  0  0  0
   -2.2512    0.0598   -0.5358 C   0  0  0  0  0  0  0  0  0  0  0  0
   -1.3803   -1.0611   -0.5445 O   0  0  0  0  0  0  0  0  0  0  0  0
   -0.0377   -0.8099   -0.5267 C   0  0  0  0  0  0  0  0  0  0  0  0
    0.7633   -1.9415   -0.3559 C   0  0  0  0  0  0  0  0  0  0  0  0
    2.1548   -1.8293   -0.3172 C   0  0  0  0  0  0  0  0  0  0  0  0
    2.7577   -0.5772   -0.4321 C   0  0  0  0  0  0  0  0  0  0  0  0
    4.1976   -0.5293   -0.4752 N   0  0  0  0  0  0  0  0  0  0  0  0
    4.7520   -0.5441   -1.8509 C   0  0  0  0  0  0  0  0  0  0  0  0
    4.9051    0.6242    0.5803 S   0  0  0  0  0  6  0  0  0  0  0  0
    4.2986    0.5184    1.8907 O   0  0  0  0  0  0  0  0  0  0  0  0
    4.9663    1.8940   -0.1175 O   0  0  0  0  0  0  0  0  0  0  0  0
    6.5689    0.0101    0.7433 C   0  0  0  0  0  0  0  0  0  0  0  0
    6.7754   -1.2101    1.3994 C   0  0  0  0  0  0  0  0  0  0  0  0
    8.0737   -1.7008    1.5380 C   0  0  0  0  0  0  0  0  0  0  0  0
    9.1427   -0.9685    1.0284 C   0  0  0  0  0  0  0  0  0  0  0  0
   10.3879   -1.4428    1.1621 F   0  0  0  0  0  0  0  0  0  0  0  0
    8.9410    0.2497    0.3840 C   0  0  0  0  0  0  0  0  0  0  0  0
    7.6459    0.7490    0.2405 C   0  0  0  0  0  0  0  0  0  0  0  0
    1.9625    0.5517   -0.6466 C   0  0  0  0  0  0  0  0  0  0  0  0
    0.5673    0.4379   -0.6800 C   0  0  0  0  0  0  0  0  0  0  0  0
   -6.6108    1.9652   -0.0907 C   0  0  0  0  0  0  0  0  0  0  0  0
   -8.0036    2.0518    0.0031 C   0  0  0  0  0  0  0  0  0  0  0  0
  -10.5656    0.9152    1.1298 H   0  0  0  0  0  0  0  0  0  0  0  0
  -10.7683    0.1697   -0.4750 H   0  0  0  0  0  0  0  0  0  0  0  0
  -10.6578    1.9239   -0.3352 H   0  0  0  0  0  0  0  0  0  0  0  0
   -8.7421   -1.2577   -0.2225 H   0  0  0  0  0  0  0  0  0  0  0  0
   -6.3247   -1.4144   -0.3904 H   0  0  0  0  0  0  0  0  0  0  0  0
   -4.1324    1.6402   -0.2732 H   0  0  0  0  0  0  0  0  0  0  0  0
   -2.1291    0.6364   -1.4607 H   0  0  0  0  0  0  0  0  0  0  0  0
   -2.0459    0.6873    0.3405 H   0  0  0  0  0  0  0  0  0  0  0  0
    0.2978   -2.9190   -0.2500 H   0  0  0  0  0  0  0  0  0  0  0  0
    2.7615   -2.7207   -0.1866 H   0  0  0  0  0  0  0  0  0  0  0  0
    5.8331   -0.7039   -1.8337 H   0  0  0  0  0  0  0  0  0  0  0  0
    4.3215   -1.3744   -2.4217 H   0  0  0  0  0  0  0  0  0  0  0  0
    4.5311    0.3887   -2.3791 H   0  0  0  0  0  0  0  0  0  0  0  0
    5.9344   -1.7707    1.8027 H   0  0  0  0  0  0  0  0  0  0  0  0
    8.2606   -2.6437    2.0428 H   0  0  0  0  0  0  0  0  0  0  0  0
    9.7949    0.8023    0.0036 H   0  0  0  0  0  0  0  0  0  0  0  0
    7.4877    1.7046   -0.2546 H   0  0  0  0  0  0  0  0  0  0  0  0
    2.4124    1.5308   -0.7899 H   0  0  0  0  0  0  0  0  0  0  0  0
   -0.0100    1.3420   -0.8386 H   0  0  0  0  0  0  0  0  0  0  0  0
   -6.0339    2.8848   -0.0432 H   0  0  0  0  0  0  0  0  0  0  0  0
   -8.4698    3.0270    0.1246 H   0  0  0  0  0  0  0  0  0  0  0  0
  1  2  1  0
  2  3  2  0
  3  4  1  0
  4  5  2  0
  5  6  1  0
  6  7  1  0
  7  8  2  0
  7  9  1  0
  9 10  1  0
 10 11  1  0
 11 12  2  0
 12 13  1  0
 13 14  2  0
 14 15  1  0
 15 16  1  0
 15 17  1  0
 17 18  2  0
 17 19  2  0
 17 20  1  0
 20 21  2  0
 21 22  1  0
 22 23  2  0
 23 24  1  0
 23 25  1  0
 25 26  2  0
 14 27  1  0
 27 28  2  0
  5 29  1  0
 29 30  2  0
 30  2  1  0
 28 11  1  0
 26 20  1  0
  1 31  1  0
  1 32  1  0
  1 33  1  0
  3 34  1  0
  4 35  1  0
  6 36  1  0
  9 37  1  0
  9 38  1  0
 12 39  1  0
 13 40  1  0
 16 41  1  0
 16 42  1  0
 16 43  1  0
 21 44  1  0
 22 45  1  0
 25 46  1  0
 26 47  1  0
 27 48  1  0
 28 49  1  0
 29 50  1  0
 30 51  1  0
M  END
$$$$
