
     RDKit          3D

 58 60  0  0  0  0  0  0  0  0999 V2000
   -0.3371   -1.9793    3.3992 C   0  0  0  0  0  0  0  0  0  0  0  0
   -1.2537   -1.6780    2.2416 C   0  0  0  0  0  0  0  0  0  0  0  0
   -2.3950   -2.4857    2.0759 C   0  0  0  0  0  0  0  0  0  0  0  0
   -3.2781   -2.2667    1.0226 C   0  0  0  0  0  0  0  0  0  0  0  0
   -3.0134   -1.2392    0.1218 C   0  0  0  0  0  0  0  0  0  0  0  0
   -4.1343   -0.9313   -1.2177 S   0  0  0  0  0  6  0  0  0  0  0  0
   -5.3861   -1.6021   -0.9304 O   0  0  0  0  0  0  0  0  0  0  0  0
   -3.4162   -1.1756   -2.4490 O   0  0  0  0  0  0  0  0  0  0  0  0
   -4.4370    0.7390   -1.0910 N   0  0  0  0  0  0  0  0  0  0  0  0
   -5.1689    1.1833    0.1386 C   0  0  0  0  0  0  0  0  0  0  0  0
   -6.6083    1.5862   -0.1946 C   0  0  0  0  0  0  0  0  0  0  0  0
   -6.6848    2.6838   -1.1161 O   0  0  0  0  0  0  0  0  0  0  0  0
   -5.5932    2.7184   -2.0478 C   0  0  0  0  0  0  0  0  0  0  0  0
   -5.0064    1.3348   -2.3408 C   0  0  0  0  0  0  0  0  0  0  0  0
   -1.8839   -0.4253    0.2654 C   0  0  0  0  0  0  0  0  0  0  0  0
   -0.9989   -0.6270    1.3293 C   0  0  0  0  0  0  0  0  0  0  0  0
    0.1425    0.1835    1.5299 N   0  0  0  0  0  0  0  0  0  0  0  0
    0.5591    1.2763    0.7895 C   0  0  0  0  0  0  0  0  0  0  0  0
   -0.0181    1.7683   -0.1765 O   0  0  0  0  0  0  0  0  0  0  0  0
    1.8520    1.9093    1.3220 C   0  0  0  0  0  0  0  0  0  0  0  0
    3.0247    1.1085    1.1733 O   0  0  0  0  0  0  0  0  0  0  0  0
    3.2254    0.1691    2.1381 C   0  0  0  0  0  0  0  0  0  0  0  0
    2.4589   -0.0121    3.0794 O   0  0  0  0  0  0  0  0  0  0  0  0
    4.5499   -0.5702    1.9616 C   0  0  0  0  0  0  0  0  0  0  0  0
    5.1737   -0.3665    0.6634 N   0  0  0  0  0  0  0  0  0  0  0  0
    4.7636   -1.1367   -0.4075 C   0  0  0  0  0  0  0  0  0  0  0  0
    3.9735   -2.0662   -0.2930 O   0  0  0  0  0  0  0  0  0  0  0  0
    5.2827   -0.7379   -1.7425 C   0  0  0  0  0  0  0  0  0  0  0  0
    6.5283   -0.1152   -1.8949 C   0  0  0  0  0  0  0  0  0  0  0  0
    6.9736    0.2508   -3.1675 C   0  0  0  0  0  0  0  0  0  0  0  0
    6.1822   -0.0079   -4.2862 C   0  0  0  0  0  0  0  0  0  0  0  0
    4.9484   -0.6410   -4.1398 C   0  0  0  0  0  0  0  0  0  0  0  0
    4.4999   -1.0102   -2.8708 C   0  0  0  0  0  0  0  0  0  0  0  0
    0.6610   -2.2378    3.0338 H   0  0  0  0  0  0  0  0  0  0  0  0
   -0.2755   -1.1177    4.0715 H   0  0  0  0  0  0  0  0  0  0  0  0
   -0.6964   -2.8289    3.9889 H   0  0  0  0  0  0  0  0  0  0  0  0
   -2.5997   -3.2980    2.7713 H   0  0  0  0  0  0  0  0  0  0  0  0
   -4.1541   -2.9012    0.9080 H   0  0  0  0  0  0  0  0  0  0  0  0
   -4.6211    2.0412    0.5463 H   0  0  0  0  0  0  0  0  0  0  0  0
   -5.1708    0.4068    0.9090 H   0  0  0  0  0  0  0  0  0  0  0  0
   -7.1349    1.8891    0.7159 H   0  0  0  0  0  0  0  0  0  0  0  0
   -7.1606    0.7435   -0.6263 H   0  0  0  0  0  0  0  0  0  0  0  0
   -4.8261    3.3850   -1.6370 H   0  0  0  0  0  0  0  0  0  0  0  0
   -5.9649    3.1758   -2.9698 H   0  0  0  0  0  0  0  0  0  0  0  0
   -4.2085    1.4253   -3.0845 H   0  0  0  0  0  0  0  0  0  0  0  0
   -5.7934    0.6819   -2.7363 H   0  0  0  0  0  0  0  0  0  0  0  0
   -1.7220    0.3543   -0.4725 H   0  0  0  0  0  0  0  0  0  0  0  0
    0.7342   -0.0594    2.3225 H   0  0  0  0  0  0  0  0  0  0  0  0
    1.7064    2.2185    2.3647 H   0  0  0  0  0  0  0  0  0  0  0  0
    2.0265    2.8303    0.7544 H   0  0  0  0  0  0  0  0  0  0  0  0
    5.2481   -0.1881    2.7112 H   0  0  0  0  0  0  0  0  0  0  0  0
    4.3782   -1.6376    2.1239 H   0  0  0  0  0  0  0  0  0  0  0  0
    5.5339    0.5572    0.4609 H   0  0  0  0  0  0  0  0  0  0  0  0
    7.1726    0.0683   -1.0405 H   0  0  0  0  0  0  0  0  0  0  0  0
    7.9413    0.7306   -3.2893 H   0  0  0  0  0  0  0  0  0  0  0  0
    6.5303    0.2775   -5.2764 H   0  0  0  0  0  0  0  0  0  0  0  0
    4.3343   -0.8484   -5.0132 H   0  0  0  0  0  0  0  0  0  0  0  0
    3.5366   -1.5050   -2.7626 H   0  0  0  0  0  0  0  0  0  0  0  0
  1  2  1  0
  2  3  2  0
  3  4  1  0
  4  5  2  0
  5  6  1  0
  6  7  2  0
  6  8  2  0
  6  9  1  0
  9 10  1  0
 10 11  1  0
 11 12  1  0
 12 13  1  0
 13 14  1  0
  5 15  1  0
 15 16  2  0
 16 17  1  0
 17 18  1  0
 18 19  2  0
 18 20  1  0
 20 21  1  0
 21 22  1  0
 22 23  2  0
 22 24  1  0
 24 25  1  0
 25 26  1  0
 26 27  2  0
 26 28  1  0
 28 29  2  0
 29 30  1  0
 30 31  2  0
 31 32  1  0
 32 33  2  0
 16  2  1  0
 33 28  1  0
 14  9  1  0
  1 34  1  0
  1 35  1  0
  1 36  1  0
  3 37  1  0
  4 38  1  0
 10 39  1  0
 10 40  1  0
 11 41  1  0
 11 42  1  0
 13 43  1  0
 13 44  1  0
 14 45  1  0
 14 46  1  0
 15 47  1  0
 17 48  1  0
 20 49  1  0
 20 50  1  0
 24 51  1  0
 24 52  1  0
 25 53  1  0
 29 54  1  0
 30 55  1  0
 31 56  1  0
 32 57  1  0
 33 58  1  0
M  END
$$$$
