
     RDKit          3D

 53 55  0  0  0  0  0  0  0  0999 V2000
   -7.5454   -4.0808    2.8779 C   0  0  0  0  0  0  0  0  0  0  0  0
   -7.2831   -2.6889    3.0071 O   0  0  0  0  0  0  0  0  0  0  0  0
   -6.2065   -2.1949    2.3238 C   0  0  0  0  0  0  0  0  0  0  0  0
   -6.0270   -0.8119    2.4434 C   0  0  0  0  0  0  0  0  0  0  0  0
   -4.9671   -0.1702    1.8001 C   0  0  0  0  0  0  0  0  0  0  0  0
   -4.0767   -0.9263    1.0379 C   0  0  0  0  0  0  0  0  0  0  0  0
   -2.7166   -0.1425    0.2094 S   0  0  0  0  0  6  0  0  0  0  0  0
   -2.7538    1.2752    0.4987 O   0  0  0  0  0  0  0  0  0  0  0  0
   -2.6962   -0.6399   -1.1477 O   0  0  0  0  0  0  0  0  0  0  0  0
   -1.3828   -0.7843    1.0235 N   0  0  0  0  0  0  0  0  0  0  0  0
   -1.2322   -0.4377    2.4538 C   0  0  0  0  0  0  0  0  0  0  0  0
    0.0819    0.3078    2.5116 C   0  0  0  0  0  0  0  0  0  0  0  0
    0.8481   -0.2923    1.4661 O   0  0  0  0  0  0  0  0  0  0  0  0
   -0.0875   -0.4584    0.3788 C   0  0  0  0  0  0  0  0  0  0  0  0
    0.3925   -1.6129   -0.5222 C   0  0  0  0  0  0  0  0  0  0  0  0
    1.7376   -1.4253   -1.0396 N   0  0  0  0  0  0  0  0  0  0  0  0
    2.0212   -0.4582   -1.9743 C   0  0  0  0  0  0  0  0  0  0  0  0
    1.2014    0.2340   -2.5607 O   0  0  0  0  0  0  0  0  0  0  0  0
    3.5322   -0.2610   -2.2333 C   0  0  0  0  0  0  0  0  0  0  0  0
    4.3547   -0.8919   -1.5844 O   0  0  0  0  0  0  0  0  0  0  0  0
    3.8000    0.6679   -3.2102 N   0  0  0  0  0  0  0  0  0  0  0  0
    5.1331    1.1343   -3.4847 C   0  0  0  0  0  0  0  0  0  0  0  0
    5.4315    2.3938   -2.7119 C   0  0  0  0  0  0  0  0  0  0  0  0
    5.9275    2.3173   -1.3999 C   0  0  0  0  0  0  0  0  0  0  0  0
    6.1821    3.4800   -0.6717 C   0  0  0  0  0  0  0  0  0  0  0  0
    5.9347    4.7184   -1.2508 C   0  0  0  0  0  0  0  0  0  0  0  0
    6.1782    5.8345   -0.5514 F   0  0  0  0  0  0  0  0  0  0  0  0
    5.4341    4.8167   -2.5437 C   0  0  0  0  0  0  0  0  0  0  0  0
    5.1782    3.6551   -3.2743 C   0  0  0  0  0  0  0  0  0  0  0  0
   -4.2476   -2.3069    0.9029 C   0  0  0  0  0  0  0  0  0  0  0  0
   -5.3134   -2.9401    1.5499 C   0  0  0  0  0  0  0  0  0  0  0  0
   -6.7228   -4.6761    3.2877 H   0  0  0  0  0  0  0  0  0  0  0  0
   -8.4429   -4.3074    3.4614 H   0  0  0  0  0  0  0  0  0  0  0  0
   -7.7485   -4.3499    1.8361 H   0  0  0  0  0  0  0  0  0  0  0  0
   -6.7265   -0.2301    3.0401 H   0  0  0  0  0  0  0  0  0  0  0  0
   -4.8509    0.9066    1.8973 H   0  0  0  0  0  0  0  0  0  0  0  0
   -2.0505    0.1533    2.8713 H   0  0  0  0  0  0  0  0  0  0  0  0
   -1.1702   -1.3772    3.0143 H   0  0  0  0  0  0  0  0  0  0  0  0
    0.5935    0.1947    3.4708 H   0  0  0  0  0  0  0  0  0  0  0  0
   -0.0425    1.3744    2.2927 H   0  0  0  0  0  0  0  0  0  0  0  0
   -0.1228    0.4915   -0.1675 H   0  0  0  0  0  0  0  0  0  0  0  0
   -0.2851   -1.7440   -1.3719 H   0  0  0  0  0  0  0  0  0  0  0  0
    0.4139   -2.5511    0.0437 H   0  0  0  0  0  0  0  0  0  0  0  0
    2.5297   -1.7707   -0.5033 H   0  0  0  0  0  0  0  0  0  0  0  0
    3.0016    1.1889   -3.5622 H   0  0  0  0  0  0  0  0  0  0  0  0
    5.8662    0.3565   -3.2420 H   0  0  0  0  0  0  0  0  0  0  0  0
    5.2025    1.3224   -4.5617 H   0  0  0  0  0  0  0  0  0  0  0  0
    6.1114    1.3472   -0.9400 H   0  0  0  0  0  0  0  0  0  0  0  0
    6.5666    3.4265    0.3416 H   0  0  0  0  0  0  0  0  0  0  0  0
    5.2435    5.7956   -2.9719 H   0  0  0  0  0  0  0  0  0  0  0  0
    4.7796    3.7395   -4.2830 H   0  0  0  0  0  0  0  0  0  0  0  0
   -3.5588   -2.8904    0.2954 H   0  0  0  0  0  0  0  0  0  0  0  0
   -5.4200   -4.0131    1.4272 H   0  0  0  0  0  0  0  0  0  0  0  0
  1  2  1  0
  2  3  1  0
  3  4  2  0
  4  5  1  0
  5  6  2  0
  6  7  1  0
  7  8  2  0
  7  9  2  0
  7 10  1  0
 10 11  1  0
 11 12  1  0
 12 13  1  0
 13 14  1  0
 14 15  1  0
 15 16  1  0
 16 17  1  0
 17 18  2  0
 17 19  1  0
 19 20  2  0
 19 21  1  0
 21 22  1  0
 22 23  1  0
 23 24  2  0
 24 25  1  0
 25 26  2  0
 26 27  1  0
 26 28  1  0
 28 29  2  0
  6 30  1  0
 30 31  2  0
 31  3  1  0
 14 10  1  0
 29 23  1  0
  1 32  1  0
  1 33  1  0
  1 34  1  0
  4 35  1  0
  5 36  1  0
 11 37  1  0
 11 38  1  0
 12 39  1  0
 12 40  1  0
 14 41  1  0
 15 42  1  0
 15 43  1  0
 16 44  1  0
 21 45  1  0
 22 46  1  0
 22 47  1  0
 24 48  1  0
 25 49  1  0
 28 50  1  0
 29 51  1  0
 30 52  1  0
 31 53  1  0
M  END
$$$$
