
     RDKit          3D

 63 67  0  0  0  0  0  0  0  0999 V2000
    7.6601    0.3568   -3.9341 C   0  0  0  0  0  0  0  0  0  0  0  0
    6.5924   -0.7190   -3.9482 C   0  0  0  0  0  0  0  0  0  0  0  0
    5.6080   -0.4541   -2.9410 O   0  0  0  0  0  0  0  0  0  0  0  0
    5.8837   -0.9443   -1.6956 C   0  0  0  0  0  0  0  0  0  0  0  0
    6.9006   -1.5619   -1.3994 O   0  0  0  0  0  0  0  0  0  0  0  0
    4.8182   -0.6518   -0.7453 C   0  0  0  0  0  0  0  0  0  0  0  0
    3.6318    0.1095   -0.9415 C   0  0  0  0  0  0  0  0  0  0  0  0
    2.9018    0.0924    0.2336 C   0  0  0  0  0  0  0  0  0  0  0  0
    1.6252    0.6939    0.5906 C   0  0  0  0  0  0  0  0  0  0  0  0
    0.8359    1.3730   -0.3319 N   0  0  0  0  0  0  0  0  0  0  0  0
    0.3810    0.6722   -1.5467 C   0  0  0  0  0  0  0  0  0  0  0  0
   -0.9608   -0.0474   -1.2962 C   0  0  0  0  0  0  0  0  0  0  0  0
   -2.0203    0.8833   -0.8404 N   0  0  0  0  0  0  0  0  0  0  0  0
   -3.2820    0.1494   -0.6312 C   0  0  0  0  0  0  0  0  0  0  0  0
   -4.4721    1.0774   -0.3219 C   0  0  0  0  0  0  0  0  0  0  0  0
   -5.8094    0.3928   -0.5062 C   0  0  0  0  0  0  0  0  0  0  0  0
   -6.3712    0.3927   -1.7955 C   0  0  0  0  0  0  0  0  0  0  0  0
   -7.5992   -0.2141   -2.0432 C   0  0  0  0  0  0  0  0  0  0  0  0
   -8.2857   -0.8384   -1.0068 C   0  0  0  0  0  0  0  0  0  0  0  0
   -7.7429   -0.8515    0.2762 C   0  0  0  0  0  0  0  0  0  0  0  0
   -6.5008   -0.2452    0.5475 C   0  0  0  0  0  0  0  0  0  0  0  0
   -5.9680   -0.2784    1.9604 C   0  0  0  0  0  0  0  0  0  0  0  0
   -5.9362    0.9549    2.5363 F   0  0  0  0  0  0  0  0  0  0  0  0
   -4.6976   -0.7650    2.0375 F   0  0  0  0  0  0  0  0  0  0  0  0
   -6.7061   -1.0577    2.8007 F   0  0  0  0  0  0  0  0  0  0  0  0
   -1.5480    1.5730    0.3875 C   0  0  0  0  0  0  0  0  0  0  0  0
   -0.2030    2.2997    0.1604 C   0  0  0  0  0  0  0  0  0  0  0  0
    1.2210    0.6044    1.8328 N   0  0  0  0  0  0  0  0  0  0  0  0
    1.9840   -0.0938    2.7878 C   0  0  0  0  0  0  0  0  0  0  0  0
    1.5009   -0.1687    4.0953 C   0  0  0  0  0  0  0  0  0  0  0  0
    2.2142   -0.8577    5.0801 C   0  0  0  0  0  0  0  0  0  0  0  0
    3.4219   -1.4814    4.7640 C   0  0  0  0  0  0  0  0  0  0  0  0
    3.9243   -1.4174    3.4638 C   0  0  0  0  0  0  0  0  0  0  0  0
    3.2000   -0.7256    2.4901 C   0  0  0  0  0  0  0  0  0  0  0  0
    3.6392   -0.6010    1.1629 N   0  0  0  0  0  0  0  0  0  0  0  0
    4.7843   -1.0769    0.5726 C   0  0  0  0  0  0  0  0  0  0  0  0
    8.4067    0.1713   -4.7075 H   0  0  0  0  0  0  0  0  0  0  0  0
    8.1632    0.3993   -2.9639 H   0  0  0  0  0  0  0  0  0  0  0  0
    7.2181    1.3413   -4.1043 H   0  0  0  0  0  0  0  0  0  0  0  0
    7.0250   -1.7168   -3.8258 H   0  0  0  0  0  0  0  0  0  0  0  0
    6.0763   -0.7118   -4.9139 H   0  0  0  0  0  0  0  0  0  0  0  0
    3.3451    0.6179   -1.8512 H   0  0  0  0  0  0  0  0  0  0  0  0
    0.2627    1.4045   -2.3526 H   0  0  0  0  0  0  0  0  0  0  0  0
    1.1108   -0.0615   -1.8949 H   0  0  0  0  0  0  0  0  0  0  0  0
   -0.8128   -0.8453   -0.5572 H   0  0  0  0  0  0  0  0  0  0  0  0
   -1.2695   -0.5219   -2.2359 H   0  0  0  0  0  0  0  0  0  0  0  0
   -3.5123   -0.4033   -1.5524 H   0  0  0  0  0  0  0  0  0  0  0  0
   -3.1710   -0.6019    0.1615 H   0  0  0  0  0  0  0  0  0  0  0  0
   -4.4375    1.9474   -0.9897 H   0  0  0  0  0  0  0  0  0  0  0  0
   -4.4013    1.4841    0.6917 H   0  0  0  0  0  0  0  0  0  0  0  0
   -5.8455    0.8764   -2.6187 H   0  0  0  0  0  0  0  0  0  0  0  0
   -8.0208   -0.1996   -3.0427 H   0  0  0  0  0  0  0  0  0  0  0  0
   -9.2450   -1.3127   -1.1982 H   0  0  0  0  0  0  0  0  0  0  0  0
   -8.3003   -1.3397    1.0748 H   0  0  0  0  0  0  0  0  0  0  0  0
   -2.2754    2.3312    0.6965 H   0  0  0  0  0  0  0  0  0  0  0  0
   -1.4475    0.8562    1.2140 H   0  0  0  0  0  0  0  0  0  0  0  0
    0.1160    2.7980    1.0833 H   0  0  0  0  0  0  0  0  0  0  0  0
   -0.3393    3.0952   -0.5839 H   0  0  0  0  0  0  0  0  0  0  0  0
    0.5609    0.3141    4.3467 H   0  0  0  0  0  0  0  0  0  0  0  0
    1.8229   -0.9063    6.0937 H   0  0  0  0  0  0  0  0  0  0  0  0
    3.9733   -2.0170    5.5338 H   0  0  0  0  0  0  0  0  0  0  0  0
    4.8666   -1.9045    3.2417 H   0  0  0  0  0  0  0  0  0  0  0  0
    5.5054   -1.6684    1.1161 H   0  0  0  0  0  0  0  0  0  0  0  0
  1  2  1  0
  2  3  1  0
  3  4  1  0
  4  5  2  0
  4  6  1  0
  6  7  1  0
  7  8  2  0
  8  9  1  0
  9 10  1  0
 10 11  1  0
 11 12  1  0
 12 13  1  0
 13 14  1  0
 14 15  1  0
 15 16  1  0
 16 17  2  0
 17 18  1  0
 18 19  2  0
 19 20  1  0
 20 21  2  0
 21 22  1  0
 22 23  1  0
 22 24  1  0
 22 25  1  0
 13 26  1  0
 26 27  1  0
  9 28  2  0
 28 29  1  0
 29 30  2  0
 30 31  1  0
 31 32  2  0
 32 33  1  0
 33 34  2  0
 34 35  1  0
 35 36  1  0
 36  6  2  0
 35  8  1  0
 27 10  1  0
 34 29  1  0
 21 16  1  0
  1 37  1  0
  1 38  1  0
  1 39  1  0
  2 40  1  0
  2 41  1  0
  7 42  1  0
 11 43  1  0
 11 44  1  0
 12 45  1  0
 12 46  1  0
 14 47  1  0
 14 48  1  0
 15 49  1  0
 15 50  1  0
 17 51  1  0
 18 52  1  0
 19 53  1  0
 20 54  1  0
 26 55  1  0
 26 56  1  0
 27 57  1  0
 27 58  1  0
 30 59  1  0
 31 60  1  0
 32 61  1  0
 33 62  1  0
 36 63  1  0
M  END
$$$$
