
     RDKit          3D

 33 35  0  0  0  0  0  0  0  0999 V2000
    5.9511    0.3281    1.1902 C   0  0  0  0  0  0  0  0  0  0  0  0
    4.5943    0.1154    0.6581 N   0  0  0  0  0  4  0  0  0  0  0  0
    4.2519   -1.0953    0.1642 C   0  0  0  0  0  0  0  0  0  0  0  0
    2.9799   -1.3155   -0.3522 C   0  0  0  0  0  0  0  0  0  0  0  0
    2.0459   -0.2814   -0.3537 C   0  0  0  0  0  0  0  0  0  0  0  0
    0.7152   -0.5181   -0.9232 C   0  0  0  0  0  0  0  0  0  0  0  0
   -0.4239   -0.0777   -0.3613 C   0  0  0  0  0  0  0  0  0  0  0  0
   -1.7461   -0.2818   -0.8691 C   0  0  0  0  0  0  0  0  0  0  0  0
   -2.0784   -0.8861   -2.0630 C   0  0  0  0  0  0  0  0  0  0  0  0
   -3.4451   -0.8769   -2.1769 N   0  0  0  0  0  0  0  0  0  0  0  0
   -4.0116   -0.2751   -1.0777 C   0  0  0  0  0  0  0  0  0  0  0  0
   -5.3594   -0.0478   -0.7739 C   0  0  0  0  0  0  0  0  0  0  0  0
   -5.6537    0.5946    0.4314 C   0  0  0  0  0  0  0  0  0  0  0  0
   -4.6391    0.9926    1.2971 C   0  0  0  0  0  0  0  0  0  0  0  0
   -3.2962    0.7579    0.9780 C   0  0  0  0  0  0  0  0  0  0  0  0
   -2.9681    0.1112   -0.2340 C   0  0  0  0  0  0  0  0  0  0  0  0
    2.4299    0.9646    0.1398 C   0  0  0  0  0  0  0  0  0  0  0  0
    3.7136    1.1406    0.6440 C   0  0  0  0  0  0  0  0  0  0  0  0
    6.5800    0.6585    0.3598 H   0  0  0  0  0  0  0  0  0  0  0  0
    6.3220   -0.6100    1.6111 H   0  0  0  0  0  0  0  0  0  0  0  0
    5.9127    1.0866    1.9763 H   0  0  0  0  0  0  0  0  0  0  0  0
    5.0025   -1.8805    0.1841 H   0  0  0  0  0  0  0  0  0  0  0  0
    2.7214   -2.2984   -0.7427 H   0  0  0  0  0  0  0  0  0  0  0  0
    0.6864   -1.1044   -1.8388 H   0  0  0  0  0  0  0  0  0  0  0  0
   -0.3667    0.4756    0.5735 H   0  0  0  0  0  0  0  0  0  0  0  0
   -1.4786   -1.3216   -2.8499 H   0  0  0  0  0  0  0  0  0  0  0  0
   -3.9698   -1.2539   -2.9546 H   0  0  0  0  0  0  0  0  0  0  0  0
   -6.1542   -0.3569   -1.4455 H   0  0  0  0  0  0  0  0  0  0  0  0
   -6.6918    0.7851    0.6958 H   0  0  0  0  0  0  0  0  0  0  0  0
   -4.8922    1.4900    2.2304 H   0  0  0  0  0  0  0  0  0  0  0  0
   -2.5198    1.0740    1.6670 H   0  0  0  0  0  0  0  0  0  0  0  0
    1.7415    1.8078    0.1245 H   0  0  0  0  0  0  0  0  0  0  0  0
    4.0465    2.0990    1.0325 H   0  0  0  0  0  0  0  0  0  0  0  0
  1  2  1  0
  2  3  2  0
  3  4  1  0
  4  5  2  0
  5  6  1  0
  6  7  2  3
  7  8  1  0
  8  9  2  0
  9 10  1  0
 10 11  1  0
 11 12  2  0
 12 13  1  0
 13 14  2  0
 14 15  1  0
 15 16  2  0
  5 17  1  0
 17 18  2  0
 18  2  1  0
 16  8  1  0
 16 11  1  0
  1 19  1  0
  1 20  1  0
  1 21  1  0
  3 22  1  0
  4 23  1  0
  6 24  1  0
  7 25  1  0
  9 26  1  0
 10 27  1  0
 12 28  1  0
 13 29  1  0
 14 30  1  0
 15 31  1  0
 17 32  1  0
 18 33  1  0
M  CHG  1   2   1
M  END
$$$$
