
     RDKit          3D

 38 40  0  0  0  0  0  0  0  0999 V2000
   -7.6665   -1.0201   -1.2443 C   0  0  0  0  0  0  0  0  0  0  0  0
   -6.5034   -0.6871   -0.3276 C   0  0  0  0  0  0  0  0  0  0  0  0
   -6.2012    0.7044   -0.3815 O   0  0  0  0  0  0  0  0  0  0  0  0
   -5.3596    1.0835   -1.4744 C   0  0  0  0  0  0  0  0  0  0  0  0
   -3.9454    1.1502   -0.9961 C   0  0  0  0  0  0  0  0  0  0  0  0
   -3.4158    2.1541   -0.3247 N   0  0  0  0  0  0  0  0  0  0  0  0
   -2.0824    1.9391   -0.0367 N   0  0  0  0  0  0  0  0  0  0  0  0
   -1.6518    0.7897   -0.5075 C   0  0  0  0  0  0  0  0  0  0  0  0
   -0.3592    0.3708   -0.3370 N   0  0  0  0  0  0  0  0  0  0  0  0
    0.2084   -0.8049   -0.7683 C   0  0  0  0  0  0  0  0  0  0  0  0
   -0.3437   -1.7052   -1.3947 O   0  0  0  0  0  0  0  0  0  0  0  0
    1.6871   -0.9252   -0.3834 C   0  0  0  0  0  0  0  0  0  0  0  0
    2.1354    0.2465    0.2956 O   0  0  0  0  0  0  0  0  0  0  0  0
    3.4423    0.2673    0.7000 C   0  0  0  0  0  0  0  0  0  0  0  0
    3.8240    1.4508    1.3671 C   0  0  0  0  0  0  0  0  0  0  0  0
    5.1291    1.6269    1.8394 C   0  0  0  0  0  0  0  0  0  0  0  0
    6.0229    0.6011    1.6308 C   0  0  0  0  0  0  0  0  0  0  0  0
    5.6568   -0.5523    0.9783 C   0  0  0  0  0  0  0  0  0  0  0  0
    4.3765   -0.7519    0.4997 C   0  0  0  0  0  0  0  0  0  0  0  0
    6.6861   -1.4367    0.8750 O   0  0  0  0  0  0  0  0  0  0  0  0
    7.7416   -0.7047    1.5349 C   0  0  0  0  0  0  0  0  0  0  0  0
    7.3255    0.5895    2.0191 O   0  0  0  0  0  0  0  0  0  0  0  0
   -2.8306   -0.1144   -1.3381 S   0  0  0  0  0  0  0  0  0  0  0  0
   -8.5364   -0.3986   -1.0048 H   0  0  0  0  0  0  0  0  0  0  0  0
   -7.9527   -2.0708   -1.1441 H   0  0  0  0  0  0  0  0  0  0  0  0
   -7.4170   -0.8246   -2.2918 H   0  0  0  0  0  0  0  0  0  0  0  0
   -5.6242   -1.2953   -0.5619 H   0  0  0  0  0  0  0  0  0  0  0  0
   -6.7902   -0.9114    0.7051 H   0  0  0  0  0  0  0  0  0  0  0  0
   -5.4824    0.4202   -2.3378 H   0  0  0  0  0  0  0  0  0  0  0  0
   -5.6694    2.0859   -1.7896 H   0  0  0  0  0  0  0  0  0  0  0  0
    0.2283    1.0152    0.1809 H   0  0  0  0  0  0  0  0  0  0  0  0
    1.7797   -1.8004    0.2697 H   0  0  0  0  0  0  0  0  0  0  0  0
    2.2509   -1.0609   -1.3131 H   0  0  0  0  0  0  0  0  0  0  0  0
    3.0948    2.2448    1.5148 H   0  0  0  0  0  0  0  0  0  0  0  0
    5.4269    2.5368    2.3478 H   0  0  0  0  0  0  0  0  0  0  0  0
    4.1472   -1.6783   -0.0106 H   0  0  0  0  0  0  0  0  0  0  0  0
    8.5667   -0.5649    0.8275 H   0  0  0  0  0  0  0  0  0  0  0  0
    8.1014   -1.2991    2.3824 H   0  0  0  0  0  0  0  0  0  0  0  0
  1  2  1  0
  2  3  1  0
  3  4  1  0
  4  5  1  0
  5  6  2  0
  6  7  1  0
  7  8  2  0
  8  9  1  0
  9 10  1  0
 10 11  2  0
 10 12  1  0
 12 13  1  0
 13 14  1  0
 14 15  2  0
 15 16  1  0
 16 17  2  0
 17 18  1  0
 18 19  2  0
 18 20  1  0
 20 21  1  0
 21 22  1  0
  8 23  1  0
 23  5  1  0
 19 14  1  0
 22 17  1  0
  1 24  1  0
  1 25  1  0
  1 26  1  0
  2 27  1  0
  2 28  1  0
  4 29  1  0
  4 30  1  0
  9 31  1  0
 12 32  1  0
 12 33  1  0
 15 34  1  0
 16 35  1  0
 19 36  1  0
 21 37  1  0
 21 38  1  0
M  END
$$$$
