
     RDKit          3D

 57 59  0  0  0  0  0  0  0  0999 V2000
    9.4897   -1.8994    1.2004 C   0  0  0  0  0  0  0  0  0  0  0  0
    8.4735   -2.6607    0.5608 O   0  0  0  0  0  0  0  0  0  0  0  0
    7.4434   -1.9626   -0.0069 C   0  0  0  0  0  0  0  0  0  0  0  0
    7.3047   -0.5749   -0.0283 C   0  0  0  0  0  0  0  0  0  0  0  0
    6.1947    0.0130   -0.6467 C   0  0  0  0  0  0  0  0  0  0  0  0
    5.2134   -0.7785   -1.2581 C   0  0  0  0  0  0  0  0  0  0  0  0
    4.0060   -0.1492   -1.9013 C   0  0  0  0  0  0  0  0  0  0  0  0
    2.9273   -0.0277   -0.9576 N   0  0  0  0  0  0  0  0  0  0  0  0
    1.9260   -0.9609   -0.8513 C   0  0  0  0  0  0  0  0  0  0  0  0
    1.7314   -1.9112   -1.5972 O   0  0  0  0  0  0  0  0  0  0  0  0
    0.9854   -0.7175    0.3498 C   0  0  0  0  0  0  0  0  0  0  0  0
    1.1229    0.2831    1.0370 O   0  0  0  0  0  0  0  0  0  0  0  0
    0.0432   -1.7056    0.5148 N   0  0  0  0  0  0  0  0  0  0  0  0
   -1.1227   -1.5287    1.3678 C   0  0  0  0  0  0  0  0  0  0  0  0
   -2.3578   -0.9650    0.6216 C   0  0  0  0  0  0  0  0  0  0  0  0
   -2.7587   -1.8916   -0.4141 O   0  0  0  0  0  0  0  0  0  0  0  0
   -2.3912   -1.3080   -1.6710 C   0  0  0  0  0  0  0  0  0  0  0  0
   -2.4833    0.1837   -1.4448 C   0  0  0  0  0  0  0  0  0  0  0  0
   -2.0733    0.3066   -0.0499 N   0  0  0  0  0  0  0  0  0  0  0  0
   -2.3374    1.7340    0.7832 S   0  0  0  0  0  6  0  0  0  0  0  0
   -1.9030    1.5525    2.1510 O   0  0  0  0  0  0  0  0  0  0  0  0
   -1.8399    2.8199   -0.0350 O   0  0  0  0  0  0  0  0  0  0  0  0
   -4.1151    1.8925    0.8268 C   0  0  0  0  0  0  0  0  0  0  0  0
   -4.8349    1.3684    1.9021 C   0  0  0  0  0  0  0  0  0  0  0  0
   -6.2218    1.5253    1.9400 C   0  0  0  0  0  0  0  0  0  0  0  0
   -6.8918    2.2200    0.9273 C   0  0  0  0  0  0  0  0  0  0  0  0
   -8.2471    2.2959    1.0911 O   0  0  0  0  0  0  0  0  0  0  0  0
   -8.9758    3.0252    0.1113 C   0  0  0  0  0  0  0  0  0  0  0  0
   -6.1603    2.7696   -0.1277 C   0  0  0  0  0  0  0  0  0  0  0  0
   -4.7707    2.6155   -0.1749 C   0  0  0  0  0  0  0  0  0  0  0  0
    5.3529   -2.1712   -1.2232 C   0  0  0  0  0  0  0  0  0  0  0  0
    6.4617   -2.7546   -0.6060 C   0  0  0  0  0  0  0  0  0  0  0  0
    9.0840   -1.3253    2.0399 H   0  0  0  0  0  0  0  0  0  0  0  0
   10.2285   -2.5993    1.6025 H   0  0  0  0  0  0  0  0  0  0  0  0
   10.0033   -1.2475    0.4861 H   0  0  0  0  0  0  0  0  0  0  0  0
    8.0387    0.0800    0.4289 H   0  0  0  0  0  0  0  0  0  0  0  0
    6.1023    1.0972   -0.6451 H   0  0  0  0  0  0  0  0  0  0  0  0
    4.2464    0.8576   -2.2600 H   0  0  0  0  0  0  0  0  0  0  0  0
    3.6875   -0.7365   -2.7701 H   0  0  0  0  0  0  0  0  0  0  0  0
    2.9900    0.6491   -0.2016 H   0  0  0  0  0  0  0  0  0  0  0  0
    0.0229   -2.4273   -0.2004 H   0  0  0  0  0  0  0  0  0  0  0  0
   -0.8522   -0.8817    2.2077 H   0  0  0  0  0  0  0  0  0  0  0  0
   -1.3609   -2.5242    1.7571 H   0  0  0  0  0  0  0  0  0  0  0  0
   -3.2007   -0.8937    1.3131 H   0  0  0  0  0  0  0  0  0  0  0  0
   -1.3715   -1.6193   -1.9193 H   0  0  0  0  0  0  0  0  0  0  0  0
   -3.0645   -1.6600   -2.4572 H   0  0  0  0  0  0  0  0  0  0  0  0
   -3.5189    0.5057   -1.5803 H   0  0  0  0  0  0  0  0  0  0  0  0
   -1.8324    0.7395   -2.1234 H   0  0  0  0  0  0  0  0  0  0  0  0
   -4.3326    0.8505    2.7156 H   0  0  0  0  0  0  0  0  0  0  0  0
   -6.7882    1.1135    2.7728 H   0  0  0  0  0  0  0  0  0  0  0  0
  -10.0328    2.9996    0.3931 H   0  0  0  0  0  0  0  0  0  0  0  0
   -8.8829    2.5603   -0.8757 H   0  0  0  0  0  0  0  0  0  0  0  0
   -8.6629    4.0742    0.0860 H   0  0  0  0  0  0  0  0  0  0  0  0
   -6.6389    3.3312   -0.9236 H   0  0  0  0  0  0  0  0  0  0  0  0
   -4.2096    3.0669   -0.9908 H   0  0  0  0  0  0  0  0  0  0  0  0
    4.5950   -2.8107   -1.6724 H   0  0  0  0  0  0  0  0  0  0  0  0
    6.5585   -3.8374   -0.5876 H   0  0  0  0  0  0  0  0  0  0  0  0
  1  2  1  0
  2  3  1  0
  3  4  2  0
  4  5  1  0
  5  6  2  0
  6  7  1  0
  7  8  1  0
  8  9  1  0
  9 10  2  0
  9 11  1  0
 11 12  2  0
 11 13  1  0
 13 14  1  0
 14 15  1  0
 15 16  1  0
 16 17  1  0
 17 18  1  0
 18 19  1  0
 19 20  1  0
 20 21  2  0
 20 22  2  0
 20 23  1  0
 23 24  2  0
 24 25  1  0
 25 26  2  0
 26 27  1  0
 27 28  1  0
 26 29  1  0
 29 30  2  0
  6 31  1  0
 31 32  2  0
 32  3  1  0
 19 15  1  0
 30 23  1  0
  1 33  1  0
  1 34  1  0
  1 35  1  0
  4 36  1  0
  5 37  1  0
  7 38  1  0
  7 39  1  0
  8 40  1  0
 13 41  1  0
 14 42  1  0
 14 43  1  0
 15 44  1  0
 17 45  1  0
 17 46  1  0
 18 47  1  0
 18 48  1  0
 24 49  1  0
 25 50  1  0
 28 51  1  0
 28 52  1  0
 28 53  1  0
 29 54  1  0
 30 55  1  0
 31 56  1  0
 32 57  1  0
M  END
$$$$
