
     RDKit          3D

 56 59  0  0  0  0  0  0  0  0999 V2000
    5.0482    4.3391    3.5904 C   0  0  0  0  0  0  0  0  0  0  0  0
    4.5276    3.5382    2.4108 C   0  0  0  0  0  0  0  0  0  0  0  0
    4.0561    2.2855    2.9026 O   0  0  0  0  0  0  0  0  0  0  0  0
    3.5379    1.4130    1.9858 C   0  0  0  0  0  0  0  0  0  0  0  0
    3.1074    0.1955    2.5184 C   0  0  0  0  0  0  0  0  0  0  0  0
    2.5542   -0.7887    1.6951 C   0  0  0  0  0  0  0  0  0  0  0  0
    2.4308   -0.5639    0.3208 C   0  0  0  0  0  0  0  0  0  0  0  0
    1.8462   -1.5822   -0.5416 C   0  0  0  0  0  0  0  0  0  0  0  0
    0.5453   -1.7156   -1.0083 C   0  0  0  0  0  0  0  0  0  0  0  0
   -0.6053   -0.8475   -0.7687 C   0  0  0  0  0  0  0  0  0  0  0  0
   -0.5443    0.1649   -0.0768 O   0  0  0  0  0  0  0  0  0  0  0  0
   -1.7598   -1.3064   -1.4086 N   0  0  0  0  0  0  0  0  0  0  0  0
   -2.9973   -0.8653   -1.0193 N   0  0  0  0  0  0  0  0  0  0  0  0
   -3.3290    0.3575   -1.3254 C   0  0  0  0  0  0  0  0  0  0  0  0
   -2.5217    1.3073   -2.1824 C   0  0  0  0  0  0  0  0  0  0  0  0
   -4.6045    0.8921   -0.8049 C   0  0  0  0  0  0  0  0  0  0  0  0
   -4.5544    1.8953    0.1696 C   0  0  0  0  0  0  0  0  0  0  0  0
   -5.7421    2.4231    0.6772 C   0  0  0  0  0  0  0  0  0  0  0  0
   -6.9719    1.9571    0.2067 C   0  0  0  0  0  0  0  0  0  0  0  0
   -7.0190    0.9575   -0.7685 C   0  0  0  0  0  0  0  0  0  0  0  0
   -5.8333    0.4098   -1.2628 C   0  0  0  0  0  0  0  0  0  0  0  0
   -5.8878   -0.5270   -2.2609 O   0  0  0  0  0  0  0  0  0  0  0  0
   -6.2468   -1.8018   -1.7246 C   0  0  0  0  0  0  0  0  0  0  0  0
    0.4504   -2.8521   -1.7690 N   0  0  0  0  0  0  0  0  0  0  0  0
    1.6355   -3.4317   -1.8000 N   0  0  0  0  0  0  0  0  0  0  0  0
    2.5223   -2.6805   -1.0799 N   0  0  0  0  0  0  0  0  0  0  0  0
    3.8904   -3.0431   -0.9878 C   0  0  0  0  0  0  0  0  0  0  0  0
    4.7726   -2.2705   -0.3540 N   0  0  0  0  0  0  0  0  0  0  0  0
    5.9840   -2.9421   -0.5026 O   0  0  0  0  0  0  0  0  0  0  0  0
    5.8246   -4.1141   -1.2346 N   0  0  0  0  0  0  0  0  0  0  0  0
    4.5264   -4.1779   -1.5269 C   0  0  0  0  0  0  0  0  0  0  0  0
    3.9547   -5.1788   -2.2239 N   0  0  0  0  0  0  0  0  0  0  0  0
    2.8537    0.6582   -0.2130 C   0  0  0  0  0  0  0  0  0  0  0  0
    3.4079    1.6412    0.6157 C   0  0  0  0  0  0  0  0  0  0  0  0
    5.4148    5.3177    3.2672 H   0  0  0  0  0  0  0  0  0  0  0  0
    5.8625    3.8043    4.0902 H   0  0  0  0  0  0  0  0  0  0  0  0
    4.2587    4.4858    4.3346 H   0  0  0  0  0  0  0  0  0  0  0  0
    5.3436    3.3815    1.6965 H   0  0  0  0  0  0  0  0  0  0  0  0
    3.7113    4.0937    1.9357 H   0  0  0  0  0  0  0  0  0  0  0  0
    3.2006    0.0132    3.5861 H   0  0  0  0  0  0  0  0  0  0  0  0
    2.2219   -1.7233    2.1403 H   0  0  0  0  0  0  0  0  0  0  0  0
   -1.7351   -2.2956   -1.6469 H   0  0  0  0  0  0  0  0  0  0  0  0
   -1.7658    1.8112   -1.5751 H   0  0  0  0  0  0  0  0  0  0  0  0
   -2.0367    0.7680   -3.0004 H   0  0  0  0  0  0  0  0  0  0  0  0
   -3.1705    2.0693   -2.6256 H   0  0  0  0  0  0  0  0  0  0  0  0
   -3.5970    2.2555    0.5405 H   0  0  0  0  0  0  0  0  0  0  0  0
   -5.7091    3.1993    1.4386 H   0  0  0  0  0  0  0  0  0  0  0  0
   -7.8960    2.3779    0.5957 H   0  0  0  0  0  0  0  0  0  0  0  0
   -7.9784    0.6172   -1.1485 H   0  0  0  0  0  0  0  0  0  0  0  0
   -5.6235   -2.0741   -0.8657 H   0  0  0  0  0  0  0  0  0  0  0  0
   -7.3056   -1.8222   -1.4458 H   0  0  0  0  0  0  0  0  0  0  0  0
   -6.0893   -2.5498   -2.5077 H   0  0  0  0  0  0  0  0  0  0  0  0
    3.0107   -5.0894   -2.5968 H   0  0  0  0  0  0  0  0  0  0  0  0
    4.5496   -5.8218   -2.7356 H   0  0  0  0  0  0  0  0  0  0  0  0
    2.7527    0.8619   -1.2766 H   0  0  0  0  0  0  0  0  0  0  0  0
    3.7214    2.5736    0.1586 H   0  0  0  0  0  0  0  0  0  0  0  0
  1  2  1  0
  2  3  1  0
  3  4  1  0
  4  5  2  0
  5  6  1  0
  6  7  2  0
  7  8  1  0
  8  9  2  0
  9 10  1  0
 10 11  2  0
 10 12  1  0
 12 13  1  0
 13 14  2  3
 14 15  1  0
 14 16  1  0
 16 17  2  0
 17 18  1  0
 18 19  2  0
 19 20  1  0
 20 21  2  0
 21 22  1  0
 22 23  1  0
  9 24  1  0
 24 25  2  0
 25 26  1  0
 26 27  1  0
 27 28  2  0
 28 29  1  0
 29 30  1  0
 30 31  2  0
 31 32  1  0
  7 33  1  0
 33 34  2  0
 34  4  1  0
 26  8  1  0
 31 27  1  0
 21 16  1  0
  1 35  1  0
  1 36  1  0
  1 37  1  0
  2 38  1  0
  2 39  1  0
  5 40  1  0
  6 41  1  0
 12 42  1  0
 15 43  1  0
 15 44  1  0
 15 45  1  0
 17 46  1  0
 18 47  1  0
 19 48  1  0
 20 49  1  0
 23 50  1  0
 23 51  1  0
 23 52  1  0
 32 53  1  0
 32 54  1  0
 33 55  1  0
 34 56  1  0
M  END
$$$$
