
     RDKit          3D

 37 38  0  0  0  0  0  0  0  0999 V2000
   -4.9939    0.8746   -0.3719 C   0  0  0  0  0  0  0  0  0  0  0  0
   -4.3349   -0.4150   -0.6794 N   0  0  0  0  0  0  0  0  0  0  0  0
   -5.2365   -1.3081   -1.4468 C   0  0  0  0  0  0  0  0  0  0  0  0
   -3.6067   -1.2016    0.6563 S   0  0  0  0  0  6  0  0  0  0  0  0
   -3.0112   -2.4313    0.1735 O   0  0  0  0  0  0  0  0  0  0  0  0
   -4.5736   -1.2445    1.7285 O   0  0  0  0  0  0  0  0  0  0  0  0
   -2.2565   -0.1172    1.0579 C   0  0  0  0  0  0  0  0  0  0  0  0
   -1.1000   -0.2452    0.2650 C   0  0  0  0  0  0  0  0  0  0  0  0
    0.0488    0.5197    0.5249 C   0  0  0  0  0  0  0  0  0  0  0  0
    1.2050    0.3114   -0.3869 C   0  0  0  0  0  0  0  0  0  0  0  0
    0.9685    0.1851   -1.5836 O   0  0  0  0  0  0  0  0  0  0  0  0
    2.4332    0.2260    0.2175 N   0  0  0  0  0  0  0  0  0  0  0  0
    3.6245    0.0035   -0.4273 C   0  0  0  0  0  0  0  0  0  0  0  0
    3.8892   -0.1975   -1.7988 C   0  0  0  0  0  0  0  0  0  0  0  0
    5.2510   -0.3718   -1.8821 C   0  0  0  0  0  0  0  0  0  0  0  0
    5.7132   -0.2705   -0.6055 N   0  0  0  0  0  0  0  0  0  0  0  0
    7.0829   -0.3809   -0.1668 C   0  0  0  0  0  0  0  0  0  0  0  0
    4.7442   -0.0437    0.2999 N   0  0  0  0  0  0  0  0  0  0  0  0
    0.0295    1.4333    1.5812 C   0  0  0  0  0  0  0  0  0  0  0  0
    1.3510    2.4789    1.9564 Cl  0  0  0  0  0  0  0  0  0  0  0  0
   -1.1217    1.5600    2.3688 C   0  0  0  0  0  0  0  0  0  0  0  0
   -2.2670    0.7889    2.1169 C   0  0  0  0  0  0  0  0  0  0  0  0
   -3.6161    1.1051    3.1414 Cl  0  0  0  0  0  0  0  0  0  0  0  0
   -4.2737    1.5925    0.0271 H   0  0  0  0  0  0  0  0  0  0  0  0
   -5.8174    0.7410    0.3355 H   0  0  0  0  0  0  0  0  0  0  0  0
   -5.3979    1.3138   -1.2902 H   0  0  0  0  0  0  0  0  0  0  0  0
   -4.6920   -2.1839   -1.8111 H   0  0  0  0  0  0  0  0  0  0  0  0
   -6.0847   -1.6286   -0.8343 H   0  0  0  0  0  0  0  0  0  0  0  0
   -5.6207   -0.7835   -2.3277 H   0  0  0  0  0  0  0  0  0  0  0  0
   -1.0892   -0.9521   -0.5677 H   0  0  0  0  0  0  0  0  0  0  0  0
    2.5460    0.3501    1.2141 H   0  0  0  0  0  0  0  0  0  0  0  0
    3.1861   -0.2138   -2.6195 H   0  0  0  0  0  0  0  0  0  0  0  0
    5.9046   -0.5540   -2.7232 H   0  0  0  0  0  0  0  0  0  0  0  0
    7.1537   -1.2154    0.5354 H   0  0  0  0  0  0  0  0  0  0  0  0
    7.7281   -0.5635   -1.0297 H   0  0  0  0  0  0  0  0  0  0  0  0
    7.3658    0.5562    0.3191 H   0  0  0  0  0  0  0  0  0  0  0  0
   -1.1316    2.2820    3.1852 H   0  0  0  0  0  0  0  0  0  0  0  0
  1  2  1  0
  2  3  1  0
  2  4  1  0
  4  5  2  0
  4  6  2  0
  4  7  1  0
  7  8  2  0
  8  9  1  0
  9 10  1  0
 10 11  2  0
 10 12  1  0
 12 13  1  0
 13 14  1  0
 14 15  2  0
 15 16  1  0
 16 17  1  0
 16 18  1  0
  9 19  2  0
 19 20  1  0
 19 21  1  0
 21 22  2  0
 22 23  1  0
 22  7  1  0
 18 13  2  0
  1 24  1  0
  1 25  1  0
  1 26  1  0
  3 27  1  0
  3 28  1  0
  3 29  1  0
  8 30  1  0
 12 31  1  0
 14 32  1  0
 15 33  1  0
 17 34  1  0
 17 35  1  0
 17 36  1  0
 21 37  1  0
M  END
$$$$
