
     RDKit          3D

 45 49  0  0  0  0  0  0  0  0999 V2000
    7.2206   -1.7252    1.1430 Cl  0  0  0  0  0  0  0  0  0  0  0  0
    6.2837   -0.5452    0.3077 C   0  0  0  0  0  0  0  0  0  0  0  0
    6.9213    0.5259   -0.3087 C   0  0  0  0  0  0  0  0  0  0  0  0
    6.1592    1.4716   -0.9847 C   0  0  0  0  0  0  0  0  0  0  0  0
    4.7674    1.3396   -1.0313 C   0  0  0  0  0  0  0  0  0  0  0  0
    4.0990    0.2723   -0.4033 C   0  0  0  0  0  0  0  0  0  0  0  0
    2.6998    0.1885   -0.4957 N   0  0  0  0  0  0  0  0  0  0  0  0
    1.9902    1.3446    0.1167 C   0  0  0  0  0  0  0  0  0  0  0  0
    0.4907    1.3337   -0.2487 C   0  0  0  0  0  0  0  0  0  0  0  0
   -0.1408    0.0418    0.1098 N   0  0  0  0  0  0  0  0  0  0  0  0
   -1.5331   -0.0048    0.1427 C   0  0  0  0  0  0  0  0  0  0  0  0
   -2.2200    0.8996   -0.5084 N   0  0  0  0  0  0  0  0  0  0  0  0
   -3.6287    0.8592   -0.5178 C   0  0  0  0  0  0  0  0  0  0  0  0
   -4.3150    1.8363   -1.2413 C   0  0  0  0  0  0  0  0  0  0  0  0
   -5.7117    1.8378   -1.2917 C   0  0  0  0  0  0  0  0  0  0  0  0
   -6.4381    0.8567   -0.6158 C   0  0  0  0  0  0  0  0  0  0  0  0
   -5.7737   -0.1298    0.1138 C   0  0  0  0  0  0  0  0  0  0  0  0
   -4.3763   -0.1187    0.1545 C   0  0  0  0  0  0  0  0  0  0  0  0
   -3.6289   -1.0658    0.8727 N   0  0  0  0  0  0  0  0  0  0  0  0
   -4.0577   -2.1205    1.6437 C   0  0  0  0  0  0  0  0  0  0  0  0
   -2.9508   -2.7253    2.1997 C   0  0  0  0  0  0  0  0  0  0  0  0
   -1.8135   -2.0219    1.7398 C   0  0  0  0  0  0  0  0  0  0  0  0
   -2.2533   -1.0203    0.8927 C   0  0  0  0  0  0  0  0  0  0  0  0
    0.5611   -1.0859   -0.5452 C   0  0  0  0  0  0  0  0  0  0  0  0
    2.0544   -1.1016   -0.1590 C   0  0  0  0  0  0  0  0  0  0  0  0
    4.8918   -0.6760    0.2587 C   0  0  0  0  0  0  0  0  0  0  0  0
    8.0023    0.6240   -0.2716 H   0  0  0  0  0  0  0  0  0  0  0  0
    6.6417    2.3070   -1.4850 H   0  0  0  0  0  0  0  0  0  0  0  0
    4.1987    2.0747   -1.5969 H   0  0  0  0  0  0  0  0  0  0  0  0
    2.1006    1.2974    1.2083 H   0  0  0  0  0  0  0  0  0  0  0  0
    2.4069    2.3008   -0.2183 H   0  0  0  0  0  0  0  0  0  0  0  0
    0.3711    1.5172   -1.3242 H   0  0  0  0  0  0  0  0  0  0  0  0
    0.0012    2.1528    0.2919 H   0  0  0  0  0  0  0  0  0  0  0  0
   -3.7523    2.6007   -1.7705 H   0  0  0  0  0  0  0  0  0  0  0  0
   -6.2306    2.6057   -1.8598 H   0  0  0  0  0  0  0  0  0  0  0  0
   -7.5247    0.8625   -0.6578 H   0  0  0  0  0  0  0  0  0  0  0  0
   -6.3596   -0.8807    0.6330 H   0  0  0  0  0  0  0  0  0  0  0  0
   -5.1061   -2.3548    1.7563 H   0  0  0  0  0  0  0  0  0  0  0  0
   -2.9647   -3.5737    2.8720 H   0  0  0  0  0  0  0  0  0  0  0  0
   -0.7825   -2.2210    2.0000 H   0  0  0  0  0  0  0  0  0  0  0  0
    0.1205   -2.0472   -0.2639 H   0  0  0  0  0  0  0  0  0  0  0  0
    0.4584   -0.9894   -1.6338 H   0  0  0  0  0  0  0  0  0  0  0  0
    2.1415   -1.2969    0.9177 H   0  0  0  0  0  0  0  0  0  0  0  0
    2.5379   -1.9211   -0.7044 H   0  0  0  0  0  0  0  0  0  0  0  0
    4.4421   -1.5247    0.7630 H   0  0  0  0  0  0  0  0  0  0  0  0
  1  2  1  0
  2  3  2  0
  3  4  1  0
  4  5  2  0
  5  6  1  0
  6  7  1  0
  7  8  1  0
  8  9  1  0
  9 10  1  0
 10 11  1  0
 11 12  2  0
 12 13  1  0
 13 14  2  0
 14 15  1  0
 15 16  2  0
 16 17  1  0
 17 18  2  0
 18 19  1  0
 19 20  1  0
 20 21  2  0
 21 22  1  0
 22 23  2  0
 10 24  1  0
 24 25  1  0
  6 26  2  0
 26  2  1  0
 25  7  1  0
 23 11  1  0
 18 13  1  0
 23 19  1  0
  3 27  1  0
  4 28  1  0
  5 29  1  0
  8 30  1  0
  8 31  1  0
  9 32  1  0
  9 33  1  0
 14 34  1  0
 15 35  1  0
 16 36  1  0
 17 37  1  0
 20 38  1  0
 21 39  1  0
 22 40  1  0
 24 41  1  0
 24 42  1  0
 25 43  1  0
 25 44  1  0
 26 45  1  0
M  END
$$$$
