
     RDKit          3D

 21 21  0  0  0  0  0  0  0  0999 V2000
    2.9963   -0.2290   -0.4531 C   0  0  0  0  0  0  0  0  0  0  0  0
    1.5178   -0.0089   -0.2771 C   0  0  0  0  0  0  0  0  0  0  0  0
    0.9726    1.2350   -0.6165 C   0  0  0  0  0  0  0  0  0  0  0  0
   -0.3881    1.4620   -0.4427 C   0  0  0  0  0  0  0  0  0  0  0  0
   -0.9333    2.6837   -0.7535 O   0  0  0  0  0  0  0  0  0  0  0  0
   -1.2429    0.4783    0.0854 C   0  0  0  0  0  0  0  0  0  0  0  0
   -2.6243    0.7633    0.1526 N   0  0  0  0  0  0  0  0  0  0  0  0
   -0.7284   -0.8017    0.3640 C   0  0  0  0  0  0  0  0  0  0  0  0
   -1.6271   -1.9116    0.8487 C   0  0  0  0  0  0  0  0  0  0  0  0
    0.6629   -1.0199    0.2127 C   0  0  0  0  0  0  0  0  0  0  0  0
    1.3475   -2.5620    0.6404 Cl  0  0  0  0  0  0  0  0  0  0  0  0
    3.1801   -1.0387   -1.1665 H   0  0  0  0  0  0  0  0  0  0  0  0
    3.4921    0.6668   -0.8424 H   0  0  0  0  0  0  0  0  0  0  0  0
    3.4646   -0.4681    0.5071 H   0  0  0  0  0  0  0  0  0  0  0  0
    1.6146    2.0204   -1.0041 H   0  0  0  0  0  0  0  0  0  0  0  0
   -0.2589    3.2137   -1.2085 H   0  0  0  0  0  0  0  0  0  0  0  0
   -3.0840    0.3625    0.9616 H   0  0  0  0  0  0  0  0  0  0  0  0
   -2.7711    1.7713    0.0822 H   0  0  0  0  0  0  0  0  0  0  0  0
   -2.6851   -1.7142    0.6548 H   0  0  0  0  0  0  0  0  0  0  0  0
   -1.4067   -2.8496    0.3285 H   0  0  0  0  0  0  0  0  0  0  0  0
   -1.4986   -2.0532    1.9265 H   0  0  0  0  0  0  0  0  0  0  0  0
  1  2  1  0
  2  3  2  0
  3  4  1  0
  4  5  1  0
  4  6  2  0
  6  7  1  0
  6  8  1  0
  8  9  1  0
  8 10  2  0
 10 11  1  0
 10  2  1  0
  1 12  1  0
  1 13  1  0
  1 14  1  0
  3 15  1  0
  5 16  1  0
  7 17  1  0
  7 18  1  0
  9 19  1  0
  9 20  1  0
  9 21  1  0
M  END
$$$$
