
     RDKit          3D

 51 53  0  0  0  0  0  0  0  0999 V2000
    4.6201   -3.8115   -2.2838 C   0  0  0  0  0  0  0  0  0  0  0  0
    4.2627   -2.5110   -1.8338 O   0  0  0  0  0  0  0  0  0  0  0  0
    2.9428   -2.2743   -1.5563 C   0  0  0  0  0  0  0  0  0  0  0  0
    1.9153   -3.2107   -1.7351 C   0  0  0  0  0  0  0  0  0  0  0  0
    0.5889   -2.8850   -1.4303 C   0  0  0  0  0  0  0  0  0  0  0  0
    0.2816   -1.6160   -0.9438 C   0  0  0  0  0  0  0  0  0  0  0  0
   -1.1221   -1.2848   -0.6286 C   0  0  0  0  0  0  0  0  0  0  0  0
   -1.4628   -0.1050   -0.2208 N   0  0  0  0  0  0  0  0  0  0  0  0
   -2.7888    0.0659    0.0365 N   0  0  0  0  0  0  0  0  0  0  0  0
   -3.2677    1.2875    0.4760 C   0  0  0  0  0  0  0  0  0  0  0  0
   -2.5625    2.2796    0.6546 O   0  0  0  0  0  0  0  0  0  0  0  0
   -4.7460    1.3782    0.7421 C   0  0  0  0  0  0  0  0  0  0  0  0
   -5.2135    2.6261    1.1995 C   0  0  0  0  0  0  0  0  0  0  0  0
   -6.5630    2.8339    1.4774 C   0  0  0  0  0  0  0  0  0  0  0  0
   -7.4670    1.7959    1.3011 C   0  0  0  0  0  0  0  0  0  0  0  0
   -7.0247    0.5499    0.8489 C   0  0  0  0  0  0  0  0  0  0  0  0
   -5.6679    0.3227    0.5661 C   0  0  0  0  0  0  0  0  0  0  0  0
   -5.1876   -0.8851    0.1188 O   0  0  0  0  0  0  0  0  0  0  0  0
   -6.1140   -1.9588   -0.0220 C   0  0  0  0  0  0  0  0  0  0  0  0
    1.2959   -0.6747   -0.7609 C   0  0  0  0  0  0  0  0  0  0  0  0
    2.6335   -0.9925   -1.0650 C   0  0  0  0  0  0  0  0  0  0  0  0
    3.6900    0.0677   -0.8450 C   0  0  0  0  0  0  0  0  0  0  0  0
    3.7731    0.3202    0.5596 O   0  0  0  0  0  0  0  0  0  0  0  0
    4.5520    1.3610    0.9823 C   0  0  0  0  0  0  0  0  0  0  0  0
    4.4968    1.6238    2.3586 C   0  0  0  0  0  0  0  0  0  0  0  0
    3.7210    0.8704    3.1526 F   0  0  0  0  0  0  0  0  0  0  0  0
    5.2395    2.6548    2.9256 C   0  0  0  0  0  0  0  0  0  0  0  0
    5.1733    2.8830    4.2447 F   0  0  0  0  0  0  0  0  0  0  0  0
    6.0550    3.4392    2.1266 C   0  0  0  0  0  0  0  0  0  0  0  0
    6.7764    4.4303    2.6684 F   0  0  0  0  0  0  0  0  0  0  0  0
    6.1284    3.1902    0.7642 C   0  0  0  0  0  0  0  0  0  0  0  0
    6.9221    3.9442   -0.0104 F   0  0  0  0  0  0  0  0  0  0  0  0
    5.3840    2.1594    0.1927 C   0  0  0  0  0  0  0  0  0  0  0  0
    5.5007    1.9539   -1.1276 F   0  0  0  0  0  0  0  0  0  0  0  0
    4.3741   -4.5708   -1.5342 H   0  0  0  0  0  0  0  0  0  0  0  0
    5.7043   -3.8277   -2.4302 H   0  0  0  0  0  0  0  0  0  0  0  0
    4.1515   -4.0370   -3.2475 H   0  0  0  0  0  0  0  0  0  0  0  0
    2.1136   -4.2089   -2.1130 H   0  0  0  0  0  0  0  0  0  0  0  0
   -0.1888   -3.6291   -1.5790 H   0  0  0  0  0  0  0  0  0  0  0  0
   -1.8658   -2.0912   -0.7611 H   0  0  0  0  0  0  0  0  0  0  0  0
   -3.4366   -0.7058   -0.0867 H   0  0  0  0  0  0  0  0  0  0  0  0
   -4.5168    3.4516    1.3417 H   0  0  0  0  0  0  0  0  0  0  0  0
   -6.9020    3.8050    1.8280 H   0  0  0  0  0  0  0  0  0  0  0  0
   -8.5215    1.9540    1.5145 H   0  0  0  0  0  0  0  0  0  0  0  0
   -7.7753   -0.2238    0.7261 H   0  0  0  0  0  0  0  0  0  0  0  0
   -5.5561   -2.8348   -0.3667 H   0  0  0  0  0  0  0  0  0  0  0  0
   -6.8704   -1.7284   -0.7788 H   0  0  0  0  0  0  0  0  0  0  0  0
   -6.5720   -2.2133    0.9391 H   0  0  0  0  0  0  0  0  0  0  0  0
    1.0515    0.3139   -0.3713 H   0  0  0  0  0  0  0  0  0  0  0  0
    4.6667   -0.2535   -1.2197 H   0  0  0  0  0  0  0  0  0  0  0  0
    3.3779    0.9713   -1.3852 H   0  0  0  0  0  0  0  0  0  0  0  0
  1  2  1  0
  2  3  1  0
  3  4  2  0
  4  5  1  0
  5  6  2  0
  6  7  1  0
  7  8  2  3
  8  9  1  0
  9 10  1  0
 10 11  2  0
 10 12  1  0
 12 13  2  0
 13 14  1  0
 14 15  2  0
 15 16  1  0
 16 17  2  0
 17 18  1  0
 18 19  1  0
  6 20  1  0
 20 21  2  0
 21 22  1  0
 22 23  1  0
 23 24  1  0
 24 25  2  0
 25 26  1  0
 25 27  1  0
 27 28  1  0
 27 29  2  0
 29 30  1  0
 29 31  1  0
 31 32  1  0
 31 33  2  0
 33 34  1  0
 21  3  1  0
 33 24  1  0
 17 12  1  0
  1 35  1  0
  1 36  1  0
  1 37  1  0
  4 38  1  0
  5 39  1  0
  7 40  1  0
  9 41  1  0
 13 42  1  0
 14 43  1  0
 15 44  1  0
 16 45  1  0
 19 46  1  0
 19 47  1  0
 19 48  1  0
 20 49  1  0
 22 50  1  0
 22 51  1  0
M  END
$$$$
