
     RDKit          3D

 50 53  0  0  0  0  0  0  0  0999 V2000
    7.3788   -2.1767   -0.4218 C   0  0  0  0  0  0  0  0  0  0  0  0
    6.0931   -1.4649   -0.1202 C   0  0  0  0  0  0  0  0  0  0  0  0
    4.8753   -1.9819   -0.5485 C   0  0  0  0  0  0  0  0  0  0  0  0
    3.6770   -1.3320   -0.2347 C   0  0  0  0  0  0  0  0  0  0  0  0
    3.6677   -0.1551    0.5196 C   0  0  0  0  0  0  0  0  0  0  0  0
    2.4668    0.5039    0.8846 N   0  0  0  0  0  0  0  0  0  0  0  0
    1.1781    0.2201    0.4402 C   0  0  0  0  0  0  0  0  0  0  0  0
    0.8569   -0.5839   -0.4329 O   0  0  0  0  0  0  0  0  0  0  0  0
    0.1122    1.0692    1.1457 C   0  0  0  0  0  0  0  0  0  0  0  0
   -1.2297    0.8483    0.5862 N   0  0  0  0  0  4  0  0  0  0  0  0
   -2.2928    0.1713    1.1818 C   0  0  0  0  0  0  0  0  0  0  0  0
   -3.3795    0.1776    0.3148 C   0  0  0  0  0  0  0  0  0  0  0  0
   -4.8076   -0.4138    0.5961 C   0  0  0  0  0  0  0  0  0  0  0  0
   -5.0340   -1.1710    1.7527 C   0  0  0  0  0  0  0  0  0  0  0  0
   -6.3062   -1.6887    2.0156 C   0  0  0  0  0  0  0  0  0  0  0  0
   -7.3562   -1.4435    1.1329 C   0  0  0  0  0  0  0  0  0  0  0  0
   -7.1370   -0.6833   -0.0137 C   0  0  0  0  0  0  0  0  0  0  0  0
   -5.8629   -0.1730   -0.2881 C   0  0  0  0  0  0  0  0  0  0  0  0
   -2.8843    0.8183   -0.8052 N   0  0  0  0  0  0  0  0  0  0  0  0
   -1.6119    1.1701   -0.6438 C   0  0  0  0  0  0  0  0  0  0  0  0
   -1.0264    1.8119   -1.8442 C   0  0  0  0  0  0  0  0  0  0  0  0
   -2.0762    1.4912   -2.9285 C   0  0  0  0  0  0  0  0  0  0  0  0
   -3.3673    1.1265   -2.1457 C   0  0  0  0  0  0  0  0  0  0  0  0
    4.8967    0.3771    0.9626 C   0  0  0  0  0  0  0  0  0  0  0  0
    4.9956    1.6414    1.7783 C   0  0  0  0  0  0  0  0  0  0  0  0
    6.0922   -0.2939    0.6416 C   0  0  0  0  0  0  0  0  0  0  0  0
    7.6918   -2.7657    0.4423 H   0  0  0  0  0  0  0  0  0  0  0  0
    8.1651   -1.4545   -0.6654 H   0  0  0  0  0  0  0  0  0  0  0  0
    7.2728   -2.8470   -1.2834 H   0  0  0  0  0  0  0  0  0  0  0  0
    4.8455   -2.9028   -1.1253 H   0  0  0  0  0  0  0  0  0  0  0  0
    2.7645   -1.7959   -0.5873 H   0  0  0  0  0  0  0  0  0  0  0  0
    2.5899    1.2948    1.5056 H   0  0  0  0  0  0  0  0  0  0  0  0
    0.1058    0.8164    2.2117 H   0  0  0  0  0  0  0  0  0  0  0  0
    0.3535    2.1304    1.0275 H   0  0  0  0  0  0  0  0  0  0  0  0
   -2.1494   -0.2182    2.1702 H   0  0  0  0  0  0  0  0  0  0  0  0
   -4.2433   -1.3921    2.4641 H   0  0  0  0  0  0  0  0  0  0  0  0
   -6.4814   -2.2877    2.9090 H   0  0  0  0  0  0  0  0  0  0  0  0
   -8.3493   -1.8388    1.3451 H   0  0  0  0  0  0  0  0  0  0  0  0
   -7.9645   -0.4827   -0.6945 H   0  0  0  0  0  0  0  0  0  0  0  0
   -5.7408    0.4307   -1.1806 H   0  0  0  0  0  0  0  0  0  0  0  0
   -0.9620    2.8795   -1.6260 H   0  0  0  0  0  0  0  0  0  0  0  0
   -0.0491    1.3764   -2.0521 H   0  0  0  0  0  0  0  0  0  0  0  0
   -2.2265    2.3182   -3.6352 H   0  0  0  0  0  0  0  0  0  0  0  0
   -1.7469    0.6144   -3.5029 H   0  0  0  0  0  0  0  0  0  0  0  0
   -3.8680    0.2616   -2.5910 H   0  0  0  0  0  0  0  0  0  0  0  0
   -4.0445    1.9867   -2.0875 H   0  0  0  0  0  0  0  0  0  0  0  0
    4.5643    1.4853    2.7750 H   0  0  0  0  0  0  0  0  0  0  0  0
    6.0371    1.9606    1.9090 H   0  0  0  0  0  0  0  0  0  0  0  0
    4.4749    2.4633    1.2726 H   0  0  0  0  0  0  0  0  0  0  0  0
    7.0421    0.1017    0.9909 H   0  0  0  0  0  0  0  0  0  0  0  0
  1  2  1  0
  2  3  2  0
  3  4  1  0
  4  5  2  0
  5  6  1  0
  6  7  1  0
  7  8  2  0
  7  9  1  0
  9 10  1  0
 10 11  1  0
 11 12  2  0
 12 13  1  0
 13 14  2  0
 14 15  1  0
 15 16  2  0
 16 17  1  0
 17 18  2  0
 12 19  1  0
 19 20  1  0
 20 21  1  0
 21 22  1  0
 22 23  1  0
  5 24  1  0
 24 25  1  0
 24 26  2  0
 26  2  1  0
 20 10  2  0
 18 13  1  0
 23 19  1  0
  1 27  1  0
  1 28  1  0
  1 29  1  0
  3 30  1  0
  4 31  1  0
  6 32  1  0
  9 33  1  0
  9 34  1  0
 11 35  1  0
 14 36  1  0
 15 37  1  0
 16 38  1  0
 17 39  1  0
 18 40  1  0
 21 41  1  0
 21 42  1  0
 22 43  1  0
 22 44  1  0
 23 45  1  0
 23 46  1  0
 25 47  1  0
 25 48  1  0
 25 49  1  0
 26 50  1  0
M  CHG  1  10   1
M  END
$$$$
