
     RDKit          3D

 46 48  0  0  0  0  0  0  0  0999 V2000
    2.6152    1.5260    0.2135 C   0  0  0  0  0  0  0  0  0  0  0  0
    2.6438    0.9333   -1.1855 C   0  0  0  0  0  0  0  0  0  0  0  0
    1.6702    1.5999   -2.1741 N   0  0  0  0  0  4  0  0  0  0  0  0
    1.7580    0.8472   -3.5068 C   0  0  0  0  0  0  0  0  0  0  0  0
    2.1402    3.0411   -2.4457 C   0  0  0  0  0  0  0  0  0  0  0  0
    0.2016    1.6805   -1.6911 C   0  0  0  0  0  0  0  0  0  0  0  0
   -0.5864    0.3609   -1.6129 C   0  0  0  0  0  0  0  0  0  0  0  0
   -0.1873   -0.6158   -0.5384 C   0  0  0  0  0  0  0  0  0  0  0  0
   -0.8103   -0.8897    0.6320 C   0  0  0  0  0  0  0  0  0  0  0  0
   -2.0581   -0.2087    1.0632 C   0  0  0  0  0  0  0  0  0  0  0  0
   -2.1509    1.1854    1.1789 C   0  0  0  0  0  0  0  0  0  0  0  0
   -3.3436    1.7845    1.5899 C   0  0  0  0  0  0  0  0  0  0  0  0
   -4.4470    0.9966    1.9090 C   0  0  0  0  0  0  0  0  0  0  0  0
   -4.3536   -0.3936    1.8449 C   0  0  0  0  0  0  0  0  0  0  0  0
   -3.1588   -1.0029    1.4440 C   0  0  0  0  0  0  0  0  0  0  0  0
   -3.0664   -2.7947    1.4687 S   0  0  0  0  0  0  0  0  0  0  0  0
   -1.3196   -3.0319    1.8009 C   0  0  0  0  0  0  0  0  0  0  0  0
   -0.9188   -4.1821    2.4921 C   0  0  0  0  0  0  0  0  0  0  0  0
    0.4309   -4.3953    2.7817 C   0  0  0  0  0  0  0  0  0  0  0  0
    1.3794   -3.4564    2.3848 C   0  0  0  0  0  0  0  0  0  0  0  0
    3.0419   -3.7082    2.7472 Cl  0  0  0  0  0  0  0  0  0  0  0  0
    0.9967   -2.3089    1.6908 C   0  0  0  0  0  0  0  0  0  0  0  0
   -0.3535   -2.0963    1.3767 C   0  0  0  0  0  0  0  0  0  0  0  0
    3.3628    1.0216    0.8354 H   0  0  0  0  0  0  0  0  0  0  0  0
    2.8599    2.5913    0.2167 H   0  0  0  0  0  0  0  0  0  0  0  0
    1.6489    1.3882    0.7046 H   0  0  0  0  0  0  0  0  0  0  0  0
    3.6489    1.0398   -1.6117 H   0  0  0  0  0  0  0  0  0  0  0  0
    2.4199   -0.1348   -1.1597 H   0  0  0  0  0  0  0  0  0  0  0  0
    2.7726    0.9612   -3.9011 H   0  0  0  0  0  0  0  0  0  0  0  0
    1.5487   -0.2108   -3.3297 H   0  0  0  0  0  0  0  0  0  0  0  0
    1.0285    1.2791   -4.1981 H   0  0  0  0  0  0  0  0  0  0  0  0
    1.9879    3.6374   -1.5427 H   0  0  0  0  0  0  0  0  0  0  0  0
    1.5425    3.4494   -3.2667 H   0  0  0  0  0  0  0  0  0  0  0  0
    3.1980    3.0175   -2.7235 H   0  0  0  0  0  0  0  0  0  0  0  0
    0.2011    2.2115   -0.7351 H   0  0  0  0  0  0  0  0  0  0  0  0
   -0.3104    2.3274   -2.4153 H   0  0  0  0  0  0  0  0  0  0  0  0
   -1.6454    0.6208   -1.4975 H   0  0  0  0  0  0  0  0  0  0  0  0
   -0.5505   -0.1608   -2.5761 H   0  0  0  0  0  0  0  0  0  0  0  0
    0.6294   -1.2723   -0.8369 H   0  0  0  0  0  0  0  0  0  0  0  0
   -1.2935    1.8185    0.9821 H   0  0  0  0  0  0  0  0  0  0  0  0
   -3.4121    2.8664    1.6789 H   0  0  0  0  0  0  0  0  0  0  0  0
   -5.3752    1.4619    2.2342 H   0  0  0  0  0  0  0  0  0  0  0  0
   -5.2134   -0.9969    2.1296 H   0  0  0  0  0  0  0  0  0  0  0  0
   -1.6539   -4.9163    2.8166 H   0  0  0  0  0  0  0  0  0  0  0  0
    0.7305   -5.2898    3.3229 H   0  0  0  0  0  0  0  0  0  0  0  0
    1.7512   -1.5815    1.4093 H   0  0  0  0  0  0  0  0  0  0  0  0
  1  2  1  0
  2  3  1  0
  3  4  1  0
  3  5  1  0
  3  6  1  0
  6  7  1  0
  7  8  1  0
  8  9  2  3
  9 10  1  0
 10 11  2  0
 11 12  1  0
 12 13  2  0
 13 14  1  0
 14 15  2  0
 15 16  1  0
 16 17  1  0
 17 18  2  0
 18 19  1  0
 19 20  2  0
 20 21  1  0
 20 22  1  0
 22 23  2  0
 23  9  1  0
 15 10  1  0
 23 17  1  0
  1 24  1  0
  1 25  1  0
  1 26  1  0
  2 27  1  0
  2 28  1  0
  4 29  1  0
  4 30  1  0
  4 31  1  0
  5 32  1  0
  5 33  1  0
  5 34  1  0
  6 35  1  0
  6 36  1  0
  7 37  1  0
  7 38  1  0
  8 39  1  0
 11 40  1  0
 12 41  1  0
 13 42  1  0
 14 43  1  0
 18 44  1  0
 19 45  1  0
 22 46  1  0
M  CHG  1   3   1
M  END
$$$$
