
     RDKit          3D

 50 53  0  0  0  0  0  0  0  0999 V2000
   -6.6863   -2.2804    4.8350 C   0  0  0  0  0  0  0  0  0  0  0  0
   -5.6499   -1.8393    3.8448 C   0  0  0  0  0  0  0  0  0  0  0  0
   -6.0132   -1.4680    2.5457 C   0  0  0  0  0  0  0  0  0  0  0  0
   -5.0490   -1.0327    1.6280 C   0  0  0  0  0  0  0  0  0  0  0  0
   -3.7016   -0.9624    1.9986 C   0  0  0  0  0  0  0  0  0  0  0  0
   -2.6819   -0.5282    1.0960 N   0  0  0  0  0  0  0  0  0  0  0  0
   -1.5058   -0.0785    1.6109 N   0  0  0  0  0  0  0  0  0  0  0  0
   -0.8353    0.4178    0.5691 C   0  0  0  0  0  0  0  0  0  0  0  0
    0.4675    1.0697    0.6067 C   0  0  0  0  0  0  0  0  0  0  0  0
    1.0999    1.2839    1.6388 O   0  0  0  0  0  0  0  0  0  0  0  0
    0.9201    1.4490   -0.6721 N   0  0  0  0  0  0  0  0  0  0  0  0
    2.2523    2.0157   -0.7892 C   0  0  0  0  0  0  0  0  0  0  0  0
    3.3156    0.9161   -0.8343 C   0  0  0  0  0  0  0  0  0  0  0  0
    3.0895   -0.2777   -0.6508 O   0  0  0  0  0  0  0  0  0  0  0  0
    4.5873    1.3930   -1.0991 N   0  0  0  0  0  0  0  0  0  0  0  0
    5.7187    0.4971   -1.0479 C   0  0  0  0  0  0  0  0  0  0  0  0
    6.8692    1.1454   -1.7457 C   0  0  0  0  0  0  0  0  0  0  0  0
    7.1916    1.0864   -3.0877 C   0  0  0  0  0  0  0  0  0  0  0  0
    8.3736    1.8193   -3.3929 C   0  0  0  0  0  0  0  0  0  0  0  0
    8.9182    2.4090   -2.2751 C   0  0  0  0  0  0  0  0  0  0  0  0
    7.9946    2.0978   -0.8702 S   0  0  0  0  0  0  0  0  0  0  0  0
    0.2174    1.2669   -1.8689 N   0  0  0  0  0  0  0  0  0  0  0  0
   -0.9508    0.6879   -1.8763 C   0  0  0  0  0  0  0  0  0  0  0  0
   -1.6570    0.5275   -3.1925 C   0  0  0  0  0  0  0  0  0  0  0  0
   -1.5214    0.2251   -0.6347 C   0  0  0  0  0  0  0  0  0  0  0  0
   -2.6704   -0.4737   -0.3030 C   0  0  0  0  0  0  0  0  0  0  0  0
   -3.6751   -1.1265   -1.1826 C   0  0  0  0  0  0  0  0  0  0  0  0
   -3.3458   -1.2911    3.3179 C   0  0  0  0  0  0  0  0  0  0  0  0
   -4.3109   -1.7299    4.2292 C   0  0  0  0  0  0  0  0  0  0  0  0
   -6.2938   -3.0753    5.4778 H   0  0  0  0  0  0  0  0  0  0  0  0
   -6.9922   -1.4371    5.4607 H   0  0  0  0  0  0  0  0  0  0  0  0
   -7.5693   -2.6806    4.3269 H   0  0  0  0  0  0  0  0  0  0  0  0
   -7.0571   -1.5042    2.2398 H   0  0  0  0  0  0  0  0  0  0  0  0
   -5.4001   -0.7103    0.6547 H   0  0  0  0  0  0  0  0  0  0  0  0
    2.4554    2.6653    0.0674 H   0  0  0  0  0  0  0  0  0  0  0  0
    2.3086    2.6107   -1.7068 H   0  0  0  0  0  0  0  0  0  0  0  0
    4.7702    2.3827   -1.0138 H   0  0  0  0  0  0  0  0  0  0  0  0
    5.4565   -0.4504   -1.5362 H   0  0  0  0  0  0  0  0  0  0  0  0
    5.9373    0.2800    0.0024 H   0  0  0  0  0  0  0  0  0  0  0  0
    6.6022    0.5432   -3.8161 H   0  0  0  0  0  0  0  0  0  0  0  0
    8.8058    1.9054   -4.3818 H   0  0  0  0  0  0  0  0  0  0  0  0
    9.8106    3.0147   -2.2153 H   0  0  0  0  0  0  0  0  0  0  0  0
   -2.7000    0.8411   -3.1051 H   0  0  0  0  0  0  0  0  0  0  0  0
   -1.6103   -0.5188   -3.5055 H   0  0  0  0  0  0  0  0  0  0  0  0
   -1.1746    1.1422   -3.9597 H   0  0  0  0  0  0  0  0  0  0  0  0
   -4.0930   -2.0304   -0.7293 H   0  0  0  0  0  0  0  0  0  0  0  0
   -3.2175   -1.4552   -2.1195 H   0  0  0  0  0  0  0  0  0  0  0  0
   -4.4835   -0.4325   -1.4302 H   0  0  0  0  0  0  0  0  0  0  0  0
   -2.3096   -1.2258    3.6504 H   0  0  0  0  0  0  0  0  0  0  0  0
   -4.0068   -1.9840    5.2417 H   0  0  0  0  0  0  0  0  0  0  0  0
  1  2  1  0
  2  3  2  0
  3  4  1  0
  4  5  2  0
  5  6  1  0
  6  7  1  0
  7  8  2  0
  8  9  1  0
  9 10  2  0
  9 11  1  0
 11 12  1  0
 12 13  1  0
 13 14  2  0
 13 15  1  0
 15 16  1  0
 16 17  1  0
 17 18  2  0
 18 19  1  0
 19 20  2  0
 20 21  1  0
 11 22  1  0
 22 23  2  0
 23 24  1  0
 23 25  1  0
 25 26  2  0
 26 27  1  0
  5 28  1  0
 28 29  2  0
 29  2  1  0
 26  6  1  0
 25  8  1  0
 21 17  1  0
  1 30  1  0
  1 31  1  0
  1 32  1  0
  3 33  1  0
  4 34  1  0
 12 35  1  0
 12 36  1  0
 15 37  1  0
 16 38  1  0
 16 39  1  0
 18 40  1  0
 19 41  1  0
 20 42  1  0
 24 43  1  0
 24 44  1  0
 24 45  1  0
 27 46  1  0
 27 47  1  0
 27 48  1  0
 28 49  1  0
 29 50  1  0
M  END
$$$$
