
     RDKit          3D

 64 67  0  0  0  0  0  0  0  0999 V2000
    3.9487   -5.3799   -4.7512 C   0  0  0  0  0  0  0  0  0  0  0  0
    3.8299   -4.0483   -5.2374 O   0  0  0  0  0  0  0  0  0  0  0  0
    3.5990   -3.0709   -4.3110 C   0  0  0  0  0  0  0  0  0  0  0  0
    3.4544   -3.2542   -2.9370 C   0  0  0  0  0  0  0  0  0  0  0  0
    3.2357   -2.1553   -2.0931 C   0  0  0  0  0  0  0  0  0  0  0  0
    3.1483   -0.8640   -2.6113 C   0  0  0  0  0  0  0  0  0  0  0  0
    2.9510    0.2925   -1.8296 N   0  0  0  0  0  0  0  0  0  0  0  0
    2.8811    0.3740   -0.4458 C   0  0  0  0  0  0  0  0  0  0  0  0
    2.9323   -0.5687    0.3379 O   0  0  0  0  0  0  0  0  0  0  0  0
    2.6831    1.8226    0.0345 C   0  0  0  0  0  0  0  0  0  0  0  0
    3.0148    2.0244    1.4488 N   0  0  0  0  0  0  0  0  0  0  0  0
    4.4085    2.3016    1.7527 C   0  0  0  0  0  0  0  0  0  0  0  0
    2.1222    1.8834    2.5003 C   0  0  0  0  0  0  0  0  0  0  0  0
    2.3914    2.1794    3.6623 O   0  0  0  0  0  0  0  0  0  0  0  0
    0.7779    1.3536    2.1658 C   0  0  0  0  0  0  0  0  0  0  0  0
   -0.2870    1.6902    2.9087 C   0  0  0  0  0  0  0  0  0  0  0  0
   -1.6171    1.2281    2.6801 C   0  0  0  0  0  0  0  0  0  0  0  0
   -2.5487    1.0552    3.6767 C   0  0  0  0  0  0  0  0  0  0  0  0
   -3.6936    0.5767    3.0803 N   0  0  0  0  0  0  0  0  0  0  0  0
   -4.9251    0.2302    3.7055 C   0  0  0  0  0  0  0  0  0  0  0  0
   -5.0882    0.3203    5.0951 C   0  0  0  0  0  0  0  0  0  0  0  0
   -6.3101   -0.0260    5.6817 C   0  0  0  0  0  0  0  0  0  0  0  0
   -7.3722   -0.4590    4.8895 C   0  0  0  0  0  0  0  0  0  0  0  0
   -7.2172   -0.5502    3.5082 C   0  0  0  0  0  0  0  0  0  0  0  0
   -5.9987   -0.2101    2.9163 C   0  0  0  0  0  0  0  0  0  0  0  0
   -3.5393    0.4558    1.7374 N   0  0  0  0  0  0  0  0  0  0  0  0
   -2.2889    0.8634    1.4824 C   0  0  0  0  0  0  0  0  0  0  0  0
   -1.7949    0.9078    0.1122 C   0  0  0  0  0  0  0  0  0  0  0  0
   -1.5451   -0.2785   -0.5840 C   0  0  0  0  0  0  0  0  0  0  0  0
   -1.0423   -0.2355   -1.8872 C   0  0  0  0  0  0  0  0  0  0  0  0
   -0.7896    0.9924   -2.5125 C   0  0  0  0  0  0  0  0  0  0  0  0
   -0.3124    1.0333   -3.9338 C   0  0  0  0  0  0  0  0  0  0  0  0
   -1.0619    2.1786   -1.8199 C   0  0  0  0  0  0  0  0  0  0  0  0
   -1.5539    2.1374   -0.5122 C   0  0  0  0  0  0  0  0  0  0  0  0
    3.2782   -0.6867   -3.9931 C   0  0  0  0  0  0  0  0  0  0  0  0
    3.5015   -1.7821   -4.8332 C   0  0  0  0  0  0  0  0  0  0  0  0
    4.7818   -5.4733   -4.0456 H   0  0  0  0  0  0  0  0  0  0  0  0
    3.0091   -5.7170   -4.3007 H   0  0  0  0  0  0  0  0  0  0  0  0
    4.1591   -6.0288   -5.6061 H   0  0  0  0  0  0  0  0  0  0  0  0
    3.5152   -4.2362   -2.4802 H   0  0  0  0  0  0  0  0  0  0  0  0
    3.1247   -2.3518   -1.0301 H   0  0  0  0  0  0  0  0  0  0  0  0
    2.8741    1.1603   -2.3452 H   0  0  0  0  0  0  0  0  0  0  0  0
    1.6417    2.1037   -0.1499 H   0  0  0  0  0  0  0  0  0  0  0  0
    3.3133    2.4951   -0.5597 H   0  0  0  0  0  0  0  0  0  0  0  0
    4.5914    2.3961    2.8268 H   0  0  0  0  0  0  0  0  0  0  0  0
    5.0254    1.4861    1.3641 H   0  0  0  0  0  0  0  0  0  0  0  0
    4.6929    3.2385    1.2647 H   0  0  0  0  0  0  0  0  0  0  0  0
    0.7042    0.6472    1.3522 H   0  0  0  0  0  0  0  0  0  0  0  0
   -0.1334    2.3443    3.7673 H   0  0  0  0  0  0  0  0  0  0  0  0
   -2.4784    1.2158    4.7415 H   0  0  0  0  0  0  0  0  0  0  0  0
   -4.2895    0.6482    5.7510 H   0  0  0  0  0  0  0  0  0  0  0  0
   -6.4330    0.0414    6.7595 H   0  0  0  0  0  0  0  0  0  0  0  0
   -8.3213   -0.7250    5.3479 H   0  0  0  0  0  0  0  0  0  0  0  0
   -8.0444   -0.8848    2.8872 H   0  0  0  0  0  0  0  0  0  0  0  0
   -5.9016   -0.2918    1.8351 H   0  0  0  0  0  0  0  0  0  0  0  0
   -1.7440   -1.2403   -0.1158 H   0  0  0  0  0  0  0  0  0  0  0  0
   -0.8598   -1.1711   -2.4133 H   0  0  0  0  0  0  0  0  0  0  0  0
    0.2760    0.1427   -4.1731 H   0  0  0  0  0  0  0  0  0  0  0  0
    0.3308    1.9033   -4.1048 H   0  0  0  0  0  0  0  0  0  0  0  0
   -1.1662    1.0809   -4.6151 H   0  0  0  0  0  0  0  0  0  0  0  0
   -0.9072    3.1439   -2.2974 H   0  0  0  0  0  0  0  0  0  0  0  0
   -1.7654    3.0678    0.0109 H   0  0  0  0  0  0  0  0  0  0  0  0
    3.2172    0.3016   -4.4404 H   0  0  0  0  0  0  0  0  0  0  0  0
    3.6154   -1.6285   -5.9044 H   0  0  0  0  0  0  0  0  0  0  0  0
  1  2  1  0
  2  3  1  0
  3  4  2  0
  4  5  1  0
  5  6  2  0
  6  7  1  0
  7  8  1  0
  8  9  2  0
  8 10  1  0
 10 11  1  0
 11 12  1  0
 11 13  1  0
 13 14  2  0
 13 15  1  0
 15 16  2  3
 16 17  1  0
 17 18  2  0
 18 19  1  0
 19 20  1  0
 20 21  2  0
 21 22  1  0
 22 23  2  0
 23 24  1  0
 24 25  2  0
 19 26  1  0
 26 27  2  0
 27 28  1  0
 28 29  2  0
 29 30  1  0
 30 31  2  0
 31 32  1  0
 31 33  1  0
 33 34  2  0
  6 35  1  0
 35 36  2  0
 36  3  1  0
 27 17  1  0
 34 28  1  0
 25 20  1  0
  1 37  1  0
  1 38  1  0
  1 39  1  0
  4 40  1  0
  5 41  1  0
  7 42  1  0
 10 43  1  0
 10 44  1  0
 12 45  1  0
 12 46  1  0
 12 47  1  0
 15 48  1  0
 16 49  1  0
 18 50  1  0
 21 51  1  0
 22 52  1  0
 23 53  1  0
 24 54  1  0
 25 55  1  0
 29 56  1  0
 30 57  1  0
 32 58  1  0
 32 59  1  0
 32 60  1  0
 33 61  1  0
 34 62  1  0
 35 63  1  0
 36 64  1  0
M  END
$$$$
