
     RDKit          3D

 34 36  0  0  0  0  0  0  0  0999 V2000
    0.1112    0.8337    2.1647 O   0  0  0  0  0  0  0  0  0  0  0  0
    0.4435    0.4371    1.0565 C   0  0  0  0  0  0  0  0  0  0  0  0
    1.8615    0.1206    0.8107 C   0  0  0  0  0  0  0  0  0  0  0  0
    2.6240    0.9214   -0.0461 C   0  0  0  0  0  0  0  0  0  0  0  0
    3.9703    0.6148   -0.2544 C   0  0  0  0  0  0  0  0  0  0  0  0
    4.5430   -0.4767    0.4020 C   0  0  0  0  0  0  0  0  0  0  0  0
    6.2012   -0.8527    0.1401 Cl  0  0  0  0  0  0  0  0  0  0  0  0
    3.7848   -1.2622    1.2722 C   0  0  0  0  0  0  0  0  0  0  0  0
    2.4384   -0.9597    1.4844 C   0  0  0  0  0  0  0  0  0  0  0  0
   -0.4493    0.2573    0.0323 N   0  0  0  0  0  0  0  0  0  0  0  0
   -0.2166   -0.3635   -1.2793 C   0  0  0  0  0  0  0  0  0  0  0  0
   -0.8210   -1.7426   -1.1905 C   0  0  0  0  0  0  0  0  0  0  0  0
   -2.1582   -1.6038   -1.1776 C   0  0  0  0  0  0  0  0  0  0  0  0
   -2.4361   -0.1079   -1.1678 C   0  0  0  0  0  0  0  0  0  0  0  0
   -1.3016    0.2929   -2.1319 C   0  0  0  0  0  0  0  0  0  0  0  0
   -1.9429    0.5085    0.1979 C   0  0  0  0  0  0  0  0  0  0  0  0
   -2.3462    1.9765    0.3071 C   0  0  0  0  0  0  0  0  0  0  0  0
   -3.6864    2.1266    0.1748 F   0  0  0  0  0  0  0  0  0  0  0  0
   -1.7897    2.7224   -0.6810 F   0  0  0  0  0  0  0  0  0  0  0  0
   -1.9898    2.5657    1.4637 F   0  0  0  0  0  0  0  0  0  0  0  0
   -2.6358   -0.1650    1.3868 C   0  0  0  0  0  0  0  0  0  0  0  0
   -2.2223   -1.4436    1.5705 F   0  0  0  0  0  0  0  0  0  0  0  0
   -2.4717    0.4652    2.5652 F   0  0  0  0  0  0  0  0  0  0  0  0
   -3.9768   -0.2324    1.1723 F   0  0  0  0  0  0  0  0  0  0  0  0
    2.1800    1.7832   -0.5379 H   0  0  0  0  0  0  0  0  0  0  0  0
    4.5695    1.2327   -0.9185 H   0  0  0  0  0  0  0  0  0  0  0  0
    4.2375   -2.1026    1.7925 H   0  0  0  0  0  0  0  0  0  0  0  0
    1.8452   -1.5567    2.1736 H   0  0  0  0  0  0  0  0  0  0  0  0
    0.7972   -0.3187   -1.6730 H   0  0  0  0  0  0  0  0  0  0  0  0
   -0.2680   -2.6686   -1.1386 H   0  0  0  0  0  0  0  0  0  0  0  0
   -2.8910   -2.3933   -1.0901 H   0  0  0  0  0  0  0  0  0  0  0  0
   -3.4387    0.1685   -1.4985 H   0  0  0  0  0  0  0  0  0  0  0  0
   -1.4004   -0.1471   -3.1337 H   0  0  0  0  0  0  0  0  0  0  0  0
   -1.1648    1.3698   -2.2483 H   0  0  0  0  0  0  0  0  0  0  0  0
  1  2  2  0
  2  3  1  0
  3  4  2  0
  4  5  1  0
  5  6  2  0
  6  7  1  0
  6  8  1  0
  8  9  2  0
  2 10  1  0
 10 11  1  0
 11 12  1  0
 12 13  2  0
 13 14  1  0
 14 15  1  0
 14 16  1  0
 16 17  1  0
 17 18  1  0
 17 19  1  0
 17 20  1  0
 16 21  1  0
 21 22  1  0
 21 23  1  0
 21 24  1  0
  9  3  1  0
 16 10  1  0
 15 11  1  0
  4 25  1  0
  5 26  1  0
  8 27  1  0
  9 28  1  0
 11 29  1  0
 12 30  1  0
 13 31  1  0
 14 32  1  0
 15 33  1  0
 15 34  1  0
M  END
$$$$
