
     RDKit          3D

 39 42  0  0  0  0  0  0  0  0999 V2000
   -4.7270    2.5221    0.4574 O   0  0  0  0  0  0  0  0  0  0  0  0
   -5.6801    1.8682    0.8465 C   0  0  0  0  0  0  0  0  0  0  0  0
   -6.0318    1.8428    2.1435 O   0  0  0  0  0  0  0  0  0  0  0  0
   -6.5444    0.9935   -0.0081 C   0  0  0  0  0  0  0  0  0  0  0  0
   -6.0618   -0.4516    0.0281 C   0  0  0  0  0  0  0  0  0  0  0  0
   -4.7571   -0.6418   -0.6173 N   0  0  0  0  0  0  0  0  0  0  0  0
   -3.6147   -0.6188    0.1670 C   0  0  0  0  0  0  0  0  0  0  0  0
   -3.5904   -0.4877    1.3839 O   0  0  0  0  0  0  0  0  0  0  0  0
   -2.3962   -0.7874   -0.6735 C   0  0  0  0  0  0  0  0  0  0  0  0
   -1.1846   -0.7658   -0.1040 C   0  0  0  0  0  0  0  0  0  0  0  0
    0.0809   -0.9009   -0.7424 C   0  0  0  0  0  0  0  0  0  0  0  0
    0.4785   -1.4011   -1.9742 C   0  0  0  0  0  0  0  0  0  0  0  0
    1.8887   -1.2899   -2.0610 C   0  0  0  0  0  0  0  0  0  0  0  0
    2.3288   -0.7362   -0.8735 C   0  0  0  0  0  0  0  0  0  0  0  0
    3.6635   -0.4138   -0.4363 C   0  0  0  0  0  0  0  0  0  0  0  0
    3.9018    0.0995    0.7519 N   0  0  0  0  0  0  0  0  0  0  0  0
    5.2588    0.3133    0.9164 C   0  0  0  0  0  0  0  0  0  0  0  0
    5.8779    0.8513    2.0628 C   0  0  0  0  0  0  0  0  0  0  0  0
    7.2669    1.0130    2.0928 C   0  0  0  0  0  0  0  0  0  0  0  0
    8.0425    0.6461    0.9975 C   0  0  0  0  0  0  0  0  0  0  0  0
    7.4526    0.1101   -0.1516 C   0  0  0  0  0  0  0  0  0  0  0  0
    6.0567   -0.0477   -0.1702 C   0  0  0  0  0  0  0  0  0  0  0  0
    5.0492   -0.6693   -1.4186 S   0  0  0  0  0  0  0  0  0  0  0  0
    1.2293   -0.5161   -0.0854 O   0  0  0  0  0  0  0  0  0  0  0  0
   -2.8495   -0.9572   -2.3182 S   0  0  0  0  0  0  0  0  0  0  0  0
   -4.5660   -0.8077   -1.9726 C   0  0  0  0  0  0  0  0  0  0  0  0
   -5.7208   -0.8794   -3.1744 S   0  0  0  0  0  0  0  0  0  0  0  0
   -5.3406    2.3745    2.5937 H   0  0  0  0  0  0  0  0  0  0  0  0
   -7.5764    1.0622    0.3547 H   0  0  0  0  0  0  0  0  0  0  0  0
   -6.5434    1.4032   -1.0236 H   0  0  0  0  0  0  0  0  0  0  0  0
   -6.0007   -0.8004    1.0660 H   0  0  0  0  0  0  0  0  0  0  0  0
   -6.7975   -1.0890   -0.4738 H   0  0  0  0  0  0  0  0  0  0  0  0
   -1.1251   -0.5992    0.9714 H   0  0  0  0  0  0  0  0  0  0  0  0
   -0.1624   -1.8158   -2.7384 H   0  0  0  0  0  0  0  0  0  0  0  0
    2.5057   -1.5896   -2.8968 H   0  0  0  0  0  0  0  0  0  0  0  0
    5.2678    1.1361    2.9144 H   0  0  0  0  0  0  0  0  0  0  0  0
    7.7399    1.4287    2.9795 H   0  0  0  0  0  0  0  0  0  0  0  0
    9.1221    0.7774    1.0340 H   0  0  0  0  0  0  0  0  0  0  0  0
    8.0593   -0.1756   -1.0055 H   0  0  0  0  0  0  0  0  0  0  0  0
  1  2  2  0
  2  3  1  0
  2  4  1  0
  4  5  1  0
  5  6  1  0
  6  7  1  0
  7  8  2  0
  7  9  1  0
  9 10  2  3
 10 11  1  0
 11 12  2  0
 12 13  1  0
 13 14  2  0
 14 15  1  0
 15 16  2  0
 16 17  1  0
 17 18  2  0
 18 19  1  0
 19 20  2  0
 20 21  1  0
 21 22  2  0
 22 23  1  0
 14 24  1  0
  9 25  1  0
 25 26  1  0
 26 27  2  0
 26  6  1  0
 24 11  1  0
 23 15  1  0
 22 17  1  0
  3 28  1  0
  4 29  1  0
  4 30  1  0
  5 31  1  0
  5 32  1  0
 10 33  1  0
 12 34  1  0
 13 35  1  0
 18 36  1  0
 19 37  1  0
 20 38  1  0
 21 39  1  0
M  END
$$$$
