
     RDKit          3D

 44 46  0  0  0  0  0  0  0  0999 V2000
   -5.5001   -0.6191   -3.7188 C   0  0  0  0  0  0  0  0  0  0  0  0
   -4.7936   -0.9434   -2.4340 C   0  0  0  0  0  0  0  0  0  0  0  0
   -4.5603    0.0576   -1.4795 C   0  0  0  0  0  0  0  0  0  0  0  0
   -3.8821   -0.2350   -0.2949 C   0  0  0  0  0  0  0  0  0  0  0  0
   -3.4188   -1.5327   -0.0737 C   0  0  0  0  0  0  0  0  0  0  0  0
   -2.5659   -1.9293    1.4293 S   0  0  0  0  0  6  0  0  0  0  0  0
   -2.6545   -0.8076    2.3368 O   0  0  0  0  0  0  0  0  0  0  0  0
   -3.0014   -3.2499    1.8318 O   0  0  0  0  0  0  0  0  0  0  0  0
   -0.9644   -2.1123    0.9099 N   0  0  0  0  0  0  0  0  0  0  0  0
   -0.1464   -0.9507    0.8475 C   0  0  0  0  0  0  0  0  0  0  0  0
   -0.2349   -0.0875   -0.2425 C   0  0  0  0  0  0  0  0  0  0  0  0
    0.5384    1.0809   -0.2825 C   0  0  0  0  0  0  0  0  0  0  0  0
    0.4490    2.0050   -1.4657 C   0  0  0  0  0  0  0  0  0  0  0  0
    1.4085    1.3582    0.7834 C   0  0  0  0  0  0  0  0  0  0  0  0
    2.1574    2.5010    0.6846 O   0  0  0  0  0  0  0  0  0  0  0  0
    1.4927    0.5005    1.8935 C   0  0  0  0  0  0  0  0  0  0  0  0
    2.5061    0.8245    3.3269 S   0  0  0  0  0  0  0  0  0  0  0  0
    4.1038    0.7323    2.6512 C   0  0  0  0  0  0  0  0  0  0  0  0
    4.9434   -0.2750    2.9027 N   0  0  0  0  0  0  0  0  0  0  0  0
    6.0185    0.0922    2.1889 N   0  0  0  0  0  0  0  0  0  0  0  0
    5.8081    1.2807    1.5436 C   0  0  0  0  0  0  0  0  0  0  0  0
    6.8289    1.9289    0.6903 C   0  0  0  0  0  0  0  0  0  0  0  0
    4.5884    1.7004    1.8094 N   0  0  0  0  0  0  0  0  0  0  0  0
    0.6973   -0.6527    1.9176 C   0  0  0  0  0  0  0  0  0  0  0  0
   -3.6428   -2.5409   -1.0155 C   0  0  0  0  0  0  0  0  0  0  0  0
   -4.3222   -2.2416   -2.1973 C   0  0  0  0  0  0  0  0  0  0  0  0
   -6.1717   -1.4354   -4.0082 H   0  0  0  0  0  0  0  0  0  0  0  0
   -6.1098    0.2853   -3.6156 H   0  0  0  0  0  0  0  0  0  0  0  0
   -4.7703   -0.4563   -4.5175 H   0  0  0  0  0  0  0  0  0  0  0  0
   -4.9127    1.0731   -1.6520 H   0  0  0  0  0  0  0  0  0  0  0  0
   -3.7160    0.5495    0.4401 H   0  0  0  0  0  0  0  0  0  0  0  0
   -0.5567   -2.9473    1.3303 H   0  0  0  0  0  0  0  0  0  0  0  0
   -0.8950   -0.3243   -1.0735 H   0  0  0  0  0  0  0  0  0  0  0  0
    0.2099    3.0235   -1.1409 H   0  0  0  0  0  0  0  0  0  0  0  0
    1.3967    2.0086   -2.0138 H   0  0  0  0  0  0  0  0  0  0  0  0
   -0.3375    1.6922   -2.1608 H   0  0  0  0  0  0  0  0  0  0  0  0
    2.9428    2.4062    1.2620 H   0  0  0  0  0  0  0  0  0  0  0  0
    6.8418   -0.4985    2.1908 H   0  0  0  0  0  0  0  0  0  0  0  0
    6.8017    1.5117   -0.3220 H   0  0  0  0  0  0  0  0  0  0  0  0
    6.6443    3.0072    0.6210 H   0  0  0  0  0  0  0  0  0  0  0  0
    7.8334    1.7852    1.1009 H   0  0  0  0  0  0  0  0  0  0  0  0
    0.7271   -1.3149    2.7806 H   0  0  0  0  0  0  0  0  0  0  0  0
   -3.2922   -3.5524   -0.8328 H   0  0  0  0  0  0  0  0  0  0  0  0
   -4.4887   -3.0281   -2.9315 H   0  0  0  0  0  0  0  0  0  0  0  0
  1  2  1  0
  2  3  2  0
  3  4  1  0
  4  5  2  0
  5  6  1  0
  6  7  2  0
  6  8  2  0
  6  9  1  0
  9 10  1  0
 10 11  2  0
 11 12  1  0
 12 13  1  0
 12 14  2  0
 14 15  1  0
 14 16  1  0
 16 17  1  0
 17 18  1  0
 18 19  2  0
 19 20  1  0
 20 21  1  0
 21 22  1  0
 21 23  2  0
 16 24  2  0
  5 25  1  0
 25 26  2  0
 26  2  1  0
 24 10  1  0
 23 18  1  0
  1 27  1  0
  1 28  1  0
  1 29  1  0
  3 30  1  0
  4 31  1  0
  9 32  1  0
 11 33  1  0
 13 34  1  0
 13 35  1  0
 13 36  1  0
 15 37  1  0
 20 38  1  0
 22 39  1  0
 22 40  1  0
 22 41  1  0
 24 42  1  0
 25 43  1  0
 26 44  1  0
M  END
$$$$
