
     RDKit          3D

 51 54  0  0  0  0  0  0  0  0999 V2000
    6.4828    1.7927   -2.2964 C   0  0  0  0  0  0  0  0  0  0  0  0
    5.4372    1.0395   -3.1023 C   0  0  0  0  0  0  0  0  0  0  0  0
    4.0591    1.1899   -2.5136 C   0  0  0  0  0  0  0  0  0  0  0  0
    3.2215    2.2335   -2.9145 C   0  0  0  0  0  0  0  0  0  0  0  0
    1.9475    2.3825   -2.3511 C   0  0  0  0  0  0  0  0  0  0  0  0
    1.4715    1.4974   -1.3704 C   0  0  0  0  0  0  0  0  0  0  0  0
    0.1551    1.6535   -0.7801 N   0  0  0  0  0  0  0  0  0  0  0  0
   -0.3252    2.9500   -0.5537 C   0  0  0  0  0  0  0  0  0  0  0  0
    0.2619    3.9983   -0.8251 O   0  0  0  0  0  0  0  0  0  0  0  0
   -1.6273    3.0832    0.1217 C   0  0  0  0  0  0  0  0  0  0  0  0
   -2.1101    4.3664    0.4395 C   0  0  0  0  0  0  0  0  0  0  0  0
   -3.3199    4.5182    1.1101 C   0  0  0  0  0  0  0  0  0  0  0  0
   -4.0431    3.3891    1.4714 C   0  0  0  0  0  0  0  0  0  0  0  0
   -3.5624    2.1143    1.1503 C   0  0  0  0  0  0  0  0  0  0  0  0
   -2.3512    1.9454    0.4578 C   0  0  0  0  0  0  0  0  0  0  0  0
   -1.8458    0.6751    0.0910 N   0  0  0  0  0  0  0  0  0  0  0  0
   -2.6151   -0.5464    0.3387 C   0  0  0  0  0  0  0  0  0  0  0  0
   -2.2656   -1.1511    1.7018 C   0  0  0  0  0  0  0  0  0  0  0  0
   -2.1858   -0.4820    2.7296 O   0  0  0  0  0  0  0  0  0  0  0  0
   -2.1007   -2.5210    1.6883 N   0  0  0  0  0  0  0  0  0  0  0  0
   -1.6370   -3.2023    2.8752 C   0  0  0  0  0  0  0  0  0  0  0  0
   -1.7906   -4.6637    2.6733 C   0  0  0  0  0  0  0  0  0  0  0  0
   -2.4633   -5.6524    3.3630 C   0  0  0  0  0  0  0  0  0  0  0  0
   -2.2185   -6.8616    2.6682 C   0  0  0  0  0  0  0  0  0  0  0  0
   -1.4190   -6.5350    1.5976 C   0  0  0  0  0  0  0  0  0  0  0  0
   -1.1561   -5.2032    1.5895 O   0  0  0  0  0  0  0  0  0  0  0  0
   -0.5872    0.4994   -0.4870 C   0  0  0  0  0  0  0  0  0  0  0  0
   -0.2119   -0.6492   -0.7509 O   0  0  0  0  0  0  0  0  0  0  0  0
    2.3284    0.4573   -0.9734 C   0  0  0  0  0  0  0  0  0  0  0  0
    3.6033    0.3055   -1.5333 C   0  0  0  0  0  0  0  0  0  0  0  0
    7.4725    1.6620   -2.7437 H   0  0  0  0  0  0  0  0  0  0  0  0
    6.2641    2.8639   -2.2641 H   0  0  0  0  0  0  0  0  0  0  0  0
    6.5269    1.4297   -1.2645 H   0  0  0  0  0  0  0  0  0  0  0  0
    5.7031   -0.0238   -3.1485 H   0  0  0  0  0  0  0  0  0  0  0  0
    5.4374    1.3966   -4.1393 H   0  0  0  0  0  0  0  0  0  0  0  0
    3.5493    2.9432   -3.6711 H   0  0  0  0  0  0  0  0  0  0  0  0
    1.3285    3.1961   -2.7227 H   0  0  0  0  0  0  0  0  0  0  0  0
   -1.5355    5.2523    0.1731 H   0  0  0  0  0  0  0  0  0  0  0  0
   -3.6860    5.5106    1.3616 H   0  0  0  0  0  0  0  0  0  0  0  0
   -4.9794    3.4940    2.0155 H   0  0  0  0  0  0  0  0  0  0  0  0
   -4.1555    1.2705    1.4900 H   0  0  0  0  0  0  0  0  0  0  0  0
   -2.4095   -1.2765   -0.4537 H   0  0  0  0  0  0  0  0  0  0  0  0
   -3.6928   -0.3671    0.2850 H   0  0  0  0  0  0  0  0  0  0  0  0
   -1.8312   -2.9537    0.8106 H   0  0  0  0  0  0  0  0  0  0  0  0
   -2.2108   -2.8562    3.7424 H   0  0  0  0  0  0  0  0  0  0  0  0
   -0.5838   -2.9426    3.0312 H   0  0  0  0  0  0  0  0  0  0  0  0
   -3.0532   -5.5151    4.2587 H   0  0  0  0  0  0  0  0  0  0  0  0
   -2.5769   -7.8509    2.9152 H   0  0  0  0  0  0  0  0  0  0  0  0
   -0.9752   -7.1051    0.7928 H   0  0  0  0  0  0  0  0  0  0  0  0
    2.0376   -0.2426   -0.1934 H   0  0  0  0  0  0  0  0  0  0  0  0
    4.2379   -0.5087   -1.1889 H   0  0  0  0  0  0  0  0  0  0  0  0
  1  2  1  0
  2  3  1  0
  3  4  2  0
  4  5  1  0
  5  6  2  0
  6  7  1  0
  7  8  1  0
  8  9  2  0
  8 10  1  0
 10 11  2  0
 11 12  1  0
 12 13  2  0
 13 14  1  0
 14 15  2  0
 15 16  1  0
 16 17  1  0
 17 18  1  0
 18 19  2  0
 18 20  1  0
 20 21  1  0
 21 22  1  0
 22 23  2  0
 23 24  1  0
 24 25  2  0
 25 26  1  0
 16 27  1  0
 27 28  2  0
  6 29  1  0
 29 30  2  0
 30  3  1  0
 27  7  1  0
 15 10  1  0
 26 22  1  0
  1 31  1  0
  1 32  1  0
  1 33  1  0
  2 34  1  0
  2 35  1  0
  4 36  1  0
  5 37  1  0
 11 38  1  0
 12 39  1  0
 13 40  1  0
 14 41  1  0
 17 42  1  0
 17 43  1  0
 20 44  1  0
 21 45  1  0
 21 46  1  0
 23 47  1  0
 24 48  1  0
 25 49  1  0
 29 50  1  0
 30 51  1  0
M  END
$$$$
