
     RDKit          3D

 49 50  0  0  0  0  0  0  0  0999 V2000
    3.9003   -1.4562   -3.6585 C   0  0  0  0  0  0  0  0  0  0  0  0
    3.7958   -2.4582   -2.5237 C   0  0  0  0  0  0  0  0  0  0  0  0
    2.8335   -2.0175   -1.5575 O   0  0  0  0  0  0  0  0  0  0  0  0
    3.2871   -1.1361   -0.6171 C   0  0  0  0  0  0  0  0  0  0  0  0
    4.4447   -0.7337   -0.5703 O   0  0  0  0  0  0  0  0  0  0  0  0
    2.2417   -0.6911    0.3157 C   0  0  0  0  0  0  0  0  0  0  0  0
    2.3126    0.4586    1.1710 C   0  0  0  0  0  0  0  0  0  0  0  0
    3.4621    1.4078    1.2606 C   0  0  0  0  0  0  0  0  0  0  0  0
    1.1346    0.5147    1.9004 C   0  0  0  0  0  0  0  0  0  0  0  0
    0.7521    1.4866    2.9652 C   0  0  0  0  0  0  0  0  0  0  0  0
    0.3033   -0.4967    1.4463 N   0  0  0  0  0  0  0  0  0  0  0  0
   -1.0742   -0.7187    1.9056 C   0  0  0  0  0  0  0  0  0  0  0  0
   -2.0608    0.3032    1.3836 C   0  0  0  0  0  0  0  0  0  0  0  0
   -2.5863    1.2703    2.2597 C   0  0  0  0  0  0  0  0  0  0  0  0
   -3.4967    2.2263    1.8108 C   0  0  0  0  0  0  0  0  0  0  0  0
   -3.8881    2.2398    0.4751 C   0  0  0  0  0  0  0  0  0  0  0  0
   -3.3761    1.2906   -0.4140 C   0  0  0  0  0  0  0  0  0  0  0  0
   -3.7540    1.3015   -1.7321 O   0  0  0  0  0  0  0  0  0  0  0  0
   -3.4701    2.5466   -2.3690 C   0  0  0  0  0  0  0  0  0  0  0  0
   -2.5051    0.2890    0.0478 C   0  0  0  0  0  0  0  0  0  0  0  0
   -2.0017   -0.7042   -0.7530 O   0  0  0  0  0  0  0  0  0  0  0  0
   -2.9821   -1.3867   -1.5312 C   0  0  0  0  0  0  0  0  0  0  0  0
    1.0129   -1.3049    0.5683 C   0  0  0  0  0  0  0  0  0  0  0  0
    0.4876   -2.5875    0.0069 C   0  0  0  0  0  0  0  0  0  0  0  0
    4.2695   -0.4906   -3.2969 H   0  0  0  0  0  0  0  0  0  0  0  0
    2.9151   -1.2780   -4.1035 H   0  0  0  0  0  0  0  0  0  0  0  0
    4.5788   -1.8195   -4.4350 H   0  0  0  0  0  0  0  0  0  0  0  0
    4.7692   -2.6458   -2.0587 H   0  0  0  0  0  0  0  0  0  0  0  0
    3.4384   -3.4167   -2.9140 H   0  0  0  0  0  0  0  0  0  0  0  0
    3.1823    2.3380    1.7618 H   0  0  0  0  0  0  0  0  0  0  0  0
    4.2857    0.9532    1.8179 H   0  0  0  0  0  0  0  0  0  0  0  0
    3.8203    1.6805    0.2634 H   0  0  0  0  0  0  0  0  0  0  0  0
    0.1757    2.3135    2.5395 H   0  0  0  0  0  0  0  0  0  0  0  0
    1.6399    1.9112    3.4452 H   0  0  0  0  0  0  0  0  0  0  0  0
    0.1709    1.0129    3.7605 H   0  0  0  0  0  0  0  0  0  0  0  0
   -1.0449   -0.7222    3.0018 H   0  0  0  0  0  0  0  0  0  0  0  0
   -1.4088   -1.7187    1.6240 H   0  0  0  0  0  0  0  0  0  0  0  0
   -2.2896    1.2838    3.3066 H   0  0  0  0  0  0  0  0  0  0  0  0
   -3.8969    2.9641    2.5022 H   0  0  0  0  0  0  0  0  0  0  0  0
   -4.6026    2.9860    0.1390 H   0  0  0  0  0  0  0  0  0  0  0  0
   -2.4983    2.9576   -2.0640 H   0  0  0  0  0  0  0  0  0  0  0  0
   -3.4360    2.3679   -3.4479 H   0  0  0  0  0  0  0  0  0  0  0  0
   -4.2712    3.2680   -2.1732 H   0  0  0  0  0  0  0  0  0  0  0  0
   -3.0508   -0.9429   -2.5279 H   0  0  0  0  0  0  0  0  0  0  0  0
   -3.9641   -1.4176   -1.0458 H   0  0  0  0  0  0  0  0  0  0  0  0
   -2.6434   -2.4203   -1.6547 H   0  0  0  0  0  0  0  0  0  0  0  0
    0.0807   -2.4266   -0.9963 H   0  0  0  0  0  0  0  0  0  0  0  0
   -0.2827   -3.0514    0.6259 H   0  0  0  0  0  0  0  0  0  0  0  0
    1.2899   -3.3297   -0.0637 H   0  0  0  0  0  0  0  0  0  0  0  0
  1  2  1  0
  2  3  1  0
  3  4  1  0
  4  5  2  0
  4  6  1  0
  6  7  1  0
  7  8  1  0
  7  9  2  0
  9 10  1  0
  9 11  1  0
 11 12  1  0
 12 13  1  0
 13 14  2  0
 14 15  1  0
 15 16  2  0
 16 17  1  0
 17 18  1  0
 18 19  1  0
 17 20  2  0
 20 21  1  0
 21 22  1  0
 11 23  1  0
 23 24  1  0
 23  6  2  0
 20 13  1  0
  1 25  1  0
  1 26  1  0
  1 27  1  0
  2 28  1  0
  2 29  1  0
  8 30  1  0
  8 31  1  0
  8 32  1  0
 10 33  1  0
 10 34  1  0
 10 35  1  0
 12 36  1  0
 12 37  1  0
 14 38  1  0
 15 39  1  0
 16 40  1  0
 19 41  1  0
 19 42  1  0
 19 43  1  0
 22 44  1  0
 22 45  1  0
 22 46  1  0
 24 47  1  0
 24 48  1  0
 24 49  1  0
M  END
$$$$
