
     RDKit          3D

 57 62  0  0  0  0  0  0  0  0999 V2000
    3.6258   -0.7926   -5.7103 C   0  0  0  0  0  0  0  0  0  0  0  0
    2.6472   -0.8490   -4.6778 O   0  0  0  0  0  0  0  0  0  0  0  0
    3.0990   -1.0346   -3.3995 C   0  0  0  0  0  0  0  0  0  0  0  0
    4.4438   -1.2039   -3.0189 C   0  0  0  0  0  0  0  0  0  0  0  0
    4.7940   -1.3858   -1.6755 C   0  0  0  0  0  0  0  0  0  0  0  0
    3.7773   -1.3909   -0.7457 C   0  0  0  0  0  0  0  0  0  0  0  0
    2.4373   -1.2245   -1.1003 C   0  0  0  0  0  0  0  0  0  0  0  0
    2.0873   -1.0477   -2.4311 C   0  0  0  0  0  0  0  0  0  0  0  0
    1.5966   -1.2812    0.1410 C   0  0  0  0  0  0  0  0  0  0  0  0
    0.5483   -2.3513    0.1479 N   0  0  0  0  0  0  0  0  0  0  0  0
   -0.6507   -1.8014    0.9066 C   0  0  2  0  0  0  0  0  0  0  0  0
   -1.9495   -2.4002    0.3386 C   0  0  0  0  0  0  0  0  0  0  0  0
   -3.1583   -2.3054    1.2432 C   0  0  0  0  0  0  0  0  0  0  0  0
   -4.3277   -1.6722    0.8002 C   0  0  0  0  0  0  0  0  0  0  0  0
   -5.4581   -1.6122    1.6182 C   0  0  0  0  0  0  0  0  0  0  0  0
   -5.4354   -2.1901    2.8855 C   0  0  0  0  0  0  0  0  0  0  0  0
   -4.2834   -2.8305    3.3337 C   0  0  0  0  0  0  0  0  0  0  0  0
   -3.1528   -2.8940    2.5157 C   0  0  0  0  0  0  0  0  0  0  0  0
   -0.4687   -0.3376    0.7256 C   0  0  0  0  0  0  0  0  0  0  0  0
    0.8225   -0.0379    0.2827 C   0  0  0  0  0  0  0  0  0  0  0  0
    0.9356    1.3205    0.1245 C   0  0  0  0  0  0  0  0  0  0  0  0
    1.9728    2.0569   -0.2685 O   0  0  0  0  0  0  0  0  0  0  0  0
   -0.2814    1.8850    0.5504 N   0  0  0  0  0  0  0  0  0  0  0  0
   -0.5599    3.2801    0.7053 C   0  0  0  0  0  0  0  0  0  0  0  0
    0.0239    4.2266   -0.1453 C   0  0  0  0  0  0  0  0  0  0  0  0
   -0.2611    5.5852    0.0140 C   0  0  0  0  0  0  0  0  0  0  0  0
   -1.1155    6.0095    1.0300 C   0  0  0  0  0  0  0  0  0  0  0  0
   -1.6858    5.0759    1.8925 C   0  0  0  0  0  0  0  0  0  0  0  0
   -1.4103    3.7160    1.7336 C   0  0  0  0  0  0  0  0  0  0  0  0
   -1.1754    0.8295    0.8249 C   0  0  0  0  0  0  0  0  0  0  0  0
   -2.4713    0.9890    1.0823 O   0  0  0  0  0  0  0  0  0  0  0  0
    2.6561   -1.4992    1.2626 C   0  0  0  0  0  0  0  0  0  0  0  0
    2.4901   -1.6099    2.4680 O   0  0  0  0  0  0  0  0  0  0  0  0
    3.9018   -1.5441    0.6271 N   0  0  0  0  0  0  0  0  0  0  0  0
    3.1029   -0.6368   -6.6598 H   0  0  0  0  0  0  0  0  0  0  0  0
    4.1773   -1.7371   -5.7849 H   0  0  0  0  0  0  0  0  0  0  0  0
    4.3054    0.0546   -5.5623 H   0  0  0  0  0  0  0  0  0  0  0  0
    5.2432   -1.2010   -3.7534 H   0  0  0  0  0  0  0  0  0  0  0  0
    5.8309   -1.5175   -1.3873 H   0  0  0  0  0  0  0  0  0  0  0  0
    1.0500   -0.9112   -2.7245 H   0  0  0  0  0  0  0  0  0  0  0  0
    0.2468   -2.4599   -0.8190 H   0  0  0  0  0  0  0  0  0  0  0  0
   -0.5134   -2.0611    1.9626 H   0  0  0  0  0  0  0  0  0  0  0  0
   -1.8032   -3.4712    0.1421 H   0  0  0  0  0  0  0  0  0  0  0  0
   -2.1739   -1.9476   -0.6359 H   0  0  0  0  0  0  0  0  0  0  0  0
   -4.3633   -1.2106   -0.1839 H   0  0  0  0  0  0  0  0  0  0  0  0
   -6.3564   -1.1135    1.2672 H   0  0  0  0  0  0  0  0  0  0  0  0
   -6.3153   -2.1406    3.5223 H   0  0  0  0  0  0  0  0  0  0  0  0
   -4.2609   -3.2831    4.3208 H   0  0  0  0  0  0  0  0  0  0  0  0
   -2.2689   -3.4114    2.8823 H   0  0  0  0  0  0  0  0  0  0  0  0
    2.6975    1.4556   -0.5143 H   0  0  0  0  0  0  0  0  0  0  0  0
    0.6774    3.9303   -0.9618 H   0  0  0  0  0  0  0  0  0  0  0  0
    0.1856    6.3138   -0.6590 H   0  0  0  0  0  0  0  0  0  0  0  0
   -1.3274    7.0678    1.1553 H   0  0  0  0  0  0  0  0  0  0  0  0
   -2.3323    5.4080    2.7017 H   0  0  0  0  0  0  0  0  0  0  0  0
   -1.8233    3.0198    2.4617 H   0  0  0  0  0  0  0  0  0  0  0  0
   -2.7520    1.8678    0.7720 H   0  0  0  0  0  0  0  0  0  0  0  0
    4.7594   -1.6932    1.1367 H   0  0  0  0  0  0  0  0  0  0  0  0
  1  2  1  0
  2  3  1  0
  3  4  2  0
  4  5  1  0
  5  6  2  0
  6  7  1  0
  7  8  2  0
  7  9  1  0
  9 10  1  0
 10 11  1  0
 11 12  1  0
 12 13  1  0
 13 14  2  0
 14 15  1  0
 15 16  2  0
 16 17  1  0
 17 18  2  0
 11 19  1  0
 19 20  1  0
 20 21  2  0
 21 22  1  0
 21 23  1  0
 23 24  1  0
 24 25  2  0
 25 26  1  0
 26 27  2  0
 27 28  1  0
 28 29  2  0
 23 30  1  0
 30 31  1  0
  9 32  1  0
 32 33  2  0
 32 34  1  0
  8  3  1  0
 20  9  1  0
 29 24  1  0
 34  6  1  0
 18 13  1  0
 30 19  2  0
  1 35  1  0
  1 36  1  0
  1 37  1  0
  4 38  1  0
  5 39  1  0
  8 40  1  0
 10 41  1  0
 11 42  1  1
 12 43  1  0
 12 44  1  0
 14 45  1  0
 15 46  1  0
 16 47  1  0
 17 48  1  0
 18 49  1  0
 22 50  1  0
 25 51  1  0
 26 52  1  0
 27 53  1  0
 28 54  1  0
 29 55  1  0
 31 56  1  0
 34 57  1  0
M  END
$$$$
