
     RDKit          3D

 67 71  0  0  0  0  0  0  0  0999 V2000
   -3.3838   -5.4536    3.8917 C   0  0  0  0  0  0  0  0  0  0  0  0
   -3.1963   -4.0521    4.0368 O   0  0  0  0  0  0  0  0  0  0  0  0
   -3.1737   -3.3021    2.8916 C   0  0  0  0  0  0  0  0  0  0  0  0
   -3.2863   -3.7913    1.5869 C   0  0  0  0  0  0  0  0  0  0  0  0
   -3.2439   -2.9113    0.5013 C   0  0  0  0  0  0  0  0  0  0  0  0
   -3.3432   -3.2582   -0.8195 O   0  0  0  0  0  0  0  0  0  0  0  0
   -3.4595   -4.6430   -1.1192 C   0  0  0  0  0  0  0  0  0  0  0  0
   -3.0896   -1.5409    0.7279 C   0  0  0  0  0  0  0  0  0  0  0  0
   -2.9747   -1.0369    2.0278 C   0  0  0  0  0  0  0  0  0  0  0  0
   -2.7904    0.4013    2.2517 C   0  0  0  0  0  0  0  0  0  0  0  0
   -4.0425    1.2702    3.0286 S   0  0  0  0  0  0  0  0  0  0  0  0
   -3.2014    2.7624    2.9159 C   0  0  0  0  0  0  0  0  0  0  0  0
   -3.6424    4.0178    3.3765 C   0  0  0  0  0  0  0  0  0  0  0  0
   -2.8211    5.1380    3.2042 C   0  0  0  0  0  0  0  0  0  0  0  0
   -1.5829    5.0189    2.5884 C   0  0  0  0  0  0  0  0  0  0  0  0
   -0.6934    6.0343    2.3651 O   0  0  0  0  0  0  0  0  0  0  0  0
   -1.0758    7.3337    2.7991 C   0  0  0  0  0  0  0  0  0  0  0  0
   -1.1565    3.7645    2.1361 C   0  0  0  0  0  0  0  0  0  0  0  0
   -1.9653    2.6075    2.2886 C   0  0  0  0  0  0  0  0  0  0  0  0
   -1.7355    1.2313    1.9043 C   0  0  0  0  0  0  0  0  0  0  0  0
   -0.5470    0.7229    1.2267 C   0  0  0  0  0  0  0  0  0  0  0  0
   -0.2826    1.0957   -0.0955 C   0  0  0  0  0  0  0  0  0  0  0  0
    0.8570    0.6175   -0.7524 C   0  0  0  0  0  0  0  0  0  0  0  0
    1.7417   -0.2346   -0.0904 C   0  0  0  0  0  0  0  0  0  0  0  0
    2.8868   -0.7698   -0.6123 O   0  0  0  0  0  0  0  0  0  0  0  0
    3.2141   -0.4190   -1.9598 C   0  0  0  0  0  0  0  0  0  0  0  0
    4.5363   -1.1177   -2.3259 C   0  0  0  0  0  0  0  0  0  0  0  0
    5.0560   -0.9229   -3.6845 N   0  0  0  0  0  0  0  0  0  0  0  0
    4.1710   -1.4094   -4.7561 C   0  0  0  0  0  0  0  0  0  0  0  0
    3.5381   -0.2802   -5.5855 C   0  0  0  0  0  0  0  0  0  0  0  0
    4.4998    0.5973   -6.1861 O   0  0  0  0  0  0  0  0  0  0  0  0
    5.7258    0.6884   -5.4475 C   0  0  0  0  0  0  0  0  0  0  0  0
    5.5351    0.4450   -3.9425 C   0  0  0  0  0  0  0  0  0  0  0  0
    1.4768   -0.6029    1.2312 C   0  0  0  0  0  0  0  0  0  0  0  0
    0.3409   -0.1274    1.8907 C   0  0  0  0  0  0  0  0  0  0  0  0
   -3.0174   -1.9296    3.1044 C   0  0  0  0  0  0  0  0  0  0  0  0
   -4.3473   -5.6763    3.4220 H   0  0  0  0  0  0  0  0  0  0  0  0
   -3.3927   -5.8953    4.8928 H   0  0  0  0  0  0  0  0  0  0  0  0
   -2.5569   -5.9066    3.3351 H   0  0  0  0  0  0  0  0  0  0  0  0
   -3.4057   -4.8529    1.4169 H   0  0  0  0  0  0  0  0  0  0  0  0
   -3.5098   -4.7467   -2.2074 H   0  0  0  0  0  0  0  0  0  0  0  0
   -2.5817   -5.1979   -0.7717 H   0  0  0  0  0  0  0  0  0  0  0  0
   -4.3818   -5.0603   -0.7020 H   0  0  0  0  0  0  0  0  0  0  0  0
   -3.0579   -0.8642   -0.1232 H   0  0  0  0  0  0  0  0  0  0  0  0
   -4.6096    4.1178    3.8618 H   0  0  0  0  0  0  0  0  0  0  0  0
   -3.1877    6.0914    3.5705 H   0  0  0  0  0  0  0  0  0  0  0  0
   -1.9769    7.6744    2.2785 H   0  0  0  0  0  0  0  0  0  0  0  0
   -1.2112    7.3633    3.8853 H   0  0  0  0  0  0  0  0  0  0  0  0
   -0.2648    8.0231    2.5452 H   0  0  0  0  0  0  0  0  0  0  0  0
   -0.1817    3.6781    1.6610 H   0  0  0  0  0  0  0  0  0  0  0  0
   -0.9641    1.7577   -0.6254 H   0  0  0  0  0  0  0  0  0  0  0  0
    1.0193    0.9311   -1.7779 H   0  0  0  0  0  0  0  0  0  0  0  0
    3.3314    0.6669   -2.0357 H   0  0  0  0  0  0  0  0  0  0  0  0
    2.4161   -0.7590   -2.6288 H   0  0  0  0  0  0  0  0  0  0  0  0
    5.3054   -0.8161   -1.6020 H   0  0  0  0  0  0  0  0  0  0  0  0
    4.4178   -2.1956   -2.1499 H   0  0  0  0  0  0  0  0  0  0  0  0
    4.7925   -2.0159   -5.4266 H   0  0  0  0  0  0  0  0  0  0  0  0
    3.3922   -2.0799   -4.3737 H   0  0  0  0  0  0  0  0  0  0  0  0
    2.8696    0.3262   -4.9646 H   0  0  0  0  0  0  0  0  0  0  0  0
    2.9328   -0.7030   -6.3930 H   0  0  0  0  0  0  0  0  0  0  0  0
    6.1360    1.6889   -5.6175 H   0  0  0  0  0  0  0  0  0  0  0  0
    6.4359   -0.0297   -5.8731 H   0  0  0  0  0  0  0  0  0  0  0  0
    6.4867    0.5991   -3.4232 H   0  0  0  0  0  0  0  0  0  0  0  0
    4.8231    1.1889   -3.5694 H   0  0  0  0  0  0  0  0  0  0  0  0
    2.1613   -1.2662    1.7540 H   0  0  0  0  0  0  0  0  0  0  0  0
    0.1577   -0.4252    2.9203 H   0  0  0  0  0  0  0  0  0  0  0  0
   -2.9223   -1.5602    4.1233 H   0  0  0  0  0  0  0  0  0  0  0  0
  1  2  1  0
  2  3  1  0
  3  4  2  0
  4  5  1  0
  5  6  1  0
  6  7  1  0
  5  8  2  0
  8  9  1  0
  9 10  1  0
 10 11  1  0
 11 12  1  0
 12 13  2  0
 13 14  1  0
 14 15  2  0
 15 16  1  0
 16 17  1  0
 15 18  1  0
 18 19  2  0
 19 20  1  0
 20 21  1  0
 21 22  2  0
 22 23  1  0
 23 24  2  0
 24 25  1  0
 25 26  1  0
 26 27  1  0
 27 28  1  0
 28 29  1  0
 29 30  1  0
 30 31  1  0
 31 32  1  0
 32 33  1  0
 24 34  1  0
 34 35  2  0
  9 36  2  0
 36  3  1  0
 20 10  2  0
 35 21  1  0
 19 12  1  0
 33 28  1  0
  1 37  1  0
  1 38  1  0
  1 39  1  0
  4 40  1  0
  7 41  1  0
  7 42  1  0
  7 43  1  0
  8 44  1  0
 13 45  1  0
 14 46  1  0
 17 47  1  0
 17 48  1  0
 17 49  1  0
 18 50  1  0
 22 51  1  0
 23 52  1  0
 26 53  1  0
 26 54  1  0
 27 55  1  0
 27 56  1  0
 29 57  1  0
 29 58  1  0
 30 59  1  0
 30 60  1  0
 32 61  1  0
 32 62  1  0
 33 63  1  0
 33 64  1  0
 34 65  1  0
 35 66  1  0
 36 67  1  0
M  END
$$$$
