
     RDKit          3D

 43 47  0  0  0  0  0  0  0  0999 V2000
    1.5484   -1.5122   -0.1990 O   0  0  0  0  0  0  0  0  0  0  0  0
    1.6216   -0.4951    0.4924 C   0  0  0  0  0  0  0  0  0  0  0  0
    0.7295   -0.2951    1.7066 C   0  0  0  0  0  0  0  0  0  0  0  0
   -0.6499   -0.7027    1.4589 N   0  0  0  0  0  0  0  0  0  0  0  0
   -1.2640   -1.8415    1.9719 C   0  0  0  0  0  0  0  0  0  0  0  0
   -0.7719   -2.8794    2.7879 C   0  0  0  0  0  0  0  0  0  0  0  0
   -1.6507   -3.9096    3.1452 C   0  0  0  0  0  0  0  0  0  0  0  0
   -2.9661   -3.9054    2.6994 C   0  0  0  0  0  0  0  0  0  0  0  0
   -3.7840   -4.9085    3.0566 F   0  0  0  0  0  0  0  0  0  0  0  0
   -3.4579   -2.8858    1.8842 C   0  0  0  0  0  0  0  0  0  0  0  0
   -2.5937   -1.8375    1.5131 C   0  0  0  0  0  0  0  0  0  0  0  0
   -2.7332   -0.6817    0.7187 C   0  0  0  0  0  0  0  0  0  0  0  0
   -3.8798   -0.2666    0.0314 N   0  0  0  0  0  0  0  0  0  0  0  0
   -3.6768    0.8052   -0.6647 C   0  0  0  0  0  0  0  0  0  0  0  0
   -2.5108    1.5427   -0.7672 N   0  0  0  0  0  0  0  0  0  0  0  0
   -1.3848    1.2314   -0.0310 C   0  0  0  0  0  0  0  0  0  0  0  0
   -0.3736    1.9281    0.0103 O   0  0  0  0  0  0  0  0  0  0  0  0
   -1.5505    0.0084    0.6984 C   0  0  0  0  0  0  0  0  0  0  0  0
   -2.6171    2.7516   -1.5515 C   0  0  0  0  0  0  0  0  0  0  0  0
   -3.7505    2.5613   -2.5462 C   0  0  0  0  0  0  0  0  0  0  0  0
   -4.9360    1.5197   -1.6516 S   0  0  0  0  0  0  0  0  0  0  0  0
    2.5221    0.5486    0.3088 N   0  0  0  0  0  0  0  0  0  0  0  0
    3.5038    0.6794   -0.7002 C   0  0  0  0  0  0  0  0  0  0  0  0
    3.7048   -0.2406   -1.7314 C   0  0  0  0  0  0  0  0  0  0  0  0
    4.7100   -0.0171   -2.6842 C   0  0  0  0  0  0  0  0  0  0  0  0
    5.5255    1.1168   -2.6088 C   0  0  0  0  0  0  0  0  0  0  0  0
    5.3343    2.0420   -1.5840 C   0  0  0  0  0  0  0  0  0  0  0  0
    4.3300    1.8203   -0.6465 C   0  0  0  0  0  0  0  0  0  0  0  0
    4.1514    2.7203    0.3341 F   0  0  0  0  0  0  0  0  0  0  0  0
    0.7071    0.7492    2.0351 H   0  0  0  0  0  0  0  0  0  0  0  0
    1.1390   -0.8871    2.5303 H   0  0  0  0  0  0  0  0  0  0  0  0
    0.2595   -2.9039    3.1312 H   0  0  0  0  0  0  0  0  0  0  0  0
   -1.3068   -4.7229    3.7724 H   0  0  0  0  0  0  0  0  0  0  0  0
   -4.4880   -2.9051    1.5410 H   0  0  0  0  0  0  0  0  0  0  0  0
   -1.6678    2.9738   -2.0504 H   0  0  0  0  0  0  0  0  0  0  0  0
   -2.8319    3.5796   -0.8642 H   0  0  0  0  0  0  0  0  0  0  0  0
   -4.1934    3.5109   -2.8663 H   0  0  0  0  0  0  0  0  0  0  0  0
   -3.4036    2.0100   -3.4268 H   0  0  0  0  0  0  0  0  0  0  0  0
    2.4547    1.3562    0.9242 H   0  0  0  0  0  0  0  0  0  0  0  0
    3.0878   -1.1275   -1.8386 H   0  0  0  0  0  0  0  0  0  0  0  0
    4.8540   -0.7380   -3.4834 H   0  0  0  0  0  0  0  0  0  0  0  0
    6.3026    1.2787   -3.3491 H   0  0  0  0  0  0  0  0  0  0  0  0
    5.9566    2.9292   -1.5067 H   0  0  0  0  0  0  0  0  0  0  0  0
  1  2  2  0
  2  3  1  0
  3  4  1  0
  4  5  1  0
  5  6  2  0
  6  7  1  0
  7  8  2  0
  8  9  1  0
  8 10  1  0
 10 11  2  0
 11 12  1  0
 12 13  1  0
 13 14  2  0
 14 15  1  0
 15 16  1  0
 16 17  2  0
 16 18  1  0
 15 19  1  0
 19 20  1  0
 20 21  1  0
  2 22  1  0
 22 23  1  0
 23 24  2  0
 24 25  1  0
 25 26  2  0
 26 27  1  0
 27 28  2  0
 28 29  1  0
 18  4  1  0
 28 23  1  0
 11  5  1  0
 18 12  2  0
 21 14  1  0
  3 30  1  0
  3 31  1  0
  6 32  1  0
  7 33  1  0
 10 34  1  0
 19 35  1  0
 19 36  1  0
 20 37  1  0
 20 38  1  0
 22 39  1  0
 24 40  1  0
 25 41  1  0
 26 42  1  0
 27 43  1  0
M  END
$$$$
