
     RDKit          3D

 57 59  0  0  0  0  0  0  0  0999 V2000
   -9.7969    0.4951   -1.5848 C   0  0  0  0  0  0  0  0  0  0  0  0
   -9.1306    0.0701   -0.4027 O   0  0  0  0  0  0  0  0  0  0  0  0
   -7.8026    0.3779   -0.2941 C   0  0  0  0  0  0  0  0  0  0  0  0
   -7.0335    1.0434   -1.2518 C   0  0  0  0  0  0  0  0  0  0  0  0
   -5.6785    1.2943   -1.0135 C   0  0  0  0  0  0  0  0  0  0  0  0
   -5.0956    0.8713    0.1842 C   0  0  0  0  0  0  0  0  0  0  0  0
   -3.3769    1.2008    0.4701 S   0  0  0  0  0  6  0  0  0  0  0  0
   -3.1065    2.5510    0.0257 O   0  0  0  0  0  0  0  0  0  0  0  0
   -3.0424    0.7746    1.8118 O   0  0  0  0  0  0  0  0  0  0  0  0
   -2.6265    0.1541   -0.6004 N   0  0  0  0  0  0  0  0  0  0  0  0
   -2.7496   -1.2899   -0.3883 C   0  0  0  0  0  0  0  0  0  0  0  0
   -1.7585   -1.8226   -1.4004 C   0  0  0  0  0  0  0  0  0  0  0  0
   -0.7319   -0.8310   -1.5181 O   0  0  0  0  0  0  0  0  0  0  0  0
   -1.1970    0.3818   -0.8876 C   0  0  0  0  0  0  0  0  0  0  0  0
   -0.3165    0.6794    0.3563 C   0  0  0  0  0  0  0  0  0  0  0  0
    1.1032    0.7399    0.0529 N   0  0  0  0  0  0  0  0  0  0  0  0
    1.9008   -0.3825    0.0820 C   0  0  0  0  0  0  0  0  0  0  0  0
    1.5901   -1.4853    0.5120 O   0  0  0  0  0  0  0  0  0  0  0  0
    3.3152   -0.1474   -0.4966 C   0  0  0  0  0  0  0  0  0  0  0  0
    3.6201    0.9562   -0.9268 O   0  0  0  0  0  0  0  0  0  0  0  0
    4.1096   -1.2671   -0.4540 N   0  0  0  0  0  0  0  0  0  0  0  0
    5.5135   -1.2418   -0.7864 C   0  0  0  0  0  0  0  0  0  0  0  0
    6.3679   -1.0451    0.4404 C   0  0  0  0  0  0  0  0  0  0  0  0
    6.3765   -2.0215    1.4524 C   0  0  0  0  0  0  0  0  0  0  0  0
    7.1617   -1.8600    2.5961 C   0  0  0  0  0  0  0  0  0  0  0  0
    7.9578   -0.7264    2.7414 C   0  0  0  0  0  0  0  0  0  0  0  0
    7.9653    0.2492    1.7461 C   0  0  0  0  0  0  0  0  0  0  0  0
    7.1621    0.0971    0.6120 C   0  0  0  0  0  0  0  0  0  0  0  0
    7.2042    1.0376   -0.3837 O   0  0  0  0  0  0  0  0  0  0  0  0
    6.6179    2.2673    0.0465 C   0  0  0  0  0  0  0  0  0  0  0  0
   -5.8556    0.2146    1.1521 C   0  0  0  0  0  0  0  0  0  0  0  0
   -7.2072   -0.0320    0.9043 C   0  0  0  0  0  0  0  0  0  0  0  0
   -9.3722    0.0132   -2.4714 H   0  0  0  0  0  0  0  0  0  0  0  0
  -10.8439    0.1864   -1.5078 H   0  0  0  0  0  0  0  0  0  0  0  0
   -9.7771    1.5858   -1.6791 H   0  0  0  0  0  0  0  0  0  0  0  0
   -7.4575    1.3823   -2.1915 H   0  0  0  0  0  0  0  0  0  0  0  0
   -5.0853    1.8180   -1.7605 H   0  0  0  0  0  0  0  0  0  0  0  0
   -2.4411   -1.5635    0.6261 H   0  0  0  0  0  0  0  0  0  0  0  0
   -3.7572   -1.6653   -0.5803 H   0  0  0  0  0  0  0  0  0  0  0  0
   -1.3235   -2.7811   -1.1042 H   0  0  0  0  0  0  0  0  0  0  0  0
   -2.2223   -1.9374   -2.3861 H   0  0  0  0  0  0  0  0  0  0  0  0
   -1.0897    1.1847   -1.6248 H   0  0  0  0  0  0  0  0  0  0  0  0
   -0.5777    1.6458    0.7972 H   0  0  0  0  0  0  0  0  0  0  0  0
   -0.4641   -0.0963    1.1162 H   0  0  0  0  0  0  0  0  0  0  0  0
    1.4953    1.5536   -0.4145 H   0  0  0  0  0  0  0  0  0  0  0  0
    3.7153   -2.0755    0.0165 H   0  0  0  0  0  0  0  0  0  0  0  0
    5.6905   -0.4709   -1.5429 H   0  0  0  0  0  0  0  0  0  0  0  0
    5.7595   -2.2061   -1.2451 H   0  0  0  0  0  0  0  0  0  0  0  0
    5.7704   -2.9192    1.3525 H   0  0  0  0  0  0  0  0  0  0  0  0
    7.1575   -2.6237    3.3698 H   0  0  0  0  0  0  0  0  0  0  0  0
    8.5796   -0.6067    3.6246 H   0  0  0  0  0  0  0  0  0  0  0  0
    8.6078    1.1185    1.8502 H   0  0  0  0  0  0  0  0  0  0  0  0
    6.3850    2.8568   -0.8454 H   0  0  0  0  0  0  0  0  0  0  0  0
    5.6860    2.1070    0.6005 H   0  0  0  0  0  0  0  0  0  0  0  0
    7.3273    2.8381    0.6541 H   0  0  0  0  0  0  0  0  0  0  0  0
   -5.4145   -0.1039    2.0936 H   0  0  0  0  0  0  0  0  0  0  0  0
   -7.8075   -0.5438    1.6536 H   0  0  0  0  0  0  0  0  0  0  0  0
  1  2  1  0
  2  3  1  0
  3  4  2  0
  4  5  1  0
  5  6  2  0
  6  7  1  0
  7  8  2  0
  7  9  2  0
  7 10  1  0
 10 11  1  0
 11 12  1  0
 12 13  1  0
 13 14  1  0
 14 15  1  0
 15 16  1  0
 16 17  1  0
 17 18  2  0
 17 19  1  0
 19 20  2  0
 19 21  1  0
 21 22  1  0
 22 23  1  0
 23 24  2  0
 24 25  1  0
 25 26  2  0
 26 27  1  0
 27 28  2  0
 28 29  1  0
 29 30  1  0
  6 31  1  0
 31 32  2  0
 32  3  1  0
 14 10  1  0
 28 23  1  0
  1 33  1  0
  1 34  1  0
  1 35  1  0
  4 36  1  0
  5 37  1  0
 11 38  1  0
 11 39  1  0
 12 40  1  0
 12 41  1  0
 14 42  1  0
 15 43  1  0
 15 44  1  0
 16 45  1  0
 21 46  1  0
 22 47  1  0
 22 48  1  0
 24 49  1  0
 25 50  1  0
 26 51  1  0
 27 52  1  0
 30 53  1  0
 30 54  1  0
 30 55  1  0
 31 56  1  0
 32 57  1  0
M  END
$$$$
