
     RDKit          3D

 43 45  0  0  0  0  0  0  0  0999 V2000
    1.6877   -2.3296    0.7877 O   0  0  0  0  0  0  0  0  0  0  0  0
    1.9589   -1.1316    0.7431 C   0  0  0  0  0  0  0  0  0  0  0  0
    3.3753   -0.6587    1.0552 C   0  0  0  0  0  0  0  0  0  0  0  0
    3.8790    0.7419   -0.0087 S   0  0  0  0  0  0  0  0  0  0  0  0
    5.6375    0.7893    0.3086 C   0  0  0  0  0  0  0  0  0  0  0  0
    6.4986    0.9248   -0.7881 C   0  0  0  0  0  0  0  0  0  0  0  0
    7.8839    0.9813   -0.6030 C   0  0  0  0  0  0  0  0  0  0  0  0
    8.4231    0.9122    0.6812 C   0  0  0  0  0  0  0  0  0  0  0  0
    7.5763    0.7915    1.7811 C   0  0  0  0  0  0  0  0  0  0  0  0
    6.1967    0.7355    1.5905 C   0  0  0  0  0  0  0  0  0  0  0  0
    5.4147    0.6416    2.6771 F   0  0  0  0  0  0  0  0  0  0  0  0
    1.0624   -0.1036    0.5094 N   0  0  0  0  0  0  0  0  0  0  0  0
   -0.3209   -0.1946    0.2685 C   0  0  0  0  0  0  0  0  0  0  0  0
   -1.0447   -1.3802    0.2961 C   0  0  0  0  0  0  0  0  0  0  0  0
   -2.4276   -1.3768    0.0491 C   0  0  0  0  0  0  0  0  0  0  0  0
   -3.1384   -0.2000   -0.2289 C   0  0  0  0  0  0  0  0  0  0  0  0
   -4.4993   -0.2046   -0.4698 N   0  0  0  0  0  0  0  0  0  0  0  0
   -5.2228   -1.4300   -0.8455 C   0  0  0  0  0  0  0  0  0  0  0  0
   -6.4842   -1.0718   -1.6501 C   0  0  0  0  0  0  0  0  0  0  0  0
   -7.4054   -0.2221   -0.9521 O   0  0  0  0  0  0  0  0  0  0  0  0
   -6.7716    0.6254    0.0161 C   0  0  0  0  0  0  0  0  0  0  0  0
   -5.3233    1.0068   -0.3353 C   0  0  0  0  0  0  0  0  0  0  0  0
   -2.3855    0.9822   -0.2502 C   0  0  0  0  0  0  0  0  0  0  0  0
   -1.0035    0.9901   -0.0072 C   0  0  0  0  0  0  0  0  0  0  0  0
    3.4011   -0.3706    2.1096 H   0  0  0  0  0  0  0  0  0  0  0  0
    4.0592   -1.4972    0.8881 H   0  0  0  0  0  0  0  0  0  0  0  0
    6.0999    0.9839   -1.7992 H   0  0  0  0  0  0  0  0  0  0  0  0
    8.5412    1.0819   -1.4642 H   0  0  0  0  0  0  0  0  0  0  0  0
    9.5002    0.9582    0.8241 H   0  0  0  0  0  0  0  0  0  0  0  0
    7.9798    0.7460    2.7882 H   0  0  0  0  0  0  0  0  0  0  0  0
    1.4728    0.8222    0.4415 H   0  0  0  0  0  0  0  0  0  0  0  0
   -0.5737   -2.3333    0.5134 H   0  0  0  0  0  0  0  0  0  0  0  0
   -2.9410   -2.3326    0.1071 H   0  0  0  0  0  0  0  0  0  0  0  0
   -4.6020   -2.0829   -1.4699 H   0  0  0  0  0  0  0  0  0  0  0  0
   -5.5025   -1.9724    0.0653 H   0  0  0  0  0  0  0  0  0  0  0  0
   -6.2067   -0.5619   -2.5803 H   0  0  0  0  0  0  0  0  0  0  0  0
   -7.0241   -1.9829   -1.9275 H   0  0  0  0  0  0  0  0  0  0  0  0
   -6.8026    0.1058    0.9812 H   0  0  0  0  0  0  0  0  0  0  0  0
   -7.3840    1.5275    0.1132 H   0  0  0  0  0  0  0  0  0  0  0  0
   -5.3020    1.5578   -1.2827 H   0  0  0  0  0  0  0  0  0  0  0  0
   -4.9462    1.6584    0.4613 H   0  0  0  0  0  0  0  0  0  0  0  0
   -2.8578    1.9325   -0.4823 H   0  0  0  0  0  0  0  0  0  0  0  0
   -0.4786    1.9406   -0.0449 H   0  0  0  0  0  0  0  0  0  0  0  0
  1  2  2  0
  2  3  1  0
  3  4  1  0
  4  5  1  0
  5  6  2  0
  6  7  1  0
  7  8  2  0
  8  9  1  0
  9 10  2  0
 10 11  1  0
  2 12  1  0
 12 13  1  0
 13 14  2  0
 14 15  1  0
 15 16  2  0
 16 17  1  0
 17 18  1  0
 18 19  1  0
 19 20  1  0
 20 21  1  0
 21 22  1  0
 16 23  1  0
 23 24  2  0
 10  5  1  0
 24 13  1  0
 22 17  1  0
  3 25  1  0
  3 26  1  0
  6 27  1  0
  7 28  1  0
  8 29  1  0
  9 30  1  0
 12 31  1  0
 14 32  1  0
 15 33  1  0
 18 34  1  0
 18 35  1  0
 19 36  1  0
 19 37  1  0
 21 38  1  0
 21 39  1  0
 22 40  1  0
 22 41  1  0
 23 42  1  0
 24 43  1  0
M  END
$$$$
