
     RDKit          3D

 67 72  0  0  0  0  0  0  0  0999 V2000
    3.4206   -0.6801   -1.9377 O   0  0  0  0  0  0  0  0  0  0  0  0
    2.6666   -0.4657   -0.9849 C   0  0  0  0  0  0  0  0  0  0  0  0
    3.1548    0.2408    0.3005 C   0  0  0  0  0  0  0  0  0  0  0  0
    4.6895    0.1703    0.3959 C   0  0  0  0  0  0  0  0  0  0  0  0
    5.2509    0.9915    1.5363 C   0  0  0  0  0  0  0  0  0  0  0  0
    5.4816    2.3649    1.3768 C   0  0  0  0  0  0  0  0  0  0  0  0
    5.9802    3.1236    2.4371 C   0  0  0  0  0  0  0  0  0  0  0  0
    6.2440    2.5208    3.6671 C   0  0  0  0  0  0  0  0  0  0  0  0
    6.0141    1.1567    3.8376 C   0  0  0  0  0  0  0  0  0  0  0  0
    5.5235    0.3941    2.7762 C   0  0  0  0  0  0  0  0  0  0  0  0
    2.5386   -0.3881    1.4703 N   0  0  0  0  0  0  0  0  0  0  0  0
    1.1419   -0.3854    1.3897 C   0  0  0  0  0  0  0  0  0  0  0  0
    0.5119   -0.2649    2.5623 N   0  0  0  0  0  0  0  0  0  0  0  0
   -0.8185   -0.3383    2.5139 C   0  0  0  0  0  0  0  0  0  0  0  0
   -1.5614   -0.4638    1.4100 N   0  0  0  0  0  0  0  0  0  0  0  0
   -0.9156   -0.5423    0.2282 C   0  0  0  0  0  0  0  0  0  0  0  0
   -1.7094   -0.5245   -0.9300 N   0  0  0  0  0  0  0  0  0  0  0  0
   -3.0901   -1.0511   -0.7729 C   0  0  0  0  0  0  0  0  0  0  0  0
   -4.1146   -0.0176   -0.2472 C   0  0  0  0  0  0  0  0  0  0  0  0
   -4.0430    1.2448   -1.0299 N   0  0  0  0  0  0  0  0  0  0  0  0
   -5.1106    2.1157   -0.7575 C   0  0  0  0  0  0  0  0  0  0  0  0
   -6.3986    1.7663   -1.2029 C   0  0  0  0  0  0  0  0  0  0  0  0
   -7.5000    2.5988   -0.9875 C   0  0  0  0  0  0  0  0  0  0  0  0
   -7.3345    3.8037   -0.3105 C   0  0  0  0  0  0  0  0  0  0  0  0
   -6.0719    4.1661    0.1508 C   0  0  0  0  0  0  0  0  0  0  0  0
   -4.9712    3.3316   -0.0743 C   0  0  0  0  0  0  0  0  0  0  0  0
   -2.6757    1.8108   -1.0327 C   0  0  0  0  0  0  0  0  0  0  0  0
   -1.6822    0.7880   -1.6322 C   0  0  0  0  0  0  0  0  0  0  0  0
    0.4886   -0.5668    0.1638 C   0  0  0  0  0  0  0  0  0  0  0  0
    1.2926   -0.7623   -1.0200 N   0  0  0  0  0  0  0  0  0  0  0  0
    0.8233   -1.5879   -2.1322 C   0  0  0  0  0  0  0  0  0  0  0  0
    1.0133   -3.0718   -1.8745 C   0  0  0  0  0  0  0  0  0  0  0  0
    0.0714   -3.7979   -1.1287 C   0  0  0  0  0  0  0  0  0  0  0  0
    0.2700   -5.1535   -0.8592 C   0  0  0  0  0  0  0  0  0  0  0  0
    1.4108   -5.7939   -1.3415 C   0  0  0  0  0  0  0  0  0  0  0  0
    1.6893   -7.6249   -0.9622 Br  0  0  0  0  0  0  0  0  0  0  0  0
    2.3516   -5.0923   -2.0923 C   0  0  0  0  0  0  0  0  0  0  0  0
    2.1548   -3.7351   -2.3539 C   0  0  0  0  0  0  0  0  0  0  0  0
    2.8401    1.2917    0.2342 H   0  0  0  0  0  0  0  0  0  0  0  0
    5.0200   -0.8708    0.5005 H   0  0  0  0  0  0  0  0  0  0  0  0
    5.1440    0.5296   -0.5354 H   0  0  0  0  0  0  0  0  0  0  0  0
    5.2899    2.8532    0.4217 H   0  0  0  0  0  0  0  0  0  0  0  0
    6.1668    4.1864    2.3044 H   0  0  0  0  0  0  0  0  0  0  0  0
    6.6318    3.1144    4.4912 H   0  0  0  0  0  0  0  0  0  0  0  0
    6.2163    0.6880    4.7997 H   0  0  0  0  0  0  0  0  0  0  0  0
    5.3580   -0.6706    2.9210 H   0  0  0  0  0  0  0  0  0  0  0  0
    2.8033   -0.0123    2.3773 H   0  0  0  0  0  0  0  0  0  0  0  0
   -1.3491   -0.2843    3.4560 H   0  0  0  0  0  0  0  0  0  0  0  0
   -3.4169   -1.3788   -1.7682 H   0  0  0  0  0  0  0  0  0  0  0  0
   -3.0999   -1.9507   -0.1433 H   0  0  0  0  0  0  0  0  0  0  0  0
   -3.9371    0.2025    0.8124 H   0  0  0  0  0  0  0  0  0  0  0  0
   -5.1083   -0.4767   -0.3214 H   0  0  0  0  0  0  0  0  0  0  0  0
   -6.5414    0.8421   -1.7587 H   0  0  0  0  0  0  0  0  0  0  0  0
   -8.4788    2.3088   -1.3612 H   0  0  0  0  0  0  0  0  0  0  0  0
   -8.1842    4.4601   -0.1404 H   0  0  0  0  0  0  0  0  0  0  0  0
   -5.9389    5.1008    0.6881 H   0  0  0  0  0  0  0  0  0  0  0  0
   -4.0094    3.6487    0.3146 H   0  0  0  0  0  0  0  0  0  0  0  0
   -2.6456    2.7178   -1.6531 H   0  0  0  0  0  0  0  0  0  0  0  0
   -2.3612    2.0766   -0.0141 H   0  0  0  0  0  0  0  0  0  0  0  0
   -1.9560    0.6044   -2.6795 H   0  0  0  0  0  0  0  0  0  0  0  0
   -0.6741    1.2214   -1.6471 H   0  0  0  0  0  0  0  0  0  0  0  0
   -0.2099   -1.3895   -2.4142 H   0  0  0  0  0  0  0  0  0  0  0  0
    1.3919   -1.3128   -3.0309 H   0  0  0  0  0  0  0  0  0  0  0  0
   -0.8208   -3.3107   -0.7420 H   0  0  0  0  0  0  0  0  0  0  0  0
   -0.4650   -5.6951   -0.2678 H   0  0  0  0  0  0  0  0  0  0  0  0
    3.2430   -5.5838   -2.4693 H   0  0  0  0  0  0  0  0  0  0  0  0
    2.9050   -3.1905   -2.9261 H   0  0  0  0  0  0  0  0  0  0  0  0
  1  2  2  0
  2  3  1  0
  3  4  1  0
  4  5  1  0
  5  6  2  0
  6  7  1  0
  7  8  2  0
  8  9  1  0
  9 10  2  0
  3 11  1  0
 11 12  1  0
 12 13  2  0
 13 14  1  0
 14 15  2  0
 15 16  1  0
 16 17  1  0
 17 18  1  0
 18 19  1  0
 19 20  1  0
 20 21  1  0
 21 22  2  0
 22 23  1  0
 23 24  2  0
 24 25  1  0
 25 26  2  0
 20 27  1  0
 27 28  1  0
 16 29  2  0
 29 30  1  0
 30 31  1  0
 31 32  1  0
 32 33  2  0
 33 34  1  0
 34 35  2  0
 35 36  1  0
 35 37  1  0
 37 38  2  0
 30  2  1  0
 38 32  1  0
 10  5  1  0
 29 12  1  0
 28 17  1  0
 26 21  1  0
  3 39  1  0
  4 40  1  0
  4 41  1  0
  6 42  1  0
  7 43  1  0
  8 44  1  0
  9 45  1  0
 10 46  1  0
 11 47  1  0
 14 48  1  0
 18 49  1  0
 18 50  1  0
 19 51  1  0
 19 52  1  0
 22 53  1  0
 23 54  1  0
 24 55  1  0
 25 56  1  0
 26 57  1  0
 27 58  1  0
 27 59  1  0
 28 60  1  0
 28 61  1  0
 31 62  1  0
 31 63  1  0
 33 64  1  0
 34 65  1  0
 37 66  1  0
 38 67  1  0
M  END
$$$$
