
     RDKit          3D

 50 53  0  0  0  0  0  0  0  0999 V2000
   -1.4196    3.7494    3.7880 C   0  0  0  0  0  0  0  0  0  0  0  0
   -1.9446    3.1113    2.5113 C   0  0  0  0  0  0  0  0  0  0  0  0
   -0.9447    3.1939    1.3659 C   0  0  0  0  0  0  0  0  0  0  0  0
    0.1343    3.7711    1.5127 O   0  0  0  0  0  0  0  0  0  0  0  0
   -1.3075    2.6117    0.1565 N   0  0  0  0  0  0  0  0  0  0  0  0
   -2.5338    1.8316   -0.0607 C   0  0  0  0  0  0  0  0  0  0  0  0
   -2.3150    0.3358   -0.1227 C   0  0  0  0  0  0  0  0  0  0  0  0
   -2.8394   -0.4025   -1.1932 C   0  0  0  0  0  0  0  0  0  0  0  0
   -2.6368   -1.7826   -1.2786 C   0  0  0  0  0  0  0  0  0  0  0  0
   -1.9034   -2.4541   -0.2962 C   0  0  0  0  0  0  0  0  0  0  0  0
   -1.6981   -3.9371   -0.3780 C   0  0  0  0  0  0  0  0  0  0  0  0
   -1.4070   -1.7293    0.7910 C   0  0  0  0  0  0  0  0  0  0  0  0
   -1.6120   -0.3496    0.8777 C   0  0  0  0  0  0  0  0  0  0  0  0
   -0.4109    2.7865   -0.9970 C   0  0  0  0  0  0  0  0  0  0  0  0
    0.4333    1.5679   -1.2307 C   0  0  0  0  0  0  0  0  0  0  0  0
    1.3992    1.1628   -0.3858 C   0  0  0  0  0  0  0  0  0  0  0  0
    2.1525   -0.0653   -0.6327 C   0  0  0  0  0  0  0  0  0  0  0  0
    3.1263   -0.5109    0.2675 C   0  0  0  0  0  0  0  0  0  0  0  0
    3.7773   -1.6904   -0.0293 C   0  0  0  0  0  0  0  0  0  0  0  0
    3.4929   -2.4152   -1.1646 C   0  0  0  0  0  0  0  0  0  0  0  0
    2.5413   -2.0053   -2.0735 C   0  0  0  0  0  0  0  0  0  0  0  0
    1.8678   -0.8147   -1.7949 C   0  0  0  0  0  0  0  0  0  0  0  0
    0.8924   -0.3467   -2.6817 N   0  0  0  0  0  0  0  0  0  0  0  0
    0.1662    0.7970   -2.4828 C   0  0  0  0  0  0  0  0  0  0  0  0
   -0.6659    1.1663   -3.3077 O   0  0  0  0  0  0  0  0  0  0  0  0
    4.2472   -3.5431   -1.2614 O   0  0  0  0  0  0  0  0  0  0  0  0
    5.0427   -3.4436   -0.0615 C   0  0  0  0  0  0  0  0  0  0  0  0
    4.7450   -2.2734    0.7281 O   0  0  0  0  0  0  0  0  0  0  0  0
   -1.1932    4.8097    3.6345 H   0  0  0  0  0  0  0  0  0  0  0  0
   -2.1643    3.6718    4.5862 H   0  0  0  0  0  0  0  0  0  0  0  0
   -0.5029    3.2549    4.1261 H   0  0  0  0  0  0  0  0  0  0  0  0
   -2.8607    3.6314    2.2115 H   0  0  0  0  0  0  0  0  0  0  0  0
   -2.1780    2.0635    2.7187 H   0  0  0  0  0  0  0  0  0  0  0  0
   -3.2717    2.0280    0.7214 H   0  0  0  0  0  0  0  0  0  0  0  0
   -2.9831    2.1946   -0.9933 H   0  0  0  0  0  0  0  0  0  0  0  0
   -3.3917    0.0955   -1.9881 H   0  0  0  0  0  0  0  0  0  0  0  0
   -3.0480   -2.3265   -2.1260 H   0  0  0  0  0  0  0  0  0  0  0  0
   -2.5084   -4.4566    0.1425 H   0  0  0  0  0  0  0  0  0  0  0  0
   -1.6750   -4.2719   -1.4204 H   0  0  0  0  0  0  0  0  0  0  0  0
   -0.7434   -4.2239    0.0753 H   0  0  0  0  0  0  0  0  0  0  0  0
   -0.8457   -2.2322    1.5754 H   0  0  0  0  0  0  0  0  0  0  0  0
   -1.1911    0.1845    1.7248 H   0  0  0  0  0  0  0  0  0  0  0  0
   -1.0271    3.0549   -1.8616 H   0  0  0  0  0  0  0  0  0  0  0  0
    0.2487    3.6477   -0.8350 H   0  0  0  0  0  0  0  0  0  0  0  0
    1.6135    1.7220    0.5201 H   0  0  0  0  0  0  0  0  0  0  0  0
    3.3673    0.0391    1.1702 H   0  0  0  0  0  0  0  0  0  0  0  0
    2.3346   -2.5925   -2.9595 H   0  0  0  0  0  0  0  0  0  0  0  0
    0.6741   -0.8644   -3.5212 H   0  0  0  0  0  0  0  0  0  0  0  0
    6.1015   -3.4163   -0.3439 H   0  0  0  0  0  0  0  0  0  0  0  0
    4.8649   -4.3346    0.5515 H   0  0  0  0  0  0  0  0  0  0  0  0
  1  2  1  0
  2  3  1  0
  3  4  2  0
  3  5  1  0
  5  6  1  0
  6  7  1  0
  7  8  2  0
  8  9  1  0
  9 10  2  0
 10 11  1  0
 10 12  1  0
 12 13  2  0
  5 14  1  0
 14 15  1  0
 15 16  2  0
 16 17  1  0
 17 18  2  0
 18 19  1  0
 19 20  2  0
 20 21  1  0
 21 22  2  0
 22 23  1  0
 23 24  1  0
 24 25  2  0
 20 26  1  0
 26 27  1  0
 27 28  1  0
 13  7  1  0
 24 15  1  0
 22 17  1  0
 28 19  1  0
  1 29  1  0
  1 30  1  0
  1 31  1  0
  2 32  1  0
  2 33  1  0
  6 34  1  0
  6 35  1  0
  8 36  1  0
  9 37  1  0
 11 38  1  0
 11 39  1  0
 11 40  1  0
 12 41  1  0
 13 42  1  0
 14 43  1  0
 14 44  1  0
 16 45  1  0
 18 46  1  0
 21 47  1  0
 23 48  1  0
 27 49  1  0
 27 50  1  0
M  END
$$$$
