
     RDKit          3D

 61 65  0  0  0  0  0  0  0  0999 V2000
    1.9974   -2.0885    5.0187 C   0  0  0  0  0  0  0  0  0  0  0  0
    2.6096   -1.2975    3.9014 C   0  0  0  0  0  0  0  0  0  0  0  0
    3.6296   -0.3822    4.1539 C   0  0  0  0  0  0  0  0  0  0  0  0
    4.1715    0.3720    3.1078 C   0  0  0  0  0  0  0  0  0  0  0  0
    3.7156    0.2539    1.8018 C   0  0  0  0  0  0  0  0  0  0  0  0
    4.2782    1.0189    0.8484 N   0  0  0  0  0  0  0  0  0  0  0  0
    3.8587    0.9293   -0.4413 C   0  0  0  0  0  0  0  0  0  0  0  0
    4.5389    1.8292   -1.4003 C   0  0  0  0  0  0  0  0  0  0  0  0
    5.8623    2.2580   -1.1677 C   0  0  0  0  0  0  0  0  0  0  0  0
    6.5207    3.1167   -2.0532 C   0  0  0  0  0  0  0  0  0  0  0  0
    5.8676    3.5711   -3.1963 C   0  0  0  0  0  0  0  0  0  0  0  0
    4.5582    3.1695   -3.4514 C   0  0  0  0  0  0  0  0  0  0  0  0
    3.9026    2.3101   -2.5628 C   0  0  0  0  0  0  0  0  0  0  0  0
    2.8478    0.0579   -0.8036 C   0  0  0  0  0  0  0  0  0  0  0  0
    2.2502   -0.7101    0.1957 C   0  0  0  0  0  0  0  0  0  0  0  0
    1.1369   -1.5798   -0.2159 C   0  0  0  0  0  0  0  0  0  0  0  0
    1.4071   -2.6475   -0.7556 O   0  0  0  0  0  0  0  0  0  0  0  0
   -0.1607   -1.1386    0.0067 N   0  0  0  0  0  0  0  0  0  0  0  0
   -1.2559   -2.0148   -0.4128 C   0  0  0  0  0  0  0  0  0  0  0  0
   -2.6373   -1.4876   -0.0074 C   0  0  0  0  0  0  0  0  0  0  0  0
   -2.8219   -0.0950   -0.5153 N   0  0  0  0  0  0  0  0  0  0  0  0
   -4.3524    0.5903   -0.2531 S   0  0  0  0  0  6  0  0  0  0  0  0
   -4.3802    1.8851   -0.8977 O   0  0  0  0  0  0  0  0  0  0  0  0
   -4.6700    0.4246    1.1495 O   0  0  0  0  0  0  0  0  0  0  0  0
   -5.5225   -0.3108   -1.0979 C   0  0  0  0  0  0  0  0  0  0  0  0
   -5.4277   -0.7778   -2.4263 C   0  0  0  0  0  0  0  0  0  0  0  0
   -4.3289   -0.6054   -3.4057 C   0  0  0  0  0  0  0  0  0  0  0  0
   -6.5230   -1.4742   -2.7628 N   0  0  0  0  0  0  0  0  0  0  0  0
   -7.3580   -1.4271   -1.6579 O   0  0  0  0  0  0  0  0  0  0  0  0
   -6.7587   -0.7178   -0.6613 C   0  0  0  0  0  0  0  0  0  0  0  0
   -7.5286   -0.5561    0.5867 C   0  0  0  0  0  0  0  0  0  0  0  0
   -1.6804    0.8264   -0.1999 C   0  0  0  0  0  0  0  0  0  0  0  0
   -0.5440    0.1538    0.5858 C   0  0  0  0  0  0  0  0  0  0  0  0
    2.6771   -0.6503    1.5349 C   0  0  0  0  0  0  0  0  0  0  0  0
    2.1317   -1.4218    2.5932 C   0  0  0  0  0  0  0  0  0  0  0  0
    1.6103   -3.0465    4.6548 H   0  0  0  0  0  0  0  0  0  0  0  0
    1.1748   -1.5251    5.4695 H   0  0  0  0  0  0  0  0  0  0  0  0
    2.7411   -2.3103    5.7908 H   0  0  0  0  0  0  0  0  0  0  0  0
    4.0178   -0.2480    5.1617 H   0  0  0  0  0  0  0  0  0  0  0  0
    4.9728    1.0773    3.3220 H   0  0  0  0  0  0  0  0  0  0  0  0
    6.3940    1.9184   -0.2775 H   0  0  0  0  0  0  0  0  0  0  0  0
    7.5417    3.4296   -1.8438 H   0  0  0  0  0  0  0  0  0  0  0  0
    6.3763    4.2401   -3.8848 H   0  0  0  0  0  0  0  0  0  0  0  0
    4.0419    3.5289   -4.3398 H   0  0  0  0  0  0  0  0  0  0  0  0
    2.8727    2.0391   -2.7890 H   0  0  0  0  0  0  0  0  0  0  0  0
    2.5187   -0.0401   -1.8318 H   0  0  0  0  0  0  0  0  0  0  0  0
   -1.0920   -3.0123    0.0128 H   0  0  0  0  0  0  0  0  0  0  0  0
   -1.1953   -2.1070   -1.5063 H   0  0  0  0  0  0  0  0  0  0  0  0
   -2.7408   -1.5023    1.0840 H   0  0  0  0  0  0  0  0  0  0  0  0
   -3.3999   -2.1472   -0.4348 H   0  0  0  0  0  0  0  0  0  0  0  0
   -3.9463    0.4213   -3.3870 H   0  0  0  0  0  0  0  0  0  0  0  0
   -4.6683   -0.8151   -4.4288 H   0  0  0  0  0  0  0  0  0  0  0  0
   -3.5024   -1.2893   -3.1770 H   0  0  0  0  0  0  0  0  0  0  0  0
   -7.5748    0.4981    0.8746 H   0  0  0  0  0  0  0  0  0  0  0  0
   -8.5561   -0.9165    0.4705 H   0  0  0  0  0  0  0  0  0  0  0  0
   -7.0609   -1.1187    1.4019 H   0  0  0  0  0  0  0  0  0  0  0  0
   -1.2922    1.1843   -1.1606 H   0  0  0  0  0  0  0  0  0  0  0  0
   -2.0192    1.7009    0.3655 H   0  0  0  0  0  0  0  0  0  0  0  0
   -0.8652   -0.0472    1.6160 H   0  0  0  0  0  0  0  0  0  0  0  0
    0.3077    0.8373    0.6406 H   0  0  0  0  0  0  0  0  0  0  0  0
    1.3325   -2.1340    2.3910 H   0  0  0  0  0  0  0  0  0  0  0  0
  1  2  1  0
  2  3  2  0
  3  4  1  0
  4  5  2  0
  5  6  1  0
  6  7  2  0
  7  8  1  0
  8  9  2  0
  9 10  1  0
 10 11  2  0
 11 12  1  0
 12 13  2  0
  7 14  1  0
 14 15  2  0
 15 16  1  0
 16 17  2  0
 16 18  1  0
 18 19  1  0
 19 20  1  0
 20 21  1  0
 21 22  1  0
 22 23  2  0
 22 24  2  0
 22 25  1  0
 25 26  1  0
 26 27  1  0
 26 28  2  0
 28 29  1  0
 29 30  1  0
 30 31  1  0
 21 32  1  0
 32 33  1  0
 15 34  1  0
 34 35  2  0
 35  2  1  0
 34  5  1  0
 13  8  1  0
 33 18  1  0
 30 25  2  0
  1 36  1  0
  1 37  1  0
  1 38  1  0
  3 39  1  0
  4 40  1  0
  9 41  1  0
 10 42  1  0
 11 43  1  0
 12 44  1  0
 13 45  1  0
 14 46  1  0
 19 47  1  0
 19 48  1  0
 20 49  1  0
 20 50  1  0
 27 51  1  0
 27 52  1  0
 27 53  1  0
 31 54  1  0
 31 55  1  0
 31 56  1  0
 32 57  1  0
 32 58  1  0
 33 59  1  0
 33 60  1  0
 35 61  1  0
M  END
$$$$
