
     RDKit          3D

 37 39  0  0  0  0  0  0  0  0999 V2000
   -0.8594   -1.8191    2.3200 C   0  0  0  0  0  0  0  0  0  0  0  0
   -1.0767   -1.0122    1.1342 N   0  0  0  0  0  0  0  0  0  0  0  0
   -0.1220   -0.3703    0.3216 C   0  0  0  0  0  0  0  0  0  0  0  0
    1.2134   -0.5365    0.4294 C   0  0  0  0  0  0  0  0  0  0  0  0
    2.2628    0.0638   -0.3715 C   0  0  0  0  0  0  0  0  0  0  0  0
    3.5831   -0.1009   -0.2067 C   0  0  0  0  0  0  0  0  0  0  0  0
    4.4123   -1.0420    0.9803 S   0  0  0  0  0  0  0  0  0  0  0  0
    5.9847   -0.6001    0.3558 C   0  0  0  0  0  0  0  0  0  0  0  0
    7.4516   -1.0934    0.9427 S   0  0  0  0  0  0  0  0  0  0  0  0
    5.8390    0.2308   -0.7118 N   0  0  0  0  0  0  0  0  0  0  0  0
    4.5720    0.5653   -1.0991 C   0  0  0  0  0  0  0  0  0  0  0  0
    4.3033    1.3000   -2.0355 O   0  0  0  0  0  0  0  0  0  0  0  0
   -0.8899    0.5498   -0.6901 C   0  0  0  0  0  0  0  0  0  0  0  0
   -0.5322    2.0365   -0.5364 C   0  0  0  0  0  0  0  0  0  0  0  0
   -0.7466    0.0728   -2.1425 C   0  0  0  0  0  0  0  0  0  0  0  0
   -2.3354    0.3462   -0.2408 C   0  0  0  0  0  0  0  0  0  0  0  0
   -3.4974    0.9264   -0.7379 C   0  0  0  0  0  0  0  0  0  0  0  0
   -4.7125    0.5949   -0.1402 C   0  0  0  0  0  0  0  0  0  0  0  0
   -4.7511   -0.3011    0.9361 C   0  0  0  0  0  0  0  0  0  0  0  0
   -3.5751   -0.8806    1.4263 C   0  0  0  0  0  0  0  0  0  0  0  0
   -2.3651   -0.5577    0.8321 C   0  0  0  0  0  0  0  0  0  0  0  0
   -0.9153   -1.1993    3.2213 H   0  0  0  0  0  0  0  0  0  0  0  0
   -1.5981   -2.6243    2.3993 H   0  0  0  0  0  0  0  0  0  0  0  0
    0.1164   -2.3136    2.3090 H   0  0  0  0  0  0  0  0  0  0  0  0
    1.5687   -1.2108    1.2036 H   0  0  0  0  0  0  0  0  0  0  0  0
    1.9501    0.7031   -1.1914 H   0  0  0  0  0  0  0  0  0  0  0  0
    6.6342    0.5979   -1.2120 H   0  0  0  0  0  0  0  0  0  0  0  0
   -0.6256    2.3655    0.5059 H   0  0  0  0  0  0  0  0  0  0  0  0
    0.4881    2.2568   -0.8603 H   0  0  0  0  0  0  0  0  0  0  0  0
   -1.1946    2.6714   -1.1368 H   0  0  0  0  0  0  0  0  0  0  0  0
   -1.4028    0.6382   -2.8148 H   0  0  0  0  0  0  0  0  0  0  0  0
    0.2729    0.1932   -2.5190 H   0  0  0  0  0  0  0  0  0  0  0  0
   -1.0125   -0.9864   -2.2455 H   0  0  0  0  0  0  0  0  0  0  0  0
   -3.4668    1.6236   -1.5686 H   0  0  0  0  0  0  0  0  0  0  0  0
   -5.6355    1.0351   -0.5092 H   0  0  0  0  0  0  0  0  0  0  0  0
   -5.7051   -0.5502    1.3941 H   0  0  0  0  0  0  0  0  0  0  0  0
   -3.6328   -1.5729    2.2579 H   0  0  0  0  0  0  0  0  0  0  0  0
  1  2  1  0
  2  3  1  0
  3  4  2  3
  4  5  1  0
  5  6  2  3
  6  7  1  0
  7  8  1  0
  8  9  2  0
  8 10  1  0
 10 11  1  0
 11 12  2  0
  3 13  1  0
 13 14  1  0
 13 15  1  0
 13 16  1  0
 16 17  2  0
 17 18  1  0
 18 19  2  0
 19 20  1  0
 20 21  2  0
 21  2  1  0
 11  6  1  0
 21 16  1  0
  1 22  1  0
  1 23  1  0
  1 24  1  0
  4 25  1  0
  5 26  1  0
 10 27  1  0
 14 28  1  0
 14 29  1  0
 14 30  1  0
 15 31  1  0
 15 32  1  0
 15 33  1  0
 17 34  1  0
 18 35  1  0
 19 36  1  0
 20 37  1  0
M  END
$$$$
