
     RDKit          3D

 43 45  0  0  0  0  0  0  0  0999 V2000
   -6.7559   -0.1621    1.5121 C   0  0  0  0  0  0  0  0  0  0  0  0
   -6.0285    0.4651    0.4097 N   0  0  0  0  0  0  0  0  0  0  0  0
   -6.8540    1.1661   -0.5721 C   0  0  0  0  0  0  0  0  0  0  0  0
   -4.8091   -0.0895    0.0013 C   0  0  0  0  0  0  0  0  0  0  0  0
   -4.0891   -0.9883    0.8098 C   0  0  0  0  0  0  0  0  0  0  0  0
   -2.8581   -1.5335    0.4155 C   0  0  0  0  0  0  0  0  0  0  0  0
   -2.2965   -1.1859   -0.8095 C   0  0  0  0  0  0  0  0  0  0  0  0
   -1.0049   -1.7361   -1.2209 C   0  0  0  0  0  0  0  0  0  0  0  0
    0.2003   -1.2408   -0.8926 C   0  0  0  0  0  0  0  0  0  0  0  0
    0.4426   -0.0664   -0.0764 C   0  0  0  0  0  0  0  0  0  0  0  0
    1.6273    0.4547    0.2814 C   0  0  0  0  0  0  0  0  0  0  0  0
    1.7321    1.8673    1.2615 S   0  0  0  0  0  0  0  0  0  0  0  0
    3.4890    1.9389    1.1580 C   0  0  0  0  0  0  0  0  0  0  0  0
    4.2920    3.2859    1.7478 S   0  0  0  0  0  0  0  0  0  0  0  0
    3.9693    0.8222    0.4839 N   0  0  0  0  0  0  0  0  0  0  0  0
    5.3612    0.5177    0.3047 C   0  0  0  0  0  0  0  0  0  0  0  0
    6.2890    0.6828    1.3447 C   0  0  0  0  0  0  0  0  0  0  0  0
    7.6419    0.3758    1.1623 C   0  0  0  0  0  0  0  0  0  0  0  0
    8.0897   -0.1114   -0.0612 C   0  0  0  0  0  0  0  0  0  0  0  0
    7.1840   -0.3003   -1.0995 C   0  0  0  0  0  0  0  0  0  0  0  0
    5.8319    0.0064   -0.9159 C   0  0  0  0  0  0  0  0  0  0  0  0
    3.0000   -0.0325   -0.0504 C   0  0  0  0  0  0  0  0  0  0  0  0
    3.1962   -1.0674   -0.6765 O   0  0  0  0  0  0  0  0  0  0  0  0
   -2.9730   -0.2869   -1.6279 C   0  0  0  0  0  0  0  0  0  0  0  0
   -4.2033    0.2519   -1.2220 C   0  0  0  0  0  0  0  0  0  0  0  0
   -6.9963   -1.2061    1.2825 H   0  0  0  0  0  0  0  0  0  0  0  0
   -6.1832   -0.1116    2.4444 H   0  0  0  0  0  0  0  0  0  0  0  0
   -7.6999    0.3571    1.7126 H   0  0  0  0  0  0  0  0  0  0  0  0
   -7.7740    1.5492   -0.1162 H   0  0  0  0  0  0  0  0  0  0  0  0
   -6.3337    2.0416   -0.9752 H   0  0  0  0  0  0  0  0  0  0  0  0
   -7.1440    0.4991   -1.3915 H   0  0  0  0  0  0  0  0  0  0  0  0
   -4.4652   -1.2896    1.7825 H   0  0  0  0  0  0  0  0  0  0  0  0
   -2.3451   -2.2238    1.0808 H   0  0  0  0  0  0  0  0  0  0  0  0
   -1.0655   -2.6239   -1.8469 H   0  0  0  0  0  0  0  0  0  0  0  0
    1.0657   -1.7740   -1.2812 H   0  0  0  0  0  0  0  0  0  0  0  0
   -0.4565    0.4415    0.2751 H   0  0  0  0  0  0  0  0  0  0  0  0
    5.9798    1.0109    2.3335 H   0  0  0  0  0  0  0  0  0  0  0  0
    8.3427    0.5090    1.9831 H   0  0  0  0  0  0  0  0  0  0  0  0
    9.1402   -0.3517   -0.2023 H   0  0  0  0  0  0  0  0  0  0  0  0
    7.5253   -0.6879   -2.0562 H   0  0  0  0  0  0  0  0  0  0  0  0
    5.1600   -0.1430   -1.7584 H   0  0  0  0  0  0  0  0  0  0  0  0
   -2.5517    0.0126   -2.5845 H   0  0  0  0  0  0  0  0  0  0  0  0
   -4.6727    0.9567   -1.9011 H   0  0  0  0  0  0  0  0  0  0  0  0
  1  2  1  0
  2  3  1  0
  2  4  1  0
  4  5  2  0
  5  6  1  0
  6  7  2  0
  7  8  1  0
  8  9  2  3
  9 10  1  0
 10 11  2  3
 11 12  1  0
 12 13  1  0
 13 14  2  0
 13 15  1  0
 15 16  1  0
 16 17  2  0
 17 18  1  0
 18 19  2  0
 19 20  1  0
 20 21  2  0
 15 22  1  0
 22 23  2  0
  7 24  1  0
 24 25  2  0
 25  4  1  0
 22 11  1  0
 21 16  1  0
  1 26  1  0
  1 27  1  0
  1 28  1  0
  3 29  1  0
  3 30  1  0
  3 31  1  0
  5 32  1  0
  6 33  1  0
  8 34  1  0
  9 35  1  0
 10 36  1  0
 17 37  1  0
 18 38  1  0
 19 39  1  0
 20 40  1  0
 21 41  1  0
 24 42  1  0
 25 43  1  0
M  END
$$$$
