
     RDKit          3D

 46 48  0  0  0  0  0  0  0  0999 V2000
   -5.9596    2.3905   -0.3894 C   0  0  0  0  0  0  0  0  0  0  0  0
   -6.1915    1.1546   -1.0508 O   0  0  0  0  0  0  0  0  0  0  0  0
   -5.4032    0.0908   -0.6960 C   0  0  0  0  0  0  0  0  0  0  0  0
   -4.3180    0.1548    0.1839 C   0  0  0  0  0  0  0  0  0  0  0  0
   -3.5672   -0.9949    0.4705 C   0  0  0  0  0  0  0  0  0  0  0  0
   -2.4247   -0.9074    1.3792 C   0  0  0  0  0  0  0  0  0  0  0  0
   -1.1550   -0.8793    0.9521 C   0  0  0  0  0  0  0  0  0  0  0  0
   -0.6085   -0.9016   -0.4428 C   0  0  0  0  0  0  0  0  0  0  0  0
    0.8057   -0.3335   -0.3248 C   0  0  0  0  0  0  0  0  0  0  0  0
    1.2031   -0.5749    1.0991 C   0  0  0  0  0  0  0  0  0  0  0  0
    2.4203   -0.6404    1.6544 C   0  0  0  0  0  0  0  0  0  0  0  0
    3.6515   -0.4473    0.8896 C   0  0  0  0  0  0  0  0  0  0  0  0
    4.3238   -1.5566    0.3614 C   0  0  0  0  0  0  0  0  0  0  0  0
    5.4901   -1.3770   -0.3798 C   0  0  0  0  0  0  0  0  0  0  0  0
    5.9714   -0.0903   -0.5867 C   0  0  0  0  0  0  0  0  0  0  0  0
    7.1198    0.0583   -1.3165 O   0  0  0  0  0  0  0  0  0  0  0  0
    5.3157    1.0333   -0.0689 C   0  0  0  0  0  0  0  0  0  0  0  0
    5.9132    2.2354   -0.3536 O   0  0  0  0  0  0  0  0  0  0  0  0
    5.2952    3.3977    0.1888 C   0  0  0  0  0  0  0  0  0  0  0  0
    4.1481    0.8479    0.6724 C   0  0  0  0  0  0  0  0  0  0  0  0
   -0.0234   -0.7854    1.9067 C   0  0  0  0  0  0  0  0  0  0  0  0
   -0.0887   -0.8629    3.1185 O   0  0  0  0  0  0  0  0  0  0  0  0
   -3.9048   -2.2159   -0.1228 C   0  0  0  0  0  0  0  0  0  0  0  0
   -4.9850   -2.2915   -1.0014 C   0  0  0  0  0  0  0  0  0  0  0  0
   -5.7236   -1.1421   -1.2845 C   0  0  0  0  0  0  0  0  0  0  0  0
   -6.7839   -1.2144   -2.1490 O   0  0  0  0  0  0  0  0  0  0  0  0
   -6.0943    2.2904    0.6926 H   0  0  0  0  0  0  0  0  0  0  0  0
   -4.9673    2.7854   -0.6318 H   0  0  0  0  0  0  0  0  0  0  0  0
   -6.7008    3.1096   -0.7522 H   0  0  0  0  0  0  0  0  0  0  0  0
   -4.0306    1.0902    0.6540 H   0  0  0  0  0  0  0  0  0  0  0  0
   -2.6599   -0.8627    2.4411 H   0  0  0  0  0  0  0  0  0  0  0  0
   -1.2055   -0.3103   -1.1447 H   0  0  0  0  0  0  0  0  0  0  0  0
   -0.5685   -1.9360   -0.8057 H   0  0  0  0  0  0  0  0  0  0  0  0
    0.7954    0.7451   -0.5246 H   0  0  0  0  0  0  0  0  0  0  0  0
    1.4767   -0.8127   -1.0450 H   0  0  0  0  0  0  0  0  0  0  0  0
    2.5426   -0.8430    2.7168 H   0  0  0  0  0  0  0  0  0  0  0  0
    3.9448   -2.5636    0.5243 H   0  0  0  0  0  0  0  0  0  0  0  0
    6.0215   -2.2304   -0.7896 H   0  0  0  0  0  0  0  0  0  0  0  0
    7.2808    1.0217   -1.3398 H   0  0  0  0  0  0  0  0  0  0  0  0
    5.8853    4.2653   -0.1214 H   0  0  0  0  0  0  0  0  0  0  0  0
    5.2921    3.3695    1.2839 H   0  0  0  0  0  0  0  0  0  0  0  0
    4.2829    3.5263   -0.2084 H   0  0  0  0  0  0  0  0  0  0  0  0
    3.6082    1.6874    1.0995 H   0  0  0  0  0  0  0  0  0  0  0  0
   -3.3322   -3.1138    0.1002 H   0  0  0  0  0  0  0  0  0  0  0  0
   -5.2372   -3.2477   -1.4496 H   0  0  0  0  0  0  0  0  0  0  0  0
   -6.8549   -2.1187   -2.4916 H   0  0  0  0  0  0  0  0  0  0  0  0
  1  2  1  0
  2  3  1  0
  3  4  2  0
  4  5  1  0
  5  6  1  0
  6  7  2  3
  7  8  1  0
  8  9  1  0
  9 10  1  0
 10 11  2  3
 11 12  1  0
 12 13  2  0
 13 14  1  0
 14 15  2  0
 15 16  1  0
 15 17  1  0
 17 18  1  0
 18 19  1  0
 17 20  2  0
 10 21  1  0
 21 22  2  0
  5 23  2  0
 23 24  1  0
 24 25  2  0
 25 26  1  0
 25  3  1  0
 21  7  1  0
 20 12  1  0
  1 27  1  0
  1 28  1  0
  1 29  1  0
  4 30  1  0
  6 31  1  0
  8 32  1  0
  8 33  1  0
  9 34  1  0
  9 35  1  0
 11 36  1  0
 13 37  1  0
 14 38  1  0
 16 39  1  0
 19 40  1  0
 19 41  1  0
 19 42  1  0
 20 43  1  0
 23 44  1  0
 24 45  1  0
 26 46  1  0
M  END
$$$$
