
     RDKit          3D

 39 40  0  0  0  0  0  0  0  0999 V2000
   -0.8967   -3.2858    1.1159 C   0  0  0  0  0  0  0  0  0  0  0  0
   -1.3466   -1.8827    0.6999 C   0  0  0  0  0  0  0  0  0  0  0  0
   -2.5150   -2.0687   -0.0924 O   0  0  0  0  0  0  0  0  0  0  0  0
   -3.2282   -0.9793   -0.5147 C   0  0  0  0  0  0  0  0  0  0  0  0
   -3.1166    0.3038    0.0318 C   0  0  0  0  0  0  0  0  0  0  0  0
   -3.8978    1.3558   -0.4626 C   0  0  0  0  0  0  0  0  0  0  0  0
   -4.7934    1.1231   -1.5146 C   0  0  0  0  0  0  0  0  0  0  0  0
   -5.6149    2.2248   -2.0287 N   0  0  0  0  0  4  0  0  0  0  0  0
   -5.4830    3.3375   -1.4996 O   0  0  0  0  0  0  0  0  0  0  0  0
   -6.3959    1.9742   -2.9559 O   0  0  0  0  0  1  0  0  0  0  0  0
   -4.9231   -0.1539   -2.0678 C   0  0  0  0  0  0  0  0  0  0  0  0
   -4.1473   -1.1974   -1.5588 C   0  0  0  0  0  0  0  0  0  0  0  0
   -4.3509   -2.7653   -2.2591 Cl  0  0  0  0  0  0  0  0  0  0  0  0
   -0.1698   -1.1641   -0.0126 C   0  0  0  0  0  0  0  0  0  0  0  0
   -0.2057   -0.8940   -1.2093 O   0  0  0  0  0  0  0  0  0  0  0  0
    0.8730   -0.8553    0.8542 N   0  0  0  0  0  0  0  0  0  0  0  0
    2.0802   -0.1955    0.5421 C   0  0  0  0  0  0  0  0  0  0  0  0
    3.0065   -0.0329    1.5806 C   0  0  0  0  0  0  0  0  0  0  0  0
    4.2313    0.6094    1.3595 C   0  0  0  0  0  0  0  0  0  0  0  0
    4.5425    1.1052    0.0903 C   0  0  0  0  0  0  0  0  0  0  0  0
    5.8318    1.7869   -0.2083 C   0  0  0  0  0  0  0  0  0  0  0  0
    6.5325    2.3118    0.8427 N   0  0  0  0  0  0  0  0  0  0  0  0
    6.2455    1.9107   -1.3537 O   0  0  0  0  0  0  0  0  0  0  0  0
    3.6283    0.9282   -0.9518 C   0  0  0  0  0  0  0  0  0  0  0  0
    2.4037    0.2869   -0.7258 C   0  0  0  0  0  0  0  0  0  0  0  0
   -0.0304   -3.2630    1.7829 H   0  0  0  0  0  0  0  0  0  0  0  0
   -0.6327   -3.8842    0.2364 H   0  0  0  0  0  0  0  0  0  0  0  0
   -1.7096   -3.8140    1.6266 H   0  0  0  0  0  0  0  0  0  0  0  0
   -1.6024   -1.3335    1.6148 H   0  0  0  0  0  0  0  0  0  0  0  0
   -2.4346    0.5268    0.8469 H   0  0  0  0  0  0  0  0  0  0  0  0
   -3.7962    2.3446   -0.0144 H   0  0  0  0  0  0  0  0  0  0  0  0
   -5.6186   -0.3468   -2.8801 H   0  0  0  0  0  0  0  0  0  0  0  0
    0.7724   -1.1455    1.8184 H   0  0  0  0  0  0  0  0  0  0  0  0
    2.7958   -0.4114    2.5785 H   0  0  0  0  0  0  0  0  0  0  0  0
    4.9361    0.6908    2.1820 H   0  0  0  0  0  0  0  0  0  0  0  0
    6.1026    2.5045    1.7352 H   0  0  0  0  0  0  0  0  0  0  0  0
    7.3310    2.8805    0.5897 H   0  0  0  0  0  0  0  0  0  0  0  0
    3.8631    1.2881   -1.9533 H   0  0  0  0  0  0  0  0  0  0  0  0
    1.7331    0.1797   -1.5726 H   0  0  0  0  0  0  0  0  0  0  0  0
  1  2  1  0
  2  3  1  0
  3  4  1  0
  4  5  2  0
  5  6  1  0
  6  7  2  0
  7  8  1  0
  8  9  2  0
  8 10  1  0
  7 11  1  0
 11 12  2  0
 12 13  1  0
  2 14  1  0
 14 15  2  0
 14 16  1  0
 16 17  1  0
 17 18  2  0
 18 19  1  0
 19 20  2  0
 20 21  1  0
 21 22  1  0
 21 23  2  0
 20 24  1  0
 24 25  2  0
 12  4  1  0
 25 17  1  0
  1 26  1  0
  1 27  1  0
  1 28  1  0
  2 29  1  0
  5 30  1  0
  6 31  1  0
 11 32  1  0
 16 33  1  0
 18 34  1  0
 19 35  1  0
 22 36  1  0
 22 37  1  0
 24 38  1  0
 25 39  1  0
M  CHG  2   8   1  10  -1
M  END
$$$$
