
     RDKit          3D

 52 51  0  0  0  0  0  0  0  0999 V2000
   -6.1340   -1.3489   -1.9780 C   0  0  0  0  0  0  0  0  0  0  0  0
   -5.8329   -0.2398   -1.6274 C   0  0  0  0  0  0  0  0  0  0  0  0
   -5.4727    1.1195   -1.2149 C   0  0  0  0  0  0  0  0  0  0  0  0
   -4.8540    1.1572    0.2051 N   0  0  0  0  0  4  0  0  0  0  0  0
   -5.8665    0.6182    1.2120 C   0  0  0  0  0  0  0  0  0  0  0  0
   -4.5684    2.6224    0.5236 C   0  0  0  0  0  0  0  0  0  0  0  0
   -3.5535    0.3244    0.2075 C   0  0  0  0  0  0  0  0  0  0  0  0
   -2.7688    0.4172    1.5194 C   0  0  0  0  0  0  0  0  0  0  0  0
   -1.5746   -0.5450    1.5611 C   0  0  0  0  0  0  0  0  0  0  0  0
   -0.4968   -0.2238    0.5218 C   0  0  0  0  0  0  0  0  0  0  0  0
    0.7201   -1.1376    0.6902 C   0  0  0  0  0  0  0  0  0  0  0  0
    1.7809   -0.9509   -0.3998 C   0  0  0  0  0  0  0  0  0  0  0  0
    2.4723    0.4135   -0.3463 C   0  0  0  0  0  0  0  0  0  0  0  0
    3.5290    0.6045   -1.4400 C   0  0  0  0  0  0  0  0  0  0  0  0
    4.6958   -0.3880   -1.4287 C   0  0  0  0  0  0  0  0  0  0  0  0
    5.4928   -0.3782   -0.1229 C   0  0  0  0  0  0  0  0  0  0  0  0
    6.7124   -1.2964   -0.2120 C   0  0  0  0  0  0  0  0  0  0  0  0
    7.5065   -1.2950    1.0846 C   0  0  0  0  0  0  0  0  0  0  0  0
   -6.4062   -2.3296   -2.3018 H   0  0  0  0  0  0  0  0  0  0  0  0
   -6.3583    1.7652   -1.1994 H   0  0  0  0  0  0  0  0  0  0  0  0
   -4.7353    1.5562   -1.8981 H   0  0  0  0  0  0  0  0  0  0  0  0
   -5.9688   -0.4615    1.0751 H   0  0  0  0  0  0  0  0  0  0  0  0
   -6.8230    1.1233    1.0458 H   0  0  0  0  0  0  0  0  0  0  0  0
   -5.5106    0.8359    2.2223 H   0  0  0  0  0  0  0  0  0  0  0  0
   -5.4923    3.1937    0.3895 H   0  0  0  0  0  0  0  0  0  0  0  0
   -3.7931    2.9809   -0.1598 H   0  0  0  0  0  0  0  0  0  0  0  0
   -4.2388    2.7051    1.5624 H   0  0  0  0  0  0  0  0  0  0  0  0
   -2.9497    0.6923   -0.6294 H   0  0  0  0  0  0  0  0  0  0  0  0
   -3.8316   -0.7170    0.0130 H   0  0  0  0  0  0  0  0  0  0  0  0
   -3.4154    0.1737    2.3686 H   0  0  0  0  0  0  0  0  0  0  0  0
   -2.4002    1.4368    1.6761 H   0  0  0  0  0  0  0  0  0  0  0  0
   -1.1313   -0.4955    2.5636 H   0  0  0  0  0  0  0  0  0  0  0  0
   -1.9280   -1.5741    1.4230 H   0  0  0  0  0  0  0  0  0  0  0  0
   -0.9012   -0.3485   -0.4887 H   0  0  0  0  0  0  0  0  0  0  0  0
   -0.1980    0.8245    0.6293 H   0  0  0  0  0  0  0  0  0  0  0  0
    0.3864   -2.1826    0.6646 H   0  0  0  0  0  0  0  0  0  0  0  0
    1.1733   -0.9753    1.6758 H   0  0  0  0  0  0  0  0  0  0  0  0
    2.5264   -1.7439   -0.2725 H   0  0  0  0  0  0  0  0  0  0  0  0
    1.3251   -1.0982   -1.3863 H   0  0  0  0  0  0  0  0  0  0  0  0
    2.9216    0.5652    0.6416 H   0  0  0  0  0  0  0  0  0  0  0  0
    1.7273    1.2076   -0.4705 H   0  0  0  0  0  0  0  0  0  0  0  0
    3.0382    0.5499   -2.4198 H   0  0  0  0  0  0  0  0  0  0  0  0
    3.9316    1.6218   -1.3553 H   0  0  0  0  0  0  0  0  0  0  0  0
    4.3309   -1.4007   -1.6347 H   0  0  0  0  0  0  0  0  0  0  0  0
    5.3657   -0.1303   -2.2589 H   0  0  0  0  0  0  0  0  0  0  0  0
    5.8186    0.6446    0.1018 H   0  0  0  0  0  0  0  0  0  0  0  0
    4.8577   -0.7077    0.7071 H   0  0  0  0  0  0  0  0  0  0  0  0
    7.3637   -0.9728   -1.0322 H   0  0  0  0  0  0  0  0  0  0  0  0
    6.3917   -2.3204   -0.4364 H   0  0  0  0  0  0  0  0  0  0  0  0
    7.8691   -0.2896    1.3215 H   0  0  0  0  0  0  0  0  0  0  0  0
    8.3736   -1.9574    0.9987 H   0  0  0  0  0  0  0  0  0  0  0  0
    6.8931   -1.6453    1.9208 H   0  0  0  0  0  0  0  0  0  0  0  0
  1  2  3  0
  2  3  1  0
  3  4  1  0
  4  5  1  0
  4  6  1  0
  4  7  1  0
  7  8  1  0
  8  9  1  0
  9 10  1  0
 10 11  1  0
 11 12  1  0
 12 13  1  0
 13 14  1  0
 14 15  1  0
 15 16  1  0
 16 17  1  0
 17 18  1  0
  1 19  1  0
  3 20  1  0
  3 21  1  0
  5 22  1  0
  5 23  1  0
  5 24  1  0
  6 25  1  0
  6 26  1  0
  6 27  1  0
  7 28  1  0
  7 29  1  0
  8 30  1  0
  8 31  1  0
  9 32  1  0
  9 33  1  0
 10 34  1  0
 10 35  1  0
 11 36  1  0
 11 37  1  0
 12 38  1  0
 12 39  1  0
 13 40  1  0
 13 41  1  0
 14 42  1  0
 14 43  1  0
 15 44  1  0
 15 45  1  0
 16 46  1  0
 16 47  1  0
 17 48  1  0
 17 49  1  0
 18 50  1  0
 18 51  1  0
 18 52  1  0
M  CHG  1   4   1
M  END
$$$$
