
     RDKit          3D

 57 60  0  0  0  0  0  0  0  0999 V2000
   -3.7999   -3.2833   -0.3328 C   0  0  0  0  0  0  0  0  0  0  0  0
   -4.7190   -2.1712    0.1679 C   0  0  0  0  0  0  0  0  0  0  0  0
   -6.1653   -2.6738    0.1936 C   0  0  0  0  0  0  0  0  0  0  0  0
   -4.5942   -0.9322   -0.7260 C   0  0  0  0  0  0  0  0  0  0  0  0
   -5.4758   -0.6544   -1.5429 O   0  0  0  0  0  0  0  0  0  0  0  0
   -3.4473   -0.1582   -0.6259 N   0  0  0  0  0  0  0  0  0  0  0  0
   -3.2822    0.9626   -1.5615 C   0  0  0  0  0  0  0  0  0  0  0  0
   -1.8070    1.3153   -1.8163 C   0  0  0  0  0  0  0  0  0  0  0  0
   -1.0339    1.5412   -0.5678 N   0  0  0  0  0  0  0  0  0  0  0  0
   -0.5614    2.8735   -0.3993 C   0  0  0  0  0  0  0  0  0  0  0  0
   -1.4048    3.9906   -0.4903 C   0  0  0  0  0  0  0  0  0  0  0  0
   -0.9031    5.2763   -0.2807 C   0  0  0  0  0  0  0  0  0  0  0  0
    0.4440    5.4593    0.0252 C   0  0  0  0  0  0  0  0  0  0  0  0
    1.2995    4.3603    0.1239 C   0  0  0  0  0  0  0  0  0  0  0  0
    0.8064    3.0726   -0.0854 C   0  0  0  0  0  0  0  0  0  0  0  0
    1.5969    1.9060   -0.0335 N   0  0  0  0  0  0  0  0  0  0  0  0
    2.9191    1.7821    0.3272 C   0  0  0  0  0  0  0  0  0  0  0  0
    3.6483    2.6701    0.7530 O   0  0  0  0  0  0  0  0  0  0  0  0
    3.4692    0.4011    0.2140 C   0  0  0  0  0  0  0  0  0  0  0  0
    3.0546   -0.4770   -0.7993 C   0  0  0  0  0  0  0  0  0  0  0  0
    3.5912   -1.7653   -0.8708 C   0  0  0  0  0  0  0  0  0  0  0  0
    4.5422   -2.1748    0.0619 C   0  0  0  0  0  0  0  0  0  0  0  0
    4.9879   -1.2864    1.0466 C   0  0  0  0  0  0  0  0  0  0  0  0
    4.4473   -0.0048    1.1304 C   0  0  0  0  0  0  0  0  0  0  0  0
    5.9503   -1.6114    1.9681 O   0  0  0  0  0  0  0  0  0  0  0  0
    6.6774   -2.7796    1.5708 C   0  0  0  0  0  0  0  0  0  0  0  0
    5.7240   -3.8701    1.1116 C   0  0  0  0  0  0  0  0  0  0  0  0
    5.0081   -3.4590   -0.0593 O   0  0  0  0  0  0  0  0  0  0  0  0
   -1.6946    1.0683    0.6747 C   0  0  0  0  0  0  0  0  0  0  0  0
   -2.4311   -0.2626    0.4321 C   0  0  0  0  0  0  0  0  0  0  0  0
   -4.0359   -3.5516   -1.3688 H   0  0  0  0  0  0  0  0  0  0  0  0
   -2.7482   -2.9871   -0.3078 H   0  0  0  0  0  0  0  0  0  0  0  0
   -3.9050   -4.1824    0.2835 H   0  0  0  0  0  0  0  0  0  0  0  0
   -4.4596   -1.9079    1.1967 H   0  0  0  0  0  0  0  0  0  0  0  0
   -6.2688   -3.5259    0.8739 H   0  0  0  0  0  0  0  0  0  0  0  0
   -6.4996   -2.9915   -0.8002 H   0  0  0  0  0  0  0  0  0  0  0  0
   -6.8441   -1.8847    0.5359 H   0  0  0  0  0  0  0  0  0  0  0  0
   -3.8103    1.8190   -1.1257 H   0  0  0  0  0  0  0  0  0  0  0  0
   -3.7686    0.7291   -2.5149 H   0  0  0  0  0  0  0  0  0  0  0  0
   -1.7376    2.1616   -2.5108 H   0  0  0  0  0  0  0  0  0  0  0  0
   -1.3335    0.4662   -2.3255 H   0  0  0  0  0  0  0  0  0  0  0  0
   -2.4614    3.8726   -0.7097 H   0  0  0  0  0  0  0  0  0  0  0  0
   -1.5639    6.1364   -0.3518 H   0  0  0  0  0  0  0  0  0  0  0  0
    0.8352    6.4608    0.1877 H   0  0  0  0  0  0  0  0  0  0  0  0
    2.3451    4.5367    0.3555 H   0  0  0  0  0  0  0  0  0  0  0  0
    1.0535    1.0762   -0.2521 H   0  0  0  0  0  0  0  0  0  0  0  0
    2.3369   -0.1649   -1.5539 H   0  0  0  0  0  0  0  0  0  0  0  0
    3.2708   -2.4479   -1.6539 H   0  0  0  0  0  0  0  0  0  0  0  0
    4.7951    0.6797    1.9005 H   0  0  0  0  0  0  0  0  0  0  0  0
    7.2552   -3.1208    2.4352 H   0  0  0  0  0  0  0  0  0  0  0  0
    7.3815   -2.5005    0.7772 H   0  0  0  0  0  0  0  0  0  0  0  0
    6.2806   -4.7777    0.8578 H   0  0  0  0  0  0  0  0  0  0  0  0
    4.9965   -4.1222    1.8932 H   0  0  0  0  0  0  0  0  0  0  0  0
   -0.9401    0.9206    1.4567 H   0  0  0  0  0  0  0  0  0  0  0  0
   -2.4188    1.8084    1.0411 H   0  0  0  0  0  0  0  0  0  0  0  0
   -2.8896   -0.5930    1.3664 H   0  0  0  0  0  0  0  0  0  0  0  0
   -1.7123   -1.0242    0.1115 H   0  0  0  0  0  0  0  0  0  0  0  0
  1  2  1  0
  2  3  1  0
  2  4  1  0
  4  5  2  0
  4  6  1  0
  6  7  1  0
  7  8  1  0
  8  9  1  0
  9 10  1  0
 10 11  2  0
 11 12  1  0
 12 13  2  0
 13 14  1  0
 14 15  2  0
 15 16  1  0
 16 17  1  0
 17 18  2  0
 17 19  1  0
 19 20  2  0
 20 21  1  0
 21 22  2  0
 22 23  1  0
 23 24  2  0
 23 25  1  0
 25 26  1  0
 26 27  1  0
 27 28  1  0
  9 29  1  0
 29 30  1  0
 30  6  1  0
 15 10  1  0
 24 19  1  0
 28 22  1  0
  1 31  1  0
  1 32  1  0
  1 33  1  0
  2 34  1  0
  3 35  1  0
  3 36  1  0
  3 37  1  0
  7 38  1  0
  7 39  1  0
  8 40  1  0
  8 41  1  0
 11 42  1  0
 12 43  1  0
 13 44  1  0
 14 45  1  0
 16 46  1  0
 20 47  1  0
 21 48  1  0
 24 49  1  0
 26 50  1  0
 26 51  1  0
 27 52  1  0
 27 53  1  0
 29 54  1  0
 29 55  1  0
 30 56  1  0
 30 57  1  0
M  END
$$$$
