
     RDKit          3D

 51 55  0  0  0  0  0  0  0  0999 V2000
   -0.9928    1.1787    1.4578 C   0  0  0  0  0  0  0  0  0  0  0  0
   -1.2090   -0.1921    0.8609 C   0  0  0  0  0  0  0  0  0  0  0  0
   -0.1380   -0.6563    0.1038 N   0  0  0  0  0  0  0  0  0  0  0  0
   -0.1537   -1.8721   -0.4919 C   0  0  0  0  0  0  0  0  0  0  0  0
    0.7220   -2.5709   -1.2975 C   0  0  0  0  0  0  0  0  0  0  0  0
    1.9920   -2.1526   -1.8514 C   0  0  0  0  0  0  0  0  0  0  0  0
    2.8608   -2.9562   -2.1699 O   0  0  0  0  0  0  0  0  0  0  0  0
    2.1110   -0.7947   -2.0213 N   0  0  0  0  0  0  0  0  0  0  0  0
    3.3329   -0.1667   -2.4565 C   0  0  0  0  0  0  0  0  0  0  0  0
    3.9200    0.6342   -1.3228 C   0  0  0  0  0  0  0  0  0  0  0  0
    3.5581    1.9884   -1.1374 C   0  0  0  0  0  0  0  0  0  0  0  0
    4.0720    2.7301   -0.0691 C   0  0  0  0  0  0  0  0  0  0  0  0
    4.9376    2.0950    0.7939 C   0  0  0  0  0  0  0  0  0  0  0  0
    5.2877    0.7751    0.6299 C   0  0  0  0  0  0  0  0  0  0  0  0
    4.7930    0.0174   -0.4099 C   0  0  0  0  0  0  0  0  0  0  0  0
    6.1464    0.3403    1.5937 O   0  0  0  0  0  0  0  0  0  0  0  0
    6.3402    1.5527    2.3512 C   0  0  0  0  0  0  0  0  0  0  0  0
    5.5332    2.6568    1.8804 O   0  0  0  0  0  0  0  0  0  0  0  0
    0.0974   -3.8304   -1.4550 C   0  0  0  0  0  0  0  0  0  0  0  0
   -1.0986   -3.9058   -0.8646 N   0  0  0  0  0  0  0  0  0  0  0  0
   -1.2525   -2.6820   -0.2912 N   0  0  0  0  0  0  0  0  0  0  0  0
   -2.3893   -2.3163    0.4467 C   0  0  0  0  0  0  0  0  0  0  0  0
   -3.3224   -3.0951    0.6008 O   0  0  0  0  0  0  0  0  0  0  0  0
   -2.3414   -0.9233    1.0268 C   0  0  0  0  0  0  0  0  0  0  0  0
   -3.5743   -0.5305    1.8074 C   0  0  0  0  0  0  0  0  0  0  0  0
   -4.6605    0.0788    0.9502 C   0  0  0  0  0  0  0  0  0  0  0  0
   -5.5460   -0.7331    0.2231 C   0  0  0  0  0  0  0  0  0  0  0  0
   -6.5423   -0.1660   -0.5780 C   0  0  0  0  0  0  0  0  0  0  0  0
   -6.6714    1.2189   -0.6604 C   0  0  0  0  0  0  0  0  0  0  0  0
   -5.7995    2.0390    0.0580 C   0  0  0  0  0  0  0  0  0  0  0  0
   -4.8087    1.4661    0.8520 C   0  0  0  0  0  0  0  0  0  0  0  0
   -3.9911    2.2812    1.5365 F   0  0  0  0  0  0  0  0  0  0  0  0
   -0.1096    1.1644    2.1056 H   0  0  0  0  0  0  0  0  0  0  0  0
   -1.8230    1.5368    2.0637 H   0  0  0  0  0  0  0  0  0  0  0  0
   -0.8240    1.9131    0.6637 H   0  0  0  0  0  0  0  0  0  0  0  0
    0.7260   -0.1170    0.1888 H   0  0  0  0  0  0  0  0  0  0  0  0
    1.3030   -0.2103   -1.8577 H   0  0  0  0  0  0  0  0  0  0  0  0
    3.0852    0.4900   -3.2982 H   0  0  0  0  0  0  0  0  0  0  0  0
    4.0539   -0.9063   -2.8211 H   0  0  0  0  0  0  0  0  0  0  0  0
    2.8754    2.4702   -1.8326 H   0  0  0  0  0  0  0  0  0  0  0  0
    3.8055    3.7716    0.0742 H   0  0  0  0  0  0  0  0  0  0  0  0
    5.0761   -1.0263   -0.5133 H   0  0  0  0  0  0  0  0  0  0  0  0
    7.3987    1.8403    2.2870 H   0  0  0  0  0  0  0  0  0  0  0  0
    6.0926    1.3530    3.4024 H   0  0  0  0  0  0  0  0  0  0  0  0
    0.4676   -4.6908   -2.0006 H   0  0  0  0  0  0  0  0  0  0  0  0
   -3.3228    0.1562    2.6222 H   0  0  0  0  0  0  0  0  0  0  0  0
   -3.9866   -1.4004    2.3350 H   0  0  0  0  0  0  0  0  0  0  0  0
   -5.4725   -1.8191    0.2769 H   0  0  0  0  0  0  0  0  0  0  0  0
   -7.2207   -0.8115   -1.1365 H   0  0  0  0  0  0  0  0  0  0  0  0
   -7.4502    1.6567   -1.2812 H   0  0  0  0  0  0  0  0  0  0  0  0
   -5.8876    3.1204    0.0078 H   0  0  0  0  0  0  0  0  0  0  0  0
  1  2  1  0
  2  3  1  0
  3  4  1  0
  4  5  2  0
  5  6  1  0
  6  7  2  0
  6  8  1  0
  8  9  1  0
  9 10  1  0
 10 11  2  0
 11 12  1  0
 12 13  2  0
 13 14  1  0
 14 15  2  0
 14 16  1  0
 16 17  1  0
 17 18  1  0
  5 19  1  0
 19 20  2  0
 20 21  1  0
 21 22  1  0
 22 23  2  0
 22 24  1  0
 24 25  1  0
 25 26  1  0
 26 27  2  0
 27 28  1  0
 28 29  2  0
 29 30  1  0
 30 31  2  0
 31 32  1  0
 24  2  2  0
 31 26  1  0
 21  4  1  0
 15 10  1  0
 18 13  1  0
  1 33  1  0
  1 34  1  0
  1 35  1  0
  3 36  1  0
  8 37  1  0
  9 38  1  0
  9 39  1  0
 11 40  1  0
 12 41  1  0
 15 42  1  0
 17 43  1  0
 17 44  1  0
 19 45  1  0
 25 46  1  0
 25 47  1  0
 27 48  1  0
 28 49  1  0
 29 50  1  0
 30 51  1  0
M  END
$$$$
