
     RDKit          3D

 56 58  0  0  0  0  0  0  0  0999 V2000
    1.6642   -0.5740   -3.0927 C   0  0  0  0  0  0  0  0  0  0  0  0
    2.2074    0.2302   -2.0555 O   0  0  0  0  0  0  0  0  0  0  0  0
    1.4328    0.4404   -0.9422 C   0  0  0  0  0  0  0  0  0  0  0  0
    0.0848    0.0778   -0.8319 C   0  0  0  0  0  0  0  0  0  0  0  0
   -0.6332    0.3312    0.3459 C   0  0  0  0  0  0  0  0  0  0  0  0
   -2.0558   -0.0342    0.4045 C   0  0  0  0  0  0  0  0  0  0  0  0
   -2.6365   -0.5522    1.4977 C   0  0  0  0  0  0  0  0  0  0  0  0
   -4.0666   -0.9464    1.6037 C   0  0  0  0  0  0  0  0  0  0  0  0
   -4.4786   -1.5360    2.5971 O   0  0  0  0  0  0  0  0  0  0  0  0
   -4.9944   -0.6441    0.5034 C   0  0  0  0  0  0  0  0  0  0  0  0
   -5.4879    0.6635    0.3256 C   0  0  0  0  0  0  0  0  0  0  0  0
   -5.0227    1.6149    1.1943 O   0  0  0  0  0  0  0  0  0  0  0  0
   -5.5891    2.9176    1.1166 C   0  0  0  0  0  0  0  0  0  0  0  0
   -6.3977    0.9149   -0.7147 C   0  0  0  0  0  0  0  0  0  0  0  0
   -6.8184   -0.1171   -1.5603 C   0  0  0  0  0  0  0  0  0  0  0  0
   -6.3190   -1.3945   -1.3566 C   0  0  0  0  0  0  0  0  0  0  0  0
   -6.7138   -2.4411   -2.1862 O   0  0  0  0  0  0  0  0  0  0  0  0
   -6.0455   -3.5851   -1.7593 C   0  0  0  0  0  0  0  0  0  0  0  0
   -6.1834   -4.6695   -2.3085 O   0  0  0  0  0  0  0  0  0  0  0  0
   -4.9656   -3.3670   -0.3799 S   0  0  0  0  0  0  0  0  0  0  0  0
   -5.4156   -1.6691   -0.3370 C   0  0  0  0  0  0  0  0  0  0  0  0
    0.0058    0.9864    1.4040 C   0  0  0  0  0  0  0  0  0  0  0  0
    1.3492    1.3567    1.3024 C   0  0  0  0  0  0  0  0  0  0  0  0
    2.0704    1.0693    0.1421 C   0  0  0  0  0  0  0  0  0  0  0  0
    3.3826    1.4304   -0.0305 O   0  0  0  0  0  0  0  0  0  0  0  0
    4.2625    1.2256    1.0752 C   0  0  0  0  0  0  0  0  0  0  0  0
    4.5611   -0.2474    1.3482 C   0  0  0  0  0  0  0  0  0  0  0  0
    4.9955   -1.0946    0.1402 C   0  0  0  0  0  0  0  0  0  0  0  0
    6.2566   -0.7969   -0.5483 N   0  0  0  0  0  0  0  0  0  0  0  0
    7.3823   -0.5537    0.3417 C   0  0  0  0  0  0  0  0  0  0  0  0
    6.1304    0.2355   -1.5703 C   0  0  0  0  0  0  0  0  0  0  0  0
    1.3751   -1.5627   -2.7207 H   0  0  0  0  0  0  0  0  0  0  0  0
    2.4440   -0.7187   -3.8461 H   0  0  0  0  0  0  0  0  0  0  0  0
    0.8212   -0.0710   -3.5777 H   0  0  0  0  0  0  0  0  0  0  0  0
   -0.4276   -0.4061   -1.6571 H   0  0  0  0  0  0  0  0  0  0  0  0
   -2.6107    0.1292   -0.5146 H   0  0  0  0  0  0  0  0  0  0  0  0
   -2.0715   -0.7498    2.4044 H   0  0  0  0  0  0  0  0  0  0  0  0
   -5.1443    3.5238    1.9117 H   0  0  0  0  0  0  0  0  0  0  0  0
   -6.6707    2.8892    1.2840 H   0  0  0  0  0  0  0  0  0  0  0  0
   -5.3474    3.3940    0.1607 H   0  0  0  0  0  0  0  0  0  0  0  0
   -6.8002    1.9081   -0.8933 H   0  0  0  0  0  0  0  0  0  0  0  0
   -7.5243    0.0800   -2.3627 H   0  0  0  0  0  0  0  0  0  0  0  0
   -0.5383    1.2391    2.3114 H   0  0  0  0  0  0  0  0  0  0  0  0
    1.7986    1.8958    2.1292 H   0  0  0  0  0  0  0  0  0  0  0  0
    3.8977    1.7208    1.9815 H   0  0  0  0  0  0  0  0  0  0  0  0
    5.1953    1.7459    0.8352 H   0  0  0  0  0  0  0  0  0  0  0  0
    3.6537   -0.7145    1.7523 H   0  0  0  0  0  0  0  0  0  0  0  0
    5.3086   -0.3176    2.1471 H   0  0  0  0  0  0  0  0  0  0  0  0
    4.1784   -1.1462   -0.5894 H   0  0  0  0  0  0  0  0  0  0  0  0
    5.0868   -2.1264    0.5078 H   0  0  0  0  0  0  0  0  0  0  0  0
    8.3177   -0.5143   -0.2274 H   0  0  0  0  0  0  0  0  0  0  0  0
    7.4908   -1.3717    1.0623 H   0  0  0  0  0  0  0  0  0  0  0  0
    7.2858    0.3862    0.8945 H   0  0  0  0  0  0  0  0  0  0  0  0
    5.9670    1.2331   -1.1563 H   0  0  0  0  0  0  0  0  0  0  0  0
    5.3111    0.0068   -2.2604 H   0  0  0  0  0  0  0  0  0  0  0  0
    7.0411    0.2757   -2.1785 H   0  0  0  0  0  0  0  0  0  0  0  0
  1  2  1  0
  2  3  1  0
  3  4  2  0
  4  5  1  0
  5  6  1  0
  6  7  2  0
  7  8  1  0
  8  9  2  0
  8 10  1  0
 10 11  2  0
 11 12  1  0
 12 13  1  0
 11 14  1  0
 14 15  2  0
 15 16  1  0
 16 17  1  0
 17 18  1  0
 18 19  2  0
 18 20  1  0
 20 21  1  0
  5 22  2  0
 22 23  1  0
 23 24  2  0
 24 25  1  0
 25 26  1  0
 26 27  1  0
 27 28  1  0
 28 29  1  0
 29 30  1  0
 29 31  1  0
 24  3  1  0
 21 10  1  0
 21 16  2  0
  1 32  1  0
  1 33  1  0
  1 34  1  0
  4 35  1  0
  6 36  1  0
  7 37  1  0
 13 38  1  0
 13 39  1  0
 13 40  1  0
 14 41  1  0
 15 42  1  0
 22 43  1  0
 23 44  1  0
 26 45  1  0
 26 46  1  0
 27 47  1  0
 27 48  1  0
 28 49  1  0
 28 50  1  0
 30 51  1  0
 30 52  1  0
 30 53  1  0
 31 54  1  0
 31 55  1  0
 31 56  1  0
M  END
$$$$
