
     RDKit          3D

 56 58  0  0  0  0  0  0  0  0999 V2000
    8.8512    2.9224    1.5065 C   0  0  0  0  0  0  0  0  0  0  0  0
    9.0249    1.5305    0.9236 C   0  0  0  0  0  0  0  0  0  0  0  0
    8.2519    0.5805    1.6554 O   0  0  0  0  0  0  0  0  0  0  0  0
    6.9812    0.3073    1.2355 C   0  0  0  0  0  0  0  0  0  0  0  0
    6.2704    0.9858    0.2494 C   0  0  0  0  0  0  0  0  0  0  0  0
    4.9645    0.5945   -0.0840 C   0  0  0  0  0  0  0  0  0  0  0  0
    4.3520   -0.4759    0.5673 C   0  0  0  0  0  0  0  0  0  0  0  0
    3.0473   -0.9332    0.2860 N   0  0  0  0  0  0  0  0  0  0  0  0
    2.1544   -0.4173   -0.6393 C   0  0  0  0  0  0  0  0  0  0  0  0
    2.3298    0.5621   -1.3561 O   0  0  0  0  0  0  0  0  0  0  0  0
    0.8481   -1.1939   -0.6537 C   0  0  0  0  0  0  0  0  0  0  0  0
   -0.0436   -0.8093   -1.8290 C   0  0  0  0  0  0  0  0  0  0  0  0
   -0.5435    0.5671   -1.6613 N   0  0  0  0  0  0  0  0  0  0  0  0
   -1.8328    1.0599   -2.6226 S   0  0  0  0  0  6  0  0  0  0  0  0
   -1.6961    2.4899   -2.7856 O   0  0  0  0  0  0  0  0  0  0  0  0
   -1.9556    0.1667   -3.7509 O   0  0  0  0  0  0  0  0  0  0  0  0
   -3.2100    0.7775   -1.5371 C   0  0  0  0  0  0  0  0  0  0  0  0
   -3.7681    1.8378   -0.8238 C   0  0  0  0  0  0  0  0  0  0  0  0
   -4.8736    1.6114    0.0055 C   0  0  0  0  0  0  0  0  0  0  0  0
   -5.4321    0.3280    0.1328 C   0  0  0  0  0  0  0  0  0  0  0  0
   -4.8556   -0.7167   -0.5905 C   0  0  0  0  0  0  0  0  0  0  0  0
   -3.7578   -0.4997   -1.4377 C   0  0  0  0  0  0  0  0  0  0  0  0
   -5.4047   -2.0745   -0.4572 C   0  0  0  0  0  0  0  0  0  0  0  0
   -4.8773   -2.9923   -1.0828 O   0  0  0  0  0  0  0  0  0  0  0  0
   -6.4909   -2.2282    0.3892 N   0  0  0  0  0  0  0  0  0  0  0  0
   -7.0664   -3.5539    0.5267 C   0  0  0  0  0  0  0  0  0  0  0  0
   -7.1152   -1.1989    1.0836 C   0  0  0  0  0  0  0  0  0  0  0  0
   -8.1120   -1.4086    1.7778 O   0  0  0  0  0  0  0  0  0  0  0  0
   -6.5593    0.0712    0.9575 N   0  0  0  0  0  0  0  0  0  0  0  0
   -7.1825    1.1687    1.6880 C   0  0  0  0  0  0  0  0  0  0  0  0
    5.0647   -1.1484    1.5649 C   0  0  0  0  0  0  0  0  0  0  0  0
    6.3666   -0.7568    1.8960 C   0  0  0  0  0  0  0  0  0  0  0  0
    7.8034    3.2390    1.4910 H   0  0  0  0  0  0  0  0  0  0  0  0
    9.4483    3.6526    0.9529 H   0  0  0  0  0  0  0  0  0  0  0  0
    9.1687    2.9348    2.5557 H   0  0  0  0  0  0  0  0  0  0  0  0
   10.0732    1.2347    1.0418 H   0  0  0  0  0  0  0  0  0  0  0  0
    8.8245    1.4995   -0.1532 H   0  0  0  0  0  0  0  0  0  0  0  0
    6.6896    1.8332   -0.2820 H   0  0  0  0  0  0  0  0  0  0  0  0
    4.4569    1.1561   -0.8624 H   0  0  0  0  0  0  0  0  0  0  0  0
    2.7350   -1.7279    0.8303 H   0  0  0  0  0  0  0  0  0  0  0  0
    1.0828   -2.2627   -0.7239 H   0  0  0  0  0  0  0  0  0  0  0  0
    0.3307   -1.0135    0.2962 H   0  0  0  0  0  0  0  0  0  0  0  0
   -0.8836   -1.5100   -1.8660 H   0  0  0  0  0  0  0  0  0  0  0  0
    0.5138   -0.8781   -2.7702 H   0  0  0  0  0  0  0  0  0  0  0  0
    0.1945    1.2832   -1.6510 H   0  0  0  0  0  0  0  0  0  0  0  0
   -3.3567    2.8423   -0.9086 H   0  0  0  0  0  0  0  0  0  0  0  0
   -5.2793    2.4670    0.5388 H   0  0  0  0  0  0  0  0  0  0  0  0
   -3.3398   -1.3237   -2.0143 H   0  0  0  0  0  0  0  0  0  0  0  0
   -6.4081   -4.3346    0.1359 H   0  0  0  0  0  0  0  0  0  0  0  0
   -8.0133   -3.5782   -0.0231 H   0  0  0  0  0  0  0  0  0  0  0  0
   -7.2710   -3.7635    1.5816 H   0  0  0  0  0  0  0  0  0  0  0  0
   -6.4539    1.6041    2.3797 H   0  0  0  0  0  0  0  0  0  0  0  0
   -8.0437    0.8401    2.2770 H   0  0  0  0  0  0  0  0  0  0  0  0
   -7.5343    1.9241    0.9777 H   0  0  0  0  0  0  0  0  0  0  0  0
    4.6258   -1.9852    2.1016 H   0  0  0  0  0  0  0  0  0  0  0  0
    6.9066   -1.2870    2.6769 H   0  0  0  0  0  0  0  0  0  0  0  0
  1  2  1  0
  2  3  1  0
  3  4  1  0
  4  5  2  0
  5  6  1  0
  6  7  2  0
  7  8  1  0
  8  9  1  0
  9 10  2  0
  9 11  1  0
 11 12  1  0
 12 13  1  0
 13 14  1  0
 14 15  2  0
 14 16  2  0
 14 17  1  0
 17 18  2  0
 18 19  1  0
 19 20  2  0
 20 21  1  0
 21 22  2  0
 21 23  1  0
 23 24  2  0
 23 25  1  0
 25 26  1  0
 25 27  1  0
 27 28  2  0
 27 29  1  0
 29 30  1  0
  7 31  1  0
 31 32  2  0
 32  4  1  0
 22 17  1  0
 29 20  1  0
  1 33  1  0
  1 34  1  0
  1 35  1  0
  2 36  1  0
  2 37  1  0
  5 38  1  0
  6 39  1  0
  8 40  1  0
 11 41  1  0
 11 42  1  0
 12 43  1  0
 12 44  1  0
 13 45  1  0
 18 46  1  0
 19 47  1  0
 22 48  1  0
 26 49  1  0
 26 50  1  0
 26 51  1  0
 30 52  1  0
 30 53  1  0
 30 54  1  0
 31 55  1  0
 32 56  1  0
M  END
$$$$
