
     RDKit          3D

 54 57  0  0  0  0  0  0  0  0999 V2000
   -3.5708    5.0282   -0.2033 C   0  0  0  0  0  0  0  0  0  0  0  0
   -3.0499    4.4835    1.0022 O   0  0  0  0  0  0  0  0  0  0  0  0
   -2.2955    3.3476    0.8938 C   0  0  0  0  0  0  0  0  0  0  0  0
   -1.9769    2.6828   -0.2908 C   0  0  0  0  0  0  0  0  0  0  0  0
   -1.1952    1.5210   -0.2619 C   0  0  0  0  0  0  0  0  0  0  0  0
   -0.7264    1.0191    0.9574 C   0  0  0  0  0  0  0  0  0  0  0  0
    0.0628   -0.1586    0.9900 N   0  0  0  0  0  0  0  0  0  0  0  0
   -0.1533   -1.3565    0.3139 C   0  0  0  0  0  0  0  0  0  0  0  0
   -1.3734   -1.7287   -0.4635 C   0  0  0  0  0  0  0  0  0  0  0  0
   -2.5941   -1.8752    0.3967 C   0  0  0  0  0  0  0  0  0  0  0  0
   -3.7315   -1.0864    0.4376 C   0  0  0  0  0  0  0  0  0  0  0  0
   -4.6008   -1.6238    1.4126 C   0  0  0  0  0  0  0  0  0  0  0  0
   -3.9830   -2.7326    1.9418 C   0  0  0  0  0  0  0  0  0  0  0  0
   -2.7702   -2.8865    1.3193 N   0  0  0  0  0  0  0  0  0  0  0  0
   -1.8372   -3.9509    1.6288 C   0  0  0  0  0  0  0  0  0  0  0  0
    0.8345   -2.1955    0.5751 N   0  0  0  0  0  0  0  0  0  0  0  0
    1.6974   -1.5907    1.4379 N   0  0  0  0  0  0  0  0  0  0  0  0
    1.2404   -0.3837    1.6823 C   0  0  0  0  0  0  0  0  0  0  0  0
    2.1617    0.8199    2.5277 S   0  0  0  0  0  0  0  0  0  0  0  0
    3.8388    0.3724    1.9820 C   0  0  0  0  0  0  0  0  0  0  0  0
    4.0116    0.6802    0.5004 C   0  0  0  0  0  0  0  0  0  0  0  0
    4.3422    1.8041    0.1282 O   0  0  0  0  0  0  0  0  0  0  0  0
    3.7462   -0.3994   -0.3245 N   0  0  0  0  0  0  0  0  0  0  0  0
    3.7810   -0.4345   -1.7367 C   0  0  0  0  0  0  0  0  0  0  0  0
    4.1805    0.6315   -2.5436 C   0  0  0  0  0  0  0  0  0  0  0  0
    4.1587    0.5105   -3.9391 C   0  0  0  0  0  0  0  0  0  0  0  0
    3.7426   -0.6773   -4.5409 C   0  0  0  0  0  0  0  0  0  0  0  0
    3.3534   -1.7515   -3.7465 C   0  0  0  0  0  0  0  0  0  0  0  0
    3.3792   -1.6230   -2.3598 C   0  0  0  0  0  0  0  0  0  0  0  0
    3.0064   -2.6722   -1.6111 F   0  0  0  0  0  0  0  0  0  0  0  0
   -1.0329    1.6906    2.1450 C   0  0  0  0  0  0  0  0  0  0  0  0
   -1.8179    2.8461    2.1066 C   0  0  0  0  0  0  0  0  0  0  0  0
   -4.1552    5.9163    0.0557 H   0  0  0  0  0  0  0  0  0  0  0  0
   -4.2436    4.3204   -0.6979 H   0  0  0  0  0  0  0  0  0  0  0  0
   -2.7649    5.3429   -0.8745 H   0  0  0  0  0  0  0  0  0  0  0  0
   -2.3104    3.0485   -1.2567 H   0  0  0  0  0  0  0  0  0  0  0  0
   -0.9263    1.0621   -1.2093 H   0  0  0  0  0  0  0  0  0  0  0  0
   -1.1886   -2.6812   -0.9765 H   0  0  0  0  0  0  0  0  0  0  0  0
   -1.5601   -1.0137   -1.2691 H   0  0  0  0  0  0  0  0  0  0  0  0
   -3.9142   -0.2077   -0.1670 H   0  0  0  0  0  0  0  0  0  0  0  0
   -5.5721   -1.2433    1.6992 H   0  0  0  0  0  0  0  0  0  0  0  0
   -4.3103   -3.4216    2.7100 H   0  0  0  0  0  0  0  0  0  0  0  0
   -1.3628   -4.3008    0.7097 H   0  0  0  0  0  0  0  0  0  0  0  0
   -1.0969   -3.5578    2.3292 H   0  0  0  0  0  0  0  0  0  0  0  0
   -2.3805   -4.7814    2.0867 H   0  0  0  0  0  0  0  0  0  0  0  0
    4.0616   -0.6779    2.1968 H   0  0  0  0  0  0  0  0  0  0  0  0
    4.5649    0.9727    2.5404 H   0  0  0  0  0  0  0  0  0  0  0  0
    3.3622   -1.2420    0.1108 H   0  0  0  0  0  0  0  0  0  0  0  0
    4.5130    1.5746   -2.1221 H   0  0  0  0  0  0  0  0  0  0  0  0
    4.4690    1.3519   -4.5550 H   0  0  0  0  0  0  0  0  0  0  0  0
    3.7279   -0.7630   -5.6233 H   0  0  0  0  0  0  0  0  0  0  0  0
    3.0319   -2.6870   -4.1930 H   0  0  0  0  0  0  0  0  0  0  0  0
   -0.7092    1.3189    3.1146 H   0  0  0  0  0  0  0  0  0  0  0  0
   -2.0636    3.3587    3.0338 H   0  0  0  0  0  0  0  0  0  0  0  0
  1  2  1  0
  2  3  1  0
  3  4  2  0
  4  5  1  0
  5  6  2  0
  6  7  1  0
  7  8  1  0
  8  9  1  0
  9 10  1  0
 10 11  2  0
 11 12  1  0
 12 13  2  0
 13 14  1  0
 14 15  1  0
  8 16  2  0
 16 17  1  0
 17 18  2  0
 18 19  1  0
 19 20  1  0
 20 21  1  0
 21 22  2  0
 21 23  1  0
 23 24  1  0
 24 25  2  0
 25 26  1  0
 26 27  2  0
 27 28  1  0
 28 29  2  0
 29 30  1  0
  6 31  1  0
 31 32  2  0
 32  3  1  0
 18  7  1  0
 29 24  1  0
 14 10  1  0
  1 33  1  0
  1 34  1  0
  1 35  1  0
  4 36  1  0
  5 37  1  0
  9 38  1  0
  9 39  1  0
 11 40  1  0
 12 41  1  0
 13 42  1  0
 15 43  1  0
 15 44  1  0
 15 45  1  0
 20 46  1  0
 20 47  1  0
 23 48  1  0
 25 49  1  0
 26 50  1  0
 27 51  1  0
 28 52  1  0
 31 53  1  0
 32 54  1  0
M  END
$$$$
