
     RDKit          3D

 64 69  0  0  0  0  0  0  0  0999 V2000
   -5.6429   -0.3541   -1.1511 C   0  0  0  0  0  0  0  0  0  0  0  0
   -4.5383   -0.8219   -0.3892 O   0  0  0  0  0  0  0  0  0  0  0  0
   -4.4557   -0.4497    0.9233 C   0  0  0  0  0  0  0  0  0  0  0  0
   -5.4489    0.2608    1.6065 C   0  0  0  0  0  0  0  0  0  0  0  0
   -5.3010    0.5617    2.9617 C   0  0  0  0  0  0  0  0  0  0  0  0
   -4.1660    0.1455    3.6478 C   0  0  0  0  0  0  0  0  0  0  0  0
   -3.1704   -0.5610    2.9749 C   0  0  0  0  0  0  0  0  0  0  0  0
   -3.2888   -0.8515    1.6024 C   0  0  0  0  0  0  0  0  0  0  0  0
   -2.1760   -1.6117    0.8970 C   0  0  0  0  0  0  0  0  0  0  0  0
   -1.0264   -0.8284    0.3772 N   0  0  0  0  0  0  0  0  0  0  0  0
   -0.3256   -0.1042    1.4516 C   0  0  0  0  0  0  0  0  0  0  0  0
    1.0569    0.3800    1.0892 C   0  0  0  0  0  0  0  0  0  0  0  0
    1.3454    1.6784    0.8808 C   0  0  0  0  0  0  0  0  0  0  0  0
    2.7044    2.1091    0.5556 C   0  0  0  0  0  0  0  0  0  0  0  0
    3.0091    3.4525    0.3226 C   0  0  0  0  0  0  0  0  0  0  0  0
    4.3206    3.8223    0.0233 C   0  0  0  0  0  0  0  0  0  0  0  0
    5.3239    2.8506   -0.0742 C   0  0  0  0  0  0  0  0  0  0  0  0
    5.0297    1.5107    0.1707 C   0  0  0  0  0  0  0  0  0  0  0  0
    3.7204    1.1476    0.4824 C   0  0  0  0  0  0  0  0  0  0  0  0
    3.4076   -0.1931    0.7300 N   0  0  0  0  0  0  0  0  0  0  0  0
    2.1523   -0.6377    1.0507 C   0  0  0  0  0  0  0  0  0  0  0  0
    1.9514   -1.8238    1.2925 O   0  0  0  0  0  0  0  0  0  0  0  0
    6.6240    3.1446   -0.3976 O   0  0  0  0  0  0  0  0  0  0  0  0
    6.7405    4.4601   -0.9536 C   0  0  0  0  0  0  0  0  0  0  0  0
    5.9506    5.4627   -0.1288 C   0  0  0  0  0  0  0  0  0  0  0  0
    4.5509    5.1605   -0.1706 O   0  0  0  0  0  0  0  0  0  0  0  0
   -1.3858    0.0513   -0.7444 C   0  0  0  0  0  0  0  0  0  0  0  0
   -1.7426   -0.6469   -2.0140 C   0  0  0  0  0  0  0  0  0  0  0  0
   -2.7009   -0.2834   -2.8479 N   0  0  0  0  0  0  0  0  0  0  0  0
   -2.6146   -1.1154   -3.9309 N   0  0  0  0  0  0  0  0  0  0  0  0
   -1.6041   -1.9588   -3.8000 N   0  0  0  0  0  0  0  0  0  0  0  0
   -1.0706   -1.6982   -2.5871 N   0  0  0  0  0  0  0  0  0  0  0  0
    0.1390   -2.3774   -2.1681 C   0  0  0  0  0  0  0  0  0  0  0  0
   -0.1499   -3.7005   -1.5601 C   0  0  0  0  0  0  0  0  0  0  0  0
   -0.0166   -4.2106   -0.2843 C   0  0  0  0  0  0  0  0  0  0  0  0
   -0.4460   -5.5581   -0.3411 C   0  0  0  0  0  0  0  0  0  0  0  0
   -0.7973   -5.7923   -1.6488 C   0  0  0  0  0  0  0  0  0  0  0  0
   -0.6075   -4.6772   -2.3980 O   0  0  0  0  0  0  0  0  0  0  0  0
   -5.6662    0.7401   -1.1815 H   0  0  0  0  0  0  0  0  0  0  0  0
   -5.5207   -0.7148   -2.1768 H   0  0  0  0  0  0  0  0  0  0  0  0
   -6.5844   -0.7601   -0.7679 H   0  0  0  0  0  0  0  0  0  0  0  0
   -6.3591    0.5849    1.1128 H   0  0  0  0  0  0  0  0  0  0  0  0
   -6.0815    1.1096    3.4833 H   0  0  0  0  0  0  0  0  0  0  0  0
   -4.0586    0.3643    4.7070 H   0  0  0  0  0  0  0  0  0  0  0  0
   -2.2982   -0.8939    3.5331 H   0  0  0  0  0  0  0  0  0  0  0  0
   -2.5969   -2.2306    0.0951 H   0  0  0  0  0  0  0  0  0  0  0  0
   -1.7845   -2.3583    1.6024 H   0  0  0  0  0  0  0  0  0  0  0  0
   -0.2104   -0.7587    2.3259 H   0  0  0  0  0  0  0  0  0  0  0  0
   -0.9304    0.7474    1.7908 H   0  0  0  0  0  0  0  0  0  0  0  0
    0.5735    2.4399    0.9363 H   0  0  0  0  0  0  0  0  0  0  0  0
    2.2411    4.2189    0.3815 H   0  0  0  0  0  0  0  0  0  0  0  0
    5.8193    0.7687    0.1057 H   0  0  0  0  0  0  0  0  0  0  0  0
    4.1322   -0.8984    0.7061 H   0  0  0  0  0  0  0  0  0  0  0  0
    7.8023    4.7255   -0.9571 H   0  0  0  0  0  0  0  0  0  0  0  0
    6.3913    4.4312   -1.9932 H   0  0  0  0  0  0  0  0  0  0  0  0
    6.2753    5.4653    0.9192 H   0  0  0  0  0  0  0  0  0  0  0  0
    6.0840    6.4723   -0.5300 H   0  0  0  0  0  0  0  0  0  0  0  0
   -0.5310    0.6844   -1.0116 H   0  0  0  0  0  0  0  0  0  0  0  0
   -2.1845    0.7474   -0.4632 H   0  0  0  0  0  0  0  0  0  0  0  0
    0.6876   -1.7286   -1.4810 H   0  0  0  0  0  0  0  0  0  0  0  0
    0.7686   -2.5005   -3.0574 H   0  0  0  0  0  0  0  0  0  0  0  0
    0.3453   -3.6734    0.5823 H   0  0  0  0  0  0  0  0  0  0  0  0
   -0.4889   -6.2717    0.4694 H   0  0  0  0  0  0  0  0  0  0  0  0
   -1.1762   -6.6532   -2.1818 H   0  0  0  0  0  0  0  0  0  0  0  0
  1  2  1  0
  2  3  1  0
  3  4  2  0
  4  5  1  0
  5  6  2  0
  6  7  1  0
  7  8  2  0
  8  9  1  0
  9 10  1  0
 10 11  1  0
 11 12  1  0
 12 13  2  0
 13 14  1  0
 14 15  2  0
 15 16  1  0
 16 17  2  0
 17 18  1  0
 18 19  2  0
 19 20  1  0
 20 21  1  0
 21 22  2  0
 17 23  1  0
 23 24  1  0
 24 25  1  0
 25 26  1  0
 10 27  1  0
 27 28  1  0
 28 29  2  0
 29 30  1  0
 30 31  2  0
 31 32  1  0
 32 33  1  0
 33 34  1  0
 34 35  2  0
 35 36  1  0
 36 37  2  0
 37 38  1  0
  8  3  1  0
 21 12  1  0
 32 28  1  0
 38 34  1  0
 19 14  1  0
 26 16  1  0
  1 39  1  0
  1 40  1  0
  1 41  1  0
  4 42  1  0
  5 43  1  0
  6 44  1  0
  7 45  1  0
  9 46  1  0
  9 47  1  0
 11 48  1  0
 11 49  1  0
 13 50  1  0
 15 51  1  0
 18 52  1  0
 20 53  1  0
 24 54  1  0
 24 55  1  0
 25 56  1  0
 25 57  1  0
 27 58  1  0
 27 59  1  0
 33 60  1  0
 33 61  1  0
 35 62  1  0
 36 63  1  0
 37 64  1  0
M  END
$$$$
