
     RDKit          3D

 61 64  0  0  0  0  0  0  0  0999 V2000
   -9.8248   -2.0063    1.1607 C   0  0  0  0  0  0  0  0  0  0  0  0
   -8.4073   -1.9605    1.2621 O   0  0  0  0  0  0  0  0  0  0  0  0
   -7.7704   -1.0038    0.5190 C   0  0  0  0  0  0  0  0  0  0  0  0
   -8.3600   -0.2259   -0.4852 C   0  0  0  0  0  0  0  0  0  0  0  0
   -7.6072    0.7397   -1.1593 C   0  0  0  0  0  0  0  0  0  0  0  0
   -8.0524    1.5575   -2.1617 O   0  0  0  0  0  0  0  0  0  0  0  0
   -9.3946    1.3942   -2.5932 C   0  0  0  0  0  0  0  0  0  0  0  0
   -6.2677    0.9291   -0.8195 C   0  0  0  0  0  0  0  0  0  0  0  0
   -5.6719    0.1336    0.1591 C   0  0  0  0  0  0  0  0  0  0  0  0
   -4.2524    0.3590    0.4949 C   0  0  0  0  0  0  0  0  0  0  0  0
   -3.8759    1.4920    0.7685 O   0  0  0  0  0  0  0  0  0  0  0  0
   -3.4655   -0.7877    0.4359 N   0  0  0  0  0  0  0  0  0  0  0  0
   -2.0915   -0.7392    0.4378 N   0  0  0  0  0  0  0  0  0  0  0  0
   -1.5396    0.0332    1.3202 C   0  0  0  0  0  0  0  0  0  0  0  0
   -0.0855    0.2828    1.3494 C   0  0  0  0  0  0  0  0  0  0  0  0
    0.4255    1.1081    2.3522 C   0  0  0  0  0  0  0  0  0  0  0  0
    1.7837    1.4182    2.3704 C   0  0  0  0  0  0  0  0  0  0  0  0
    2.6363    0.9126    1.3853 C   0  0  0  0  0  0  0  0  0  0  0  0
    3.9648    1.2193    1.2976 O   0  0  0  0  0  0  0  0  0  0  0  0
    4.5881    1.7728    2.4480 C   0  0  0  0  0  0  0  0  0  0  0  0
    2.1274    0.0784    0.3708 C   0  0  0  0  0  0  0  0  0  0  0  0
    3.0080   -0.4456   -0.7412 C   0  0  0  0  0  0  0  0  0  0  0  0
    3.9543   -1.4074   -0.2509 O   0  0  0  0  0  0  0  0  0  0  0  0
    5.2800   -1.2177   -0.5123 C   0  0  0  0  0  0  0  0  0  0  0  0
    6.0629   -2.3602   -0.3322 C   0  0  0  0  0  0  0  0  0  0  0  0
    7.4452   -2.3279   -0.5353 C   0  0  0  0  0  0  0  0  0  0  0  0
    8.0794   -1.1359   -0.9100 C   0  0  0  0  0  0  0  0  0  0  0  0
    9.4684   -1.0712   -1.1072 C   0  0  0  0  0  0  0  0  0  0  0  0
   10.0856    0.1268   -1.4681 C   0  0  0  0  0  0  0  0  0  0  0  0
    9.3209    1.2768   -1.6353 C   0  0  0  0  0  0  0  0  0  0  0  0
    7.9389    1.2296   -1.4423 C   0  0  0  0  0  0  0  0  0  0  0  0
    7.3009    0.0301   -1.0815 C   0  0  0  0  0  0  0  0  0  0  0  0
    5.9083   -0.0260   -0.8825 C   0  0  0  0  0  0  0  0  0  0  0  0
    0.7598   -0.2384    0.3681 C   0  0  0  0  0  0  0  0  0  0  0  0
   -6.4201   -0.8353    0.8299 C   0  0  0  0  0  0  0  0  0  0  0  0
  -10.2741   -1.0281    1.3630 H   0  0  0  0  0  0  0  0  0  0  0  0
  -10.1944   -2.7039    1.9209 H   0  0  0  0  0  0  0  0  0  0  0  0
  -10.1293   -2.3907    0.1830 H   0  0  0  0  0  0  0  0  0  0  0  0
   -9.4014   -0.3724   -0.7430 H   0  0  0  0  0  0  0  0  0  0  0  0
   -9.5508    2.0682   -3.4435 H   0  0  0  0  0  0  0  0  0  0  0  0
  -10.0953    1.6802   -1.8065 H   0  0  0  0  0  0  0  0  0  0  0  0
   -9.5850    0.3717   -2.9383 H   0  0  0  0  0  0  0  0  0  0  0  0
   -5.6837    1.6925   -1.3302 H   0  0  0  0  0  0  0  0  0  0  0  0
   -3.8383   -1.5736   -0.0896 H   0  0  0  0  0  0  0  0  0  0  0  0
   -2.1266    0.5469    2.1021 H   0  0  0  0  0  0  0  0  0  0  0  0
   -0.2250    1.5334    3.1100 H   0  0  0  0  0  0  0  0  0  0  0  0
    2.1451    2.0786    3.1539 H   0  0  0  0  0  0  0  0  0  0  0  0
    5.6710    1.7929    2.2677 H   0  0  0  0  0  0  0  0  0  0  0  0
    4.4077    1.1648    3.3414 H   0  0  0  0  0  0  0  0  0  0  0  0
    4.2606    2.8075    2.6011 H   0  0  0  0  0  0  0  0  0  0  0  0
    3.4354    0.3932   -1.2982 H   0  0  0  0  0  0  0  0  0  0  0  0
    2.3896   -0.9792   -1.4736 H   0  0  0  0  0  0  0  0  0  0  0  0
    5.5901   -3.2919   -0.0285 H   0  0  0  0  0  0  0  0  0  0  0  0
    8.0247   -3.2356   -0.3878 H   0  0  0  0  0  0  0  0  0  0  0  0
   10.0835   -1.9606   -0.9779 H   0  0  0  0  0  0  0  0  0  0  0  0
   11.1626    0.1590   -1.6176 H   0  0  0  0  0  0  0  0  0  0  0  0
    9.8005    2.2123   -1.9122 H   0  0  0  0  0  0  0  0  0  0  0  0
    7.3592    2.1414   -1.5786 H   0  0  0  0  0  0  0  0  0  0  0  0
    5.3441    0.8945   -0.9827 H   0  0  0  0  0  0  0  0  0  0  0  0
    0.3469   -0.8709   -0.4166 H   0  0  0  0  0  0  0  0  0  0  0  0
   -5.9685   -1.4348    1.6172 H   0  0  0  0  0  0  0  0  0  0  0  0
  1  2  1  0
  2  3  1  0
  3  4  2  0
  4  5  1  0
  5  6  1  0
  6  7  1  0
  5  8  2  0
  8  9  1  0
  9 10  1  0
 10 11  2  0
 10 12  1  0
 12 13  1  0
 13 14  2  3
 14 15  1  0
 15 16  2  0
 16 17  1  0
 17 18  2  0
 18 19  1  0
 19 20  1  0
 18 21  1  0
 21 22  1  0
 22 23  1  0
 23 24  1  0
 24 25  2  0
 25 26  1  0
 26 27  2  0
 27 28  1  0
 28 29  2  0
 29 30  1  0
 30 31  2  0
 31 32  1  0
 32 33  2  0
 21 34  2  0
  9 35  2  0
 35  3  1  0
 34 15  1  0
 33 24  1  0
 32 27  1  0
  1 36  1  0
  1 37  1  0
  1 38  1  0
  4 39  1  0
  7 40  1  0
  7 41  1  0
  7 42  1  0
  8 43  1  0
 12 44  1  0
 14 45  1  0
 16 46  1  0
 17 47  1  0
 20 48  1  0
 20 49  1  0
 20 50  1  0
 22 51  1  0
 22 52  1  0
 25 53  1  0
 26 54  1  0
 28 55  1  0
 29 56  1  0
 30 57  1  0
 31 58  1  0
 33 59  1  0
 34 60  1  0
 35 61  1  0
M  END
$$$$
