
     RDKit          3D

 37 39  0  0  0  0  0  0  0  0999 V2000
    3.9876   -0.9027    0.0819 N   0  0  0  0  0  0  0  0  0  0  0  0
    2.7495   -0.9546    0.8523 C   0  0  0  0  0  0  0  0  0  0  0  0
    2.0945    0.4220    0.9675 C   0  0  0  0  0  0  0  0  0  0  0  0
    1.7912    1.1204   -0.3645 C   0  0  0  0  0  0  0  0  0  0  0  0
    0.8666    0.3476   -1.3201 C   0  0  0  0  0  0  0  0  0  0  0  0
   -0.4989    0.1387   -0.7739 N   0  0  0  0  0  0  0  0  0  0  0  0
   -0.8261   -1.1717   -0.3402 C   0  0  0  0  0  0  0  0  0  0  0  0
   -0.4276   -2.3055   -1.0770 C   0  0  0  0  0  0  0  0  0  0  0  0
   -0.7506   -3.6036   -0.6694 C   0  0  0  0  0  0  0  0  0  0  0  0
   -1.4997   -3.8023    0.4816 C   0  0  0  0  0  0  0  0  0  0  0  0
   -1.9387   -2.7010    1.2110 C   0  0  0  0  0  0  0  0  0  0  0  0
   -1.6219   -1.3944    0.8012 C   0  0  0  0  0  0  0  0  0  0  0  0
   -2.2430   -0.0625    1.8097 S   0  0  0  0  0  0  0  0  0  0  0  0
   -2.0980    1.3183    0.6916 C   0  0  0  0  0  0  0  0  0  0  0  0
   -2.8409    2.4689    1.0078 C   0  0  0  0  0  0  0  0  0  0  0  0
   -2.7656    3.6055    0.2069 C   0  0  0  0  0  0  0  0  0  0  0  0
   -1.9479    3.5913   -0.9142 C   0  0  0  0  0  0  0  0  0  0  0  0
   -1.8572    4.9847   -1.9208 Cl  0  0  0  0  0  0  0  0  0  0  0  0
   -1.2019    2.4552   -1.2350 C   0  0  0  0  0  0  0  0  0  0  0  0
   -1.2464    1.2969   -0.4332 C   0  0  0  0  0  0  0  0  0  0  0  0
    4.6464   -0.2760    0.5441 H   0  0  0  0  0  0  0  0  0  0  0  0
    4.4245   -1.8243    0.0929 H   0  0  0  0  0  0  0  0  0  0  0  0
    2.0694   -1.6726    0.3881 H   0  0  0  0  0  0  0  0  0  0  0  0
    2.9696   -1.3307    1.8578 H   0  0  0  0  0  0  0  0  0  0  0  0
    2.7525    1.0789    1.5516 H   0  0  0  0  0  0  0  0  0  0  0  0
    1.1725    0.3259    1.5518 H   0  0  0  0  0  0  0  0  0  0  0  0
    2.7344    1.3170   -0.8895 H   0  0  0  0  0  0  0  0  0  0  0  0
    1.3729    2.1085   -0.1419 H   0  0  0  0  0  0  0  0  0  0  0  0
    0.8016    0.8859   -2.2731 H   0  0  0  0  0  0  0  0  0  0  0  0
    1.3680   -0.5880   -1.5840 H   0  0  0  0  0  0  0  0  0  0  0  0
    0.1167   -2.1965   -2.0112 H   0  0  0  0  0  0  0  0  0  0  0  0
   -0.4250   -4.4544   -1.2625 H   0  0  0  0  0  0  0  0  0  0  0  0
   -1.7562   -4.8080    0.8031 H   0  0  0  0  0  0  0  0  0  0  0  0
   -2.5394   -2.8658    2.1030 H   0  0  0  0  0  0  0  0  0  0  0  0
   -3.4847    2.4834    1.8849 H   0  0  0  0  0  0  0  0  0  0  0  0
   -3.3469    4.4875    0.4604 H   0  0  0  0  0  0  0  0  0  0  0  0
   -0.6014    2.4782   -2.1386 H   0  0  0  0  0  0  0  0  0  0  0  0
  1  2  1  0
  2  3  1  0
  3  4  1  0
  4  5  1  0
  5  6  1  0
  6  7  1  0
  7  8  2  0
  8  9  1  0
  9 10  2  0
 10 11  1  0
 11 12  2  0
 12 13  1  0
 13 14  1  0
 14 15  2  0
 15 16  1  0
 16 17  2  0
 17 18  1  0
 17 19  1  0
 19 20  2  0
 20  6  1  0
 12  7  1  0
 20 14  1  0
  1 21  1  0
  1 22  1  0
  2 23  1  0
  2 24  1  0
  3 25  1  0
  3 26  1  0
  4 27  1  0
  4 28  1  0
  5 29  1  0
  5 30  1  0
  8 31  1  0
  9 32  1  0
 10 33  1  0
 11 34  1  0
 15 35  1  0
 16 36  1  0
 19 37  1  0
M  END
$$$$
