
     RDKit          3D

 49 50  0  0  0  0  0  0  0  0999 V2000
    4.9181   -3.9309    0.5230 C   0  0  0  0  0  0  0  0  0  0  0  0
    5.2090   -2.5165    0.9882 C   0  0  0  0  0  0  0  0  0  0  0  0
    4.0486   -1.6919    0.8204 O   0  0  0  0  0  0  0  0  0  0  0  0
    3.9017   -1.1076   -0.4056 C   0  0  0  0  0  0  0  0  0  0  0  0
    4.6870   -1.2719   -1.3332 O   0  0  0  0  0  0  0  0  0  0  0  0
    2.6806   -0.2971   -0.5178 C   0  0  0  0  0  0  0  0  0  0  0  0
    2.0518    0.1034   -1.7482 C   0  0  0  0  0  0  0  0  0  0  0  0
    2.5361   -0.2314   -3.1202 C   0  0  0  0  0  0  0  0  0  0  0  0
    0.9242    0.8421   -1.4249 C   0  0  0  0  0  0  0  0  0  0  0  0
   -0.0694    1.4982   -2.3273 C   0  0  0  0  0  0  0  0  0  0  0  0
    0.8094    0.8547   -0.0475 N   0  0  0  0  0  0  0  0  0  0  0  0
   -0.3156    1.4483    0.6902 C   0  0  0  0  0  0  0  0  0  0  0  0
   -1.6044    0.6692    0.5328 C   0  0  0  0  0  0  0  0  0  0  0  0
   -1.6172   -0.7267    0.6861 C   0  0  0  0  0  0  0  0  0  0  0  0
   -2.8030   -1.4457    0.5578 C   0  0  0  0  0  0  0  0  0  0  0  0
   -3.9980   -0.7849    0.2722 C   0  0  0  0  0  0  0  0  0  0  0  0
   -4.0222    0.6052    0.1256 C   0  0  0  0  0  0  0  0  0  0  0  0
   -5.1479    1.3226   -0.1866 O   0  0  0  0  0  0  0  0  0  0  0  0
   -6.3067    0.5945   -0.5705 C   0  0  0  0  0  0  0  0  0  0  0  0
   -2.8254    1.3319    0.2970 C   0  0  0  0  0  0  0  0  0  0  0  0
   -2.7606    2.7010    0.1735 O   0  0  0  0  0  0  0  0  0  0  0  0
   -3.6727    3.3938    1.0245 C   0  0  0  0  0  0  0  0  0  0  0  0
    1.9200    0.2488    0.5177 C   0  0  0  0  0  0  0  0  0  0  0  0
    2.1576    0.2327    1.9930 C   0  0  0  0  0  0  0  0  0  0  0  0
    5.7777   -4.5827    0.7027 H   0  0  0  0  0  0  0  0  0  0  0  0
    4.6803   -3.9530   -0.5450 H   0  0  0  0  0  0  0  0  0  0  0  0
    4.0495   -4.3380    1.0510 H   0  0  0  0  0  0  0  0  0  0  0  0
    5.4433   -2.5234    2.0578 H   0  0  0  0  0  0  0  0  0  0  0  0
    6.0795   -2.0941    0.4732 H   0  0  0  0  0  0  0  0  0  0  0  0
    2.7598   -1.3002   -3.2003 H   0  0  0  0  0  0  0  0  0  0  0  0
    1.7891   -0.0020   -3.8854 H   0  0  0  0  0  0  0  0  0  0  0  0
    3.4433    0.3361   -3.3503 H   0  0  0  0  0  0  0  0  0  0  0  0
   -0.9446    0.8551   -2.4616 H   0  0  0  0  0  0  0  0  0  0  0  0
    0.3613    1.6920   -3.3144 H   0  0  0  0  0  0  0  0  0  0  0  0
   -0.3975    2.4648   -1.9344 H   0  0  0  0  0  0  0  0  0  0  0  0
   -0.0717    1.4947    1.7542 H   0  0  0  0  0  0  0  0  0  0  0  0
   -0.3883    2.4821    0.3380 H   0  0  0  0  0  0  0  0  0  0  0  0
   -0.6962   -1.2685    0.8944 H   0  0  0  0  0  0  0  0  0  0  0  0
   -2.7936   -2.5274    0.6688 H   0  0  0  0  0  0  0  0  0  0  0  0
   -4.8938   -1.3878    0.1688 H   0  0  0  0  0  0  0  0  0  0  0  0
   -6.1031   -0.0578   -1.4263 H   0  0  0  0  0  0  0  0  0  0  0  0
   -7.0682    1.3178   -0.8779 H   0  0  0  0  0  0  0  0  0  0  0  0
   -6.7104    0.0274    0.2743 H   0  0  0  0  0  0  0  0  0  0  0  0
   -4.5798    3.6551    0.4720 H   0  0  0  0  0  0  0  0  0  0  0  0
   -3.9190    2.8333    1.9338 H   0  0  0  0  0  0  0  0  0  0  0  0
   -3.1931    4.3287    1.3310 H   0  0  0  0  0  0  0  0  0  0  0  0
    1.5473   -0.5410    2.4687 H   0  0  0  0  0  0  0  0  0  0  0  0
    3.2064    0.0467    2.2371 H   0  0  0  0  0  0  0  0  0  0  0  0
    1.9205    1.2002    2.4461 H   0  0  0  0  0  0  0  0  0  0  0  0
  1  2  1  0
  2  3  1  0
  3  4  1  0
  4  5  2  0
  4  6  1  0
  6  7  1  0
  7  8  1  0
  7  9  2  0
  9 10  1  0
  9 11  1  0
 11 12  1  0
 12 13  1  0
 13 14  2  0
 14 15  1  0
 15 16  2  0
 16 17  1  0
 17 18  1  0
 18 19  1  0
 17 20  2  0
 20 21  1  0
 21 22  1  0
 11 23  1  0
 23 24  1  0
 23  6  2  0
 20 13  1  0
  1 25  1  0
  1 26  1  0
  1 27  1  0
  2 28  1  0
  2 29  1  0
  8 30  1  0
  8 31  1  0
  8 32  1  0
 10 33  1  0
 10 34  1  0
 10 35  1  0
 12 36  1  0
 12 37  1  0
 14 38  1  0
 15 39  1  0
 16 40  1  0
 19 41  1  0
 19 42  1  0
 19 43  1  0
 22 44  1  0
 22 45  1  0
 22 46  1  0
 24 47  1  0
 24 48  1  0
 24 49  1  0
M  END
$$$$
