
     RDKit          3D

 44 46  0  0  0  0  0  0  0  0999 V2000
    5.8105    1.8975   -0.1787 C   0  0  0  0  0  0  0  0  0  0  0  0
    5.7218    0.6250   -0.8101 O   0  0  0  0  0  0  0  0  0  0  0  0
    4.5842   -0.1023   -0.5705 C   0  0  0  0  0  0  0  0  0  0  0  0
    3.5277    0.2690    0.2622 C   0  0  0  0  0  0  0  0  0  0  0  0
    2.4155   -0.5768    0.4081 C   0  0  0  0  0  0  0  0  0  0  0  0
    1.2940   -0.2003    1.2739 C   0  0  0  0  0  0  0  0  0  0  0  0
    0.3871    0.7472    0.9996 C   0  0  0  0  0  0  0  0  0  0  0  0
    0.2967    1.7483   -0.4025 S   0  0  0  0  0  0  0  0  0  0  0  0
   -1.1720    2.5411    0.1389 C   0  0  0  0  0  0  0  0  0  0  0  0
   -1.9437    3.7564   -0.7008 S   0  0  0  0  0  0  0  0  0  0  0  0
   -1.5532    2.0031    1.3502 N   0  0  0  0  0  0  0  0  0  0  0  0
   -2.8064    2.4687    2.0576 N   0  0  0  0  0  0  0  0  0  0  0  0
   -4.1360    1.4016    2.1192 S   0  0  0  0  0  6  0  0  0  0  0  0
   -4.1120    0.7009    3.3823 O   0  0  0  0  0  0  0  0  0  0  0  0
   -5.2816    2.1921    1.7195 O   0  0  0  0  0  0  0  0  0  0  0  0
   -3.8259    0.2295    0.8200 C   0  0  0  0  0  0  0  0  0  0  0  0
   -3.2481   -1.0054    1.1264 C   0  0  0  0  0  0  0  0  0  0  0  0
   -2.9697   -1.9080    0.0999 C   0  0  0  0  0  0  0  0  0  0  0  0
   -3.2725   -1.5855   -1.2297 C   0  0  0  0  0  0  0  0  0  0  0  0
   -3.0017   -2.5709   -2.3295 C   0  0  0  0  0  0  0  0  0  0  0  0
   -3.8952   -0.3629   -1.5162 C   0  0  0  0  0  0  0  0  0  0  0  0
   -4.1775    0.5446   -0.4944 C   0  0  0  0  0  0  0  0  0  0  0  0
   -0.7438    1.0361    1.9261 C   0  0  0  0  0  0  0  0  0  0  0  0
   -0.9020    0.4781    3.0015 O   0  0  0  0  0  0  0  0  0  0  0  0
    2.3713   -1.8008   -0.2718 C   0  0  0  0  0  0  0  0  0  0  0  0
    3.4251   -2.1776   -1.1022 C   0  0  0  0  0  0  0  0  0  0  0  0
    4.5150   -1.3283   -1.2428 C   0  0  0  0  0  0  0  0  0  0  0  0
    5.5358   -1.7210   -2.0654 O   0  0  0  0  0  0  0  0  0  0  0  0
    5.8293    1.7950    0.9114 H   0  0  0  0  0  0  0  0  0  0  0  0
    6.7538    2.3584   -0.4872 H   0  0  0  0  0  0  0  0  0  0  0  0
    4.9973    2.5562   -0.5015 H   0  0  0  0  0  0  0  0  0  0  0  0
    3.5449    1.2071    0.8070 H   0  0  0  0  0  0  0  0  0  0  0  0
    1.2141   -0.7817    2.1921 H   0  0  0  0  0  0  0  0  0  0  0  0
   -3.1446    3.3827    1.7359 H   0  0  0  0  0  0  0  0  0  0  0  0
   -3.0037   -1.2675    2.1555 H   0  0  0  0  0  0  0  0  0  0  0  0
   -2.5188   -2.8685    0.3438 H   0  0  0  0  0  0  0  0  0  0  0  0
   -2.1503   -3.2121   -2.0792 H   0  0  0  0  0  0  0  0  0  0  0  0
   -2.7546   -2.0536   -3.2624 H   0  0  0  0  0  0  0  0  0  0  0  0
   -3.8817   -3.2002   -2.4936 H   0  0  0  0  0  0  0  0  0  0  0  0
   -4.1690   -0.1144   -2.5402 H   0  0  0  0  0  0  0  0  0  0  0  0
   -4.6678    1.4860   -0.7338 H   0  0  0  0  0  0  0  0  0  0  0  0
    1.5169   -2.4658   -0.1656 H   0  0  0  0  0  0  0  0  0  0  0  0
    3.3989   -3.1226   -1.6367 H   0  0  0  0  0  0  0  0  0  0  0  0
    6.1918   -0.9983   -2.0164 H   0  0  0  0  0  0  0  0  0  0  0  0
  1  2  1  0
  2  3  1  0
  3  4  2  0
  4  5  1  0
  5  6  1  0
  6  7  2  3
  7  8  1  0
  8  9  1  0
  9 10  2  0
  9 11  1  0
 11 12  1  0
 12 13  1  0
 13 14  2  0
 13 15  2  0
 13 16  1  0
 16 17  2  0
 17 18  1  0
 18 19  2  0
 19 20  1  0
 19 21  1  0
 21 22  2  0
 11 23  1  0
 23 24  2  0
  5 25  2  0
 25 26  1  0
 26 27  2  0
 27 28  1  0
 27  3  1  0
 23  7  1  0
 22 16  1  0
  1 29  1  0
  1 30  1  0
  1 31  1  0
  4 32  1  0
  6 33  1  0
 12 34  1  0
 17 35  1  0
 18 36  1  0
 20 37  1  0
 20 38  1  0
 20 39  1  0
 21 40  1  0
 22 41  1  0
 25 42  1  0
 26 43  1  0
 28 44  1  0
M  END
$$$$
