
     RDKit          3D

 32 33  0  0  0  0  0  0  0  0999 V2000
   -6.0028   -0.4451    0.0281 C   0  0  0  0  0  0  0  0  0  0  0  0
   -4.5390   -0.2830   -0.2598 C   0  0  0  0  0  0  0  0  0  0  0  0
   -3.7779   -1.3727   -0.7012 C   0  0  0  0  0  0  0  0  0  0  0  0
   -2.4217   -1.2154   -1.0042 C   0  0  0  0  0  0  0  0  0  0  0  0
   -1.5500   -2.5955   -1.5720 Cl  0  0  0  0  0  0  0  0  0  0  0  0
   -1.8054    0.0336   -0.8592 C   0  0  0  0  0  0  0  0  0  0  0  0
   -0.4823    0.1988   -1.1867 O   0  0  0  0  0  0  0  0  0  0  0  0
    0.3589   -0.0645   -0.0563 C   0  0  0  0  0  0  0  0  0  0  0  0
    1.7961    0.2222   -0.4745 C   0  0  0  0  0  0  0  0  0  0  0  0
    2.7655   -0.0371    0.6705 C   0  0  0  0  0  0  0  0  0  0  0  0
    4.1384    0.2320    0.2962 N   0  0  0  0  0  0  0  0  0  0  0  0
    5.0146   -0.6572   -0.2584 C   0  0  0  0  0  0  0  0  0  0  0  0
    6.1844    0.0501   -0.4111 C   0  0  0  0  0  0  0  0  0  0  0  0
    6.0382    1.3363    0.0412 N   0  0  0  0  0  0  0  0  0  0  0  0
    4.7956    1.4169    0.4608 C   0  0  0  0  0  0  0  0  0  0  0  0
   -2.5747    1.1339   -0.4632 C   0  0  0  0  0  0  0  0  0  0  0  0
   -1.8315    2.8767   -0.3356 Br  0  0  0  0  0  0  0  0  0  0  0  0
   -3.9314    0.9752   -0.1607 C   0  0  0  0  0  0  0  0  0  0  0  0
   -6.5845   -0.2711   -0.8822 H   0  0  0  0  0  0  0  0  0  0  0  0
   -6.2185   -1.4524    0.3995 H   0  0  0  0  0  0  0  0  0  0  0  0
   -6.3295    0.2614    0.7984 H   0  0  0  0  0  0  0  0  0  0  0  0
   -4.2460   -2.3483   -0.8190 H   0  0  0  0  0  0  0  0  0  0  0  0
    0.0833    0.5795    0.7880 H   0  0  0  0  0  0  0  0  0  0  0  0
    0.2653   -1.1117    0.2544 H   0  0  0  0  0  0  0  0  0  0  0  0
    2.0543   -0.3951   -1.3447 H   0  0  0  0  0  0  0  0  0  0  0  0
    1.8768    1.2612   -0.8193 H   0  0  0  0  0  0  0  0  0  0  0  0
    2.7140   -1.0816    0.9994 H   0  0  0  0  0  0  0  0  0  0  0  0
    2.5293    0.5943    1.5350 H   0  0  0  0  0  0  0  0  0  0  0  0
    4.7487   -1.6779   -0.4941 H   0  0  0  0  0  0  0  0  0  0  0  0
    7.1236   -0.2978   -0.8212 H   0  0  0  0  0  0  0  0  0  0  0  0
    4.3312    2.2978    0.8848 H   0  0  0  0  0  0  0  0  0  0  0  0
   -4.5230    1.8362    0.1454 H   0  0  0  0  0  0  0  0  0  0  0  0
  1  2  1  0
  2  3  2  0
  3  4  1  0
  4  5  1  0
  4  6  2  0
  6  7  1  0
  7  8  1  0
  8  9  1  0
  9 10  1  0
 10 11  1  0
 11 12  1  0
 12 13  2  0
 13 14  1  0
 14 15  2  0
  6 16  1  0
 16 17  1  0
 16 18  2  0
 18  2  1  0
 15 11  1  0
  1 19  1  0
  1 20  1  0
  1 21  1  0
  3 22  1  0
  8 23  1  0
  8 24  1  0
  9 25  1  0
  9 26  1  0
 10 27  1  0
 10 28  1  0
 12 29  1  0
 13 30  1  0
 15 31  1  0
 18 32  1  0
M  END
$$$$
