
     RDKit          3D

 36 38  0  0  0  0  0  0  0  0999 V2000
   -5.7473    0.4403    0.0685 C   0  0  0  0  0  0  0  0  0  0  0  0
   -4.2688    0.7032    0.0132 C   0  0  0  0  0  0  0  0  0  0  0  0
   -3.7949    2.0187   -0.1371 C   0  0  0  0  0  0  0  0  0  0  0  0
   -2.4274    2.2781   -0.2237 C   0  0  0  0  0  0  0  0  0  0  0  0
   -1.5482    1.2075   -0.1661 C   0  0  0  0  0  0  0  0  0  0  0  0
   -1.9918   -0.1249   -0.0287 C   0  0  0  0  0  0  0  0  0  0  0  0
   -3.3597   -0.3695    0.0539 C   0  0  0  0  0  0  0  0  0  0  0  0
   -0.9463   -1.0752    0.0103 N   0  0  0  0  0  0  0  0  0  0  0  0
   -1.2830   -2.4875   -0.0488 C   0  0  0  0  0  0  0  0  0  0  0  0
    0.3033   -0.4760   -0.1614 C   0  0  0  0  0  0  0  0  0  0  0  0
    1.4924   -1.1050   -0.2210 C   0  0  0  0  0  0  0  0  0  0  0  0
    2.7916   -0.4505   -0.4010 C   0  0  0  0  0  0  0  0  0  0  0  0
    3.3113   -0.3009   -1.6924 C   0  0  0  0  0  0  0  0  0  0  0  0
    4.5321    0.3327   -1.8813 C   0  0  0  0  0  0  0  0  0  0  0  0
    5.2198    0.8141   -0.7789 C   0  0  0  0  0  0  0  0  0  0  0  0
    4.6776    0.6488    0.4894 C   0  0  0  0  0  0  0  0  0  0  0  0
    3.4921    0.0183    0.6689 N   0  0  0  0  0  4  0  0  0  0  0  0
    2.9673   -0.1224    2.0427 C   0  0  0  0  0  0  0  0  0  0  0  0
    0.2318    1.3091   -0.2816 S   0  0  0  0  0  0  0  0  0  0  0  0
   -6.2778    1.2847    0.5209 H   0  0  0  0  0  0  0  0  0  0  0  0
   -5.9637   -0.4431    0.6784 H   0  0  0  0  0  0  0  0  0  0  0  0
   -6.1355    0.2779   -0.9417 H   0  0  0  0  0  0  0  0  0  0  0  0
   -4.4974    2.8490   -0.1900 H   0  0  0  0  0  0  0  0  0  0  0  0
   -2.0687    3.2955   -0.3414 H   0  0  0  0  0  0  0  0  0  0  0  0
   -3.7443   -1.3798    0.1518 H   0  0  0  0  0  0  0  0  0  0  0  0
   -1.7251   -2.7396   -1.0190 H   0  0  0  0  0  0  0  0  0  0  0  0
   -1.9864   -2.7600    0.7459 H   0  0  0  0  0  0  0  0  0  0  0  0
   -0.4060   -3.1264    0.0908 H   0  0  0  0  0  0  0  0  0  0  0  0
    1.5491   -2.1863   -0.1529 H   0  0  0  0  0  0  0  0  0  0  0  0
    2.7579   -0.6663   -2.5564 H   0  0  0  0  0  0  0  0  0  0  0  0
    4.9379    0.4582   -2.8841 H   0  0  0  0  0  0  0  0  0  0  0  0
    6.1735    1.3222   -0.9070 H   0  0  0  0  0  0  0  0  0  0  0  0
    5.1908    1.0236    1.3710 H   0  0  0  0  0  0  0  0  0  0  0  0
    2.6493   -1.1567    2.1959 H   0  0  0  0  0  0  0  0  0  0  0  0
    3.7553    0.1093    2.7643 H   0  0  0  0  0  0  0  0  0  0  0  0
    2.1393    0.5787    2.1657 H   0  0  0  0  0  0  0  0  0  0  0  0
  1  2  1  0
  2  3  2  0
  3  4  1  0
  4  5  2  0
  5  6  1  0
  6  7  2  0
  6  8  1  0
  8  9  1  0
  8 10  1  0
 10 11  2  3
 11 12  1  0
 12 13  2  0
 13 14  1  0
 14 15  2  0
 15 16  1  0
 16 17  2  0
 17 18  1  0
 10 19  1  0
  7  2  1  0
 17 12  1  0
 19  5  1  0
  1 20  1  0
  1 21  1  0
  1 22  1  0
  3 23  1  0
  4 24  1  0
  7 25  1  0
  9 26  1  0
  9 27  1  0
  9 28  1  0
 11 29  1  0
 13 30  1  0
 14 31  1  0
 15 32  1  0
 16 33  1  0
 18 34  1  0
 18 35  1  0
 18 36  1  0
M  CHG  1  17   1
M  END
$$$$
