
     RDKit          3D

 51 55  0  0  0  0  0  0  0  0999 V2000
    1.0946    0.4301   -0.2298 O   0  0  0  0  0  0  0  0  0  0  0  0
    1.0528   -0.7475   -0.5756 C   0  0  0  0  0  0  0  0  0  0  0  0
   -0.2019   -1.3584   -1.2238 C   0  0  0  0  0  0  0  0  0  0  0  0
   -1.4311   -0.7024   -0.7817 N   0  0  0  0  0  0  0  0  0  0  0  0
   -1.8984   -1.0516    0.4821 C   0  0  0  0  0  0  0  0  0  0  0  0
   -1.4243   -1.9908    1.1257 O   0  0  0  0  0  0  0  0  0  0  0  0
   -2.9802   -0.1874    1.0792 C   0  0  0  0  0  0  0  0  0  0  0  0
   -4.3621   -0.6760    0.6824 C   0  0  0  0  0  0  0  0  0  0  0  0
   -5.4183    0.2692    1.1644 C   0  0  0  0  0  0  0  0  0  0  0  0
   -5.6995    1.6010    0.9239 C   0  0  0  0  0  0  0  0  0  0  0  0
   -6.8395    1.9182    1.6995 C   0  0  0  0  0  0  0  0  0  0  0  0
   -7.1819    0.7661    2.3660 C   0  0  0  0  0  0  0  0  0  0  0  0
   -6.3246   -0.2377    2.0521 O   0  0  0  0  0  0  0  0  0  0  0  0
   -4.5884   -0.9983   -1.1113 S   0  0  0  0  0  0  0  0  0  0  0  0
   -3.4934    0.2261   -1.8240 C   0  0  0  0  0  0  0  0  0  0  0  0
   -4.0856    1.1406   -2.7099 C   0  0  0  0  0  0  0  0  0  0  0  0
   -3.3075    2.0510   -3.4211 C   0  0  0  0  0  0  0  0  0  0  0  0
   -1.9262    2.0389   -3.2738 C   0  0  0  0  0  0  0  0  0  0  0  0
   -1.3225    1.1215   -2.4108 C   0  0  0  0  0  0  0  0  0  0  0  0
   -2.0900    0.2143   -1.6604 C   0  0  0  0  0  0  0  0  0  0  0  0
    2.1039   -1.6531   -0.5118 N   0  0  0  0  0  0  0  0  0  0  0  0
    3.4128   -1.4215   -0.0372 C   0  0  0  0  0  0  0  0  0  0  0  0
    4.2909   -2.5157   -0.0391 C   0  0  0  0  0  0  0  0  0  0  0  0
    5.6082   -2.3785    0.4092 C   0  0  0  0  0  0  0  0  0  0  0  0
    6.0577   -1.1446    0.8654 C   0  0  0  0  0  0  0  0  0  0  0  0
    5.1969   -0.0438    0.8522 C   0  0  0  0  0  0  0  0  0  0  0  0
    3.8766   -0.1843    0.4162 C   0  0  0  0  0  0  0  0  0  0  0  0
    5.5792    1.2101    1.2618 O   0  0  0  0  0  0  0  0  0  0  0  0
    7.0044    1.3207    1.3438 C   0  0  0  0  0  0  0  0  0  0  0  0
    7.5963    0.1136    2.0534 C   0  0  0  0  0  0  0  0  0  0  0  0
    7.3554   -1.0836    1.3045 O   0  0  0  0  0  0  0  0  0  0  0  0
   -0.0978   -1.2993   -2.3126 H   0  0  0  0  0  0  0  0  0  0  0  0
   -0.2638   -2.4223   -0.9650 H   0  0  0  0  0  0  0  0  0  0  0  0
   -2.8049    0.8647    0.8229 H   0  0  0  0  0  0  0  0  0  0  0  0
   -2.8713   -0.2248    2.1718 H   0  0  0  0  0  0  0  0  0  0  0  0
   -4.5282   -1.6505    1.1602 H   0  0  0  0  0  0  0  0  0  0  0  0
   -5.1482    2.2601    0.2674 H   0  0  0  0  0  0  0  0  0  0  0  0
   -7.3507    2.8681    1.7652 H   0  0  0  0  0  0  0  0  0  0  0  0
   -7.9661    0.5087    3.0644 H   0  0  0  0  0  0  0  0  0  0  0  0
   -5.1633    1.1386   -2.8639 H   0  0  0  0  0  0  0  0  0  0  0  0
   -3.7780    2.7562   -4.1019 H   0  0  0  0  0  0  0  0  0  0  0  0
   -1.3131    2.7476   -3.8256 H   0  0  0  0  0  0  0  0  0  0  0  0
   -0.2417    1.1676   -2.3014 H   0  0  0  0  0  0  0  0  0  0  0  0
    1.8995   -2.6073   -0.7804 H   0  0  0  0  0  0  0  0  0  0  0  0
    3.9638   -3.4932   -0.3824 H   0  0  0  0  0  0  0  0  0  0  0  0
    6.2764   -3.2344    0.4126 H   0  0  0  0  0  0  0  0  0  0  0  0
    3.2407    0.6960    0.4378 H   0  0  0  0  0  0  0  0  0  0  0  0
    7.2350    2.2366    1.8963 H   0  0  0  0  0  0  0  0  0  0  0  0
    7.4058    1.4241    0.3279 H   0  0  0  0  0  0  0  0  0  0  0  0
    7.1710   -0.0119    3.0570 H   0  0  0  0  0  0  0  0  0  0  0  0
    8.6805    0.2295    2.1535 H   0  0  0  0  0  0  0  0  0  0  0  0
  1  2  2  0
  2  3  1  0
  3  4  1  0
  4  5  1  0
  5  6  2  0
  5  7  1  0
  7  8  1  0
  8  9  1  0
  9 10  2  0
 10 11  1  0
 11 12  2  0
 12 13  1  0
  8 14  1  0
 14 15  1  0
 15 16  2  0
 16 17  1  0
 17 18  2  0
 18 19  1  0
 19 20  2  0
  2 21  1  0
 21 22  1  0
 22 23  2  0
 23 24  1  0
 24 25  2  0
 25 26  1  0
 26 27  2  0
 26 28  1  0
 28 29  1  0
 29 30  1  0
 30 31  1  0
 20  4  1  0
 27 22  1  0
 13  9  1  0
 20 15  1  0
 31 25  1  0
  3 32  1  0
  3 33  1  0
  7 34  1  0
  7 35  1  0
  8 36  1  0
 10 37  1  0
 11 38  1  0
 12 39  1  0
 16 40  1  0
 17 41  1  0
 18 42  1  0
 19 43  1  0
 21 44  1  0
 23 45  1  0
 24 46  1  0
 27 47  1  0
 29 48  1  0
 29 49  1  0
 30 50  1  0
 30 51  1  0
M  END
$$$$
