
     RDKit          3D

 84 87  0  0  0  0  0  0  0  0999 V2000
    5.7410    5.3073   -2.3746 C   0  0  0  0  0  0  0  0  0  0  0  0
    5.9761    4.2980   -1.4005 O   0  0  0  0  0  0  0  0  0  0  0  0
    4.8908    3.5883   -0.9658 C   0  0  0  0  0  0  0  0  0  0  0  0
    3.5750    3.7412   -1.4107 C   0  0  0  0  0  0  0  0  0  0  0  0
    2.5548    2.9336   -0.8943 C   0  0  0  0  0  0  0  0  0  0  0  0
    2.8607    1.9721    0.0711 C   0  0  0  0  0  0  0  0  0  0  0  0
    1.5918    0.9125    0.7160 S   0  0  0  0  0  6  0  0  0  0  0  0
    1.7008    0.9238    2.1583 O   0  0  0  0  0  0  0  0  0  0  0  0
    0.3369    1.2414    0.0667 O   0  0  0  0  0  0  0  0  0  0  0  0
    2.0726   -0.6199    0.1614 N   0  0  0  0  0  0  0  0  0  0  0  0
    2.1000   -0.8065   -1.3020 C   0  0  0  0  0  0  0  0  0  0  0  0
    1.5497   -1.7992    0.9236 C   0  0  0  0  0  0  0  0  0  0  0  0
    0.0076   -1.8972    0.9876 C   0  0  0  0  0  0  0  0  0  0  0  0
   -0.4849   -1.8790   -0.3716 O   0  0  0  0  0  0  0  0  0  0  0  0
   -1.8263   -2.1649   -0.4383 C   0  0  0  0  0  0  0  0  0  0  0  0
   -2.7936   -1.1783   -0.1969 C   0  0  0  0  0  0  0  0  0  0  0  0
   -2.3555    0.1408    0.0417 N   0  0  0  0  0  0  0  0  0  0  0  0
   -3.1010    1.2213    0.4564 C   0  0  0  0  0  0  0  0  0  0  0  0
   -4.2942    1.2192    0.7338 O   0  0  0  0  0  0  0  0  0  0  0  0
   -2.3155    2.3474    0.5593 N   0  0  0  0  0  0  0  0  0  0  0  0
   -2.8804    3.6498    0.8580 C   0  0  0  0  0  0  0  0  0  0  0  0
   -3.5945    4.2381   -0.3655 C   0  0  0  0  0  0  0  0  0  0  0  0
   -4.1666    5.6218   -0.0626 C   0  0  0  0  0  0  0  0  0  0  0  0
   -3.0919    6.5729    0.4544 C   0  0  0  0  0  0  0  0  0  0  0  0
   -2.3453    5.9896    1.6519 C   0  0  0  0  0  0  0  0  0  0  0  0
   -1.7851    4.6011    1.3520 C   0  0  0  0  0  0  0  0  0  0  0  0
   -4.1406   -1.5508   -0.2193 C   0  0  0  0  0  0  0  0  0  0  0  0
   -4.5194   -2.8668   -0.5174 C   0  0  0  0  0  0  0  0  0  0  0  0
   -3.5526   -3.8295   -0.7940 C   0  0  0  0  0  0  0  0  0  0  0  0
   -2.2043   -3.4794   -0.7323 C   0  0  0  0  0  0  0  0  0  0  0  0
   -1.1900   -4.4837   -1.0852 C   0  0  0  0  0  0  0  0  0  0  0  0
   -1.2934   -4.9770   -2.2119 O   0  0  0  0  0  0  0  0  0  0  0  0
   -0.1545   -4.8286   -0.1944 N   0  0  0  0  0  0  0  0  0  0  0  0
    0.8026   -5.8504   -0.7002 C   0  0  0  0  0  0  0  0  0  0  0  0
    0.9519   -7.0705    0.2186 C   0  0  0  0  0  0  0  0  0  0  0  0
    2.1586   -5.2088   -1.0408 C   0  0  0  0  0  0  0  0  0  0  0  0
    3.0171   -6.1020   -1.7362 O   0  0  0  0  0  0  0  0  0  0  0  0
   -0.0917   -4.5122    1.2439 C   0  0  0  0  0  0  0  0  0  0  0  0
   -0.4924   -3.1291    1.7984 C   0  0  0  0  0  0  0  0  0  0  0  0
   -0.0676   -3.0322    3.2752 C   0  0  0  0  0  0  0  0  0  0  0  0
    4.1685    1.8182    0.5351 C   0  0  0  0  0  0  0  0  0  0  0  0
    5.1775    2.6270    0.0100 C   0  0  0  0  0  0  0  0  0  0  0  0
    5.1101    6.1069   -1.9621 H   0  0  0  0  0  0  0  0  0  0  0  0
    6.7088    5.7441   -2.6403 H   0  0  0  0  0  0  0  0  0  0  0  0
    5.3041    4.8885   -3.2881 H   0  0  0  0  0  0  0  0  0  0  0  0
    3.3105    4.4788   -2.1626 H   0  0  0  0  0  0  0  0  0  0  0  0
    1.5375    3.0597   -1.2555 H   0  0  0  0  0  0  0  0  0  0  0  0
    1.1757   -0.4647   -1.7715 H   0  0  0  0  0  0  0  0  0  0  0  0
    2.2428   -1.8588   -1.5620 H   0  0  0  0  0  0  0  0  0  0  0  0
    2.9416   -0.2552   -1.7308 H   0  0  0  0  0  0  0  0  0  0  0  0
    1.9664   -2.7018    0.4722 H   0  0  0  0  0  0  0  0  0  0  0  0
    1.9732   -1.7512    1.9279 H   0  0  0  0  0  0  0  0  0  0  0  0
   -0.3661   -0.9985    1.4929 H   0  0  0  0  0  0  0  0  0  0  0  0
   -1.3571    0.3069   -0.0536 H   0  0  0  0  0  0  0  0  0  0  0  0
   -1.3864    2.2979    0.1547 H   0  0  0  0  0  0  0  0  0  0  0  0
   -3.6153    3.5124    1.6601 H   0  0  0  0  0  0  0  0  0  0  0  0
   -2.8922    4.3139   -1.2073 H   0  0  0  0  0  0  0  0  0  0  0  0
   -4.4067    3.5788   -0.6921 H   0  0  0  0  0  0  0  0  0  0  0  0
   -4.6260    6.0371   -0.9672 H   0  0  0  0  0  0  0  0  0  0  0  0
   -4.9645    5.5273    0.6862 H   0  0  0  0  0  0  0  0  0  0  0  0
   -2.3782    6.7945   -0.3504 H   0  0  0  0  0  0  0  0  0  0  0  0
   -3.5563    7.5242    0.7435 H   0  0  0  0  0  0  0  0  0  0  0  0
   -3.0231    5.9317    2.5135 H   0  0  0  0  0  0  0  0  0  0  0  0
   -1.5311    6.6613    1.9381 H   0  0  0  0  0  0  0  0  0  0  0  0
   -1.3134    4.1932    2.2543 H   0  0  0  0  0  0  0  0  0  0  0  0
   -0.9918    4.6845    0.5981 H   0  0  0  0  0  0  0  0  0  0  0  0
   -4.9260   -0.8252   -0.0300 H   0  0  0  0  0  0  0  0  0  0  0  0
   -5.5741   -3.1287   -0.5566 H   0  0  0  0  0  0  0  0  0  0  0  0
   -3.8457   -4.8389   -1.0671 H   0  0  0  0  0  0  0  0  0  0  0  0
    0.4211   -6.2625   -1.6409 H   0  0  0  0  0  0  0  0  0  0  0  0
    1.5335   -7.8536   -0.2766 H   0  0  0  0  0  0  0  0  0  0  0  0
   -0.0275   -7.4862    0.4764 H   0  0  0  0  0  0  0  0  0  0  0  0
    1.4677   -6.8187    1.1512 H   0  0  0  0  0  0  0  0  0  0  0  0
    2.6786   -4.8963   -0.1288 H   0  0  0  0  0  0  0  0  0  0  0  0
    2.0172   -4.3208   -1.6666 H   0  0  0  0  0  0  0  0  0  0  0  0
    2.5601   -6.3553   -2.5613 H   0  0  0  0  0  0  0  0  0  0  0  0
   -0.7141   -5.2705    1.7364 H   0  0  0  0  0  0  0  0  0  0  0  0
    0.9402   -4.6967    1.5648 H   0  0  0  0  0  0  0  0  0  0  0  0
   -1.5888   -3.0998    1.8319 H   0  0  0  0  0  0  0  0  0  0  0  0
   -0.5674   -3.8098    3.8655 H   0  0  0  0  0  0  0  0  0  0  0  0
   -0.3531   -2.0625    3.6972 H   0  0  0  0  0  0  0  0  0  0  0  0
    1.0131   -3.1614    3.4053 H   0  0  0  0  0  0  0  0  0  0  0  0
    4.4087    1.0730    1.2931 H   0  0  0  0  0  0  0  0  0  0  0  0
    6.2017    2.5033    0.3598 H   0  0  0  0  0  0  0  0  0  0  0  0
  1  2  1  0
  2  3  1  0
  3  4  2  0
  4  5  1  0
  5  6  2  0
  6  7  1  0
  7  8  2  0
  7  9  2  0
  7 10  1  0
 10 11  1  0
 10 12  1  0
 12 13  1  0
 13 14  1  0
 14 15  1  0
 15 16  2  0
 16 17  1  0
 17 18  1  0
 18 19  2  0
 18 20  1  0
 20 21  1  0
 21 22  1  0
 22 23  1  0
 23 24  1  0
 24 25  1  0
 25 26  1  0
 16 27  1  0
 27 28  2  0
 28 29  1  0
 29 30  2  0
 30 31  1  0
 31 32  2  0
 31 33  1  0
 33 34  1  0
 34 35  1  0
 34 36  1  0
 36 37  1  0
 33 38  1  0
 38 39  1  0
 39 40  1  0
  6 41  1  0
 41 42  2  0
 42  3  1  0
 39 13  1  0
 30 15  1  0
 26 21  1  0
  1 43  1  0
  1 44  1  0
  1 45  1  0
  4 46  1  0
  5 47  1  0
 11 48  1  0
 11 49  1  0
 11 50  1  0
 12 51  1  0
 12 52  1  0
 13 53  1  0
 17 54  1  0
 20 55  1  0
 21 56  1  0
 22 57  1  0
 22 58  1  0
 23 59  1  0
 23 60  1  0
 24 61  1  0
 24 62  1  0
 25 63  1  0
 25 64  1  0
 26 65  1  0
 26 66  1  0
 27 67  1  0
 28 68  1  0
 29 69  1  0
 34 70  1  0
 35 71  1  0
 35 72  1  0
 35 73  1  0
 36 74  1  0
 36 75  1  0
 37 76  1  0
 38 77  1  0
 38 78  1  0
 39 79  1  0
 40 80  1  0
 40 81  1  0
 40 82  1  0
 41 83  1  0
 42 84  1  0
M  END
$$$$
