
     RDKit          3D

 50 52  0  0  0  0  0  0  0  0999 V2000
    1.1224    2.3469   -1.4165 C   0  0  0  0  0  0  0  0  0  0  0  0
    1.7441    2.1848   -0.0395 C   0  0  0  0  0  0  0  0  0  0  0  0
    2.6032    0.9967    0.0479 N   0  0  0  0  0  4  0  0  0  0  0  0
    2.2221   -0.1386    0.6218 C   0  0  0  0  0  0  0  0  0  0  0  0
    0.9718   -0.4637    1.2058 C   0  0  0  0  0  0  0  0  0  0  0  0
   -0.1719   -0.4729    0.4981 C   0  0  0  0  0  0  0  0  0  0  0  0
   -1.4387   -0.8330    1.1029 C   0  0  0  0  0  0  0  0  0  0  0  0
   -2.6236   -0.6775    0.4878 C   0  0  0  0  0  0  0  0  0  0  0  0
   -3.8926   -0.9823    1.0037 N   0  0  0  0  0  0  0  0  0  0  0  0
   -4.0600   -1.3297    2.3636 C   0  0  0  0  0  0  0  0  0  0  0  0
   -5.2371   -2.2233    2.7078 C   0  0  0  0  0  0  0  0  0  0  0  0
   -3.2857   -1.0054    3.2656 O   0  0  0  0  0  0  0  0  0  0  0  0
   -5.0508   -0.7906    0.1651 C   0  0  0  0  0  0  0  0  0  0  0  0
   -6.2167   -0.2048    0.6794 C   0  0  0  0  0  0  0  0  0  0  0  0
   -7.3320    0.0080   -0.1284 C   0  0  0  0  0  0  0  0  0  0  0  0
   -7.3001   -0.3653   -1.4618 C   0  0  0  0  0  0  0  0  0  0  0  0
   -6.1448   -0.9249   -1.9985 C   0  0  0  0  0  0  0  0  0  0  0  0
   -5.0254   -1.1302   -1.1944 C   0  0  0  0  0  0  0  0  0  0  0  0
    3.5166   -1.2637    0.6666 S   0  0  0  0  0  0  0  0  0  0  0  0
    4.5861   -0.1830   -0.1357 C   0  0  0  0  0  0  0  0  0  0  0  0
    5.9345   -0.3872   -0.4910 C   0  0  0  0  0  0  0  0  0  0  0  0
    6.6116    0.6540   -1.1283 C   0  0  0  0  0  0  0  0  0  0  0  0
    7.9167    0.6241   -1.5335 O   0  0  0  0  0  0  0  0  0  0  0  0
    8.7096   -0.4803   -1.1168 C   0  0  0  0  0  0  0  0  0  0  0  0
    5.9525    1.8445   -1.4099 C   0  0  0  0  0  0  0  0  0  0  0  0
    4.6124    2.0456   -1.0503 C   0  0  0  0  0  0  0  0  0  0  0  0
    3.9204    1.0073   -0.4037 C   0  0  0  0  0  0  0  0  0  0  0  0
    0.4003    3.1595   -1.4091 H   0  0  0  0  0  0  0  0  0  0  0  0
    0.6113    1.4390   -1.7430 H   0  0  0  0  0  0  0  0  0  0  0  0
    1.8824    2.5772   -2.1619 H   0  0  0  0  0  0  0  0  0  0  0  0
    2.3409    3.0685    0.1985 H   0  0  0  0  0  0  0  0  0  0  0  0
    0.9583    2.1464    0.7181 H   0  0  0  0  0  0  0  0  0  0  0  0
    0.9692   -0.7587    2.2590 H   0  0  0  0  0  0  0  0  0  0  0  0
   -0.1967   -0.2360   -0.5650 H   0  0  0  0  0  0  0  0  0  0  0  0
   -1.3844   -1.2497    2.1073 H   0  0  0  0  0  0  0  0  0  0  0  0
   -2.6382   -0.2584   -0.5146 H   0  0  0  0  0  0  0  0  0  0  0  0
   -6.0012   -1.6422    3.2321 H   0  0  0  0  0  0  0  0  0  0  0  0
   -5.6674   -2.7151    1.8320 H   0  0  0  0  0  0  0  0  0  0  0  0
   -4.8825   -3.0144    3.3766 H   0  0  0  0  0  0  0  0  0  0  0  0
   -6.2603    0.1557    1.6998 H   0  0  0  0  0  0  0  0  0  0  0  0
   -8.2263    0.4629    0.2877 H   0  0  0  0  0  0  0  0  0  0  0  0
   -8.1728   -0.2062   -2.0887 H   0  0  0  0  0  0  0  0  0  0  0  0
   -6.1205   -1.2082   -3.0445 H   0  0  0  0  0  0  0  0  0  0  0  0
   -4.1533   -1.6021   -1.6377 H   0  0  0  0  0  0  0  0  0  0  0  0
    6.4166   -1.3364   -0.2636 H   0  0  0  0  0  0  0  0  0  0  0  0
    8.7306   -0.5703   -0.0294 H   0  0  0  0  0  0  0  0  0  0  0  0
    8.3578   -1.4070   -1.5809 H   0  0  0  0  0  0  0  0  0  0  0  0
    9.7374   -0.3071   -1.4537 H   0  0  0  0  0  0  0  0  0  0  0  0
    6.4993    2.6449   -1.9096 H   0  0  0  0  0  0  0  0  0  0  0  0
    4.1548    3.0025   -1.2829 H   0  0  0  0  0  0  0  0  0  0  0  0
  1  2  1  0
  2  3  1  0
  3  4  2  0
  4  5  1  0
  5  6  2  3
  6  7  1  0
  7  8  2  3
  8  9  1  0
  9 10  1  0
 10 11  1  0
 10 12  2  0
  9 13  1  0
 13 14  2  0
 14 15  1  0
 15 16  2  0
 16 17  1  0
 17 18  2  0
  4 19  1  0
 19 20  1  0
 20 21  2  0
 21 22  1  0
 22 23  1  0
 23 24  1  0
 22 25  2  0
 25 26  1  0
 26 27  2  0
 27  3  1  0
 18 13  1  0
 27 20  1  0
  1 28  1  0
  1 29  1  0
  1 30  1  0
  2 31  1  0
  2 32  1  0
  5 33  1  0
  6 34  1  0
  7 35  1  0
  8 36  1  0
 11 37  1  0
 11 38  1  0
 11 39  1  0
 14 40  1  0
 15 41  1  0
 16 42  1  0
 17 43  1  0
 18 44  1  0
 21 45  1  0
 24 46  1  0
 24 47  1  0
 24 48  1  0
 25 49  1  0
 26 50  1  0
M  CHG  1   3   1
M  END
$$$$
