
     RDKit          3D

 44 44  0  0  0  0  0  0  0  0999 V2000
   -2.8570   -0.8821   -1.7856 C   0  0  0  0  0  0  0  0  0  0  0  0
   -3.1275   -1.0442   -0.2947 C   0  0  0  0  0  0  0  0  0  0  0  0
   -3.3577    0.2494    0.3643 N   0  0  0  0  0  0  0  0  0  0  0  0
   -4.7332    0.5263    0.8029 C   0  0  0  0  0  0  0  0  0  0  0  0
   -5.5770    1.0958   -0.3277 C   0  0  0  0  0  0  0  0  0  0  0  0
   -2.3360    1.1787    0.5568 C   0  0  0  0  0  0  0  0  0  0  0  0
   -2.6009    2.5288    0.8476 C   0  0  0  0  0  0  0  0  0  0  0  0
   -1.5806    3.4685    1.0334 C   0  0  0  0  0  0  0  0  0  0  0  0
   -0.2524    3.0784    0.9356 C   0  0  0  0  0  0  0  0  0  0  0  0
    0.0607    1.7525    0.6604 C   0  0  0  0  0  0  0  0  0  0  0  0
    1.4021    1.4914    0.5932 O   0  0  0  0  0  0  0  0  0  0  0  0
    1.7996    0.1305    0.5006 C   0  0  0  0  0  0  0  0  0  0  0  0
    3.3300   -0.0057    0.5432 C   0  0  0  0  0  0  0  0  0  0  0  0
    4.0658    0.9757    0.6686 O   0  0  0  0  0  0  0  0  0  0  0  0
    3.8600   -1.2982    0.4382 N   0  0  0  0  0  0  0  0  0  0  0  0
    3.0589   -2.5023    0.2564 C   0  0  0  0  0  0  0  0  0  0  0  0
    5.3217   -1.4476    0.3953 C   0  0  0  0  0  0  0  0  0  0  0  0
    5.8797   -1.8936   -0.9559 C   0  0  0  0  0  0  0  0  0  0  0  0
    5.6145   -0.9293   -2.0291 C   0  0  0  0  0  0  0  0  0  0  0  0
    5.4123   -0.2156   -2.9213 N   0  0  0  0  0  0  0  0  0  0  0  0
   -0.9734    0.8236    0.4716 C   0  0  0  0  0  0  0  0  0  0  0  0
   -2.7320   -1.8636   -2.2538 H   0  0  0  0  0  0  0  0  0  0  0  0
   -1.9480   -0.3043   -1.9771 H   0  0  0  0  0  0  0  0  0  0  0  0
   -3.6852   -0.3701   -2.2860 H   0  0  0  0  0  0  0  0  0  0  0  0
   -2.3159   -1.5972    0.1910 H   0  0  0  0  0  0  0  0  0  0  0  0
   -4.0116   -1.6849   -0.1840 H   0  0  0  0  0  0  0  0  0  0  0  0
   -5.1999   -0.4016    1.1572 H   0  0  0  0  0  0  0  0  0  0  0  0
   -4.7554    1.1940    1.6726 H   0  0  0  0  0  0  0  0  0  0  0  0
   -6.5781    1.3449    0.0380 H   0  0  0  0  0  0  0  0  0  0  0  0
   -5.1329    2.0016   -0.7504 H   0  0  0  0  0  0  0  0  0  0  0  0
   -5.6889    0.3698   -1.1394 H   0  0  0  0  0  0  0  0  0  0  0  0
   -3.6198    2.8979    0.9142 H   0  0  0  0  0  0  0  0  0  0  0  0
   -1.8290    4.5039    1.2479 H   0  0  0  0  0  0  0  0  0  0  0  0
    0.5425    3.8063    1.0759 H   0  0  0  0  0  0  0  0  0  0  0  0
    1.3948   -0.4243    1.3548 H   0  0  0  0  0  0  0  0  0  0  0  0
    1.4574   -0.2869   -0.4531 H   0  0  0  0  0  0  0  0  0  0  0  0
    3.4893   -3.3119    0.8548 H   0  0  0  0  0  0  0  0  0  0  0  0
    2.0219   -2.3620    0.5652 H   0  0  0  0  0  0  0  0  0  0  0  0
    3.0747   -2.7777   -0.8025 H   0  0  0  0  0  0  0  0  0  0  0  0
    5.5845   -2.1919    1.1569 H   0  0  0  0  0  0  0  0  0  0  0  0
    5.8118   -0.5154    0.6986 H   0  0  0  0  0  0  0  0  0  0  0  0
    5.4630   -2.8684   -1.2328 H   0  0  0  0  0  0  0  0  0  0  0  0
    6.9629   -2.0342   -0.8599 H   0  0  0  0  0  0  0  0  0  0  0  0
   -0.7159   -0.2047    0.2579 H   0  0  0  0  0  0  0  0  0  0  0  0
  1  2  1  0
  2  3  1  0
  3  4  1  0
  4  5  1  0
  3  6  1  0
  6  7  2  0
  7  8  1  0
  8  9  2  0
  9 10  1  0
 10 11  1  0
 11 12  1  0
 12 13  1  0
 13 14  2  0
 13 15  1  0
 15 16  1  0
 15 17  1  0
 17 18  1  0
 18 19  1  0
 19 20  3  0
 10 21  2  0
 21  6  1  0
  1 22  1  0
  1 23  1  0
  1 24  1  0
  2 25  1  0
  2 26  1  0
  4 27  1  0
  4 28  1  0
  5 29  1  0
  5 30  1  0
  5 31  1  0
  7 32  1  0
  8 33  1  0
  9 34  1  0
 12 35  1  0
 12 36  1  0
 16 37  1  0
 16 38  1  0
 16 39  1  0
 17 40  1  0
 17 41  1  0
 18 42  1  0
 18 43  1  0
 21 44  1  0
M  END
$$$$
