
     RDKit          3D

 42 44  0  0  0  0  0  0  0  0999 V2000
   -5.3757   -3.0830    0.5715 C   0  0  0  0  0  0  0  0  0  0  0  0
   -4.7321   -1.8562    0.2540 O   0  0  0  0  0  0  0  0  0  0  0  0
   -5.5160   -0.7348    0.1448 C   0  0  0  0  0  0  0  0  0  0  0  0
   -6.8989   -0.7165    0.3657 C   0  0  0  0  0  0  0  0  0  0  0  0
   -7.6282    0.4654    0.2100 C   0  0  0  0  0  0  0  0  0  0  0  0
   -6.9858    1.6389   -0.1706 C   0  0  0  0  0  0  0  0  0  0  0  0
   -5.6091    1.6352   -0.3909 C   0  0  0  0  0  0  0  0  0  0  0  0
   -4.8606    0.4591   -0.2252 C   0  0  0  0  0  0  0  0  0  0  0  0
   -3.4141    0.5422   -0.4905 C   0  0  0  0  0  0  0  0  0  0  0  0
   -2.4932    0.1526    0.4035 C   0  0  0  0  0  0  0  0  0  0  0  0
   -1.0524    0.2344    0.1570 C   0  0  0  0  0  0  0  0  0  0  0  0
   -0.1148   -0.1203    0.9698 N   0  0  0  0  0  0  0  0  0  0  0  0
    1.0300    0.1577    0.2647 C   0  0  0  0  0  0  0  0  0  0  0  0
    2.2591   -0.0671    0.7501 C   0  0  0  0  0  0  0  0  0  0  0  0
    3.5236    0.1825    0.0907 C   0  0  0  0  0  0  0  0  0  0  0  0
    4.7050   -0.0600    0.6817 C   0  0  0  0  0  0  0  0  0  0  0  0
    6.0119    0.1707    0.0464 C   0  0  0  0  0  0  0  0  0  0  0  0
    7.0786   -0.6794    0.3684 C   0  0  0  0  0  0  0  0  0  0  0  0
    8.3441   -0.4795   -0.1896 C   0  0  0  0  0  0  0  0  0  0  0  0
    8.5596    0.5800   -1.0676 C   0  0  0  0  0  0  0  0  0  0  0  0
    7.5121    1.4420   -1.3841 C   0  0  0  0  0  0  0  0  0  0  0  0
    6.2463    1.2420   -0.8262 C   0  0  0  0  0  0  0  0  0  0  0  0
    0.6751    0.7286   -1.0673 C   0  0  0  0  0  0  0  0  0  0  0  0
    1.3839    1.1117   -1.9755 O   0  0  0  0  0  0  0  0  0  0  0  0
   -0.6859    0.7366   -1.0425 O   0  0  0  0  0  0  0  0  0  0  0  0
   -4.6105   -3.8649    0.5945 H   0  0  0  0  0  0  0  0  0  0  0  0
   -5.8369   -3.0408    1.5636 H   0  0  0  0  0  0  0  0  0  0  0  0
   -6.1072   -3.3566   -0.1960 H   0  0  0  0  0  0  0  0  0  0  0  0
   -7.4437   -1.6081    0.6576 H   0  0  0  0  0  0  0  0  0  0  0  0
   -8.7017    0.4664    0.3830 H   0  0  0  0  0  0  0  0  0  0  0  0
   -7.5545    2.5568   -0.2957 H   0  0  0  0  0  0  0  0  0  0  0  0
   -5.1207    2.5616   -0.6860 H   0  0  0  0  0  0  0  0  0  0  0  0
   -3.1392    0.9623   -1.4543 H   0  0  0  0  0  0  0  0  0  0  0  0
   -2.7738   -0.2554    1.3692 H   0  0  0  0  0  0  0  0  0  0  0  0
    2.3185   -0.4869    1.7535 H   0  0  0  0  0  0  0  0  0  0  0  0
    3.4989    0.5670   -0.9263 H   0  0  0  0  0  0  0  0  0  0  0  0
    4.7436   -0.4698    1.6886 H   0  0  0  0  0  0  0  0  0  0  0  0
    6.9317   -1.5133    1.0511 H   0  0  0  0  0  0  0  0  0  0  0  0
    9.1602   -1.1515    0.0624 H   0  0  0  0  0  0  0  0  0  0  0  0
    9.5434    0.7364   -1.5021 H   0  0  0  0  0  0  0  0  0  0  0  0
    7.6784    2.2744   -2.0630 H   0  0  0  0  0  0  0  0  0  0  0  0
    5.4507    1.9396   -1.0766 H   0  0  0  0  0  0  0  0  0  0  0  0
  1  2  1  0
  2  3  1  0
  3  4  2  0
  4  5  1  0
  5  6  2  0
  6  7  1  0
  7  8  2  0
  8  9  1  0
  9 10  2  3
 10 11  1  0
 11 12  2  0
 12 13  1  0
 13 14  2  3
 14 15  1  0
 15 16  2  3
 16 17  1  0
 17 18  2  0
 18 19  1  0
 19 20  2  0
 20 21  1  0
 21 22  2  0
 13 23  1  0
 23 24  2  0
 23 25  1  0
  8  3  1  0
 25 11  1  0
 22 17  1  0
  1 26  1  0
  1 27  1  0
  1 28  1  0
  4 29  1  0
  5 30  1  0
  6 31  1  0
  7 32  1  0
  9 33  1  0
 10 34  1  0
 14 35  1  0
 15 36  1  0
 16 37  1  0
 18 38  1  0
 19 39  1  0
 20 40  1  0
 21 41  1  0
 22 42  1  0
M  END
$$$$
