
     RDKit          3D

 42 43  0  0  0  0  0  0  0  0999 V2000
   -5.7800   -0.7329   -1.9378 C   0  0  0  0  0  0  0  0  0  0  0  0
   -4.7678    0.1505   -1.2810 C   0  0  0  0  0  0  0  0  0  0  0  0
   -4.1044   -0.0615   -0.1255 C   0  0  0  0  0  0  0  0  0  0  0  0
   -4.3113   -1.2507    0.7756 C   0  0  0  0  0  0  0  0  0  0  0  0
   -3.0869    0.9490    0.3769 C   0  0  0  0  0  0  0  0  0  0  0  0
   -1.7465    0.3731    0.5532 N   0  0  0  0  0  0  0  0  0  0  0  0
   -1.1157    0.0630   -0.7524 C   0  0  0  0  0  0  0  0  0  0  0  0
    0.3200   -0.4914   -0.6005 C   0  0  0  0  0  0  0  0  0  0  0  0
    1.1669    0.4588    0.1502 N   0  0  0  0  0  0  0  0  0  0  0  0
    2.5477    0.2066    0.2086 C   0  0  0  0  0  0  0  0  0  0  0  0
    3.4203    1.2317    0.6096 C   0  0  0  0  0  0  0  0  0  0  0  0
    4.8055    1.0407    0.6773 C   0  0  0  0  0  0  0  0  0  0  0  0
    5.3662   -0.1875    0.3258 C   0  0  0  0  0  0  0  0  0  0  0  0
    6.8448   -0.4106    0.4276 C   0  0  0  0  0  0  0  0  0  0  0  0
    4.5158   -1.2198   -0.0744 C   0  0  0  0  0  0  0  0  0  0  0  0
    3.1300   -1.0192   -0.1413 C   0  0  0  0  0  0  0  0  0  0  0  0
    0.5725    0.8082    1.4624 C   0  0  0  0  0  0  0  0  0  0  0  0
   -0.8752    1.3235    1.2823 C   0  0  0  0  0  0  0  0  0  0  0  0
   -6.7616   -0.2499   -1.9201 H   0  0  0  0  0  0  0  0  0  0  0  0
   -5.8704   -1.7171   -1.4744 H   0  0  0  0  0  0  0  0  0  0  0  0
   -5.4989   -0.8923   -2.9840 H   0  0  0  0  0  0  0  0  0  0  0  0
   -4.5520    1.0598   -1.8416 H   0  0  0  0  0  0  0  0  0  0  0  0
   -3.4479   -1.9218    0.7289 H   0  0  0  0  0  0  0  0  0  0  0  0
   -5.2019   -1.8314    0.5250 H   0  0  0  0  0  0  0  0  0  0  0  0
   -4.4374   -0.9214    1.8128 H   0  0  0  0  0  0  0  0  0  0  0  0
   -3.4575    1.3122    1.3453 H   0  0  0  0  0  0  0  0  0  0  0  0
   -3.0454    1.8296   -0.2783 H   0  0  0  0  0  0  0  0  0  0  0  0
   -1.7048   -0.6919   -1.2855 H   0  0  0  0  0  0  0  0  0  0  0  0
   -1.0843    0.9623   -1.3824 H   0  0  0  0  0  0  0  0  0  0  0  0
    0.2768   -1.4592   -0.0838 H   0  0  0  0  0  0  0  0  0  0  0  0
    0.7290   -0.6514   -1.6057 H   0  0  0  0  0  0  0  0  0  0  0  0
    3.0226    2.2137    0.8528 H   0  0  0  0  0  0  0  0  0  0  0  0
    5.4382    1.8648    0.9974 H   0  0  0  0  0  0  0  0  0  0  0  0
    7.3941    0.5182    0.2411 H   0  0  0  0  0  0  0  0  0  0  0  0
    7.1817   -1.1414   -0.3151 H   0  0  0  0  0  0  0  0  0  0  0  0
    7.1000   -0.7779    1.4264 H   0  0  0  0  0  0  0  0  0  0  0  0
    4.9213   -2.1932   -0.3404 H   0  0  0  0  0  0  0  0  0  0  0  0
    2.5193   -1.8591   -0.4567 H   0  0  0  0  0  0  0  0  0  0  0  0
    1.1421    1.5947    1.9702 H   0  0  0  0  0  0  0  0  0  0  0  0
    0.5713   -0.0749    2.1154 H   0  0  0  0  0  0  0  0  0  0  0  0
   -1.2934    1.5092    2.2791 H   0  0  0  0  0  0  0  0  0  0  0  0
   -0.8429    2.2869    0.7552 H   0  0  0  0  0  0  0  0  0  0  0  0
  1  2  1  0
  2  3  2  3
  3  4  1  0
  3  5  1  0
  5  6  1  0
  6  7  1  0
  7  8  1  0
  8  9  1  0
  9 10  1  0
 10 11  2  0
 11 12  1  0
 12 13  2  0
 13 14  1  0
 13 15  1  0
 15 16  2  0
  9 17  1  0
 17 18  1  0
 18  6  1  0
 16 10  1  0
  1 19  1  0
  1 20  1  0
  1 21  1  0
  2 22  1  0
  4 23  1  0
  4 24  1  0
  4 25  1  0
  5 26  1  0
  5 27  1  0
  7 28  1  0
  7 29  1  0
  8 30  1  0
  8 31  1  0
 11 32  1  0
 12 33  1  0
 14 34  1  0
 14 35  1  0
 14 36  1  0
 15 37  1  0
 16 38  1  0
 17 39  1  0
 17 40  1  0
 18 41  1  0
 18 42  1  0
M  END
$$$$
