
     RDKit          3D

 67 72  0  0  0  0  0  0  0  0999 V2000
   -5.9175    3.1953    2.3909 C   0  0  0  0  0  0  0  0  0  0  0  0
   -4.6436    3.0266    1.6172 C   0  0  0  0  0  0  0  0  0  0  0  0
   -4.2981    3.8869    0.5608 C   0  0  0  0  0  0  0  0  0  0  0  0
   -5.3205    5.2038    0.1002 Cl  0  0  0  0  0  0  0  0  0  0  0  0
   -3.1156    3.7018   -0.1808 C   0  0  0  0  0  0  0  0  0  0  0  0
   -2.2359    2.6595    0.1191 C   0  0  0  0  0  0  0  0  0  0  0  0
   -2.5504    1.8093    1.1692 C   0  0  0  0  0  0  0  0  0  0  0  0
   -3.7556    1.9859    1.8712 C   0  0  0  0  0  0  0  0  0  0  0  0
   -3.9224    0.9527    2.7858 N   0  0  0  0  0  0  0  0  0  0  0  0
   -2.8668    0.0454    2.7445 C   0  0  0  0  0  0  0  0  0  0  0  0
   -2.8087   -0.9764    3.4132 O   0  0  0  0  0  0  0  0  0  0  0  0
   -1.8202    0.6099    1.7225 C   0  0  1  0  0  0  0  0  0  0  0  0
   -1.5128   -0.3517    0.6439 C   0  0  0  0  0  0  0  0  0  0  0  0
   -0.2765   -0.9562    0.8816 C   0  0  0  0  0  0  0  0  0  0  0  0
   -0.0089   -1.8311   -0.1402 C   0  0  0  0  0  0  0  0  0  0  0  0
    1.0211   -2.6548   -0.3176 O   0  0  0  0  0  0  0  0  0  0  0  0
   -1.0945   -1.7741   -1.0407 N   0  0  0  0  0  0  0  0  0  0  0  0
   -1.2126   -2.5033   -2.2739 C   0  0  0  0  0  0  0  0  0  0  0  0
   -2.4710   -2.7983   -2.8170 C   0  0  0  0  0  0  0  0  0  0  0  0
   -2.5687   -3.5061   -4.0146 C   0  0  0  0  0  0  0  0  0  0  0  0
   -3.7821   -3.8087   -4.5006 F   0  0  0  0  0  0  0  0  0  0  0  0
   -1.4405   -3.9275   -4.6984 C   0  0  0  0  0  0  0  0  0  0  0  0
   -0.1972   -3.6351   -4.1643 C   0  0  0  0  0  0  0  0  0  0  0  0
    0.9055   -4.0348   -4.8116 F   0  0  0  0  0  0  0  0  0  0  0  0
   -0.0694   -2.9343   -2.9658 C   0  0  0  0  0  0  0  0  0  0  0  0
   -2.0343   -0.8580   -0.5205 C   0  0  0  0  0  0  0  0  0  0  0  0
   -3.1653   -0.5529   -1.1534 O   0  0  0  0  0  0  0  0  0  0  0  0
    0.3269   -0.4605    2.1540 C   0  0  1  0  0  0  0  0  0  0  0  0
    1.8429   -0.1926    2.0777 C   0  0  0  0  0  0  0  0  0  0  0  0
    2.1659    0.8683    1.1242 N   0  0  0  0  0  0  0  0  0  0  0  0
    3.1973    0.8015    0.2101 C   0  0  0  0  0  0  0  0  0  0  0  0
    3.4031    1.6655   -0.6311 O   0  0  0  0  0  0  0  0  0  0  0  0
    3.9389   -0.3252    0.3590 O   0  0  0  0  0  0  0  0  0  0  0  0
    5.0522   -0.6133   -0.5257 C   0  0  0  0  0  0  0  0  0  0  0  0
    6.1436    0.4557   -0.4232 C   0  0  0  0  0  0  0  0  0  0  0  0
    4.5721   -0.8176   -1.9666 C   0  0  0  0  0  0  0  0  0  0  0  0
    5.6239   -1.9424   -0.0070 C   0  0  0  0  0  0  0  0  0  0  0  0
    1.2462    1.9974    1.0646 C   0  0  0  0  0  0  0  0  0  0  0  0
    0.2418    2.0120    2.2342 C   0  0  0  0  0  0  0  0  0  0  0  0
   -0.5156    0.7695    2.4580 N   0  0  0  0  0  0  0  0  0  0  0  0
   -6.7717    2.8734    1.7872 H   0  0  0  0  0  0  0  0  0  0  0  0
   -5.9178    2.6158    3.3189 H   0  0  0  0  0  0  0  0  0  0  0  0
   -6.0561    4.2402    2.6889 H   0  0  0  0  0  0  0  0  0  0  0  0
   -2.8805    4.3750   -1.0039 H   0  0  0  0  0  0  0  0  0  0  0  0
   -1.3424    2.5185   -0.4822 H   0  0  0  0  0  0  0  0  0  0  0  0
   -4.7180    0.8076    3.3902 H   0  0  0  0  0  0  0  0  0  0  0  0
    1.6380   -2.5473    0.4231 H   0  0  0  0  0  0  0  0  0  0  0  0
   -3.3964   -2.5343   -2.3162 H   0  0  0  0  0  0  0  0  0  0  0  0
   -1.5306   -4.4808   -5.6244 H   0  0  0  0  0  0  0  0  0  0  0  0
    0.9355   -2.7205   -2.6207 H   0  0  0  0  0  0  0  0  0  0  0  0
   -3.6254    0.1438   -0.6555 H   0  0  0  0  0  0  0  0  0  0  0  0
    0.1362   -1.1985    2.9427 H   0  0  0  0  0  0  0  0  0  0  0  0
    2.2102    0.1439    3.0543 H   0  0  0  0  0  0  0  0  0  0  0  0
    2.3791   -1.1152    1.8423 H   0  0  0  0  0  0  0  0  0  0  0  0
    7.0519    0.1523   -0.9556 H   0  0  0  0  0  0  0  0  0  0  0  0
    5.8197    1.4108   -0.8467 H   0  0  0  0  0  0  0  0  0  0  0  0
    6.4016    0.6491    0.6252 H   0  0  0  0  0  0  0  0  0  0  0  0
    3.7425   -1.5314   -2.0031 H   0  0  0  0  0  0  0  0  0  0  0  0
    5.3835   -1.1866   -2.6052 H   0  0  0  0  0  0  0  0  0  0  0  0
    4.2013    0.1098   -2.4125 H   0  0  0  0  0  0  0  0  0  0  0  0
    5.9213   -1.8521    1.0454 H   0  0  0  0  0  0  0  0  0  0  0  0
    4.8667   -2.7362   -0.0480 H   0  0  0  0  0  0  0  0  0  0  0  0
    6.4976   -2.2631   -0.5881 H   0  0  0  0  0  0  0  0  0  0  0  0
    0.7306    1.9413    0.1006 H   0  0  0  0  0  0  0  0  0  0  0  0
    1.8339    2.9229    1.0648 H   0  0  0  0  0  0  0  0  0  0  0  0
    0.8206    2.1789    3.1539 H   0  0  0  0  0  0  0  0  0  0  0  0
   -0.4077    2.8904    2.1752 H   0  0  0  0  0  0  0  0  0  0  0  0
  1  2  1  0
  2  3  2  0
  3  4  1  0
  3  5  1  0
  5  6  2  0
  6  7  1  0
  7  8  2  0
  8  9  1  0
  9 10  1  0
 10 11  2  0
 10 12  1  0
 12 13  1  0
 13 14  1  0
 14 15  2  0
 15 16  1  0
 15 17  1  0
 17 18  1  0
 18 19  2  0
 19 20  1  0
 20 21  1  0
 20 22  2  0
 22 23  1  0
 23 24  1  0
 23 25  2  0
 17 26  1  0
 26 27  1  0
 14 28  1  0
 28 29  1  0
 29 30  1  0
 30 31  1  0
 31 32  2  0
 31 33  1  0
 33 34  1  0
 34 35  1  0
 34 36  1  0
 34 37  1  0
 30 38  1  0
 38 39  1  0
 39 40  1  0
  8  2  1  0
 12 40  1  1
 12  7  1  0
 26 13  2  0
 40 28  1  0
 25 18  1  0
  1 41  1  0
  1 42  1  0
  1 43  1  0
  5 44  1  0
  6 45  1  0
  9 46  1  0
 16 47  1  0
 19 48  1  0
 22 49  1  0
 25 50  1  0
 27 51  1  0
 28 52  1  1
 29 53  1  0
 29 54  1  0
 35 55  1  0
 35 56  1  0
 35 57  1  0
 36 58  1  0
 36 59  1  0
 36 60  1  0
 37 61  1  0
 37 62  1  0
 37 63  1  0
 38 64  1  0
 38 65  1  0
 39 66  1  0
 39 67  1  0
M  END
$$$$
