
     RDKit          3D

 53 55  0  0  0  0  0  0  0  0999 V2000
   -5.8698   -3.9599   -0.4959 C   0  0  0  0  0  0  0  0  0  0  0  0
   -5.4566   -2.9295    0.3930 O   0  0  0  0  0  0  0  0  0  0  0  0
   -5.9951   -1.6827    0.2057 C   0  0  0  0  0  0  0  0  0  0  0  0
   -6.9590   -1.3677   -0.7582 C   0  0  0  0  0  0  0  0  0  0  0  0
   -7.4356   -0.0600   -0.8842 C   0  0  0  0  0  0  0  0  0  0  0  0
   -6.9511    0.9445   -0.0528 C   0  0  0  0  0  0  0  0  0  0  0  0
   -5.9937    0.6414    0.9125 C   0  0  0  0  0  0  0  0  0  0  0  0
   -5.5162   -0.6726    1.0613 C   0  0  0  0  0  0  0  0  0  0  0  0
   -4.4640   -0.9566    2.1049 C   0  0  0  0  0  0  0  0  0  0  0  0
   -3.1427   -0.9062    1.5338 N   0  0  0  0  0  0  0  0  0  0  0  0
   -2.3854    0.2387    1.5261 C   0  0  0  0  0  0  0  0  0  0  0  0
   -2.6355    1.2809    2.1162 O   0  0  0  0  0  0  0  0  0  0  0  0
   -1.1082    0.1269    0.6612 C   0  0  0  0  0  0  0  0  0  0  0  0
   -0.8216   -0.9254    0.1086 O   0  0  0  0  0  0  0  0  0  0  0  0
   -0.3682    1.2851    0.6142 N   0  0  0  0  0  0  0  0  0  0  0  0
    0.9533    1.3247    0.0086 C   0  0  0  0  0  0  0  0  0  0  0  0
    2.0250    0.5610    0.8248 C   0  0  0  0  0  0  0  0  0  0  0  0
    2.0012    1.0995    2.1742 O   0  0  0  0  0  0  0  0  0  0  0  0
    3.3479    1.4045    2.5427 C   0  0  0  0  0  0  0  0  0  0  0  0
    4.0442    1.6991    1.2353 C   0  0  0  0  0  0  0  0  0  0  0  0
    3.4228    0.7084    0.3546 N   0  0  0  0  0  0  0  0  0  0  0  0
    3.6984    0.8028   -1.2946 S   0  0  0  0  0  6  0  0  0  0  0  0
    3.0485   -0.3222   -1.9275 O   0  0  0  0  0  0  0  0  0  0  0  0
    3.4219    2.1624   -1.7065 O   0  0  0  0  0  0  0  0  0  0  0  0
    5.4503    0.5311   -1.4043 C   0  0  0  0  0  0  0  0  0  0  0  0
    5.9553   -0.7453   -1.1334 C   0  0  0  0  0  0  0  0  0  0  0  0
    7.3296   -0.9730   -1.2188 C   0  0  0  0  0  0  0  0  0  0  0  0
    8.1829    0.0715   -1.5788 C   0  0  0  0  0  0  0  0  0  0  0  0
   10.0444   -0.2386   -1.6925 Br  0  0  0  0  0  0  0  0  0  0  0  0
    7.6764    1.3423   -1.8587 C   0  0  0  0  0  0  0  0  0  0  0  0
    6.3023    1.5759   -1.7749 C   0  0  0  0  0  0  0  0  0  0  0  0
   -5.3267   -4.8707   -0.2259 H   0  0  0  0  0  0  0  0  0  0  0  0
   -5.6139   -3.7152   -1.5321 H   0  0  0  0  0  0  0  0  0  0  0  0
   -6.9396   -4.1669   -0.3886 H   0  0  0  0  0  0  0  0  0  0  0  0
   -7.3604   -2.1166   -1.4327 H   0  0  0  0  0  0  0  0  0  0  0  0
   -8.1822    0.1744   -1.6387 H   0  0  0  0  0  0  0  0  0  0  0  0
   -7.3137    1.9637   -0.1577 H   0  0  0  0  0  0  0  0  0  0  0  0
   -5.6095    1.4366    1.5498 H   0  0  0  0  0  0  0  0  0  0  0  0
   -4.5402   -0.2375    2.9290 H   0  0  0  0  0  0  0  0  0  0  0  0
   -4.6047   -1.9507    2.5425 H   0  0  0  0  0  0  0  0  0  0  0  0
   -2.8645   -1.6423    0.8913 H   0  0  0  0  0  0  0  0  0  0  0  0
   -0.6420    2.0130    1.2696 H   0  0  0  0  0  0  0  0  0  0  0  0
    0.8642    0.9141   -1.0017 H   0  0  0  0  0  0  0  0  0  0  0  0
    1.2145    2.3857   -0.0659 H   0  0  0  0  0  0  0  0  0  0  0  0
    1.7814   -0.5041    0.8977 H   0  0  0  0  0  0  0  0  0  0  0  0
    3.3675    2.2486    3.2369 H   0  0  0  0  0  0  0  0  0  0  0  0
    3.7737    0.5246    3.0379 H   0  0  0  0  0  0  0  0  0  0  0  0
    3.8085    2.7144    0.8992 H   0  0  0  0  0  0  0  0  0  0  0  0
    5.1256    1.5744    1.3212 H   0  0  0  0  0  0  0  0  0  0  0  0
    5.2851   -1.5586   -0.8614 H   0  0  0  0  0  0  0  0  0  0  0  0
    7.7237   -1.9645   -1.0092 H   0  0  0  0  0  0  0  0  0  0  0  0
    8.3420    2.1522   -2.1478 H   0  0  0  0  0  0  0  0  0  0  0  0
    5.9094    2.5643   -2.0031 H   0  0  0  0  0  0  0  0  0  0  0  0
  1  2  1  0
  2  3  1  0
  3  4  2  0
  4  5  1  0
  5  6  2  0
  6  7  1  0
  7  8  2  0
  8  9  1  0
  9 10  1  0
 10 11  1  0
 11 12  2  0
 11 13  1  0
 13 14  2  0
 13 15  1  0
 15 16  1  0
 16 17  1  0
 17 18  1  0
 18 19  1  0
 19 20  1  0
 20 21  1  0
 21 22  1  0
 22 23  2  0
 22 24  2  0
 22 25  1  0
 25 26  2  0
 26 27  1  0
 27 28  2  0
 28 29  1  0
 28 30  1  0
 30 31  2  0
  8  3  1  0
 21 17  1  0
 31 25  1  0
  1 32  1  0
  1 33  1  0
  1 34  1  0
  4 35  1  0
  5 36  1  0
  6 37  1  0
  7 38  1  0
  9 39  1  0
  9 40  1  0
 10 41  1  0
 15 42  1  0
 16 43  1  0
 16 44  1  0
 17 45  1  0
 19 46  1  0
 19 47  1  0
 20 48  1  0
 20 49  1  0
 26 50  1  0
 27 51  1  0
 30 52  1  0
 31 53  1  0
M  END
$$$$
