
     RDKit          3D

 58 63  0  0  0  0  0  0  0  0999 V2000
    7.8137   -1.0409   -0.0240 C   0  0  0  0  0  0  0  0  0  0  0  0
    6.7525    0.0004   -0.1244 C   0  0  0  0  0  0  0  0  0  0  0  0
    6.7173    1.1150   -0.9354 C   0  0  0  0  0  0  0  0  0  0  0  0
    5.5357    1.8860   -0.7371 C   0  0  0  0  0  0  0  0  0  0  0  0
    4.6812    1.3159    0.1873 C   0  0  0  0  0  0  0  0  0  0  0  0
    3.4179    1.8632    0.6601 C   0  0  0  0  0  0  0  0  0  0  0  0
    3.3136    3.0582    0.9442 O   0  0  0  0  0  0  0  0  0  0  0  0
    2.2983    1.0202    0.7533 N   0  0  0  0  0  0  0  0  0  0  0  0
    2.1703   -0.2414    0.0266 C   0  0  0  0  0  0  0  0  0  0  0  0
    0.7347   -0.4700   -0.4408 C   0  0  0  0  0  0  0  0  0  0  0  0
   -0.2364   -0.5678    0.7642 C   0  0  0  0  0  0  0  0  0  0  0  0
    0.1514    0.4710    1.8606 C   0  0  0  0  0  0  0  0  0  0  0  0
    1.0940    1.5633    1.3663 C   0  0  0  0  0  0  0  0  0  0  0  0
   -0.0008   -1.8497    1.4189 O   0  0  0  0  0  0  0  0  0  0  0  0
   -0.6062   -2.9567    0.9014 C   0  0  0  0  0  0  0  0  0  0  0  0
   -0.1695   -4.1841    1.3992 C   0  0  0  0  0  0  0  0  0  0  0  0
   -0.7122   -5.3735    0.9058 C   0  0  0  0  0  0  0  0  0  0  0  0
   -1.6934   -5.3316   -0.0851 C   0  0  0  0  0  0  0  0  0  0  0  0
   -2.3516   -6.7986   -0.6953 Cl  0  0  0  0  0  0  0  0  0  0  0  0
   -2.1441   -4.1115   -0.5808 C   0  0  0  0  0  0  0  0  0  0  0  0
   -1.6016   -2.9283   -0.0706 C   0  0  0  0  0  0  0  0  0  0  0  0
   -2.0672   -1.6222   -0.5540 C   0  0  0  0  0  0  0  0  0  0  0  0
   -2.6723   -1.5422   -1.6193 O   0  0  0  0  0  0  0  0  0  0  0  0
   -1.7252   -0.4325    0.3344 C   0  0  0  0  0  0  0  0  0  0  0  0
   -2.0989    0.8842   -0.3278 C   0  0  0  0  0  0  0  0  0  0  0  0
   -3.4685    1.0426    0.2420 C   0  0  0  0  0  0  0  0  0  0  0  0
   -4.4426    2.0190   -0.3001 C   0  0  0  0  0  0  0  0  0  0  0  0
   -4.0958    2.9127   -1.3203 C   0  0  0  0  0  0  0  0  0  0  0  0
   -5.0413    3.8232   -1.8048 C   0  0  0  0  0  0  0  0  0  0  0  0
   -6.3290    3.8418   -1.2707 C   0  0  0  0  0  0  0  0  0  0  0  0
   -7.4862    4.9639   -1.8701 Cl  0  0  0  0  0  0  0  0  0  0  0  0
   -6.6821    2.9580   -0.2540 C   0  0  0  0  0  0  0  0  0  0  0  0
   -5.7394    2.0476    0.2317 C   0  0  0  0  0  0  0  0  0  0  0  0
   -3.7187    0.2871    1.2639 N   0  0  0  0  0  0  0  0  0  0  0  0
   -2.5780   -0.5139    1.4900 O   0  0  0  0  0  0  0  0  0  0  0  0
    5.3673   -0.0943    0.8754 S   0  0  0  0  0  0  0  0  0  0  0  0
    8.6209   -0.8466   -0.7380 H   0  0  0  0  0  0  0  0  0  0  0  0
    8.2504   -1.0544    0.9800 H   0  0  0  0  0  0  0  0  0  0  0  0
    7.4062   -2.0335   -0.2421 H   0  0  0  0  0  0  0  0  0  0  0  0
    7.5084    1.3778   -1.6279 H   0  0  0  0  0  0  0  0  0  0  0  0
    5.3145    2.8154   -1.2492 H   0  0  0  0  0  0  0  0  0  0  0  0
    2.4849   -1.0477    0.6981 H   0  0  0  0  0  0  0  0  0  0  0  0
    2.8317   -0.2400   -0.8455 H   0  0  0  0  0  0  0  0  0  0  0  0
    0.4452    0.3535   -1.1047 H   0  0  0  0  0  0  0  0  0  0  0  0
    0.7152   -1.3878   -1.0392 H   0  0  0  0  0  0  0  0  0  0  0  0
    0.6434   -0.0416    2.6992 H   0  0  0  0  0  0  0  0  0  0  0  0
   -0.7353    0.9471    2.2938 H   0  0  0  0  0  0  0  0  0  0  0  0
    0.6059    2.2007    0.6210 H   0  0  0  0  0  0  0  0  0  0  0  0
    1.3740    2.2110    2.2053 H   0  0  0  0  0  0  0  0  0  0  0  0
    0.5985   -4.2177    2.1687 H   0  0  0  0  0  0  0  0  0  0  0  0
   -0.3649   -6.3269    1.2969 H   0  0  0  0  0  0  0  0  0  0  0  0
   -2.9159   -4.0771   -1.3462 H   0  0  0  0  0  0  0  0  0  0  0  0
   -1.5006    1.7293    0.0194 H   0  0  0  0  0  0  0  0  0  0  0  0
   -2.0904    0.8551   -1.4194 H   0  0  0  0  0  0  0  0  0  0  0  0
   -3.1004    2.9253   -1.7540 H   0  0  0  0  0  0  0  0  0  0  0  0
   -4.7675    4.5146   -2.5981 H   0  0  0  0  0  0  0  0  0  0  0  0
   -7.6849    2.9694    0.1651 H   0  0  0  0  0  0  0  0  0  0  0  0
   -6.0260    1.3602    1.0259 H   0  0  0  0  0  0  0  0  0  0  0  0
  1  2  1  0
  2  3  2  0
  3  4  1  0
  4  5  2  0
  5  6  1  0
  6  7  2  0
  6  8  1  0
  8  9  1  0
  9 10  1  0
 10 11  1  0
 11 12  1  0
 12 13  1  0
 11 14  1  0
 14 15  1  0
 15 16  2  0
 16 17  1  0
 17 18  2  0
 18 19  1  0
 18 20  1  0
 20 21  2  0
 21 22  1  0
 22 23  2  0
 22 24  1  0
 24 25  1  0
 25 26  1  0
 26 27  1  0
 27 28  2  0
 28 29  1  0
 29 30  2  0
 30 31  1  0
 30 32  1  0
 32 33  2  0
 26 34  2  0
 34 35  1  0
  5 36  1  0
 36  2  1  0
 13  8  1  0
 21 15  1  0
 35 24  1  0
 24 11  1  0
 33 27  1  0
  1 37  1  0
  1 38  1  0
  1 39  1  0
  3 40  1  0
  4 41  1  0
  9 42  1  0
  9 43  1  0
 10 44  1  0
 10 45  1  0
 12 46  1  0
 12 47  1  0
 13 48  1  0
 13 49  1  0
 16 50  1  0
 17 51  1  0
 20 52  1  0
 25 53  1  0
 25 54  1  0
 28 55  1  0
 29 56  1  0
 32 57  1  0
 33 58  1  0
M  END
$$$$
