
     RDKit          3D

 44 46  0  0  0  0  0  0  0  0999 V2000
   -3.9762   -3.1868   -2.0865 C   0  0  0  0  0  0  0  0  0  0  0  0
   -3.7529   -1.8824   -1.3791 C   0  0  0  0  0  0  0  0  0  0  0  0
   -4.8036   -1.2651   -0.6892 C   0  0  0  0  0  0  0  0  0  0  0  0
   -4.6072   -0.0450   -0.0356 C   0  0  0  0  0  0  0  0  0  0  0  0
   -3.3596    0.5922   -0.0665 C   0  0  0  0  0  0  0  0  0  0  0  0
   -3.1711    1.9253    0.6356 C   0  0  0  0  0  0  0  0  0  0  0  0
   -2.7626    3.0332   -0.3380 C   0  0  0  0  0  0  0  0  0  0  0  0
   -2.1630    1.8078    1.7827 C   0  0  0  0  0  0  0  0  0  0  0  0
   -2.3076   -0.0297   -0.7559 C   0  0  0  0  0  0  0  0  0  0  0  0
   -2.4943   -1.2676   -1.3794 C   0  0  0  0  0  0  0  0  0  0  0  0
   -1.4752   -1.8833   -2.0608 O   0  0  0  0  0  0  0  0  0  0  0  0
   -0.3506   -2.1657   -1.2362 C   0  0  0  0  0  0  0  0  0  0  0  0
    0.8185   -1.1768   -1.3540 C   0  0  0  0  0  0  0  0  0  0  0  0
    0.8171   -0.2499   -2.1554 O   0  0  0  0  0  0  0  0  0  0  0  0
    1.8288   -1.4707   -0.4571 N   0  0  0  0  0  0  0  0  0  0  0  0
    2.9436   -0.6856   -0.3434 C   0  0  0  0  0  0  0  0  0  0  0  0
    3.2747    0.4209   -0.9636 N   0  0  0  0  0  0  0  0  0  0  0  0
    4.4979    0.9050   -0.5302 N   0  0  0  0  0  0  0  0  0  0  0  0
    5.0197    0.1354    0.4001 C   0  0  0  0  0  0  0  0  0  0  0  0
    6.3979    0.4491    1.0599 C   0  0  0  0  0  0  0  0  0  0  0  0
    6.4510    0.8437    2.5158 C   0  0  0  0  0  0  0  0  0  0  0  0
    6.7106    1.8719    1.4528 C   0  0  0  0  0  0  0  0  0  0  0  0
    4.0817   -1.2381    0.8081 S   0  0  0  0  0  0  0  0  0  0  0  0
   -5.0325   -3.4762   -2.0691 H   0  0  0  0  0  0  0  0  0  0  0  0
   -3.6744   -3.1071   -3.1361 H   0  0  0  0  0  0  0  0  0  0  0  0
   -3.3994   -3.9805   -1.6026 H   0  0  0  0  0  0  0  0  0  0  0  0
   -5.7898   -1.7279   -0.6604 H   0  0  0  0  0  0  0  0  0  0  0  0
   -5.4456    0.4104    0.4876 H   0  0  0  0  0  0  0  0  0  0  0  0
   -4.1309    2.2252    1.0783 H   0  0  0  0  0  0  0  0  0  0  0  0
   -1.7780    2.8464   -0.7795 H   0  0  0  0  0  0  0  0  0  0  0  0
   -3.4864    3.1235   -1.1567 H   0  0  0  0  0  0  0  0  0  0  0  0
   -2.7178    4.0001    0.1774 H   0  0  0  0  0  0  0  0  0  0  0  0
   -2.0943    2.7513    2.3372 H   0  0  0  0  0  0  0  0  0  0  0  0
   -2.4657    1.0255    2.4893 H   0  0  0  0  0  0  0  0  0  0  0  0
   -1.1590    1.5604    1.4201 H   0  0  0  0  0  0  0  0  0  0  0  0
   -1.3445    0.4721   -0.8286 H   0  0  0  0  0  0  0  0  0  0  0  0
    0.0310   -3.1418   -1.5583 H   0  0  0  0  0  0  0  0  0  0  0  0
   -0.6339   -2.2714   -0.1794 H   0  0  0  0  0  0  0  0  0  0  0  0
    1.7809   -2.2809    0.1433 H   0  0  0  0  0  0  0  0  0  0  0  0
    7.2189   -0.1443    0.6691 H   0  0  0  0  0  0  0  0  0  0  0  0
    7.2938    0.5007    3.1067 H   0  0  0  0  0  0  0  0  0  0  0  0
    5.5257    0.9209    3.0731 H   0  0  0  0  0  0  0  0  0  0  0  0
    7.7278    2.2227    1.3145 H   0  0  0  0  0  0  0  0  0  0  0  0
    5.9563    2.6331    1.2728 H   0  0  0  0  0  0  0  0  0  0  0  0
  1  2  1  0
  2  3  2  0
  3  4  1  0
  4  5  2  0
  5  6  1  0
  6  7  1  0
  6  8  1  0
  5  9  1  0
  9 10  2  0
 10 11  1  0
 11 12  1  0
 12 13  1  0
 13 14  2  0
 13 15  1  0
 15 16  1  0
 16 17  2  0
 17 18  1  0
 18 19  2  0
 19 20  1  0
 20 21  1  0
 21 22  1  0
 19 23  1  0
 10  2  1  0
 23 16  1  0
 22 20  1  0
  1 24  1  0
  1 25  1  0
  1 26  1  0
  3 27  1  0
  4 28  1  0
  6 29  1  0
  7 30  1  0
  7 31  1  0
  7 32  1  0
  8 33  1  0
  8 34  1  0
  8 35  1  0
  9 36  1  0
 12 37  1  0
 12 38  1  0
 15 39  1  0
 20 40  1  0
 21 41  1  0
 21 42  1  0
 22 43  1  0
 22 44  1  0
M  END
$$$$
