
     RDKit          3D

 44 46  0  0  0  0  0  0  0  0999 V2000
   -2.6923   -3.0013   -1.9364 C   0  0  0  0  0  0  0  0  0  0  0  0
   -3.1569   -1.7192   -1.3043 C   0  0  0  0  0  0  0  0  0  0  0  0
   -4.5272   -1.4519   -1.2024 C   0  0  0  0  0  0  0  0  0  0  0  0
   -4.9784   -0.2631   -0.6252 C   0  0  0  0  0  0  0  0  0  0  0  0
   -4.0696    0.6829   -0.1333 C   0  0  0  0  0  0  0  0  0  0  0  0
   -4.5360    1.9856    0.4950 C   0  0  0  0  0  0  0  0  0  0  0  0
   -5.1702    2.9072   -0.5501 C   0  0  0  0  0  0  0  0  0  0  0  0
   -5.4936    1.7519    1.6671 C   0  0  0  0  0  0  0  0  0  0  0  0
   -2.6941    0.4159   -0.2464 C   0  0  0  0  0  0  0  0  0  0  0  0
   -2.2325   -0.7748   -0.8252 C   0  0  0  0  0  0  0  0  0  0  0  0
   -0.9143   -1.1136   -0.9788 O   0  0  0  0  0  0  0  0  0  0  0  0
    0.0615   -0.2349   -0.4429 C   0  0  0  0  0  0  0  0  0  0  0  0
    1.4796   -0.7685   -0.6859 C   0  0  0  0  0  0  0  0  0  0  0  0
    1.7436   -1.5454   -1.6016 O   0  0  0  0  0  0  0  0  0  0  0  0
    2.3820   -0.2591    0.2326 N   0  0  0  0  0  0  0  0  0  0  0  0
    3.7155   -0.5625    0.1819 C   0  0  0  0  0  0  0  0  0  0  0  0
    4.4033   -1.2624   -0.6857 N   0  0  0  0  0  0  0  0  0  0  0  0
    5.7485   -1.3109   -0.3614 N   0  0  0  0  0  0  0  0  0  0  0  0
    5.9985   -0.6415    0.7399 C   0  0  0  0  0  0  0  0  0  0  0  0
    7.4289   -0.5550    1.3523 C   0  0  0  0  0  0  0  0  0  0  0  0
    8.6070   -0.3449    0.4327 C   0  0  0  0  0  0  0  0  0  0  0  0
    8.1616    0.7668    1.3454 C   0  0  0  0  0  0  0  0  0  0  0  0
    4.6313    0.0967    1.4659 S   0  0  0  0  0  0  0  0  0  0  0  0
   -2.0496   -3.5553   -1.2462 H   0  0  0  0  0  0  0  0  0  0  0  0
   -2.1406   -2.7888   -2.8559 H   0  0  0  0  0  0  0  0  0  0  0  0
   -3.5357   -3.6498   -2.1953 H   0  0  0  0  0  0  0  0  0  0  0  0
   -5.2552   -2.1695   -1.5761 H   0  0  0  0  0  0  0  0  0  0  0  0
   -6.0494   -0.0845   -0.5684 H   0  0  0  0  0  0  0  0  0  0  0  0
   -3.6604    2.5064    0.9020 H   0  0  0  0  0  0  0  0  0  0  0  0
   -6.0824    2.4767   -0.9759 H   0  0  0  0  0  0  0  0  0  0  0  0
   -5.4358    3.8700   -0.1046 H   0  0  0  0  0  0  0  0  0  0  0  0
   -4.4757    3.0971   -1.3746 H   0  0  0  0  0  0  0  0  0  0  0  0
   -5.0471    1.0787    2.4075 H   0  0  0  0  0  0  0  0  0  0  0  0
   -5.7259    2.6966    2.1689 H   0  0  0  0  0  0  0  0  0  0  0  0
   -6.4424    1.3114    1.3442 H   0  0  0  0  0  0  0  0  0  0  0  0
   -1.9994    1.1640    0.1224 H   0  0  0  0  0  0  0  0  0  0  0  0
   -0.0909   -0.1278    0.6397 H   0  0  0  0  0  0  0  0  0  0  0  0
    0.0076    0.7448   -0.9363 H   0  0  0  0  0  0  0  0  0  0  0  0
    2.0790    0.3129    1.0057 H   0  0  0  0  0  0  0  0  0  0  0  0
    7.5814   -1.2094    2.2040 H   0  0  0  0  0  0  0  0  0  0  0  0
    8.4221   -0.2347   -0.6302 H   0  0  0  0  0  0  0  0  0  0  0  0
    9.5261   -0.8692    0.6707 H   0  0  0  0  0  0  0  0  0  0  0  0
    8.7842    1.0046    2.2020 H   0  0  0  0  0  0  0  0  0  0  0  0
    7.6937    1.6283    0.8863 H   0  0  0  0  0  0  0  0  0  0  0  0
  1  2  1  0
  2  3  2  0
  3  4  1  0
  4  5  2  0
  5  6  1  0
  6  7  1  0
  6  8  1  0
  5  9  1  0
  9 10  2  0
 10 11  1  0
 11 12  1  0
 12 13  1  0
 13 14  2  0
 13 15  1  0
 15 16  1  0
 16 17  2  0
 17 18  1  0
 18 19  2  0
 19 20  1  0
 20 21  1  0
 21 22  1  0
 19 23  1  0
 10  2  1  0
 23 16  1  0
 22 20  1  0
  1 24  1  0
  1 25  1  0
  1 26  1  0
  3 27  1  0
  4 28  1  0
  6 29  1  0
  7 30  1  0
  7 31  1  0
  7 32  1  0
  8 33  1  0
  8 34  1  0
  8 35  1  0
  9 36  1  0
 12 37  1  0
 12 38  1  0
 15 39  1  0
 20 40  1  0
 21 41  1  0
 21 42  1  0
 22 43  1  0
 22 44  1  0
M  END
$$$$
