
     RDKit          3D

 39 40  0  0  0  0  0  0  0  0999 V2000
    6.6369    2.2081   -1.6392 C   0  0  0  0  0  0  0  0  0  0  0  0
    5.1208    2.0993   -1.5594 C   0  0  0  0  0  0  0  0  0  0  0  0
    4.6310    0.9058   -0.7203 C   0  0  0  0  0  0  0  0  0  0  0  0
    5.0114   -0.4361   -1.3492 C   0  0  0  0  0  0  0  0  0  0  0  0
    3.1086    0.9703   -0.5293 C   0  0  0  0  0  0  0  0  0  0  0  0
    2.4058    1.7000   -1.2197 O   0  0  0  0  0  0  0  0  0  0  0  0
    2.6750    0.1264    0.4700 N   0  0  0  0  0  0  0  0  0  0  0  0
    1.3799   -0.0764    0.8765 C   0  0  0  0  0  0  0  0  0  0  0  0
    1.0823   -0.8812    1.8732 N   0  0  0  0  0  0  0  0  0  0  0  0
   -0.2767   -0.9391    2.1106 N   0  0  0  0  0  0  0  0  0  0  0  0
   -0.9532   -0.1779    1.2749 C   0  0  0  0  0  0  0  0  0  0  0  0
   -2.4390   -0.0345    1.2670 C   0  0  0  0  0  0  0  0  0  0  0  0
   -3.1033   -1.2860    0.6876 C   0  0  0  0  0  0  0  0  0  0  0  0
   -4.6036   -1.1396    0.6270 C   0  0  0  0  0  0  0  0  0  0  0  0
   -5.2208   -0.6242   -0.5215 C   0  0  0  0  0  0  0  0  0  0  0  0
   -6.6073   -0.4707   -0.5698 C   0  0  0  0  0  0  0  0  0  0  0  0
   -7.3878   -0.8275    0.5290 C   0  0  0  0  0  0  0  0  0  0  0  0
   -6.7827   -1.3350    1.6779 C   0  0  0  0  0  0  0  0  0  0  0  0
   -5.3965   -1.4892    1.7286 C   0  0  0  0  0  0  0  0  0  0  0  0
    0.0305    0.6589    0.1443 S   0  0  0  0  0  0  0  0  0  0  0  0
    7.0713    1.3729   -2.1960 H   0  0  0  0  0  0  0  0  0  0  0  0
    6.9192    3.1305   -2.1566 H   0  0  0  0  0  0  0  0  0  0  0  0
    7.0834    2.2322   -0.6403 H   0  0  0  0  0  0  0  0  0  0  0  0
    4.7368    3.0276   -1.1179 H   0  0  0  0  0  0  0  0  0  0  0  0
    4.7098    2.0469   -2.5748 H   0  0  0  0  0  0  0  0  0  0  0  0
    5.0887    0.9756    0.2752 H   0  0  0  0  0  0  0  0  0  0  0  0
    4.6316   -1.2784   -0.7606 H   0  0  0  0  0  0  0  0  0  0  0  0
    6.0975   -0.5534   -1.4139 H   0  0  0  0  0  0  0  0  0  0  0  0
    4.5940   -0.5297   -2.3578 H   0  0  0  0  0  0  0  0  0  0  0  0
    3.3478   -0.3980    1.0119 H   0  0  0  0  0  0  0  0  0  0  0  0
   -2.7815    0.1310    2.2978 H   0  0  0  0  0  0  0  0  0  0  0  0
   -2.7407    0.8549    0.6984 H   0  0  0  0  0  0  0  0  0  0  0  0
   -2.7173   -1.4964   -0.3195 H   0  0  0  0  0  0  0  0  0  0  0  0
   -2.8489   -2.1695    1.2897 H   0  0  0  0  0  0  0  0  0  0  0  0
   -4.6264   -0.3403   -1.3873 H   0  0  0  0  0  0  0  0  0  0  0  0
   -7.0790   -0.0726   -1.4653 H   0  0  0  0  0  0  0  0  0  0  0  0
   -8.4675   -0.7087    0.4899 H   0  0  0  0  0  0  0  0  0  0  0  0
   -7.3910   -1.6109    2.5355 H   0  0  0  0  0  0  0  0  0  0  0  0
   -4.9389   -1.8850    2.6336 H   0  0  0  0  0  0  0  0  0  0  0  0
  1  2  1  0
  2  3  1  0
  3  4  1  0
  3  5  1  0
  5  6  2  0
  5  7  1  0
  7  8  1  0
  8  9  2  0
  9 10  1  0
 10 11  2  0
 11 12  1  0
 12 13  1  0
 13 14  1  0
 14 15  2  0
 15 16  1  0
 16 17  2  0
 17 18  1  0
 18 19  2  0
 11 20  1  0
 20  8  1  0
 19 14  1  0
  1 21  1  0
  1 22  1  0
  1 23  1  0
  2 24  1  0
  2 25  1  0
  3 26  1  0
  4 27  1  0
  4 28  1  0
  4 29  1  0
  7 30  1  0
 12 31  1  0
 12 32  1  0
 13 33  1  0
 13 34  1  0
 15 35  1  0
 16 36  1  0
 17 37  1  0
 18 38  1  0
 19 39  1  0
M  END
$$$$
