
     RDKit          3D

 68 70  0  0  0  0  0  0  0  0999 V2000
   -3.4874    2.7931    5.7715 C   0  0  0  0  0  0  0  0  0  0  0  0
   -3.1459    3.5166    4.5962 O   0  0  0  0  0  0  0  0  0  0  0  0
   -3.0050    2.7923    3.4449 C   0  0  0  0  0  0  0  0  0  0  0  0
   -3.1542    1.4126    3.3176 C   0  0  0  0  0  0  0  0  0  0  0  0
   -2.9754    0.7913    2.0741 C   0  0  0  0  0  0  0  0  0  0  0  0
   -2.6454    1.5388    0.9346 C   0  0  0  0  0  0  0  0  0  0  0  0
   -2.4154    0.9075   -0.4408 C   0  0  0  0  0  0  0  0  0  0  0  0
   -3.1253   -0.4573   -0.6717 C   0  0  0  0  0  0  0  0  0  0  0  0
   -4.3098   -0.5054   -1.0065 O   0  0  0  0  0  0  0  0  0  0  0  0
   -2.3849   -1.5894   -0.3942 N   0  0  0  0  0  0  0  0  0  0  0  0
   -2.8965   -2.9669   -0.4293 C   0  0  0  0  0  0  0  0  0  0  0  0
   -3.4522   -3.3232   -1.8183 C   0  0  0  0  0  0  0  0  0  0  0  0
   -1.7170   -3.9116   -0.1295 C   0  0  0  0  0  0  0  0  0  0  0  0
   -3.9766   -3.1751    0.6436 C   0  0  0  0  0  0  0  0  0  0  0  0
   -0.9803    0.9583   -0.8557 N   0  0  0  0  0  0  0  0  0  0  0  0
   -0.0108    0.2993   -0.1011 C   0  0  0  0  0  0  0  0  0  0  0  0
   -0.3149   -0.3930    0.8770 O   0  0  0  0  0  0  0  0  0  0  0  0
    1.4386    0.3549   -0.5599 C   0  0  0  0  0  0  0  0  0  0  0  0
    2.2928   -0.6909    0.1549 C   0  0  0  0  0  0  0  0  0  0  0  0
    3.7471   -0.6042   -0.2627 C   0  0  0  0  0  0  0  0  0  0  0  0
    4.1381    0.1874   -1.1139 O   0  0  0  0  0  0  0  0  0  0  0  0
    4.5310   -1.5066    0.4192 N   0  0  0  0  0  0  0  0  0  0  0  0
    5.8923   -1.6491    0.2684 C   0  0  0  0  0  0  0  0  0  0  0  0
    6.7829   -0.9461   -0.5714 C   0  0  0  0  0  0  0  0  0  0  0  0
    8.0129   -1.4948   -0.3072 C   0  0  0  0  0  0  0  0  0  0  0  0
    9.3767   -1.2524   -0.8064 C   0  0  0  0  0  0  0  0  0  0  0  0
    7.8733   -2.4676    0.6307 O   0  0  0  0  0  0  0  0  0  0  0  0
    6.5423   -2.5668    0.9930 N   0  0  0  0  0  0  0  0  0  0  0  0
   -0.6941    1.7537   -2.0041 C   0  0  0  0  0  0  0  0  0  0  0  0
   -1.3787    1.5113   -3.2062 C   0  0  0  0  0  0  0  0  0  0  0  0
   -1.1320    2.2945   -4.3377 C   0  0  0  0  0  0  0  0  0  0  0  0
   -0.2101    3.3357   -4.2725 C   0  0  0  0  0  0  0  0  0  0  0  0
    0.4497    3.5885   -3.0762 C   0  0  0  0  0  0  0  0  0  0  0  0
    1.3140    4.6090   -3.0054 F   0  0  0  0  0  0  0  0  0  0  0  0
    0.2152    2.8133   -1.9441 C   0  0  0  0  0  0  0  0  0  0  0  0
   -2.4976    2.9296    1.0771 C   0  0  0  0  0  0  0  0  0  0  0  0
   -2.6774    3.5454    2.3179 C   0  0  0  0  0  0  0  0  0  0  0  0
   -2.7095    2.0665    6.0291 H   0  0  0  0  0  0  0  0  0  0  0  0
   -4.4634    2.3078    5.6666 H   0  0  0  0  0  0  0  0  0  0  0  0
   -3.5584    3.5092    6.5955 H   0  0  0  0  0  0  0  0  0  0  0  0
   -3.4051    0.7842    4.1658 H   0  0  0  0  0  0  0  0  0  0  0  0
   -3.0897   -0.2888    2.0230 H   0  0  0  0  0  0  0  0  0  0  0  0
   -2.9670    1.5717   -1.1252 H   0  0  0  0  0  0  0  0  0  0  0  0
   -1.5911   -1.4251    0.2267 H   0  0  0  0  0  0  0  0  0  0  0  0
   -2.7067   -3.1333   -2.5990 H   0  0  0  0  0  0  0  0  0  0  0  0
   -3.7327   -4.3814   -1.8718 H   0  0  0  0  0  0  0  0  0  0  0  0
   -4.3451   -2.7417   -2.0679 H   0  0  0  0  0  0  0  0  0  0  0  0
   -0.9110   -3.7807   -0.8612 H   0  0  0  0  0  0  0  0  0  0  0  0
   -1.2930   -3.7102    0.8608 H   0  0  0  0  0  0  0  0  0  0  0  0
   -2.0284   -4.9620   -0.1538 H   0  0  0  0  0  0  0  0  0  0  0  0
   -4.3093   -4.2187    0.6720 H   0  0  0  0  0  0  0  0  0  0  0  0
   -3.5958   -2.9167    1.6387 H   0  0  0  0  0  0  0  0  0  0  0  0
   -4.8600   -2.5545    0.4610 H   0  0  0  0  0  0  0  0  0  0  0  0
    1.4918    0.1862   -1.6408 H   0  0  0  0  0  0  0  0  0  0  0  0
    1.8415    1.3448   -0.3265 H   0  0  0  0  0  0  0  0  0  0  0  0
    2.2385   -0.5471    1.2407 H   0  0  0  0  0  0  0  0  0  0  0  0
    1.9235   -1.6976   -0.0743 H   0  0  0  0  0  0  0  0  0  0  0  0
    4.1269   -2.1325    1.1025 H   0  0  0  0  0  0  0  0  0  0  0  0
    6.5668   -0.1505   -1.2683 H   0  0  0  0  0  0  0  0  0  0  0  0
    9.3731   -0.5127   -1.6131 H   0  0  0  0  0  0  0  0  0  0  0  0
    9.8150   -2.1767   -1.1958 H   0  0  0  0  0  0  0  0  0  0  0  0
   10.0180   -0.8771   -0.0025 H   0  0  0  0  0  0  0  0  0  0  0  0
   -2.0945    0.6952   -3.2862 H   0  0  0  0  0  0  0  0  0  0  0  0
   -1.6604    2.0920   -5.2663 H   0  0  0  0  0  0  0  0  0  0  0  0
   -0.0096    3.9575   -5.1394 H   0  0  0  0  0  0  0  0  0  0  0  0
    0.7170    3.0875   -1.0220 H   0  0  0  0  0  0  0  0  0  0  0  0
   -2.2420    3.5493    0.2196 H   0  0  0  0  0  0  0  0  0  0  0  0
   -2.5596    4.6227    2.4062 H   0  0  0  0  0  0  0  0  0  0  0  0
  1  2  1  0
  2  3  1  0
  3  4  2  0
  4  5  1  0
  5  6  2  0
  6  7  1  0
  7  8  1  0
  8  9  2  0
  8 10  1  0
 10 11  1  0
 11 12  1  0
 11 13  1  0
 11 14  1  0
  7 15  1  0
 15 16  1  0
 16 17  2  0
 16 18  1  0
 18 19  1  0
 19 20  1  0
 20 21  2  0
 20 22  1  0
 22 23  1  0
 23 24  1  0
 24 25  2  0
 25 26  1  0
 25 27  1  0
 27 28  1  0
 15 29  1  0
 29 30  2  0
 30 31  1  0
 31 32  2  0
 32 33  1  0
 33 34  1  0
 33 35  2  0
  6 36  1  0
 36 37  2  0
 37  3  1  0
 28 23  2  0
 35 29  1  0
  1 38  1  0
  1 39  1  0
  1 40  1  0
  4 41  1  0
  5 42  1  0
  7 43  1  0
 10 44  1  0
 12 45  1  0
 12 46  1  0
 12 47  1  0
 13 48  1  0
 13 49  1  0
 13 50  1  0
 14 51  1  0
 14 52  1  0
 14 53  1  0
 18 54  1  0
 18 55  1  0
 19 56  1  0
 19 57  1  0
 22 58  1  0
 24 59  1  0
 26 60  1  0
 26 61  1  0
 26 62  1  0
 30 63  1  0
 31 64  1  0
 32 65  1  0
 35 66  1  0
 36 67  1  0
 37 68  1  0
M  END
$$$$
