
     RDKit          3D

 36 37  0  0  0  0  0  0  0  0999 V2000
    4.1496   -0.3317    1.6074 C   0  0  0  0  0  0  0  0  0  0  0  0
    4.5289    0.2378    0.2944 N   0  0  0  0  0  0  0  0  0  0  0  0
    5.9999    0.3368    0.1530 C   0  0  0  0  0  0  0  0  0  0  0  0
    3.7796   -0.4974   -1.0581 S   0  0  0  0  0  6  0  0  0  0  0  0
    4.2239    0.1830   -2.2553 O   0  0  0  0  0  0  0  0  0  0  0  0
    3.9270   -1.9302   -0.9084 O   0  0  0  0  0  0  0  0  0  0  0  0
    2.0666   -0.0823   -0.8323 C   0  0  0  0  0  0  0  0  0  0  0  0
    1.6890    1.2632   -0.8525 C   0  0  0  0  0  0  0  0  0  0  0  0
    0.3461    1.6022   -0.6733 C   0  0  0  0  0  0  0  0  0  0  0  0
   -0.6191    0.6011   -0.4821 C   0  0  0  0  0  0  0  0  0  0  0  0
   -2.0342    1.0211   -0.2910 C   0  0  0  0  0  0  0  0  0  0  0  0
   -2.3893    2.1867   -0.2263 O   0  0  0  0  0  0  0  0  0  0  0  0
   -2.8519   -0.0597   -0.2256 O   0  0  0  0  0  0  0  0  0  0  0  0
   -4.2003    0.2514    0.0908 C   0  0  0  0  0  0  0  0  0  0  0  0
   -5.1025   -0.8999   -0.2883 C   0  0  0  0  0  0  0  0  0  0  0  0
   -6.2938   -0.6598    0.6024 C   0  0  0  0  0  0  0  0  0  0  0  0
   -5.7561   -0.1380    1.8190 O   0  0  0  0  0  0  0  0  0  0  0  0
   -4.4971    0.3501    1.5779 C   0  0  0  0  0  0  0  0  0  0  0  0
   -3.7526    0.7707    2.4483 O   0  0  0  0  0  0  0  0  0  0  0  0
   -0.2263   -0.7467   -0.4701 C   0  0  0  0  0  0  0  0  0  0  0  0
    1.1171   -1.0906   -0.6473 C   0  0  0  0  0  0  0  0  0  0  0  0
    3.0653   -0.3237    1.7422 H   0  0  0  0  0  0  0  0  0  0  0  0
    4.5252   -1.3533    1.7183 H   0  0  0  0  0  0  0  0  0  0  0  0
    4.5730    0.2818    2.4097 H   0  0  0  0  0  0  0  0  0  0  0  0
    6.2618    0.9116   -0.7400 H   0  0  0  0  0  0  0  0  0  0  0  0
    6.4568   -0.6560    0.0997 H   0  0  0  0  0  0  0  0  0  0  0  0
    6.4224    0.8693    1.0114 H   0  0  0  0  0  0  0  0  0  0  0  0
    2.4326    2.0433   -1.0045 H   0  0  0  0  0  0  0  0  0  0  0  0
    0.0540    2.6514   -0.6832 H   0  0  0  0  0  0  0  0  0  0  0  0
   -4.5442    1.1693   -0.4032 H   0  0  0  0  0  0  0  0  0  0  0  0
   -5.3569   -0.9186   -1.3518 H   0  0  0  0  0  0  0  0  0  0  0  0
   -4.6238   -1.8576   -0.0477 H   0  0  0  0  0  0  0  0  0  0  0  0
   -6.8413   -1.5839    0.8088 H   0  0  0  0  0  0  0  0  0  0  0  0
   -6.9864    0.0774    0.1824 H   0  0  0  0  0  0  0  0  0  0  0  0
   -0.9543   -1.5406   -0.3206 H   0  0  0  0  0  0  0  0  0  0  0  0
    1.4110   -2.1384   -0.6394 H   0  0  0  0  0  0  0  0  0  0  0  0
  1  2  1  0
  2  3  1  0
  2  4  1  0
  4  5  2  0
  4  6  2  0
  4  7  1  0
  7  8  2  0
  8  9  1  0
  9 10  2  0
 10 11  1  0
 11 12  2  0
 11 13  1  0
 13 14  1  0
 14 15  1  0
 15 16  1  0
 16 17  1  0
 17 18  1  0
 18 19  2  0
 10 20  1  0
 20 21  2  0
 21  7  1  0
 18 14  1  0
  1 22  1  0
  1 23  1  0
  1 24  1  0
  3 25  1  0
  3 26  1  0
  3 27  1  0
  8 28  1  0
  9 29  1  0
 14 30  1  0
 15 31  1  0
 15 32  1  0
 16 33  1  0
 16 34  1  0
 20 35  1  0
 21 36  1  0
M  END
$$$$
