
     RDKit          3D

 61 66  0  0  0  0  0  0  0  0999 V2000
    9.9872    1.1995    2.3712 F   0  0  0  0  0  0  0  0  0  0  0  0
    8.7024    1.0565    2.0172 C   0  0  0  0  0  0  0  0  0  0  0  0
    8.3788    0.8272    0.6843 C   0  0  0  0  0  0  0  0  0  0  0  0
    7.0402    0.6735    0.3151 C   0  0  0  0  0  0  0  0  0  0  0  0
    6.0264    0.7544    1.2823 C   0  0  0  0  0  0  0  0  0  0  0  0
    4.5767    0.5701    0.8929 C   0  0  0  0  0  0  0  0  0  0  0  0
    4.1160   -0.8837    1.1046 C   0  0  0  0  0  0  0  0  0  0  0  0
    2.7439   -1.1998    0.7014 N   0  0  0  0  0  0  0  0  0  0  0  0
    2.5089   -1.1685   -0.7544 C   0  0  0  0  0  0  0  0  0  0  0  0
    1.3493   -0.2534   -1.2138 C   0  0  0  0  0  0  0  0  0  0  0  0
    0.1023   -0.5739   -0.4941 N   0  0  0  0  0  0  0  0  0  0  0  0
   -1.0507    0.0696   -0.8675 C   0  0  0  0  0  0  0  0  0  0  0  0
   -1.2119    1.3335   -1.4087 C   0  0  0  0  0  0  0  0  0  0  0  0
   -2.5903    1.6346   -1.4186 C   0  0  0  0  0  0  0  0  0  0  0  0
   -3.2577    0.5367   -0.9048 C   0  0  0  0  0  0  0  0  0  0  0  0
   -4.6566    0.2860   -0.6298 C   0  0  0  0  0  0  0  0  0  0  0  0
   -5.6521    1.3904   -0.6592 C   0  0  0  0  0  0  0  0  0  0  0  0
   -5.3914    2.6225   -0.0490 C   0  0  0  0  0  0  0  0  0  0  0  0
   -6.3523    3.6354   -0.0872 C   0  0  0  0  0  0  0  0  0  0  0  0
   -7.5759    3.4148   -0.7206 C   0  0  0  0  0  0  0  0  0  0  0  0
   -7.8482    2.1792   -1.3084 C   0  0  0  0  0  0  0  0  0  0  0  0
   -6.8901    1.1646   -1.2732 C   0  0  0  0  0  0  0  0  0  0  0  0
   -5.0736   -0.9151   -0.3524 N   0  0  0  0  0  0  0  0  0  0  0  0
   -4.1479   -1.9766   -0.3258 C   0  0  0  0  0  0  0  0  0  0  0  0
   -4.6441   -3.2662   -0.1124 C   0  0  0  0  0  0  0  0  0  0  0  0
   -3.7900   -4.3701   -0.1148 C   0  0  0  0  0  0  0  0  0  0  0  0
   -2.4269   -4.1924   -0.3457 C   0  0  0  0  0  0  0  0  0  0  0  0
   -1.9121   -2.9118   -0.5572 C   0  0  0  0  0  0  0  0  0  0  0  0
   -2.7662   -1.8055   -0.5178 C   0  0  0  0  0  0  0  0  0  0  0  0
   -2.3284   -0.4770   -0.7385 N   0  0  0  0  0  0  0  0  0  0  0  0
    0.2788   -0.8222    0.9647 C   0  0  0  0  0  0  0  0  0  0  0  0
    1.7062   -0.4815    1.4540 C   0  0  0  0  0  0  0  0  0  0  0  0
    6.3744    0.9821    2.6243 C   0  0  0  0  0  0  0  0  0  0  0  0
    7.7130    1.1344    2.9902 C   0  0  0  0  0  0  0  0  0  0  0  0
    9.1692    0.7671   -0.0567 H   0  0  0  0  0  0  0  0  0  0  0  0
    6.7951    0.4897   -0.7296 H   0  0  0  0  0  0  0  0  0  0  0  0
    4.4433    0.8734   -0.1530 H   0  0  0  0  0  0  0  0  0  0  0  0
    3.9688    1.2624    1.4887 H   0  0  0  0  0  0  0  0  0  0  0  0
    4.7970   -1.5628    0.5736 H   0  0  0  0  0  0  0  0  0  0  0  0
    4.2298   -1.1463    2.1649 H   0  0  0  0  0  0  0  0  0  0  0  0
    2.2750   -2.1966   -1.0596 H   0  0  0  0  0  0  0  0  0  0  0  0
    3.4136   -0.8900   -1.3075 H   0  0  0  0  0  0  0  0  0  0  0  0
    1.2008   -0.3931   -2.2913 H   0  0  0  0  0  0  0  0  0  0  0  0
    1.6272    0.7948   -1.0483 H   0  0  0  0  0  0  0  0  0  0  0  0
   -0.4141    2.0071   -1.6894 H   0  0  0  0  0  0  0  0  0  0  0  0
   -3.0390    2.5658   -1.7417 H   0  0  0  0  0  0  0  0  0  0  0  0
   -4.4540    2.7968    0.4730 H   0  0  0  0  0  0  0  0  0  0  0  0
   -6.1503    4.5942    0.3833 H   0  0  0  0  0  0  0  0  0  0  0  0
   -8.3246    4.2035   -0.7467 H   0  0  0  0  0  0  0  0  0  0  0  0
   -8.8073    2.0040   -1.7906 H   0  0  0  0  0  0  0  0  0  0  0  0
   -7.1081    0.1989   -1.7241 H   0  0  0  0  0  0  0  0  0  0  0  0
   -5.7106   -3.4064    0.0468 H   0  0  0  0  0  0  0  0  0  0  0  0
   -4.1909   -5.3671    0.0471 H   0  0  0  0  0  0  0  0  0  0  0  0
   -1.7637   -5.0547   -0.3740 H   0  0  0  0  0  0  0  0  0  0  0  0
   -0.8539   -2.8103   -0.7804 H   0  0  0  0  0  0  0  0  0  0  0  0
   -0.4367   -0.2307    1.5531 H   0  0  0  0  0  0  0  0  0  0  0  0
    0.0769   -1.8789    1.1746 H   0  0  0  0  0  0  0  0  0  0  0  0
    1.7805   -0.7414    2.5161 H   0  0  0  0  0  0  0  0  0  0  0  0
    1.8435    0.6034    1.3757 H   0  0  0  0  0  0  0  0  0  0  0  0
    5.6044    1.0401    3.3915 H   0  0  0  0  0  0  0  0  0  0  0  0
    7.9897    1.3098    4.0257 H   0  0  0  0  0  0  0  0  0  0  0  0
  1  2  1  0
  2  3  2  0
  3  4  1  0
  4  5  2  0
  5  6  1  0
  6  7  1  0
  7  8  1  0
  8  9  1  0
  9 10  1  0
 10 11  1  0
 11 12  1  0
 12 13  2  0
 13 14  1  0
 14 15  2  0
 15 16  1  0
 16 17  1  0
 17 18  2  0
 18 19  1  0
 19 20  2  0
 20 21  1  0
 21 22  2  0
 16 23  2  0
 23 24  1  0
 24 25  2  0
 25 26  1  0
 26 27  2  0
 27 28  1  0
 28 29  2  0
 29 30  1  0
 11 31  1  0
 31 32  1  0
  5 33  1  0
 33 34  2  0
 34  2  1  0
 32  8  1  0
 30 12  1  0
 30 15  1  0
 22 17  1  0
 29 24  1  0
  3 35  1  0
  4 36  1  0
  6 37  1  0
  6 38  1  0
  7 39  1  0
  7 40  1  0
  9 41  1  0
  9 42  1  0
 10 43  1  0
 10 44  1  0
 13 45  1  0
 14 46  1  0
 18 47  1  0
 19 48  1  0
 20 49  1  0
 21 50  1  0
 22 51  1  0
 25 52  1  0
 26 53  1  0
 27 54  1  0
 28 55  1  0
 31 56  1  0
 31 57  1  0
 32 58  1  0
 32 59  1  0
 33 60  1  0
 34 61  1  0
M  END
$$$$
