
     RDKit          3D

 41 44  0  0  0  0  0  0  0  0999 V2000
    6.0451    1.9183    0.5081 C   0  0  0  0  0  0  0  0  0  0  0  0
    4.8581    1.0084    0.4124 C   0  0  0  0  0  0  0  0  0  0  0  0
    5.0157   -0.3753    0.4523 C   0  0  0  0  0  0  0  0  0  0  0  0
    3.9065   -1.2246    0.3297 C   0  0  0  0  0  0  0  0  0  0  0  0
    2.6047   -0.7270    0.1566 C   0  0  0  0  0  0  0  0  0  0  0  0
    1.5017   -1.6172    0.0380 N   0  0  0  0  0  0  0  0  0  0  0  0
    1.5557   -3.0409   -0.0825 C   0  0  0  0  0  0  0  0  0  0  0  0
    2.5122   -3.7969   -0.1245 O   0  0  0  0  0  0  0  0  0  0  0  0
    0.2294   -3.4849   -0.1647 N   0  0  0  0  0  0  0  0  0  0  0  0
   -0.6113   -2.3869   -0.0915 C   0  0  0  0  0  0  0  0  0  0  0  0
   -1.9695   -2.2626   -0.1113 C   0  0  0  0  0  0  0  0  0  0  0  0
   -2.8516   -3.4548   -0.2429 C   0  0  0  0  0  0  0  0  0  0  0  0
   -4.1952   -3.1953   -0.2491 N   0  0  0  0  0  0  0  0  0  0  0  0
   -2.4082   -4.5922   -0.3392 O   0  0  0  0  0  0  0  0  0  0  0  0
   -2.5807   -1.0589   -0.0084 N   0  0  0  0  0  0  0  0  0  0  0  0
   -1.7622    0.0069    0.1193 C   0  0  0  0  0  0  0  0  0  0  0  0
   -2.3781    1.3196    0.2411 C   0  0  0  0  0  0  0  0  0  0  0  0
   -1.8766    2.5975    0.4045 C   0  0  0  0  0  0  0  0  0  0  0  0
   -2.9895    3.4713    0.4565 C   0  0  0  0  0  0  0  0  0  0  0  0
   -4.1082    2.6792    0.3217 C   0  0  0  0  0  0  0  0  0  0  0  0
   -5.5569    2.9602    0.2925 C   0  0  0  0  0  0  0  0  0  0  0  0
   -3.7458    1.3727    0.1905 O   0  0  0  0  0  0  0  0  0  0  0  0
   -0.4127   -0.0221    0.1476 N   0  0  0  0  0  0  0  0  0  0  0  0
    0.1340   -1.2368    0.0329 C   0  0  0  0  0  0  0  0  0  0  0  0
    2.4715    0.6685    0.0990 C   0  0  0  0  0  0  0  0  0  0  0  0
    3.5775    1.5236    0.2204 C   0  0  0  0  0  0  0  0  0  0  0  0
    6.4490    2.1135   -0.4900 H   0  0  0  0  0  0  0  0  0  0  0  0
    5.7697    2.8714    0.9715 H   0  0  0  0  0  0  0  0  0  0  0  0
    6.8310    1.4721    1.1267 H   0  0  0  0  0  0  0  0  0  0  0  0
    6.0029   -0.8146    0.5809 H   0  0  0  0  0  0  0  0  0  0  0  0
    4.1068   -2.2905    0.3866 H   0  0  0  0  0  0  0  0  0  0  0  0
   -0.0611   -4.4515   -0.2574 H   0  0  0  0  0  0  0  0  0  0  0  0
   -4.8524   -3.9577   -0.3341 H   0  0  0  0  0  0  0  0  0  0  0  0
   -4.5326   -2.2414   -0.1663 H   0  0  0  0  0  0  0  0  0  0  0  0
   -0.8298    2.8582    0.4776 H   0  0  0  0  0  0  0  0  0  0  0  0
   -2.9780    4.5458    0.5772 H   0  0  0  0  0  0  0  0  0  0  0  0
   -6.0741    2.3890    1.0696 H   0  0  0  0  0  0  0  0  0  0  0  0
   -5.7543    4.0229    0.4626 H   0  0  0  0  0  0  0  0  0  0  0  0
   -5.9799    2.6853   -0.6786 H   0  0  0  0  0  0  0  0  0  0  0  0
    1.5146    1.1491   -0.0644 H   0  0  0  0  0  0  0  0  0  0  0  0
    3.4226    2.5986    0.1582 H   0  0  0  0  0  0  0  0  0  0  0  0
  1  2  1  0
  2  3  2  0
  3  4  1  0
  4  5  2  0
  5  6  1  0
  6  7  1  0
  7  8  2  0
  7  9  1  0
  9 10  1  0
 10 11  2  0
 11 12  1  0
 12 13  1  0
 12 14  2  0
 11 15  1  0
 15 16  2  0
 16 17  1  0
 17 18  2  0
 18 19  1  0
 19 20  2  0
 20 21  1  0
 20 22  1  0
 16 23  1  0
 23 24  2  0
  5 25  1  0
 25 26  2  0
 26  2  1  0
 24  6  1  0
 24 10  1  0
 22 17  1  0
  1 27  1  0
  1 28  1  0
  1 29  1  0
  3 30  1  0
  4 31  1  0
  9 32  1  0
 13 33  1  0
 13 34  1  0
 18 35  1  0
 19 36  1  0
 21 37  1  0
 21 38  1  0
 21 39  1  0
 25 40  1  0
 26 41  1  0
M  END
$$$$
