
     RDKit          3D

 40 41  0  0  0  0  0  0  0  0999 V2000
   -6.4425    1.1603   -1.6622 C   0  0  0  0  0  0  0  0  0  0  0  0
   -5.8982    1.2063   -0.3493 O   0  0  0  0  0  0  0  0  0  0  0  0
   -4.5483    1.3939   -0.2433 C   0  0  0  0  0  0  0  0  0  0  0  0
   -3.6536    1.5413   -1.3030 C   0  0  0  0  0  0  0  0  0  0  0  0
   -2.2887    1.7263   -1.0501 C   0  0  0  0  0  0  0  0  0  0  0  0
   -1.8067    1.7664    0.2651 C   0  0  0  0  0  0  0  0  0  0  0  0
   -0.3472    1.9605    0.4751 C   0  0  0  0  0  0  0  0  0  0  0  0
    0.4631    2.0434   -0.4368 O   0  0  0  0  0  0  0  0  0  0  0  0
   -0.0527    2.0185    1.7950 O   0  0  0  0  0  0  0  0  0  0  0  0
    1.3275    2.2100    2.1078 C   0  0  0  0  0  0  0  0  0  0  0  0
    2.1666    0.9409    1.9502 C   0  0  0  0  0  0  0  0  0  0  0  0
    2.4224    0.1997    2.8941 O   0  0  0  0  0  0  0  0  0  0  0  0
    2.6034    0.7076    0.6644 N   0  0  0  0  0  0  0  0  0  0  0  0
    3.3268   -0.4990    0.3094 C   0  0  0  0  0  0  0  0  0  0  0  0
    2.4066   -1.7122    0.1312 C   0  0  0  0  0  0  0  0  0  0  0  0
    3.1151   -2.8672   -0.3940 N   0  0  0  0  0  0  0  0  0  0  0  0
    3.4021   -3.0364   -1.7263 C   0  0  0  0  0  0  0  0  0  0  0  0
    2.9733   -2.0989   -2.6177 O   0  0  0  0  0  0  0  0  0  0  0  0
    4.1043   -4.1393   -2.0100 C   0  0  0  0  0  0  0  0  0  0  0  0
    4.4636   -5.0430   -0.5708 S   0  0  0  0  0  0  0  0  0  0  0  0
    3.6227   -3.8492    0.4419 C   0  0  0  0  0  0  0  0  0  0  0  0
    3.5429   -3.9347    1.6550 O   0  0  0  0  0  0  0  0  0  0  0  0
   -2.7055    1.6195    1.3272 C   0  0  0  0  0  0  0  0  0  0  0  0
   -4.0670    1.4347    1.0684 C   0  0  0  0  0  0  0  0  0  0  0  0
   -6.2878    2.1092   -2.1861 H   0  0  0  0  0  0  0  0  0  0  0  0
   -7.5214    1.0016   -1.5725 H   0  0  0  0  0  0  0  0  0  0  0  0
   -6.0289    0.3222   -2.2319 H   0  0  0  0  0  0  0  0  0  0  0  0
   -3.9817    1.5163   -2.3368 H   0  0  0  0  0  0  0  0  0  0  0  0
   -1.6039    1.8394   -1.8886 H   0  0  0  0  0  0  0  0  0  0  0  0
    1.7560    3.0270    1.5143 H   0  0  0  0  0  0  0  0  0  0  0  0
    1.3893    2.5243    3.1556 H   0  0  0  0  0  0  0  0  0  0  0  0
    2.1309    1.2190   -0.0825 H   0  0  0  0  0  0  0  0  0  0  0  0
    4.0757   -0.7065    1.0827 H   0  0  0  0  0  0  0  0  0  0  0  0
    3.8620   -0.2780   -0.6201 H   0  0  0  0  0  0  0  0  0  0  0  0
    1.9586   -1.9784    1.0967 H   0  0  0  0  0  0  0  0  0  0  0  0
    1.5739   -1.4701   -0.5412 H   0  0  0  0  0  0  0  0  0  0  0  0
    3.2410   -2.3804   -3.5089 H   0  0  0  0  0  0  0  0  0  0  0  0
    4.4342   -4.4561   -2.9882 H   0  0  0  0  0  0  0  0  0  0  0  0
   -2.3673    1.6419    2.3604 H   0  0  0  0  0  0  0  0  0  0  0  0
   -4.7606    1.3192    1.8987 H   0  0  0  0  0  0  0  0  0  0  0  0
  1  2  1  0
  2  3  1  0
  3  4  2  0
  4  5  1  0
  5  6  2  0
  6  7  1  0
  7  8  2  0
  7  9  1  0
  9 10  1  0
 10 11  1  0
 11 12  2  0
 11 13  1  0
 13 14  1  0
 14 15  1  0
 15 16  1  0
 16 17  1  0
 17 18  1  0
 17 19  2  0
 19 20  1  0
 20 21  1  0
 21 22  2  0
  6 23  1  0
 23 24  2  0
 24  3  1  0
 21 16  1  0
  1 25  1  0
  1 26  1  0
  1 27  1  0
  4 28  1  0
  5 29  1  0
 10 30  1  0
 10 31  1  0
 13 32  1  0
 14 33  1  0
 14 34  1  0
 15 35  1  0
 15 36  1  0
 18 37  1  0
 19 38  1  0
 23 39  1  0
 24 40  1  0
M  END
$$$$
