
     RDKit          3D

 57 60  0  0  0  0  0  0  0  0999 V2000
   -8.6148    1.3081    2.6018 C   0  0  0  0  0  0  0  0  0  0  0  0
   -7.5312    0.3653    3.1032 C   0  0  0  0  0  0  0  0  0  0  0  0
   -6.3701    0.2871    2.1458 C   0  0  0  0  0  0  0  0  0  0  0  0
   -6.3458   -0.6756    1.1341 C   0  0  0  0  0  0  0  0  0  0  0  0
   -5.2757   -0.7316    0.2338 C   0  0  0  0  0  0  0  0  0  0  0  0
   -4.1963    0.1678    0.3110 C   0  0  0  0  0  0  0  0  0  0  0  0
   -3.0733    0.0844   -0.6484 C   0  0  0  0  0  0  0  0  0  0  0  0
   -1.7833    0.4787   -0.3404 C   0  0  0  0  0  0  0  0  0  0  0  0
   -0.7947    0.3512   -1.3173 C   0  0  0  0  0  0  0  0  0  0  0  0
    0.5774    0.7332   -0.9114 C   0  0  0  0  0  0  0  0  0  0  0  0
    0.7574    1.8624   -0.4767 O   0  0  0  0  0  0  0  0  0  0  0  0
    1.5010   -0.2900   -1.0150 N   0  0  0  0  0  0  0  0  0  0  0  0
    2.8833   -0.2199   -0.7508 C   0  0  0  0  0  0  0  0  0  0  0  0
    3.5539    0.9644   -0.4312 C   0  0  0  0  0  0  0  0  0  0  0  0
    4.9326    0.9603   -0.1977 C   0  0  0  0  0  0  0  0  0  0  0  0
    5.6415   -0.2399   -0.2726 C   0  0  0  0  0  0  0  0  0  0  0  0
    7.3985   -0.2348    0.0324 S   0  0  0  0  0  6  0  0  0  0  0  0
    7.9046   -1.5162   -0.4059 O   0  0  0  0  0  0  0  0  0  0  0  0
    7.9004    1.0220   -0.4743 O   0  0  0  0  0  0  0  0  0  0  0  0
    7.4075   -0.1981    1.6984 N   0  0  0  0  0  0  0  0  0  0  0  0
    8.5914   -0.1468    2.4477 C   0  0  0  0  0  0  0  0  0  0  0  0
    8.3688   -0.0912    3.9327 C   0  0  0  0  0  0  0  0  0  0  0  0
    9.7083   -0.1449    1.9540 O   0  0  0  0  0  0  0  0  0  0  0  0
    4.9906   -1.4292   -0.6022 C   0  0  0  0  0  0  0  0  0  0  0  0
    3.6135   -1.4137   -0.8413 C   0  0  0  0  0  0  0  0  0  0  0  0
   -1.0973   -0.1257   -2.6102 C   0  0  0  0  0  0  0  0  0  0  0  0
   -0.1768   -0.2145   -3.6872 C   0  0  0  0  0  0  0  0  0  0  0  0
   -0.5683   -0.7138   -4.9277 C   0  0  0  0  0  0  0  0  0  0  0  0
   -1.8806   -1.1220   -5.1146 C   0  0  0  0  0  0  0  0  0  0  0  0
   -2.7940   -1.0160   -4.0633 C   0  0  0  0  0  0  0  0  0  0  0  0
   -2.4304   -0.5183   -2.8190 C   0  0  0  0  0  0  0  0  0  0  0  0
   -3.3748   -0.4310   -1.8671 N   0  0  0  0  0  0  0  0  0  0  0  0
   -4.2467    1.1406    1.3253 C   0  0  0  0  0  0  0  0  0  0  0  0
   -5.3151    1.2006    2.2290 C   0  0  0  0  0  0  0  0  0  0  0  0
   -8.2295    2.3268    2.4815 H   0  0  0  0  0  0  0  0  0  0  0  0
   -9.4463    1.3425    3.3126 H   0  0  0  0  0  0  0  0  0  0  0  0
   -9.0094    0.9810    1.6334 H   0  0  0  0  0  0  0  0  0  0  0  0
   -7.1759    0.6983    4.0858 H   0  0  0  0  0  0  0  0  0  0  0  0
   -7.9531   -0.6353    3.2559 H   0  0  0  0  0  0  0  0  0  0  0  0
   -7.1605   -1.3888    1.0324 H   0  0  0  0  0  0  0  0  0  0  0  0
   -5.2896   -1.4945   -0.5435 H   0  0  0  0  0  0  0  0  0  0  0  0
   -1.5260    0.8597    0.6427 H   0  0  0  0  0  0  0  0  0  0  0  0
    1.1439   -1.1988   -1.2884 H   0  0  0  0  0  0  0  0  0  0  0  0
    3.0331    1.9162   -0.3745 H   0  0  0  0  0  0  0  0  0  0  0  0
    5.4405    1.8962    0.0281 H   0  0  0  0  0  0  0  0  0  0  0  0
    6.5046   -0.1930    2.1582 H   0  0  0  0  0  0  0  0  0  0  0  0
    9.3317   -0.0551    4.4491 H   0  0  0  0  0  0  0  0  0  0  0  0
    7.8258   -0.9826    4.2585 H   0  0  0  0  0  0  0  0  0  0  0  0
    7.7983    0.8056    4.1865 H   0  0  0  0  0  0  0  0  0  0  0  0
    5.5412   -2.3644   -0.6834 H   0  0  0  0  0  0  0  0  0  0  0  0
    3.1222   -2.3488   -1.1011 H   0  0  0  0  0  0  0  0  0  0  0  0
    0.8511    0.1262   -3.5756 H   0  0  0  0  0  0  0  0  0  0  0  0
    0.1461   -0.7728   -5.7454 H   0  0  0  0  0  0  0  0  0  0  0  0
   -2.2037   -1.5097   -6.0776 H   0  0  0  0  0  0  0  0  0  0  0  0
   -3.8257   -1.3228   -4.2229 H   0  0  0  0  0  0  0  0  0  0  0  0
   -3.4612    1.8871    1.4192 H   0  0  0  0  0  0  0  0  0  0  0  0
   -5.3190    1.9737    2.9944 H   0  0  0  0  0  0  0  0  0  0  0  0
  1  2  1  0
  2  3  1  0
  3  4  2  0
  4  5  1  0
  5  6  2  0
  6  7  1  0
  7  8  2  0
  8  9  1  0
  9 10  1  0
 10 11  2  0
 10 12  1  0
 12 13  1  0
 13 14  2  0
 14 15  1  0
 15 16  2  0
 16 17  1  0
 17 18  2  0
 17 19  2  0
 17 20  1  0
 20 21  1  0
 21 22  1  0
 21 23  2  0
 16 24  1  0
 24 25  2  0
  9 26  2  0
 26 27  1  0
 27 28  2  0
 28 29  1  0
 29 30  2  0
 30 31  1  0
 31 32  2  0
  6 33  1  0
 33 34  2  0
 34  3  1  0
 32  7  1  0
 25 13  1  0
 31 26  1  0
  1 35  1  0
  1 36  1  0
  1 37  1  0
  2 38  1  0
  2 39  1  0
  4 40  1  0
  5 41  1  0
  8 42  1  0
 12 43  1  0
 14 44  1  0
 15 45  1  0
 20 46  1  0
 22 47  1  0
 22 48  1  0
 22 49  1  0
 24 50  1  0
 25 51  1  0
 27 52  1  0
 28 53  1  0
 29 54  1  0
 30 55  1  0
 33 56  1  0
 34 57  1  0
M  END
$$$$
