
     RDKit          3D

 37 38  0  0  0  0  0  0  0  0999 V2000
    0.2248   -0.1180   -1.2003 O   0  0  0  0  0  0  0  0  0  0  0  0
    0.7298   -0.5600   -0.1759 C   0  0  0  0  0  0  0  0  0  0  0  0
   -0.0956   -1.2227    0.9194 C   0  0  0  0  0  0  0  0  0  0  0  0
   -1.6018   -1.1752    0.6662 C   0  0  0  0  0  0  0  0  0  0  0  0
   -2.1847    0.2258    0.8787 C   0  0  0  0  0  0  0  0  0  0  0  0
   -3.6750    0.2451    0.6455 C   0  0  0  0  0  0  0  0  0  0  0  0
   -4.1834    0.4008   -0.6511 C   0  0  0  0  0  0  0  0  0  0  0  0
   -5.5607    0.4030   -0.8751 C   0  0  0  0  0  0  0  0  0  0  0  0
   -6.4416    0.2457    0.1933 C   0  0  0  0  0  0  0  0  0  0  0  0
   -5.9459    0.0841    1.4859 C   0  0  0  0  0  0  0  0  0  0  0  0
   -4.5684    0.0814    1.7120 C   0  0  0  0  0  0  0  0  0  0  0  0
    2.0788   -0.5485    0.1470 N   0  0  0  0  0  0  0  0  0  0  0  0
    3.1410   -0.0204   -0.6169 C   0  0  0  0  0  0  0  0  0  0  0  0
    2.9780    0.6020   -1.8580 C   0  0  0  0  0  0  0  0  0  0  0  0
    4.0800    1.1042   -2.5606 C   0  0  0  0  0  0  0  0  0  0  0  0
    5.3629    0.9911   -2.0304 C   0  0  0  0  0  0  0  0  0  0  0  0
    5.5320    0.3700   -0.7891 C   0  0  0  0  0  0  0  0  0  0  0  0
    6.8777    0.2436   -0.2172 N   0  0  0  0  0  4  0  0  0  0  0  0
    7.8283    0.6978   -0.8690 O   0  0  0  0  0  0  0  0  0  0  0  0
    6.9832   -0.3110    0.8864 O   0  0  0  0  0  1  0  0  0  0  0  0
    4.4297   -0.1349   -0.0816 C   0  0  0  0  0  0  0  0  0  0  0  0
    0.2183   -2.2726    0.9702 H   0  0  0  0  0  0  0  0  0  0  0  0
    0.1407   -0.7532    1.8814 H   0  0  0  0  0  0  0  0  0  0  0  0
   -2.0910   -1.8751    1.3559 H   0  0  0  0  0  0  0  0  0  0  0  0
   -1.8254   -1.5305   -0.3475 H   0  0  0  0  0  0  0  0  0  0  0  0
   -1.9707    0.5699    1.8986 H   0  0  0  0  0  0  0  0  0  0  0  0
   -1.7107    0.9556    0.2119 H   0  0  0  0  0  0  0  0  0  0  0  0
   -3.5048    0.5199   -1.4938 H   0  0  0  0  0  0  0  0  0  0  0  0
   -5.9452    0.5263   -1.8840 H   0  0  0  0  0  0  0  0  0  0  0  0
   -7.5140    0.2475    0.0180 H   0  0  0  0  0  0  0  0  0  0  0  0
   -6.6328   -0.0408    2.3187 H   0  0  0  0  0  0  0  0  0  0  0  0
   -4.1970   -0.0491    2.7255 H   0  0  0  0  0  0  0  0  0  0  0  0
    2.3321   -0.9738    1.0310 H   0  0  0  0  0  0  0  0  0  0  0  0
    1.9987    0.7158   -2.3148 H   0  0  0  0  0  0  0  0  0  0  0  0
    3.9282    1.5845   -3.5252 H   0  0  0  0  0  0  0  0  0  0  0  0
    6.2076    1.3871   -2.5901 H   0  0  0  0  0  0  0  0  0  0  0  0
    4.5769   -0.6156    0.8829 H   0  0  0  0  0  0  0  0  0  0  0  0
  1  2  2  0
  2  3  1  0
  3  4  1  0
  4  5  1  0
  5  6  1  0
  6  7  2  0
  7  8  1  0
  8  9  2  0
  9 10  1  0
 10 11  2  0
  2 12  1  0
 12 13  1  0
 13 14  2  0
 14 15  1  0
 15 16  2  0
 16 17  1  0
 17 18  1  0
 18 19  2  0
 18 20  1  0
 17 21  2  0
 11  6  1  0
 21 13  1  0
  3 22  1  0
  3 23  1  0
  4 24  1  0
  4 25  1  0
  5 26  1  0
  5 27  1  0
  7 28  1  0
  8 29  1  0
  9 30  1  0
 10 31  1  0
 11 32  1  0
 12 33  1  0
 14 34  1  0
 15 35  1  0
 16 36  1  0
 21 37  1  0
M  CHG  2  18   1  20  -1
M  END
$$$$
