
     RDKit          3D

 78 81  0  0  0  0  0  0  0  0999 V2000
   -3.7578    0.9420    0.8558 C   0  0  0  0  0  0  0  0  0  0  0  0
   -2.4781    1.7101    1.2215 C   0  0  0  0  0  0  0  0  0  0  0  0
   -2.7625    3.2229    1.2632 C   0  0  0  0  0  0  0  0  0  0  0  0
   -1.6246    4.1524    1.1555 N   0  0  0  0  0  0  0  0  0  0  0  0
   -1.8685    5.3667    0.3411 C   0  0  0  0  0  0  0  0  0  0  0  0
   -2.5778    6.4745    1.1289 C   0  0  0  0  0  0  0  0  0  0  0  0
   -0.5974    5.8874   -0.3651 C   0  0  0  0  0  0  0  0  0  0  0  0
   -0.9385    6.8061   -1.4056 O   0  0  0  0  0  0  0  0  0  0  0  0
   -0.6387    4.2347    2.1548 C   0  0  0  0  0  0  0  0  0  0  0  0
   -0.0814    5.2850    2.4672 O   0  0  0  0  0  0  0  0  0  0  0  0
   -0.1787    3.0031    2.8358 C   0  0  0  0  0  0  0  0  0  0  0  0
    0.0095    3.0313    4.2212 C   0  0  0  0  0  0  0  0  0  0  0  0
    0.5103    1.9027    4.8728 C   0  0  0  0  0  0  0  0  0  0  0  0
    0.8468    0.7562    4.1412 C   0  0  0  0  0  0  0  0  0  0  0  0
    0.6952    0.7250    2.7530 C   0  0  0  0  0  0  0  0  0  0  0  0
    1.0410   -0.3762    1.9421 N   0  0  0  0  0  0  0  0  0  0  0  0
    1.5986   -1.5836    2.3132 C   0  0  0  0  0  0  0  0  0  0  0  0
    1.9662   -1.8678    3.4467 O   0  0  0  0  0  0  0  0  0  0  0  0
    1.6740   -2.4318    1.2159 N   0  0  0  0  0  0  0  0  0  0  0  0
    2.3069   -3.6909    1.1505 C   0  0  0  0  0  0  0  0  0  0  0  0
    2.0911   -4.4652   -0.0011 C   0  0  0  0  0  0  0  0  0  0  0  0
    2.7004   -5.7183   -0.1498 C   0  0  0  0  0  0  0  0  0  0  0  0
    3.5543   -6.2146    0.8448 C   0  0  0  0  0  0  0  0  0  0  0  0
    4.2278   -7.5560    0.7044 C   0  0  0  0  0  0  0  0  0  0  0  0
    3.8566   -8.4325    1.6789 F   0  0  0  0  0  0  0  0  0  0  0  0
    3.9546   -8.1765   -0.4787 F   0  0  0  0  0  0  0  0  0  0  0  0
    5.5840   -7.4641    0.7748 F   0  0  0  0  0  0  0  0  0  0  0  0
    3.7686   -5.4346    1.9940 C   0  0  0  0  0  0  0  0  0  0  0  0
    3.1527   -4.1868    2.1447 C   0  0  0  0  0  0  0  0  0  0  0  0
    0.1595    1.8522    2.1081 C   0  0  0  0  0  0  0  0  0  0  0  0
   -0.0054    1.8415    0.7455 O   0  0  0  0  0  0  0  0  0  0  0  0
   -1.2780    1.2837    0.3308 C   0  0  0  0  0  0  0  0  0  0  0  0
   -1.4576    1.6743   -1.1572 C   0  0  0  0  0  0  0  0  0  0  0  0
   -0.5295    0.9784   -2.0644 N   0  0  0  0  0  0  0  0  0  0  0  0
    0.7832    1.5923   -2.2385 C   0  0  0  0  0  0  0  0  0  0  0  0
   -0.8438   -0.3460   -2.3810 C   0  0  0  0  0  0  0  0  0  0  0  0
   -1.7832   -0.9169   -1.8277 O   0  0  0  0  0  0  0  0  0  0  0  0
   -0.0472   -0.9087   -3.3483 N   0  0  0  0  0  0  0  0  0  0  0  0
   -0.1401   -2.2181   -3.8801 C   0  0  0  0  0  0  0  0  0  0  0  0
   -0.8810   -3.2546   -3.2949 C   0  0  0  0  0  0  0  0  0  0  0  0
   -0.9450   -4.5143   -3.9049 C   0  0  0  0  0  0  0  0  0  0  0  0
   -0.2575   -4.7382   -5.0924 C   0  0  0  0  0  0  0  0  0  0  0  0
   -0.3224   -5.9404   -5.6825 F   0  0  0  0  0  0  0  0  0  0  0  0
    0.5019   -3.7283   -5.6788 C   0  0  0  0  0  0  0  0  0  0  0  0
    0.5652   -2.4711   -5.0678 C   0  0  0  0  0  0  0  0  0  0  0  0
   -4.5210    1.1019    1.6228 H   0  0  0  0  0  0  0  0  0  0  0  0
   -3.5629   -0.1339    0.7981 H   0  0  0  0  0  0  0  0  0  0  0  0
   -4.1837    1.2758   -0.0959 H   0  0  0  0  0  0  0  0  0  0  0  0
   -2.2680    1.3996    2.2516 H   0  0  0  0  0  0  0  0  0  0  0  0
   -3.2881    3.4656    2.1955 H   0  0  0  0  0  0  0  0  0  0  0  0
   -3.4586    3.4546    0.4486 H   0  0  0  0  0  0  0  0  0  0  0  0
   -2.5481    5.0727   -0.4711 H   0  0  0  0  0  0  0  0  0  0  0  0
   -1.9062    6.9632    1.8347 H   0  0  0  0  0  0  0  0  0  0  0  0
   -2.9599    7.2411    0.4514 H   0  0  0  0  0  0  0  0  0  0  0  0
   -3.4217    6.0790    1.7005 H   0  0  0  0  0  0  0  0  0  0  0  0
    0.0981    6.3889    0.3148 H   0  0  0  0  0  0  0  0  0  0  0  0
   -0.0613    5.0524   -0.8315 H   0  0  0  0  0  0  0  0  0  0  0  0
   -1.0421    7.6722   -0.9740 H   0  0  0  0  0  0  0  0  0  0  0  0
   -0.2114    3.9316    4.7918 H   0  0  0  0  0  0  0  0  0  0  0  0
    0.6554    1.9170    5.9519 H   0  0  0  0  0  0  0  0  0  0  0  0
    1.2446   -0.0969    4.6856 H   0  0  0  0  0  0  0  0  0  0  0  0
    0.9620   -0.2028    0.9499 H   0  0  0  0  0  0  0  0  0  0  0  0
    1.0808   -2.1920    0.4298 H   0  0  0  0  0  0  0  0  0  0  0  0
    1.4517   -4.1072   -0.8043 H   0  0  0  0  0  0  0  0  0  0  0  0
    2.5195   -6.2855   -1.0634 H   0  0  0  0  0  0  0  0  0  0  0  0
    4.4182   -5.7963    2.7890 H   0  0  0  0  0  0  0  0  0  0  0  0
    3.3616   -3.6272    3.0533 H   0  0  0  0  0  0  0  0  0  0  0  0
   -1.1852    0.1933    0.4026 H   0  0  0  0  0  0  0  0  0  0  0  0
   -2.4693    1.4367   -1.4981 H   0  0  0  0  0  0  0  0  0  0  0  0
   -1.3185    2.7489   -1.3119 H   0  0  0  0  0  0  0  0  0  0  0  0
    0.6679    2.6749   -2.3442 H   0  0  0  0  0  0  0  0  0  0  0  0
    1.3074    1.2178   -3.1189 H   0  0  0  0  0  0  0  0  0  0  0  0
    1.3966    1.3628   -1.3652 H   0  0  0  0  0  0  0  0  0  0  0  0
    0.4456   -0.2501   -3.9301 H   0  0  0  0  0  0  0  0  0  0  0  0
   -1.4247   -3.1116   -2.3668 H   0  0  0  0  0  0  0  0  0  0  0  0
   -1.5301   -5.3156   -3.4562 H   0  0  0  0  0  0  0  0  0  0  0  0
    1.0375   -3.9266   -6.6034 H   0  0  0  0  0  0  0  0  0  0  0  0
    1.1602   -1.6910   -5.5420 H   0  0  0  0  0  0  0  0  0  0  0  0
  1  2  1  0
  2  3  1  0
  3  4  1  0
  4  5  1  0
  5  6  1  0
  5  7  1  0
  7  8  1  0
  4  9  1  0
  9 10  2  0
  9 11  1  0
 11 12  2  0
 12 13  1  0
 13 14  2  0
 14 15  1  0
 15 16  1  0
 16 17  1  0
 17 18  2  0
 17 19  1  0
 19 20  1  0
 20 21  2  0
 21 22  1  0
 22 23  2  0
 23 24  1  0
 24 25  1  0
 24 26  1  0
 24 27  1  0
 23 28  1  0
 28 29  2  0
 15 30  2  0
 30 31  1  0
 31 32  1  0
 32 33  1  0
 33 34  1  0
 34 35  1  0
 34 36  1  0
 36 37  2  0
 36 38  1  0
 38 39  1  0
 39 40  2  0
 40 41  1  0
 41 42  2  0
 42 43  1  0
 42 44  1  0
 44 45  2  0
 32  2  1  0
 45 39  1  0
 30 11  1  0
 29 20  1  0
  1 46  1  0
  1 47  1  0
  1 48  1  0
  2 49  1  0
  3 50  1  0
  3 51  1  0
  5 52  1  0
  6 53  1  0
  6 54  1  0
  6 55  1  0
  7 56  1  0
  7 57  1  0
  8 58  1  0
 12 59  1  0
 13 60  1  0
 14 61  1  0
 16 62  1  0
 19 63  1  0
 21 64  1  0
 22 65  1  0
 28 66  1  0
 29 67  1  0
 32 68  1  0
 33 69  1  0
 33 70  1  0
 35 71  1  0
 35 72  1  0
 35 73  1  0
 38 74  1  0
 40 75  1  0
 41 76  1  0
 44 77  1  0
 45 78  1  0
M  END
$$$$
