
     RDKit          3D

 59 64  0  0  0  0  0  0  0  0999 V2000
    3.8460   -0.6101   -3.0154 O   0  0  0  0  0  0  0  0  0  0  0  0
    3.5261   -0.1786   -1.9106 C   0  0  0  0  0  0  0  0  0  0  0  0
    4.5406    0.5134   -1.0884 C   0  0  0  0  0  0  0  0  0  0  0  0
    5.3806   -0.2444   -0.3652 C   0  0  0  0  0  0  0  0  0  0  0  0
    6.3650    0.3345    0.4856 C   0  0  0  0  0  0  0  0  0  0  0  0
    6.9484    1.5955    0.4808 C   0  0  0  0  0  0  0  0  0  0  0  0
    7.8890    1.7779    1.5387 C   0  0  0  0  0  0  0  0  0  0  0  0
    8.0006    0.6602    2.3277 C   0  0  0  0  0  0  0  0  0  0  0  0
    6.9986   -0.6142    1.7862 S   0  0  0  0  0  0  0  0  0  0  0  0
    2.2467   -0.2842   -1.3632 N   0  0  0  0  0  0  0  0  0  0  0  0
    1.3309   -1.1834   -2.0593 C   0  0  0  0  0  0  0  0  0  0  0  0
   -0.1331   -0.8384   -1.8037 C   0  0  0  0  0  0  0  0  0  0  0  0
   -0.4542   -0.7568   -0.2930 C   0  0  0  0  0  0  0  0  0  0  0  0
    0.5207    0.2664    0.3434 C   0  0  0  0  0  0  0  0  0  0  0  0
    1.9839   -0.0786    0.0647 C   0  0  0  0  0  0  0  0  0  0  0  0
   -0.1070   -2.0190    0.3397 O   0  0  0  0  0  0  0  0  0  0  0  0
   -1.0170   -3.0289    0.2894 C   0  0  0  0  0  0  0  0  0  0  0  0
   -0.5545   -4.2899    0.6755 C   0  0  0  0  0  0  0  0  0  0  0  0
   -1.4101   -5.3906    0.6308 C   0  0  0  0  0  0  0  0  0  0  0  0
   -2.7223   -5.2224    0.2004 C   0  0  0  0  0  0  0  0  0  0  0  0
   -3.5354   -6.2836    0.1428 F   0  0  0  0  0  0  0  0  0  0  0  0
   -3.2007   -3.9719   -0.1742 C   0  0  0  0  0  0  0  0  0  0  0  0
   -2.3414   -2.8757   -0.1095 C   0  0  0  0  0  0  0  0  0  0  0  0
   -2.8179   -1.5345   -0.4670 C   0  0  0  0  0  0  0  0  0  0  0  0
   -3.8643   -1.4099   -1.0981 O   0  0  0  0  0  0  0  0  0  0  0  0
   -1.9361   -0.3725   -0.0216 C   0  0  0  0  0  0  0  0  0  0  0  0
   -2.4060    0.9383   -0.6401 C   0  0  0  0  0  0  0  0  0  0  0  0
   -3.2269    1.4512    0.4951 C   0  0  0  0  0  0  0  0  0  0  0  0
   -4.1349    2.6136    0.3501 C   0  0  0  0  0  0  0  0  0  0  0  0
   -4.2935    3.2744   -0.8713 C   0  0  0  0  0  0  0  0  0  0  0  0
   -5.1502    4.3740   -0.9658 C   0  0  0  0  0  0  0  0  0  0  0  0
   -5.8451    4.8220    0.1568 C   0  0  0  0  0  0  0  0  0  0  0  0
   -5.6905    4.1676    1.3746 C   0  0  0  0  0  0  0  0  0  0  0  0
   -4.8385    3.0665    1.4728 C   0  0  0  0  0  0  0  0  0  0  0  0
   -3.0510    0.8290    1.6179 N   0  0  0  0  0  0  0  0  0  0  0  0
   -2.1305   -0.2155    1.3950 O   0  0  0  0  0  0  0  0  0  0  0  0
    4.5332    1.5948   -1.1091 H   0  0  0  0  0  0  0  0  0  0  0  0
    5.2842   -1.3283   -0.3902 H   0  0  0  0  0  0  0  0  0  0  0  0
    6.7312    2.3516   -0.2601 H   0  0  0  0  0  0  0  0  0  0  0  0
    8.4515    2.6919    1.7078 H   0  0  0  0  0  0  0  0  0  0  0  0
    8.6305    0.5216    3.1971 H   0  0  0  0  0  0  0  0  0  0  0  0
    1.5198   -1.1505   -3.1404 H   0  0  0  0  0  0  0  0  0  0  0  0
    1.5556   -2.2062   -1.7280 H   0  0  0  0  0  0  0  0  0  0  0  0
   -0.3575    0.1211   -2.2863 H   0  0  0  0  0  0  0  0  0  0  0  0
   -0.7497   -1.5987   -2.2974 H   0  0  0  0  0  0  0  0  0  0  0  0
    0.3856    0.3009    1.4333 H   0  0  0  0  0  0  0  0  0  0  0  0
    0.3305    1.2761   -0.0398 H   0  0  0  0  0  0  0  0  0  0  0  0
    2.2801   -0.9957    0.5885 H   0  0  0  0  0  0  0  0  0  0  0  0
    2.6067    0.7316    0.4559 H   0  0  0  0  0  0  0  0  0  0  0  0
    0.4739   -4.4186    1.0059 H   0  0  0  0  0  0  0  0  0  0  0  0
   -1.0619   -6.3780    0.9272 H   0  0  0  0  0  0  0  0  0  0  0  0
   -4.2319   -3.8640   -0.4972 H   0  0  0  0  0  0  0  0  0  0  0  0
   -2.9840    0.8144   -1.5597 H   0  0  0  0  0  0  0  0  0  0  0  0
   -1.6023    1.6557   -0.8218 H   0  0  0  0  0  0  0  0  0  0  0  0
   -3.7680    2.9533   -1.7640 H   0  0  0  0  0  0  0  0  0  0  0  0
   -5.2759    4.8837   -1.9168 H   0  0  0  0  0  0  0  0  0  0  0  0
   -6.5102    5.6786    0.0807 H   0  0  0  0  0  0  0  0  0  0  0  0
   -6.2305    4.5168    2.2507 H   0  0  0  0  0  0  0  0  0  0  0  0
   -4.7271    2.5665    2.4322 H   0  0  0  0  0  0  0  0  0  0  0  0
  1  2  2  0
  2  3  1  0
  3  4  2  3
  4  5  1  0
  5  6  2  0
  6  7  1  0
  7  8  2  0
  8  9  1  0
  2 10  1  0
 10 11  1  0
 11 12  1  0
 12 13  1  0
 13 14  1  0
 14 15  1  0
 13 16  1  0
 16 17  1  0
 17 18  2  0
 18 19  1  0
 19 20  2  0
 20 21  1  0
 20 22  1  0
 22 23  2  0
 23 24  1  0
 24 25  2  0
 24 26  1  0
 26 27  1  0
 27 28  1  0
 28 29  1  0
 29 30  2  0
 30 31  1  0
 31 32  2  0
 32 33  1  0
 33 34  2  0
 28 35  2  0
 35 36  1  0
  9  5  1  0
 15 10  1  0
 23 17  1  0
 36 26  1  0
 26 13  1  0
 34 29  1  0
  3 37  1  0
  4 38  1  0
  6 39  1  0
  7 40  1  0
  8 41  1  0
 11 42  1  0
 11 43  1  0
 12 44  1  0
 12 45  1  0
 14 46  1  0
 14 47  1  0
 15 48  1  0
 15 49  1  0
 18 50  1  0
 19 51  1  0
 22 52  1  0
 27 53  1  0
 27 54  1  0
 30 55  1  0
 31 56  1  0
 32 57  1  0
 33 58  1  0
 34 59  1  0
M  END
$$$$
