
     RDKit          3D

 47 49  0  0  0  0  0  0  0  0999 V2000
   -2.9426    1.4309    1.7739 O   0  0  0  0  0  0  0  0  0  0  0  0
   -3.3985    1.2593    0.6480 C   0  0  0  0  0  0  0  0  0  0  0  0
   -4.8872    1.4813    0.3643 C   0  0  0  0  0  0  0  0  0  0  0  0
   -5.3944    0.6906   -0.7050 O   0  0  0  0  0  0  0  0  0  0  0  0
   -5.8586   -0.5565   -0.3872 C   0  0  0  0  0  0  0  0  0  0  0  0
   -5.5572   -1.2700    0.7739 C   0  0  0  0  0  0  0  0  0  0  0  0
   -6.1051   -2.5440    0.9776 C   0  0  0  0  0  0  0  0  0  0  0  0
   -6.9440   -3.1046    0.0178 C   0  0  0  0  0  0  0  0  0  0  0  0
   -7.6973   -4.8114    0.3140 Br  0  0  0  0  0  0  0  0  0  0  0  0
   -7.2328   -2.4107   -1.1534 C   0  0  0  0  0  0  0  0  0  0  0  0
   -6.6847   -1.1394   -1.3537 C   0  0  0  0  0  0  0  0  0  0  0  0
   -2.6903    0.9115   -0.4897 N   0  0  0  0  0  0  0  0  0  0  0  0
   -1.3091    0.6688   -0.6107 C   0  0  0  0  0  0  0  0  0  0  0  0
   -0.8123    0.4070   -1.8917 C   0  0  0  0  0  0  0  0  0  0  0  0
    0.5532    0.1795   -2.0940 C   0  0  0  0  0  0  0  0  0  0  0  0
    1.4467    0.1987   -1.0158 C   0  0  0  0  0  0  0  0  0  0  0  0
    2.8969   -0.0494   -1.2971 C   0  0  0  0  0  0  0  0  0  0  0  0
    3.1918   -0.6109   -2.3471 O   0  0  0  0  0  0  0  0  0  0  0  0
    3.7862    0.4085   -0.3438 N   0  0  0  0  0  0  0  0  0  0  0  0
    5.2036    0.2976   -0.3308 C   0  0  0  0  0  0  0  0  0  0  0  0
    5.9147   -0.3287   -1.3626 C   0  0  0  0  0  0  0  0  0  0  0  0
    7.3104   -0.4220   -1.3267 C   0  0  0  0  0  0  0  0  0  0  0  0
    8.0221    0.1067   -0.2567 C   0  0  0  0  0  0  0  0  0  0  0  0
    7.3381    0.7269    0.7870 C   0  0  0  0  0  0  0  0  0  0  0  0
    5.9343    0.8279    0.7621 C   0  0  0  0  0  0  0  0  0  0  0  0
    5.2264    1.4726    1.9022 C   0  0  0  0  0  0  0  0  0  0  0  0
    4.0179    1.6074    2.0000 O   0  0  0  0  0  0  0  0  0  0  0  0
    6.0507    1.9080    2.8725 O   0  0  0  0  0  0  0  0  0  0  0  0
    0.9433    0.4255    0.2706 C   0  0  0  0  0  0  0  0  0  0  0  0
   -0.4232    0.6724    0.4668 C   0  0  0  0  0  0  0  0  0  0  0  0
   -5.4734    1.3531    1.2811 H   0  0  0  0  0  0  0  0  0  0  0  0
   -4.9964    2.5306    0.0696 H   0  0  0  0  0  0  0  0  0  0  0  0
   -4.8982   -0.8785    1.5439 H   0  0  0  0  0  0  0  0  0  0  0  0
   -5.8677   -3.0881    1.8895 H   0  0  0  0  0  0  0  0  0  0  0  0
   -7.8834   -2.8457   -1.9114 H   0  0  0  0  0  0  0  0  0  0  0  0
   -6.9154   -0.5952   -2.2674 H   0  0  0  0  0  0  0  0  0  0  0  0
   -3.2499    0.7950   -1.3277 H   0  0  0  0  0  0  0  0  0  0  0  0
   -1.4736    0.3852   -2.7538 H   0  0  0  0  0  0  0  0  0  0  0  0
    0.9182   -0.0097   -3.1022 H   0  0  0  0  0  0  0  0  0  0  0  0
    3.4018    0.9221    0.4477 H   0  0  0  0  0  0  0  0  0  0  0  0
    5.4112   -0.7582   -2.2234 H   0  0  0  0  0  0  0  0  0  0  0  0
    7.8371   -0.9237   -2.1375 H   0  0  0  0  0  0  0  0  0  0  0  0
    9.1076    0.0272   -0.2319 H   0  0  0  0  0  0  0  0  0  0  0  0
    7.9099    1.1215    1.6226 H   0  0  0  0  0  0  0  0  0  0  0  0
    5.4553    2.2838    3.5543 H   0  0  0  0  0  0  0  0  0  0  0  0
    1.5792    0.3973    1.1507 H   0  0  0  0  0  0  0  0  0  0  0  0
   -0.7611    0.8495    1.4848 H   0  0  0  0  0  0  0  0  0  0  0  0
  1  2  2  0
  2  3  1  0
  3  4  1  0
  4  5  1  0
  5  6  2  0
  6  7  1  0
  7  8  2  0
  8  9  1  0
  8 10  1  0
 10 11  2  0
  2 12  1  0
 12 13  1  0
 13 14  2  0
 14 15  1  0
 15 16  2  0
 16 17  1  0
 17 18  2  0
 17 19  1  0
 19 20  1  0
 20 21  2  0
 21 22  1  0
 22 23  2  0
 23 24  1  0
 24 25  2  0
 25 26  1  0
 26 27  2  0
 26 28  1  0
 16 29  1  0
 29 30  2  0
 11  5  1  0
 30 13  1  0
 25 20  1  0
  3 31  1  0
  3 32  1  0
  6 33  1  0
  7 34  1  0
 10 35  1  0
 11 36  1  0
 12 37  1  0
 14 38  1  0
 15 39  1  0
 19 40  1  0
 21 41  1  0
 22 42  1  0
 23 43  1  0
 24 44  1  0
 28 45  1  0
 29 46  1  0
 30 47  1  0
M  END
$$$$
