
     RDKit          3D

 50 53  0  0  0  0  0  0  0  0999 V2000
   -4.1250    2.2315    4.0227 C   0  0  0  0  0  0  0  0  0  0  0  0
   -3.1069    1.2209    3.5173 C   0  0  0  0  0  0  0  0  0  0  0  0
   -1.7565    1.8603    3.2211 C   0  0  0  0  0  0  0  0  0  0  0  0
   -1.4943    2.9905    3.6360 O   0  0  0  0  0  0  0  0  0  0  0  0
   -0.8365    1.1072    2.4893 N   0  0  0  0  0  0  0  0  0  0  0  0
   -0.9465   -0.3499    2.3346 C   0  0  0  0  0  0  0  0  0  0  0  0
   -1.2216   -0.8255    0.9254 C   0  0  0  0  0  0  0  0  0  0  0  0
   -0.6302   -2.0132    0.4691 C   0  0  0  0  0  0  0  0  0  0  0  0
   -0.8617   -2.4755   -0.8289 C   0  0  0  0  0  0  0  0  0  0  0  0
   -1.7106   -1.7746   -1.6904 C   0  0  0  0  0  0  0  0  0  0  0  0
   -1.9213   -2.2444   -3.0987 C   0  0  0  0  0  0  0  0  0  0  0  0
   -2.3118   -0.5966   -1.2377 C   0  0  0  0  0  0  0  0  0  0  0  0
   -2.0800   -0.1340    0.0604 C   0  0  0  0  0  0  0  0  0  0  0  0
    0.4557    1.7505    2.2011 C   0  0  0  0  0  0  0  0  0  0  0  0
    1.0189    1.3825    0.8604 C   0  0  0  0  0  0  0  0  0  0  0  0
    2.0262    0.5044    0.6982 C   0  0  0  0  0  0  0  0  0  0  0  0
    2.5073    0.1459   -0.6358 C   0  0  0  0  0  0  0  0  0  0  0  0
    3.5160   -0.8078   -0.8108 C   0  0  0  0  0  0  0  0  0  0  0  0
    3.8970   -1.1039   -2.1033 C   0  0  0  0  0  0  0  0  0  0  0  0
    3.3187   -0.4933   -3.1931 C   0  0  0  0  0  0  0  0  0  0  0  0
    2.3246    0.4515   -3.0578 C   0  0  0  0  0  0  0  0  0  0  0  0
    1.9203    0.7671   -1.7594 C   0  0  0  0  0  0  0  0  0  0  0  0
    0.9166    1.7194   -1.5594 N   0  0  0  0  0  0  0  0  0  0  0  0
    0.4349    2.0775   -0.3281 C   0  0  0  0  0  0  0  0  0  0  0  0
   -0.4362    2.9354   -0.2231 O   0  0  0  0  0  0  0  0  0  0  0  0
    3.8406   -0.9324   -4.3698 O   0  0  0  0  0  0  0  0  0  0  0  0
    4.8169   -1.8843   -3.8981 C   0  0  0  0  0  0  0  0  0  0  0  0
    4.8533   -2.0029   -2.4603 O   0  0  0  0  0  0  0  0  0  0  0  0
   -4.2763    3.0339    3.2930 H   0  0  0  0  0  0  0  0  0  0  0  0
   -5.0884    1.7441    4.2017 H   0  0  0  0  0  0  0  0  0  0  0  0
   -3.7956    2.6885    4.9617 H   0  0  0  0  0  0  0  0  0  0  0  0
   -2.9676    0.4536    4.2859 H   0  0  0  0  0  0  0  0  0  0  0  0
   -3.5004    0.7539    2.6102 H   0  0  0  0  0  0  0  0  0  0  0  0
   -0.0076   -0.7794    2.7068 H   0  0  0  0  0  0  0  0  0  0  0  0
   -1.7311   -0.7568    2.9776 H   0  0  0  0  0  0  0  0  0  0  0  0
    0.0335   -2.5823    1.1162 H   0  0  0  0  0  0  0  0  0  0  0  0
   -0.3708   -3.3863   -1.1646 H   0  0  0  0  0  0  0  0  0  0  0  0
   -1.1478   -1.8273   -3.7514 H   0  0  0  0  0  0  0  0  0  0  0  0
   -2.9037   -1.9357   -3.4717 H   0  0  0  0  0  0  0  0  0  0  0  0
   -1.8816   -3.3375   -3.1550 H   0  0  0  0  0  0  0  0  0  0  0  0
   -2.9605   -0.0211   -1.8944 H   0  0  0  0  0  0  0  0  0  0  0  0
   -2.5503    0.7964    0.3728 H   0  0  0  0  0  0  0  0  0  0  0  0
    1.1376    1.4466    3.0059 H   0  0  0  0  0  0  0  0  0  0  0  0
    0.3771    2.8413    2.2724 H   0  0  0  0  0  0  0  0  0  0  0  0
    2.4780    0.0074    1.5500 H   0  0  0  0  0  0  0  0  0  0  0  0
    3.9877   -1.3075    0.0274 H   0  0  0  0  0  0  0  0  0  0  0  0
    1.8833    0.9182   -3.9296 H   0  0  0  0  0  0  0  0  0  0  0  0
    0.4854    2.1840   -2.3464 H   0  0  0  0  0  0  0  0  0  0  0  0
    5.8077   -1.5741   -4.2496 H   0  0  0  0  0  0  0  0  0  0  0  0
    4.5836   -2.8666   -4.3249 H   0  0  0  0  0  0  0  0  0  0  0  0
  1  2  1  0
  2  3  1  0
  3  4  2  0
  3  5  1  0
  5  6  1  0
  6  7  1  0
  7  8  2  0
  8  9  1  0
  9 10  2  0
 10 11  1  0
 10 12  1  0
 12 13  2  0
  5 14  1  0
 14 15  1  0
 15 16  2  0
 16 17  1  0
 17 18  2  0
 18 19  1  0
 19 20  2  0
 20 21  1  0
 21 22  2  0
 22 23  1  0
 23 24  1  0
 24 25  2  0
 20 26  1  0
 26 27  1  0
 27 28  1  0
 13  7  1  0
 24 15  1  0
 22 17  1  0
 28 19  1  0
  1 29  1  0
  1 30  1  0
  1 31  1  0
  2 32  1  0
  2 33  1  0
  6 34  1  0
  6 35  1  0
  8 36  1  0
  9 37  1  0
 11 38  1  0
 11 39  1  0
 11 40  1  0
 12 41  1  0
 13 42  1  0
 14 43  1  0
 14 44  1  0
 16 45  1  0
 18 46  1  0
 21 47  1  0
 23 48  1  0
 27 49  1  0
 27 50  1  0
M  END
$$$$
