
     RDKit          3D

 59 64  0  0  0  0  0  0  0  0999 V2000
    4.3730    1.8177   -1.1162 O   0  0  0  0  0  0  0  0  0  0  0  0
    3.7758    1.4033   -0.1268 C   0  0  0  0  0  0  0  0  0  0  0  0
    4.4184    1.5014    1.2001 C   0  0  0  0  0  0  0  0  0  0  0  0
    5.4390    0.7593    1.6547 C   0  0  0  0  0  0  0  0  0  0  0  0
    6.0838   -0.3254    0.9815 C   0  0  0  0  0  0  0  0  0  0  0  0
    5.7966   -1.0152   -0.1867 C   0  0  0  0  0  0  0  0  0  0  0  0
    6.7312   -2.0568   -0.4800 C   0  0  0  0  0  0  0  0  0  0  0  0
    7.7223   -2.1444    0.4697 C   0  0  0  0  0  0  0  0  0  0  0  0
    7.5149   -0.9929    1.7107 S   0  0  0  0  0  0  0  0  0  0  0  0
    2.4871    0.8751   -0.1540 N   0  0  0  0  0  0  0  0  0  0  0  0
    1.9326    0.0793    0.9395 C   0  0  0  0  0  0  0  0  0  0  0  0
    0.4072    0.1504    0.9790 C   0  0  0  0  0  0  0  0  0  0  0  0
   -0.2335   -0.2127   -0.3815 C   0  0  0  0  0  0  0  0  0  0  0  0
    0.3952    0.6947   -1.4681 C   0  0  0  0  0  0  0  0  0  0  0  0
    1.9195    0.6157   -1.4739 C   0  0  0  0  0  0  0  0  0  0  0  0
    0.1839   -1.5533   -0.7536 O   0  0  0  0  0  0  0  0  0  0  0  0
   -0.5215   -2.6071   -0.2554 C   0  0  0  0  0  0  0  0  0  0  0  0
    0.0512   -3.8680   -0.4368 C   0  0  0  0  0  0  0  0  0  0  0  0
   -0.5899   -5.0039    0.0603 C   0  0  0  0  0  0  0  0  0  0  0  0
   -1.8002   -4.8705    0.7344 C   0  0  0  0  0  0  0  0  0  0  0  0
   -2.4089   -5.9613    1.2159 F   0  0  0  0  0  0  0  0  0  0  0  0
   -2.3867   -3.6247    0.9145 C   0  0  0  0  0  0  0  0  0  0  0  0
   -1.7429   -2.4961    0.4031 C   0  0  0  0  0  0  0  0  0  0  0  0
   -2.3392   -1.1634    0.5552 C   0  0  0  0  0  0  0  0  0  0  0  0
   -3.2154   -0.9813    1.3967 O   0  0  0  0  0  0  0  0  0  0  0  0
   -1.7833   -0.0780   -0.3607 C   0  0  0  0  0  0  0  0  0  0  0  0
   -2.3263    1.2919    0.0231 C   0  0  0  0  0  0  0  0  0  0  0  0
   -3.4825    1.3507   -0.9182 C   0  0  0  0  0  0  0  0  0  0  0  0
   -4.5577    2.3631   -0.7859 C   0  0  0  0  0  0  0  0  0  0  0  0
   -4.4995    3.3735    0.1811 C   0  0  0  0  0  0  0  0  0  0  0  0
   -5.5333    4.3114    0.2766 C   0  0  0  0  0  0  0  0  0  0  0  0
   -6.6243    4.2456   -0.5909 C   0  0  0  0  0  0  0  0  0  0  0  0
   -6.6854    3.2431   -1.5571 C   0  0  0  0  0  0  0  0  0  0  0  0
   -5.6551    2.3046   -1.6561 C   0  0  0  0  0  0  0  0  0  0  0  0
   -3.4506    0.4719   -1.8698 N   0  0  0  0  0  0  0  0  0  0  0  0
   -2.3035   -0.3275   -1.6773 O   0  0  0  0  0  0  0  0  0  0  0  0
    4.0142    2.2970    1.8192 H   0  0  0  0  0  0  0  0  0  0  0  0
    5.8109    1.0105    2.6471 H   0  0  0  0  0  0  0  0  0  0  0  0
    4.9543   -0.7951   -0.8319 H   0  0  0  0  0  0  0  0  0  0  0  0
    6.6792   -2.6991   -1.3520 H   0  0  0  0  0  0  0  0  0  0  0  0
    8.5621   -2.8317    0.4981 H   0  0  0  0  0  0  0  0  0  0  0  0
    2.2783   -0.9526    0.8032 H   0  0  0  0  0  0  0  0  0  0  0  0
    2.3179    0.4213    1.9037 H   0  0  0  0  0  0  0  0  0  0  0  0
    0.1130    1.1662    1.2719 H   0  0  0  0  0  0  0  0  0  0  0  0
    0.0606   -0.5248    1.7699 H   0  0  0  0  0  0  0  0  0  0  0  0
    0.1113    1.7407   -1.3118 H   0  0  0  0  0  0  0  0  0  0  0  0
    0.0427    0.4026   -2.4650 H   0  0  0  0  0  0  0  0  0  0  0  0
    2.2629   -0.3756   -1.7932 H   0  0  0  0  0  0  0  0  0  0  0  0
    2.3080    1.3365   -2.2022 H   0  0  0  0  0  0  0  0  0  0  0  0
    0.9991   -3.9673   -0.9607 H   0  0  0  0  0  0  0  0  0  0  0  0
   -0.1529   -5.9898   -0.0720 H   0  0  0  0  0  0  0  0  0  0  0  0
   -3.3365   -3.5446    1.4357 H   0  0  0  0  0  0  0  0  0  0  0  0
   -2.6276    1.3753    1.0699 H   0  0  0  0  0  0  0  0  0  0  0  0
   -1.6559    2.1193   -0.2213 H   0  0  0  0  0  0  0  0  0  0  0  0
   -3.6636    3.4550    0.8696 H   0  0  0  0  0  0  0  0  0  0  0  0
   -5.4888    5.0942    1.0302 H   0  0  0  0  0  0  0  0  0  0  0  0
   -7.4289    4.9746   -0.5165 H   0  0  0  0  0  0  0  0  0  0  0  0
   -7.5353    3.1906   -2.2339 H   0  0  0  0  0  0  0  0  0  0  0  0
   -5.7170    1.5268   -2.4153 H   0  0  0  0  0  0  0  0  0  0  0  0
  1  2  2  0
  2  3  1  0
  3  4  2  3
  4  5  1  0
  5  6  2  0
  6  7  1  0
  7  8  2  0
  8  9  1  0
  2 10  1  0
 10 11  1  0
 11 12  1  0
 12 13  1  0
 13 14  1  0
 14 15  1  0
 13 16  1  0
 16 17  1  0
 17 18  2  0
 18 19  1  0
 19 20  2  0
 20 21  1  0
 20 22  1  0
 22 23  2  0
 23 24  1  0
 24 25  2  0
 24 26  1  0
 26 27  1  0
 27 28  1  0
 28 29  1  0
 29 30  2  0
 30 31  1  0
 31 32  2  0
 32 33  1  0
 33 34  2  0
 28 35  2  0
 35 36  1  0
  9  5  1  0
 15 10  1  0
 23 17  1  0
 36 26  1  0
 26 13  1  0
 34 29  1  0
  3 37  1  0
  4 38  1  0
  6 39  1  0
  7 40  1  0
  8 41  1  0
 11 42  1  0
 11 43  1  0
 12 44  1  0
 12 45  1  0
 14 46  1  0
 14 47  1  0
 15 48  1  0
 15 49  1  0
 18 50  1  0
 19 51  1  0
 22 52  1  0
 27 53  1  0
 27 54  1  0
 30 55  1  0
 31 56  1  0
 32 57  1  0
 33 58  1  0
 34 59  1  0
M  END
$$$$
