
     RDKit          3D

 36 37  0  0  0  0  0  0  0  0999 V2000
    4.3777    1.3081   -0.5944 C   0  0  0  0  0  0  0  0  0  0  0  0
    4.3865    0.3492    0.5338 N   0  0  0  0  0  0  0  0  0  0  0  0
    5.7115    0.3081    1.1957 C   0  0  0  0  0  0  0  0  0  0  0  0
    3.7865   -1.2120    0.1597 S   0  0  0  0  0  6  0  0  0  0  0  0
    4.4287   -1.6402   -1.0653 O   0  0  0  0  0  0  0  0  0  0  0  0
    3.8394   -2.0191    1.3597 O   0  0  0  0  0  0  0  0  0  0  0  0
    2.0708   -0.8972   -0.1806 C   0  0  0  0  0  0  0  0  0  0  0  0
    1.2396   -0.4844    0.8654 C   0  0  0  0  0  0  0  0  0  0  0  0
   -0.1138   -0.2397    0.6169 C   0  0  0  0  0  0  0  0  0  0  0  0
   -0.6358   -0.4107   -0.6745 C   0  0  0  0  0  0  0  0  0  0  0  0
   -2.0671   -0.1586   -0.9972 C   0  0  0  0  0  0  0  0  0  0  0  0
   -2.5292   -0.2429   -2.1234 O   0  0  0  0  0  0  0  0  0  0  0  0
   -2.7575    0.1938    0.1164 O   0  0  0  0  0  0  0  0  0  0  0  0
   -4.1565    0.3233   -0.0857 C   0  0  0  0  0  0  0  0  0  0  0  0
   -4.7734    1.1063    1.0499 C   0  0  0  0  0  0  0  0  0  0  0  0
   -6.2113    0.6614    0.9826 C   0  0  0  0  0  0  0  0  0  0  0  0
   -6.1634   -0.7122    0.5932 O   0  0  0  0  0  0  0  0  0  0  0  0
   -4.9453   -0.9721    0.0183 C   0  0  0  0  0  0  0  0  0  0  0  0
   -4.5804   -2.0836   -0.3275 O   0  0  0  0  0  0  0  0  0  0  0  0
    0.2095   -0.8348   -1.7125 C   0  0  0  0  0  0  0  0  0  0  0  0
    1.5627   -1.0828   -1.4682 C   0  0  0  0  0  0  0  0  0  0  0  0
    3.3761    1.4058   -1.0201 H   0  0  0  0  0  0  0  0  0  0  0  0
    5.0812    1.0062   -1.3760 H   0  0  0  0  0  0  0  0  0  0  0  0
    4.6664    2.3013   -0.2345 H   0  0  0  0  0  0  0  0  0  0  0  0
    6.4680   -0.1241    0.5337 H   0  0  0  0  0  0  0  0  0  0  0  0
    5.6594   -0.2694    2.1231 H   0  0  0  0  0  0  0  0  0  0  0  0
    6.0244    1.3216    1.4674 H   0  0  0  0  0  0  0  0  0  0  0  0
    1.6410   -0.3578    1.8693 H   0  0  0  0  0  0  0  0  0  0  0  0
   -0.7482    0.0780    1.4409 H   0  0  0  0  0  0  0  0  0  0  0  0
   -4.3941    0.8089   -1.0411 H   0  0  0  0  0  0  0  0  0  0  0  0
   -4.6522    2.1883    0.9459 H   0  0  0  0  0  0  0  0  0  0  0  0
   -4.3209    0.8153    2.0064 H   0  0  0  0  0  0  0  0  0  0  0  0
   -6.7846    1.2170    0.2328 H   0  0  0  0  0  0  0  0  0  0  0  0
   -6.7118    0.7521    1.9508 H   0  0  0  0  0  0  0  0  0  0  0  0
   -0.1875   -0.9819   -2.7163 H   0  0  0  0  0  0  0  0  0  0  0  0
    2.2036   -1.4211   -2.2798 H   0  0  0  0  0  0  0  0  0  0  0  0
  1  2  1  0
  2  3  1  0
  2  4  1  0
  4  5  2  0
  4  6  2  0
  4  7  1  0
  7  8  2  0
  8  9  1  0
  9 10  2  0
 10 11  1  0
 11 12  2  0
 11 13  1  0
 13 14  1  0
 14 15  1  0
 15 16  1  0
 16 17  1  0
 17 18  1  0
 18 19  2  0
 10 20  1  0
 20 21  2  0
 21  7  1  0
 18 14  1  0
  1 22  1  0
  1 23  1  0
  1 24  1  0
  3 25  1  0
  3 26  1  0
  3 27  1  0
  8 28  1  0
  9 29  1  0
 14 30  1  0
 15 31  1  0
 15 32  1  0
 16 33  1  0
 16 34  1  0
 20 35  1  0
 21 36  1  0
M  END
$$$$
