
     RDKit          3D

 69 71  0  0  0  0  0  0  0  0999 V2000
   -4.5415    3.8472   -3.1288 C   0  0  0  0  0  0  0  0  0  0  0  0
   -4.1334    2.5129   -2.8308 O   0  0  0  0  0  0  0  0  0  0  0  0
   -2.8154    2.3867   -2.4688 C   0  0  0  0  0  0  0  0  0  0  0  0
   -1.8222    3.0769   -3.1827 C   0  0  0  0  0  0  0  0  0  0  0  0
   -0.4801    2.9535   -2.8408 C   0  0  0  0  0  0  0  0  0  0  0  0
   -0.1161    2.1377   -1.7766 C   0  0  0  0  0  0  0  0  0  0  0  0
   -1.0885    1.4170   -1.0476 C   0  0  0  0  0  0  0  0  0  0  0  0
   -0.5892    0.5388    0.1065 C   0  0  0  0  0  0  0  0  0  0  0  0
   -1.4635    0.5917    1.4038 C   0  0  0  0  0  0  0  0  0  0  0  0
   -1.9857    1.6302    1.8111 O   0  0  0  0  0  0  0  0  0  0  0  0
   -1.5196   -0.5963    2.1174 N   0  0  0  0  0  0  0  0  0  0  0  0
   -2.1404   -0.7684    3.4368 C   0  0  0  0  0  0  0  0  0  0  0  0
   -1.9920   -2.2508    3.8307 C   0  0  0  0  0  0  0  0  0  0  0  0
   -3.6374   -0.4308    3.3952 C   0  0  0  0  0  0  0  0  0  0  0  0
   -1.4250    0.0865    4.4925 C   0  0  0  0  0  0  0  0  0  0  0  0
   -0.1703   -0.8343   -0.3376 N   0  0  0  0  0  0  0  0  0  0  0  0
    1.0019   -1.3315    0.2302 C   0  0  0  0  0  0  0  0  0  0  0  0
    1.5976   -0.7170    1.1213 O   0  0  0  0  0  0  0  0  0  0  0  0
    1.5300   -2.6697   -0.2363 C   0  0  0  0  0  0  0  0  0  0  0  0
    2.8763   -2.9999    0.4110 C   0  0  0  0  0  0  0  0  0  0  0  0
    3.9574   -2.0792   -0.1350 C   0  0  0  0  0  0  0  0  0  0  0  0
    4.2325   -2.0791   -1.3346 O   0  0  0  0  0  0  0  0  0  0  0  0
    4.5308   -1.2874    0.8280 N   0  0  0  0  0  0  0  0  0  0  0  0
    5.5137   -0.3502    0.6032 C   0  0  0  0  0  0  0  0  0  0  0  0
    6.1996   -0.0380   -0.5901 C   0  0  0  0  0  0  0  0  0  0  0  0
    7.0601    0.9698   -0.2402 C   0  0  0  0  0  0  0  0  0  0  0  0
    8.0615    1.7627   -0.9741 C   0  0  0  0  0  0  0  0  0  0  0  0
    6.9165    1.2401    1.0848 O   0  0  0  0  0  0  0  0  0  0  0  0
    5.9484    0.4071    1.6176 N   0  0  0  0  0  0  0  0  0  0  0  0
   -1.1848   -1.6268   -1.0130 C   0  0  0  0  0  0  0  0  0  0  0  0
   -1.3997   -1.4454   -2.5025 C   0  0  0  0  0  0  0  0  0  0  0  0
   -1.0158   -2.7847   -1.9665 C   0  0  0  0  0  0  0  0  0  0  0  0
   -2.4522    1.5138   -1.4217 C   0  0  0  0  0  0  0  0  0  0  0  0
   -3.2827    0.6902   -0.7090 O   0  0  0  0  0  0  0  0  0  0  0  0
   -4.6693    0.6404   -1.0177 C   0  0  0  0  0  0  0  0  0  0  0  0
   -4.3419    4.0775   -4.1820 H   0  0  0  0  0  0  0  0  0  0  0  0
   -5.6254    3.9149   -2.9670 H   0  0  0  0  0  0  0  0  0  0  0  0
   -4.0567    4.5825   -2.4749 H   0  0  0  0  0  0  0  0  0  0  0  0
   -2.0784    3.7045   -4.0320 H   0  0  0  0  0  0  0  0  0  0  0  0
    0.2834    3.4855   -3.4041 H   0  0  0  0  0  0  0  0  0  0  0  0
    0.9402    2.0496   -1.5149 H   0  0  0  0  0  0  0  0  0  0  0  0
    0.3259    1.0445    0.4526 H   0  0  0  0  0  0  0  0  0  0  0  0
   -0.8242   -1.2778    1.8526 H   0  0  0  0  0  0  0  0  0  0  0  0
   -2.4138   -2.4493    4.8225 H   0  0  0  0  0  0  0  0  0  0  0  0
   -0.9348   -2.5466    3.8502 H   0  0  0  0  0  0  0  0  0  0  0  0
   -2.4995   -2.9075    3.1132 H   0  0  0  0  0  0  0  0  0  0  0  0
   -4.1175   -0.6553    4.3545 H   0  0  0  0  0  0  0  0  0  0  0  0
   -3.8176    0.6270    3.1848 H   0  0  0  0  0  0  0  0  0  0  0  0
   -4.1485   -1.0090    2.6183 H   0  0  0  0  0  0  0  0  0  0  0  0
   -0.3515   -0.1357    4.5165 H   0  0  0  0  0  0  0  0  0  0  0  0
   -1.5367    1.1556    4.2893 H   0  0  0  0  0  0  0  0  0  0  0  0
   -1.8284   -0.0971    5.4956 H   0  0  0  0  0  0  0  0  0  0  0  0
    1.6585   -2.6347   -1.3242 H   0  0  0  0  0  0  0  0  0  0  0  0
    0.8049   -3.4456    0.0396 H   0  0  0  0  0  0  0  0  0  0  0  0
    3.1710   -4.0261    0.1621 H   0  0  0  0  0  0  0  0  0  0  0  0
    2.8159   -2.9441    1.5058 H   0  0  0  0  0  0  0  0  0  0  0  0
    4.1221   -1.2367    1.7514 H   0  0  0  0  0  0  0  0  0  0  0  0
    6.0881   -0.4841   -1.5697 H   0  0  0  0  0  0  0  0  0  0  0  0
    8.0685    2.8036   -0.6304 H   0  0  0  0  0  0  0  0  0  0  0  0
    9.0624    1.3461   -0.8192 H   0  0  0  0  0  0  0  0  0  0  0  0
    7.8588    1.7583   -2.0486 H   0  0  0  0  0  0  0  0  0  0  0  0
   -2.0937   -1.6909   -0.4068 H   0  0  0  0  0  0  0  0  0  0  0  0
   -2.4169   -1.2976   -2.8413 H   0  0  0  0  0  0  0  0  0  0  0  0
   -0.6569   -0.8995   -3.0740 H   0  0  0  0  0  0  0  0  0  0  0  0
   -0.0584   -3.1621   -2.2958 H   0  0  0  0  0  0  0  0  0  0  0  0
   -1.7845   -3.5513   -1.9571 H   0  0  0  0  0  0  0  0  0  0  0  0
   -5.1130   -0.1470   -0.3969 H   0  0  0  0  0  0  0  0  0  0  0  0
   -4.8415    0.3558   -2.0627 H   0  0  0  0  0  0  0  0  0  0  0  0
   -5.1616    1.5792   -0.7432 H   0  0  0  0  0  0  0  0  0  0  0  0
  1  2  1  0
  2  3  1  0
  3  4  2  0
  4  5  1  0
  5  6  2  0
  6  7  1  0
  7  8  1  0
  8  9  1  0
  9 10  2  0
  9 11  1  0
 11 12  1  0
 12 13  1  0
 12 14  1  0
 12 15  1  0
  8 16  1  0
 16 17  1  0
 17 18  2  0
 17 19  1  0
 19 20  1  0
 20 21  1  0
 21 22  2  0
 21 23  1  0
 23 24  1  0
 24 25  1  0
 25 26  2  0
 26 27  1  0
 26 28  1  0
 28 29  1  0
 16 30  1  0
 30 31  1  0
 31 32  1  0
  7 33  2  0
 33 34  1  0
 34 35  1  0
 33  3  1  0
 29 24  2  0
 32 30  1  0
  1 36  1  0
  1 37  1  0
  1 38  1  0
  4 39  1  0
  5 40  1  0
  6 41  1  0
  8 42  1  0
 11 43  1  0
 13 44  1  0
 13 45  1  0
 13 46  1  0
 14 47  1  0
 14 48  1  0
 14 49  1  0
 15 50  1  0
 15 51  1  0
 15 52  1  0
 19 53  1  0
 19 54  1  0
 20 55  1  0
 20 56  1  0
 23 57  1  0
 25 58  1  0
 27 59  1  0
 27 60  1  0
 27 61  1  0
 30 62  1  0
 31 63  1  0
 31 64  1  0
 32 65  1  0
 32 66  1  0
 35 67  1  0
 35 68  1  0
 35 69  1  0
M  END
$$$$
