
     RDKit          3D

 55 58  0  0  0  0  0  0  0  0999 V2000
    3.1286   -0.9481   -2.3762 O   0  0  0  0  0  0  0  0  0  0  0  0
    2.4167   -1.0619   -1.3780 C   0  0  0  0  0  0  0  0  0  0  0  0
    1.4401   -2.2035   -1.1933 C   0  0  0  0  0  0  0  0  0  0  0  0
   -0.2168   -1.7366   -1.7632 S   0  0  0  0  0  0  0  0  0  0  0  0
   -0.8071   -0.8666   -0.3909 C   0  0  0  0  0  0  0  0  0  0  0  0
   -0.1558   -0.6898    0.7357 N   0  0  0  0  0  0  0  0  0  0  0  0
   -0.9352    0.0969    1.5412 N   0  0  0  0  0  0  0  0  0  0  0  0
   -2.0415    0.4096    0.8863 C   0  0  0  0  0  0  0  0  0  0  0  0
   -3.1074    1.2622    1.4076 C   0  0  0  0  0  0  0  0  0  0  0  0
   -3.7000    0.9255    2.6352 C   0  0  0  0  0  0  0  0  0  0  0  0
   -4.7149    1.7164    3.1777 C   0  0  0  0  0  0  0  0  0  0  0  0
   -5.1413    2.8578    2.5049 C   0  0  0  0  0  0  0  0  0  0  0  0
   -4.5484    3.2180    1.2941 C   0  0  0  0  0  0  0  0  0  0  0  0
   -3.5305    2.4280    0.7571 C   0  0  0  0  0  0  0  0  0  0  0  0
   -2.9370    2.8013   -0.4204 O   0  0  0  0  0  0  0  0  0  0  0  0
   -2.0299   -0.2532   -0.3268 N   0  0  0  0  0  0  0  0  0  0  0  0
   -3.0930   -0.2991   -1.3158 C   0  0  0  0  0  0  0  0  0  0  0  0
   -3.8764   -1.5905   -1.2520 C   0  0  0  0  0  0  0  0  0  0  0  0
   -3.7738   -2.5390   -2.2820 C   0  0  0  0  0  0  0  0  0  0  0  0
   -4.4950   -3.7337   -2.2235 C   0  0  0  0  0  0  0  0  0  0  0  0
   -5.3300   -3.9912   -1.1391 C   0  0  0  0  0  0  0  0  0  0  0  0
   -5.4507   -3.0570   -0.1159 C   0  0  0  0  0  0  0  0  0  0  0  0
   -4.7309   -1.8616   -0.1719 C   0  0  0  0  0  0  0  0  0  0  0  0
    2.4554   -0.1543   -0.3359 N   0  0  0  0  0  0  0  0  0  0  0  0
    3.5953    0.6722   -0.2524 N   0  0  0  0  0  0  0  0  0  0  0  0
    4.5304    0.3257    0.7105 C   0  0  0  0  0  0  0  0  0  0  0  0
    4.3212   -0.5045    1.5952 O   0  0  0  0  0  0  0  0  0  0  0  0
    5.8707    0.9625    0.6054 C   0  0  0  0  0  0  0  0  0  0  0  0
    6.0487    2.1883   -0.0566 C   0  0  0  0  0  0  0  0  0  0  0  0
    7.3237    2.7526   -0.1584 C   0  0  0  0  0  0  0  0  0  0  0  0
    8.4246    2.1034    0.4020 C   0  0  0  0  0  0  0  0  0  0  0  0
    8.2537    0.8983    1.0802 C   0  0  0  0  0  0  0  0  0  0  0  0
    6.9823    0.3359    1.1902 C   0  0  0  0  0  0  0  0  0  0  0  0
    6.8984   -0.8428    1.8870 O   0  0  0  0  0  0  0  0  0  0  0  0
    1.4359   -2.5466   -0.1537 H   0  0  0  0  0  0  0  0  0  0  0  0
    1.7917   -3.0446   -1.8006 H   0  0  0  0  0  0  0  0  0  0  0  0
   -3.3648    0.0420    3.1766 H   0  0  0  0  0  0  0  0  0  0  0  0
   -5.1651    1.4438    4.1291 H   0  0  0  0  0  0  0  0  0  0  0  0
   -5.9309    3.4728    2.9298 H   0  0  0  0  0  0  0  0  0  0  0  0
   -4.8920    4.1139    0.7871 H   0  0  0  0  0  0  0  0  0  0  0  0
   -3.2023    3.7141   -0.6231 H   0  0  0  0  0  0  0  0  0  0  0  0
   -3.7831    0.5343   -1.1653 H   0  0  0  0  0  0  0  0  0  0  0  0
   -2.6449   -0.1468   -2.3039 H   0  0  0  0  0  0  0  0  0  0  0  0
   -3.1268   -2.3592   -3.1390 H   0  0  0  0  0  0  0  0  0  0  0  0
   -4.4018   -4.4619   -3.0245 H   0  0  0  0  0  0  0  0  0  0  0  0
   -5.8884   -4.9232   -1.0931 H   0  0  0  0  0  0  0  0  0  0  0  0
   -6.1058   -3.2586    0.7285 H   0  0  0  0  0  0  0  0  0  0  0  0
   -4.8474   -1.1464    0.6367 H   0  0  0  0  0  0  0  0  0  0  0  0
    1.9778   -0.3602    0.5470 H   0  0  0  0  0  0  0  0  0  0  0  0
    3.9355    0.9822   -1.1620 H   0  0  0  0  0  0  0  0  0  0  0  0
    5.2063    2.7267   -0.4832 H   0  0  0  0  0  0  0  0  0  0  0  0
    7.4594    3.6974   -0.6772 H   0  0  0  0  0  0  0  0  0  0  0  0
    9.4168    2.5391    0.3148 H   0  0  0  0  0  0  0  0  0  0  0  0
    9.1087    0.3940    1.5257 H   0  0  0  0  0  0  0  0  0  0  0  0
    5.9473   -1.0343    2.0413 H   0  0  0  0  0  0  0  0  0  0  0  0
  1  2  2  0
  2  3  1  0
  3  4  1  0
  4  5  1  0
  5  6  2  0
  6  7  1  0
  7  8  2  0
  8  9  1  0
  9 10  2  0
 10 11  1  0
 11 12  2  0
 12 13  1  0
 13 14  2  0
 14 15  1  0
  8 16  1  0
 16 17  1  0
 17 18  1  0
 18 19  2  0
 19 20  1  0
 20 21  2  0
 21 22  1  0
 22 23  2  0
  2 24  1  0
 24 25  1  0
 25 26  1  0
 26 27  2  0
 26 28  1  0
 28 29  2  0
 29 30  1  0
 30 31  2  0
 31 32  1  0
 32 33  2  0
 33 34  1  0
 16  5  1  0
 23 18  1  0
 33 28  1  0
 14  9  1  0
  3 35  1  0
  3 36  1  0
 10 37  1  0
 11 38  1  0
 12 39  1  0
 13 40  1  0
 15 41  1  0
 17 42  1  0
 17 43  1  0
 19 44  1  0
 20 45  1  0
 21 46  1  0
 22 47  1  0
 23 48  1  0
 24 49  1  0
 25 50  1  0
 29 51  1  0
 30 52  1  0
 31 53  1  0
 32 54  1  0
 34 55  1  0
M  END
$$$$
