
     RDKit          3D

 56 58  0  0  0  0  0  0  0  0999 V2000
    9.6757    3.6033   -0.5087 C   0  0  0  0  0  0  0  0  0  0  0  0
    8.4209    3.0329    0.1323 C   0  0  0  0  0  0  0  0  0  0  0  0
    8.1211    1.7945   -0.5165 O   0  0  0  0  0  0  0  0  0  0  0  0
    6.8666    1.3030   -0.2821 C   0  0  0  0  0  0  0  0  0  0  0  0
    6.3257    0.5290   -1.3067 C   0  0  0  0  0  0  0  0  0  0  0  0
    5.0491   -0.0230   -1.1784 C   0  0  0  0  0  0  0  0  0  0  0  0
    4.2943    0.1957   -0.0164 C   0  0  0  0  0  0  0  0  0  0  0  0
    3.0159   -0.3955    0.0348 N   0  0  0  0  0  0  0  0  0  0  0  0
    2.0662   -0.2687    1.0387 C   0  0  0  0  0  0  0  0  0  0  0  0
    2.1472    0.4329    2.0382 O   0  0  0  0  0  0  0  0  0  0  0  0
    0.8352   -1.1061    0.7481 C   0  0  0  0  0  0  0  0  0  0  0  0
   -0.1772   -1.0869    1.8882 C   0  0  0  0  0  0  0  0  0  0  0  0
   -0.8136    0.2397    1.9810 N   0  0  0  0  0  0  0  0  0  0  0  0
   -2.2758    0.3475    2.8100 S   0  0  0  0  0  6  0  0  0  0  0  0
   -2.4177    1.7238    3.2328 O   0  0  0  0  0  0  0  0  0  0  0  0
   -2.3666   -0.7587    3.7398 O   0  0  0  0  0  0  0  0  0  0  0  0
   -3.4372    0.0775    1.4914 C   0  0  0  0  0  0  0  0  0  0  0  0
   -3.7638    1.1309    0.6384 C   0  0  0  0  0  0  0  0  0  0  0  0
   -4.6873    0.9273   -0.3937 C   0  0  0  0  0  0  0  0  0  0  0  0
   -5.3007   -0.3237   -0.5793 C   0  0  0  0  0  0  0  0  0  0  0  0
   -4.9682   -1.3584    0.2961 C   0  0  0  0  0  0  0  0  0  0  0  0
   -4.0425   -1.1685    1.3341 C   0  0  0  0  0  0  0  0  0  0  0  0
   -5.5936   -2.6775    0.1199 C   0  0  0  0  0  0  0  0  0  0  0  0
   -5.2328   -3.6049    0.8380 O   0  0  0  0  0  0  0  0  0  0  0  0
   -6.5507   -2.7890   -0.8752 N   0  0  0  0  0  0  0  0  0  0  0  0
   -7.1845   -4.0852   -1.0563 C   0  0  0  0  0  0  0  0  0  0  0  0
   -6.8403   -1.8021   -1.8108 C   0  0  0  0  0  0  0  0  0  0  0  0
   -7.5947   -2.0200   -2.7621 O   0  0  0  0  0  0  0  0  0  0  0  0
   -6.2264   -0.5644   -1.6281 N   0  0  0  0  0  0  0  0  0  0  0  0
   -6.5326    0.4949   -2.5793 C   0  0  0  0  0  0  0  0  0  0  0  0
    4.8518    0.9489    1.0175 C   0  0  0  0  0  0  0  0  0  0  0  0
    6.1332    1.5018    0.8885 C   0  0  0  0  0  0  0  0  0  0  0  0
    9.5404    3.7175   -1.5904 H   0  0  0  0  0  0  0  0  0  0  0  0
   10.5218    2.9276   -0.3563 H   0  0  0  0  0  0  0  0  0  0  0  0
    9.9245    4.5802   -0.0799 H   0  0  0  0  0  0  0  0  0  0  0  0
    7.5971    3.7496   -0.0024 H   0  0  0  0  0  0  0  0  0  0  0  0
    8.6070    2.8677    1.2051 H   0  0  0  0  0  0  0  0  0  0  0  0
    6.8989    0.3679   -2.2199 H   0  0  0  0  0  0  0  0  0  0  0  0
    4.6553   -0.6113   -2.0056 H   0  0  0  0  0  0  0  0  0  0  0  0
    2.7496   -0.9328   -0.7794 H   0  0  0  0  0  0  0  0  0  0  0  0
    1.1609   -2.1390    0.5825 H   0  0  0  0  0  0  0  0  0  0  0  0
    0.3787   -0.7347   -0.1765 H   0  0  0  0  0  0  0  0  0  0  0  0
   -0.9386   -1.8463    1.6800 H   0  0  0  0  0  0  0  0  0  0  0  0
    0.3063   -1.3227    2.8436 H   0  0  0  0  0  0  0  0  0  0  0  0
   -0.1783    1.0041    2.2408 H   0  0  0  0  0  0  0  0  0  0  0  0
   -3.3072    2.1113    0.7694 H   0  0  0  0  0  0  0  0  0  0  0  0
   -4.9079    1.7741   -1.0372 H   0  0  0  0  0  0  0  0  0  0  0  0
   -3.8038   -1.9868    2.0108 H   0  0  0  0  0  0  0  0  0  0  0  0
   -8.2110   -3.9674   -1.4131 H   0  0  0  0  0  0  0  0  0  0  0  0
   -6.6133   -4.6463   -1.8034 H   0  0  0  0  0  0  0  0  0  0  0  0
   -7.2046   -4.6556   -0.1218 H   0  0  0  0  0  0  0  0  0  0  0  0
   -5.6182    0.7744   -3.1143 H   0  0  0  0  0  0  0  0  0  0  0  0
   -6.9431    1.3575   -2.0487 H   0  0  0  0  0  0  0  0  0  0  0  0
   -7.2735    0.1812   -3.3185 H   0  0  0  0  0  0  0  0  0  0  0  0
    4.3218    1.1173    1.9513 H   0  0  0  0  0  0  0  0  0  0  0  0
    6.5408    2.0612    1.7264 H   0  0  0  0  0  0  0  0  0  0  0  0
  1  2  1  0
  2  3  1  0
  3  4  1  0
  4  5  2  0
  5  6  1  0
  6  7  2  0
  7  8  1  0
  8  9  1  0
  9 10  2  0
  9 11  1  0
 11 12  1  0
 12 13  1  0
 13 14  1  0
 14 15  2  0
 14 16  2  0
 14 17  1  0
 17 18  2  0
 18 19  1  0
 19 20  2  0
 20 21  1  0
 21 22  2  0
 21 23  1  0
 23 24  2  0
 23 25  1  0
 25 26  1  0
 25 27  1  0
 27 28  2  0
 27 29  1  0
 29 30  1  0
  7 31  1  0
 31 32  2  0
 32  4  1  0
 22 17  1  0
 29 20  1  0
  1 33  1  0
  1 34  1  0
  1 35  1  0
  2 36  1  0
  2 37  1  0
  5 38  1  0
  6 39  1  0
  8 40  1  0
 11 41  1  0
 11 42  1  0
 12 43  1  0
 12 44  1  0
 13 45  1  0
 18 46  1  0
 19 47  1  0
 22 48  1  0
 26 49  1  0
 26 50  1  0
 26 51  1  0
 30 52  1  0
 30 53  1  0
 30 54  1  0
 31 55  1  0
 32 56  1  0
M  END
$$$$
