
     RDKit          3D

 60 63  0  0  0  0  0  0  0  0999 V2000
   -8.3457   -2.7049    0.2215 C   0  0  0  0  0  0  0  0  0  0  0  0
   -7.1802   -1.9504   -0.3478 C   0  0  0  0  0  0  0  0  0  0  0  0
   -7.0884   -1.7362   -1.7093 C   0  0  0  0  0  0  0  0  0  0  0  0
   -5.9893   -1.0281   -2.1507 C   0  0  0  0  0  0  0  0  0  0  0  0
   -5.8106   -0.7387   -3.6099 C   0  0  0  0  0  0  0  0  0  0  0  0
   -5.0356   -0.5797   -1.3098 N   0  0  0  0  0  0  0  0  0  0  0  0
   -5.2027   -0.8432   -0.0033 C   0  0  0  0  0  0  0  0  0  0  0  0
   -3.9933   -0.2361    1.1410 S   0  0  0  0  0  0  0  0  0  0  0  0
   -2.5373   -0.2526    0.0515 C   0  0  0  0  0  0  0  0  0  0  0  0
   -1.3232    0.1821    0.8024 C   0  0  0  0  0  0  0  0  0  0  0  0
   -0.4264   -0.6159    1.3516 N   0  0  0  0  0  0  0  0  0  0  0  0
    0.5225    0.1584    1.9657 N   0  0  0  0  0  0  0  0  0  0  0  0
    0.2036    1.4136    1.7674 C   0  0  0  0  0  0  0  0  0  0  0  0
    1.0960    2.7761    2.3454 S   0  0  0  0  0  0  0  0  0  0  0  0
    2.3429    1.9645    3.3895 C   0  0  0  0  0  0  0  0  0  0  0  0
    3.5397    1.5162    2.5617 C   0  0  0  0  0  0  0  0  0  0  0  0
    4.5560    2.2081    2.5088 O   0  0  0  0  0  0  0  0  0  0  0  0
    3.3438    0.3020    1.9275 N   0  0  0  0  0  0  0  0  0  0  0  0
    4.2763   -0.4349    1.1672 C   0  0  0  0  0  0  0  0  0  0  0  0
    3.7957   -1.5498    0.4792 C   0  0  0  0  0  0  0  0  0  0  0  0
    4.6583   -2.3435   -0.2805 C   0  0  0  0  0  0  0  0  0  0  0  0
    6.0277   -2.0443   -0.3595 C   0  0  0  0  0  0  0  0  0  0  0  0
    6.9316   -2.9395   -1.1617 C   0  0  0  0  0  0  0  0  0  0  0  0
    6.5277   -0.9327    0.3472 C   0  0  0  0  0  0  0  0  0  0  0  0
    7.9896   -0.5640    0.3134 C   0  0  0  0  0  0  0  0  0  0  0  0
    5.6400   -0.1318    1.0928 C   0  0  0  0  0  0  0  0  0  0  0  0
   -0.9461    1.4917    1.0245 N   0  0  0  0  0  0  0  0  0  0  0  0
   -1.6406    2.6851    0.5851 C   0  0  0  0  0  0  0  0  0  0  0  0
   -1.2107    3.0615   -0.7836 C   0  0  0  0  0  0  0  0  0  0  0  0
   -0.0670    3.6353   -1.3020 C   0  0  0  0  0  0  0  0  0  0  0  0
   -0.2633    3.7235   -2.7018 C   0  0  0  0  0  0  0  0  0  0  0  0
   -1.5144    3.2110   -2.9485 C   0  0  0  0  0  0  0  0  0  0  0  0
   -2.0972    2.8073   -1.7899 O   0  0  0  0  0  0  0  0  0  0  0  0
   -6.2455   -1.5085    0.5167 N   0  0  0  0  0  0  0  0  0  0  0  0
   -9.2864   -2.2392   -0.0887 H   0  0  0  0  0  0  0  0  0  0  0  0
   -8.3121   -2.7093    1.3163 H   0  0  0  0  0  0  0  0  0  0  0  0
   -8.3316   -3.7424   -0.1242 H   0  0  0  0  0  0  0  0  0  0  0  0
   -7.8441   -2.0986   -2.3957 H   0  0  0  0  0  0  0  0  0  0  0  0
   -5.5911   -1.6596   -4.1519 H   0  0  0  0  0  0  0  0  0  0  0  0
   -6.7138   -0.2789   -4.0235 H   0  0  0  0  0  0  0  0  0  0  0  0
   -4.9804   -0.0441   -3.7645 H   0  0  0  0  0  0  0  0  0  0  0  0
   -2.3791   -1.2725   -0.3181 H   0  0  0  0  0  0  0  0  0  0  0  0
   -2.6977    0.3933   -0.8169 H   0  0  0  0  0  0  0  0  0  0  0  0
    2.7003    2.6910    4.1287 H   0  0  0  0  0  0  0  0  0  0  0  0
    1.9269    1.1248    3.9552 H   0  0  0  0  0  0  0  0  0  0  0  0
    2.3875   -0.0646    1.9348 H   0  0  0  0  0  0  0  0  0  0  0  0
    2.7407   -1.8136    0.5191 H   0  0  0  0  0  0  0  0  0  0  0  0
    4.2507   -3.2037   -0.8078 H   0  0  0  0  0  0  0  0  0  0  0  0
    7.5509   -3.5444   -0.4914 H   0  0  0  0  0  0  0  0  0  0  0  0
    7.5783   -2.3495   -1.8206 H   0  0  0  0  0  0  0  0  0  0  0  0
    6.3577   -3.6193   -1.8003 H   0  0  0  0  0  0  0  0  0  0  0  0
    8.6114   -1.4357    0.5423 H   0  0  0  0  0  0  0  0  0  0  0  0
    8.2590   -0.1687   -0.6719 H   0  0  0  0  0  0  0  0  0  0  0  0
    8.2290    0.2013    1.0616 H   0  0  0  0  0  0  0  0  0  0  0  0
    6.0442    0.7200    1.6311 H   0  0  0  0  0  0  0  0  0  0  0  0
   -2.7165    2.4918    0.6249 H   0  0  0  0  0  0  0  0  0  0  0  0
   -1.4477    3.4983    1.2917 H   0  0  0  0  0  0  0  0  0  0  0  0
    0.8078    3.9440   -0.7430 H   0  0  0  0  0  0  0  0  0  0  0  0
    0.4257    4.1106   -3.4404 H   0  0  0  0  0  0  0  0  0  0  0  0
   -2.1032    3.0673   -3.8438 H   0  0  0  0  0  0  0  0  0  0  0  0
  1  2  1  0
  2  3  2  0
  3  4  1  0
  4  5  1  0
  4  6  2  0
  6  7  1  0
  7  8  1  0
  8  9  1  0
  9 10  1  0
 10 11  2  0
 11 12  1  0
 12 13  2  0
 13 14  1  0
 14 15  1  0
 15 16  1  0
 16 17  2  0
 16 18  1  0
 18 19  1  0
 19 20  2  0
 20 21  1  0
 21 22  2  0
 22 23  1  0
 22 24  1  0
 24 25  1  0
 24 26  2  0
 13 27  1  0
 27 28  1  0
 28 29  1  0
 29 30  2  0
 30 31  1  0
 31 32  2  0
 32 33  1  0
  7 34  2  0
 34  2  1  0
 27 10  1  0
 33 29  1  0
 26 19  1  0
  1 35  1  0
  1 36  1  0
  1 37  1  0
  3 38  1  0
  5 39  1  0
  5 40  1  0
  5 41  1  0
  9 42  1  0
  9 43  1  0
 15 44  1  0
 15 45  1  0
 18 46  1  0
 20 47  1  0
 21 48  1  0
 23 49  1  0
 23 50  1  0
 23 51  1  0
 25 52  1  0
 25 53  1  0
 25 54  1  0
 26 55  1  0
 28 56  1  0
 28 57  1  0
 30 58  1  0
 31 59  1  0
 32 60  1  0
M  END
$$$$
