
     RDKit          3D

 38 40  0  0  0  0  0  0  0  0999 V2000
   -2.0711    2.1943   -0.6779 C   0  0  0  0  0  0  0  0  0  0  0  0
   -1.4061    0.8961   -0.2099 C   0  0  0  0  0  0  0  0  0  0  0  0
   -1.6708    0.6574    1.2969 C   0  0  0  0  0  0  0  0  0  0  0  0
   -1.6489   -0.8647    1.4680 C   0  0  0  0  0  0  0  0  0  0  0  0
   -1.3219   -1.4035    0.0679 C   0  0  0  0  0  0  0  0  0  0  0  0
    0.1978   -1.4591   -0.0399 C   0  0  0  0  0  0  0  0  0  0  0  0
    0.7441   -2.5580    0.0684 O   0  0  0  0  0  0  0  0  0  0  0  0
    0.8441   -0.2132   -0.1558 N   0  0  0  0  0  0  0  0  0  0  0  0
    2.2928   -0.1559   -0.1690 C   0  0  0  0  0  0  0  0  0  0  0  0
    3.0780   -1.2086   -0.6700 C   0  0  0  0  0  0  0  0  0  0  0  0
    4.4768   -1.1450   -0.6653 C   0  0  0  0  0  0  0  0  0  0  0  0
    5.1230   -0.0247   -0.1549 C   0  0  0  0  0  0  0  0  0  0  0  0
    4.3657    1.0270    0.3468 C   0  0  0  0  0  0  0  0  0  0  0  0
    5.1584    2.4118    0.9941 Cl  0  0  0  0  0  0  0  0  0  0  0  0
    2.9694    0.9667    0.3416 C   0  0  0  0  0  0  0  0  0  0  0  0
    0.1265    0.9799   -0.3985 C   0  0  0  0  0  0  0  0  0  0  0  0
    0.6376    2.0346   -0.7812 O   0  0  0  0  0  0  0  0  0  0  0  0
   -1.9328   -0.3830   -0.9023 C   0  0  0  0  0  0  0  0  0  0  0  0
   -3.4767   -0.4929   -0.9038 C   0  0  0  0  0  0  0  0  0  0  0  0
   -1.4826   -0.5685   -2.3636 C   0  0  0  0  0  0  0  0  0  0  0  0
   -3.1509    2.1901   -0.4985 H   0  0  0  0  0  0  0  0  0  0  0  0
   -1.6619    3.0607   -0.1450 H   0  0  0  0  0  0  0  0  0  0  0  0
   -1.9071    2.3612   -1.7479 H   0  0  0  0  0  0  0  0  0  0  0  0
   -0.9133    1.1324    1.9312 H   0  0  0  0  0  0  0  0  0  0  0  0
   -2.6460    1.0489    1.6095 H   0  0  0  0  0  0  0  0  0  0  0  0
   -2.6304   -1.2201    1.8017 H   0  0  0  0  0  0  0  0  0  0  0  0
   -0.9181   -1.1688    2.2257 H   0  0  0  0  0  0  0  0  0  0  0  0
   -1.7217   -2.4124   -0.0832 H   0  0  0  0  0  0  0  0  0  0  0  0
    2.6267   -2.0946   -1.1102 H   0  0  0  0  0  0  0  0  0  0  0  0
    5.0564   -1.9736   -1.0657 H   0  0  0  0  0  0  0  0  0  0  0  0
    6.2084    0.0220   -0.1510 H   0  0  0  0  0  0  0  0  0  0  0  0
    2.4213    1.8036    0.7674 H   0  0  0  0  0  0  0  0  0  0  0  0
   -3.7908   -1.4981   -1.2083 H   0  0  0  0  0  0  0  0  0  0  0  0
   -3.9223    0.2158   -1.6110 H   0  0  0  0  0  0  0  0  0  0  0  0
   -3.9250   -0.2959    0.0743 H   0  0  0  0  0  0  0  0  0  0  0  0
   -0.3993   -0.5242   -2.5023 H   0  0  0  0  0  0  0  0  0  0  0  0
   -1.9182    0.2042   -3.0068 H   0  0  0  0  0  0  0  0  0  0  0  0
   -1.8113   -1.5421   -2.7456 H   0  0  0  0  0  0  0  0  0  0  0  0
  1  2  1  0
  2  3  1  0
  3  4  1  0
  4  5  1  0
  5  6  1  0
  6  7  2  0
  6  8  1  0
  8  9  1  0
  9 10  2  0
 10 11  1  0
 11 12  2  0
 12 13  1  0
 13 14  1  0
 13 15  2  0
  8 16  1  0
 16 17  2  0
  5 18  1  0
 18 19  1  0
 18 20  1  0
 16  2  1  0
 18  2  1  0
 15  9  1  0
  1 21  1  0
  1 22  1  0
  1 23  1  0
  3 24  1  0
  3 25  1  0
  4 26  1  0
  4 27  1  0
  5 28  1  0
 10 29  1  0
 11 30  1  0
 12 31  1  0
 15 32  1  0
 19 33  1  0
 19 34  1  0
 19 35  1  0
 20 36  1  0
 20 37  1  0
 20 38  1  0
M  END
$$$$
