
     RDKit          3D

 53 55  0  0  0  0  0  0  0  0999 V2000
    7.1907   -0.8803    5.0206 C   0  0  0  0  0  0  0  0  0  0  0  0
    6.9754    0.2474    4.1829 O   0  0  0  0  0  0  0  0  0  0  0  0
    6.4827    0.0007    2.9317 C   0  0  0  0  0  0  0  0  0  0  0  0
    6.2964   -1.2556    2.3554 C   0  0  0  0  0  0  0  0  0  0  0  0
    5.7843   -1.3666    1.0576 C   0  0  0  0  0  0  0  0  0  0  0  0
    5.4557   -0.2228    0.3181 C   0  0  0  0  0  0  0  0  0  0  0  0
    4.8655   -0.3421   -1.0632 C   0  0  0  0  0  0  0  0  0  0  0  0
    3.4470   -0.5753   -0.9917 N   0  0  0  0  0  0  0  0  0  0  0  0
    2.5365    0.4547   -1.0011 C   0  0  0  0  0  0  0  0  0  0  0  0
    2.7668    1.6300   -1.2490 O   0  0  0  0  0  0  0  0  0  0  0  0
    1.1040    0.0047   -0.6342 C   0  0  0  0  0  0  0  0  0  0  0  0
    0.8526   -1.1811   -0.4763 O   0  0  0  0  0  0  0  0  0  0  0  0
    0.2068    1.0407   -0.5229 N   0  0  0  0  0  0  0  0  0  0  0  0
   -1.2161    0.8021   -0.3400 C   0  0  0  0  0  0  0  0  0  0  0  0
   -1.9186    0.2895   -1.6266 C   0  0  0  0  0  0  0  0  0  0  0  0
   -1.6338    1.2093   -2.7087 O   0  0  0  0  0  0  0  0  0  0  0  0
   -2.6923    2.1691   -2.6931 C   0  0  0  0  0  0  0  0  0  0  0  0
   -3.9225    1.3677   -2.3288 C   0  0  0  0  0  0  0  0  0  0  0  0
   -3.3936    0.2221   -1.5726 N   0  0  0  0  0  0  0  0  0  0  0  0
   -4.1215   -0.2052   -0.1274 S   0  0  0  0  0  6  0  0  0  0  0  0
   -3.5072   -1.4240    0.3458 O   0  0  0  0  0  0  0  0  0  0  0  0
   -4.1615    0.9862    0.6940 O   0  0  0  0  0  0  0  0  0  0  0  0
   -5.7761   -0.6013   -0.6295 C   0  0  0  0  0  0  0  0  0  0  0  0
   -5.9832   -1.7008   -1.4696 C   0  0  0  0  0  0  0  0  0  0  0  0
   -7.2790   -2.0187   -1.8736 C   0  0  0  0  0  0  0  0  0  0  0  0
   -8.3562   -1.2449   -1.4355 C   0  0  0  0  0  0  0  0  0  0  0  0
   -8.1439   -0.1536   -0.5899 C   0  0  0  0  0  0  0  0  0  0  0  0
   -6.8508    0.1721   -0.1814 C   0  0  0  0  0  0  0  0  0  0  0  0
    5.6368    1.0355    0.9058 C   0  0  0  0  0  0  0  0  0  0  0  0
    6.1535    1.1424    2.1985 C   0  0  0  0  0  0  0  0  0  0  0  0
    7.5446   -0.5136    5.9889 H   0  0  0  0  0  0  0  0  0  0  0  0
    6.2570   -1.4271    5.1919 H   0  0  0  0  0  0  0  0  0  0  0  0
    7.9661   -1.5364    4.6105 H   0  0  0  0  0  0  0  0  0  0  0  0
    6.5391   -2.1700    2.8867 H   0  0  0  0  0  0  0  0  0  0  0  0
    5.6402   -2.3565    0.6284 H   0  0  0  0  0  0  0  0  0  0  0  0
    5.3163   -1.1874   -1.5939 H   0  0  0  0  0  0  0  0  0  0  0  0
    5.0708    0.5605   -1.6500 H   0  0  0  0  0  0  0  0  0  0  0  0
    3.1049   -1.4624   -0.6356 H   0  0  0  0  0  0  0  0  0  0  0  0
    0.5304    1.9466   -0.8540 H   0  0  0  0  0  0  0  0  0  0  0  0
   -1.6376    1.7590   -0.0164 H   0  0  0  0  0  0  0  0  0  0  0  0
   -1.3296    0.0819    0.4776 H   0  0  0  0  0  0  0  0  0  0  0  0
   -1.5174   -0.6862   -1.9202 H   0  0  0  0  0  0  0  0  0  0  0  0
   -2.7764    2.6541   -3.6702 H   0  0  0  0  0  0  0  0  0  0  0  0
   -2.4682    2.9324   -1.9403 H   0  0  0  0  0  0  0  0  0  0  0  0
   -4.4112    0.9811   -3.2298 H   0  0  0  0  0  0  0  0  0  0  0  0
   -4.6439    1.9773   -1.7794 H   0  0  0  0  0  0  0  0  0  0  0  0
   -5.1438   -2.3069   -1.8049 H   0  0  0  0  0  0  0  0  0  0  0  0
   -7.4511   -2.8722   -2.5257 H   0  0  0  0  0  0  0  0  0  0  0  0
   -9.3665   -1.4982   -1.7483 H   0  0  0  0  0  0  0  0  0  0  0  0
   -8.9887    0.4387   -0.2454 H   0  0  0  0  0  0  0  0  0  0  0  0
   -6.6936    1.0178    0.4839 H   0  0  0  0  0  0  0  0  0  0  0  0
    5.3687    1.9404    0.3631 H   0  0  0  0  0  0  0  0  0  0  0  0
    6.2919    2.1252    2.6417 H   0  0  0  0  0  0  0  0  0  0  0  0
  1  2  1  0
  2  3  1  0
  3  4  2  0
  4  5  1  0
  5  6  2  0
  6  7  1  0
  7  8  1  0
  8  9  1  0
  9 10  2  0
  9 11  1  0
 11 12  2  0
 11 13  1  0
 13 14  1  0
 14 15  1  0
 15 16  1  0
 16 17  1  0
 17 18  1  0
 18 19  1  0
 19 20  1  0
 20 21  2  0
 20 22  2  0
 20 23  1  0
 23 24  2  0
 24 25  1  0
 25 26  2  0
 26 27  1  0
 27 28  2  0
  6 29  1  0
 29 30  2  0
 30  3  1  0
 19 15  1  0
 28 23  1  0
  1 31  1  0
  1 32  1  0
  1 33  1  0
  4 34  1  0
  5 35  1  0
  7 36  1  0
  7 37  1  0
  8 38  1  0
 13 39  1  0
 14 40  1  0
 14 41  1  0
 15 42  1  0
 17 43  1  0
 17 44  1  0
 18 45  1  0
 18 46  1  0
 24 47  1  0
 25 48  1  0
 26 49  1  0
 27 50  1  0
 28 51  1  0
 29 52  1  0
 30 53  1  0
M  END
$$$$
