
     RDKit          3D

 52 55  0  0  0  0  0  0  0  0999 V2000
   -4.4891    4.0137    1.0220 C   0  0  0  0  0  0  0  0  0  0  0  0
   -4.6173    3.1439   -0.2209 C   0  0  0  0  0  0  0  0  0  0  0  0
   -5.2450    1.7840    0.0836 C   0  0  0  0  0  0  0  0  0  0  0  0
   -4.4871    1.0532    1.0466 O   0  0  0  0  0  0  0  0  0  0  0  0
   -3.4645    0.2557    0.6175 C   0  0  0  0  0  0  0  0  0  0  0  0
   -2.8511   -0.4893    1.6282 C   0  0  0  0  0  0  0  0  0  0  0  0
   -1.7881   -1.3491    1.3403 C   0  0  0  0  0  0  0  0  0  0  0  0
   -1.3269   -1.4749    0.0274 C   0  0  0  0  0  0  0  0  0  0  0  0
   -0.2165   -2.3658   -0.2800 C   0  0  0  0  0  0  0  0  0  0  0  0
    1.1499   -2.1184   -0.2849 C   0  0  0  0  0  0  0  0  0  0  0  0
    1.8550   -0.8715    0.0104 C   0  0  0  0  0  0  0  0  0  0  0  0
    1.2652    0.1757    0.2551 O   0  0  0  0  0  0  0  0  0  0  0  0
    3.2380   -1.0301   -0.0411 N   0  0  0  0  0  0  0  0  0  0  0  0
    4.1847   -0.0397    0.0319 N   0  0  0  0  0  0  0  0  0  0  0  0
    3.9332    1.0103    0.7482 C   0  0  0  0  0  0  0  0  0  0  0  0
    4.8883    2.1355    0.8348 C   0  0  0  0  0  0  0  0  0  0  0  0
    6.1097    2.0989    0.1557 C   0  0  0  0  0  0  0  0  0  0  0  0
    6.9922    3.1754    0.2577 C   0  0  0  0  0  0  0  0  0  0  0  0
    6.6542    4.2843    1.0341 C   0  0  0  0  0  0  0  0  0  0  0  0
    5.4340    4.3210    1.7103 C   0  0  0  0  0  0  0  0  0  0  0  0
    4.5480    3.2466    1.6124 C   0  0  0  0  0  0  0  0  0  0  0  0
    1.8171   -3.2659   -0.6276 N   0  0  0  0  0  0  0  0  0  0  0  0
    0.9267   -4.2163   -0.8431 N   0  0  0  0  0  0  0  0  0  0  0  0
   -0.3281   -3.7098   -0.6472 N   0  0  0  0  0  0  0  0  0  0  0  0
   -1.4828   -4.5180   -0.8064 C   0  0  0  0  0  0  0  0  0  0  0  0
   -2.7041   -4.0380   -0.5717 N   0  0  0  0  0  0  0  0  0  0  0  0
   -3.5488   -5.1181   -0.8172 O   0  0  0  0  0  0  0  0  0  0  0  0
   -2.8286   -6.2454   -1.1981 N   0  0  0  0  0  0  0  0  0  0  0  0
   -1.5507   -5.8685   -1.1983 C   0  0  0  0  0  0  0  0  0  0  0  0
   -0.5233   -6.6745   -1.5270 N   0  0  0  0  0  0  0  0  0  0  0  0
   -1.9299   -0.7205   -0.9843 C   0  0  0  0  0  0  0  0  0  0  0  0
   -2.9951    0.1398   -0.6902 C   0  0  0  0  0  0  0  0  0  0  0  0
   -5.4662    4.1787    1.4871 H   0  0  0  0  0  0  0  0  0  0  0  0
   -4.0707    4.9899    0.7570 H   0  0  0  0  0  0  0  0  0  0  0  0
   -3.8276    3.5543    1.7631 H   0  0  0  0  0  0  0  0  0  0  0  0
   -5.2319    3.6646   -0.9637 H   0  0  0  0  0  0  0  0  0  0  0  0
   -3.6195    3.0152   -0.6533 H   0  0  0  0  0  0  0  0  0  0  0  0
   -6.2350    1.9443    0.5273 H   0  0  0  0  0  0  0  0  0  0  0  0
   -5.4248    1.2023   -0.8277 H   0  0  0  0  0  0  0  0  0  0  0  0
   -3.2057   -0.3982    2.6520 H   0  0  0  0  0  0  0  0  0  0  0  0
   -1.3309   -1.9124    2.1494 H   0  0  0  0  0  0  0  0  0  0  0  0
    3.5811   -1.9021   -0.4389 H   0  0  0  0  0  0  0  0  0  0  0  0
    3.0198    1.1182    1.3560 H   0  0  0  0  0  0  0  0  0  0  0  0
    6.3783    1.2385   -0.4521 H   0  0  0  0  0  0  0  0  0  0  0  0
    7.9425    3.1491   -0.2696 H   0  0  0  0  0  0  0  0  0  0  0  0
    7.3428    5.1224    1.1110 H   0  0  0  0  0  0  0  0  0  0  0  0
    5.1728    5.1878    2.3123 H   0  0  0  0  0  0  0  0  0  0  0  0
    3.5985    3.2878    2.1400 H   0  0  0  0  0  0  0  0  0  0  0  0
    0.4412   -6.4116   -1.3322 H   0  0  0  0  0  0  0  0  0  0  0  0
   -0.6834   -7.6740   -1.5966 H   0  0  0  0  0  0  0  0  0  0  0  0
   -1.5764   -0.7885   -2.0105 H   0  0  0  0  0  0  0  0  0  0  0  0
   -3.4240    0.7090   -1.5071 H   0  0  0  0  0  0  0  0  0  0  0  0
  1  2  1  0
  2  3  1  0
  3  4  1  0
  4  5  1  0
  5  6  2  0
  6  7  1  0
  7  8  2  0
  8  9  1  0
  9 10  2  0
 10 11  1  0
 11 12  2  0
 11 13  1  0
 13 14  1  0
 14 15  2  3
 15 16  1  0
 16 17  2  0
 17 18  1  0
 18 19  2  0
 19 20  1  0
 20 21  2  0
 10 22  1  0
 22 23  2  0
 23 24  1  0
 24 25  1  0
 25 26  2  0
 26 27  1  0
 27 28  1  0
 28 29  2  0
 29 30  1  0
  8 31  1  0
 31 32  2  0
 32  5  1  0
 24  9  1  0
 29 25  1  0
 21 16  1  0
  1 33  1  0
  1 34  1  0
  1 35  1  0
  2 36  1  0
  2 37  1  0
  3 38  1  0
  3 39  1  0
  6 40  1  0
  7 41  1  0
 13 42  1  0
 15 43  1  0
 17 44  1  0
 18 45  1  0
 19 46  1  0
 20 47  1  0
 21 48  1  0
 30 49  1  0
 30 50  1  0
 31 51  1  0
 32 52  1  0
M  END
$$$$
