
     RDKit          3D

 57 62  0  0  0  0  0  0  0  0999 V2000
    4.8553   -2.3972   -3.0724 C   0  0  0  0  0  0  0  0  0  0  0  0
    3.5777   -1.9764   -2.6124 O   0  0  0  0  0  0  0  0  0  0  0  0
    3.4363   -1.7669   -1.2673 C   0  0  0  0  0  0  0  0  0  0  0  0
    4.4444   -1.9406   -0.2993 C   0  0  0  0  0  0  0  0  0  0  0  0
    4.1901   -1.7009    1.0570 C   0  0  0  0  0  0  0  0  0  0  0  0
    2.9233   -1.2858    1.4044 C   0  0  0  0  0  0  0  0  0  0  0  0
    1.9113   -1.0996    0.4604 C   0  0  0  0  0  0  0  0  0  0  0  0
    2.1576   -1.3455   -0.8816 C   0  0  0  0  0  0  0  0  0  0  0  0
    0.6701   -0.6425    1.1633 C   0  0  0  0  0  0  0  0  0  0  0  0
   -0.5334   -1.4908    0.9264 N   0  0  0  0  0  0  0  0  0  0  0  0
   -1.7231   -0.6007    0.6927 C   0  0  2  0  0  0  0  0  0  0  0  0
   -2.5986   -1.1448   -0.4458 C   0  0  0  0  0  0  0  0  0  0  0  0
   -3.3628   -2.3892   -0.0545 C   0  0  0  0  0  0  0  0  0  0  0  0
   -4.6013   -2.2910    0.5945 C   0  0  0  0  0  0  0  0  0  0  0  0
   -5.2948   -3.4427    0.9701 C   0  0  0  0  0  0  0  0  0  0  0  0
   -4.7567   -4.7005    0.7043 C   0  0  0  0  0  0  0  0  0  0  0  0
   -3.5240   -4.8087    0.0636 C   0  0  0  0  0  0  0  0  0  0  0  0
   -2.8291   -3.6588   -0.3131 C   0  0  0  0  0  0  0  0  0  0  0  0
   -1.0907    0.7072    0.3922 C   0  0  0  0  0  0  0  0  0  0  0  0
    0.2753    0.6838    0.6611 C   0  0  0  0  0  0  0  0  0  0  0  0
    0.8060    1.9140    0.3660 C   0  0  0  0  0  0  0  0  0  0  0  0
    2.0742    2.3190    0.3935 O   0  0  0  0  0  0  0  0  0  0  0  0
   -0.2554    2.7416   -0.0654 N   0  0  0  0  0  0  0  0  0  0  0  0
   -0.1538    4.1186   -0.4710 C   0  0  0  0  0  0  0  0  0  0  0  0
    0.9011    4.9260   -0.0203 C   0  0  0  0  0  0  0  0  0  0  0  0
    0.9978    6.2646   -0.4160 C   0  0  0  0  0  0  0  0  0  0  0  0
    0.0447    6.8141   -1.2678 C   0  0  0  0  0  0  0  0  0  0  0  0
   -1.0069    6.0257   -1.7242 C   0  0  0  0  0  0  0  0  0  0  0  0
   -1.1072    4.6874   -1.3286 C   0  0  0  0  0  0  0  0  0  0  0  0
   -1.4371    1.9667   -0.0224 C   0  0  0  0  0  0  0  0  0  0  0  0
   -2.6403    2.4691   -0.2898 O   0  0  0  0  0  0  0  0  0  0  0  0
    1.1057   -0.6441    2.6569 C   0  0  0  0  0  0  0  0  0  0  0  0
    0.4206   -0.4195    3.6432 O   0  0  0  0  0  0  0  0  0  0  0  0
    2.4551   -1.0044    2.6810 N   0  0  0  0  0  0  0  0  0  0  0  0
    4.7981   -2.5127   -4.1590 H   0  0  0  0  0  0  0  0  0  0  0  0
    5.6201   -1.6436   -2.8575 H   0  0  0  0  0  0  0  0  0  0  0  0
    5.1268   -3.3694   -2.6481 H   0  0  0  0  0  0  0  0  0  0  0  0
    5.4413   -2.2693   -0.5765 H   0  0  0  0  0  0  0  0  0  0  0  0
    4.9679   -1.8441    1.7988 H   0  0  0  0  0  0  0  0  0  0  0  0
    1.3733   -1.2125   -1.6218 H   0  0  0  0  0  0  0  0  0  0  0  0
   -0.7166   -2.0428    1.7640 H   0  0  0  0  0  0  0  0  0  0  0  0
   -2.2937   -0.5141    1.6265 H   0  0  0  0  0  0  0  0  0  0  0  0
   -3.3235   -0.3841   -0.7638 H   0  0  0  0  0  0  0  0  0  0  0  0
   -1.9929   -1.3476   -1.3402 H   0  0  0  0  0  0  0  0  0  0  0  0
   -5.0365   -1.3185    0.8113 H   0  0  0  0  0  0  0  0  0  0  0  0
   -6.2559   -3.3590    1.4709 H   0  0  0  0  0  0  0  0  0  0  0  0
   -5.2974   -5.5965    0.9971 H   0  0  0  0  0  0  0  0  0  0  0  0
   -3.1016   -5.7887   -0.1419 H   0  0  0  0  0  0  0  0  0  0  0  0
   -1.8632   -3.7565   -0.8053 H   0  0  0  0  0  0  0  0  0  0  0  0
    2.6391    1.5418    0.5473 H   0  0  0  0  0  0  0  0  0  0  0  0
    1.6488    4.5538    0.6730 H   0  0  0  0  0  0  0  0  0  0  0  0
    1.8179    6.8766   -0.0500 H   0  0  0  0  0  0  0  0  0  0  0  0
    0.1212    7.8534   -1.5748 H   0  0  0  0  0  0  0  0  0  0  0  0
   -1.7511    6.4466   -2.3951 H   0  0  0  0  0  0  0  0  0  0  0  0
   -1.9255    4.1040   -1.7390 H   0  0  0  0  0  0  0  0  0  0  0  0
   -3.3057    1.7948   -0.0742 H   0  0  0  0  0  0  0  0  0  0  0  0
    2.9777   -1.0991    3.5393 H   0  0  0  0  0  0  0  0  0  0  0  0
  1  2  1  0
  2  3  1  0
  3  4  2  0
  4  5  1  0
  5  6  2  0
  6  7  1  0
  7  8  2  0
  7  9  1  0
  9 10  1  0
 10 11  1  0
 11 12  1  0
 12 13  1  0
 13 14  2  0
 14 15  1  0
 15 16  2  0
 16 17  1  0
 17 18  2  0
 11 19  1  0
 19 20  1  0
 20 21  2  0
 21 22  1  0
 21 23  1  0
 23 24  1  0
 24 25  2  0
 25 26  1  0
 26 27  2  0
 27 28  1  0
 28 29  2  0
 23 30  1  0
 30 31  1  0
  9 32  1  0
 32 33  2  0
 32 34  1  0
  8  3  1  0
 20  9  1  0
 29 24  1  0
 34  6  1  0
 18 13  1  0
 30 19  2  0
  1 35  1  0
  1 36  1  0
  1 37  1  0
  4 38  1  0
  5 39  1  0
  8 40  1  0
 10 41  1  0
 11 42  1  1
 12 43  1  0
 12 44  1  0
 14 45  1  0
 15 46  1  0
 16 47  1  0
 17 48  1  0
 18 49  1  0
 22 50  1  0
 25 51  1  0
 26 52  1  0
 27 53  1  0
 28 54  1  0
 29 55  1  0
 31 56  1  0
 34 57  1  0
M  END
$$$$
