
     RDKit          3D

 63 67  0  0  0  0  0  0  0  0999 V2000
    3.7407    5.4694   -3.6147 C   0  0  0  0  0  0  0  0  0  0  0  0
    3.1618    4.3452   -4.2643 O   0  0  0  0  0  0  0  0  0  0  0  0
    3.2747    3.1389   -3.6299 C   0  0  0  0  0  0  0  0  0  0  0  0
    2.7288    2.0592   -4.3286 C   0  0  0  0  0  0  0  0  0  0  0  0
    2.7749    0.7682   -3.7963 C   0  0  0  0  0  0  0  0  0  0  0  0
    3.3701    0.5435   -2.5514 C   0  0  0  0  0  0  0  0  0  0  0  0
    3.4067   -0.8022   -1.9793 C   0  0  0  0  0  0  0  0  0  0  0  0
    4.7185   -1.8205   -2.3782 S   0  0  0  0  0  0  0  0  0  0  0  0
    4.1229   -3.1117   -1.4124 C   0  0  0  0  0  0  0  0  0  0  0  0
    4.7162   -4.3745   -1.2320 C   0  0  0  0  0  0  0  0  0  0  0  0
    4.0808   -5.3056   -0.4063 C   0  0  0  0  0  0  0  0  0  0  0  0
    2.8824   -5.0046    0.2305 C   0  0  0  0  0  0  0  0  0  0  0  0
    2.3768   -6.0140    1.0035 O   0  0  0  0  0  0  0  0  0  0  0  0
    1.1298   -5.7720    1.6435 C   0  0  0  0  0  0  0  0  0  0  0  0
    2.3033   -3.7458    0.0467 C   0  0  0  0  0  0  0  0  0  0  0  0
    2.9229   -2.7719   -0.7854 C   0  0  0  0  0  0  0  0  0  0  0  0
    2.5186   -1.4255   -1.1205 C   0  0  0  0  0  0  0  0  0  0  0  0
    1.3233   -0.7490   -0.6371 C   0  0  0  0  0  0  0  0  0  0  0  0
    0.1509   -0.7649   -1.3956 C   0  0  0  0  0  0  0  0  0  0  0  0
   -0.9942   -0.1240   -0.9177 C   0  0  0  0  0  0  0  0  0  0  0  0
   -0.9821    0.5337    0.3157 C   0  0  0  0  0  0  0  0  0  0  0  0
   -2.1692    1.1174    0.6606 O   0  0  0  0  0  0  0  0  0  0  0  0
   -2.2123    1.8279    1.9001 C   0  0  0  0  0  0  0  0  0  0  0  0
   -3.6220    2.4133    2.1184 C   0  0  0  0  0  0  0  0  0  0  0  0
   -4.5796    1.4558    2.6962 N   0  0  0  0  0  0  0  0  0  0  0  0
   -5.8138    2.1055    3.1494 C   0  0  0  0  0  0  0  0  0  0  0  0
   -6.7464    1.0831    3.8277 C   0  0  0  0  0  0  0  0  0  0  0  0
   -6.9168   -0.1523    3.1185 O   0  0  0  0  0  0  0  0  0  0  0  0
   -6.3680   -0.1103    1.8029 C   0  0  0  0  0  0  0  0  0  0  0  0
   -4.8885    0.3244    1.7970 C   0  0  0  0  0  0  0  0  0  0  0  0
    0.1896    0.5443    1.0738 C   0  0  0  0  0  0  0  0  0  0  0  0
    1.3392   -0.0976    0.6000 C   0  0  0  0  0  0  0  0  0  0  0  0
    3.9138    1.6255   -1.8497 C   0  0  0  0  0  0  0  0  0  0  0  0
    3.8678    2.9175   -2.3867 C   0  0  0  0  0  0  0  0  0  0  0  0
    4.8210    5.3416   -3.4930 H   0  0  0  0  0  0  0  0  0  0  0  0
    3.2543    5.6642   -2.6537 H   0  0  0  0  0  0  0  0  0  0  0  0
    3.5792    6.3438   -4.2522 H   0  0  0  0  0  0  0  0  0  0  0  0
    2.2633    2.2248   -5.2971 H   0  0  0  0  0  0  0  0  0  0  0  0
    2.3428   -0.0567   -4.3574 H   0  0  0  0  0  0  0  0  0  0  0  0
    5.6508   -4.6253   -1.7252 H   0  0  0  0  0  0  0  0  0  0  0  0
    4.5331   -6.2845   -0.2624 H   0  0  0  0  0  0  0  0  0  0  0  0
    0.3390   -5.5842    0.9098 H   0  0  0  0  0  0  0  0  0  0  0  0
    1.2082   -4.9493    2.3616 H   0  0  0  0  0  0  0  0  0  0  0  0
    0.8597   -6.6746    2.1998 H   0  0  0  0  0  0  0  0  0  0  0  0
    1.3699   -3.4770    0.5295 H   0  0  0  0  0  0  0  0  0  0  0  0
    0.1207   -1.2708   -2.3572 H   0  0  0  0  0  0  0  0  0  0  0  0
   -1.9036   -0.1355   -1.5132 H   0  0  0  0  0  0  0  0  0  0  0  0
   -1.5013    2.6625    1.8562 H   0  0  0  0  0  0  0  0  0  0  0  0
   -1.9488    1.1703    2.7380 H   0  0  0  0  0  0  0  0  0  0  0  0
   -4.0123    2.8287    1.1807 H   0  0  0  0  0  0  0  0  0  0  0  0
   -3.5085    3.2435    2.8270 H   0  0  0  0  0  0  0  0  0  0  0  0
   -5.5923    2.9001    3.8713 H   0  0  0  0  0  0  0  0  0  0  0  0
   -6.3296    2.5738    2.3013 H   0  0  0  0  0  0  0  0  0  0  0  0
   -7.7379    1.5260    3.9699 H   0  0  0  0  0  0  0  0  0  0  0  0
   -6.3609    0.8267    4.8209 H   0  0  0  0  0  0  0  0  0  0  0  0
   -6.9767    0.5660    1.1908 H   0  0  0  0  0  0  0  0  0  0  0  0
   -6.4607   -1.1104    1.3675 H   0  0  0  0  0  0  0  0  0  0  0  0
   -4.2716   -0.5218    2.1207 H   0  0  0  0  0  0  0  0  0  0  0  0
   -4.6283    0.5416    0.7547 H   0  0  0  0  0  0  0  0  0  0  0  0
    0.2447    1.0401    2.0371 H   0  0  0  0  0  0  0  0  0  0  0  0
    2.2456   -0.0839    1.2010 H   0  0  0  0  0  0  0  0  0  0  0  0
    4.3770    1.4686   -0.8783 H   0  0  0  0  0  0  0  0  0  0  0  0
    4.3018    3.7250   -1.8072 H   0  0  0  0  0  0  0  0  0  0  0  0
  1  2  1  0
  2  3  1  0
  3  4  2  0
  4  5  1  0
  5  6  2  0
  6  7  1  0
  7  8  1  0
  8  9  1  0
  9 10  2  0
 10 11  1  0
 11 12  2  0
 12 13  1  0
 13 14  1  0
 12 15  1  0
 15 16  2  0
 16 17  1  0
 17 18  1  0
 18 19  2  0
 19 20  1  0
 20 21  2  0
 21 22  1  0
 22 23  1  0
 23 24  1  0
 24 25  1  0
 25 26  1  0
 26 27  1  0
 27 28  1  0
 28 29  1  0
 29 30  1  0
 21 31  1  0
 31 32  2  0
  6 33  1  0
 33 34  2  0
 34  3  1  0
 17  7  2  0
 32 18  1  0
 16  9  1  0
 30 25  1  0
  1 35  1  0
  1 36  1  0
  1 37  1  0
  4 38  1  0
  5 39  1  0
 10 40  1  0
 11 41  1  0
 14 42  1  0
 14 43  1  0
 14 44  1  0
 15 45  1  0
 19 46  1  0
 20 47  1  0
 23 48  1  0
 23 49  1  0
 24 50  1  0
 24 51  1  0
 26 52  1  0
 26 53  1  0
 27 54  1  0
 27 55  1  0
 29 56  1  0
 29 57  1  0
 30 58  1  0
 30 59  1  0
 31 60  1  0
 32 61  1  0
 33 62  1  0
 34 63  1  0
M  END
$$$$
