
     RDKit          3D

 34 36  0  0  0  0  0  0  0  0999 V2000
    4.7579    1.9620   -0.3640 C   0  0  0  0  0  0  0  0  0  0  0  0
    4.5487    0.5862    0.0336 N   0  0  0  0  0  0  0  0  0  0  0  0
    5.6202   -0.2318    0.1140 N   0  0  0  0  0  0  0  0  0  0  0  0
    5.0977   -1.3953    0.4984 C   0  0  0  0  0  0  0  0  0  0  0  0
    3.7027   -1.3279    0.6499 C   0  0  0  0  0  0  0  0  0  0  0  0
    2.7386   -2.6230    1.1697 Cl  0  0  0  0  0  0  0  0  0  0  0  0
    3.3481   -0.0301    0.3241 C   0  0  0  0  0  0  0  0  0  0  0  0
    2.0660    0.6506    0.2952 C   0  0  0  0  0  0  0  0  0  0  0  0
    2.0106    1.8734    0.3614 O   0  0  0  0  0  0  0  0  0  0  0  0
    0.9810   -0.1928    0.1503 N   0  0  0  0  0  0  0  0  0  0  0  0
   -0.3660    0.1475    0.1045 C   0  0  0  0  0  0  0  0  0  0  0  0
   -0.8891    1.7539    0.3960 S   0  0  0  0  0  0  0  0  0  0  0  0
   -2.4772    1.3154    0.1627 C   0  0  0  0  0  0  0  0  0  0  0  0
   -2.6571   -0.0105   -0.1172 C   0  0  0  0  0  0  0  0  0  0  0  0
   -1.4265   -0.7340   -0.1434 C   0  0  0  0  0  0  0  0  0  0  0  0
   -1.2108   -2.1538   -0.4090 C   0  0  0  0  0  0  0  0  0  0  0  0
   -2.3046   -2.9663   -0.3365 N   0  0  0  0  0  0  0  0  0  0  0  0
   -0.1049   -2.6301   -0.6500 O   0  0  0  0  0  0  0  0  0  0  0  0
   -4.1001   -0.2998   -0.3365 C   0  0  0  0  0  0  0  0  0  0  0  0
   -4.7144    1.1259   -0.4924 C   0  0  0  0  0  0  0  0  0  0  0  0
   -3.7234    2.1146    0.1885 C   0  0  0  0  0  0  0  0  0  0  0  0
    4.1015    2.1882   -1.2076 H   0  0  0  0  0  0  0  0  0  0  0  0
    5.7989    2.0955   -0.6716 H   0  0  0  0  0  0  0  0  0  0  0  0
    4.5435    2.6047    0.4929 H   0  0  0  0  0  0  0  0  0  0  0  0
    5.7549   -2.2403    0.6577 H   0  0  0  0  0  0  0  0  0  0  0  0
    1.1694   -1.1820   -0.0101 H   0  0  0  0  0  0  0  0  0  0  0  0
   -3.1466   -2.6696    0.1310 H   0  0  0  0  0  0  0  0  0  0  0  0
   -2.1189   -3.9594   -0.3819 H   0  0  0  0  0  0  0  0  0  0  0  0
   -4.2822   -0.9033   -1.2299 H   0  0  0  0  0  0  0  0  0  0  0  0
   -4.5269   -0.8018    0.5382 H   0  0  0  0  0  0  0  0  0  0  0  0
   -4.7834    1.3686   -1.5612 H   0  0  0  0  0  0  0  0  0  0  0  0
   -5.7236    1.1924   -0.0745 H   0  0  0  0  0  0  0  0  0  0  0  0
   -4.0322    2.3210    1.2184 H   0  0  0  0  0  0  0  0  0  0  0  0
   -3.6517    3.0519   -0.3697 H   0  0  0  0  0  0  0  0  0  0  0  0
  1  2  1  0
  2  3  1  0
  3  4  2  0
  4  5  1  0
  5  6  1  0
  5  7  2  0
  7  8  1  0
  8  9  2  0
  8 10  1  0
 10 11  1  0
 11 12  1  0
 12 13  1  0
 13 14  2  0
 14 15  1  0
 15 16  1  0
 16 17  1  0
 16 18  2  0
 14 19  1  0
 19 20  1  0
 20 21  1  0
  7  2  1  0
 15 11  2  0
 21 13  1  0
  1 22  1  0
  1 23  1  0
  1 24  1  0
  4 25  1  0
 10 26  1  0
 17 27  1  0
 17 28  1  0
 19 29  1  0
 19 30  1  0
 20 31  1  0
 20 32  1  0
 21 33  1  0
 21 34  1  0
M  END
$$$$
