
     RDKit          3D

 40 41  0  0  0  0  0  0  0  0999 V2000
   -1.6595    0.0315   -4.7431 C   0  0  0  0  0  0  0  0  0  0  0  0
   -1.5641   -1.4735   -4.5555 C   0  0  0  0  0  0  0  0  0  0  0  0
   -1.1400   -1.7981   -3.2308 O   0  0  0  0  0  0  0  0  0  0  0  0
   -2.1353   -1.8375   -2.2765 C   0  0  0  0  0  0  0  0  0  0  0  0
   -3.4241   -1.6923   -2.6751 N   0  0  0  0  0  0  0  0  0  0  0  0
   -4.3827   -1.8016   -1.7283 C   0  0  0  0  0  0  0  0  0  0  0  0
   -4.1220   -2.0593   -0.3932 C   0  0  0  0  0  0  0  0  0  0  0  0
   -2.7955   -2.2045   -0.0010 C   0  0  0  0  0  0  0  0  0  0  0  0
   -1.7791   -2.0777   -0.9537 C   0  0  0  0  0  0  0  0  0  0  0  0
   -0.3860   -2.2352   -0.5102 C   0  0  0  0  0  0  0  0  0  0  0  0
   -0.0399   -3.0849    0.2955 O   0  0  0  0  0  0  0  0  0  0  0  0
    0.3825   -1.2556   -1.0382 O   0  0  0  0  0  0  0  0  0  0  0  0
    1.7512   -1.2496   -0.6210 C   0  0  0  0  0  0  0  0  0  0  0  0
    1.9238   -0.2661    0.5085 C   0  0  0  0  0  0  0  0  0  0  0  0
    2.0197    1.1074    0.2462 C   0  0  0  0  0  0  0  0  0  0  0  0
    2.1570    2.0232    1.2938 C   0  0  0  0  0  0  0  0  0  0  0  0
    2.1913    1.5761    2.6210 C   0  0  0  0  0  0  0  0  0  0  0  0
    2.3327    2.5059    3.7748 C   0  0  0  0  0  0  0  0  0  0  0  0
    2.3504    2.1392    4.9395 O   0  0  0  0  0  0  0  0  0  0  0  0
    2.4374    3.7893    3.3471 O   0  0  0  0  0  0  0  0  0  0  0  0
    2.5783    4.7416    4.4020 C   0  0  0  0  0  0  0  0  0  0  0  0
    2.0825    0.2049    2.8859 C   0  0  0  0  0  0  0  0  0  0  0  0
    1.9460   -0.7086    1.8375 C   0  0  0  0  0  0  0  0  0  0  0  0
   -0.7138    0.5124   -4.4717 H   0  0  0  0  0  0  0  0  0  0  0  0
   -2.4327    0.4657   -4.1021 H   0  0  0  0  0  0  0  0  0  0  0  0
   -1.8937    0.2767   -5.7830 H   0  0  0  0  0  0  0  0  0  0  0  0
   -2.4886   -1.9878   -4.8436 H   0  0  0  0  0  0  0  0  0  0  0  0
   -0.7875   -1.8555   -5.2281 H   0  0  0  0  0  0  0  0  0  0  0  0
   -5.4017   -1.6784   -2.0855 H   0  0  0  0  0  0  0  0  0  0  0  0
   -4.9310   -2.1462    0.3240 H   0  0  0  0  0  0  0  0  0  0  0  0
   -2.5522   -2.4113    1.0387 H   0  0  0  0  0  0  0  0  0  0  0  0
    2.3564   -0.9342   -1.4790 H   0  0  0  0  0  0  0  0  0  0  0  0
    2.1135   -2.2485   -0.3480 H   0  0  0  0  0  0  0  0  0  0  0  0
    1.9818    1.4720   -0.7787 H   0  0  0  0  0  0  0  0  0  0  0  0
    2.2307    3.0820    1.0582 H   0  0  0  0  0  0  0  0  0  0  0  0
    1.7003    4.7231    5.0553 H   0  0  0  0  0  0  0  0  0  0  0  0
    3.4919    4.5490    4.9732 H   0  0  0  0  0  0  0  0  0  0  0  0
    2.6543    5.7357    3.9528 H   0  0  0  0  0  0  0  0  0  0  0  0
    2.0990   -0.1594    3.9116 H   0  0  0  0  0  0  0  0  0  0  0  0
    1.8484   -1.7697    2.0643 H   0  0  0  0  0  0  0  0  0  0  0  0
  1  2  1  0
  2  3  1  0
  3  4  1  0
  4  5  2  0
  5  6  1  0
  6  7  2  0
  7  8  1  0
  8  9  2  0
  9 10  1  0
 10 11  2  0
 10 12  1  0
 12 13  1  0
 13 14  1  0
 14 15  2  0
 15 16  1  0
 16 17  2  0
 17 18  1  0
 18 19  2  0
 18 20  1  0
 20 21  1  0
 17 22  1  0
 22 23  2  0
  9  4  1  0
 23 14  1  0
  1 24  1  0
  1 25  1  0
  1 26  1  0
  2 27  1  0
  2 28  1  0
  6 29  1  0
  7 30  1  0
  8 31  1  0
 13 32  1  0
 13 33  1  0
 15 34  1  0
 16 35  1  0
 21 36  1  0
 21 37  1  0
 21 38  1  0
 22 39  1  0
 23 40  1  0
M  END
$$$$
