
     RDKit          3D

 29 30  0  0  0  0  0  0  0  0999 V2000
    2.4202    1.8429    2.6673 O   0  0  0  0  0  0  0  0  0  0  0  0
    3.2816    1.5107    1.8627 C   0  0  0  0  0  0  0  0  0  0  0  0
    2.9818    0.6253    0.7203 C   0  0  0  0  0  0  0  0  0  0  0  0
    3.9813    0.3546   -0.2188 C   0  0  0  0  0  0  0  0  0  0  0  0
    3.7024   -0.4839   -1.2988 C   0  0  0  0  0  0  0  0  0  0  0  0
    2.4294   -1.0400   -1.4401 C   0  0  0  0  0  0  0  0  0  0  0  0
    1.4283   -0.7517   -0.5094 C   0  0  0  0  0  0  0  0  0  0  0  0
    0.2121   -1.3679   -0.7097 O   0  0  0  0  0  0  0  0  0  0  0  0
   -0.9212   -0.6553   -0.3980 C   0  0  0  0  0  0  0  0  0  0  0  0
   -1.1756    0.5801   -1.0071 C   0  0  0  0  0  0  0  0  0  0  0  0
   -2.3658    1.2657   -0.7388 C   0  0  0  0  0  0  0  0  0  0  0  0
   -3.3172    0.7029    0.1271 C   0  0  0  0  0  0  0  0  0  0  0  0
   -4.5680    1.4242    0.3993 N   0  0  0  0  0  4  0  0  0  0  0  0
   -5.3481    0.9259    1.2216 O   0  0  0  0  0  0  0  0  0  0  0  0
   -4.7652    2.4834   -0.2111 O   0  0  0  0  0  1  0  0  0  0  0  0
   -3.0905   -0.5419    0.7263 C   0  0  0  0  0  0  0  0  0  0  0  0
   -1.8881   -1.2058    0.4495 C   0  0  0  0  0  0  0  0  0  0  0  0
   -1.6608   -2.4977    1.0681 N   0  0  0  0  0  4  0  0  0  0  0  0
   -0.6305   -2.6373    1.7385 O   0  0  0  0  0  0  0  0  0  0  0  0
   -2.5407   -3.3537    0.9073 O   0  0  0  0  0  1  0  0  0  0  0  0
    1.7070    0.0670    0.5866 C   0  0  0  0  0  0  0  0  0  0  0  0
    4.3207    1.8695    1.9516 H   0  0  0  0  0  0  0  0  0  0  0  0
    4.9757    0.7823   -0.1184 H   0  0  0  0  0  0  0  0  0  0  0  0
    4.4764   -0.7099   -2.0288 H   0  0  0  0  0  0  0  0  0  0  0  0
    2.2186   -1.7014   -2.2774 H   0  0  0  0  0  0  0  0  0  0  0  0
   -0.4549    1.0120   -1.6992 H   0  0  0  0  0  0  0  0  0  0  0  0
   -2.5385    2.2292   -1.2171 H   0  0  0  0  0  0  0  0  0  0  0  0
   -3.8259   -0.9927    1.3911 H   0  0  0  0  0  0  0  0  0  0  0  0
    0.9553    0.2633    1.3467 H   0  0  0  0  0  0  0  0  0  0  0  0
  1  2  2  0
  2  3  1  0
  3  4  2  0
  4  5  1  0
  5  6  2  0
  6  7  1  0
  7  8  1  0
  8  9  1  0
  9 10  2  0
 10 11  1  0
 11 12  2  0
 12 13  1  0
 13 14  2  0
 13 15  1  0
 12 16  1  0
 16 17  2  0
 17 18  1  0
 18 19  2  0
 18 20  1  0
  7 21  2  0
 21  3  1  0
 17  9  1  0
  2 22  1  0
  4 23  1  0
  5 24  1  0
  6 25  1  0
 10 26  1  0
 11 27  1  0
 16 28  1  0
 21 29  1  0
M  CHG  4  13   1  15  -1  18   1  20  -1
M  END
$$$$
