
     RDKit          3D

 58 61  0  0  0  0  0  0  0  0999 V2000
    6.0703   -1.9775   -4.6097 C   0  0  0  0  0  0  0  0  0  0  0  0
    5.2003   -1.0382   -3.8163 C   0  0  0  0  0  0  0  0  0  0  0  0
    4.5388   -0.0120   -4.5057 C   0  0  0  0  0  0  0  0  0  0  0  0
    3.7175    0.8803   -3.8291 C   0  0  0  0  0  0  0  0  0  0  0  0
    3.5439    0.7633   -2.4519 C   0  0  0  0  0  0  0  0  0  0  0  0
    4.1913   -0.2432   -1.7275 C   0  0  0  0  0  0  0  0  0  0  0  0
    3.9963   -0.4001   -0.3310 N   0  0  0  0  0  0  0  0  0  0  0  0
    3.2976    0.4365    0.5247 C   0  0  0  0  0  0  0  0  0  0  0  0
    2.7942    1.5215    0.2600 O   0  0  0  0  0  0  0  0  0  0  0  0
    3.2214   -0.0973    1.9152 C   0  0  0  0  0  0  0  0  0  0  0  0
    4.4396   -0.3168    2.6103 C   0  0  0  0  0  0  0  0  0  0  0  0
    5.4365   -0.5468    3.1582 N   0  0  0  0  0  0  0  0  0  0  0  0
    2.0363   -0.3427    2.5046 C   0  0  0  0  0  0  0  0  0  0  0  0
    0.7452   -0.2064    1.9167 C   0  0  0  0  0  0  0  0  0  0  0  0
   -0.2168    0.6483    2.4021 C   0  0  0  0  0  0  0  0  0  0  0  0
   -1.3202    0.5381    1.5924 N   0  0  0  0  0  0  0  0  0  0  0  0
   -2.5038    1.3768    1.7071 C   0  0  0  0  0  0  0  0  0  0  0  0
   -3.6452    0.7042    2.4454 C   0  0  0  0  0  0  0  0  0  0  0  0
   -3.5113   -0.2446    3.2117 O   0  0  0  0  0  0  0  0  0  0  0  0
   -4.8718    1.2980    2.2153 N   0  0  0  0  0  0  0  0  0  0  0  0
   -6.0802    0.7261    2.7648 C   0  0  0  0  0  0  0  0  0  0  0  0
   -7.1740    1.7169    2.6285 C   0  0  0  0  0  0  0  0  0  0  0  0
   -7.9515    2.4031    3.5392 C   0  0  0  0  0  0  0  0  0  0  0  0
   -8.8303    3.2142    2.7827 C   0  0  0  0  0  0  0  0  0  0  0  0
   -8.5344    2.9730    1.4614 C   0  0  0  0  0  0  0  0  0  0  0  0
   -7.5252    2.0711    1.3551 O   0  0  0  0  0  0  0  0  0  0  0  0
   -1.1047   -0.4139    0.6139 C   0  0  0  0  0  0  0  0  0  0  0  0
   -1.9394   -0.8885   -0.4129 C   0  0  0  0  0  0  0  0  0  0  0  0
   -1.4386   -1.8741   -1.2686 C   0  0  0  0  0  0  0  0  0  0  0  0
   -0.1509   -2.3742   -1.1069 C   0  0  0  0  0  0  0  0  0  0  0  0
    0.6715   -1.9009   -0.0785 C   0  0  0  0  0  0  0  0  0  0  0  0
    0.1963   -0.8995    0.7969 C   0  0  0  0  0  0  0  0  0  0  0  0
    5.0424   -1.1534   -2.4110 C   0  0  0  0  0  0  0  0  0  0  0  0
    5.7602   -2.2469   -1.6526 C   0  0  0  0  0  0  0  0  0  0  0  0
    5.7645   -3.0174   -4.4413 H   0  0  0  0  0  0  0  0  0  0  0  0
    5.9866   -1.7905   -5.6873 H   0  0  0  0  0  0  0  0  0  0  0  0
    7.1211   -1.8479   -4.3316 H   0  0  0  0  0  0  0  0  0  0  0  0
    4.6541    0.0950   -5.5826 H   0  0  0  0  0  0  0  0  0  0  0  0
    3.1988    1.6647   -4.3722 H   0  0  0  0  0  0  0  0  0  0  0  0
    2.8725    1.4708   -1.9759 H   0  0  0  0  0  0  0  0  0  0  0  0
    4.4112   -1.2271    0.0748 H   0  0  0  0  0  0  0  0  0  0  0  0
    2.0332   -0.6742    3.5427 H   0  0  0  0  0  0  0  0  0  0  0  0
   -0.2029    1.3393    3.2359 H   0  0  0  0  0  0  0  0  0  0  0  0
   -2.2253    2.2916    2.2438 H   0  0  0  0  0  0  0  0  0  0  0  0
   -2.8126    1.6548    0.6922 H   0  0  0  0  0  0  0  0  0  0  0  0
   -4.9893    1.9320    1.4330 H   0  0  0  0  0  0  0  0  0  0  0  0
   -6.3106   -0.1862    2.2057 H   0  0  0  0  0  0  0  0  0  0  0  0
   -5.9137    0.4580    3.8128 H   0  0  0  0  0  0  0  0  0  0  0  0
   -7.8916    2.3247    4.6167 H   0  0  0  0  0  0  0  0  0  0  0  0
   -9.5891    3.8880    3.1536 H   0  0  0  0  0  0  0  0  0  0  0  0
   -8.9344    3.3420    0.5254 H   0  0  0  0  0  0  0  0  0  0  0  0
   -2.9496   -0.5147   -0.5454 H   0  0  0  0  0  0  0  0  0  0  0  0
   -2.0675   -2.2572   -2.0700 H   0  0  0  0  0  0  0  0  0  0  0  0
    0.2213   -3.1408   -1.7827 H   0  0  0  0  0  0  0  0  0  0  0  0
    1.6700   -2.3093    0.0376 H   0  0  0  0  0  0  0  0  0  0  0  0
    5.0420   -3.0003   -1.3146 H   0  0  0  0  0  0  0  0  0  0  0  0
    6.2924   -1.8301   -0.7895 H   0  0  0  0  0  0  0  0  0  0  0  0
    6.5173   -2.7597   -2.2496 H   0  0  0  0  0  0  0  0  0  0  0  0
  1  2  1  0
  2  3  2  0
  3  4  1  0
  4  5  2  0
  5  6  1  0
  6  7  1  0
  7  8  1  0
  8  9  2  0
  8 10  1  0
 10 11  1  0
 11 12  3  0
 10 13  2  3
 13 14  1  0
 14 15  2  0
 15 16  1  0
 16 17  1  0
 17 18  1  0
 18 19  2  0
 18 20  1  0
 20 21  1  0
 21 22  1  0
 22 23  2  0
 23 24  1  0
 24 25  2  0
 25 26  1  0
 16 27  1  0
 27 28  2  0
 28 29  1  0
 29 30  2  0
 30 31  1  0
 31 32  2  0
  6 33  2  0
 33 34  1  0
 33  2  1  0
 32 14  1  0
 26 22  1  0
 32 27  1  0
  1 35  1  0
  1 36  1  0
  1 37  1  0
  3 38  1  0
  4 39  1  0
  5 40  1  0
  7 41  1  0
 13 42  1  0
 15 43  1  0
 17 44  1  0
 17 45  1  0
 20 46  1  0
 21 47  1  0
 21 48  1  0
 23 49  1  0
 24 50  1  0
 25 51  1  0
 28 52  1  0
 29 53  1  0
 30 54  1  0
 31 55  1  0
 34 56  1  0
 34 57  1  0
 34 58  1  0
M  END
$$$$
