
     RDKit          3D

 43 46  0  0  0  0  0  0  0  0999 V2000
    6.4479    1.7111    1.2627 C   0  0  0  0  0  0  0  0  0  0  0  0
    5.0395    1.3559    0.8832 C   0  0  0  0  0  0  0  0  0  0  0  0
    4.1029    2.3580    0.6155 C   0  0  0  0  0  0  0  0  0  0  0  0
    2.7991    2.0281    0.2330 C   0  0  0  0  0  0  0  0  0  0  0  0
    2.4211    0.6870    0.1001 C   0  0  0  0  0  0  0  0  0  0  0  0
    0.9532    0.3266   -0.3274 C   0  0  0  0  0  0  0  0  0  0  0  0
   -0.0877    1.2236   -0.5390 C   0  0  0  0  0  0  0  0  0  0  0  0
   -1.2443    0.5117   -0.8643 N   0  0  0  0  0  4  0  0  0  0  0  0
   -2.5602    1.0711   -1.1622 C   0  0  0  0  0  0  0  0  0  0  0  0
   -3.5654    0.5545   -0.1627 C   0  0  0  0  0  0  0  0  0  0  0  0
   -4.7521   -0.0545   -0.5948 C   0  0  0  0  0  0  0  0  0  0  0  0
   -5.6835   -0.5320    0.3331 C   0  0  0  0  0  0  0  0  0  0  0  0
   -5.4473   -0.4043    1.7047 C   0  0  0  0  0  0  0  0  0  0  0  0
   -6.6344   -1.0301    2.7888 Cl  0  0  0  0  0  0  0  0  0  0  0  0
   -4.2752    0.2125    2.1482 C   0  0  0  0  0  0  0  0  0  0  0  0
   -3.9007    0.4062    3.8221 Cl  0  0  0  0  0  0  0  0  0  0  0  0
   -3.3449    0.6940    1.2182 C   0  0  0  0  0  0  0  0  0  0  0  0
   -0.9205   -0.7775   -0.8802 C   0  0  0  0  0  0  0  0  0  0  0  0
    0.3688   -0.9015   -0.5808 N   0  0  0  0  0  0  0  0  0  0  0  0
    0.7991   -2.2928   -0.5972 C   0  0  0  0  0  0  0  0  0  0  0  0
   -0.3852   -3.0299   -1.2818 C   0  0  0  0  0  0  0  0  0  0  0  0
   -1.5868   -2.0744   -1.1425 C   0  0  0  0  0  0  0  0  0  0  0  0
    3.3564   -0.3158    0.3563 C   0  0  0  0  0  0  0  0  0  0  0  0
    4.6595    0.0182    0.7394 C   0  0  0  0  0  0  0  0  0  0  0  0
    7.0639    1.8089    0.3635 H   0  0  0  0  0  0  0  0  0  0  0  0
    6.8838    0.9422    1.9092 H   0  0  0  0  0  0  0  0  0  0  0  0
    6.4766    2.6553    1.8166 H   0  0  0  0  0  0  0  0  0  0  0  0
    4.3860    3.4059    0.7055 H   0  0  0  0  0  0  0  0  0  0  0  0
    2.1109    2.8456    0.0405 H   0  0  0  0  0  0  0  0  0  0  0  0
   -0.1577    2.2968   -0.4806 H   0  0  0  0  0  0  0  0  0  0  0  0
   -2.8208    0.7775   -2.1852 H   0  0  0  0  0  0  0  0  0  0  0  0
   -2.5218    2.1648   -1.1197 H   0  0  0  0  0  0  0  0  0  0  0  0
   -4.9745   -0.1631   -1.6560 H   0  0  0  0  0  0  0  0  0  0  0  0
   -6.6006   -1.0019   -0.0199 H   0  0  0  0  0  0  0  0  0  0  0  0
   -2.4402    1.1796    1.5806 H   0  0  0  0  0  0  0  0  0  0  0  0
    1.7195   -2.4127   -1.1729 H   0  0  0  0  0  0  0  0  0  0  0  0
    0.9334   -2.6325    0.4338 H   0  0  0  0  0  0  0  0  0  0  0  0
   -0.1542   -3.1622   -2.3455 H   0  0  0  0  0  0  0  0  0  0  0  0
   -0.5740   -4.0180   -0.8537 H   0  0  0  0  0  0  0  0  0  0  0  0
   -2.1849   -1.9913   -2.0506 H   0  0  0  0  0  0  0  0  0  0  0  0
   -2.1969   -2.2984   -0.2651 H   0  0  0  0  0  0  0  0  0  0  0  0
    3.1116   -1.3670    0.2812 H   0  0  0  0  0  0  0  0  0  0  0  0
    5.3806   -0.7753    0.9314 H   0  0  0  0  0  0  0  0  0  0  0  0
  1  2  1  0
  2  3  2  0
  3  4  1  0
  4  5  2  0
  5  6  1  0
  6  7  2  0
  7  8  1  0
  8  9  1  0
  9 10  1  0
 10 11  2  0
 11 12  1  0
 12 13  2  0
 13 14  1  0
 13 15  1  0
 15 16  1  0
 15 17  2  0
  8 18  2  0
 18 19  1  0
 19 20  1  0
 20 21  1  0
 21 22  1  0
  5 23  1  0
 23 24  2  0
 24  2  1  0
 19  6  1  0
 17 10  1  0
 22 18  1  0
  1 25  1  0
  1 26  1  0
  1 27  1  0
  3 28  1  0
  4 29  1  0
  7 30  1  0
  9 31  1  0
  9 32  1  0
 11 33  1  0
 12 34  1  0
 17 35  1  0
 20 36  1  0
 20 37  1  0
 21 38  1  0
 21 39  1  0
 22 40  1  0
 22 41  1  0
 23 42  1  0
 24 43  1  0
M  CHG  1   8   1
M  END
$$$$
