
     RDKit          3D

 41 42  0  0  0  0  0  0  0  0999 V2000
    6.0014    1.9818   -0.8877 C   0  0  0  0  0  0  0  0  0  0  0  0
    4.9531    1.2355   -0.2685 O   0  0  0  0  0  0  0  0  0  0  0  0
    4.6236    0.0910   -0.9281 C   0  0  0  0  0  0  0  0  0  0  0  0
    5.1546   -0.2847   -1.9654 O   0  0  0  0  0  0  0  0  0  0  0  0
    3.5969   -0.6453   -0.2110 C   0  0  0  0  0  0  0  0  0  0  0  0
    3.3344   -1.9970   -0.3749 C   0  0  0  0  0  0  0  0  0  0  0  0
    2.3448   -2.3711    0.5507 C   0  0  0  0  0  0  0  0  0  0  0  0
    1.9649   -1.2442    1.2643 C   0  0  0  0  0  0  0  0  0  0  0  0
    0.7808   -1.1044    2.5965 S   0  0  0  0  0  6  0  0  0  0  0  0
    1.3025   -0.0664    3.4538 O   0  0  0  0  0  0  0  0  0  0  0  0
    0.5677   -2.4590    3.0481 O   0  0  0  0  0  0  0  0  0  0  0  0
   -0.6363   -0.5357    1.9115 N   0  0  0  0  0  0  0  0  0  0  0  0
   -1.3281   -1.4357    0.9854 C   0  0  0  0  0  0  0  0  0  0  0  0
   -2.5389   -0.7588    0.3892 C   0  0  0  0  0  0  0  0  0  0  0  0
   -3.6337   -0.4315    1.1988 C   0  0  0  0  0  0  0  0  0  0  0  0
   -4.7496    0.2070    0.6535 C   0  0  0  0  0  0  0  0  0  0  0  0
   -4.7937    0.5300   -0.7042 C   0  0  0  0  0  0  0  0  0  0  0  0
   -5.9430    1.1519   -1.1067 O   0  0  0  0  0  0  0  0  0  0  0  0
   -6.0517    1.4734   -2.4874 C   0  0  0  0  0  0  0  0  0  0  0  0
   -3.7051    0.2102   -1.5153 C   0  0  0  0  0  0  0  0  0  0  0  0
   -2.5838   -0.4286   -0.9718 C   0  0  0  0  0  0  0  0  0  0  0  0
    2.6932   -0.1835    0.7400 N   0  0  0  0  0  0  0  0  0  0  0  0
    2.5131    1.2106    1.1007 C   0  0  0  0  0  0  0  0  0  0  0  0
    6.1884    2.8708   -0.2791 H   0  0  0  0  0  0  0  0  0  0  0  0
    5.7019    2.3055   -1.8895 H   0  0  0  0  0  0  0  0  0  0  0  0
    6.9217    1.3907   -0.9283 H   0  0  0  0  0  0  0  0  0  0  0  0
    3.8555   -2.6499   -1.0665 H   0  0  0  0  0  0  0  0  0  0  0  0
    1.9503   -3.3670    0.7158 H   0  0  0  0  0  0  0  0  0  0  0  0
   -0.5838    0.4348    1.6127 H   0  0  0  0  0  0  0  0  0  0  0  0
   -0.6514   -1.7340    0.1779 H   0  0  0  0  0  0  0  0  0  0  0  0
   -1.6515   -2.3446    1.5048 H   0  0  0  0  0  0  0  0  0  0  0  0
   -3.6210   -0.6694    2.2611 H   0  0  0  0  0  0  0  0  0  0  0  0
   -5.5932    0.4549    1.2934 H   0  0  0  0  0  0  0  0  0  0  0  0
   -5.2805    2.1907   -2.7871 H   0  0  0  0  0  0  0  0  0  0  0  0
   -7.0256    1.9470   -2.6448 H   0  0  0  0  0  0  0  0  0  0  0  0
   -6.0160    0.5715   -3.1074 H   0  0  0  0  0  0  0  0  0  0  0  0
   -3.6954    0.4431   -2.5749 H   0  0  0  0  0  0  0  0  0  0  0  0
   -1.7479   -0.6677   -1.6261 H   0  0  0  0  0  0  0  0  0  0  0  0
    1.4866    1.3866    1.4229 H   0  0  0  0  0  0  0  0  0  0  0  0
    3.2206    1.4548    1.8960 H   0  0  0  0  0  0  0  0  0  0  0  0
    2.6740    1.8366    0.2198 H   0  0  0  0  0  0  0  0  0  0  0  0
  1  2  1  0
  2  3  1  0
  3  4  2  0
  3  5  1  0
  5  6  2  0
  6  7  1  0
  7  8  2  0
  8  9  1  0
  9 10  2  0
  9 11  2  0
  9 12  1  0
 12 13  1  0
 13 14  1  0
 14 15  2  0
 15 16  1  0
 16 17  2  0
 17 18  1  0
 18 19  1  0
 17 20  1  0
 20 21  2  0
  8 22  1  0
 22 23  1  0
 22  5  1  0
 21 14  1  0
  1 24  1  0
  1 25  1  0
  1 26  1  0
  6 27  1  0
  7 28  1  0
 12 29  1  0
 13 30  1  0
 13 31  1  0
 15 32  1  0
 16 33  1  0
 19 34  1  0
 19 35  1  0
 19 36  1  0
 20 37  1  0
 21 38  1  0
 23 39  1  0
 23 40  1  0
 23 41  1  0
M  END
$$$$
