
     RDKit          3D

 58 62  0  0  0  0  0  0  0  0999 V2000
    8.6377   -1.3284    1.5234 C   0  0  0  0  0  0  0  0  0  0  0  0
    7.5620   -1.7059    2.3756 O   0  0  0  0  0  0  0  0  0  0  0  0
    6.3041   -1.3252    1.9945 C   0  0  0  0  0  0  0  0  0  0  0  0
    5.2930   -1.6861    2.8898 C   0  0  0  0  0  0  0  0  0  0  0  0
    3.9587   -1.3581    2.6310 C   0  0  0  0  0  0  0  0  0  0  0  0
    3.6116   -0.6642    1.4730 C   0  0  0  0  0  0  0  0  0  0  0  0
    2.2550   -0.3661    1.2539 N   0  0  0  0  0  0  0  0  0  0  0  0
    1.8645    0.2720    0.1762 C   0  0  0  0  0  0  0  0  0  0  0  0
    0.5004    0.4802    0.0163 N   0  0  0  0  0  0  0  0  0  0  0  0
   -0.3667    0.6924    1.1827 C   0  0  0  0  0  0  0  0  0  0  0  0
   -1.6555   -0.1458    1.0828 C   0  0  0  0  0  0  0  0  0  0  0  0
   -2.4242    0.0450   -0.1689 N   0  0  0  0  0  0  0  0  0  0  0  0
   -3.0578    1.3727   -0.2259 C   0  0  0  0  0  0  0  0  0  0  0  0
   -4.2512    1.4368   -1.2059 C   0  0  0  0  0  0  0  0  0  0  0  0
   -5.4489    0.5975   -0.7919 C   0  0  0  0  0  0  0  0  0  0  0  0
   -6.1317    0.9526    0.3887 C   0  0  0  0  0  0  0  0  0  0  0  0
   -7.2327    0.2233    0.8361 C   0  0  0  0  0  0  0  0  0  0  0  0
   -7.6795   -0.8722    0.1087 C   0  0  0  0  0  0  0  0  0  0  0  0
   -7.0281   -1.2328   -1.0698 C   0  0  0  0  0  0  0  0  0  0  0  0
   -5.9141   -0.5076   -1.5432 C   0  0  0  0  0  0  0  0  0  0  0  0
   -5.2731   -0.9402   -2.8451 C   0  0  0  0  0  0  0  0  0  0  0  0
   -5.2383    0.0605   -3.7736 F   0  0  0  0  0  0  0  0  0  0  0  0
   -5.9293   -1.9698   -3.4584 F   0  0  0  0  0  0  0  0  0  0  0  0
   -3.9874   -1.3667   -2.7051 F   0  0  0  0  0  0  0  0  0  0  0  0
   -1.5063   -0.2046   -1.3038 C   0  0  0  0  0  0  0  0  0  0  0  0
   -0.1667    0.5731   -1.2823 C   0  0  0  0  0  0  0  0  0  0  0  0
    2.8873    0.7187   -0.7638 C   0  0  0  0  0  0  0  0  0  0  0  0
    2.8315    1.5168   -1.8953 C   0  0  0  0  0  0  0  0  0  0  0  0
    4.1393    1.6211   -2.4229 C   0  0  0  0  0  0  0  0  0  0  0  0
    4.9724    0.9145   -1.5844 C   0  0  0  0  0  0  0  0  0  0  0  0
    4.2160    0.4029   -0.5560 N   0  0  0  0  0  0  0  0  0  0  0  0
    4.6308   -0.3108    0.5814 C   0  0  0  0  0  0  0  0  0  0  0  0
    5.9731   -0.6334    0.8282 C   0  0  0  0  0  0  0  0  0  0  0  0
    9.5672   -1.6825    1.9801 H   0  0  0  0  0  0  0  0  0  0  0  0
    8.5469   -1.8047    0.5412 H   0  0  0  0  0  0  0  0  0  0  0  0
    8.7066   -0.2385    1.4315 H   0  0  0  0  0  0  0  0  0  0  0  0
    5.5443   -2.2272    3.7987 H   0  0  0  0  0  0  0  0  0  0  0  0
    3.1829   -1.6462    3.3352 H   0  0  0  0  0  0  0  0  0  0  0  0
   -0.6142    1.7593    1.2425 H   0  0  0  0  0  0  0  0  0  0  0  0
    0.1356    0.4409    2.1238 H   0  0  0  0  0  0  0  0  0  0  0  0
   -2.2959    0.0577    1.9499 H   0  0  0  0  0  0  0  0  0  0  0  0
   -1.3902   -1.2092    1.1580 H   0  0  0  0  0  0  0  0  0  0  0  0
   -3.4243    1.6467    0.7718 H   0  0  0  0  0  0  0  0  0  0  0  0
   -2.3336    2.1497   -0.4998 H   0  0  0  0  0  0  0  0  0  0  0  0
   -4.5908    2.4802   -1.2683 H   0  0  0  0  0  0  0  0  0  0  0  0
   -3.9156    1.1912   -2.2167 H   0  0  0  0  0  0  0  0  0  0  0  0
   -5.8030    1.8081    0.9759 H   0  0  0  0  0  0  0  0  0  0  0  0
   -7.7364    0.5085    1.7551 H   0  0  0  0  0  0  0  0  0  0  0  0
   -8.5344   -1.4464    0.4565 H   0  0  0  0  0  0  0  0  0  0  0  0
   -7.3989   -2.0933   -1.6275 H   0  0  0  0  0  0  0  0  0  0  0  0
   -1.2767   -1.2791   -1.3068 H   0  0  0  0  0  0  0  0  0  0  0  0
   -2.0080   -0.0146   -2.2586 H   0  0  0  0  0  0  0  0  0  0  0  0
    0.4579    0.1449   -2.0734 H   0  0  0  0  0  0  0  0  0  0  0  0
   -0.3388    1.6276   -1.5251 H   0  0  0  0  0  0  0  0  0  0  0  0
    1.9482    1.9849   -2.3066 H   0  0  0  0  0  0  0  0  0  0  0  0
    4.4437    2.1632   -3.3096 H   0  0  0  0  0  0  0  0  0  0  0  0
    6.0405    0.7628   -1.6386 H   0  0  0  0  0  0  0  0  0  0  0  0
    6.7412   -0.3462    0.1225 H   0  0  0  0  0  0  0  0  0  0  0  0
  1  2  1  0
  2  3  1  0
  3  4  2  0
  4  5  1  0
  5  6  2  0
  6  7  1  0
  7  8  2  0
  8  9  1  0
  9 10  1  0
 10 11  1  0
 11 12  1  0
 12 13  1  0
 13 14  1  0
 14 15  1  0
 15 16  2  0
 16 17  1  0
 17 18  2  0
 18 19  1  0
 19 20  2  0
 20 21  1  0
 21 22  1  0
 21 23  1  0
 21 24  1  0
 12 25  1  0
 25 26  1  0
  8 27  1  0
 27 28  2  0
 28 29  1  0
 29 30  2  0
 30 31  1  0
 31 32  1  0
 32 33  2  0
 33  3  1  0
 32  6  1  0
 26  9  1  0
 31 27  1  0
 20 15  1  0
  1 34  1  0
  1 35  1  0
  1 36  1  0
  4 37  1  0
  5 38  1  0
 10 39  1  0
 10 40  1  0
 11 41  1  0
 11 42  1  0
 13 43  1  0
 13 44  1  0
 14 45  1  0
 14 46  1  0
 16 47  1  0
 17 48  1  0
 18 49  1  0
 19 50  1  0
 25 51  1  0
 25 52  1  0
 26 53  1  0
 26 54  1  0
 28 55  1  0
 29 56  1  0
 30 57  1  0
 33 58  1  0
M  END
$$$$
