
     RDKit          3D

 36 38  0  0  0  0  0  0  0  0999 V2000
    4.0355    2.7465    0.0422 C   0  0  0  0  0  0  0  0  0  0  0  0
    3.8630    1.2556    0.0772 C   0  0  0  0  0  0  0  0  0  0  0  0
    4.9809    0.4190    0.0343 C   0  0  0  0  0  0  0  0  0  0  0  0
    4.8532   -0.9708    0.1108 C   0  0  0  0  0  0  0  0  0  0  0  0
    3.5647   -1.5016    0.2361 C   0  0  0  0  0  0  0  0  0  0  0  0
    3.1620   -2.8122    0.3507 N   0  0  0  0  0  0  0  0  0  0  0  0
    1.7993   -2.8802    0.4722 C   0  0  0  0  0  0  0  0  0  0  0  0
    1.3025   -1.5963    0.4061 C   0  0  0  0  0  0  0  0  0  0  0  0
   -0.0953   -1.3122    0.4839 C   0  0  0  0  0  0  0  0  0  0  0  0
   -0.7200   -0.3151   -0.1648 C   0  0  0  0  0  0  0  0  0  0  0  0
   -2.1598   -0.0491   -0.0773 C   0  0  0  0  0  0  0  0  0  0  0  0
   -3.1092   -1.0698   -0.0815 C   0  0  0  0  0  0  0  0  0  0  0  0
   -4.4622   -0.7540   -0.0261 C   0  0  0  0  0  0  0  0  0  0  0  0
   -4.8676    0.5345    0.0184 N   0  0  0  0  0  4  0  0  0  0  0  0
   -6.3058    0.8438    0.0896 C   0  0  0  0  0  0  0  0  0  0  0  0
   -3.9662    1.5415    0.0162 C   0  0  0  0  0  0  0  0  0  0  0  0
   -2.6034    1.2717   -0.0407 C   0  0  0  0  0  0  0  0  0  0  0  0
    2.4167   -0.7069    0.2791 C   0  0  0  0  0  0  0  0  0  0  0  0
    2.5808    0.6959    0.2168 C   0  0  0  0  0  0  0  0  0  0  0  0
    3.1642    3.2297   -0.4122 H   0  0  0  0  0  0  0  0  0  0  0  0
    4.9093    3.0249   -0.5563 H   0  0  0  0  0  0  0  0  0  0  0  0
    4.1643    3.1318    1.0583 H   0  0  0  0  0  0  0  0  0  0  0  0
    5.9783    0.8473   -0.0533 H   0  0  0  0  0  0  0  0  0  0  0  0
    5.7310   -1.6090    0.0823 H   0  0  0  0  0  0  0  0  0  0  0  0
    3.7907   -3.6039    0.3570 H   0  0  0  0  0  0  0  0  0  0  0  0
    1.3100   -3.8392    0.5787 H   0  0  0  0  0  0  0  0  0  0  0  0
   -0.6727   -1.9902    1.1088 H   0  0  0  0  0  0  0  0  0  0  0  0
   -0.1510    0.3543   -0.8070 H   0  0  0  0  0  0  0  0  0  0  0  0
   -2.8078   -2.1141   -0.1384 H   0  0  0  0  0  0  0  0  0  0  0  0
   -5.2273   -1.5254   -0.0205 H   0  0  0  0  0  0  0  0  0  0  0  0
   -6.4899    1.8075   -0.3920 H   0  0  0  0  0  0  0  0  0  0  0  0
   -6.8660    0.0652   -0.4345 H   0  0  0  0  0  0  0  0  0  0  0  0
   -6.5809    0.8774    1.1467 H   0  0  0  0  0  0  0  0  0  0  0  0
   -4.3442    2.5592    0.0601 H   0  0  0  0  0  0  0  0  0  0  0  0
   -1.8932    2.0970   -0.0449 H   0  0  0  0  0  0  0  0  0  0  0  0
    1.7161    1.3472    0.2880 H   0  0  0  0  0  0  0  0  0  0  0  0
  1  2  1  0
  2  3  2  0
  3  4  1  0
  4  5  2  0
  5  6  1  0
  6  7  1  0
  7  8  2  0
  8  9  1  0
  9 10  2  3
 10 11  1  0
 11 12  2  0
 12 13  1  0
 13 14  2  0
 14 15  1  0
 14 16  1  0
 16 17  2  0
  8 18  1  0
 18 19  2  0
 19  2  1  0
 18  5  1  0
 17 11  1  0
  1 20  1  0
  1 21  1  0
  1 22  1  0
  3 23  1  0
  4 24  1  0
  6 25  1  0
  7 26  1  0
  9 27  1  0
 10 28  1  0
 12 29  1  0
 13 30  1  0
 15 31  1  0
 15 32  1  0
 15 33  1  0
 16 34  1  0
 17 35  1  0
 19 36  1  0
M  CHG  1  14   1
M  END
$$$$
