
     RDKit          3D

 43 45  0  0  0  0  0  0  0  0999 V2000
   -1.4852   -3.2627    2.0692 C   0  0  0  0  0  0  0  0  0  0  0  0
   -1.4149   -2.0597    1.1786 C   0  0  0  0  0  0  0  0  0  0  0  0
   -0.2057   -1.6480    0.6623 C   0  0  0  0  0  0  0  0  0  0  0  0
   -0.2161   -0.5311   -0.1472 C   0  0  0  0  0  0  0  0  0  0  0  0
    0.9583   -0.0389   -0.7402 N   0  0  0  0  0  0  0  0  0  0  0  0
    2.1540   -0.2562   -0.1303 N   0  0  0  0  0  0  0  0  0  0  0  0
    3.1437    0.3947   -0.6593 C   0  0  0  0  0  0  0  0  0  0  0  0
    4.5191    0.2775   -0.1198 C   0  0  0  0  0  0  0  0  0  0  0  0
    4.7561   -0.6034    0.9462 C   0  0  0  0  0  0  0  0  0  0  0  0
    6.0473   -0.7717    1.4587 C   0  0  0  0  0  0  0  0  0  0  0  0
    7.1204   -0.0669    0.9132 C   0  0  0  0  0  0  0  0  0  0  0  0
    6.9058    0.8155   -0.1439 C   0  0  0  0  0  0  0  0  0  0  0  0
    5.6059    0.9835   -0.6458 C   0  0  0  0  0  0  0  0  0  0  0  0
    5.4310    1.9312   -1.7251 N   0  0  0  0  0  4  0  0  0  0  0  0
    6.0842    1.7344   -2.7572 O   0  0  0  0  0  0  0  0  0  0  0  0
    4.6550    2.8746   -1.5295 O   0  0  0  0  0  1  0  0  0  0  0  0
   -1.3492    0.1237   -0.4398 N   0  0  0  0  0  0  0  0  0  0  0  0
   -2.4984   -0.3358    0.1022 C   0  0  0  0  0  0  0  0  0  0  0  0
   -3.7196    0.3752   -0.2067 N   0  0  0  0  0  0  0  0  0  0  0  0
   -3.7007    1.4781   -1.0197 N   0  0  0  0  0  0  0  0  0  0  0  0
   -4.9683    1.8850   -1.0963 C   0  0  0  0  0  0  0  0  0  0  0  0
   -5.3179    3.0745   -1.9086 C   0  0  0  0  0  0  0  0  0  0  0  0
   -5.8272    1.0653   -0.3441 C   0  0  0  0  0  0  0  0  0  0  0  0
   -5.0188    0.1015    0.2219 C   0  0  0  0  0  0  0  0  0  0  0  0
   -5.3937   -1.0244    1.1138 C   0  0  0  0  0  0  0  0  0  0  0  0
   -2.5673   -1.4166    0.9111 N   0  0  0  0  0  0  0  0  0  0  0  0
   -1.1320   -4.1503    1.5352 H   0  0  0  0  0  0  0  0  0  0  0  0
   -0.8695   -3.1101    2.9611 H   0  0  0  0  0  0  0  0  0  0  0  0
   -2.5145   -3.4474    2.3936 H   0  0  0  0  0  0  0  0  0  0  0  0
    0.7157   -2.1734    0.8760 H   0  0  0  0  0  0  0  0  0  0  0  0
    0.7460    0.8497   -1.1961 H   0  0  0  0  0  0  0  0  0  0  0  0
    2.9770    1.0388   -1.5395 H   0  0  0  0  0  0  0  0  0  0  0  0
    3.9379   -1.1726    1.3853 H   0  0  0  0  0  0  0  0  0  0  0  0
    6.2141   -1.4604    2.2850 H   0  0  0  0  0  0  0  0  0  0  0  0
    8.1223   -0.2061    1.3144 H   0  0  0  0  0  0  0  0  0  0  0  0
    7.7448    1.3660   -0.5656 H   0  0  0  0  0  0  0  0  0  0  0  0
   -6.3909    3.2858   -1.8582 H   0  0  0  0  0  0  0  0  0  0  0  0
   -5.0532    2.9138   -2.9587 H   0  0  0  0  0  0  0  0  0  0  0  0
   -4.7820    3.9580   -1.5468 H   0  0  0  0  0  0  0  0  0  0  0  0
   -6.8979    1.1605   -0.2267 H   0  0  0  0  0  0  0  0  0  0  0  0
   -5.1447   -1.9879    0.6586 H   0  0  0  0  0  0  0  0  0  0  0  0
   -4.8972   -0.9401    2.0854 H   0  0  0  0  0  0  0  0  0  0  0  0
   -6.4733   -1.0235    1.3004 H   0  0  0  0  0  0  0  0  0  0  0  0
  1  2  1  0
  2  3  2  0
  3  4  1  0
  4  5  1  0
  5  6  1  0
  6  7  2  3
  7  8  1  0
  8  9  2  0
  9 10  1  0
 10 11  2  0
 11 12  1  0
 12 13  2  0
 13 14  1  0
 14 15  2  0
 14 16  1  0
  4 17  2  0
 17 18  1  0
 18 19  1  0
 19 20  1  0
 20 21  2  0
 21 22  1  0
 21 23  1  0
 23 24  2  0
 24 25  1  0
 18 26  2  0
 26  2  1  0
 13  8  1  0
 24 19  1  0
  1 27  1  0
  1 28  1  0
  1 29  1  0
  3 30  1  0
  5 31  1  0
  7 32  1  0
  9 33  1  0
 10 34  1  0
 11 35  1  0
 12 36  1  0
 22 37  1  0
 22 38  1  0
 22 39  1  0
 23 40  1  0
 25 41  1  0
 25 42  1  0
 25 43  1  0
M  CHG  2  14   1  16  -1
M  END
$$$$
