
     RDKit          3D

 47 50  0  0  0  0  0  0  0  0999 V2000
   -8.1294   -2.5211   -0.1661 C   0  0  0  0  0  0  0  0  0  0  0  0
   -7.2161   -1.6686    0.5271 O   0  0  0  0  0  0  0  0  0  0  0  0
   -6.1687   -1.2520   -0.2267 C   0  0  0  0  0  0  0  0  0  0  0  0
   -5.9696   -1.5402   -1.3960 O   0  0  0  0  0  0  0  0  0  0  0  0
   -5.2623   -0.3729    0.5651 C   0  0  0  0  0  0  0  0  0  0  0  0
   -5.5353   -0.0269    1.8931 C   0  0  0  0  0  0  0  0  0  0  0  0
   -4.6693    0.8182    2.5828 C   0  0  0  0  0  0  0  0  0  0  0  0
   -3.5252    1.3131    1.9544 C   0  0  0  0  0  0  0  0  0  0  0  0
   -3.2212    0.9630    0.6254 C   0  0  0  0  0  0  0  0  0  0  0  0
   -2.0375    1.4976    0.0359 N   0  0  0  0  0  0  0  0  0  0  0  0
   -1.3824    2.5219    0.6534 N   0  0  0  0  0  0  0  0  0  0  0  0
   -0.3897    2.8790   -0.1435 N   0  0  0  0  0  0  0  0  0  0  0  0
   -0.3430    2.0887   -1.2511 N   0  0  0  0  0  0  0  0  0  0  0  0
   -1.3253    1.2213   -1.1279 C   0  0  0  0  0  0  0  0  0  0  0  0
   -1.5620   -0.1066   -2.2124 S   0  0  0  0  0  0  0  0  0  0  0  0
   -0.1334    0.0550   -3.3212 C   0  0  0  0  0  0  0  0  0  0  0  0
    1.1097   -0.5580   -2.6924 C   0  0  0  0  0  0  0  0  0  0  0  0
    1.3747   -1.7426   -2.8796 O   0  0  0  0  0  0  0  0  0  0  0  0
    1.8324    0.3418   -1.9424 N   0  0  0  0  0  0  0  0  0  0  0  0
    3.0088    0.1150   -1.2768 C   0  0  0  0  0  0  0  0  0  0  0  0
    3.5420    1.0463   -0.5174 N   0  0  0  0  0  0  0  0  0  0  0  0
    4.7127    0.5694    0.0318 C   0  0  0  0  0  0  0  0  0  0  0  0
    5.0581   -0.7118   -0.3438 C   0  0  0  0  0  0  0  0  0  0  0  0
    3.8843   -1.3466   -1.3954 S   0  0  0  0  0  0  0  0  0  0  0  0
    6.2629   -1.4535    0.1232 C   0  0  0  0  0  0  0  0  0  0  0  0
    7.2676   -0.4766    0.7645 C   0  0  0  0  0  0  0  0  0  0  0  0
    6.5781    0.5396    1.6935 C   0  0  0  0  0  0  0  0  0  0  0  0
    5.5517    1.4045    0.9386 C   0  0  0  0  0  0  0  0  0  0  0  0
   -4.1070    0.1270   -0.0657 C   0  0  0  0  0  0  0  0  0  0  0  0
   -7.6366   -3.4572   -0.4464 H   0  0  0  0  0  0  0  0  0  0  0  0
   -8.5345   -2.0157   -1.0489 H   0  0  0  0  0  0  0  0  0  0  0  0
   -8.9578   -2.7515    0.5098 H   0  0  0  0  0  0  0  0  0  0  0  0
   -6.4236   -0.3980    2.3989 H   0  0  0  0  0  0  0  0  0  0  0  0
   -4.8840    1.0931    3.6134 H   0  0  0  0  0  0  0  0  0  0  0  0
   -2.8706    1.9652    2.5354 H   0  0  0  0  0  0  0  0  0  0  0  0
    0.0432    1.0954   -3.6143 H   0  0  0  0  0  0  0  0  0  0  0  0
   -0.3481   -0.4968   -4.2432 H   0  0  0  0  0  0  0  0  0  0  0  0
    1.4450    1.2606   -1.7483 H   0  0  0  0  0  0  0  0  0  0  0  0
    6.7467   -1.9852   -0.7034 H   0  0  0  0  0  0  0  0  0  0  0  0
    5.9577   -2.1997    0.8667 H   0  0  0  0  0  0  0  0  0  0  0  0
    7.7989    0.0697   -0.0262 H   0  0  0  0  0  0  0  0  0  0  0  0
    8.0211   -1.0429    1.3232 H   0  0  0  0  0  0  0  0  0  0  0  0
    6.0724   -0.0049    2.5018 H   0  0  0  0  0  0  0  0  0  0  0  0
    7.3271    1.1865    2.1635 H   0  0  0  0  0  0  0  0  0  0  0  0
    4.9202    1.9403    1.6559 H   0  0  0  0  0  0  0  0  0  0  0  0
    6.0781    2.1543    0.3351 H   0  0  0  0  0  0  0  0  0  0  0  0
   -3.9614   -0.1373   -1.1077 H   0  0  0  0  0  0  0  0  0  0  0  0
  1  2  1  0
  2  3  1  0
  3  4  2  0
  3  5  1  0
  5  6  2  0
  6  7  1  0
  7  8  2  0
  8  9  1  0
  9 10  1  0
 10 11  1  0
 11 12  2  0
 12 13  1  0
 13 14  2  0
 14 15  1  0
 15 16  1  0
 16 17  1  0
 17 18  2  0
 17 19  1  0
 19 20  1  0
 20 21  2  0
 21 22  1  0
 22 23  2  0
 23 24  1  0
 23 25  1  0
 25 26  1  0
 26 27  1  0
 27 28  1  0
  9 29  2  0
 29  5  1  0
 14 10  1  0
 24 20  1  0
 28 22  1  0
  1 30  1  0
  1 31  1  0
  1 32  1  0
  6 33  1  0
  7 34  1  0
  8 35  1  0
 16 36  1  0
 16 37  1  0
 19 38  1  0
 25 39  1  0
 25 40  1  0
 26 41  1  0
 26 42  1  0
 27 43  1  0
 27 44  1  0
 28 45  1  0
 28 46  1  0
 29 47  1  0
M  END
$$$$
