
     RDKit          3D

 43 45  0  0  0  0  0  0  0  0999 V2000
    5.9547   -0.8905    2.9735 C   0  0  0  0  0  0  0  0  0  0  0  0
    5.3655   -0.3851    1.6897 C   0  0  0  0  0  0  0  0  0  0  0  0
    6.1960    0.1359    0.6918 C   0  0  0  0  0  0  0  0  0  0  0  0
    5.6538    0.6305   -0.4995 C   0  0  0  0  0  0  0  0  0  0  0  0
    6.5429    1.2103   -1.5606 C   0  0  0  0  0  0  0  0  0  0  0  0
    4.2610    0.6336   -0.6740 C   0  0  0  0  0  0  0  0  0  0  0  0
    3.4147    0.1354    0.3175 C   0  0  0  0  0  0  0  0  0  0  0  0
    2.0081    0.0993    0.2082 N   0  0  0  0  0  0  0  0  0  0  0  0
    1.2308    0.6159   -0.8128 C   0  0  0  0  0  0  0  0  0  0  0  0
    1.6116    1.2676   -1.7770 O   0  0  0  0  0  0  0  0  0  0  0  0
   -0.2302    0.3641   -0.6664 C   0  0  0  0  0  0  0  0  0  0  0  0
   -1.1274    1.3636   -1.0528 C   0  0  0  0  0  0  0  0  0  0  0  0
   -2.5075    1.1614   -0.9309 C   0  0  0  0  0  0  0  0  0  0  0  0
   -3.0053   -0.0452   -0.4355 C   0  0  0  0  0  0  0  0  0  0  0  0
   -4.3741   -0.3301   -0.2846 N   0  0  0  0  0  0  0  0  0  0  0  0
   -5.4593    0.4833   -0.5622 C   0  0  0  0  0  0  0  0  0  0  0  0
   -5.4002    1.6295   -0.9932 O   0  0  0  0  0  0  0  0  0  0  0  0
   -6.7271   -0.1691   -0.2822 C   0  0  0  0  0  0  0  0  0  0  0  0
   -8.0289    0.2736   -0.4231 C   0  0  0  0  0  0  0  0  0  0  0  0
   -8.8687   -0.7828    0.0028 C   0  0  0  0  0  0  0  0  0  0  0  0
   -8.0335   -1.8077    0.3784 C   0  0  0  0  0  0  0  0  0  0  0  0
   -6.7336   -1.4508    0.2110 O   0  0  0  0  0  0  0  0  0  0  0  0
   -2.1013   -1.0522   -0.0692 C   0  0  0  0  0  0  0  0  0  0  0  0
   -0.7208   -0.8542   -0.1855 C   0  0  0  0  0  0  0  0  0  0  0  0
    3.9770   -0.3731    1.4964 C   0  0  0  0  0  0  0  0  0  0  0  0
    6.9029   -1.4060    2.7884 H   0  0  0  0  0  0  0  0  0  0  0  0
    5.2848   -1.6076    3.4589 H   0  0  0  0  0  0  0  0  0  0  0  0
    6.1307   -0.0555    3.6586 H   0  0  0  0  0  0  0  0  0  0  0  0
    7.2738    0.1554    0.8423 H   0  0  0  0  0  0  0  0  0  0  0  0
    6.1581    0.9758   -2.5588 H   0  0  0  0  0  0  0  0  0  0  0  0
    6.6013    2.2975   -1.4468 H   0  0  0  0  0  0  0  0  0  0  0  0
    7.5542    0.7950   -1.4973 H   0  0  0  0  0  0  0  0  0  0  0  0
    3.8612    1.0336   -1.6013 H   0  0  0  0  0  0  0  0  0  0  0  0
    1.5197   -0.2904    1.0030 H   0  0  0  0  0  0  0  0  0  0  0  0
   -0.7569    2.3065   -1.4513 H   0  0  0  0  0  0  0  0  0  0  0  0
   -3.1637    1.9697   -1.2402 H   0  0  0  0  0  0  0  0  0  0  0  0
   -4.6216   -1.2475    0.0714 H   0  0  0  0  0  0  0  0  0  0  0  0
   -8.3213    1.2479   -0.7928 H   0  0  0  0  0  0  0  0  0  0  0  0
   -9.9493   -0.7955    0.0324 H   0  0  0  0  0  0  0  0  0  0  0  0
   -8.2001   -2.8034    0.7661 H   0  0  0  0  0  0  0  0  0  0  0  0
   -2.4600   -2.0102    0.3009 H   0  0  0  0  0  0  0  0  0  0  0  0
   -0.0471   -1.6685    0.0684 H   0  0  0  0  0  0  0  0  0  0  0  0
    3.3350   -0.7602    2.2834 H   0  0  0  0  0  0  0  0  0  0  0  0
  1  2  1  0
  2  3  2  0
  3  4  1  0
  4  5  1  0
  4  6  2  0
  6  7  1  0
  7  8  1  0
  8  9  1  0
  9 10  2  0
  9 11  1  0
 11 12  2  0
 12 13  1  0
 13 14  2  0
 14 15  1  0
 15 16  1  0
 16 17  2  0
 16 18  1  0
 18 19  2  0
 19 20  1  0
 20 21  2  0
 21 22  1  0
 14 23  1  0
 23 24  2  0
  7 25  2  0
 25  2  1  0
 24 11  1  0
 22 18  1  0
  1 26  1  0
  1 27  1  0
  1 28  1  0
  3 29  1  0
  5 30  1  0
  5 31  1  0
  5 32  1  0
  6 33  1  0
  8 34  1  0
 12 35  1  0
 13 36  1  0
 15 37  1  0
 19 38  1  0
 20 39  1  0
 21 40  1  0
 23 41  1  0
 24 42  1  0
 25 43  1  0
M  END
$$$$
