
     RDKit          3D

 46 48  0  0  0  0  0  0  0  0999 V2000
   -3.3389   -2.3149    0.4397 O   0  0  0  0  0  0  0  0  0  0  0  0
   -3.2511   -1.1019    0.5798 C   0  0  0  0  0  0  0  0  0  0  0  0
   -4.2903   -0.2141    0.7949 N   0  0  0  0  0  0  0  0  0  0  0  0
   -5.6556   -0.5309    0.9718 C   0  0  0  0  0  0  0  0  0  0  0  0
   -6.1539   -1.8335    1.0434 C   0  0  0  0  0  0  0  0  0  0  0  0
   -7.5203   -2.0486    1.2257 C   0  0  0  0  0  0  0  0  0  0  0  0
   -7.9845   -3.3034    1.2932 F   0  0  0  0  0  0  0  0  0  0  0  0
   -8.4091   -0.9913    1.3414 C   0  0  0  0  0  0  0  0  0  0  0  0
   -7.9108    0.2990    1.2736 C   0  0  0  0  0  0  0  0  0  0  0  0
   -8.7499    1.3370    1.3847 F   0  0  0  0  0  0  0  0  0  0  0  0
   -6.5499    0.5398    1.0924 C   0  0  0  0  0  0  0  0  0  0  0  0
   -1.9001   -0.4830    0.4770 C   0  0  0  0  0  0  0  0  0  0  0  0
   -0.9739   -1.0400   -0.4071 C   0  0  0  0  0  0  0  0  0  0  0  0
    0.3099   -0.4907   -0.5375 C   0  0  0  0  0  0  0  0  0  0  0  0
    0.7299    0.6059    0.2334 C   0  0  0  0  0  0  0  0  0  0  0  0
    1.9786    1.2129    0.0256 N   0  0  0  0  0  0  0  0  0  0  0  0
    3.0735    0.4650   -0.6000 C   0  0  0  0  0  0  0  0  0  0  0  0
    4.3548    1.3083   -0.5927 C   0  0  0  0  0  0  0  0  0  0  0  0
    5.5077    0.5788   -1.2355 C   0  0  0  0  0  0  0  0  0  0  0  0
    5.7420    0.6951   -2.6123 C   0  0  0  0  0  0  0  0  0  0  0  0
    6.7947    0.0013   -3.2107 C   0  0  0  0  0  0  0  0  0  0  0  0
    7.6194   -0.8164   -2.4405 C   0  0  0  0  0  0  0  0  0  0  0  0
    7.3924   -0.9417   -1.0713 C   0  0  0  0  0  0  0  0  0  0  0  0
    6.3403   -0.2490   -0.4704 C   0  0  0  0  0  0  0  0  0  0  0  0
   -0.2347    1.1544    1.1127 C   0  0  0  0  0  0  0  0  0  0  0  0
    0.0837    2.3211    1.9381 N   0  0  0  0  0  4  0  0  0  0  0  0
   -0.8415    3.1099    2.1838 O   0  0  0  0  0  0  0  0  0  0  0  0
    1.2446    2.4363    2.3608 O   0  0  0  0  0  1  0  0  0  0  0  0
   -1.5289    0.6145    1.2520 C   0  0  0  0  0  0  0  0  0  0  0  0
   -4.0735    0.7742    0.7554 H   0  0  0  0  0  0  0  0  0  0  0  0
   -5.5158   -2.7070    0.9663 H   0  0  0  0  0  0  0  0  0  0  0  0
   -9.4677   -1.1715    1.4828 H   0  0  0  0  0  0  0  0  0  0  0  0
   -6.2141    1.5713    1.0470 H   0  0  0  0  0  0  0  0  0  0  0  0
   -1.2493   -1.9025   -1.0136 H   0  0  0  0  0  0  0  0  0  0  0  0
    0.9717   -0.9497   -1.2679 H   0  0  0  0  0  0  0  0  0  0  0  0
    2.2916    1.7201    0.8625 H   0  0  0  0  0  0  0  0  0  0  0  0
    3.2440   -0.4730   -0.0568 H   0  0  0  0  0  0  0  0  0  0  0  0
    2.8162    0.2201   -1.6374 H   0  0  0  0  0  0  0  0  0  0  0  0
    4.6228    1.5816    0.4363 H   0  0  0  0  0  0  0  0  0  0  0  0
    4.1835    2.2594   -1.1137 H   0  0  0  0  0  0  0  0  0  0  0  0
    5.1070    1.3289   -3.2277 H   0  0  0  0  0  0  0  0  0  0  0  0
    6.9724    0.0996   -4.2786 H   0  0  0  0  0  0  0  0  0  0  0  0
    8.4399   -1.3552   -2.9072 H   0  0  0  0  0  0  0  0  0  0  0  0
    8.0362   -1.5791   -0.4706 H   0  0  0  0  0  0  0  0  0  0  0  0
    6.1770   -0.3584    0.5995 H   0  0  0  0  0  0  0  0  0  0  0  0
   -2.2198    1.0370    1.9780 H   0  0  0  0  0  0  0  0  0  0  0  0
  1  2  2  0
  2  3  1  0
  3  4  1  0
  4  5  2  0
  5  6  1  0
  6  7  1  0
  6  8  2  0
  8  9  1  0
  9 10  1  0
  9 11  2  0
  2 12  1  0
 12 13  2  0
 13 14  1  0
 14 15  2  0
 15 16  1  0
 16 17  1  0
 17 18  1  0
 18 19  1  0
 19 20  2  0
 20 21  1  0
 21 22  2  0
 22 23  1  0
 23 24  2  0
 15 25  1  0
 25 26  1  0
 26 27  2  0
 26 28  1  0
 25 29  2  0
 11  4  1  0
 29 12  1  0
 24 19  1  0
  3 30  1  0
  5 31  1  0
  8 32  1  0
 11 33  1  0
 13 34  1  0
 14 35  1  0
 16 36  1  0
 17 37  1  0
 17 38  1  0
 18 39  1  0
 18 40  1  0
 20 41  1  0
 21 42  1  0
 22 43  1  0
 23 44  1  0
 24 45  1  0
 29 46  1  0
M  CHG  2  26   1  28  -1
M  END
$$$$
