
     RDKit          3D

 68 71  0  0  0  0  0  0  0  0999 V2000
   -2.0813   -5.9718   -0.3911 C   0  0  0  0  0  0  0  0  0  0  0  0
   -2.0337   -4.4768   -0.4942 C   0  0  0  0  0  0  0  0  0  0  0  0
   -0.8608   -3.7847   -0.1793 C   0  0  0  0  0  0  0  0  0  0  0  0
   -0.7971   -2.3924   -0.3051 C   0  0  0  0  0  0  0  0  0  0  0  0
   -1.9015   -1.6552   -0.7559 C   0  0  0  0  0  0  0  0  0  0  0  0
   -1.9144   -0.1322   -0.8978 C   0  0  0  0  0  0  0  0  0  0  0  0
   -2.6255    0.6716    0.2286 C   0  0  0  0  0  0  0  0  0  0  0  0
   -2.8476    1.8789    0.1031 O   0  0  0  0  0  0  0  0  0  0  0  0
   -2.9951   -0.0360    1.3580 N   0  0  0  0  0  0  0  0  0  0  0  0
   -3.5539    0.6352    2.5114 C   0  0  0  0  0  0  0  0  0  0  0  0
   -3.8209   -0.3304    3.6613 C   0  0  0  0  0  0  0  0  0  0  0  0
   -4.7640    0.4457    4.5696 C   0  0  0  0  0  0  0  0  0  0  0  0
   -5.5873    1.3343    3.6399 C   0  0  0  0  0  0  0  0  0  0  0  0
   -4.9413    1.2266    2.2598 C   0  0  0  0  0  0  0  0  0  0  0  0
   -0.6353    0.5094   -1.2730 N   0  0  0  0  0  0  0  0  0  0  0  0
   -0.4934    0.8983   -2.6785 C   0  0  0  0  0  0  0  0  0  0  0  0
   -0.3097   -0.3159   -3.5155 C   0  0  0  0  0  0  0  0  0  0  0  0
    0.7441   -1.1839   -3.7189 C   0  0  0  0  0  0  0  0  0  0  0  0
    0.2753   -2.1770   -4.6128 C   0  0  0  0  0  0  0  0  0  0  0  0
   -1.0245   -1.8439   -4.9100 C   0  0  0  0  0  0  0  0  0  0  0  0
   -1.3885   -0.7142   -4.2517 O   0  0  0  0  0  0  0  0  0  0  0  0
    0.3298    0.7157   -0.2983 C   0  0  0  0  0  0  0  0  0  0  0  0
    0.1676    0.3703    0.8736 O   0  0  0  0  0  0  0  0  0  0  0  0
    1.6160    1.3951   -0.7273 C   0  0  0  0  0  0  0  0  0  0  0  0
    2.6327    1.4689    0.4084 C   0  0  0  0  0  0  0  0  0  0  0  0
    3.9377    2.0789   -0.0632 C   0  0  0  0  0  0  0  0  0  0  0  0
    4.0814    2.5153   -1.2012 O   0  0  0  0  0  0  0  0  0  0  0  0
    4.8980    2.0685    0.9218 N   0  0  0  0  0  0  0  0  0  0  0  0
    6.1856    2.5358    0.7781 C   0  0  0  0  0  0  0  0  0  0  0  0
    6.7950    3.1594   -0.3311 C   0  0  0  0  0  0  0  0  0  0  0  0
    8.0809    3.4148    0.0772 C   0  0  0  0  0  0  0  0  0  0  0  0
    9.2520    4.0494   -0.5534 C   0  0  0  0  0  0  0  0  0  0  0  0
    8.2419    2.9586    1.3474 O   0  0  0  0  0  0  0  0  0  0  0  0
    7.0539    2.4070    1.7897 N   0  0  0  0  0  0  0  0  0  0  0  0
   -3.0743   -2.3654   -1.0795 C   0  0  0  0  0  0  0  0  0  0  0  0
   -3.1375   -3.7564   -0.9586 C   0  0  0  0  0  0  0  0  0  0  0  0
   -1.5369   -6.3149    0.4945 H   0  0  0  0  0  0  0  0  0  0  0  0
   -1.6343   -6.4223   -1.2825 H   0  0  0  0  0  0  0  0  0  0  0  0
   -3.1124   -6.3292   -0.2974 H   0  0  0  0  0  0  0  0  0  0  0  0
    0.0180   -4.3257    0.1696 H   0  0  0  0  0  0  0  0  0  0  0  0
    0.1377   -1.9065   -0.0438 H   0  0  0  0  0  0  0  0  0  0  0  0
   -2.5854    0.0508   -1.7521 H   0  0  0  0  0  0  0  0  0  0  0  0
   -2.4426   -0.8685    1.5390 H   0  0  0  0  0  0  0  0  0  0  0  0
   -2.8569    1.4213    2.8276 H   0  0  0  0  0  0  0  0  0  0  0  0
   -2.9041   -0.6333    4.1754 H   0  0  0  0  0  0  0  0  0  0  0  0
   -4.3143   -1.2418    3.2987 H   0  0  0  0  0  0  0  0  0  0  0  0
   -5.3951   -0.2181    5.1679 H   0  0  0  0  0  0  0  0  0  0  0  0
   -4.1882    1.0709    5.2629 H   0  0  0  0  0  0  0  0  0  0  0  0
   -5.5753    2.3700    3.9973 H   0  0  0  0  0  0  0  0  0  0  0  0
   -6.6335    1.0125    3.6025 H   0  0  0  0  0  0  0  0  0  0  0  0
   -4.8987    2.1982    1.7570 H   0  0  0  0  0  0  0  0  0  0  0  0
   -5.5380    0.5570    1.6258 H   0  0  0  0  0  0  0  0  0  0  0  0
    0.3514    1.5727   -2.8328 H   0  0  0  0  0  0  0  0  0  0  0  0
   -1.3891    1.4560   -2.9751 H   0  0  0  0  0  0  0  0  0  0  0  0
    1.7241   -1.1171   -3.2657 H   0  0  0  0  0  0  0  0  0  0  0  0
    0.8157   -3.0313   -4.9923 H   0  0  0  0  0  0  0  0  0  0  0  0
   -1.7873   -2.2881   -5.5346 H   0  0  0  0  0  0  0  0  0  0  0  0
    1.3778    2.4100   -1.0650 H   0  0  0  0  0  0  0  0  0  0  0  0
    2.0504    0.8341   -1.5616 H   0  0  0  0  0  0  0  0  0  0  0  0
    2.2402    2.0781    1.2315 H   0  0  0  0  0  0  0  0  0  0  0  0
    2.8382    0.4639    0.7962 H   0  0  0  0  0  0  0  0  0  0  0  0
    4.7076    1.6580    1.8278 H   0  0  0  0  0  0  0  0  0  0  0  0
    6.3639    3.3969   -1.2923 H   0  0  0  0  0  0  0  0  0  0  0  0
    9.9112    3.2905   -0.9860 H   0  0  0  0  0  0  0  0  0  0  0  0
    9.8237    4.6279    0.1784 H   0  0  0  0  0  0  0  0  0  0  0  0
    8.9432    4.7319   -1.3524 H   0  0  0  0  0  0  0  0  0  0  0  0
   -3.9574   -1.8355   -1.4375 H   0  0  0  0  0  0  0  0  0  0  0  0
   -4.0577   -4.2702   -1.2301 H   0  0  0  0  0  0  0  0  0  0  0  0
  1  2  1  0
  2  3  2  0
  3  4  1  0
  4  5  2  0
  5  6  1  0
  6  7  1  0
  7  8  2  0
  7  9  1  0
  9 10  1  0
 10 11  1  0
 11 12  1  0
 12 13  1  0
 13 14  1  0
  6 15  1  0
 15 16  1  0
 16 17  1  0
 17 18  2  0
 18 19  1  0
 19 20  2  0
 20 21  1  0
 15 22  1  0
 22 23  2  0
 22 24  1  0
 24 25  1  0
 25 26  1  0
 26 27  2  0
 26 28  1  0
 28 29  1  0
 29 30  1  0
 30 31  2  0
 31 32  1  0
 31 33  1  0
 33 34  1  0
  5 35  1  0
 35 36  2  0
 36  2  1  0
 14 10  1  0
 21 17  1  0
 34 29  2  0
  1 37  1  0
  1 38  1  0
  1 39  1  0
  3 40  1  0
  4 41  1  0
  6 42  1  0
  9 43  1  0
 10 44  1  0
 11 45  1  0
 11 46  1  0
 12 47  1  0
 12 48  1  0
 13 49  1  0
 13 50  1  0
 14 51  1  0
 14 52  1  0
 16 53  1  0
 16 54  1  0
 18 55  1  0
 19 56  1  0
 20 57  1  0
 24 58  1  0
 24 59  1  0
 25 60  1  0
 25 61  1  0
 28 62  1  0
 30 63  1  0
 32 64  1  0
 32 65  1  0
 32 66  1  0
 35 67  1  0
 36 68  1  0
M  END
$$$$
