
     RDKit          3D

 67 72  0  0  0  0  0  0  0  0999 V2000
   -4.3460   -4.9293    0.3061 C   0  0  0  0  0  0  0  0  0  0  0  0
   -3.4272   -3.8553    0.8065 C   0  0  0  0  0  0  0  0  0  0  0  0
   -3.2397   -3.6302    2.1823 C   0  0  0  0  0  0  0  0  0  0  0  0
   -4.0534   -4.5920    3.3689 Cl  0  0  0  0  0  0  0  0  0  0  0  0
   -2.3907   -2.6106    2.6533 C   0  0  0  0  0  0  0  0  0  0  0  0
   -1.6996   -1.7857    1.7645 C   0  0  0  0  0  0  0  0  0  0  0  0
   -1.8644   -2.0003    0.4052 C   0  0  0  0  0  0  0  0  0  0  0  0
   -2.7279   -3.0119   -0.0504 C   0  0  0  0  0  0  0  0  0  0  0  0
   -2.7677   -3.0038   -1.4430 N   0  0  0  0  0  0  0  0  0  0  0  0
   -1.9696   -1.9940   -1.9843 C   0  0  0  0  0  0  0  0  0  0  0  0
   -1.8626   -1.7679   -3.1810 O   0  0  0  0  0  0  0  0  0  0  0  0
   -1.2737   -1.2920   -0.7885 C   0  0  1  0  0  0  0  0  0  0  0  0
   -1.5794    0.1483   -0.6670 C   0  0  0  0  0  0  0  0  0  0  0  0
   -0.4104    0.9127   -0.6044 C   0  0  0  0  0  0  0  0  0  0  0  0
   -0.7523    2.2385   -0.5518 C   0  0  0  0  0  0  0  0  0  0  0  0
    0.0218    3.3172   -0.4712 O   0  0  0  0  0  0  0  0  0  0  0  0
   -2.1606    2.3025   -0.5191 N   0  0  0  0  0  0  0  0  0  0  0  0
   -2.9530    3.4811   -0.3327 C   0  0  0  0  0  0  0  0  0  0  0  0
   -2.5094    4.7248   -0.8059 C   0  0  0  0  0  0  0  0  0  0  0  0
   -3.2918    5.8679   -0.6197 C   0  0  0  0  0  0  0  0  0  0  0  0
   -4.5067    5.7701    0.0461 C   0  0  0  0  0  0  0  0  0  0  0  0
   -5.2522    6.8680    0.2266 F   0  0  0  0  0  0  0  0  0  0  0  0
   -4.9564    4.5496    0.5339 C   0  0  0  0  0  0  0  0  0  0  0  0
   -4.1809    3.4026    0.3472 C   0  0  0  0  0  0  0  0  0  0  0  0
   -2.6565    0.9918   -0.6743 C   0  0  0  0  0  0  0  0  0  0  0  0
   -3.9382    0.6781   -0.8565 O   0  0  0  0  0  0  0  0  0  0  0  0
    0.7977    0.0540   -0.6354 C   0  0  1  0  0  0  0  0  0  0  0  0
    1.5814    0.0788    0.6971 C   0  0  0  0  0  0  0  0  0  0  0  0
    2.4647   -1.0817    0.7946 N   0  0  0  0  0  0  0  0  0  0  0  0
    3.7832   -1.0378    0.3715 C   0  0  0  0  0  0  0  0  0  0  0  0
    4.4583   -2.0361    0.1600 O   0  0  0  0  0  0  0  0  0  0  0  0
    4.2260    0.2364    0.2175 O   0  0  0  0  0  0  0  0  0  0  0  0
    5.5894    0.5086   -0.1995 C   0  0  0  0  0  0  0  0  0  0  0  0
    5.6839    2.0419   -0.2288 C   0  0  0  0  0  0  0  0  0  0  0  0
    6.6034   -0.0226    0.8208 C   0  0  0  0  0  0  0  0  0  0  0  0
    5.8581   -0.0253   -1.6107 C   0  0  0  0  0  0  0  0  0  0  0  0
    1.7577   -2.3563    0.7196 C   0  0  0  0  0  0  0  0  0  0  0  0
    0.9900   -2.4604   -0.6140 C   0  0  0  0  0  0  0  0  0  0  0  0
    0.2031   -1.2811   -0.9562 N   0  0  0  0  0  0  0  0  0  0  0  0
   -4.0561   -5.9025    0.7160 H   0  0  0  0  0  0  0  0  0  0  0  0
   -4.3219   -5.0277   -0.7824 H   0  0  0  0  0  0  0  0  0  0  0  0
   -5.3793   -4.7076    0.5925 H   0  0  0  0  0  0  0  0  0  0  0  0
   -2.2744   -2.4528    3.7238 H   0  0  0  0  0  0  0  0  0  0  0  0
   -1.0665   -0.9900    2.1408 H   0  0  0  0  0  0  0  0  0  0  0  0
   -3.3356   -3.5954   -2.0292 H   0  0  0  0  0  0  0  0  0  0  0  0
    0.9488    3.0339   -0.5524 H   0  0  0  0  0  0  0  0  0  0  0  0
   -1.5754    4.8264   -1.3530 H   0  0  0  0  0  0  0  0  0  0  0  0
   -2.9603    6.8321   -0.9924 H   0  0  0  0  0  0  0  0  0  0  0  0
   -5.8995    4.5017    1.0701 H   0  0  0  0  0  0  0  0  0  0  0  0
   -4.5286    2.4708    0.7905 H   0  0  0  0  0  0  0  0  0  0  0  0
   -4.3926    1.4476   -1.2464 H   0  0  0  0  0  0  0  0  0  0  0  0
    1.4586    0.3399   -1.4620 H   0  0  0  0  0  0  0  0  0  0  0  0
    2.1379    1.0175    0.7886 H   0  0  0  0  0  0  0  0  0  0  0  0
    0.9052    0.0398    1.5591 H   0  0  0  0  0  0  0  0  0  0  0  0
    6.6779    2.3837   -0.5357 H   0  0  0  0  0  0  0  0  0  0  0  0
    5.4632    2.4635    0.7589 H   0  0  0  0  0  0  0  0  0  0  0  0
    4.9433    2.4655   -0.9172 H   0  0  0  0  0  0  0  0  0  0  0  0
    7.6160    0.3310    0.5984 H   0  0  0  0  0  0  0  0  0  0  0  0
    6.6359   -1.1161    0.8354 H   0  0  0  0  0  0  0  0  0  0  0  0
    6.3373    0.2987    1.8346 H   0  0  0  0  0  0  0  0  0  0  0  0
    6.8288    0.3166   -1.9876 H   0  0  0  0  0  0  0  0  0  0  0  0
    5.8626   -1.1187   -1.6417 H   0  0  0  0  0  0  0  0  0  0  0  0
    5.0777    0.3050   -2.3060 H   0  0  0  0  0  0  0  0  0  0  0  0
    1.0722   -2.4060    1.5708 H   0  0  0  0  0  0  0  0  0  0  0  0
    2.4558   -3.1948    0.8136 H   0  0  0  0  0  0  0  0  0  0  0  0
    1.7319   -2.5849   -1.4133 H   0  0  0  0  0  0  0  0  0  0  0  0
    0.3886   -3.3759   -0.6320 H   0  0  0  0  0  0  0  0  0  0  0  0
  1  2  1  0
  2  3  2  0
  3  4  1  0
  3  5  1  0
  5  6  2  0
  6  7  1  0
  7  8  2  0
  8  9  1  0
  9 10  1  0
 10 11  2  0
 10 12  1  0
 12 13  1  0
 13 14  1  0
 14 15  2  0
 15 16  1  0
 15 17  1  0
 17 18  1  0
 18 19  2  0
 19 20  1  0
 20 21  2  0
 21 22  1  0
 21 23  1  0
 23 24  2  0
 17 25  1  0
 25 26  1  0
 14 27  1  0
 27 28  1  0
 28 29  1  0
 29 30  1  0
 30 31  2  0
 30 32  1  0
 32 33  1  0
 33 34  1  0
 33 35  1  0
 33 36  1  0
 29 37  1  0
 37 38  1  0
 38 39  1  0
  8  2  1  0
 12 39  1  6
 12  7  1  0
 25 13  2  0
 39 27  1  0
 24 18  1  0
  1 40  1  0
  1 41  1  0
  1 42  1  0
  5 43  1  0
  6 44  1  0
  9 45  1  0
 16 46  1  0
 19 47  1  0
 20 48  1  0
 23 49  1  0
 24 50  1  0
 26 51  1  0
 27 52  1  6
 28 53  1  0
 28 54  1  0
 34 55  1  0
 34 56  1  0
 34 57  1  0
 35 58  1  0
 35 59  1  0
 35 60  1  0
 36 61  1  0
 36 62  1  0
 36 63  1  0
 37 64  1  0
 37 65  1  0
 38 66  1  0
 38 67  1  0
M  END
$$$$
