
     RDKit          3D

 40 42  0  0  0  0  0  0  0  0999 V2000
   -2.4868   -1.3747    1.1233 C   0  0  0  0  0  0  0  0  0  0  0  0
   -2.9198   -0.4962    0.0336 N   0  0  0  0  0  0  0  0  0  0  0  0
   -2.0321   -0.1927   -1.0164 C   0  0  0  0  0  0  0  0  0  0  0  0
   -2.3428    0.0407   -2.1829 O   0  0  0  0  0  0  0  0  0  0  0  0
   -0.5779   -0.1406   -0.7131 C   0  0  0  0  0  0  0  0  0  0  0  0
    0.3213   -0.7656   -1.5797 C   0  0  0  0  0  0  0  0  0  0  0  0
    1.6936   -0.7040   -1.3209 C   0  0  0  0  0  0  0  0  0  0  0  0
    2.1818   -0.0091   -0.2053 C   0  0  0  0  0  0  0  0  0  0  0  0
    3.5756   -0.0006   -0.0186 N   0  0  0  0  0  0  0  0  0  0  0  0
    4.3053    0.5856    1.0010 C   0  0  0  0  0  0  0  0  0  0  0  0
    3.8343    1.2056    1.9486 O   0  0  0  0  0  0  0  0  0  0  0  0
    5.7361    0.3871    0.8451 C   0  0  0  0  0  0  0  0  0  0  0  0
    6.8027    0.8012    1.6206 C   0  0  0  0  0  0  0  0  0  0  0  0
    7.9762    0.3224    0.9910 C   0  0  0  0  0  0  0  0  0  0  0  0
    7.5599   -0.3554   -0.1299 C   0  0  0  0  0  0  0  0  0  0  0  0
    6.2058   -0.3252   -0.2310 O   0  0  0  0  0  0  0  0  0  0  0  0
    1.2760    0.6358    0.6413 C   0  0  0  0  0  0  0  0  0  0  0  0
   -0.0990    0.5800    0.3854 C   0  0  0  0  0  0  0  0  0  0  0  0
   -4.3101   -0.0962    0.0022 C   0  0  0  0  0  0  0  0  0  0  0  0
   -4.7980    0.8178   -0.9448 C   0  0  0  0  0  0  0  0  0  0  0  0
   -6.1399    1.2209   -0.9568 C   0  0  0  0  0  0  0  0  0  0  0  0
   -7.0281    0.7273   -0.0100 C   0  0  0  0  0  0  0  0  0  0  0  0
   -6.5708   -0.1632    0.9525 C   0  0  0  0  0  0  0  0  0  0  0  0
   -5.2280   -0.5640    0.9611 C   0  0  0  0  0  0  0  0  0  0  0  0
   -2.5662   -0.8398    2.0747 H   0  0  0  0  0  0  0  0  0  0  0  0
   -3.1072   -2.2769    1.1340 H   0  0  0  0  0  0  0  0  0  0  0  0
   -1.4594   -1.7242    0.9994 H   0  0  0  0  0  0  0  0  0  0  0  0
   -0.0449   -1.2951   -2.4567 H   0  0  0  0  0  0  0  0  0  0  0  0
    2.3732   -1.2024   -2.0081 H   0  0  0  0  0  0  0  0  0  0  0  0
    4.1384   -0.4842   -0.7110 H   0  0  0  0  0  0  0  0  0  0  0  0
    6.7268    1.3812    2.5309 H   0  0  0  0  0  0  0  0  0  0  0  0
    8.9994    0.4554    1.3141 H   0  0  0  0  0  0  0  0  0  0  0  0
    8.0770   -0.8872   -0.9170 H   0  0  0  0  0  0  0  0  0  0  0  0
    1.6062    1.2044    1.5053 H   0  0  0  0  0  0  0  0  0  0  0  0
   -0.7857    1.1117    1.0399 H   0  0  0  0  0  0  0  0  0  0  0  0
   -4.1514    1.2603   -1.6965 H   0  0  0  0  0  0  0  0  0  0  0  0
   -6.4813    1.9260   -1.7105 H   0  0  0  0  0  0  0  0  0  0  0  0
   -8.0684    1.0398   -0.0200 H   0  0  0  0  0  0  0  0  0  0  0  0
   -7.2558   -0.5499    1.7027 H   0  0  0  0  0  0  0  0  0  0  0  0
   -4.9360   -1.2557    1.7443 H   0  0  0  0  0  0  0  0  0  0  0  0
  1  2  1  0
  2  3  1  0
  3  4  2  0
  3  5  1  0
  5  6  2  0
  6  7  1  0
  7  8  2  0
  8  9  1  0
  9 10  1  0
 10 11  2  0
 10 12  1  0
 12 13  2  0
 13 14  1  0
 14 15  2  0
 15 16  1  0
  8 17  1  0
 17 18  2  0
  2 19  1  0
 19 20  2  0
 20 21  1  0
 21 22  2  0
 22 23  1  0
 23 24  2  0
 18  5  1  0
 24 19  1  0
 16 12  1  0
  1 25  1  0
  1 26  1  0
  1 27  1  0
  6 28  1  0
  7 29  1  0
  9 30  1  0
 13 31  1  0
 14 32  1  0
 15 33  1  0
 17 34  1  0
 18 35  1  0
 20 36  1  0
 21 37  1  0
 22 38  1  0
 23 39  1  0
 24 40  1  0
M  END
$$$$
