
     RDKit          3D

 58 62  0  0  0  0  0  0  0  0999 V2000
    0.1602   -0.4779   -2.9855 O   0  0  0  0  0  0  0  0  0  0  0  0
   -0.0450   -0.7536   -1.8066 C   0  0  0  0  0  0  0  0  0  0  0  0
   -1.4137   -1.2365   -1.3528 C   0  0  0  0  0  0  0  0  0  0  0  0
   -2.0677   -0.1631   -0.0400 S   0  0  0  0  0  0  0  0  0  0  0  0
   -3.6877   -0.8378    0.1301 C   0  0  0  0  0  0  0  0  0  0  0  0
   -3.8345   -2.0772   -0.2112 N   0  0  0  0  0  0  0  0  0  0  0  0
   -5.1165   -2.6293   -0.1968 C   0  0  0  0  0  0  0  0  0  0  0  0
   -5.2735   -3.9757   -0.5357 C   0  0  0  0  0  0  0  0  0  0  0  0
   -6.5425   -4.5600   -0.5619 C   0  0  0  0  0  0  0  0  0  0  0  0
   -7.6678   -3.7985   -0.2505 C   0  0  0  0  0  0  0  0  0  0  0  0
   -7.5223   -2.4540    0.0889 C   0  0  0  0  0  0  0  0  0  0  0  0
   -6.2452   -1.8784    0.1126 C   0  0  0  0  0  0  0  0  0  0  0  0
   -6.0526   -0.4666    0.4902 C   0  0  0  0  0  0  0  0  0  0  0  0
   -7.0497    0.1996    0.7656 O   0  0  0  0  0  0  0  0  0  0  0  0
   -4.7321   -0.0062    0.5366 N   0  0  0  0  0  0  0  0  0  0  0  0
   -4.5217    1.3085    1.0639 C   0  0  0  0  0  0  0  0  0  0  0  0
   -5.1875    2.4131    0.5104 C   0  0  0  0  0  0  0  0  0  0  0  0
   -4.9895    3.6917    1.0381 C   0  0  0  0  0  0  0  0  0  0  0  0
   -4.1428    3.8648    2.1282 C   0  0  0  0  0  0  0  0  0  0  0  0
   -3.9607    5.0919    2.6319 F   0  0  0  0  0  0  0  0  0  0  0  0
   -3.4956    2.7850    2.7107 C   0  0  0  0  0  0  0  0  0  0  0  0
   -3.6949    1.5151    2.1803 C   0  0  0  0  0  0  0  0  0  0  0  0
   -3.1178    0.4710    2.7952 F   0  0  0  0  0  0  0  0  0  0  0  0
    0.8864   -0.7228   -0.7806 N   0  0  0  0  0  0  0  0  0  0  0  0
    2.2532   -0.3959   -0.8656 C   0  0  0  0  0  0  0  0  0  0  0  0
    2.9763   -0.3442    0.3279 C   0  0  0  0  0  0  0  0  0  0  0  0
    4.3442   -0.0316    0.3283 C   0  0  0  0  0  0  0  0  0  0  0  0
    5.0329    0.2479   -0.8582 C   0  0  0  0  0  0  0  0  0  0  0  0
    6.4012    0.5533   -0.9100 N   0  0  0  0  0  0  0  0  0  0  0  0
    6.7058    1.8591   -1.5482 C   0  0  0  0  0  0  0  0  0  0  0  0
    8.2196    1.9886   -1.7879 C   0  0  0  0  0  0  0  0  0  0  0  0
    8.9688    1.8120   -0.5750 O   0  0  0  0  0  0  0  0  0  0  0  0
    8.7060    0.5115   -0.0247 C   0  0  0  0  0  0  0  0  0  0  0  0
    7.2155    0.3344    0.3046 C   0  0  0  0  0  0  0  0  0  0  0  0
    4.2911    0.1704   -2.0475 C   0  0  0  0  0  0  0  0  0  0  0  0
    2.9234   -0.1413   -2.0565 C   0  0  0  0  0  0  0  0  0  0  0  0
   -2.0897   -1.2183   -2.2138 H   0  0  0  0  0  0  0  0  0  0  0  0
   -1.3143   -2.2683   -1.0001 H   0  0  0  0  0  0  0  0  0  0  0  0
   -4.3996   -4.5728   -0.7850 H   0  0  0  0  0  0  0  0  0  0  0  0
   -6.6511   -5.6090   -0.8275 H   0  0  0  0  0  0  0  0  0  0  0  0
   -8.6564   -4.2516   -0.2700 H   0  0  0  0  0  0  0  0  0  0  0  0
   -8.3997   -1.8604    0.3377 H   0  0  0  0  0  0  0  0  0  0  0  0
   -5.8574    2.2895   -0.3381 H   0  0  0  0  0  0  0  0  0  0  0  0
   -5.4961    4.5514    0.6092 H   0  0  0  0  0  0  0  0  0  0  0  0
   -2.8569    2.9273    3.5743 H   0  0  0  0  0  0  0  0  0  0  0  0
    0.5200   -0.8806    0.1515 H   0  0  0  0  0  0  0  0  0  0  0  0
    2.4932   -0.5428    1.2809 H   0  0  0  0  0  0  0  0  0  0  0  0
    4.8472    0.0015    1.2896 H   0  0  0  0  0  0  0  0  0  0  0  0
    6.1997    1.9787   -2.5115 H   0  0  0  0  0  0  0  0  0  0  0  0
    6.3723    2.6659   -0.8832 H   0  0  0  0  0  0  0  0  0  0  0  0
    8.4491    2.9861   -2.1759 H   0  0  0  0  0  0  0  0  0  0  0  0
    8.5633    1.2556   -2.5278 H   0  0  0  0  0  0  0  0  0  0  0  0
    9.3017    0.4118    0.8881 H   0  0  0  0  0  0  0  0  0  0  0  0
    9.0479   -0.2526   -0.7333 H   0  0  0  0  0  0  0  0  0  0  0  0
    6.9327    1.0631    1.0749 H   0  0  0  0  0  0  0  0  0  0  0  0
    7.0653   -0.6786    0.6953 H   0  0  0  0  0  0  0  0  0  0  0  0
    4.7825    0.3249   -3.0052 H   0  0  0  0  0  0  0  0  0  0  0  0
    2.4228   -0.1882   -3.0180 H   0  0  0  0  0  0  0  0  0  0  0  0
  1  2  2  0
  2  3  1  0
  3  4  1  0
  4  5  1  0
  5  6  2  0
  6  7  1  0
  7  8  2  0
  8  9  1  0
  9 10  2  0
 10 11  1  0
 11 12  2  0
 12 13  1  0
 13 14  2  0
 13 15  1  0
 15 16  1  0
 16 17  2  0
 17 18  1  0
 18 19  2  0
 19 20  1  0
 19 21  1  0
 21 22  2  0
 22 23  1  0
  2 24  1  0
 24 25  1  0
 25 26  2  0
 26 27  1  0
 27 28  2  0
 28 29  1  0
 29 30  1  0
 30 31  1  0
 31 32  1  0
 32 33  1  0
 33 34  1  0
 28 35  1  0
 35 36  2  0
 15  5  1  0
 22 16  1  0
 36 25  1  0
 12  7  1  0
 34 29  1  0
  3 37  1  0
  3 38  1  0
  8 39  1  0
  9 40  1  0
 10 41  1  0
 11 42  1  0
 17 43  1  0
 18 44  1  0
 21 45  1  0
 24 46  1  0
 26 47  1  0
 27 48  1  0
 30 49  1  0
 30 50  1  0
 31 51  1  0
 31 52  1  0
 33 53  1  0
 33 54  1  0
 34 55  1  0
 34 56  1  0
 35 57  1  0
 36 58  1  0
M  END
$$$$
