
     RDKit          3D

 50 53  0  0  0  0  0  0  0  0999 V2000
   -3.8020    2.5332   -1.9441 C   0  0  0  0  0  0  0  0  0  0  0  0
   -4.4673    1.4355   -1.2731 N   0  0  0  0  0  0  0  0  0  0  0  0
   -5.3847    1.5965   -0.2658 C   0  0  0  0  0  0  0  0  0  0  0  0
   -5.8048    0.3494    0.1368 C   0  0  0  0  0  0  0  0  0  0  0  0
   -5.1223   -0.5986   -0.6575 C   0  0  0  0  0  0  0  0  0  0  0  0
   -4.2853    0.0891   -1.5206 C   0  0  0  0  0  0  0  0  0  0  0  0
   -3.3447   -0.4531   -2.5575 C   0  0  0  0  0  0  0  0  0  0  0  0
   -1.9076   -0.2443   -2.2043 C   0  0  0  0  0  0  0  0  0  0  0  0
   -1.1252    0.6414   -2.7955 N   0  0  0  0  0  0  0  0  0  0  0  0
    0.0494    0.7078   -2.1034 N   0  0  0  0  0  0  0  0  0  0  0  0
   -0.0203   -0.1455   -1.1074 C   0  0  0  0  0  0  0  0  0  0  0  0
    1.2955   -0.4851   -0.0298 S   0  0  0  0  0  0  0  0  0  0  0  0
    2.6899    0.1369   -1.0132 C   0  0  0  0  0  0  0  0  0  0  0  0
    3.9683    0.0046   -0.2016 C   0  0  0  0  0  0  0  0  0  0  0  0
    4.6967   -0.9752   -0.3288 O   0  0  0  0  0  0  0  0  0  0  0  0
    4.1722    1.0804    0.6510 N   0  0  0  0  0  0  0  0  0  0  0  0
    5.2515    1.2870    1.5343 C   0  0  0  0  0  0  0  0  0  0  0  0
    5.2179    2.4460    2.3225 C   0  0  0  0  0  0  0  0  0  0  0  0
    6.2483    2.7274    3.2238 C   0  0  0  0  0  0  0  0  0  0  0  0
    7.3244    1.8527    3.3450 C   0  0  0  0  0  0  0  0  0  0  0  0
    7.3671    0.6988    2.5654 C   0  0  0  0  0  0  0  0  0  0  0  0
    6.3351    0.4162    1.6638 C   0  0  0  0  0  0  0  0  0  0  0  0
   -1.2351   -0.8115   -1.1255 N   0  0  0  0  0  0  0  0  0  0  0  0
   -1.7020   -1.8301   -0.2543 C   0  0  0  0  0  0  0  0  0  0  0  0
   -2.2951   -2.9851   -0.7851 C   0  0  0  0  0  0  0  0  0  0  0  0
   -2.7630   -3.9826    0.0731 C   0  0  0  0  0  0  0  0  0  0  0  0
   -2.6373   -3.8230    1.4479 C   0  0  0  0  0  0  0  0  0  0  0  0
   -3.0892   -4.7814    2.2669 F   0  0  0  0  0  0  0  0  0  0  0  0
   -2.0460   -2.6858    1.9846 C   0  0  0  0  0  0  0  0  0  0  0  0
   -1.5721   -1.6847    1.1342 C   0  0  0  0  0  0  0  0  0  0  0  0
   -3.8301    2.3629   -3.0225 H   0  0  0  0  0  0  0  0  0  0  0  0
   -2.7738    2.5851   -1.5785 H   0  0  0  0  0  0  0  0  0  0  0  0
   -4.3196    3.4672   -1.7126 H   0  0  0  0  0  0  0  0  0  0  0  0
   -5.6665    2.5810    0.0854 H   0  0  0  0  0  0  0  0  0  0  0  0
   -6.5299    0.1469    0.9147 H   0  0  0  0  0  0  0  0  0  0  0  0
   -5.2291   -1.6738   -0.6012 H   0  0  0  0  0  0  0  0  0  0  0  0
   -3.5502    0.0443   -3.5144 H   0  0  0  0  0  0  0  0  0  0  0  0
   -3.5535   -1.5110   -2.7417 H   0  0  0  0  0  0  0  0  0  0  0  0
    2.7963   -0.4466   -1.9339 H   0  0  0  0  0  0  0  0  0  0  0  0
    2.5410    1.1861   -1.2915 H   0  0  0  0  0  0  0  0  0  0  0  0
    3.4461    1.7866    0.6716 H   0  0  0  0  0  0  0  0  0  0  0  0
    4.3905    3.1476    2.2480 H   0  0  0  0  0  0  0  0  0  0  0  0
    6.2087    3.6285    3.8302 H   0  0  0  0  0  0  0  0  0  0  0  0
    8.1281    2.0679    4.0440 H   0  0  0  0  0  0  0  0  0  0  0  0
    8.2058    0.0130    2.6537 H   0  0  0  0  0  0  0  0  0  0  0  0
    6.4127   -0.4933    1.0765 H   0  0  0  0  0  0  0  0  0  0  0  0
   -2.3638   -3.1515   -1.8570 H   0  0  0  0  0  0  0  0  0  0  0  0
   -3.2136   -4.8888   -0.3213 H   0  0  0  0  0  0  0  0  0  0  0  0
   -1.9636   -2.5820    3.0621 H   0  0  0  0  0  0  0  0  0  0  0  0
   -1.1476   -0.7868    1.5785 H   0  0  0  0  0  0  0  0  0  0  0  0
  1  2  1  0
  2  3  1  0
  3  4  2  0
  4  5  1  0
  5  6  2  0
  6  7  1  0
  7  8  1  0
  8  9  2  0
  9 10  1  0
 10 11  2  0
 11 12  1  0
 12 13  1  0
 13 14  1  0
 14 15  2  0
 14 16  1  0
 16 17  1  0
 17 18  2  0
 18 19  1  0
 19 20  2  0
 20 21  1  0
 21 22  2  0
 11 23  1  0
 23 24  1  0
 24 25  2  0
 25 26  1  0
 26 27  2  0
 27 28  1  0
 27 29  1  0
 29 30  2  0
  6  2  1  0
 23  8  1  0
 30 24  1  0
 22 17  1  0
  1 31  1  0
  1 32  1  0
  1 33  1  0
  3 34  1  0
  4 35  1  0
  5 36  1  0
  7 37  1  0
  7 38  1  0
 13 39  1  0
 13 40  1  0
 16 41  1  0
 18 42  1  0
 19 43  1  0
 20 44  1  0
 21 45  1  0
 22 46  1  0
 25 47  1  0
 26 48  1  0
 29 49  1  0
 30 50  1  0
M  END
$$$$
