
     RDKit          3D

 49 52  0  0  0  0  0  0  0  0999 V2000
   -3.6987    2.1819    1.7522 O   0  0  0  0  0  0  0  0  0  0  0  0
   -3.8894    1.0966    1.2024 C   0  0  0  0  0  0  0  0  0  0  0  0
   -2.8165    0.3917    0.5240 C   0  0  0  0  0  0  0  0  0  0  0  0
   -2.6442   -0.9681    0.2093 C   0  0  0  0  0  0  0  0  0  0  0  0
   -1.4920   -1.2114   -0.4134 N   0  0  0  0  0  0  0  0  0  0  0  0
   -0.8797   -0.0129   -0.5081 N   0  0  0  0  0  0  0  0  0  0  0  0
    0.4177    0.1070   -1.0789 C   0  0  0  0  0  0  0  0  0  0  0  0
    1.1835    1.2593   -0.8203 C   0  0  0  0  0  0  0  0  0  0  0  0
    2.4953    1.3679   -1.2993 C   0  0  0  0  0  0  0  0  0  0  0  0
    3.0573    0.3256   -2.0404 C   0  0  0  0  0  0  0  0  0  0  0  0
    4.7299    0.4570   -2.6379 S   0  0  0  0  0  6  0  0  0  0  0  0
    5.1441    1.8357   -2.4984 O   0  0  0  0  0  0  0  0  0  0  0  0
    4.7731   -0.2173   -3.9175 O   0  0  0  0  0  0  0  0  0  0  0  0
    5.5908   -0.5091   -1.5584 N   0  0  0  0  0  0  0  0  0  0  0  0
    5.4542   -0.2960   -0.1592 C   0  0  0  0  0  0  0  0  0  0  0  0
    5.8322    0.9120    0.4260 C   0  0  0  0  0  0  0  0  0  0  0  0
    5.6499    1.1100    1.7955 C   0  0  0  0  0  0  0  0  0  0  0  0
    5.0905    0.1007    2.5784 C   0  0  0  0  0  0  0  0  0  0  0  0
    4.7177   -1.1094    1.9943 C   0  0  0  0  0  0  0  0  0  0  0  0
    4.9011   -1.3098    0.6251 C   0  0  0  0  0  0  0  0  0  0  0  0
    2.3090   -0.8096   -2.3489 C   0  0  0  0  0  0  0  0  0  0  0  0
    0.9957   -0.9090   -1.8624 C   0  0  0  0  0  0  0  0  0  0  0  0
    0.2503   -2.0730   -2.3108 N   0  0  0  0  0  4  0  0  0  0  0  0
   -0.6178   -1.8807   -3.1736 O   0  0  0  0  0  0  0  0  0  0  0  0
    0.6253   -3.1725   -1.8792 O   0  0  0  0  0  1  0  0  0  0  0  0
   -1.6433    0.9722    0.0777 C   0  0  0  0  0  0  0  0  0  0  0  0
   -5.2508    0.5126    1.2956 C   0  0  0  0  0  0  0  0  0  0  0  0
   -5.7945   -0.2524    0.2571 C   0  0  0  0  0  0  0  0  0  0  0  0
   -7.0732   -0.7851    0.3962 C   0  0  0  0  0  0  0  0  0  0  0  0
   -7.5851   -1.5229   -0.5969 F   0  0  0  0  0  0  0  0  0  0  0  0
   -7.8295   -0.5637    1.5416 C   0  0  0  0  0  0  0  0  0  0  0  0
   -7.3078    0.2236    2.5658 C   0  0  0  0  0  0  0  0  0  0  0  0
   -6.0321    0.7716    2.4345 C   0  0  0  0  0  0  0  0  0  0  0  0
   -5.6071    1.5632    3.4677 O   0  0  0  0  0  0  0  0  0  0  0  0
   -3.3012   -1.8059    0.4110 H   0  0  0  0  0  0  0  0  0  0  0  0
    0.8073    2.0810   -0.2147 H   0  0  0  0  0  0  0  0  0  0  0  0
    3.0762    2.2616   -1.0723 H   0  0  0  0  0  0  0  0  0  0  0  0
    5.7051   -1.4655   -1.8901 H   0  0  0  0  0  0  0  0  0  0  0  0
    6.2816    1.7021   -0.1709 H   0  0  0  0  0  0  0  0  0  0  0  0
    5.9500    2.0504    2.2516 H   0  0  0  0  0  0  0  0  0  0  0  0
    4.9517    0.2552    3.6460 H   0  0  0  0  0  0  0  0  0  0  0  0
    4.2857   -1.8974    2.6067 H   0  0  0  0  0  0  0  0  0  0  0  0
    4.6015   -2.2570    0.1853 H   0  0  0  0  0  0  0  0  0  0  0  0
    2.7318   -1.6000   -2.9675 H   0  0  0  0  0  0  0  0  0  0  0  0
   -1.3287    2.0051    0.1163 H   0  0  0  0  0  0  0  0  0  0  0  0
   -5.2626   -0.4327   -0.6718 H   0  0  0  0  0  0  0  0  0  0  0  0
   -8.8238   -0.9923    1.6233 H   0  0  0  0  0  0  0  0  0  0  0  0
   -7.8957    0.4216    3.4587 H   0  0  0  0  0  0  0  0  0  0  0  0
   -4.8348    2.0882    3.1606 H   0  0  0  0  0  0  0  0  0  0  0  0
  1  2  2  0
  2  3  1  0
  3  4  1  0
  4  5  2  0
  5  6  1  0
  6  7  1  0
  7  8  2  0
  8  9  1  0
  9 10  2  0
 10 11  1  0
 11 12  2  0
 11 13  2  0
 11 14  1  0
 14 15  1  0
 15 16  2  0
 16 17  1  0
 17 18  2  0
 18 19  1  0
 19 20  2  0
 10 21  1  0
 21 22  2  0
 22 23  1  0
 23 24  2  0
 23 25  1  0
  6 26  1  0
  2 27  1  0
 27 28  2  0
 28 29  1  0
 29 30  1  0
 29 31  2  0
 31 32  1  0
 32 33  2  0
 33 34  1  0
 26  3  2  0
 33 27  1  0
 22  7  1  0
 20 15  1  0
  4 35  1  0
  8 36  1  0
  9 37  1  0
 14 38  1  0
 16 39  1  0
 17 40  1  0
 18 41  1  0
 19 42  1  0
 20 43  1  0
 21 44  1  0
 26 45  1  0
 28 46  1  0
 31 47  1  0
 32 48  1  0
 34 49  1  0
M  CHG  2  23   1  25  -1
M  END
$$$$
