
     RDKit          3D

 53 58  0  0  0  0  0  0  0  0999 V2000
    0.9966   -1.4821   -1.1759 O   0  0  0  0  0  0  0  0  0  0  0  0
    1.3092   -1.1661   -0.0242 C   0  0  0  0  0  0  0  0  0  0  0  0
    0.1760   -0.8798    0.9832 C   0  0  0  0  0  0  0  0  0  0  0  0
   -1.0068   -0.2846    0.3220 N   0  0  0  0  0  4  0  0  0  0  0  0
   -2.3373   -0.6511    0.5168 C   0  0  0  0  0  0  0  0  0  0  0  0
   -3.1475    0.1234   -0.3075 C   0  0  0  0  0  0  0  0  0  0  0  0
   -4.7123    0.0297   -0.4323 C   0  0  0  0  0  0  0  0  0  0  0  0
   -5.4014    0.8120   -1.3619 C   0  0  0  0  0  0  0  0  0  0  0  0
   -6.7930    0.7246   -1.4575 C   0  0  0  0  0  0  0  0  0  0  0  0
   -7.4887   -0.1447   -0.6290 C   0  0  0  0  0  0  0  0  0  0  0  0
   -8.8202   -0.2214   -0.7199 F   0  0  0  0  0  0  0  0  0  0  0  0
   -6.8181   -0.9338    0.2935 C   0  0  0  0  0  0  0  0  0  0  0  0
   -5.4267   -0.8501    0.3937 C   0  0  0  0  0  0  0  0  0  0  0  0
   -2.2459    0.9520   -0.9496 N   0  0  0  0  0  0  0  0  0  0  0  0
   -0.9915    0.6769   -0.5991 C   0  0  0  0  0  0  0  0  0  0  0  0
    0.0039    1.5352   -1.2869 C   0  0  0  0  0  0  0  0  0  0  0  0
   -0.8842    2.6416   -1.8894 C   0  0  0  0  0  0  0  0  0  0  0  0
   -2.3112    2.0304   -1.9282 C   0  0  0  0  0  0  0  0  0  0  0  0
    2.6094   -0.8678    0.4208 N   0  0  0  0  0  0  0  0  0  0  0  0
    2.9882   -0.9818    1.8050 C   0  0  0  0  0  0  0  0  0  0  0  0
    2.4753   -2.0442    2.5755 C   0  0  0  0  0  0  0  0  0  0  0  0
    2.8088   -2.1885    3.9250 C   0  0  0  0  0  0  0  0  0  0  0  0
    3.6730   -1.2825    4.5263 C   0  0  0  0  0  0  0  0  0  0  0  0
    4.2187   -0.2461    3.7725 C   0  0  0  0  0  0  0  0  0  0  0  0
    3.8967   -0.1028    2.4147 C   0  0  0  0  0  0  0  0  0  0  0  0
    4.6377    1.2357    1.5213 S   0  0  0  0  0  0  0  0  0  0  0  0
    4.6135    0.5149   -0.1047 C   0  0  0  0  0  0  0  0  0  0  0  0
    5.5767    0.9695   -1.0180 C   0  0  0  0  0  0  0  0  0  0  0  0
    5.5895    0.4987   -2.3263 C   0  0  0  0  0  0  0  0  0  0  0  0
    4.6355   -0.4251   -2.7287 C   0  0  0  0  0  0  0  0  0  0  0  0
    3.6676   -0.8734   -1.8248 C   0  0  0  0  0  0  0  0  0  0  0  0
    3.6300   -0.4152   -0.4968 C   0  0  0  0  0  0  0  0  0  0  0  0
   -0.1298   -1.8242    1.4420 H   0  0  0  0  0  0  0  0  0  0  0  0
    0.4810   -0.1664    1.7529 H   0  0  0  0  0  0  0  0  0  0  0  0
   -2.5423   -1.4398    1.2207 H   0  0  0  0  0  0  0  0  0  0  0  0
   -4.8932    1.4898   -2.0346 H   0  0  0  0  0  0  0  0  0  0  0  0
   -7.3413    1.3281   -2.1730 H   0  0  0  0  0  0  0  0  0  0  0  0
   -7.3853   -1.6064    0.9302 H   0  0  0  0  0  0  0  0  0  0  0  0
   -4.9365   -1.4791    1.1299 H   0  0  0  0  0  0  0  0  0  0  0  0
    0.7232    1.9036   -0.5546 H   0  0  0  0  0  0  0  0  0  0  0  0
    0.4740    0.9262   -2.0604 H   0  0  0  0  0  0  0  0  0  0  0  0
   -0.5414    2.9800   -2.8728 H   0  0  0  0  0  0  0  0  0  0  0  0
   -0.8851    3.5078   -1.2152 H   0  0  0  0  0  0  0  0  0  0  0  0
   -2.5327    1.6018   -2.9105 H   0  0  0  0  0  0  0  0  0  0  0  0
   -3.0605    2.7734   -1.6455 H   0  0  0  0  0  0  0  0  0  0  0  0
    1.8645   -2.8240    2.1276 H   0  0  0  0  0  0  0  0  0  0  0  0
    2.4212   -3.0257    4.5013 H   0  0  0  0  0  0  0  0  0  0  0  0
    3.9459   -1.3946    5.5746 H   0  0  0  0  0  0  0  0  0  0  0  0
    4.9165    0.4414    4.2513 H   0  0  0  0  0  0  0  0  0  0  0  0
    6.3276    1.6993   -0.7143 H   0  0  0  0  0  0  0  0  0  0  0  0
    6.3441    0.8485   -3.0263 H   0  0  0  0  0  0  0  0  0  0  0  0
    4.6500   -0.8130   -3.7446 H   0  0  0  0  0  0  0  0  0  0  0  0
    2.9785   -1.6303   -2.1884 H   0  0  0  0  0  0  0  0  0  0  0  0
  1  2  2  0
  2  3  1  0
  3  4  1  0
  4  5  1  0
  5  6  2  0
  6  7  1  0
  7  8  2  0
  8  9  1  0
  9 10  2  0
 10 11  1  0
 10 12  1  0
 12 13  2  0
  6 14  1  0
 14 15  1  0
 15 16  1  0
 16 17  1  0
 17 18  1  0
  2 19  1  0
 19 20  1  0
 20 21  2  0
 21 22  1  0
 22 23  2  0
 23 24  1  0
 24 25  2  0
 25 26  1  0
 26 27  1  0
 27 28  2  0
 28 29  1  0
 29 30  2  0
 30 31  1  0
 31 32  2  0
 15  4  2  0
 32 19  1  0
 13  7  1  0
 18 14  1  0
 25 20  1  0
 32 27  1  0
  3 33  1  0
  3 34  1  0
  5 35  1  0
  8 36  1  0
  9 37  1  0
 12 38  1  0
 13 39  1  0
 16 40  1  0
 16 41  1  0
 17 42  1  0
 17 43  1  0
 18 44  1  0
 18 45  1  0
 21 46  1  0
 22 47  1  0
 23 48  1  0
 24 49  1  0
 28 50  1  0
 29 51  1  0
 30 52  1  0
 31 53  1  0
M  CHG  1   4   1
M  END
$$$$
