
     RDKit          3D

 64 67  0  0  0  0  0  0  0  0999 V2000
    8.6124   -1.8904    1.7243 C   0  0  0  0  0  0  0  0  0  0  0  0
    7.2949   -2.3964    1.5300 O   0  0  0  0  0  0  0  0  0  0  0  0
    6.3820   -1.5407    0.9748 C   0  0  0  0  0  0  0  0  0  0  0  0
    6.5959   -0.1936    0.6874 C   0  0  0  0  0  0  0  0  0  0  0  0
    5.5755    0.5743    0.1113 C   0  0  0  0  0  0  0  0  0  0  0  0
    4.3368    0.0027   -0.1898 C   0  0  0  0  0  0  0  0  0  0  0  0
    3.2807    0.7090   -0.8138 N   0  0  0  0  0  0  0  0  0  0  0  0
    3.2185    2.0548   -1.1132 C   0  0  0  0  0  0  0  0  0  0  0  0
    4.0647    2.8996   -0.8190 O   0  0  0  0  0  0  0  0  0  0  0  0
    1.9900    2.4493   -1.9158 C   0  0  0  0  0  0  0  0  0  0  0  0
    0.4965    2.4482   -0.8818 S   0  0  0  0  0  0  0  0  0  0  0  0
   -0.1686    0.9092   -1.2983 C   0  0  0  0  0  0  0  0  0  0  0  0
    0.5162   -0.1250   -1.7158 N   0  0  0  0  0  0  0  0  0  0  0  0
   -0.3749   -1.1229   -2.0091 N   0  0  0  0  0  0  0  0  0  0  0  0
   -1.5943   -0.6757   -1.7701 C   0  0  0  0  0  0  0  0  0  0  0  0
   -2.8533   -1.4347   -2.0327 C   0  0  0  0  0  0  0  0  0  0  0  0
   -3.6054   -1.8114   -0.7905 C   0  0  0  0  0  0  0  0  0  0  0  0
   -4.8664   -1.4110   -0.3798 C   0  0  0  0  0  0  0  0  0  0  0  0
   -5.1460   -2.0433    0.8546 C   0  0  0  0  0  0  0  0  0  0  0  0
   -4.0635   -2.8347    1.1607 C   0  0  0  0  0  0  0  0  0  0  0  0
   -3.1349   -2.7005    0.1569 N   0  0  0  0  0  0  0  0  0  0  0  0
   -1.8675   -3.4054    0.1226 C   0  0  0  0  0  0  0  0  0  0  0  0
   -1.5069    0.6117   -1.2850 N   0  0  0  0  0  0  0  0  0  0  0  0
   -2.6007    1.5023   -0.9489 C   0  0  0  0  0  0  0  0  0  0  0  0
   -2.8201    1.6454    0.5616 C   0  0  0  0  0  0  0  0  0  0  0  0
   -3.8653    2.6942    0.8570 C   0  0  0  0  0  0  0  0  0  0  0  0
   -5.2199    2.3470    0.9529 C   0  0  0  0  0  0  0  0  0  0  0  0
   -6.1881    3.3277    1.1753 C   0  0  0  0  0  0  0  0  0  0  0  0
   -5.8079    4.6609    1.3208 C   0  0  0  0  0  0  0  0  0  0  0  0
   -4.4604    5.0149    1.2428 C   0  0  0  0  0  0  0  0  0  0  0  0
   -3.4928    4.0381    1.0069 C   0  0  0  0  0  0  0  0  0  0  0  0
    4.1200   -1.3594    0.0995 C   0  0  0  0  0  0  0  0  0  0  0  0
    2.8709   -1.8391   -0.2228 O   0  0  0  0  0  0  0  0  0  0  0  0
    2.6851   -3.2466   -0.1830 C   0  0  0  0  0  0  0  0  0  0  0  0
    5.1382   -2.1161    0.6897 C   0  0  0  0  0  0  0  0  0  0  0  0
    9.2449   -2.7140    2.0753 H   0  0  0  0  0  0  0  0  0  0  0  0
    8.6227   -1.1120    2.4947 H   0  0  0  0  0  0  0  0  0  0  0  0
    9.0459   -1.5251    0.7874 H   0  0  0  0  0  0  0  0  0  0  0  0
    7.5451    0.2970    0.8914 H   0  0  0  0  0  0  0  0  0  0  0  0
    5.7913    1.6146   -0.1066 H   0  0  0  0  0  0  0  0  0  0  0  0
    2.4588    0.1358   -1.0164 H   0  0  0  0  0  0  0  0  0  0  0  0
    2.1450    3.4690   -2.2871 H   0  0  0  0  0  0  0  0  0  0  0  0
    1.8947    1.8072   -2.7969 H   0  0  0  0  0  0  0  0  0  0  0  0
   -2.6069   -2.3480   -2.5909 H   0  0  0  0  0  0  0  0  0  0  0  0
   -3.5010   -0.8461   -2.6959 H   0  0  0  0  0  0  0  0  0  0  0  0
   -5.5160   -0.7288   -0.9160 H   0  0  0  0  0  0  0  0  0  0  0  0
   -6.0394   -1.9449    1.4556 H   0  0  0  0  0  0  0  0  0  0  0  0
   -3.8900   -3.4908    2.0086 H   0  0  0  0  0  0  0  0  0  0  0  0
   -1.7637   -3.8938   -0.8508 H   0  0  0  0  0  0  0  0  0  0  0  0
   -1.8550   -4.1627    0.9123 H   0  0  0  0  0  0  0  0  0  0  0  0
   -1.0656   -2.6846    0.3050 H   0  0  0  0  0  0  0  0  0  0  0  0
   -3.5110    1.1374   -1.4362 H   0  0  0  0  0  0  0  0  0  0  0  0
   -2.3905    2.4709   -1.4171 H   0  0  0  0  0  0  0  0  0  0  0  0
   -3.1227    0.6851    1.0004 H   0  0  0  0  0  0  0  0  0  0  0  0
   -1.8866    1.9191    1.0696 H   0  0  0  0  0  0  0  0  0  0  0  0
   -5.5333    1.3102    0.8479 H   0  0  0  0  0  0  0  0  0  0  0  0
   -7.2426    3.0553    1.2276 H   0  0  0  0  0  0  0  0  0  0  0  0
   -6.5636    5.4244    1.4911 H   0  0  0  0  0  0  0  0  0  0  0  0
   -4.1663    6.0557    1.3574 H   0  0  0  0  0  0  0  0  0  0  0  0
   -2.4488    4.3336    0.9330 H   0  0  0  0  0  0  0  0  0  0  0  0
    2.7482   -3.6232    0.8435 H   0  0  0  0  0  0  0  0  0  0  0  0
    1.6725   -3.4587   -0.5468 H   0  0  0  0  0  0  0  0  0  0  0  0
    3.3946   -3.7614   -0.8400 H   0  0  0  0  0  0  0  0  0  0  0  0
    4.9980   -3.1634    0.9397 H   0  0  0  0  0  0  0  0  0  0  0  0
  1  2  1  0
  2  3  1  0
  3  4  2  0
  4  5  1  0
  5  6  2  0
  6  7  1  0
  7  8  1  0
  8  9  2  0
  8 10  1  0
 10 11  1  0
 11 12  1  0
 12 13  2  0
 13 14  1  0
 14 15  2  0
 15 16  1  0
 16 17  1  0
 17 18  2  0
 18 19  1  0
 19 20  2  0
 20 21  1  0
 21 22  1  0
 15 23  1  0
 23 24  1  0
 24 25  1  0
 25 26  1  0
 26 27  2  0
 27 28  1  0
 28 29  2  0
 29 30  1  0
 30 31  2  0
  6 32  1  0
 32 33  1  0
 33 34  1  0
 32 35  2  0
 35  3  1  0
 23 12  1  0
 31 26  1  0
 21 17  1  0
  1 36  1  0
  1 37  1  0
  1 38  1  0
  4 39  1  0
  5 40  1  0
  7 41  1  0
 10 42  1  0
 10 43  1  0
 16 44  1  0
 16 45  1  0
 18 46  1  0
 19 47  1  0
 20 48  1  0
 22 49  1  0
 22 50  1  0
 22 51  1  0
 24 52  1  0
 24 53  1  0
 25 54  1  0
 25 55  1  0
 27 56  1  0
 28 57  1  0
 29 58  1  0
 30 59  1  0
 31 60  1  0
 34 61  1  0
 34 62  1  0
 34 63  1  0
 35 64  1  0
M  END
$$$$
