
     RDKit          3D

 53 55  0  0  0  0  0  0  0  0999 V2000
   -7.3979   -4.7935    3.2142 C   0  0  0  0  0  0  0  0  0  0  0  0
   -5.9800   -4.7199    3.2975 O   0  0  0  0  0  0  0  0  0  0  0  0
   -5.3509   -3.8699    2.4305 C   0  0  0  0  0  0  0  0  0  0  0  0
   -3.9540   -3.8846    2.5129 C   0  0  0  0  0  0  0  0  0  0  0  0
   -3.1824   -3.0657    1.6874 C   0  0  0  0  0  0  0  0  0  0  0  0
   -3.8195   -2.2191    0.7787 C   0  0  0  0  0  0  0  0  0  0  0  0
   -2.8339   -1.1771   -0.2652 S   0  0  0  0  0  6  0  0  0  0  0  0
   -3.7147   -0.4561   -1.1589 O   0  0  0  0  0  0  0  0  0  0  0  0
   -1.7403   -1.9746   -0.7731 O   0  0  0  0  0  0  0  0  0  0  0  0
   -2.1988   -0.0657    0.8347 N   0  0  0  0  0  0  0  0  0  0  0  0
   -3.1428    0.8249    1.5237 C   0  0  0  0  0  0  0  0  0  0  0  0
   -2.2334    1.9420    1.9771 C   0  0  0  0  0  0  0  0  0  0  0  0
   -1.3104    2.1088    0.8979 O   0  0  0  0  0  0  0  0  0  0  0  0
   -1.1611    0.8168    0.2593 C   0  0  0  0  0  0  0  0  0  0  0  0
    0.2503    0.2802    0.5623 C   0  0  0  0  0  0  0  0  0  0  0  0
    1.2944    1.1902    0.1229 N   0  0  0  0  0  0  0  0  0  0  0  0
    2.6087    0.7972    0.0374 C   0  0  0  0  0  0  0  0  0  0  0  0
    3.0300   -0.3457    0.1442 O   0  0  0  0  0  0  0  0  0  0  0  0
    3.5932    1.9650   -0.2023 C   0  0  0  0  0  0  0  0  0  0  0  0
    3.1853    3.1176   -0.2266 O   0  0  0  0  0  0  0  0  0  0  0  0
    4.8934    1.5554   -0.3754 N   0  0  0  0  0  0  0  0  0  0  0  0
    5.9429    2.4591   -0.7651 C   0  0  0  0  0  0  0  0  0  0  0  0
    6.1481    2.4332   -2.2582 C   0  0  0  0  0  0  0  0  0  0  0  0
    7.0910    1.5681   -2.8360 C   0  0  0  0  0  0  0  0  0  0  0  0
    7.2597    1.5338   -4.2213 C   0  0  0  0  0  0  0  0  0  0  0  0
    6.4827    2.3564   -5.0283 C   0  0  0  0  0  0  0  0  0  0  0  0
    6.6465    2.3210   -6.3573 F   0  0  0  0  0  0  0  0  0  0  0  0
    5.5364    3.2116   -4.4775 C   0  0  0  0  0  0  0  0  0  0  0  0
    5.3659    3.2483   -3.0931 C   0  0  0  0  0  0  0  0  0  0  0  0
   -5.2125   -2.1988    0.6796 C   0  0  0  0  0  0  0  0  0  0  0  0
   -5.9770   -3.0251    1.5102 C   0  0  0  0  0  0  0  0  0  0  0  0
   -7.7380   -5.5305    3.9481 H   0  0  0  0  0  0  0  0  0  0  0  0
   -7.7188   -5.1358    2.2248 H   0  0  0  0  0  0  0  0  0  0  0  0
   -7.8574   -3.8330    3.4694 H   0  0  0  0  0  0  0  0  0  0  0  0
   -3.4648   -4.5472    3.2238 H   0  0  0  0  0  0  0  0  0  0  0  0
   -2.0972   -3.0944    1.7549 H   0  0  0  0  0  0  0  0  0  0  0  0
   -3.6362    0.3371    2.3672 H   0  0  0  0  0  0  0  0  0  0  0  0
   -3.8931    1.2147    0.8280 H   0  0  0  0  0  0  0  0  0  0  0  0
   -1.6673    1.6651    2.8735 H   0  0  0  0  0  0  0  0  0  0  0  0
   -2.7663    2.8775    2.1664 H   0  0  0  0  0  0  0  0  0  0  0  0
   -1.2950    0.9829   -0.8151 H   0  0  0  0  0  0  0  0  0  0  0  0
    0.3858    0.1579    1.6438 H   0  0  0  0  0  0  0  0  0  0  0  0
    0.4143   -0.6975    0.0983 H   0  0  0  0  0  0  0  0  0  0  0  0
    1.1310    2.1935    0.1965 H   0  0  0  0  0  0  0  0  0  0  0  0
    5.0450    0.5520   -0.4266 H   0  0  0  0  0  0  0  0  0  0  0  0
    5.7132    3.4774   -0.4311 H   0  0  0  0  0  0  0  0  0  0  0  0
    6.8569    2.1460   -0.2487 H   0  0  0  0  0  0  0  0  0  0  0  0
    7.6978    0.9165   -2.2112 H   0  0  0  0  0  0  0  0  0  0  0  0
    7.9881    0.8701   -4.6760 H   0  0  0  0  0  0  0  0  0  0  0  0
    4.9356    3.8399   -5.1270 H   0  0  0  0  0  0  0  0  0  0  0  0
    4.6160    3.9116   -2.6641 H   0  0  0  0  0  0  0  0  0  0  0  0
   -5.7112   -1.5515   -0.0387 H   0  0  0  0  0  0  0  0  0  0  0  0
   -7.0572   -2.9882    1.4117 H   0  0  0  0  0  0  0  0  0  0  0  0
  1  2  1  0
  2  3  1  0
  3  4  2  0
  4  5  1  0
  5  6  2  0
  6  7  1  0
  7  8  2  0
  7  9  2  0
  7 10  1  0
 10 11  1  0
 11 12  1  0
 12 13  1  0
 13 14  1  0
 14 15  1  0
 15 16  1  0
 16 17  1  0
 17 18  2  0
 17 19  1  0
 19 20  2  0
 19 21  1  0
 21 22  1  0
 22 23  1  0
 23 24  2  0
 24 25  1  0
 25 26  2  0
 26 27  1  0
 26 28  1  0
 28 29  2  0
  6 30  1  0
 30 31  2  0
 31  3  1  0
 14 10  1  0
 29 23  1  0
  1 32  1  0
  1 33  1  0
  1 34  1  0
  4 35  1  0
  5 36  1  0
 11 37  1  0
 11 38  1  0
 12 39  1  0
 12 40  1  0
 14 41  1  0
 15 42  1  0
 15 43  1  0
 16 44  1  0
 21 45  1  0
 22 46  1  0
 22 47  1  0
 24 48  1  0
 25 49  1  0
 28 50  1  0
 29 51  1  0
 30 52  1  0
 31 53  1  0
M  END
$$$$
