
     RDKit          3D

 68 70  0  0  0  0  0  0  0  0999 V2000
   -4.8248    5.6434    0.8716 C   0  0  0  0  0  0  0  0  0  0  0  0
   -4.7943    4.3824    1.5283 O   0  0  0  0  0  0  0  0  0  0  0  0
   -4.0123    3.4115    0.9672 C   0  0  0  0  0  0  0  0  0  0  0  0
   -3.3316    3.5055   -0.2454 C   0  0  0  0  0  0  0  0  0  0  0  0
   -2.5595    2.4323   -0.7048 C   0  0  0  0  0  0  0  0  0  0  0  0
   -2.4616    1.2445    0.0382 C   0  0  0  0  0  0  0  0  0  0  0  0
   -1.5893    0.0986   -0.4801 C   0  0  0  0  0  0  0  0  0  0  0  0
   -2.2198   -1.3081   -0.2239 C   0  0  0  0  0  0  0  0  0  0  0  0
   -1.6476   -2.2058    0.3901 O   0  0  0  0  0  0  0  0  0  0  0  0
   -3.4905   -1.4629   -0.7653 N   0  0  0  0  0  0  0  0  0  0  0  0
   -4.3378   -2.6527   -0.5942 C   0  0  0  0  0  0  0  0  0  0  0  0
   -3.6617   -3.9081   -1.1684 C   0  0  0  0  0  0  0  0  0  0  0  0
   -4.6803   -2.8651    0.8882 C   0  0  0  0  0  0  0  0  0  0  0  0
   -5.6481   -2.4176   -1.3690 C   0  0  0  0  0  0  0  0  0  0  0  0
   -0.1727    0.1751   -0.0540 N   0  0  0  0  0  0  0  0  0  0  0  0
    0.7715   -0.3948   -0.9114 C   0  0  0  0  0  0  0  0  0  0  0  0
    0.4658   -0.8319   -2.0244 O   0  0  0  0  0  0  0  0  0  0  0  0
    2.2202   -0.3992   -0.4449 C   0  0  0  0  0  0  0  0  0  0  0  0
    3.1631   -0.8350   -1.5626 C   0  0  0  0  0  0  0  0  0  0  0  0
    4.6176   -0.6815   -1.1657 C   0  0  0  0  0  0  0  0  0  0  0  0
    4.9592   -0.2799   -0.0586 O   0  0  0  0  0  0  0  0  0  0  0  0
    5.4665   -1.0375   -2.1887 N   0  0  0  0  0  0  0  0  0  0  0  0
    6.8410   -0.9645   -2.1431 C   0  0  0  0  0  0  0  0  0  0  0  0
    7.6845   -0.5447   -1.0919 C   0  0  0  0  0  0  0  0  0  0  0  0
    8.9546   -0.6609   -1.6003 C   0  0  0  0  0  0  0  0  0  0  0  0
   10.3018   -0.3900   -1.0717 C   0  0  0  0  0  0  0  0  0  0  0  0
    8.8824   -1.1248   -2.8747 O   0  0  0  0  0  0  0  0  0  0  0  0
    7.5566   -1.3188   -3.2170 N   0  0  0  0  0  0  0  0  0  0  0  0
    0.1168    0.4442    1.3101 C   0  0  0  0  0  0  0  0  0  0  0  0
    0.3238   -0.5965    2.2232 C   0  0  0  0  0  0  0  0  0  0  0  0
    0.6118   -0.3139    3.5609 C   0  0  0  0  0  0  0  0  0  0  0  0
    0.7015    1.0093    3.9871 C   0  0  0  0  0  0  0  0  0  0  0  0
    0.5036    2.0378    3.0727 C   0  0  0  0  0  0  0  0  0  0  0  0
    0.5978    3.3094    3.4823 F   0  0  0  0  0  0  0  0  0  0  0  0
    0.2147    1.7698    1.7396 C   0  0  0  0  0  0  0  0  0  0  0  0
   -3.1473    1.1617    1.2593 C   0  0  0  0  0  0  0  0  0  0  0  0
   -3.9173    2.2351    1.7123 C   0  0  0  0  0  0  0  0  0  0  0  0
   -5.4470    6.3161    1.4693 H   0  0  0  0  0  0  0  0  0  0  0  0
   -3.8239    6.0832    0.8095 H   0  0  0  0  0  0  0  0  0  0  0  0
   -5.2825    5.5593   -0.1194 H   0  0  0  0  0  0  0  0  0  0  0  0
   -3.3767    4.4005   -0.8573 H   0  0  0  0  0  0  0  0  0  0  0  0
   -2.0264    2.5360   -1.6487 H   0  0  0  0  0  0  0  0  0  0  0  0
   -1.5971    0.1877   -1.5769 H   0  0  0  0  0  0  0  0  0  0  0  0
   -3.9422   -0.6263   -1.1182 H   0  0  0  0  0  0  0  0  0  0  0  0
   -2.7594   -4.1826   -0.6136 H   0  0  0  0  0  0  0  0  0  0  0  0
   -3.3685   -3.7527   -2.2132 H   0  0  0  0  0  0  0  0  0  0  0  0
   -4.3368   -4.7716   -1.1328 H   0  0  0  0  0  0  0  0  0  0  0  0
   -3.7903   -3.0894    1.4851 H   0  0  0  0  0  0  0  0  0  0  0  0
   -5.3791   -3.6995    1.0169 H   0  0  0  0  0  0  0  0  0  0  0  0
   -5.1422   -1.9682    1.3168 H   0  0  0  0  0  0  0  0  0  0  0  0
   -6.3290   -3.2713   -1.2741 H   0  0  0  0  0  0  0  0  0  0  0  0
   -5.4508   -2.2597   -2.4360 H   0  0  0  0  0  0  0  0  0  0  0  0
   -6.1729   -1.5281   -1.0000 H   0  0  0  0  0  0  0  0  0  0  0  0
    2.3281   -1.0888    0.3982 H   0  0  0  0  0  0  0  0  0  0  0  0
    2.4859    0.6106   -0.1119 H   0  0  0  0  0  0  0  0  0  0  0  0
    2.9794   -1.8841   -1.8221 H   0  0  0  0  0  0  0  0  0  0  0  0
    2.9903   -0.2288   -2.4602 H   0  0  0  0  0  0  0  0  0  0  0  0
    5.1008   -1.3675   -3.0718 H   0  0  0  0  0  0  0  0  0  0  0  0
    7.4126   -0.2007   -0.1052 H   0  0  0  0  0  0  0  0  0  0  0  0
   10.6445    0.5985   -1.3922 H   0  0  0  0  0  0  0  0  0  0  0  0
   10.3033   -0.4153    0.0223 H   0  0  0  0  0  0  0  0  0  0  0  0
   11.0200   -1.1353   -1.4276 H   0  0  0  0  0  0  0  0  0  0  0  0
    0.2536   -1.6348    1.9057 H   0  0  0  0  0  0  0  0  0  0  0  0
    0.7654   -1.1272    4.2653 H   0  0  0  0  0  0  0  0  0  0  0  0
    0.9260    1.2465    5.0224 H   0  0  0  0  0  0  0  0  0  0  0  0
    0.0724    2.5980    1.0536 H   0  0  0  0  0  0  0  0  0  0  0  0
   -3.0777    0.2706    1.8811 H   0  0  0  0  0  0  0  0  0  0  0  0
   -4.4379    2.1584    2.6640 H   0  0  0  0  0  0  0  0  0  0  0  0
  1  2  1  0
  2  3  1  0
  3  4  2  0
  4  5  1  0
  5  6  2  0
  6  7  1  0
  7  8  1  0
  8  9  2  0
  8 10  1  0
 10 11  1  0
 11 12  1  0
 11 13  1  0
 11 14  1  0
  7 15  1  0
 15 16  1  0
 16 17  2  0
 16 18  1  0
 18 19  1  0
 19 20  1  0
 20 21  2  0
 20 22  1  0
 22 23  1  0
 23 24  1  0
 24 25  2  0
 25 26  1  0
 25 27  1  0
 27 28  1  0
 15 29  1  0
 29 30  2  0
 30 31  1  0
 31 32  2  0
 32 33  1  0
 33 34  1  0
 33 35  2  0
  6 36  1  0
 36 37  2  0
 37  3  1  0
 28 23  2  0
 35 29  1  0
  1 38  1  0
  1 39  1  0
  1 40  1  0
  4 41  1  0
  5 42  1  0
  7 43  1  0
 10 44  1  0
 12 45  1  0
 12 46  1  0
 12 47  1  0
 13 48  1  0
 13 49  1  0
 13 50  1  0
 14 51  1  0
 14 52  1  0
 14 53  1  0
 18 54  1  0
 18 55  1  0
 19 56  1  0
 19 57  1  0
 22 58  1  0
 24 59  1  0
 26 60  1  0
 26 61  1  0
 26 62  1  0
 30 63  1  0
 31 64  1  0
 32 65  1  0
 35 66  1  0
 36 67  1  0
 37 68  1  0
M  END
$$$$
