
     RDKit          3D

 51 54  0  0  0  0  0  0  0  0999 V2000
    7.9507   -1.4313   -0.4972 N   0  0  0  0  0  0  0  0  0  0  0  0
    6.5532   -2.0485   -1.1974 S   0  0  0  0  0  6  0  0  0  0  0  0
    6.4993   -3.4269   -0.7651 O   0  0  0  0  0  0  0  0  0  0  0  0
    6.5941   -1.6711   -2.5903 O   0  0  0  0  0  0  0  0  0  0  0  0
    5.2628   -1.1438   -0.3987 C   0  0  0  0  0  0  0  0  0  0  0  0
    5.3839    0.2356   -0.2205 C   0  0  0  0  0  0  0  0  0  0  0  0
    4.3764    0.9376    0.4500 C   0  0  0  0  0  0  0  0  0  0  0  0
    3.2514    0.2693    0.9391 C   0  0  0  0  0  0  0  0  0  0  0  0
    2.2051    0.8967    1.6425 N   0  0  0  0  0  0  0  0  0  0  0  0
    2.0188    2.2486    1.8758 C   0  0  0  0  0  0  0  0  0  0  0  0
    2.7321    3.1589    1.4619 O   0  0  0  0  0  0  0  0  0  0  0  0
    0.8035    2.5479    2.7452 C   0  0  0  0  0  0  0  0  0  0  0  0
   -0.7068    2.6872    1.7449 S   0  0  0  0  0  0  0  0  0  0  0  0
   -1.0513    1.0200    1.4058 C   0  0  0  0  0  0  0  0  0  0  0  0
   -0.3999    0.0154    1.9450 N   0  0  0  0  0  0  0  0  0  0  0  0
   -0.7819   -1.1238    1.3040 N   0  0  0  0  0  0  0  0  0  0  0  0
   -1.7001   -0.8113    0.4062 C   0  0  0  0  0  0  0  0  0  0  0  0
   -2.4857   -1.8165   -0.3729 C   0  0  0  0  0  0  0  0  0  0  0  0
   -3.8076   -2.1329    0.2694 C   0  0  0  0  0  0  0  0  0  0  0  0
   -5.0379   -1.5396    0.0519 C   0  0  0  0  0  0  0  0  0  0  0  0
   -6.0664   -2.1189    0.8506 C   0  0  0  0  0  0  0  0  0  0  0  0
   -5.5913   -3.1408    1.6426 C   0  0  0  0  0  0  0  0  0  0  0  0
   -3.9163   -3.3980    1.4243 S   0  0  0  0  0  0  0  0  0  0  0  0
   -1.9033    0.5657    0.4138 N   0  0  0  0  0  0  0  0  0  0  0  0
   -2.7786    1.3193   -0.4069 C   0  0  0  0  0  0  0  0  0  0  0  0
   -3.6243    2.2771    0.1652 C   0  0  0  0  0  0  0  0  0  0  0  0
   -4.4941    3.0079   -0.6459 C   0  0  0  0  0  0  0  0  0  0  0  0
   -4.5147    2.7932   -2.0238 C   0  0  0  0  0  0  0  0  0  0  0  0
   -3.6632    1.8505   -2.5961 C   0  0  0  0  0  0  0  0  0  0  0  0
   -2.7939    1.1118   -1.7915 C   0  0  0  0  0  0  0  0  0  0  0  0
    3.1416   -1.1146    0.7458 C   0  0  0  0  0  0  0  0  0  0  0  0
    4.1447   -1.8236    0.0823 C   0  0  0  0  0  0  0  0  0  0  0  0
    8.4143   -2.1649    0.0392 H   0  0  0  0  0  0  0  0  0  0  0  0
    8.5408   -1.0190   -1.2214 H   0  0  0  0  0  0  0  0  0  0  0  0
    6.2548    0.7692   -0.5921 H   0  0  0  0  0  0  0  0  0  0  0  0
    4.5060    2.0054    0.5875 H   0  0  0  0  0  0  0  0  0  0  0  0
    1.4450    0.2819    1.9364 H   0  0  0  0  0  0  0  0  0  0  0  0
    0.6970    1.7981    3.5366 H   0  0  0  0  0  0  0  0  0  0  0  0
    0.9769    3.5078    3.2438 H   0  0  0  0  0  0  0  0  0  0  0  0
   -2.6505   -1.5002   -1.4056 H   0  0  0  0  0  0  0  0  0  0  0  0
   -1.8864   -2.7337   -0.4559 H   0  0  0  0  0  0  0  0  0  0  0  0
   -5.1993   -0.7245   -0.6445 H   0  0  0  0  0  0  0  0  0  0  0  0
   -7.1034   -1.8049    0.8457 H   0  0  0  0  0  0  0  0  0  0  0  0
   -6.1479   -3.7521    2.3397 H   0  0  0  0  0  0  0  0  0  0  0  0
   -3.6484    2.4479    1.2389 H   0  0  0  0  0  0  0  0  0  0  0  0
   -5.1579    3.7467   -0.2016 H   0  0  0  0  0  0  0  0  0  0  0  0
   -5.1900    3.3700   -2.6522 H   0  0  0  0  0  0  0  0  0  0  0  0
   -3.6639    1.7016   -3.6741 H   0  0  0  0  0  0  0  0  0  0  0  0
   -2.1038    0.4245   -2.2741 H   0  0  0  0  0  0  0  0  0  0  0  0
    2.2719   -1.6579    1.1126 H   0  0  0  0  0  0  0  0  0  0  0  0
    4.0442   -2.8972   -0.0533 H   0  0  0  0  0  0  0  0  0  0  0  0
  1  2  1  0
  2  3  2  0
  2  4  2  0
  2  5  1  0
  5  6  2  0
  6  7  1  0
  7  8  2  0
  8  9  1  0
  9 10  1  0
 10 11  2  0
 10 12  1  0
 12 13  1  0
 13 14  1  0
 14 15  2  0
 15 16  1  0
 16 17  2  0
 17 18  1  0
 18 19  1  0
 19 20  2  0
 20 21  1  0
 21 22  2  0
 22 23  1  0
 17 24  1  0
 24 25  1  0
 25 26  2  0
 26 27  1  0
 27 28  2  0
 28 29  1  0
 29 30  2  0
  8 31  1  0
 31 32  2  0
 32  5  1  0
 24 14  1  0
 30 25  1  0
 23 19  1  0
  1 33  1  0
  1 34  1  0
  6 35  1  0
  7 36  1  0
  9 37  1  0
 12 38  1  0
 12 39  1  0
 18 40  1  0
 18 41  1  0
 20 42  1  0
 21 43  1  0
 22 44  1  0
 26 45  1  0
 27 46  1  0
 28 47  1  0
 29 48  1  0
 30 49  1  0
 31 50  1  0
 32 51  1  0
M  END
$$$$
