
     RDKit          3D

 43 46  0  0  0  0  0  0  0  0999 V2000
   -1.6820   -1.7487   -0.4796 O   0  0  0  0  0  0  0  0  0  0  0  0
   -1.8917   -0.5516   -0.3305 C   0  0  0  0  0  0  0  0  0  0  0  0
   -0.9533    0.4349   -0.0852 N   0  0  0  0  0  0  0  0  0  0  0  0
    0.4483    0.2877   -0.0352 C   0  0  0  0  0  0  0  0  0  0  0  0
    1.1987    1.4125    0.3207 C   0  0  0  0  0  0  0  0  0  0  0  0
    2.5957    1.3478    0.3869 C   0  0  0  0  0  0  0  0  0  0  0  0
    3.2710    0.1581    0.0953 C   0  0  0  0  0  0  0  0  0  0  0  0
    4.6758    0.1800    0.1862 N   0  0  0  0  0  0  0  0  0  0  0  0
    5.5720   -0.8497   -0.0514 C   0  0  0  0  0  0  0  0  0  0  0  0
    5.2528   -1.9839   -0.3950 O   0  0  0  0  0  0  0  0  0  0  0  0
    6.9788   -0.4878    0.1386 C   0  0  0  0  0  0  0  0  0  0  0  0
    8.0723   -1.3199   -0.0302 C   0  0  0  0  0  0  0  0  0  0  0  0
    9.3103   -0.6661    0.2324 C   0  0  0  0  0  0  0  0  0  0  0  0
    9.1283    0.6487    0.5949 C   0  0  0  0  0  0  0  0  0  0  0  0
    7.4759    1.0846    0.6163 S   0  0  0  0  0  0  0  0  0  0  0  0
    2.5226   -0.9613   -0.2632 C   0  0  0  0  0  0  0  0  0  0  0  0
    1.1220   -0.8965   -0.3287 C   0  0  0  0  0  0  0  0  0  0  0  0
   -3.3024   -0.0736   -0.3670 C   0  0  0  0  0  0  0  0  0  0  0  0
   -3.6456    1.1570   -0.9362 C   0  0  0  0  0  0  0  0  0  0  0  0
   -4.9806    1.5693   -0.9494 C   0  0  0  0  0  0  0  0  0  0  0  0
   -5.9888    0.7578   -0.4042 C   0  0  0  0  0  0  0  0  0  0  0  0
   -7.3339    1.1604   -0.4094 C   0  0  0  0  0  0  0  0  0  0  0  0
   -8.3261    0.3399    0.1297 C   0  0  0  0  0  0  0  0  0  0  0  0
   -7.9873   -0.8933    0.6788 C   0  0  0  0  0  0  0  0  0  0  0  0
   -6.6552   -1.3093    0.6911 C   0  0  0  0  0  0  0  0  0  0  0  0
   -5.6448   -0.4953    0.1550 C   0  0  0  0  0  0  0  0  0  0  0  0
   -4.3010   -0.9007    0.1615 C   0  0  0  0  0  0  0  0  0  0  0  0
   -1.3064    1.3517    0.1543 H   0  0  0  0  0  0  0  0  0  0  0  0
    0.7121    2.3554    0.5552 H   0  0  0  0  0  0  0  0  0  0  0  0
    3.1430    2.2431    0.6701 H   0  0  0  0  0  0  0  0  0  0  0  0
    5.0967    1.0585    0.4609 H   0  0  0  0  0  0  0  0  0  0  0  0
    7.9773   -2.3579   -0.3310 H   0  0  0  0  0  0  0  0  0  0  0  0
   10.2828   -1.1379    0.1587 H   0  0  0  0  0  0  0  0  0  0  0  0
    9.8879    1.3758    0.8488 H   0  0  0  0  0  0  0  0  0  0  0  0
    2.9890   -1.9122   -0.5020 H   0  0  0  0  0  0  0  0  0  0  0  0
    0.5911   -1.7983   -0.6190 H   0  0  0  0  0  0  0  0  0  0  0  0
   -2.8948    1.7905   -1.4005 H   0  0  0  0  0  0  0  0  0  0  0  0
   -5.2328    2.5270   -1.4004 H   0  0  0  0  0  0  0  0  0  0  0  0
   -7.6210    2.1186   -0.8367 H   0  0  0  0  0  0  0  0  0  0  0  0
   -9.3639    0.6631    0.1182 H   0  0  0  0  0  0  0  0  0  0  0  0
   -8.7595   -1.5343    1.0965 H   0  0  0  0  0  0  0  0  0  0  0  0
   -6.4107   -2.2780    1.1224 H   0  0  0  0  0  0  0  0  0  0  0  0
   -4.0227   -1.8662    0.5820 H   0  0  0  0  0  0  0  0  0  0  0  0
  1  2  2  0
  2  3  1  0
  3  4  1  0
  4  5  2  0
  5  6  1  0
  6  7  2  0
  7  8  1  0
  8  9  1  0
  9 10  2  0
  9 11  1  0
 11 12  2  0
 12 13  1  0
 13 14  2  0
 14 15  1  0
  7 16  1  0
 16 17  2  0
  2 18  1  0
 18 19  2  0
 19 20  1  0
 20 21  2  0
 21 22  1  0
 22 23  2  0
 23 24  1  0
 24 25  2  0
 25 26  1  0
 26 27  2  0
 17  4  1  0
 27 18  1  0
 15 11  1  0
 26 21  1  0
  3 28  1  0
  5 29  1  0
  6 30  1  0
  8 31  1  0
 12 32  1  0
 13 33  1  0
 14 34  1  0
 16 35  1  0
 17 36  1  0
 19 37  1  0
 20 38  1  0
 22 39  1  0
 23 40  1  0
 24 41  1  0
 25 42  1  0
 27 43  1  0
M  END
$$$$
