
     RDKit          3D

 51 53  0  0  0  0  0  0  0  0999 V2000
    4.0975    0.0015   -4.1585 N   0  0  0  0  0  0  0  0  0  0  0  0
    3.6974   -0.2947   -3.1103 C   0  0  0  0  0  0  0  0  0  0  0  0
    3.1590   -0.6147   -1.8327 C   0  0  0  0  0  0  0  0  0  0  0  0
    1.8551   -0.3972   -1.5813 C   0  0  0  0  0  0  0  0  0  0  0  0
    1.1819   -0.7482   -0.3798 C   0  0  0  0  0  0  0  0  0  0  0  0
    1.2719   -1.8793    0.4255 C   0  0  0  0  0  0  0  0  0  0  0  0
    0.3623   -1.7263    1.4987 C   0  0  0  0  0  0  0  0  0  0  0  0
   -0.2594   -0.5160    1.2997 C   0  0  0  0  0  0  0  0  0  0  0  0
   -1.3054    0.2278    2.0433 C   0  0  0  0  0  0  0  0  0  0  0  0
   -2.5975   -0.1789    1.5562 N   0  0  0  0  0  0  0  0  0  0  0  0
   -3.3324    0.5916    0.6875 C   0  0  0  0  0  0  0  0  0  0  0  0
   -3.0751    1.7290    0.3188 O   0  0  0  0  0  0  0  0  0  0  0  0
   -4.6071   -0.1073    0.1663 C   0  0  0  0  0  0  0  0  0  0  0  0
   -4.8465   -1.2485    0.5348 O   0  0  0  0  0  0  0  0  0  0  0  0
   -5.3334    0.7099   -0.6739 N   0  0  0  0  0  0  0  0  0  0  0  0
   -6.5513    0.4240   -1.3157 C   0  0  0  0  0  0  0  0  0  0  0  0
   -7.2108   -0.8039   -1.2183 C   0  0  0  0  0  0  0  0  0  0  0  0
   -8.4213   -1.0037   -1.8889 C   0  0  0  0  0  0  0  0  0  0  0  0
   -9.2206   -2.5244   -1.7698 Cl  0  0  0  0  0  0  0  0  0  0  0  0
   -8.9885    0.0079   -2.6563 C   0  0  0  0  0  0  0  0  0  0  0  0
   -8.3305    1.2288   -2.7528 C   0  0  0  0  0  0  0  0  0  0  0  0
   -9.0149    2.4921   -3.6997 Cl  0  0  0  0  0  0  0  0  0  0  0  0
   -7.1191    1.4417   -2.0910 C   0  0  0  0  0  0  0  0  0  0  0  0
    0.2213    0.0691    0.1692 O   0  0  0  0  0  0  0  0  0  0  0  0
    4.1059   -1.1962   -0.8471 C   0  0  0  0  0  0  0  0  0  0  0  0
    4.7299   -2.2205   -1.0941 O   0  0  0  0  0  0  0  0  0  0  0  0
    4.2309   -0.4800    0.3189 N   0  0  0  0  0  0  0  0  0  0  0  0
    5.1545   -0.8643    1.3618 C   0  0  0  0  0  0  0  0  0  0  0  0
    6.2402    0.1583    1.5087 C   0  0  0  0  0  0  0  0  0  0  0  0
    6.1483    1.2041    2.4320 C   0  0  0  0  0  0  0  0  0  0  0  0
    7.1736    2.1424    2.5155 C   0  0  0  0  0  0  0  0  0  0  0  0
    8.2587    2.0067    1.6653 C   0  0  0  0  0  0  0  0  0  0  0  0
    8.3782    1.0169    0.7557 N   0  0  0  0  0  0  0  0  0  0  0  0
    7.3681    0.1193    0.6939 C   0  0  0  0  0  0  0  0  0  0  0  0
    1.2383    0.0874   -2.3362 H   0  0  0  0  0  0  0  0  0  0  0  0
    1.9185   -2.7304    0.2512 H   0  0  0  0  0  0  0  0  0  0  0  0
    0.1764   -2.4197    2.3077 H   0  0  0  0  0  0  0  0  0  0  0  0
   -1.2637   -0.0188    3.1090 H   0  0  0  0  0  0  0  0  0  0  0  0
   -1.1720    1.3088    1.9328 H   0  0  0  0  0  0  0  0  0  0  0  0
   -2.9067   -1.1390    1.6796 H   0  0  0  0  0  0  0  0  0  0  0  0
   -4.9184    1.6302   -0.8165 H   0  0  0  0  0  0  0  0  0  0  0  0
   -6.8029   -1.6228   -0.6352 H   0  0  0  0  0  0  0  0  0  0  0  0
   -9.9298   -0.1548   -3.1741 H   0  0  0  0  0  0  0  0  0  0  0  0
   -6.6251    2.4062   -2.1854 H   0  0  0  0  0  0  0  0  0  0  0  0
    3.7083    0.3775    0.4473 H   0  0  0  0  0  0  0  0  0  0  0  0
    5.5843   -1.8526    1.1657 H   0  0  0  0  0  0  0  0  0  0  0  0
    4.5782   -0.9450    2.2910 H   0  0  0  0  0  0  0  0  0  0  0  0
    5.2863    1.2922    3.0891 H   0  0  0  0  0  0  0  0  0  0  0  0
    7.1291    2.9603    3.2250 H   0  0  0  0  0  0  0  0  0  0  0  0
    9.0843    2.7121    1.6923 H   0  0  0  0  0  0  0  0  0  0  0  0
    7.4941   -0.6583   -0.0570 H   0  0  0  0  0  0  0  0  0  0  0  0
  1  2  3  0
  2  3  1  0
  3  4  2  3
  4  5  1  0
  5  6  2  0
  6  7  1  0
  7  8  2  0
  8  9  1  0
  9 10  1  0
 10 11  1  0
 11 12  2  0
 11 13  1  0
 13 14  2  0
 13 15  1  0
 15 16  1  0
 16 17  2  0
 17 18  1  0
 18 19  1  0
 18 20  2  0
 20 21  1  0
 21 22  1  0
 21 23  2  0
  8 24  1  0
  3 25  1  0
 25 26  2  0
 25 27  1  0
 27 28  1  0
 28 29  1  0
 29 30  2  0
 30 31  1  0
 31 32  2  0
 32 33  1  0
 33 34  2  0
 24  5  1  0
 34 29  1  0
 23 16  1  0
  4 35  1  0
  6 36  1  0
  7 37  1  0
  9 38  1  0
  9 39  1  0
 10 40  1  0
 15 41  1  0
 17 42  1  0
 20 43  1  0
 23 44  1  0
 27 45  1  0
 28 46  1  0
 28 47  1  0
 30 48  1  0
 31 49  1  0
 32 50  1  0
 34 51  1  0
M  END
$$$$
