
     RDKit          3D

 43 46  0  0  0  0  0  0  0  0999 V2000
    2.3811   -1.9902   -0.4220 O   0  0  0  0  0  0  0  0  0  0  0  0
    2.5426   -1.7427    0.7736 C   0  0  0  0  0  0  0  0  0  0  0  0
    1.8341   -2.5093    1.8787 C   0  0  0  0  0  0  0  0  0  0  0  0
    0.0833   -2.7775    1.4537 S   0  0  0  0  0  0  0  0  0  0  0  0
   -0.4490   -1.1340    1.3670 C   0  0  0  0  0  0  0  0  0  0  0  0
    0.1026   -0.1278    2.0004 N   0  0  0  0  0  0  0  0  0  0  0  0
   -0.6030    1.0007    1.6759 N   0  0  0  0  0  0  0  0  0  0  0  0
   -1.5614    0.6712    0.8271 C   0  0  0  0  0  0  0  0  0  0  0  0
   -2.5426    1.5987    0.2828 C   0  0  0  0  0  0  0  0  0  0  0  0
   -3.3563    2.3430    1.1410 C   0  0  0  0  0  0  0  0  0  0  0  0
   -4.2850    3.2387    0.6152 C   0  0  0  0  0  0  0  0  0  0  0  0
   -4.3639    3.3690   -0.7611 C   0  0  0  0  0  0  0  0  0  0  0  0
   -3.5850    2.6820   -1.6234 N   0  0  0  0  0  0  0  0  0  0  0  0
   -2.6859    1.8232   -1.0822 C   0  0  0  0  0  0  0  0  0  0  0  0
   -1.5011   -0.6931    0.6118 N   0  0  0  0  0  0  0  0  0  0  0  0
   -2.4273   -1.4973   -0.1623 C   0  0  0  0  0  0  0  0  0  0  0  0
   -2.0136   -1.5866   -1.5847 C   0  0  0  0  0  0  0  0  0  0  0  0
   -0.8453   -1.9321   -2.2347 C   0  0  0  0  0  0  0  0  0  0  0  0
   -1.1061   -1.8097   -3.6213 C   0  0  0  0  0  0  0  0  0  0  0  0
   -2.4148   -1.4061   -3.7317 C   0  0  0  0  0  0  0  0  0  0  0  0
   -2.9741   -1.2729   -2.5025 O   0  0  0  0  0  0  0  0  0  0  0  0
    3.4796   -0.6478    1.1488 C   0  0  0  0  0  0  0  0  0  0  0  0
    3.6542    0.4120    0.2496 C   0  0  0  0  0  0  0  0  0  0  0  0
    4.5223    1.4623    0.5576 C   0  0  0  0  0  0  0  0  0  0  0  0
    5.2291    1.4564    1.7623 C   0  0  0  0  0  0  0  0  0  0  0  0
    6.2894    2.7818    2.0808 Cl  0  0  0  0  0  0  0  0  0  0  0  0
    5.0660    0.3919    2.6572 C   0  0  0  0  0  0  0  0  0  0  0  0
    5.9195    0.3081    4.1585 Cl  0  0  0  0  0  0  0  0  0  0  0  0
    4.1944   -0.6610    2.3508 C   0  0  0  0  0  0  0  0  0  0  0  0
    2.3289   -3.4781    1.9956 H   0  0  0  0  0  0  0  0  0  0  0  0
    1.8766   -1.9828    2.8355 H   0  0  0  0  0  0  0  0  0  0  0  0
   -3.2640    2.2329    2.2194 H   0  0  0  0  0  0  0  0  0  0  0  0
   -4.9257    3.8248    1.2645 H   0  0  0  0  0  0  0  0  0  0  0  0
   -5.0712    4.0542   -1.2199 H   0  0  0  0  0  0  0  0  0  0  0  0
   -2.0575    1.3194   -1.8116 H   0  0  0  0  0  0  0  0  0  0  0  0
   -3.4219   -1.0478   -0.0645 H   0  0  0  0  0  0  0  0  0  0  0  0
   -2.4952   -2.4949    0.2818 H   0  0  0  0  0  0  0  0  0  0  0  0
    0.0881   -2.2309   -1.7745 H   0  0  0  0  0  0  0  0  0  0  0  0
   -0.4227   -1.9938   -4.4385 H   0  0  0  0  0  0  0  0  0  0  0  0
   -3.0626   -1.1812   -4.5679 H   0  0  0  0  0  0  0  0  0  0  0  0
    3.1051    0.4298   -0.6911 H   0  0  0  0  0  0  0  0  0  0  0  0
    4.6395    2.2825   -0.1473 H   0  0  0  0  0  0  0  0  0  0  0  0
    4.0989   -1.4850    3.0522 H   0  0  0  0  0  0  0  0  0  0  0  0
  1  2  2  0
  2  3  1  0
  3  4  1  0
  4  5  1  0
  5  6  2  0
  6  7  1  0
  7  8  2  0
  8  9  1  0
  9 10  2  0
 10 11  1  0
 11 12  2  0
 12 13  1  0
 13 14  2  0
  8 15  1  0
 15 16  1  0
 16 17  1  0
 17 18  2  0
 18 19  1  0
 19 20  2  0
 20 21  1  0
  2 22  1  0
 22 23  2  0
 23 24  1  0
 24 25  2  0
 25 26  1  0
 25 27  1  0
 27 28  1  0
 27 29  2  0
 15  5  1  0
 21 17  1  0
 29 22  1  0
 14  9  1  0
  3 30  1  0
  3 31  1  0
 10 32  1  0
 11 33  1  0
 12 34  1  0
 14 35  1  0
 16 36  1  0
 16 37  1  0
 18 38  1  0
 19 39  1  0
 20 40  1  0
 23 41  1  0
 24 42  1  0
 29 43  1  0
M  END
$$$$
