
     RDKit          3D

 40 41  0  0  0  0  0  0  0  0999 V2000
   -1.6885    0.0380   -4.7328 C   0  0  0  0  0  0  0  0  0  0  0  0
   -1.5872   -1.4671   -4.5495 C   0  0  0  0  0  0  0  0  0  0  0  0
   -1.1538   -1.7936   -3.2283 O   0  0  0  0  0  0  0  0  0  0  0  0
   -2.1430   -1.8386   -2.2680 C   0  0  0  0  0  0  0  0  0  0  0  0
   -3.4347   -1.6965   -2.6582 N   0  0  0  0  0  0  0  0  0  0  0  0
   -4.3870   -1.8113   -1.7058 C   0  0  0  0  0  0  0  0  0  0  0  0
   -4.1173   -2.0716   -0.3730 C   0  0  0  0  0  0  0  0  0  0  0  0
   -2.7879   -2.2135    0.0107 C   0  0  0  0  0  0  0  0  0  0  0  0
   -1.7778   -2.0811   -0.9480 C   0  0  0  0  0  0  0  0  0  0  0  0
   -0.3815   -2.2353   -0.5136 C   0  0  0  0  0  0  0  0  0  0  0  0
   -0.0278   -3.0860    0.2878 O   0  0  0  0  0  0  0  0  0  0  0  0
    0.3806   -1.2519   -1.0438 O   0  0  0  0  0  0  0  0  0  0  0  0
    1.7518   -1.2427   -0.6351 C   0  0  0  0  0  0  0  0  0  0  0  0
    1.9283   -0.2615    0.4959 C   0  0  0  0  0  0  0  0  0  0  0  0
    1.9600   -0.7073    1.8236 C   0  0  0  0  0  0  0  0  0  0  0  0
    2.1002    0.2040    2.8735 C   0  0  0  0  0  0  0  0  0  0  0  0
    2.2030    1.5761    2.6114 C   0  0  0  0  0  0  0  0  0  0  0  0
    2.3486    2.5034    3.7668 C   0  0  0  0  0  0  0  0  0  0  0  0
    2.3746    2.1339    4.9303 O   0  0  0  0  0  0  0  0  0  0  0  0
    2.4467    3.7883    3.3416 O   0  0  0  0  0  0  0  0  0  0  0  0
    2.5911    4.7384    4.3982 C   0  0  0  0  0  0  0  0  0  0  0  0
    2.1591    2.0265    1.2856 C   0  0  0  0  0  0  0  0  0  0  0  0
    2.0183    1.1129    0.2366 C   0  0  0  0  0  0  0  0  0  0  0  0
   -2.4591    0.4682   -4.0858 H   0  0  0  0  0  0  0  0  0  0  0  0
   -1.9300    0.2851   -5.7705 H   0  0  0  0  0  0  0  0  0  0  0  0
   -0.7428    0.5214   -4.4661 H   0  0  0  0  0  0  0  0  0  0  0  0
   -2.5118   -1.9837   -4.8331 H   0  0  0  0  0  0  0  0  0  0  0  0
   -0.8135   -1.8449   -5.2278 H   0  0  0  0  0  0  0  0  0  0  0  0
   -5.4087   -1.6905   -2.0563 H   0  0  0  0  0  0  0  0  0  0  0  0
   -4.9215   -2.1630    0.3490 H   0  0  0  0  0  0  0  0  0  0  0  0
   -2.5375   -2.4223    1.0483 H   0  0  0  0  0  0  0  0  0  0  0  0
    2.1189   -2.2411   -0.3669 H   0  0  0  0  0  0  0  0  0  0  0  0
    2.3507   -0.9232   -1.4959 H   0  0  0  0  0  0  0  0  0  0  0  0
    1.8671   -1.7692    2.0483 H   0  0  0  0  0  0  0  0  0  0  0  0
    2.1240   -0.1629    3.8982 H   0  0  0  0  0  0  0  0  0  0  0  0
    1.7172    4.7153    5.0568 H   0  0  0  0  0  0  0  0  0  0  0  0
    2.6611    5.7338    3.9510 H   0  0  0  0  0  0  0  0  0  0  0  0
    3.5088    4.5472    4.9632 H   0  0  0  0  0  0  0  0  0  0  0  0
    2.2282    3.0861    1.0523 H   0  0  0  0  0  0  0  0  0  0  0  0
    1.9730    1.4800   -0.7871 H   0  0  0  0  0  0  0  0  0  0  0  0
  1  2  1  0
  2  3  1  0
  3  4  1  0
  4  5  2  0
  5  6  1  0
  6  7  2  0
  7  8  1  0
  8  9  2  0
  9 10  1  0
 10 11  2  0
 10 12  1  0
 12 13  1  0
 13 14  1  0
 14 15  2  0
 15 16  1  0
 16 17  2  0
 17 18  1  0
 18 19  2  0
 18 20  1  0
 20 21  1  0
 17 22  1  0
 22 23  2  0
  9  4  1  0
 23 14  1  0
  1 24  1  0
  1 25  1  0
  1 26  1  0
  2 27  1  0
  2 28  1  0
  6 29  1  0
  7 30  1  0
  8 31  1  0
 13 32  1  0
 13 33  1  0
 15 34  1  0
 16 35  1  0
 21 36  1  0
 21 37  1  0
 21 38  1  0
 22 39  1  0
 23 40  1  0
M  END
$$$$
