
     RDKit          3D

 70 75  0  0  0  0  0  0  0  0999 V2000
   -5.2107   -3.6196    2.2591 C   0  0  0  0  0  0  0  0  0  0  0  0
   -4.1239   -2.8988    1.5053 C   0  0  0  0  0  0  0  0  0  0  0  0
   -3.5151   -1.7734    2.1125 C   0  0  0  0  0  0  0  0  0  0  0  0
   -2.5109   -1.0496    1.4677 C   0  0  0  0  0  0  0  0  0  0  0  0
   -2.1235   -1.4567    0.2039 C   0  0  0  0  0  0  0  0  0  0  0  0
   -2.7086   -2.5816   -0.3927 C   0  0  0  0  0  0  0  0  0  0  0  0
   -3.6970   -3.3368    0.2299 C   0  0  0  0  0  0  0  0  0  0  0  0
   -4.3242   -4.5186   -0.4497 C   0  0  0  0  0  0  0  0  0  0  0  0
   -2.1411   -2.7980   -1.6487 N   0  0  0  0  0  0  0  0  0  0  0  0
   -1.1658   -1.8444   -1.9466 C   0  0  0  0  0  0  0  0  0  0  0  0
   -0.4978   -1.8255   -2.9708 O   0  0  0  0  0  0  0  0  0  0  0  0
   -1.0979   -0.8892   -0.7297 C   0  0  1  0  0  0  0  0  0  0  0  0
   -1.4347    0.5183   -1.0640 C   0  0  0  0  0  0  0  0  0  0  0  0
   -0.2694    1.3035   -1.1002 C   0  0  0  0  0  0  0  0  0  0  0  0
   -0.6095    2.5866   -1.4360 C   0  0  0  0  0  0  0  0  0  0  0  0
    0.1531    3.6667   -1.5820 O   0  0  0  0  0  0  0  0  0  0  0  0
   -2.0152    2.6208   -1.5565 N   0  0  0  0  0  0  0  0  0  0  0  0
   -2.8245    3.7853   -1.7567 C   0  0  0  0  0  0  0  0  0  0  0  0
   -2.3419    4.8800   -2.4837 C   0  0  0  0  0  0  0  0  0  0  0  0
   -3.1459    6.0071   -2.6765 C   0  0  0  0  0  0  0  0  0  0  0  0
   -4.4296    6.0546   -2.1371 C   0  0  0  0  0  0  0  0  0  0  0  0
   -4.9119    4.9774   -1.3977 C   0  0  0  0  0  0  0  0  0  0  0  0
   -4.1139    3.8471   -1.2043 C   0  0  0  0  0  0  0  0  0  0  0  0
   -2.4957    1.2992   -1.4315 C   0  0  0  0  0  0  0  0  0  0  0  0
   -3.7454    0.9168   -1.6916 O   0  0  0  0  0  0  0  0  0  0  0  0
    0.9096    0.4523   -0.8318 C   0  0  1  0  0  0  0  0  0  0  0  0
    2.0207    0.9767    0.0687 C   0  0  0  0  0  0  0  0  0  0  0  0
    2.9809   -0.0950    0.3854 N   0  0  0  0  0  0  0  0  0  0  0  0
    4.2670    0.2755    0.7392 C   0  0  0  0  0  0  0  0  0  0  0  0
    4.6979    1.4145    0.6117 O   0  0  0  0  0  0  0  0  0  0  0  0
    4.9816   -0.7666    1.2339 O   0  0  0  0  0  0  0  0  0  0  0  0
    6.3593   -0.5992    1.6555 C   0  0  0  0  0  0  0  0  0  0  0  0
    6.4708    0.3836    2.8263 C   0  0  0  0  0  0  0  0  0  0  0  0
    6.7865   -1.9920    2.1438 C   0  0  0  0  0  0  0  0  0  0  0  0
    7.2563   -0.1973    0.4798 C   0  0  0  0  0  0  0  0  0  0  0  0
    2.4113   -1.3991    0.7797 C   0  0  0  0  0  0  0  0  0  0  0  0
    1.1725   -1.8263   -0.0509 C   0  0  0  0  0  0  0  0  0  0  0  0
    0.2539   -0.7052   -0.1473 N   0  0  0  0  0  0  0  0  0  0  0  0
   -6.0932   -3.7542    1.6253 H   0  0  0  0  0  0  0  0  0  0  0  0
   -5.5312   -3.0538    3.1404 H   0  0  0  0  0  0  0  0  0  0  0  0
   -4.8501   -4.5957    2.5980 H   0  0  0  0  0  0  0  0  0  0  0  0
   -3.8356   -1.4491    3.1012 H   0  0  0  0  0  0  0  0  0  0  0  0
   -2.0563   -0.1833    1.9382 H   0  0  0  0  0  0  0  0  0  0  0  0
   -3.6489   -4.9706   -1.1825 H   0  0  0  0  0  0  0  0  0  0  0  0
   -4.5634   -5.3095    0.2679 H   0  0  0  0  0  0  0  0  0  0  0  0
   -5.2411   -4.2115   -0.9621 H   0  0  0  0  0  0  0  0  0  0  0  0
   -2.3883   -3.5341   -2.2905 H   0  0  0  0  0  0  0  0  0  0  0  0
    1.0803    3.4106   -1.4386 H   0  0  0  0  0  0  0  0  0  0  0  0
   -1.3560    4.8702   -2.9402 H   0  0  0  0  0  0  0  0  0  0  0  0
   -2.7663    6.8485   -3.2507 H   0  0  0  0  0  0  0  0  0  0  0  0
   -5.0489    6.9355   -2.2850 H   0  0  0  0  0  0  0  0  0  0  0  0
   -5.9046    5.0231   -0.9567 H   0  0  0  0  0  0  0  0  0  0  0  0
   -4.5000    3.0488   -0.5734 H   0  0  0  0  0  0  0  0  0  0  0  0
   -4.1624    1.5862   -2.2637 H   0  0  0  0  0  0  0  0  0  0  0  0
    1.3330    0.1305   -1.7944 H   0  0  0  0  0  0  0  0  0  0  0  0
    1.6256    1.3547    1.0206 H   0  0  0  0  0  0  0  0  0  0  0  0
    2.5388    1.8110   -0.4173 H   0  0  0  0  0  0  0  0  0  0  0  0
    6.2483    1.4107    2.5221 H   0  0  0  0  0  0  0  0  0  0  0  0
    5.7569    0.1285    3.6175 H   0  0  0  0  0  0  0  0  0  0  0  0
    7.4798    0.3812    3.2530 H   0  0  0  0  0  0  0  0  0  0  0  0
    6.1405   -2.3332    2.9612 H   0  0  0  0  0  0  0  0  0  0  0  0
    6.6868   -2.7335    1.3424 H   0  0  0  0  0  0  0  0  0  0  0  0
    7.8234   -2.0002    2.4957 H   0  0  0  0  0  0  0  0  0  0  0  0
    7.0964   -0.8628   -0.3761 H   0  0  0  0  0  0  0  0  0  0  0  0
    8.3157   -0.2334    0.7562 H   0  0  0  0  0  0  0  0  0  0  0  0
    7.0440    0.8177    0.1310 H   0  0  0  0  0  0  0  0  0  0  0  0
    3.1761   -2.1795    0.7058 H   0  0  0  0  0  0  0  0  0  0  0  0
    2.1337   -1.3091    1.8375 H   0  0  0  0  0  0  0  0  0  0  0  0
    1.5007   -2.1563   -1.0438 H   0  0  0  0  0  0  0  0  0  0  0  0
    0.6990   -2.6810    0.4447 H   0  0  0  0  0  0  0  0  0  0  0  0
  1  2  1  0
  2  3  2  0
  3  4  1  0
  4  5  2  0
  5  6  1  0
  6  7  2  0
  7  8  1  0
  6  9  1  0
  9 10  1  0
 10 11  2  0
 10 12  1  0
 12 13  1  0
 13 14  1  0
 14 15  2  0
 15 16  1  0
 15 17  1  0
 17 18  1  0
 18 19  2  0
 19 20  1  0
 20 21  2  0
 21 22  1  0
 22 23  2  0
 17 24  1  0
 24 25  1  0
 14 26  1  0
 26 27  1  0
 27 28  1  0
 28 29  1  0
 29 30  2  0
 29 31  1  0
 31 32  1  0
 32 33  1  0
 32 34  1  0
 32 35  1  0
 28 36  1  0
 36 37  1  0
 37 38  1  0
  7  2  1  0
 12 38  1  1
 12  5  1  0
 24 13  2  0
 38 26  1  0
 23 18  1  0
  1 39  1  0
  1 40  1  0
  1 41  1  0
  3 42  1  0
  4 43  1  0
  8 44  1  0
  8 45  1  0
  8 46  1  0
  9 47  1  0
 16 48  1  0
 19 49  1  0
 20 50  1  0
 21 51  1  0
 22 52  1  0
 23 53  1  0
 25 54  1  0
 26 55  1  6
 27 56  1  0
 27 57  1  0
 33 58  1  0
 33 59  1  0
 33 60  1  0
 34 61  1  0
 34 62  1  0
 34 63  1  0
 35 64  1  0
 35 65  1  0
 35 66  1  0
 36 67  1  0
 36 68  1  0
 37 69  1  0
 37 70  1  0
M  END
$$$$
