
     RDKit          3D

 44 45  0  0  0  0  0  0  0  0999 V2000
   -7.0807   -1.8594    2.6213 C   0  0  0  0  0  0  0  0  0  0  0  0
   -6.1323   -0.9629    1.8458 C   0  0  0  0  0  0  0  0  0  0  0  0
   -5.7938   -1.5454    0.4780 C   0  0  0  0  0  0  0  0  0  0  0  0
   -4.9384   -0.6439   -0.2423 O   0  0  0  0  0  0  0  0  0  0  0  0
   -3.6090   -0.7797   -0.0131 C   0  0  0  0  0  0  0  0  0  0  0  0
   -3.0879   -1.5768    0.7507 O   0  0  0  0  0  0  0  0  0  0  0  0
   -2.8343    0.1916   -0.8328 C   0  0  0  0  0  0  0  0  0  0  0  0
   -3.4507    1.1241   -1.6740 C   0  0  0  0  0  0  0  0  0  0  0  0
   -2.6705    2.0061   -2.4209 C   0  0  0  0  0  0  0  0  0  0  0  0
   -1.2758    1.9643   -2.3312 C   0  0  0  0  0  0  0  0  0  0  0  0
   -0.6460    1.0409   -1.4949 C   0  0  0  0  0  0  0  0  0  0  0  0
    0.7499    0.9372   -1.3497 N   0  0  0  0  0  0  0  0  0  0  0  0
    1.7318    1.6921   -1.9658 C   0  0  0  0  0  0  0  0  0  0  0  0
    1.5581    2.6008   -2.7735 O   0  0  0  0  0  0  0  0  0  0  0  0
    3.1496    1.2849   -1.5519 C   0  0  0  0  0  0  0  0  0  0  0  0
    3.1340    0.3097   -0.5093 O   0  0  0  0  0  0  0  0  0  0  0  0
    4.3295    0.0965    0.1222 C   0  0  0  0  0  0  0  0  0  0  0  0
    4.2349   -0.4431    1.4099 C   0  0  0  0  0  0  0  0  0  0  0  0
    5.3853   -0.6979    2.1609 C   0  0  0  0  0  0  0  0  0  0  0  0
    6.6397   -0.4248    1.6064 C   0  0  0  0  0  0  0  0  0  0  0  0
    7.8539   -0.6829    2.3881 N   0  0  0  0  0  4  0  0  0  0  0  0
    7.7221   -0.9123    3.5987 O   0  0  0  0  0  0  0  0  0  0  0  0
    8.9387   -0.6525    1.7902 O   0  0  0  0  0  1  0  0  0  0  0  0
    6.7464    0.0909    0.3078 C   0  0  0  0  0  0  0  0  0  0  0  0
    5.5869    0.3479   -0.4315 C   0  0  0  0  0  0  0  0  0  0  0  0
   -1.4334    0.1563   -0.7480 C   0  0  0  0  0  0  0  0  0  0  0  0
   -7.3207   -1.4084    3.5879 H   0  0  0  0  0  0  0  0  0  0  0  0
   -8.0170   -2.0077    2.0745 H   0  0  0  0  0  0  0  0  0  0  0  0
   -6.6302   -2.8394    2.8068 H   0  0  0  0  0  0  0  0  0  0  0  0
   -6.5786    0.0309    1.7200 H   0  0  0  0  0  0  0  0  0  0  0  0
   -5.2153   -0.8083    2.4265 H   0  0  0  0  0  0  0  0  0  0  0  0
   -5.3399   -2.5408    0.5570 H   0  0  0  0  0  0  0  0  0  0  0  0
   -6.7062   -1.6569   -0.1181 H   0  0  0  0  0  0  0  0  0  0  0  0
   -4.5330    1.1755   -1.7605 H   0  0  0  0  0  0  0  0  0  0  0  0
   -3.1457    2.7299   -3.0798 H   0  0  0  0  0  0  0  0  0  0  0  0
   -0.7100    2.6683   -2.9339 H   0  0  0  0  0  0  0  0  0  0  0  0
    1.0984    0.2318   -0.7053 H   0  0  0  0  0  0  0  0  0  0  0  0
    3.6583    2.1978   -1.2174 H   0  0  0  0  0  0  0  0  0  0  0  0
    3.6349    0.8681   -2.4421 H   0  0  0  0  0  0  0  0  0  0  0  0
    3.2581   -0.6550    1.8382 H   0  0  0  0  0  0  0  0  0  0  0  0
    5.2863   -1.1030    3.1663 H   0  0  0  0  0  0  0  0  0  0  0  0
    7.7165    0.2974   -0.1384 H   0  0  0  0  0  0  0  0  0  0  0  0
    5.7005    0.7334   -1.4413 H   0  0  0  0  0  0  0  0  0  0  0  0
   -0.9641   -0.5758   -0.0935 H   0  0  0  0  0  0  0  0  0  0  0  0
  1  2  1  0
  2  3  1  0
  3  4  1  0
  4  5  1  0
  5  6  2  0
  5  7  1  0
  7  8  2  0
  8  9  1  0
  9 10  2  0
 10 11  1  0
 11 12  1  0
 12 13  1  0
 13 14  2  0
 13 15  1  0
 15 16  1  0
 16 17  1  0
 17 18  2  0
 18 19  1  0
 19 20  2  0
 20 21  1  0
 21 22  2  0
 21 23  1  0
 20 24  1  0
 24 25  2  0
 11 26  2  0
 26  7  1  0
 25 17  1  0
  1 27  1  0
  1 28  1  0
  1 29  1  0
  2 30  1  0
  2 31  1  0
  3 32  1  0
  3 33  1  0
  8 34  1  0
  9 35  1  0
 10 36  1  0
 12 37  1  0
 15 38  1  0
 15 39  1  0
 18 40  1  0
 19 41  1  0
 24 42  1  0
 25 43  1  0
 26 44  1  0
M  CHG  2  21   1  23  -1
M  END
$$$$
