
     RDKit          3D

 57 61  0  0  0  0  0  0  0  0999 V2000
    0.7686    2.3571   -0.9147 O   0  0  0  0  0  0  0  0  0  0  0  0
    0.4016    2.8578    0.3784 C   0  0  0  0  0  0  0  0  0  0  0  0
    1.6667    3.2233    1.1890 C   0  0  0  0  0  0  0  0  0  0  0  0
    2.3103    2.0904    1.8516 N   0  0  0  0  0  0  0  0  0  0  0  0
    3.0415    1.1216    1.1987 C   0  0  0  0  0  0  0  0  0  0  0  0
    2.9077    0.9650   -0.0910 N   0  0  0  0  0  0  0  0  0  0  0  0
    3.6553   -0.0218   -0.7697 C   0  0  0  0  0  0  0  0  0  0  0  0
    3.4817   -0.1532   -2.1489 C   0  0  0  0  0  0  0  0  0  0  0  0
    4.1975   -1.1136   -2.8689 C   0  0  0  0  0  0  0  0  0  0  0  0
    5.0976   -1.9545   -2.2133 C   0  0  0  0  0  0  0  0  0  0  0  0
    5.2865   -1.8422   -0.8353 C   0  0  0  0  0  0  0  0  0  0  0  0
    4.5630   -0.8777   -0.1280 C   0  0  0  0  0  0  0  0  0  0  0  0
    4.6870   -0.7004    1.2596 N   0  0  0  0  0  0  0  0  0  0  0  0
    5.4759   -1.3706    2.1637 C   0  0  0  0  0  0  0  0  0  0  0  0
    5.2385   -0.8450    3.4157 C   0  0  0  0  0  0  0  0  0  0  0  0
    4.2754    0.1810    3.2664 C   0  0  0  0  0  0  0  0  0  0  0  0
    3.9549    0.2595    1.9228 C   0  0  0  0  0  0  0  0  0  0  0  0
   -0.5152    1.8576    1.1264 C   0  0  0  0  0  0  0  0  0  0  0  0
   -1.9236    1.8493    0.6698 N   0  0  0  0  0  0  0  0  0  0  0  0
   -2.0380    1.4813   -0.7615 C   0  0  0  0  0  0  0  0  0  0  0  0
   -3.4278    0.9374   -1.1714 C   0  0  0  0  0  0  0  0  0  0  0  0
   -3.7724   -0.2687   -0.3981 N   0  0  0  0  0  0  0  0  0  0  0  0
   -4.6204   -1.2379   -0.9058 C   0  0  0  0  0  0  0  0  0  0  0  0
   -4.6137   -2.5581   -0.4261 C   0  0  0  0  0  0  0  0  0  0  0  0
   -5.4731   -3.5401   -0.9361 C   0  0  0  0  0  0  0  0  0  0  0  0
   -6.3722   -3.2228   -1.9462 C   0  0  0  0  0  0  0  0  0  0  0  0
   -6.4072   -1.9262   -2.4429 C   0  0  0  0  0  0  0  0  0  0  0  0
   -5.5418   -0.9527   -1.9273 C   0  0  0  0  0  0  0  0  0  0  0  0
   -3.1028   -0.4202    0.9012 C   0  0  0  0  0  0  0  0  0  0  0  0
   -2.7593    0.9608    1.5089 C   0  0  0  0  0  0  0  0  0  0  0  0
    1.4977    1.7155   -0.7567 H   0  0  0  0  0  0  0  0  0  0  0  0
   -0.1490    3.7889    0.1960 H   0  0  0  0  0  0  0  0  0  0  0  0
    2.3967    3.7340    0.5502 H   0  0  0  0  0  0  0  0  0  0  0  0
    1.3727    3.9300    1.9740 H   0  0  0  0  0  0  0  0  0  0  0  0
    2.6574    2.3156    2.7767 H   0  0  0  0  0  0  0  0  0  0  0  0
    2.7814    0.4976   -2.6670 H   0  0  0  0  0  0  0  0  0  0  0  0
    4.0499   -1.2040   -3.9425 H   0  0  0  0  0  0  0  0  0  0  0  0
    5.6515   -2.7002   -2.7791 H   0  0  0  0  0  0  0  0  0  0  0  0
    5.9906   -2.5083   -0.3477 H   0  0  0  0  0  0  0  0  0  0  0  0
    6.1401   -2.1669    1.8601 H   0  0  0  0  0  0  0  0  0  0  0  0
    5.7084   -1.1689    4.3357 H   0  0  0  0  0  0  0  0  0  0  0  0
    3.8648    0.7908    4.0599 H   0  0  0  0  0  0  0  0  0  0  0  0
   -0.5192    2.1431    2.1861 H   0  0  0  0  0  0  0  0  0  0  0  0
   -0.1009    0.8438    1.0515 H   0  0  0  0  0  0  0  0  0  0  0  0
   -1.2995    0.7082   -1.0149 H   0  0  0  0  0  0  0  0  0  0  0  0
   -1.8226    2.3640   -1.3741 H   0  0  0  0  0  0  0  0  0  0  0  0
   -3.3857    0.7129   -2.2446 H   0  0  0  0  0  0  0  0  0  0  0  0
   -4.1936    1.7067   -1.0129 H   0  0  0  0  0  0  0  0  0  0  0  0
   -3.9133   -2.8596    0.3471 H   0  0  0  0  0  0  0  0  0  0  0  0
   -5.4308   -4.5518   -0.5421 H   0  0  0  0  0  0  0  0  0  0  0  0
   -7.0410   -3.9808   -2.3434 H   0  0  0  0  0  0  0  0  0  0  0  0
   -7.1090   -1.6619   -3.2289 H   0  0  0  0  0  0  0  0  0  0  0  0
   -5.6218    0.0529   -2.3299 H   0  0  0  0  0  0  0  0  0  0  0  0
   -2.1894   -1.0150    0.7805 H   0  0  0  0  0  0  0  0  0  0  0  0
   -3.7550   -0.9362    1.6163 H   0  0  0  0  0  0  0  0  0  0  0  0
   -3.7036    1.4943    1.6825 H   0  0  0  0  0  0  0  0  0  0  0  0
   -2.3191    0.8186    2.5037 H   0  0  0  0  0  0  0  0  0  0  0  0
  1  2  1  0
  2  3  1  0
  3  4  1  0
  4  5  1  0
  5  6  2  0
  6  7  1  0
  7  8  2  0
  8  9  1  0
  9 10  2  0
 10 11  1  0
 11 12  2  0
 12 13  1  0
 13 14  1  0
 14 15  2  0
 15 16  1  0
 16 17  2  0
  2 18  1  0
 18 19  1  0
 19 20  1  0
 20 21  1  0
 21 22  1  0
 22 23  1  0
 23 24  2  0
 24 25  1  0
 25 26  2  0
 26 27  1  0
 27 28  2  0
 22 29  1  0
 29 30  1  0
 17  5  1  0
 30 19  1  0
 12  7  1  0
 17 13  1  0
 28 23  1  0
  1 31  1  0
  2 32  1  0
  3 33  1  0
  3 34  1  0
  4 35  1  0
  8 36  1  0
  9 37  1  0
 10 38  1  0
 11 39  1  0
 14 40  1  0
 15 41  1  0
 16 42  1  0
 18 43  1  0
 18 44  1  0
 20 45  1  0
 20 46  1  0
 21 47  1  0
 21 48  1  0
 24 49  1  0
 25 50  1  0
 26 51  1  0
 27 52  1  0
 28 53  1  0
 29 54  1  0
 29 55  1  0
 30 56  1  0
 30 57  1  0
M  END
$$$$
