
     RDKit          3D

 42 44  0  0  0  0  0  0  0  0999 V2000
   -4.8138    1.0871   -1.9301 C   0  0  0  0  0  0  0  0  0  0  0  0
   -3.4125    1.3286   -1.8989 O   0  0  0  0  0  0  0  0  0  0  0  0
   -2.7738    1.1146   -0.7086 C   0  0  0  0  0  0  0  0  0  0  0  0
   -3.3643    0.6471    0.4680 C   0  0  0  0  0  0  0  0  0  0  0  0
   -2.5909    0.4656    1.6199 C   0  0  0  0  0  0  0  0  0  0  0  0
   -1.2219    0.7458    1.5878 C   0  0  0  0  0  0  0  0  0  0  0  0
   -0.2407    0.5284    3.0561 S   0  0  0  0  0  6  0  0  0  0  0  0
   -1.1513    0.4886    4.1828 O   0  0  0  0  0  0  0  0  0  0  0  0
    0.8487    1.4785    3.0142 O   0  0  0  0  0  0  0  0  0  0  0  0
    0.3586   -1.0425    2.9020 N   0  0  0  0  0  0  0  0  0  0  0  0
    1.0516   -1.4345    1.7194 C   0  0  0  0  0  0  0  0  0  0  0  0
    2.2470   -0.7957    1.3751 C   0  0  0  0  0  0  0  0  0  0  0  0
    2.9196   -1.1242    0.1922 C   0  0  0  0  0  0  0  0  0  0  0  0
    4.4345   -0.2679   -0.2029 S   0  0  0  0  0  0  0  0  0  0  0  0
    3.9020    0.9350   -1.3527 C   0  0  0  0  0  0  0  0  0  0  0  0
    4.7830    1.5673   -2.1949 N   0  0  0  0  0  0  0  0  0  0  0  0
    4.0213    2.4066   -2.8533 C   0  0  0  0  0  0  0  0  0  0  0  0
    2.7419    2.2911   -2.4172 N   0  0  0  0  0  0  0  0  0  0  0  0
    2.6359    1.3649   -1.4532 N   0  0  0  0  0  0  0  0  0  0  0  0
    2.3914   -2.1256   -0.6298 C   0  0  0  0  0  0  0  0  0  0  0  0
    3.0422   -2.4740   -1.7825 O   0  0  0  0  0  0  0  0  0  0  0  0
    1.2083   -2.7817   -0.2840 C   0  0  0  0  0  0  0  0  0  0  0  0
    0.5237   -2.4428    0.8943 C   0  0  0  0  0  0  0  0  0  0  0  0
   -0.7478   -3.1686    1.2348 C   0  0  0  0  0  0  0  0  0  0  0  0
   -0.6287    1.2388    0.4247 C   0  0  0  0  0  0  0  0  0  0  0  0
   -1.4065    1.4082   -0.7216 C   0  0  0  0  0  0  0  0  0  0  0  0
   -5.1701    1.3173   -2.9388 H   0  0  0  0  0  0  0  0  0  0  0  0
   -5.0368    0.0339   -1.7304 H   0  0  0  0  0  0  0  0  0  0  0  0
   -5.3435    1.7436   -1.2319 H   0  0  0  0  0  0  0  0  0  0  0  0
   -4.4236    0.4182    0.5241 H   0  0  0  0  0  0  0  0  0  0  0  0
   -3.0645    0.1102    2.5324 H   0  0  0  0  0  0  0  0  0  0  0  0
   -0.2289   -1.7255    3.3743 H   0  0  0  0  0  0  0  0  0  0  0  0
    2.6599   -0.0296    2.0282 H   0  0  0  0  0  0  0  0  0  0  0  0
    4.3314    3.0976   -3.6238 H   0  0  0  0  0  0  0  0  0  0  0  0
    1.9163    2.7980   -2.7149 H   0  0  0  0  0  0  0  0  0  0  0  0
    2.5301   -3.1496   -2.2537 H   0  0  0  0  0  0  0  0  0  0  0  0
    0.8106   -3.5600   -0.9299 H   0  0  0  0  0  0  0  0  0  0  0  0
   -0.6279   -3.7227    2.1712 H   0  0  0  0  0  0  0  0  0  0  0  0
   -1.0215   -3.8898    0.4573 H   0  0  0  0  0  0  0  0  0  0  0  0
   -1.5786   -2.4638    1.3320 H   0  0  0  0  0  0  0  0  0  0  0  0
    0.4318    1.4818    0.3960 H   0  0  0  0  0  0  0  0  0  0  0  0
   -0.9419    1.7745   -1.6335 H   0  0  0  0  0  0  0  0  0  0  0  0
  1  2  1  0
  2  3  1  0
  3  4  2  0
  4  5  1  0
  5  6  2  0
  6  7  1  0
  7  8  2  0
  7  9  2  0
  7 10  1  0
 10 11  1  0
 11 12  2  0
 12 13  1  0
 13 14  1  0
 14 15  1  0
 15 16  1  0
 16 17  2  0
 17 18  1  0
 18 19  1  0
 13 20  2  0
 20 21  1  0
 20 22  1  0
 22 23  2  0
 23 24  1  0
  6 25  1  0
 25 26  2  0
 26  3  1  0
 23 11  1  0
 19 15  2  0
  1 27  1  0
  1 28  1  0
  1 29  1  0
  4 30  1  0
  5 31  1  0
 10 32  1  0
 12 33  1  0
 17 34  1  0
 18 35  1  0
 21 36  1  0
 22 37  1  0
 24 38  1  0
 24 39  1  0
 24 40  1  0
 25 41  1  0
 26 42  1  0
M  END
$$$$
