
     RDKit          3D

 36 37  0  0  0  0  0  0  0  0999 V2000
    0.3913   -0.6956    0.5602 O   0  0  0  0  0  0  0  0  0  0  0  0
    0.5764    0.5178    0.5534 C   0  0  0  0  0  0  0  0  0  0  0  0
   -0.5428    1.5488    0.6880 C   0  0  0  0  0  0  0  0  0  0  0  0
   -1.8097    0.9061    0.8037 O   0  0  0  0  0  0  0  0  0  0  0  0
   -2.8510    1.7601    0.9224 C   0  0  0  0  0  0  0  0  0  0  0  0
   -2.7728    2.9783    0.9331 O   0  0  0  0  0  0  0  0  0  0  0  0
   -4.1314    1.0103    1.0400 C   0  0  0  0  0  0  0  0  0  0  0  0
   -4.1852   -0.3914    1.0274 C   0  0  0  0  0  0  0  0  0  0  0  0
   -5.4142   -1.0488    1.1410 C   0  0  0  0  0  0  0  0  0  0  0  0
   -6.5881   -0.3073    1.2672 C   0  0  0  0  0  0  0  0  0  0  0  0
   -8.2480   -1.1983    1.4207 Br  0  0  0  0  0  0  0  0  0  0  0  0
   -6.5474    1.0860    1.2812 C   0  0  0  0  0  0  0  0  0  0  0  0
   -5.3196    1.7442    1.1677 C   0  0  0  0  0  0  0  0  0  0  0  0
    1.8310    1.0812    0.4204 N   0  0  0  0  0  0  0  0  0  0  0  0
    3.0203    0.2644    0.2523 C   0  0  0  0  0  0  0  0  0  0  0  0
    3.1583   -0.3063   -1.1640 C   0  0  0  0  0  0  0  0  0  0  0  0
    4.4604   -0.9102   -1.3833 N   0  0  0  0  0  0  0  0  0  0  0  0
    4.7413   -2.2297   -1.1326 C   0  0  0  0  0  0  0  0  0  0  0  0
    3.7432   -3.0428   -0.6927 O   0  0  0  0  0  0  0  0  0  0  0  0
    6.0147   -2.5779   -1.3498 C   0  0  0  0  0  0  0  0  0  0  0  0
    6.9568   -1.2173   -1.8820 S   0  0  0  0  0  0  0  0  0  0  0  0
    5.5468   -0.1461   -1.7760 C   0  0  0  0  0  0  0  0  0  0  0  0
    5.5833    1.0525   -2.0004 O   0  0  0  0  0  0  0  0  0  0  0  0
   -0.3468    2.1468    1.5857 H   0  0  0  0  0  0  0  0  0  0  0  0
   -0.5294    2.1833   -0.2059 H   0  0  0  0  0  0  0  0  0  0  0  0
   -3.2789   -0.9862    0.9298 H   0  0  0  0  0  0  0  0  0  0  0  0
   -5.4423   -2.1356    1.1299 H   0  0  0  0  0  0  0  0  0  0  0  0
   -7.4605    1.6678    1.3795 H   0  0  0  0  0  0  0  0  0  0  0  0
   -5.2940    2.8326    1.1792 H   0  0  0  0  0  0  0  0  0  0  0  0
    1.9226    2.0855    0.3238 H   0  0  0  0  0  0  0  0  0  0  0  0
    2.9953   -0.5499    0.9857 H   0  0  0  0  0  0  0  0  0  0  0  0
    3.8761    0.9031    0.4969 H   0  0  0  0  0  0  0  0  0  0  0  0
    3.0363    0.5076   -1.8901 H   0  0  0  0  0  0  0  0  0  0  0  0
    2.3674   -1.0337   -1.3796 H   0  0  0  0  0  0  0  0  0  0  0  0
    4.0985   -3.9394   -0.5733 H   0  0  0  0  0  0  0  0  0  0  0  0
    6.4420   -3.5604   -1.2138 H   0  0  0  0  0  0  0  0  0  0  0  0
  1  2  2  0
  2  3  1  0
  3  4  1  0
  4  5  1  0
  5  6  2  0
  5  7  1  0
  7  8  2  0
  8  9  1  0
  9 10  2  0
 10 11  1  0
 10 12  1  0
 12 13  2  0
  2 14  1  0
 14 15  1  0
 15 16  1  0
 16 17  1  0
 17 18  1  0
 18 19  1  0
 18 20  2  0
 20 21  1  0
 21 22  1  0
 22 23  2  0
 13  7  1  0
 22 17  1  0
  3 24  1  0
  3 25  1  0
  8 26  1  0
  9 27  1  0
 12 28  1  0
 13 29  1  0
 14 30  1  0
 15 31  1  0
 15 32  1  0
 16 33  1  0
 16 34  1  0
 19 35  1  0
 20 36  1  0
M  END
$$$$
