
     RDKit          3D

 36 37  0  0  0  0  0  0  0  0999 V2000
   -2.3005   -0.2149    1.1955 O   0  0  0  0  0  0  0  0  0  0  0  0
   -1.0955   -0.1632    0.9525 C   0  0  0  0  0  0  0  0  0  0  0  0
   -0.0679    0.3701    1.9463 C   0  0  0  0  0  0  0  0  0  0  0  0
    1.1143    0.8088    1.2665 O   0  0  0  0  0  0  0  0  0  0  0  0
    2.0879    1.2347    2.1085 C   0  0  0  0  0  0  0  0  0  0  0  0
    2.0257    1.2343    3.3263 O   0  0  0  0  0  0  0  0  0  0  0  0
    3.2794    1.6978    1.3504 C   0  0  0  0  0  0  0  0  0  0  0  0
    3.2702    1.8465   -0.0424 C   0  0  0  0  0  0  0  0  0  0  0  0
    4.4206    2.2864   -0.6978 C   0  0  0  0  0  0  0  0  0  0  0  0
    4.4042    2.4642   -2.4091 Cl  0  0  0  0  0  0  0  0  0  0  0  0
    5.5793    2.5830    0.0151 C   0  0  0  0  0  0  0  0  0  0  0  0
    5.5822    2.4390    1.3999 C   0  0  0  0  0  0  0  0  0  0  0  0
    7.0076    2.8050    2.2904 Cl  0  0  0  0  0  0  0  0  0  0  0  0
    4.4421    2.0004    2.0718 C   0  0  0  0  0  0  0  0  0  0  0  0
   -0.5658   -0.6438   -0.2280 N   0  0  0  0  0  0  0  0  0  0  0  0
   -1.4366   -1.0331   -1.3220 C   0  0  0  0  0  0  0  0  0  0  0  0
   -2.2643   -2.2917   -1.0178 C   0  0  0  0  0  0  0  0  0  0  0  0
   -3.6093   -2.1918   -1.5449 N   0  0  0  0  0  0  0  0  0  0  0  0
   -4.7081   -1.7580   -0.8415 C   0  0  0  0  0  0  0  0  0  0  0  0
   -4.6258   -1.3540    0.4575 O   0  0  0  0  0  0  0  0  0  0  0  0
   -5.8489   -1.7679   -1.5372 C   0  0  0  0  0  0  0  0  0  0  0  0
   -5.5974   -2.3047   -3.1687 S   0  0  0  0  0  0  0  0  0  0  0  0
   -3.8647   -2.5153   -2.8708 C   0  0  0  0  0  0  0  0  0  0  0  0
   -3.0624   -2.8709   -3.7191 O   0  0  0  0  0  0  0  0  0  0  0  0
   -0.5184    1.2187    2.4728 H   0  0  0  0  0  0  0  0  0  0  0  0
    0.1706   -0.4402    2.6443 H   0  0  0  0  0  0  0  0  0  0  0  0
    2.3771    1.6322   -0.6229 H   0  0  0  0  0  0  0  0  0  0  0  0
    6.4714    2.9255   -0.5031 H   0  0  0  0  0  0  0  0  0  0  0  0
    4.4583    1.8938    3.1555 H   0  0  0  0  0  0  0  0  0  0  0  0
    0.3916   -0.3796   -0.4359 H   0  0  0  0  0  0  0  0  0  0  0  0
   -0.8043   -1.2023   -2.2002 H   0  0  0  0  0  0  0  0  0  0  0  0
   -2.0831   -0.1744   -1.5395 H   0  0  0  0  0  0  0  0  0  0  0  0
   -1.7706   -3.1525   -1.4869 H   0  0  0  0  0  0  0  0  0  0  0  0
   -2.3126   -2.5271    0.0508 H   0  0  0  0  0  0  0  0  0  0  0  0
   -3.7332   -0.9880    0.6367 H   0  0  0  0  0  0  0  0  0  0  0  0
   -6.8130   -1.4670   -1.1529 H   0  0  0  0  0  0  0  0  0  0  0  0
  1  2  2  0
  2  3  1  0
  3  4  1  0
  4  5  1  0
  5  6  2  0
  5  7  1  0
  7  8  2  0
  8  9  1  0
  9 10  1  0
  9 11  2  0
 11 12  1  0
 12 13  1  0
 12 14  2  0
  2 15  1  0
 15 16  1  0
 16 17  1  0
 17 18  1  0
 18 19  1  0
 19 20  1  0
 19 21  2  0
 21 22  1  0
 22 23  1  0
 23 24  2  0
 14  7  1  0
 23 18  1  0
  3 25  1  0
  3 26  1  0
  8 27  1  0
 11 28  1  0
 14 29  1  0
 15 30  1  0
 16 31  1  0
 16 32  1  0
 17 33  1  0
 17 34  1  0
 20 35  1  0
 21 36  1  0
M  END
$$$$
