
     RDKit          3D

 67 69  0  0  0  0  0  0  0  0999 V2000
    5.4628    1.7986   -5.0640 C   0  0  0  0  0  0  0  0  0  0  0  0
    6.4445    1.1863   -4.0808 C   0  0  0  0  0  0  0  0  0  0  0  0
    5.8947    0.0097   -3.4946 O   0  0  0  0  0  0  0  0  0  0  0  0
    5.2660    0.0973   -2.2787 C   0  0  0  0  0  0  0  0  0  0  0  0
    4.8225    1.2897   -1.7001 C   0  0  0  0  0  0  0  0  0  0  0  0
    4.1642    1.2782   -0.4679 C   0  0  0  0  0  0  0  0  0  0  0  0
    3.9329    0.0736    0.2035 C   0  0  0  0  0  0  0  0  0  0  0  0
    3.1906    0.0659    1.5218 C   0  0  0  0  0  0  0  0  0  0  0  0
    1.8264   -0.6273    1.4441 C   0  0  0  0  0  0  0  0  0  0  0  0
    0.9315   -0.0024    0.4863 N   0  0  0  0  0  0  0  0  0  0  0  0
   -0.4129   -0.3236    0.4673 C   0  0  0  0  0  0  0  0  0  0  0  0
   -0.9400   -1.0426    1.3128 O   0  0  0  0  0  0  0  0  0  0  0  0
   -1.1712    0.2790   -0.7195 C   0  0  0  0  0  0  0  0  0  0  0  0
   -2.5888    0.2089   -0.5862 O   0  0  0  0  0  0  0  0  0  0  0  0
   -3.1195    1.1829    0.1970 C   0  0  0  0  0  0  0  0  0  0  0  0
   -2.5157    2.0981    0.7263 O   0  0  0  0  0  0  0  0  0  0  0  0
   -4.5841    0.9783    0.2527 C   0  0  0  0  0  0  0  0  0  0  0  0
   -5.2509    1.0434   -0.9877 C   0  0  0  0  0  0  0  0  0  0  0  0
   -6.6423    0.9689   -1.0290 C   0  0  0  0  0  0  0  0  0  0  0  0
   -7.3409    1.0283   -2.3183 N   0  0  0  0  0  4  0  0  0  0  0  0
   -6.6520    1.1593   -3.3399 O   0  0  0  0  0  0  0  0  0  0  0  0
   -8.5771    0.9421   -2.3095 O   0  0  0  0  0  1  0  0  0  0  0  0
   -7.3710    0.8476    0.1524 C   0  0  0  0  0  0  0  0  0  0  0  0
   -6.6941    0.7883    1.3780 C   0  0  0  0  0  0  0  0  0  0  0  0
   -5.2861    0.8346    1.4748 C   0  0  0  0  0  0  0  0  0  0  0  0
   -4.6788    0.7296    2.7177 N   0  0  0  0  0  0  0  0  0  0  0  0
   -3.4616   -0.0939    2.8985 C   0  0  0  0  0  0  0  0  0  0  0  0
   -3.4971   -0.8330    4.2468 C   0  0  0  0  0  0  0  0  0  0  0  0
   -3.6378    0.0276    5.3888 O   0  0  0  0  0  0  0  0  0  0  0  0
   -4.3453    1.2416    5.1002 C   0  0  0  0  0  0  0  0  0  0  0  0
   -5.3706    1.0974    3.9640 C   0  0  0  0  0  0  0  0  0  0  0  0
    4.3814   -1.1242   -0.3744 C   0  0  0  0  0  0  0  0  0  0  0  0
    5.0365   -1.1229   -1.6126 C   0  0  0  0  0  0  0  0  0  0  0  0
    5.4955   -2.2498   -2.2489 O   0  0  0  0  0  0  0  0  0  0  0  0
    5.2094   -3.5142   -1.6591 C   0  0  0  0  0  0  0  0  0  0  0  0
    5.7711   -4.5929   -2.5679 C   0  0  0  0  0  0  0  0  0  0  0  0
    5.9018    2.6702   -5.5584 H   0  0  0  0  0  0  0  0  0  0  0  0
    5.1798    1.0669   -5.8286 H   0  0  0  0  0  0  0  0  0  0  0  0
    4.5388    2.1085   -4.5667 H   0  0  0  0  0  0  0  0  0  0  0  0
    7.3359    0.8696   -4.6343 H   0  0  0  0  0  0  0  0  0  0  0  0
    6.7951    1.9097   -3.3362 H   0  0  0  0  0  0  0  0  0  0  0  0
    4.9605    2.2479   -2.1893 H   0  0  0  0  0  0  0  0  0  0  0  0
    3.8292    2.2220   -0.0410 H   0  0  0  0  0  0  0  0  0  0  0  0
    3.8158   -0.4353    2.2710 H   0  0  0  0  0  0  0  0  0  0  0  0
    3.0526    1.0957    1.8752 H   0  0  0  0  0  0  0  0  0  0  0  0
    1.3482   -0.6094    2.4303 H   0  0  0  0  0  0  0  0  0  0  0  0
    1.9310   -1.6788    1.1528 H   0  0  0  0  0  0  0  0  0  0  0  0
    1.3419    0.3521   -0.3703 H   0  0  0  0  0  0  0  0  0  0  0  0
   -0.8426    1.3107   -0.8972 H   0  0  0  0  0  0  0  0  0  0  0  0
   -0.9024   -0.3040   -1.6076 H   0  0  0  0  0  0  0  0  0  0  0  0
   -4.6726    1.1685   -1.9016 H   0  0  0  0  0  0  0  0  0  0  0  0
   -8.4584    0.7902    0.1461 H   0  0  0  0  0  0  0  0  0  0  0  0
   -7.3021    0.6698    2.2726 H   0  0  0  0  0  0  0  0  0  0  0  0
   -3.3779   -0.8453    2.1066 H   0  0  0  0  0  0  0  0  0  0  0  0
   -2.5880    0.5652    2.8779 H   0  0  0  0  0  0  0  0  0  0  0  0
   -4.3334   -1.5416    4.2659 H   0  0  0  0  0  0  0  0  0  0  0  0
   -2.5776   -1.4120    4.3828 H   0  0  0  0  0  0  0  0  0  0  0  0
   -4.8463    1.5547    6.0219 H   0  0  0  0  0  0  0  0  0  0  0  0
   -3.6042    2.0105    4.8520 H   0  0  0  0  0  0  0  0  0  0  0  0
   -6.0948    0.3174    4.2271 H   0  0  0  0  0  0  0  0  0  0  0  0
   -5.8980    2.0508    3.8411 H   0  0  0  0  0  0  0  0  0  0  0  0
    4.2074   -2.0519    0.1617 H   0  0  0  0  0  0  0  0  0  0  0  0
    4.1266   -3.6556   -1.5652 H   0  0  0  0  0  0  0  0  0  0  0  0
    5.6872   -3.5924   -0.6759 H   0  0  0  0  0  0  0  0  0  0  0  0
    6.8532   -4.4741   -2.6823 H   0  0  0  0  0  0  0  0  0  0  0  0
    5.3354   -4.5204   -3.5696 H   0  0  0  0  0  0  0  0  0  0  0  0
    5.5656   -5.5883   -2.1649 H   0  0  0  0  0  0  0  0  0  0  0  0
  1  2  1  0
  2  3  1  0
  3  4  1  0
  4  5  2  0
  5  6  1  0
  6  7  2  0
  7  8  1  0
  8  9  1  0
  9 10  1  0
 10 11  1  0
 11 12  2  0
 11 13  1  0
 13 14  1  0
 14 15  1  0
 15 16  2  0
 15 17  1  0
 17 18  2  0
 18 19  1  0
 19 20  1  0
 20 21  2  0
 20 22  1  0
 19 23  2  0
 23 24  1  0
 24 25  2  0
 25 26  1  0
 26 27  1  0
 27 28  1  0
 28 29  1  0
 29 30  1  0
 30 31  1  0
  7 32  1  0
 32 33  2  0
 33 34  1  0
 34 35  1  0
 35 36  1  0
 33  4  1  0
 25 17  1  0
 31 26  1  0
  1 37  1  0
  1 38  1  0
  1 39  1  0
  2 40  1  0
  2 41  1  0
  5 42  1  0
  6 43  1  0
  8 44  1  0
  8 45  1  0
  9 46  1  0
  9 47  1  0
 10 48  1  0
 13 49  1  0
 13 50  1  0
 18 51  1  0
 23 52  1  0
 24 53  1  0
 27 54  1  0
 27 55  1  0
 28 56  1  0
 28 57  1  0
 30 58  1  0
 30 59  1  0
 31 60  1  0
 31 61  1  0
 32 62  1  0
 35 63  1  0
 35 64  1  0
 36 65  1  0
 36 66  1  0
 36 67  1  0
M  CHG  2  20   1  22  -1
M  END
$$$$
