
     RDKit          3D

 52 51  0  0  0  0  0  0  0  0999 V2000
   -3.9318   -0.9190   -2.8972 C   0  0  0  0  0  0  0  0  0  0  0  0
   -4.2831   -0.0633   -2.1300 C   0  0  0  0  0  0  0  0  0  0  0  0
   -4.7248    0.9968   -1.2218 C   0  0  0  0  0  0  0  0  0  0  0  0
   -4.8414    0.5390    0.2454 N   0  0  0  0  0  4  0  0  0  0  0  0
   -5.5828   -0.7895    0.3662 C   0  0  0  0  0  0  0  0  0  0  0  0
   -5.6955    1.5962    0.9683 C   0  0  0  0  0  0  0  0  0  0  0  0
   -3.4820    0.5039    0.9725 C   0  0  0  0  0  0  0  0  0  0  0  0
   -2.4539   -0.4602    0.3827 C   0  0  0  0  0  0  0  0  0  0  0  0
   -1.2207   -0.6305    1.2820 C   0  0  0  0  0  0  0  0  0  0  0  0
   -0.4199    0.6629    1.4656 C   0  0  0  0  0  0  0  0  0  0  0  0
    0.8859    0.4501    2.2408 C   0  0  0  0  0  0  0  0  0  0  0  0
    2.1336    0.3131    1.3595 C   0  0  0  0  0  0  0  0  0  0  0  0
    2.1301   -0.9244    0.4616 C   0  0  0  0  0  0  0  0  0  0  0  0
    3.4768   -1.1751   -0.2269 C   0  0  0  0  0  0  0  0  0  0  0  0
    3.8445   -0.0933   -1.2477 C   0  0  0  0  0  0  0  0  0  0  0  0
    5.1440   -0.3998   -2.0019 C   0  0  0  0  0  0  0  0  0  0  0  0
    6.3928    0.2725   -1.4236 C   0  0  0  0  0  0  0  0  0  0  0  0
    6.7582   -0.1785   -0.0203 C   0  0  0  0  0  0  0  0  0  0  0  0
   -3.6177   -1.6708   -3.5875 H   0  0  0  0  0  0  0  0  0  0  0  0
   -4.0440    1.8550   -1.2391 H   0  0  0  0  0  0  0  0  0  0  0  0
   -5.7195    1.3402   -1.5300 H   0  0  0  0  0  0  0  0  0  0  0  0
   -5.7130   -1.0142    1.4293 H   0  0  0  0  0  0  0  0  0  0  0  0
   -6.5573   -0.6860   -0.1211 H   0  0  0  0  0  0  0  0  0  0  0  0
   -5.0070   -1.5846   -0.1101 H   0  0  0  0  0  0  0  0  0  0  0  0
   -6.6884    1.6180    0.5086 H   0  0  0  0  0  0  0  0  0  0  0  0
   -5.2038    2.5682    0.8638 H   0  0  0  0  0  0  0  0  0  0  0  0
   -5.7743    1.3171    2.0235 H   0  0  0  0  0  0  0  0  0  0  0  0
   -3.0957    1.5295    0.9537 H   0  0  0  0  0  0  0  0  0  0  0  0
   -3.6961    0.2364    2.0145 H   0  0  0  0  0  0  0  0  0  0  0  0
   -2.8891   -1.4533    0.2377 H   0  0  0  0  0  0  0  0  0  0  0  0
   -2.1135   -0.1021   -0.5940 H   0  0  0  0  0  0  0  0  0  0  0  0
   -1.5341   -1.0091    2.2628 H   0  0  0  0  0  0  0  0  0  0  0  0
   -0.5870   -1.4054    0.8392 H   0  0  0  0  0  0  0  0  0  0  0  0
   -0.2195    1.1331    0.4959 H   0  0  0  0  0  0  0  0  0  0  0  0
   -1.0345    1.3693    2.0366 H   0  0  0  0  0  0  0  0  0  0  0  0
    1.0434    1.3282    2.8807 H   0  0  0  0  0  0  0  0  0  0  0  0
    0.8037   -0.4099    2.9159 H   0  0  0  0  0  0  0  0  0  0  0  0
    2.2370    1.2182    0.7501 H   0  0  0  0  0  0  0  0  0  0  0  0
    3.0104    0.2762    2.0180 H   0  0  0  0  0  0  0  0  0  0  0  0
    1.3502   -0.8324   -0.3026 H   0  0  0  0  0  0  0  0  0  0  0  0
    1.8883   -1.8066    1.0667 H   0  0  0  0  0  0  0  0  0  0  0  0
    3.4187   -2.1424   -0.7416 H   0  0  0  0  0  0  0  0  0  0  0  0
    4.2573   -1.2743    0.5335 H   0  0  0  0  0  0  0  0  0  0  0  0
    3.0308   -0.0339   -1.9820 H   0  0  0  0  0  0  0  0  0  0  0  0
    3.9103    0.8914   -0.7732 H   0  0  0  0  0  0  0  0  0  0  0  0
    5.3022   -1.4818   -2.0820 H   0  0  0  0  0  0  0  0  0  0  0  0
    5.0302   -0.0302   -3.0293 H   0  0  0  0  0  0  0  0  0  0  0  0
    7.2372    0.0551   -2.0889 H   0  0  0  0  0  0  0  0  0  0  0  0
    6.2630    1.3613   -1.4303 H   0  0  0  0  0  0  0  0  0  0  0  0
    7.7302    0.2366    0.2656 H   0  0  0  0  0  0  0  0  0  0  0  0
    6.0260    0.1715    0.7129 H   0  0  0  0  0  0  0  0  0  0  0  0
    6.8253   -1.2691    0.0400 H   0  0  0  0  0  0  0  0  0  0  0  0
  1  2  3  0
  2  3  1  0
  3  4  1  0
  4  5  1  0
  4  6  1  0
  4  7  1  0
  7  8  1  0
  8  9  1  0
  9 10  1  0
 10 11  1  0
 11 12  1  0
 12 13  1  0
 13 14  1  0
 14 15  1  0
 15 16  1  0
 16 17  1  0
 17 18  1  0
  1 19  1  0
  3 20  1  0
  3 21  1  0
  5 22  1  0
  5 23  1  0
  5 24  1  0
  6 25  1  0
  6 26  1  0
  6 27  1  0
  7 28  1  0
  7 29  1  0
  8 30  1  0
  8 31  1  0
  9 32  1  0
  9 33  1  0
 10 34  1  0
 10 35  1  0
 11 36  1  0
 11 37  1  0
 12 38  1  0
 12 39  1  0
 13 40  1  0
 13 41  1  0
 14 42  1  0
 14 43  1  0
 15 44  1  0
 15 45  1  0
 16 46  1  0
 16 47  1  0
 17 48  1  0
 17 49  1  0
 18 50  1  0
 18 51  1  0
 18 52  1  0
M  CHG  1   4   1
M  END
$$$$
