
     RDKit          3D

 68 70  0  0  0  0  0  0  0  0999 V2000
   -4.0232   -0.6501    5.7573 C   0  0  0  0  0  0  0  0  0  0  0  0
   -4.4581   -1.0595    4.4657 O   0  0  0  0  0  0  0  0  0  0  0  0
   -3.6159   -0.7997    3.4205 C   0  0  0  0  0  0  0  0  0  0  0  0
   -4.0780   -1.2328    2.1763 C   0  0  0  0  0  0  0  0  0  0  0  0
   -3.3205   -1.0289    1.0193 C   0  0  0  0  0  0  0  0  0  0  0  0
   -2.0730   -0.3914    1.0889 C   0  0  0  0  0  0  0  0  0  0  0  0
   -1.2071   -0.1320   -0.1404 C   0  0  0  0  0  0  0  0  0  0  0  0
   -1.4750   -1.1324   -1.3044 C   0  0  0  0  0  0  0  0  0  0  0  0
   -2.1252   -0.8364   -2.3035 O   0  0  0  0  0  0  0  0  0  0  0  0
   -0.9320   -2.3913   -1.0927 N   0  0  0  0  0  0  0  0  0  0  0  0
   -1.0902   -3.5377   -2.0017 C   0  0  0  0  0  0  0  0  0  0  0  0
   -0.2729   -4.7108   -1.4289 C   0  0  0  0  0  0  0  0  0  0  0  0
   -2.5629   -3.9632   -2.0863 C   0  0  0  0  0  0  0  0  0  0  0  0
   -0.5493   -3.2164   -3.4039 C   0  0  0  0  0  0  0  0  0  0  0  0
   -1.2556    1.2631   -0.6302 N   0  0  0  0  0  0  0  0  0  0  0  0
   -2.5653    1.8958   -0.8091 C   0  0  0  0  0  0  0  0  0  0  0  0
   -2.9632    2.6512    0.4158 C   0  0  0  0  0  0  0  0  0  0  0  0
   -4.1431    2.7226    1.1304 C   0  0  0  0  0  0  0  0  0  0  0  0
   -3.9124    3.6198    2.2007 C   0  0  0  0  0  0  0  0  0  0  0  0
   -2.6110    4.0423    2.0717 C   0  0  0  0  0  0  0  0  0  0  0  0
   -2.0257    3.4597    0.9952 O   0  0  0  0  0  0  0  0  0  0  0  0
   -0.1543    1.9347   -1.1513 C   0  0  0  0  0  0  0  0  0  0  0  0
   -0.2440    3.0224   -1.7233 O   0  0  0  0  0  0  0  0  0  0  0  0
    1.2034    1.2777   -0.9855 C   0  0  0  0  0  0  0  0  0  0  0  0
    2.3268    2.1604   -1.5211 C   0  0  0  0  0  0  0  0  0  0  0  0
    3.6852    1.5433   -1.2573 C   0  0  0  0  0  0  0  0  0  0  0  0
    3.8142    0.3879   -0.8616 O   0  0  0  0  0  0  0  0  0  0  0  0
    4.7093    2.4228   -1.5264 N   0  0  0  0  0  0  0  0  0  0  0  0
    6.0508    2.1554   -1.3659 C   0  0  0  0  0  0  0  0  0  0  0  0
    6.6870    0.9643   -0.9511 C   0  0  0  0  0  0  0  0  0  0  0  0
    8.0260    1.2684   -0.9563 C   0  0  0  0  0  0  0  0  0  0  0  0
    9.2500    0.5193   -0.6291 C   0  0  0  0  0  0  0  0  0  0  0  0
    8.1876    2.5600   -1.3482 O   0  0  0  0  0  0  0  0  0  0  0  0
    6.9497    3.1168   -1.6119 N   0  0  0  0  0  0  0  0  0  0  0  0
   -1.6207    0.0493    2.3445 C   0  0  0  0  0  0  0  0  0  0  0  0
   -2.3840   -0.1539    3.4998 C   0  0  0  0  0  0  0  0  0  0  0  0
   -4.8044   -0.9184    6.4760 H   0  0  0  0  0  0  0  0  0  0  0  0
   -3.1080   -1.1761    6.0485 H   0  0  0  0  0  0  0  0  0  0  0  0
   -3.8882    0.4354    5.8047 H   0  0  0  0  0  0  0  0  0  0  0  0
   -5.0435   -1.7292    2.1046 H   0  0  0  0  0  0  0  0  0  0  0  0
   -3.7314   -1.3663    0.0692 H   0  0  0  0  0  0  0  0  0  0  0  0
   -0.1819   -0.3521    0.1771 H   0  0  0  0  0  0  0  0  0  0  0  0
   -0.6091   -2.5972   -0.1544 H   0  0  0  0  0  0  0  0  0  0  0  0
   -0.6302   -4.9893   -0.4292 H   0  0  0  0  0  0  0  0  0  0  0  0
    0.7869   -4.4452   -1.3322 H   0  0  0  0  0  0  0  0  0  0  0  0
   -0.3420   -5.5972   -2.0684 H   0  0  0  0  0  0  0  0  0  0  0  0
   -3.1910   -3.1797   -2.5201 H   0  0  0  0  0  0  0  0  0  0  0  0
   -2.9639   -4.1874   -1.0918 H   0  0  0  0  0  0  0  0  0  0  0  0
   -2.6798   -4.8586   -2.7065 H   0  0  0  0  0  0  0  0  0  0  0  0
    0.4825   -2.8519   -3.3521 H   0  0  0  0  0  0  0  0  0  0  0  0
   -0.5616   -4.1053   -4.0444 H   0  0  0  0  0  0  0  0  0  0  0  0
   -1.1426   -2.4492   -3.9101 H   0  0  0  0  0  0  0  0  0  0  0  0
   -2.5446    2.5908   -1.6560 H   0  0  0  0  0  0  0  0  0  0  0  0
   -3.3128    1.1339   -1.0532 H   0  0  0  0  0  0  0  0  0  0  0  0
   -5.0553    2.1876    0.9051 H   0  0  0  0  0  0  0  0  0  0  0  0
   -4.6092    3.9228    2.9685 H   0  0  0  0  0  0  0  0  0  0  0  0
   -1.9844    4.7225    2.6313 H   0  0  0  0  0  0  0  0  0  0  0  0
    1.3753    1.0974    0.0819 H   0  0  0  0  0  0  0  0  0  0  0  0
    1.2034    0.3206   -1.5189 H   0  0  0  0  0  0  0  0  0  0  0  0
    2.2907    3.1463   -1.0416 H   0  0  0  0  0  0  0  0  0  0  0  0
    2.2164    2.3044   -2.6026 H   0  0  0  0  0  0  0  0  0  0  0  0
    4.5120    3.3628   -1.8438 H   0  0  0  0  0  0  0  0  0  0  0  0
    6.2391    0.0190   -0.6798 H   0  0  0  0  0  0  0  0  0  0  0  0
    9.5905    0.7665    0.3816 H   0  0  0  0  0  0  0  0  0  0  0  0
   10.0537    0.7561   -1.3331 H   0  0  0  0  0  0  0  0  0  0  0  0
    9.0700   -0.5599   -0.6757 H   0  0  0  0  0  0  0  0  0  0  0  0
   -0.6740    0.5806    2.4289 H   0  0  0  0  0  0  0  0  0  0  0  0
   -1.9903    0.2160    4.4405 H   0  0  0  0  0  0  0  0  0  0  0  0
  1  2  1  0
  2  3  1  0
  3  4  2  0
  4  5  1  0
  5  6  2  0
  6  7  1  0
  7  8  1  0
  8  9  2  0
  8 10  1  0
 10 11  1  0
 11 12  1  0
 11 13  1  0
 11 14  1  0
  7 15  1  0
 15 16  1  0
 16 17  1  0
 17 18  2  0
 18 19  1  0
 19 20  2  0
 20 21  1  0
 15 22  1  0
 22 23  2  0
 22 24  1  0
 24 25  1  0
 25 26  1  0
 26 27  2  0
 26 28  1  0
 28 29  1  0
 29 30  1  0
 30 31  2  0
 31 32  1  0
 31 33  1  0
 33 34  1  0
  6 35  1  0
 35 36  2  0
 36  3  1  0
 21 17  1  0
 34 29  2  0
  1 37  1  0
  1 38  1  0
  1 39  1  0
  4 40  1  0
  5 41  1  0
  7 42  1  0
 10 43  1  0
 12 44  1  0
 12 45  1  0
 12 46  1  0
 13 47  1  0
 13 48  1  0
 13 49  1  0
 14 50  1  0
 14 51  1  0
 14 52  1  0
 16 53  1  0
 16 54  1  0
 18 55  1  0
 19 56  1  0
 20 57  1  0
 24 58  1  0
 24 59  1  0
 25 60  1  0
 25 61  1  0
 28 62  1  0
 30 63  1  0
 32 64  1  0
 32 65  1  0
 32 66  1  0
 35 67  1  0
 36 68  1  0
M  END
$$$$
