
     RDKit          3D

 60 65  0  0  0  0  0  0  0  0999 V2000
   -2.2408   -1.4114   -3.4443 O   0  0  0  0  0  0  0  0  0  0  0  0
   -2.5061   -1.3136   -2.2520 C   0  0  0  0  0  0  0  0  0  0  0  0
   -1.5336   -1.3663   -1.2613 N   0  0  0  0  0  0  0  0  0  0  0  0
   -1.7944   -1.2403    0.1025 C   0  0  0  0  0  0  0  0  0  0  0  0
   -0.5858   -1.3099    1.0277 C   0  0  0  0  0  0  0  0  0  0  0  0
    0.3508   -0.1236    0.7283 C   0  0  0  0  0  0  0  0  0  0  0  0
    1.7961   -0.3514    1.1379 C   0  0  0  0  0  0  0  0  0  0  0  0
    2.2748   -1.6886    0.7216 N   0  0  0  0  0  0  0  0  0  0  0  0
    2.5881   -1.9609   -0.9373 S   0  0  0  0  0  6  0  0  0  0  0  0
    1.3779   -1.6170   -1.6623 O   0  0  0  0  0  0  0  0  0  0  0  0
    3.1810   -3.2727   -1.0715 O   0  0  0  0  0  0  0  0  0  0  0  0
    3.8394   -0.7668   -1.3141 C   0  0  0  0  0  0  0  0  0  0  0  0
    3.5906    0.2420   -2.2506 C   0  0  0  0  0  0  0  0  0  0  0  0
    4.5861    1.1811   -2.5252 C   0  0  0  0  0  0  0  0  0  0  0  0
    5.8145    1.1060   -1.8679 C   0  0  0  0  0  0  0  0  0  0  0  0
    6.0654    0.0725   -0.9568 C   0  0  0  0  0  0  0  0  0  0  0  0
    5.0749   -0.8612   -0.6668 C   0  0  0  0  0  0  0  0  0  0  0  0
    7.2619   -0.0774   -0.3041 O   0  0  0  0  0  0  0  0  0  0  0  0
    8.2962    0.6888   -0.9332 C   0  0  0  0  0  0  0  0  0  0  0  0
    7.8109    2.0981   -1.2300 C   0  0  0  0  0  0  0  0  0  0  0  0
    6.7337    2.0765   -2.1739 O   0  0  0  0  0  0  0  0  0  0  0  0
    1.4925   -2.7526    1.3948 C   0  0  0  0  0  0  0  0  0  0  0  0
    0.0438   -2.7122    0.9374 C   0  0  0  0  0  0  0  0  0  0  0  0
   -2.9842   -1.0682    0.6110 N   0  0  0  0  0  0  0  0  0  0  0  0
   -3.9537   -1.0198   -0.3368 C   0  0  0  0  0  0  0  0  0  0  0  0
   -3.8216   -1.1273   -1.7007 C   0  0  0  0  0  0  0  0  0  0  0  0
   -5.0353   -1.0344   -2.3083 N   0  0  0  0  0  0  0  0  0  0  0  0
   -5.9470   -0.8698   -1.3497 N   0  0  0  0  0  0  0  0  0  0  0  0
   -5.2974   -0.8445   -0.1602 N   0  0  0  0  0  0  0  0  0  0  0  0
   -6.0249   -0.7116    1.0853 C   0  0  0  0  0  0  0  0  0  0  0  0
   -6.1806    0.7302    1.4843 C   0  0  0  0  0  0  0  0  0  0  0  0
   -5.1337    1.4312    2.1029 C   0  0  0  0  0  0  0  0  0  0  0  0
   -5.2904    2.7757    2.4497 C   0  0  0  0  0  0  0  0  0  0  0  0
   -6.4906    3.4342    2.1819 C   0  0  0  0  0  0  0  0  0  0  0  0
   -7.5358    2.7476    1.5674 C   0  0  0  0  0  0  0  0  0  0  0  0
   -7.3738    1.4085    1.2243 C   0  0  0  0  0  0  0  0  0  0  0  0
   -8.3960    0.7637    0.6453 F   0  0  0  0  0  0  0  0  0  0  0  0
   -0.5820   -1.4948   -1.6035 H   0  0  0  0  0  0  0  0  0  0  0  0
   -0.9412   -1.1844    2.0600 H   0  0  0  0  0  0  0  0  0  0  0  0
   -0.0298    0.7653    1.2489 H   0  0  0  0  0  0  0  0  0  0  0  0
    0.3222    0.1573   -0.3297 H   0  0  0  0  0  0  0  0  0  0  0  0
    2.4404    0.4360    0.7351 H   0  0  0  0  0  0  0  0  0  0  0  0
    1.8877   -0.2760    2.2288 H   0  0  0  0  0  0  0  0  0  0  0  0
    2.6364    0.3049   -2.7691 H   0  0  0  0  0  0  0  0  0  0  0  0
    4.4050    1.9740   -3.2467 H   0  0  0  0  0  0  0  0  0  0  0  0
    5.2695   -1.6591    0.0458 H   0  0  0  0  0  0  0  0  0  0  0  0
    8.6089    0.1697   -1.8477 H   0  0  0  0  0  0  0  0  0  0  0  0
    9.1497    0.7184   -0.2486 H   0  0  0  0  0  0  0  0  0  0  0  0
    7.4648    2.6029   -0.3195 H   0  0  0  0  0  0  0  0  0  0  0  0
    8.6201    2.6937   -1.6640 H   0  0  0  0  0  0  0  0  0  0  0  0
    1.9362   -3.7350    1.2016 H   0  0  0  0  0  0  0  0  0  0  0  0
    1.5511   -2.6045    2.4802 H   0  0  0  0  0  0  0  0  0  0  0  0
   -0.5460   -3.4070    1.5494 H   0  0  0  0  0  0  0  0  0  0  0  0
   -0.0215   -3.1163   -0.0789 H   0  0  0  0  0  0  0  0  0  0  0  0
   -5.4831   -1.2667    1.8599 H   0  0  0  0  0  0  0  0  0  0  0  0
   -6.9948   -1.2075    0.9636 H   0  0  0  0  0  0  0  0  0  0  0  0
   -4.1874    0.9356    2.3129 H   0  0  0  0  0  0  0  0  0  0  0  0
   -4.4729    3.3120    2.9261 H   0  0  0  0  0  0  0  0  0  0  0  0
   -6.6103    4.4810    2.4493 H   0  0  0  0  0  0  0  0  0  0  0  0
   -8.4756    3.2457    1.3507 H   0  0  0  0  0  0  0  0  0  0  0  0
  1  2  2  0
  2  3  1  0
  3  4  1  0
  4  5  1  0
  5  6  1  0
  6  7  1  0
  7  8  1  0
  8  9  1  0
  9 10  2  0
  9 11  2  0
  9 12  1  0
 12 13  2  0
 13 14  1  0
 14 15  2  0
 15 16  1  0
 16 17  2  0
 16 18  1  0
 18 19  1  0
 19 20  1  0
 20 21  1  0
  8 22  1  0
 22 23  1  0
  4 24  2  0
 24 25  1  0
 25 26  2  0
 26 27  1  0
 27 28  2  0
 28 29  1  0
 29 30  1  0
 30 31  1  0
 31 32  2  0
 32 33  1  0
 33 34  2  0
 34 35  1  0
 35 36  2  0
 36 37  1  0
 26  2  1  0
 36 31  1  0
 23  5  1  0
 29 25  1  0
 17 12  1  0
 21 15  1  0
  3 38  1  0
  5 39  1  0
  6 40  1  0
  6 41  1  0
  7 42  1  0
  7 43  1  0
 13 44  1  0
 14 45  1  0
 17 46  1  0
 19 47  1  0
 19 48  1  0
 20 49  1  0
 20 50  1  0
 22 51  1  0
 22 52  1  0
 23 53  1  0
 23 54  1  0
 30 55  1  0
 30 56  1  0
 32 57  1  0
 33 58  1  0
 34 59  1  0
 35 60  1  0
M  END
$$$$
