
     RDKit          3D

 33 34  0  0  0  0  0  0  0  0999 V2000
   -2.0759    3.7163    1.6677 C   0  0  0  0  0  0  0  0  0  0  0  0
   -1.3020    2.5463    1.4025 O   0  0  0  0  0  0  0  0  0  0  0  0
   -0.3072    2.7510    0.5067 C   0  0  0  0  0  0  0  0  0  0  0  0
    0.0556    3.8057    0.0174 O   0  0  0  0  0  0  0  0  0  0  0  0
    0.4026    1.4809    0.3163 C   0  0  0  0  0  0  0  0  0  0  0  0
    1.7369    1.4539    0.7169 C   0  0  0  0  0  0  0  0  0  0  0  0
    2.4064    0.2573    0.6124 C   0  0  0  0  0  0  0  0  0  0  0  0
    3.7208    0.2495    1.0256 O   0  0  0  0  0  0  0  0  0  0  0  0
    4.3552   -1.0161    0.8690 C   0  0  0  0  0  0  0  0  0  0  0  0
    1.8349   -0.8737    0.1522 N   0  0  0  0  0  0  0  0  0  0  0  0
    0.5390   -0.8265   -0.2516 C   0  0  0  0  0  0  0  0  0  0  0  0
   -0.2063    0.3365   -0.2056 C   0  0  0  0  0  0  0  0  0  0  0  0
   -1.5677    0.3134   -0.7530 C   0  0  0  0  0  0  0  0  0  0  0  0
   -2.1505    1.3661   -0.9923 O   0  0  0  0  0  0  0  0  0  0  0  0
   -2.1076   -0.9344   -1.0252 N   0  0  0  0  0  0  0  0  0  0  0  0
   -3.4819   -0.9827   -1.4922 C   0  0  0  0  0  0  0  0  0  0  0  0
   -1.3632   -2.1025   -1.1188 C   0  0  0  0  0  0  0  0  0  0  0  0
   -1.8557   -3.1506   -1.5404 O   0  0  0  0  0  0  0  0  0  0  0  0
   -0.0398   -2.0186   -0.7319 N   0  0  0  0  0  0  0  0  0  0  0  0
    0.8072   -3.2018   -0.7855 C   0  0  0  0  0  0  0  0  0  0  0  0
   -2.8923    3.4375    2.3396 H   0  0  0  0  0  0  0  0  0  0  0  0
   -1.4616    4.4744    2.1632 H   0  0  0  0  0  0  0  0  0  0  0  0
   -2.5089    4.1116    0.7432 H   0  0  0  0  0  0  0  0  0  0  0  0
    2.2323    2.3365    1.1084 H   0  0  0  0  0  0  0  0  0  0  0  0
    4.3805   -1.3196   -0.1834 H   0  0  0  0  0  0  0  0  0  0  0  0
    5.3896   -0.9153    1.2117 H   0  0  0  0  0  0  0  0  0  0  0  0
    3.8720   -1.7805    1.4873 H   0  0  0  0  0  0  0  0  0  0  0  0
   -4.0671   -0.1550   -1.0807 H   0  0  0  0  0  0  0  0  0  0  0  0
   -3.9547   -1.9256   -1.2007 H   0  0  0  0  0  0  0  0  0  0  0  0
   -3.4791   -0.9101   -2.5845 H   0  0  0  0  0  0  0  0  0  0  0  0
    1.1416   -3.4546    0.2261 H   0  0  0  0  0  0  0  0  0  0  0  0
    1.6715   -3.0030   -1.4279 H   0  0  0  0  0  0  0  0  0  0  0  0
    0.2753   -4.0662   -1.1925 H   0  0  0  0  0  0  0  0  0  0  0  0
  1  2  1  0
  2  3  1  0
  3  4  2  0
  3  5  1  0
  5  6  2  0
  6  7  1  0
  7  8  1  0
  8  9  1  0
  7 10  2  0
 10 11  1  0
 11 12  2  0
 12 13  1  0
 13 14  2  0
 13 15  1  0
 15 16  1  0
 15 17  1  0
 17 18  2  0
 17 19  1  0
 19 20  1  0
 12  5  1  0
 19 11  1  0
  1 21  1  0
  1 22  1  0
  1 23  1  0
  6 24  1  0
  9 25  1  0
  9 26  1  0
  9 27  1  0
 16 28  1  0
 16 29  1  0
 16 30  1  0
 20 31  1  0
 20 32  1  0
 20 33  1  0
M  END
$$$$
