
     RDKit          3D

 43 45  0  0  0  0  0  0  0  0999 V2000
   -5.7521    1.8875   -0.6640 C   0  0  0  0  0  0  0  0  0  0  0  0
   -5.1366    0.6988   -0.6039 C   0  0  0  0  0  0  0  0  0  0  0  0
   -4.3980    0.1801    0.5963 C   0  0  0  0  0  0  0  0  0  0  0  0
   -3.0269   -0.2132    0.2650 N   0  0  0  0  0  0  0  0  0  0  0  0
   -1.9173    0.6135    0.3192 C   0  0  0  0  0  0  0  0  0  0  0  0
   -2.0123    2.0485    0.7167 C   0  0  0  0  0  0  0  0  0  0  0  0
   -0.8213   -0.1556   -0.0357 C   0  0  0  0  0  0  0  0  0  0  0  0
    0.5173    0.3447   -0.0938 C   0  0  0  0  0  0  0  0  0  0  0  0
    1.5940   -0.3057    0.3789 C   0  0  0  0  0  0  0  0  0  0  0  0
    2.9664    0.2083    0.3196 C   0  0  0  0  0  0  0  0  0  0  0  0
    3.2720    1.5525    0.5278 C   0  0  0  0  0  0  0  0  0  0  0  0
    4.5965    1.9739    0.4866 C   0  0  0  0  0  0  0  0  0  0  0  0
    5.5929    1.0920    0.2501 N   0  0  0  0  0  4  0  0  0  0  0  0
    6.9887    1.5606    0.2194 C   0  0  0  0  0  0  0  0  0  0  0  0
    5.3239   -0.2199    0.0691 C   0  0  0  0  0  0  0  0  0  0  0  0
    4.0142   -0.6853    0.1040 C   0  0  0  0  0  0  0  0  0  0  0  0
   -1.2787   -1.4728   -0.3465 C   0  0  0  0  0  0  0  0  0  0  0  0
   -0.6552   -2.6571   -0.8025 C   0  0  0  0  0  0  0  0  0  0  0  0
   -1.4155   -3.8103   -1.0204 C   0  0  0  0  0  0  0  0  0  0  0  0
   -2.7868   -3.7999   -0.7994 C   0  0  0  0  0  0  0  0  0  0  0  0
   -3.4328   -2.6410   -0.3622 C   0  0  0  0  0  0  0  0  0  0  0  0
   -2.6610   -1.4853   -0.1435 C   0  0  0  0  0  0  0  0  0  0  0  0
   -5.7580    2.5765    0.1750 H   0  0  0  0  0  0  0  0  0  0  0  0
   -6.2716    2.1966   -1.5669 H   0  0  0  0  0  0  0  0  0  0  0  0
   -5.1682    0.0469   -1.4752 H   0  0  0  0  0  0  0  0  0  0  0  0
   -4.9109   -0.6971    1.0039 H   0  0  0  0  0  0  0  0  0  0  0  0
   -4.3510    0.9178    1.4041 H   0  0  0  0  0  0  0  0  0  0  0  0
   -2.3656    2.1393    1.7487 H   0  0  0  0  0  0  0  0  0  0  0  0
   -2.7002    2.5886    0.0591 H   0  0  0  0  0  0  0  0  0  0  0  0
   -1.0427    2.5517    0.6590 H   0  0  0  0  0  0  0  0  0  0  0  0
    0.6314    1.3258   -0.5478 H   0  0  0  0  0  0  0  0  0  0  0  0
    1.4682   -1.2850    0.8389 H   0  0  0  0  0  0  0  0  0  0  0  0
    2.4888    2.2788    0.7361 H   0  0  0  0  0  0  0  0  0  0  0  0
    4.8687    3.0132    0.6479 H   0  0  0  0  0  0  0  0  0  0  0  0
    7.0125    2.5923   -0.1408 H   0  0  0  0  0  0  0  0  0  0  0  0
    7.5643    0.9272   -0.4606 H   0  0  0  0  0  0  0  0  0  0  0  0
    7.3786    1.4942    1.2381 H   0  0  0  0  0  0  0  0  0  0  0  0
    6.1624   -0.8898   -0.0998 H   0  0  0  0  0  0  0  0  0  0  0  0
    3.8185   -1.7459   -0.0459 H   0  0  0  0  0  0  0  0  0  0  0  0
    0.4116   -2.6781   -0.9981 H   0  0  0  0  0  0  0  0  0  0  0  0
   -0.9323   -4.7184   -1.3718 H   0  0  0  0  0  0  0  0  0  0  0  0
   -3.3686   -4.7019   -0.9765 H   0  0  0  0  0  0  0  0  0  0  0  0
   -4.5074   -2.6470   -0.2082 H   0  0  0  0  0  0  0  0  0  0  0  0
  1  2  2  0
  2  3  1  0
  3  4  1  0
  4  5  1  0
  5  6  1  0
  5  7  2  0
  7  8  1  0
  8  9  2  3
  9 10  1  0
 10 11  2  0
 11 12  1  0
 12 13  2  0
 13 14  1  0
 13 15  1  0
 15 16  2  0
  7 17  1  0
 17 18  2  0
 18 19  1  0
 19 20  2  0
 20 21  1  0
 21 22  2  0
 22  4  1  0
 16 10  1  0
 22 17  1  0
  1 23  1  0
  1 24  1  0
  2 25  1  0
  3 26  1  0
  3 27  1  0
  6 28  1  0
  6 29  1  0
  6 30  1  0
  8 31  1  0
  9 32  1  0
 11 33  1  0
 12 34  1  0
 14 35  1  0
 14 36  1  0
 14 37  1  0
 15 38  1  0
 16 39  1  0
 18 40  1  0
 19 41  1  0
 20 42  1  0
 21 43  1  0
M  CHG  1  13   1
M  END
$$$$
