
     RDKit          3D

 21 21  0  0  0  0  0  0  0  0999 V2000
   -4.3121    2.8099   -0.8545 C   0  0  0  0  0  3  0  0  0  0  0  0
   -3.3556    2.1359   -0.8231 N   0  0  0  0  0  4  0  0  0  0  0  0
   -2.1687    1.2920   -0.7927 C   0  0  0  0  0  0  0  0  0  0  0  0
   -1.1230    1.5068    0.0079 C   0  0  0  0  0  0  0  0  0  0  0  0
   -0.1135    0.4999   -0.2005 C   0  0  0  0  0  0  0  0  0  0  0  0
    1.0517    0.4492    0.4603 C   0  0  0  0  0  0  0  0  0  0  0  0
    2.1225   -0.5906    0.2738 C   0  0  0  0  0  0  0  0  0  0  0  0
    2.3859   -1.3520    1.5575 C   0  0  0  0  0  0  0  0  0  0  0  0
    1.9883   -1.0924    2.6808 O   0  0  0  0  0  0  0  0  0  0  0  0
    3.1922   -2.4155    1.3533 O   0  0  0  0  0  0  0  0  0  0  0  0
   -0.6192   -0.4437   -1.2650 C   0  0  0  0  0  0  0  0  0  0  0  0
   -2.0015    0.0927   -1.6604 C   0  0  0  0  0  0  0  0  0  0  0  0
   -1.0396    2.3185    0.7167 H   0  0  0  0  0  0  0  0  0  0  0  0
    1.2690    1.2084    1.2118 H   0  0  0  0  0  0  0  0  0  0  0  0
    1.8448   -1.3125   -0.5009 H   0  0  0  0  0  0  0  0  0  0  0  0
    3.0522   -0.0956   -0.0260 H   0  0  0  0  0  0  0  0  0  0  0  0
    3.2946   -2.8064    2.2470 H   0  0  0  0  0  0  0  0  0  0  0  0
   -0.7031   -1.4657   -0.8783 H   0  0  0  0  0  0  0  0  0  0  0  0
    0.0489   -0.4528   -2.1336 H   0  0  0  0  0  0  0  0  0  0  0  0
   -2.7828   -0.6494   -1.4665 H   0  0  0  0  0  0  0  0  0  0  0  0
   -2.0311    0.3631   -2.7210 H   0  0  0  0  0  0  0  0  0  0  0  0
  1  2  3  0
  2  3  1  0
  3  4  2  0
  4  5  1  0
  5  6  2  3
  6  7  1  0
  7  8  1  0
  8  9  2  0
  8 10  1  0
  5 11  1  0
 11 12  1  0
 12  3  1  0
  4 13  1  0
  6 14  1  0
  7 15  1  0
  7 16  1  0
 10 17  1  0
 11 18  1  0
 11 19  1  0
 12 20  1  0
 12 21  1  0
M  CHG  2   1  -1   2   1
M  END
$$$$
