
     RDKit          3D

 54 59  0  0  0  0  0  0  0  0999 V2000
    6.5129   -0.3181    2.7418 C   0  0  0  0  0  0  0  0  0  0  0  0
    5.6167   -0.4185    1.5434 C   0  0  0  0  0  0  0  0  0  0  0  0
    5.9522    0.2270    0.3493 C   0  0  0  0  0  0  0  0  0  0  0  0
    5.1015    0.1587   -0.7572 C   0  0  0  0  0  0  0  0  0  0  0  0
    3.8862   -0.5379   -0.6851 C   0  0  0  0  0  0  0  0  0  0  0  0
    2.9767   -0.6188   -1.8935 C   0  0  0  0  0  0  0  0  0  0  0  0
    1.6180   -0.1395   -1.6353 N   0  0  0  0  0  0  0  0  0  0  0  0
    1.2868    1.2206   -1.6336 C   0  0  0  0  0  0  0  0  0  0  0  0
    2.3740    2.2366   -1.9019 C   0  0  0  0  0  0  0  0  0  0  0  0
    0.0908    1.6916   -1.4154 N   0  0  0  0  0  0  0  0  0  0  0  0
   -0.8447    0.7527   -1.1680 C   0  0  0  0  0  0  0  0  0  0  0  0
   -0.6659   -0.6107   -1.1477 C   0  0  0  0  0  0  0  0  0  0  0  0
    0.6481   -1.1363   -1.4027 C   0  0  0  0  0  0  0  0  0  0  0  0
    0.8894   -2.3399   -1.4143 O   0  0  0  0  0  0  0  0  0  0  0  0
   -1.9110   -1.2018   -0.8634 C   0  0  0  0  0  0  0  0  0  0  0  0
   -2.2865   -2.4982   -0.7382 N   0  0  0  0  0  0  0  0  0  0  0  0
   -3.5872   -2.6805   -0.4624 C   0  0  0  0  0  0  0  0  0  0  0  0
   -4.0513   -3.9815   -0.3181 C   0  0  0  0  0  0  0  0  0  0  0  0
   -5.3897   -4.2534   -0.0316 C   0  0  0  0  0  0  0  0  0  0  0  0
   -6.2845   -3.2029    0.1139 C   0  0  0  0  0  0  0  0  0  0  0  0
   -5.8326   -1.8900   -0.0283 C   0  0  0  0  0  0  0  0  0  0  0  0
   -4.5034   -1.6036   -0.3131 C   0  0  0  0  0  0  0  0  0  0  0  0
   -4.1419   -0.3140   -0.4343 N   0  0  0  0  0  0  0  0  0  0  0  0
   -2.8297   -0.1658   -0.7099 C   0  0  0  0  0  0  0  0  0  0  0  0
   -2.1591    1.0216   -0.8797 N   0  0  0  0  0  0  0  0  0  0  0  0
   -2.7669    2.3390   -0.7991 C   0  0  0  0  0  0  0  0  0  0  0  0
   -2.7645    2.8435    0.5978 C   0  0  0  0  0  0  0  0  0  0  0  0
   -3.3550    2.4098    1.7687 C   0  0  0  0  0  0  0  0  0  0  0  0
   -2.9800    3.3330    2.7734 C   0  0  0  0  0  0  0  0  0  0  0  0
   -2.1942    4.2750    2.1534 C   0  0  0  0  0  0  0  0  0  0  0  0
   -2.0634    3.9914    0.8325 O   0  0  0  0  0  0  0  0  0  0  0  0
    3.5566   -1.1860    0.5134 C   0  0  0  0  0  0  0  0  0  0  0  0
    4.4081   -1.1175    1.6191 C   0  0  0  0  0  0  0  0  0  0  0  0
    7.5612   -0.2250    2.4392 H   0  0  0  0  0  0  0  0  0  0  0  0
    6.2389    0.5554    3.3414 H   0  0  0  0  0  0  0  0  0  0  0  0
    6.4337   -1.2149    3.3652 H   0  0  0  0  0  0  0  0  0  0  0  0
    6.8825    0.7855    0.2716 H   0  0  0  0  0  0  0  0  0  0  0  0
    5.3978    0.6620   -1.6750 H   0  0  0  0  0  0  0  0  0  0  0  0
    3.3981   -0.0409   -2.7225 H   0  0  0  0  0  0  0  0  0  0  0  0
    2.9661   -1.6589   -2.2404 H   0  0  0  0  0  0  0  0  0  0  0  0
    3.1054    2.2242   -1.0917 H   0  0  0  0  0  0  0  0  0  0  0  0
    1.9438    3.2423   -1.9508 H   0  0  0  0  0  0  0  0  0  0  0  0
    2.8653    2.0370   -2.8566 H   0  0  0  0  0  0  0  0  0  0  0  0
   -3.3495   -4.8051   -0.4325 H   0  0  0  0  0  0  0  0  0  0  0  0
   -5.7254   -5.2818    0.0758 H   0  0  0  0  0  0  0  0  0  0  0  0
   -7.3304   -3.3985    0.3366 H   0  0  0  0  0  0  0  0  0  0  0  0
   -6.5358   -1.0682    0.0856 H   0  0  0  0  0  0  0  0  0  0  0  0
   -2.2200    3.0097   -1.4706 H   0  0  0  0  0  0  0  0  0  0  0  0
   -3.7914    2.2645   -1.1799 H   0  0  0  0  0  0  0  0  0  0  0  0
   -3.9749    1.5297    1.8782 H   0  0  0  0  0  0  0  0  0  0  0  0
   -3.2487    3.3148    3.8200 H   0  0  0  0  0  0  0  0  0  0  0  0
   -1.6794    5.1628    2.4929 H   0  0  0  0  0  0  0  0  0  0  0  0
    2.6351   -1.7589    0.6000 H   0  0  0  0  0  0  0  0  0  0  0  0
    4.1211   -1.6214    2.5397 H   0  0  0  0  0  0  0  0  0  0  0  0
  1  2  1  0
  2  3  2  0
  3  4  1  0
  4  5  2  0
  5  6  1  0
  6  7  1  0
  7  8  1  0
  8  9  1  0
  8 10  2  0
 10 11  1  0
 11 12  2  0
 12 13  1  0
 13 14  2  0
 12 15  1  0
 15 16  2  0
 16 17  1  0
 17 18  2  0
 18 19  1  0
 19 20  2  0
 20 21  1  0
 21 22  2  0
 22 23  1  0
 23 24  2  0
 24 25  1  0
 25 26  1  0
 26 27  1  0
 27 28  2  0
 28 29  1  0
 29 30  2  0
 30 31  1  0
  5 32  1  0
 32 33  2  0
 33  2  1  0
 13  7  1  0
 24 15  1  0
 31 27  1  0
 25 11  1  0
 22 17  1  0
  1 34  1  0
  1 35  1  0
  1 36  1  0
  3 37  1  0
  4 38  1  0
  6 39  1  0
  6 40  1  0
  9 41  1  0
  9 42  1  0
  9 43  1  0
 18 44  1  0
 19 45  1  0
 20 46  1  0
 21 47  1  0
 26 48  1  0
 26 49  1  0
 28 50  1  0
 29 51  1  0
 30 52  1  0
 32 53  1  0
 33 54  1  0
M  END
$$$$
