
     RDKit          3D

 56 59  0  0  0  0  0  0  0  0999 V2000
   -3.2495    3.9180   -0.8385 C   0  0  0  0  0  0  0  0  0  0  0  0
   -3.0728    3.3035    0.5393 C   0  0  0  0  0  0  0  0  0  0  0  0
   -4.4751    2.2209    0.9868 S   0  0  0  0  0  0  0  0  0  0  0  0
   -4.2063    0.8514   -0.1254 C   0  0  0  0  0  0  0  0  0  0  0  0
   -5.1932    0.5213   -1.0430 C   0  0  0  0  0  0  0  0  0  0  0  0
   -4.9869   -0.5419   -1.9160 C   0  0  0  0  0  0  0  0  0  0  0  0
   -3.7967   -1.2933   -1.8788 C   0  0  0  0  0  0  0  0  0  0  0  0
   -2.7837   -1.0024   -0.9435 C   0  0  0  0  0  0  0  0  0  0  0  0
   -3.0313    0.0863   -0.0737 C   0  0  0  0  0  0  0  0  0  0  0  0
   -1.5687   -1.7491   -0.8991 N   0  0  0  0  0  0  0  0  0  0  0  0
   -0.7332   -1.6115    0.3161 C   0  0  0  0  0  0  0  0  0  0  0  0
    0.3089   -0.4924    0.1679 C   0  0  0  0  0  0  0  0  0  0  0  0
    1.1543   -0.3756    1.4414 C   0  0  0  0  0  0  0  0  0  0  0  0
    2.0485    0.7917    1.4332 N   0  0  0  0  0  0  0  0  0  0  0  0
    3.1099    0.6933    0.4109 C   0  0  0  0  0  0  0  0  0  0  0  0
    4.1128    1.8722    0.4717 C   0  0  0  0  0  0  0  0  0  0  0  0
    4.7243    2.1079    1.7936 N   0  0  0  0  0  0  0  0  0  0  0  0
    5.7261    1.0947    2.1145 C   0  0  0  0  0  0  0  0  0  0  0  0
    3.6558    2.1629    2.8095 C   0  0  0  0  0  0  0  0  0  0  0  0
    2.6561    0.9831    2.7673 C   0  0  0  0  0  0  0  0  0  0  0  0
   -1.1452   -2.6949   -1.8783 C   0  0  0  0  0  0  0  0  0  0  0  0
    0.1681   -3.2190   -1.9028 C   0  0  0  0  0  0  0  0  0  0  0  0
    0.5971   -4.1391   -2.8676 C   0  0  0  0  0  0  0  0  0  0  0  0
   -0.2767   -4.5678   -3.8515 C   0  0  0  0  0  0  0  0  0  0  0  0
   -1.5741   -4.0702   -3.8660 C   0  0  0  0  0  0  0  0  0  0  0  0
   -2.0093   -3.1422   -2.8985 C   0  0  0  0  0  0  0  0  0  0  0  0
   -3.7038   -2.6289   -3.0457 S   0  0  0  0  0  0  0  0  0  0  0  0
   -2.4248    4.6086   -1.0443 H   0  0  0  0  0  0  0  0  0  0  0  0
   -4.1824    4.4876   -0.9076 H   0  0  0  0  0  0  0  0  0  0  0  0
   -3.2446    3.1595   -1.6276 H   0  0  0  0  0  0  0  0  0  0  0  0
   -3.0292    4.1033    1.2859 H   0  0  0  0  0  0  0  0  0  0  0  0
   -2.1281    2.7552    0.6004 H   0  0  0  0  0  0  0  0  0  0  0  0
   -6.1210    1.0852   -1.0936 H   0  0  0  0  0  0  0  0  0  0  0  0
   -5.7683   -0.7859   -2.6335 H   0  0  0  0  0  0  0  0  0  0  0  0
   -2.3000    0.3767    0.6719 H   0  0  0  0  0  0  0  0  0  0  0  0
   -0.2389   -2.5595    0.5653 H   0  0  0  0  0  0  0  0  0  0  0  0
   -1.3579   -1.4388    1.2023 H   0  0  0  0  0  0  0  0  0  0  0  0
    0.9490   -0.6947   -0.6966 H   0  0  0  0  0  0  0  0  0  0  0  0
   -0.1816    0.4659   -0.0368 H   0  0  0  0  0  0  0  0  0  0  0  0
    0.4641   -0.2787    2.2897 H   0  0  0  0  0  0  0  0  0  0  0  0
    1.7232   -1.3014    1.5976 H   0  0  0  0  0  0  0  0  0  0  0  0
    2.6646    0.7036   -0.5899 H   0  0  0  0  0  0  0  0  0  0  0  0
    3.6544   -0.2539    0.5144 H   0  0  0  0  0  0  0  0  0  0  0  0
    3.5864    2.7900    0.1766 H   0  0  0  0  0  0  0  0  0  0  0  0
    4.8941    1.7276   -0.2849 H   0  0  0  0  0  0  0  0  0  0  0  0
    6.5308    1.1071    1.3709 H   0  0  0  0  0  0  0  0  0  0  0  0
    5.3208    0.0789    2.1579 H   0  0  0  0  0  0  0  0  0  0  0  0
    6.1939    1.3150    3.0806 H   0  0  0  0  0  0  0  0  0  0  0  0
    3.0976    3.0972    2.6620 H   0  0  0  0  0  0  0  0  0  0  0  0
    4.0926    2.2382    3.8130 H   0  0  0  0  0  0  0  0  0  0  0  0
    3.1625    0.0650    3.0924 H   0  0  0  0  0  0  0  0  0  0  0  0
    1.8641    1.1892    3.4978 H   0  0  0  0  0  0  0  0  0  0  0  0
    0.9155   -2.9147   -1.1780 H   0  0  0  0  0  0  0  0  0  0  0  0
    1.6180   -4.5119   -2.8457 H   0  0  0  0  0  0  0  0  0  0  0  0
    0.0454   -5.2812   -4.6046 H   0  0  0  0  0  0  0  0  0  0  0  0
   -2.2558   -4.4121   -4.6426 H   0  0  0  0  0  0  0  0  0  0  0  0
  1  2  1  0
  2  3  1  0
  3  4  1  0
  4  5  2  0
  5  6  1  0
  6  7  2  0
  7  8  1  0
  8  9  2  0
  8 10  1  0
 10 11  1  0
 11 12  1  0
 12 13  1  0
 13 14  1  0
 14 15  1  0
 15 16  1  0
 16 17  1  0
 17 18  1  0
 17 19  1  0
 19 20  1  0
 10 21  1  0
 21 22  2  0
 22 23  1  0
 23 24  2  0
 24 25  1  0
 25 26  2  0
 26 27  1  0
  9  4  1  0
 20 14  1  0
 26 21  1  0
 27  7  1  0
  1 28  1  0
  1 29  1  0
  1 30  1  0
  2 31  1  0
  2 32  1  0
  5 33  1  0
  6 34  1  0
  9 35  1  0
 11 36  1  0
 11 37  1  0
 12 38  1  0
 12 39  1  0
 13 40  1  0
 13 41  1  0
 15 42  1  0
 15 43  1  0
 16 44  1  0
 16 45  1  0
 18 46  1  0
 18 47  1  0
 18 48  1  0
 19 49  1  0
 19 50  1  0
 20 51  1  0
 20 52  1  0
 22 53  1  0
 23 54  1  0
 24 55  1  0
 25 56  1  0
M  END
$$$$
