
     RDKit          3D

 55 58  0  0  0  0  0  0  0  0999 V2000
    1.9589   -1.3712   -0.9324 O   0  0  0  0  0  0  0  0  0  0  0  0
    1.8951   -0.2843   -1.5090 C   0  0  0  0  0  0  0  0  0  0  0  0
    1.0836   -0.0424   -2.7700 C   0  0  0  0  0  0  0  0  0  0  0  0
   -0.5992   -0.7027   -2.6223 S   0  0  0  0  0  0  0  0  0  0  0  0
   -1.3048    0.4275   -1.5224 C   0  0  0  0  0  0  0  0  0  0  0  0
   -0.7292    1.5060   -1.0535 N   0  0  0  0  0  0  0  0  0  0  0  0
   -1.6367    2.1512   -0.2560 N   0  0  0  0  0  0  0  0  0  0  0  0
   -2.7794    1.4919   -0.3084 C   0  0  0  0  0  0  0  0  0  0  0  0
   -3.9973    1.8957    0.3883 C   0  0  0  0  0  0  0  0  0  0  0  0
   -5.1982    2.0840   -0.3080 C   0  0  0  0  0  0  0  0  0  0  0  0
   -6.3698    2.4262    0.3729 C   0  0  0  0  0  0  0  0  0  0  0  0
   -6.3485    2.6019    1.7542 C   0  0  0  0  0  0  0  0  0  0  0  0
   -5.1537    2.4570    2.4527 C   0  0  0  0  0  0  0  0  0  0  0  0
   -3.9859    2.1251    1.7693 C   0  0  0  0  0  0  0  0  0  0  0  0
   -2.8456    2.0295    2.5172 O   0  0  0  0  0  0  0  0  0  0  0  0
   -2.5827    0.3365   -1.0403 N   0  0  0  0  0  0  0  0  0  0  0  0
   -3.5409   -0.7268   -1.2838 C   0  0  0  0  0  0  0  0  0  0  0  0
   -3.3417   -1.9149   -0.3752 C   0  0  0  0  0  0  0  0  0  0  0  0
   -3.6400   -1.8338    0.9938 C   0  0  0  0  0  0  0  0  0  0  0  0
   -3.4801   -2.9491    1.8234 C   0  0  0  0  0  0  0  0  0  0  0  0
   -3.0259   -4.1565    1.2940 C   0  0  0  0  0  0  0  0  0  0  0  0
   -2.7313   -4.2487   -0.0641 C   0  0  0  0  0  0  0  0  0  0  0  0
   -2.8864   -3.1368   -0.8941 C   0  0  0  0  0  0  0  0  0  0  0  0
    2.6110    0.8237   -1.0781 N   0  0  0  0  0  0  0  0  0  0  0  0
    3.6209    0.5898   -0.1243 N   0  0  0  0  0  0  0  0  0  0  0  0
    4.9145    0.8984   -0.5137 C   0  0  0  0  0  0  0  0  0  0  0  0
    5.1771    1.4954   -1.5578 O   0  0  0  0  0  0  0  0  0  0  0  0
    6.0124    0.4424    0.3763 C   0  0  0  0  0  0  0  0  0  0  0  0
    5.7906    0.2002    1.7433 C   0  0  0  0  0  0  0  0  0  0  0  0
    6.8430   -0.2224    2.5636 C   0  0  0  0  0  0  0  0  0  0  0  0
    8.1200   -0.4004    2.0276 C   0  0  0  0  0  0  0  0  0  0  0  0
    8.3512   -0.1401    0.6793 C   0  0  0  0  0  0  0  0  0  0  0  0
    7.3069    0.2895   -0.1423 C   0  0  0  0  0  0  0  0  0  0  0  0
    7.6306    0.5470   -1.4490 O   0  0  0  0  0  0  0  0  0  0  0  0
    1.5942   -0.5579   -3.5893 H   0  0  0  0  0  0  0  0  0  0  0  0
    1.0543    1.0222   -3.0278 H   0  0  0  0  0  0  0  0  0  0  0  0
   -5.2315    1.9768   -1.3898 H   0  0  0  0  0  0  0  0  0  0  0  0
   -7.2986    2.5618   -0.1733 H   0  0  0  0  0  0  0  0  0  0  0  0
   -7.2586    2.8642    2.2862 H   0  0  0  0  0  0  0  0  0  0  0  0
   -5.1294    2.6156    3.5269 H   0  0  0  0  0  0  0  0  0  0  0  0
   -2.0770    2.1032    1.9149 H   0  0  0  0  0  0  0  0  0  0  0  0
   -3.4618   -1.0063   -2.3386 H   0  0  0  0  0  0  0  0  0  0  0  0
   -4.5606   -0.3477   -1.1597 H   0  0  0  0  0  0  0  0  0  0  0  0
   -4.0077   -0.9065    1.4329 H   0  0  0  0  0  0  0  0  0  0  0  0
   -3.7093   -2.8705    2.8833 H   0  0  0  0  0  0  0  0  0  0  0  0
   -2.9068   -5.0240    1.9365 H   0  0  0  0  0  0  0  0  0  0  0  0
   -2.3811   -5.1885   -0.4802 H   0  0  0  0  0  0  0  0  0  0  0  0
   -2.6474   -3.2368   -1.9520 H   0  0  0  0  0  0  0  0  0  0  0  0
    2.7997    1.5916   -1.7208 H   0  0  0  0  0  0  0  0  0  0  0  0
    3.4511   -0.2215    0.4767 H   0  0  0  0  0  0  0  0  0  0  0  0
    4.8142    0.3494    2.1955 H   0  0  0  0  0  0  0  0  0  0  0  0
    6.6709   -0.4032    3.6204 H   0  0  0  0  0  0  0  0  0  0  0  0
    8.9372   -0.7303    2.6652 H   0  0  0  0  0  0  0  0  0  0  0  0
    9.3457   -0.2720    0.2624 H   0  0  0  0  0  0  0  0  0  0  0  0
    6.8637    0.9914   -1.8714 H   0  0  0  0  0  0  0  0  0  0  0  0
  1  2  2  0
  2  3  1  0
  3  4  1  0
  4  5  1  0
  5  6  2  0
  6  7  1  0
  7  8  2  0
  8  9  1  0
  9 10  2  0
 10 11  1  0
 11 12  2  0
 12 13  1  0
 13 14  2  0
 14 15  1  0
  8 16  1  0
 16 17  1  0
 17 18  1  0
 18 19  2  0
 19 20  1  0
 20 21  2  0
 21 22  1  0
 22 23  2  0
  2 24  1  0
 24 25  1  0
 25 26  1  0
 26 27  2  0
 26 28  1  0
 28 29  2  0
 29 30  1  0
 30 31  2  0
 31 32  1  0
 32 33  2  0
 33 34  1  0
 16  5  1  0
 23 18  1  0
 33 28  1  0
 14  9  1  0
  3 35  1  0
  3 36  1  0
 10 37  1  0
 11 38  1  0
 12 39  1  0
 13 40  1  0
 15 41  1  0
 17 42  1  0
 17 43  1  0
 19 44  1  0
 20 45  1  0
 21 46  1  0
 22 47  1  0
 23 48  1  0
 24 49  1  0
 25 50  1  0
 29 51  1  0
 30 52  1  0
 31 53  1  0
 32 54  1  0
 34 55  1  0
M  END
$$$$
