
     RDKit          3D

 51 54  0  0  0  0  0  0  0  0999 V2000
   -6.6110    1.6895    1.9111 C   0  0  0  0  0  0  0  0  0  0  0  0
   -6.6894    0.4352    1.0510 C   0  0  0  0  0  0  0  0  0  0  0  0
   -5.8572    0.5718   -0.1534 N   0  0  0  0  0  0  0  0  0  0  0  0
   -6.4728    0.1334   -1.4157 C   0  0  0  0  0  0  0  0  0  0  0  0
   -6.4760   -1.3846   -1.5379 C   0  0  0  0  0  0  0  0  0  0  0  0
   -4.4646    0.5548   -0.0740 C   0  0  0  0  0  0  0  0  0  0  0  0
   -3.7668   -0.0297    0.9975 C   0  0  0  0  0  0  0  0  0  0  0  0
   -2.3647   -0.0239    1.0663 C   0  0  0  0  0  0  0  0  0  0  0  0
   -1.6195    0.5919    0.0644 C   0  0  0  0  0  0  0  0  0  0  0  0
   -0.1697    0.6638    0.1002 C   0  0  0  0  0  0  0  0  0  0  0  0
    0.5046    1.3239   -0.8531 C   0  0  0  0  0  0  0  0  0  0  0  0
    1.9270    1.3857   -0.7495 C   0  0  0  0  0  0  0  0  0  0  0  0
    2.7247    0.3628   -0.4874 N   0  0  0  0  0  0  0  0  0  0  0  0
    4.0466    0.7675   -0.3921 C   0  0  0  0  0  0  0  0  0  0  0  0
    5.1139   -0.1969   -0.1664 C   0  0  0  0  0  0  0  0  0  0  0  0
    6.2579    0.1242    0.5760 C   0  0  0  0  0  0  0  0  0  0  0  0
    7.2747   -0.8216    0.7685 C   0  0  0  0  0  0  0  0  0  0  0  0
    7.1600   -2.0999    0.2191 C   0  0  0  0  0  0  0  0  0  0  0  0
    8.0776   -3.1091    0.3237 O   0  0  0  0  0  0  0  0  0  0  0  0
    9.2447   -2.8420    1.0917 C   0  0  0  0  0  0  0  0  0  0  0  0
    6.0176   -2.4253   -0.5144 C   0  0  0  0  0  0  0  0  0  0  0  0
    4.9993   -1.4853   -0.7014 C   0  0  0  0  0  0  0  0  0  0  0  0
    4.2480    2.1223   -0.5567 C   0  0  0  0  0  0  0  0  0  0  0  0
    2.7541    2.9089   -0.8372 S   0  0  0  0  0  0  0  0  0  0  0  0
   -0.2008    1.9364   -2.0078 C   0  0  0  0  0  0  0  0  0  0  0  0
    0.3849    2.4938   -2.9306 O   0  0  0  0  0  0  0  0  0  0  0  0
   -1.5920    1.8434   -2.0115 O   0  0  0  0  0  0  0  0  0  0  0  0
   -2.2955    1.1832   -0.9887 C   0  0  0  0  0  0  0  0  0  0  0  0
   -3.6887    1.1663   -1.0713 C   0  0  0  0  0  0  0  0  0  0  0  0
   -6.8560    2.5809    1.3224 H   0  0  0  0  0  0  0  0  0  0  0  0
   -7.3199    1.6219    2.7442 H   0  0  0  0  0  0  0  0  0  0  0  0
   -5.6120    1.8326    2.3339 H   0  0  0  0  0  0  0  0  0  0  0  0
   -6.4343   -0.4596    1.6285 H   0  0  0  0  0  0  0  0  0  0  0  0
   -7.7404    0.3075    0.7628 H   0  0  0  0  0  0  0  0  0  0  0  0
   -7.5073    0.4992   -1.4579 H   0  0  0  0  0  0  0  0  0  0  0  0
   -5.9779    0.5667   -2.2917 H   0  0  0  0  0  0  0  0  0  0  0  0
   -5.4564   -1.7753   -1.6353 H   0  0  0  0  0  0  0  0  0  0  0  0
   -7.0355   -1.6852   -2.4297 H   0  0  0  0  0  0  0  0  0  0  0  0
   -6.9402   -1.8606   -0.6680 H   0  0  0  0  0  0  0  0  0  0  0  0
   -4.3010   -0.5233    1.8055 H   0  0  0  0  0  0  0  0  0  0  0  0
   -1.8762   -0.5009    1.9145 H   0  0  0  0  0  0  0  0  0  0  0  0
    0.3440    0.1943    0.9347 H   0  0  0  0  0  0  0  0  0  0  0  0
    6.3720    1.1077    1.0283 H   0  0  0  0  0  0  0  0  0  0  0  0
    8.1401   -0.5265    1.3528 H   0  0  0  0  0  0  0  0  0  0  0  0
    8.9912   -2.6579    2.1430 H   0  0  0  0  0  0  0  0  0  0  0  0
    9.8180   -2.0072    0.6686 H   0  0  0  0  0  0  0  0  0  0  0  0
    9.8793   -3.7327    1.0520 H   0  0  0  0  0  0  0  0  0  0  0  0
    5.9171   -3.4169   -0.9477 H   0  0  0  0  0  0  0  0  0  0  0  0
    4.1184   -1.7635   -1.2769 H   0  0  0  0  0  0  0  0  0  0  0  0
    5.1725    2.6812   -0.5455 H   0  0  0  0  0  0  0  0  0  0  0  0
   -4.1623    1.6772   -1.9040 H   0  0  0  0  0  0  0  0  0  0  0  0
  1  2  1  0
  2  3  1  0
  3  4  1  0
  4  5  1  0
  3  6  1  0
  6  7  2  0
  7  8  1  0
  8  9  2  0
  9 10  1  0
 10 11  2  0
 11 12  1  0
 12 13  2  0
 13 14  1  0
 14 15  1  0
 15 16  2  0
 16 17  1  0
 17 18  2  0
 18 19  1  0
 19 20  1  0
 18 21  1  0
 21 22  2  0
 14 23  2  0
 23 24  1  0
 11 25  1  0
 25 26  2  0
 25 27  1  0
 27 28  1  0
 28 29  2  0
 29  6  1  0
 28  9  1  0
 24 12  1  0
 22 15  1  0
  1 30  1  0
  1 31  1  0
  1 32  1  0
  2 33  1  0
  2 34  1  0
  4 35  1  0
  4 36  1  0
  5 37  1  0
  5 38  1  0
  5 39  1  0
  7 40  1  0
  8 41  1  0
 10 42  1  0
 16 43  1  0
 17 44  1  0
 20 45  1  0
 20 46  1  0
 20 47  1  0
 21 48  1  0
 22 49  1  0
 23 50  1  0
 29 51  1  0
M  END
$$$$
