
     RDKit          3D

 52 51  0  0  0  0  0  0  0  0999 V2000
   -8.3110    0.1414   -0.7376 C   0  0  0  0  0  0  0  0  0  0  0  0
   -7.2816   -0.4079   -0.4507 C   0  0  0  0  0  0  0  0  0  0  0  0
   -6.0372   -1.0976   -0.0977 C   0  0  0  0  0  0  0  0  0  0  0  0
   -4.8134   -0.1384   -0.0204 N   0  0  0  0  0  4  0  0  0  0  0  0
   -5.0596    0.8934    1.0724 C   0  0  0  0  0  0  0  0  0  0  0  0
   -4.6551    0.5531   -1.3722 C   0  0  0  0  0  0  0  0  0  0  0  0
   -3.5929   -1.0317    0.2904 C   0  0  0  0  0  0  0  0  0  0  0  0
   -2.3614   -0.3607    0.9134 C   0  0  0  0  0  0  0  0  0  0  0  0
   -1.5894    0.6039    0.0133 C   0  0  0  0  0  0  0  0  0  0  0  0
   -0.2190    0.9986    0.5808 C   0  0  0  0  0  0  0  0  0  0  0  0
    0.8259   -0.1154    0.4681 C   0  0  0  0  0  0  0  0  0  0  0  0
    2.1860    0.2625    1.0660 C   0  0  0  0  0  0  0  0  0  0  0  0
    2.8861    1.4010    0.3169 C   0  0  0  0  0  0  0  0  0  0  0  0
    4.3141    1.6505    0.8172 C   0  0  0  0  0  0  0  0  0  0  0  0
    5.4106    1.0083   -0.0403 C   0  0  0  0  0  0  0  0  0  0  0  0
    5.3697   -0.5192   -0.0708 C   0  0  0  0  0  0  0  0  0  0  0  0
    6.5704   -1.0908   -0.8263 C   0  0  0  0  0  0  0  0  0  0  0  0
    6.5300   -2.6101   -0.8679 C   0  0  0  0  0  0  0  0  0  0  0  0
   -9.2328    0.6173   -0.9917 H   0  0  0  0  0  0  0  0  0  0  0  0
   -6.1321   -1.5756    0.8842 H   0  0  0  0  0  0  0  0  0  0  0  0
   -5.7924   -1.8644   -0.8417 H   0  0  0  0  0  0  0  0  0  0  0  0
   -4.2220    1.5944    1.0924 H   0  0  0  0  0  0  0  0  0  0  0  0
   -5.9742    1.4487    0.8484 H   0  0  0  0  0  0  0  0  0  0  0  0
   -5.1524    0.3692    2.0279 H   0  0  0  0  0  0  0  0  0  0  0  0
   -5.5370    1.1689   -1.5686 H   0  0  0  0  0  0  0  0  0  0  0  0
   -3.7810    1.2003   -1.3485 H   0  0  0  0  0  0  0  0  0  0  0  0
   -4.5412   -0.2131   -2.1447 H   0  0  0  0  0  0  0  0  0  0  0  0
   -3.3291   -1.5542   -0.6369 H   0  0  0  0  0  0  0  0  0  0  0  0
   -3.9406   -1.7873    1.0061 H   0  0  0  0  0  0  0  0  0  0  0  0
   -1.6924   -1.1796    1.2029 H   0  0  0  0  0  0  0  0  0  0  0  0
   -2.6235    0.1378    1.8534 H   0  0  0  0  0  0  0  0  0  0  0  0
   -1.4648    0.1761   -0.9880 H   0  0  0  0  0  0  0  0  0  0  0  0
   -2.1631    1.5294   -0.0918 H   0  0  0  0  0  0  0  0  0  0  0  0
   -0.3262    1.3106    1.6265 H   0  0  0  0  0  0  0  0  0  0  0  0
    0.1290    1.8744    0.0211 H   0  0  0  0  0  0  0  0  0  0  0  0
    0.9547   -0.3960   -0.5843 H   0  0  0  0  0  0  0  0  0  0  0  0
    0.4726   -1.0106    0.9909 H   0  0  0  0  0  0  0  0  0  0  0  0
    2.0571    0.5423    2.1189 H   0  0  0  0  0  0  0  0  0  0  0  0
    2.8159   -0.6329    1.0591 H   0  0  0  0  0  0  0  0  0  0  0  0
    2.3122    2.3218    0.4761 H   0  0  0  0  0  0  0  0  0  0  0  0
    2.8841    1.2119   -0.7628 H   0  0  0  0  0  0  0  0  0  0  0  0
    4.4915    2.7338    0.8019 H   0  0  0  0  0  0  0  0  0  0  0  0
    4.4214    1.3375    1.8625 H   0  0  0  0  0  0  0  0  0  0  0  0
    5.3451    1.3967   -1.0644 H   0  0  0  0  0  0  0  0  0  0  0  0
    6.3816    1.3334    0.3542 H   0  0  0  0  0  0  0  0  0  0  0  0
    4.4495   -0.8570   -0.5602 H   0  0  0  0  0  0  0  0  0  0  0  0
    5.3623   -0.9091    0.9540 H   0  0  0  0  0  0  0  0  0  0  0  0
    7.5015   -0.7692   -0.3452 H   0  0  0  0  0  0  0  0  0  0  0  0
    6.5839   -0.7031   -1.8516 H   0  0  0  0  0  0  0  0  0  0  0  0
    7.3957   -2.9973   -1.4142 H   0  0  0  0  0  0  0  0  0  0  0  0
    6.5498   -3.0310    0.1423 H   0  0  0  0  0  0  0  0  0  0  0  0
    5.6248   -2.9653   -1.3708 H   0  0  0  0  0  0  0  0  0  0  0  0
  1  2  3  0
  2  3  1  0
  3  4  1  0
  4  5  1  0
  4  6  1  0
  4  7  1  0
  7  8  1  0
  8  9  1  0
  9 10  1  0
 10 11  1  0
 11 12  1  0
 12 13  1  0
 13 14  1  0
 14 15  1  0
 15 16  1  0
 16 17  1  0
 17 18  1  0
  1 19  1  0
  3 20  1  0
  3 21  1  0
  5 22  1  0
  5 23  1  0
  5 24  1  0
  6 25  1  0
  6 26  1  0
  6 27  1  0
  7 28  1  0
  7 29  1  0
  8 30  1  0
  8 31  1  0
  9 32  1  0
  9 33  1  0
 10 34  1  0
 10 35  1  0
 11 36  1  0
 11 37  1  0
 12 38  1  0
 12 39  1  0
 13 40  1  0
 13 41  1  0
 14 42  1  0
 14 43  1  0
 15 44  1  0
 15 45  1  0
 16 46  1  0
 16 47  1  0
 17 48  1  0
 17 49  1  0
 18 50  1  0
 18 51  1  0
 18 52  1  0
M  CHG  1   4   1
M  END
$$$$
