
     RDKit          3D

 61 65  0  0  0  0  0  0  0  0999 V2000
   -5.6686    1.3493   -3.6581 C   0  0  0  0  0  0  0  0  0  0  0  0
   -5.1602    0.2749   -2.7407 C   0  0  0  0  0  0  0  0  0  0  0  0
   -4.9157    0.5505   -1.3911 C   0  0  0  0  0  0  0  0  0  0  0  0
   -4.4155   -0.4428   -0.5423 C   0  0  0  0  0  0  0  0  0  0  0  0
   -4.1263   -1.7249   -1.0302 C   0  0  0  0  0  0  0  0  0  0  0  0
   -3.6121   -2.7507   -0.1660 N   0  0  0  0  0  0  0  0  0  0  0  0
   -2.5019   -2.5692    0.6621 C   0  0  0  0  0  0  0  0  0  0  0  0
   -1.5186   -1.1170    0.5417 S   0  0  0  0  0  0  0  0  0  0  0  0
   -0.2173   -1.8087   -0.5270 C   0  0  0  0  0  0  0  0  0  0  0  0
    0.8383   -0.7643   -0.8601 C   0  0  0  0  0  0  0  0  0  0  0  0
    1.2330   -0.6262   -2.0162 O   0  0  0  0  0  0  0  0  0  0  0  0
    1.3140   -0.0933    0.2552 N   0  0  0  0  0  0  0  0  0  0  0  0
    2.3069    0.9010    0.3106 C   0  0  0  0  0  0  0  0  0  0  0  0
    3.0350    1.3443   -0.7866 C   0  0  0  0  0  0  0  0  0  0  0  0
    4.0029    2.3515   -0.6392 C   0  0  0  0  0  0  0  0  0  0  0  0
    4.2807    2.9528    0.5979 C   0  0  0  0  0  0  0  0  0  0  0  0
    5.2318    3.9476    0.7278 N   0  0  0  0  0  0  0  0  0  0  0  0
    5.6469    4.7777   -0.4178 C   0  0  0  0  0  0  0  0  0  0  0  0
    6.0180    6.1928    0.0599 C   0  0  0  0  0  0  0  0  0  0  0  0
    7.0798    6.2241    1.0258 O   0  0  0  0  0  0  0  0  0  0  0  0
    7.1342    5.0464    1.8429 C   0  0  0  0  0  0  0  0  0  0  0  0
    5.7765    4.3502    2.0319 C   0  0  0  0  0  0  0  0  0  0  0  0
    3.5436    2.4772    1.6925 C   0  0  0  0  0  0  0  0  0  0  0  0
    2.5732    1.4733    1.5562 C   0  0  0  0  0  0  0  0  0  0  0  0
   -2.0542   -3.4412    1.5086 N   0  0  0  0  0  0  0  0  0  0  0  0
   -2.7195   -4.6628    1.6173 C   0  0  0  0  0  0  0  0  0  0  0  0
   -2.2713   -5.5925    2.5614 C   0  0  0  0  0  0  0  0  0  0  0  0
   -2.8989   -6.8347    2.6910 C   0  0  0  0  0  0  0  0  0  0  0  0
   -3.9804   -7.1590    1.8700 C   0  0  0  0  0  0  0  0  0  0  0  0
   -4.4349   -6.2381    0.9241 C   0  0  0  0  0  0  0  0  0  0  0  0
   -3.8002   -4.9933    0.8036 C   0  0  0  0  0  0  0  0  0  0  0  0
   -4.2711   -3.9888   -0.1708 C   0  0  0  0  0  0  0  0  0  0  0  0
   -5.2222   -4.2968   -0.8913 O   0  0  0  0  0  0  0  0  0  0  0  0
   -4.3837   -1.9967   -2.3812 C   0  0  0  0  0  0  0  0  0  0  0  0
   -4.8837   -1.0047   -3.2308 C   0  0  0  0  0  0  0  0  0  0  0  0
   -6.2127    0.9189   -4.5074 H   0  0  0  0  0  0  0  0  0  0  0  0
   -4.8300    1.9412   -4.0439 H   0  0  0  0  0  0  0  0  0  0  0  0
   -6.3625    2.0127   -3.1308 H   0  0  0  0  0  0  0  0  0  0  0  0
   -5.1216    1.5389   -0.9863 H   0  0  0  0  0  0  0  0  0  0  0  0
   -4.2823   -0.1996    0.5098 H   0  0  0  0  0  0  0  0  0  0  0  0
    0.2775   -2.6539   -0.0341 H   0  0  0  0  0  0  0  0  0  0  0  0
   -0.6720   -2.1580   -1.4612 H   0  0  0  0  0  0  0  0  0  0  0  0
    0.8273   -0.2906    1.1247 H   0  0  0  0  0  0  0  0  0  0  0  0
    2.8837    0.9315   -1.7785 H   0  0  0  0  0  0  0  0  0  0  0  0
    4.5545    2.6404   -1.5302 H   0  0  0  0  0  0  0  0  0  0  0  0
    4.8454    4.8758   -1.1590 H   0  0  0  0  0  0  0  0  0  0  0  0
    6.5142    4.3063   -0.8945 H   0  0  0  0  0  0  0  0  0  0  0  0
    6.3286    6.8091   -0.7903 H   0  0  0  0  0  0  0  0  0  0  0  0
    5.1449    6.6796    0.5123 H   0  0  0  0  0  0  0  0  0  0  0  0
    7.8528    4.3578    1.3834 H   0  0  0  0  0  0  0  0  0  0  0  0
    7.5439    5.3415    2.8140 H   0  0  0  0  0  0  0  0  0  0  0  0
    5.9289    3.4812    2.6802 H   0  0  0  0  0  0  0  0  0  0  0  0
    5.0732    5.0359    2.5165 H   0  0  0  0  0  0  0  0  0  0  0  0
    3.6905    2.8968    2.6840 H   0  0  0  0  0  0  0  0  0  0  0  0
    2.0287    1.1580    2.4429 H   0  0  0  0  0  0  0  0  0  0  0  0
   -1.4264   -5.3455    3.2024 H   0  0  0  0  0  0  0  0  0  0  0  0
   -2.5433   -7.5467    3.4334 H   0  0  0  0  0  0  0  0  0  0  0  0
   -4.4712   -8.1260    1.9704 H   0  0  0  0  0  0  0  0  0  0  0  0
   -5.2838   -6.4874    0.2869 H   0  0  0  0  0  0  0  0  0  0  0  0
   -4.1850   -2.9819   -2.7978 H   0  0  0  0  0  0  0  0  0  0  0  0
   -5.0616   -1.2438   -4.2779 H   0  0  0  0  0  0  0  0  0  0  0  0
  1  2  1  0
  2  3  2  0
  3  4  1  0
  4  5  2  0
  5  6  1  0
  6  7  1  0
  7  8  1  0
  8  9  1  0
  9 10  1  0
 10 11  2  0
 10 12  1  0
 12 13  1  0
 13 14  2  0
 14 15  1  0
 15 16  2  0
 16 17  1  0
 17 18  1  0
 18 19  1  0
 19 20  1  0
 20 21  1  0
 21 22  1  0
 16 23  1  0
 23 24  2  0
  7 25  2  0
 25 26  1  0
 26 27  2  0
 27 28  1  0
 28 29  2  0
 29 30  1  0
 30 31  2  0
 31 32  1  0
 32 33  2  0
  5 34  1  0
 34 35  2  0
 35  2  1  0
 32  6  1  0
 24 13  1  0
 31 26  1  0
 22 17  1  0
  1 36  1  0
  1 37  1  0
  1 38  1  0
  3 39  1  0
  4 40  1  0
  9 41  1  0
  9 42  1  0
 12 43  1  0
 14 44  1  0
 15 45  1  0
 18 46  1  0
 18 47  1  0
 19 48  1  0
 19 49  1  0
 21 50  1  0
 21 51  1  0
 22 52  1  0
 22 53  1  0
 23 54  1  0
 24 55  1  0
 27 56  1  0
 28 57  1  0
 29 58  1  0
 30 59  1  0
 34 60  1  0
 35 61  1  0
M  END
$$$$
