
     RDKit          3D

 47 50  0  0  0  0  0  0  0  0999 V2000
   -6.1862    2.1524    1.5300 C   0  0  0  0  0  0  0  0  0  0  0  0
   -5.8700    1.4632    0.2147 C   0  0  0  0  0  0  0  0  0  0  0  0
   -4.5718    0.6649    0.2897 C   0  0  0  0  0  0  0  0  0  0  0  0
   -4.3707    0.0392   -0.9853 O   0  0  0  0  0  0  0  0  0  0  0  0
   -3.0515   -0.2515   -1.2088 C   0  0  0  0  0  0  0  0  0  0  0  0
   -2.4648    0.3541   -2.3201 C   0  0  0  0  0  0  0  0  0  0  0  0
   -1.1172    0.1302   -2.6125 C   0  0  0  0  0  0  0  0  0  0  0  0
   -0.3498   -0.7062   -1.7943 C   0  0  0  0  0  0  0  0  0  0  0  0
    1.0635   -0.9274   -2.1081 C   0  0  0  0  0  0  0  0  0  0  0  0
    2.0981   -0.4047   -1.4347 C   0  0  0  0  0  0  0  0  0  0  0  0
    2.0260    0.6639   -0.0455 S   0  0  0  0  0  0  0  0  0  0  0  0
    3.7397    0.7275   -0.0163 C   0  0  0  0  0  0  0  0  0  0  0  0
    4.6328    1.3239    0.7190 N   0  0  0  0  0  0  0  0  0  0  0  0
    5.8110    0.8917    0.1228 C   0  0  0  0  0  0  0  0  0  0  0  0
    7.2159    1.3388    0.6434 C   0  0  0  0  0  0  0  0  0  0  0  0
    7.4411    2.1868    1.7114 C   0  0  0  0  0  0  0  0  0  0  0  0
    8.8451    2.3236    1.8351 C   0  0  0  0  0  0  0  0  0  0  0  0
    9.3911    1.5522    0.8370 C   0  0  0  0  0  0  0  0  0  0  0  0
    8.4141    0.9520    0.1102 O   0  0  0  0  0  0  0  0  0  0  0  0
    5.6523    0.0660   -0.9318 N   0  0  0  0  0  0  0  0  0  0  0  0
    4.3134   -0.0103   -0.9874 N   0  0  0  0  0  0  0  0  0  0  0  0
    3.5004   -0.7004   -1.8606 C   0  0  0  0  0  0  0  0  0  0  0  0
    3.9041   -1.3929   -2.7769 O   0  0  0  0  0  0  0  0  0  0  0  0
   -0.9481   -1.3389   -0.6989 C   0  0  0  0  0  0  0  0  0  0  0  0
   -2.3027   -1.1348   -0.4254 C   0  0  0  0  0  0  0  0  0  0  0  0
   -2.8238   -1.8123    0.6457 O   0  0  0  0  0  0  0  0  0  0  0  0
   -3.7095   -2.8510    0.2063 C   0  0  0  0  0  0  0  0  0  0  0  0
   -4.0194   -3.7353    1.4004 C   0  0  0  0  0  0  0  0  0  0  0  0
   -5.3885    2.8477    1.8101 H   0  0  0  0  0  0  0  0  0  0  0  0
   -6.3049    1.4219    2.3365 H   0  0  0  0  0  0  0  0  0  0  0  0
   -7.1181    2.7200    1.4470 H   0  0  0  0  0  0  0  0  0  0  0  0
   -5.7976    2.2076   -0.5874 H   0  0  0  0  0  0  0  0  0  0  0  0
   -6.6953    0.7974   -0.0649 H   0  0  0  0  0  0  0  0  0  0  0  0
   -3.7404    1.3376    0.5394 H   0  0  0  0  0  0  0  0  0  0  0  0
   -4.6635   -0.1019    1.0670 H   0  0  0  0  0  0  0  0  0  0  0  0
   -3.0552    1.0127   -2.9514 H   0  0  0  0  0  0  0  0  0  0  0  0
   -0.6750    0.6197   -3.4776 H   0  0  0  0  0  0  0  0  0  0  0  0
    1.2415   -1.5638   -2.9746 H   0  0  0  0  0  0  0  0  0  0  0  0
    6.6762    2.6481    2.3214 H   0  0  0  0  0  0  0  0  0  0  0  0
    9.3903    2.9100    2.5607 H   0  0  0  0  0  0  0  0  0  0  0  0
   10.4033    1.3340    0.5253 H   0  0  0  0  0  0  0  0  0  0  0  0
   -0.3756   -2.0089   -0.0624 H   0  0  0  0  0  0  0  0  0  0  0  0
   -4.6433   -2.4245   -0.1749 H   0  0  0  0  0  0  0  0  0  0  0  0
   -3.2394   -3.4558   -0.5793 H   0  0  0  0  0  0  0  0  0  0  0  0
   -4.4735   -3.1497    2.2059 H   0  0  0  0  0  0  0  0  0  0  0  0
   -4.7032   -4.5419    1.1215 H   0  0  0  0  0  0  0  0  0  0  0  0
   -3.1012   -4.1750    1.8031 H   0  0  0  0  0  0  0  0  0  0  0  0
  1  2  1  0
  2  3  1  0
  3  4  1  0
  4  5  1  0
  5  6  2  0
  6  7  1  0
  7  8  2  0
  8  9  1  0
  9 10  2  3
 10 11  1  0
 11 12  1  0
 12 13  2  0
 13 14  1  0
 14 15  1  0
 15 16  2  0
 16 17  1  0
 17 18  2  0
 18 19  1  0
 14 20  2  0
 20 21  1  0
 21 22  1  0
 22 23  2  0
  8 24  1  0
 24 25  2  0
 25 26  1  0
 26 27  1  0
 27 28  1  0
 25  5  1  0
 22 10  1  0
 21 12  1  0
 19 15  1  0
  1 29  1  0
  1 30  1  0
  1 31  1  0
  2 32  1  0
  2 33  1  0
  3 34  1  0
  3 35  1  0
  6 36  1  0
  7 37  1  0
  9 38  1  0
 16 39  1  0
 17 40  1  0
 18 41  1  0
 24 42  1  0
 27 43  1  0
 27 44  1  0
 28 45  1  0
 28 46  1  0
 28 47  1  0
M  END
$$$$
