
     RDKit          3D

 43 45  0  0  0  0  0  0  0  0999 V2000
    4.5431    4.5798    2.4359 C   0  0  0  0  0  0  0  0  0  0  0  0
    4.4620    3.7376    1.2926 O   0  0  0  0  0  0  0  0  0  0  0  0
    3.4777    2.7881    1.2702 C   0  0  0  0  0  0  0  0  0  0  0  0
    2.5576    2.5659    2.2956 C   0  0  0  0  0  0  0  0  0  0  0  0
    1.5563    1.5943    2.1561 C   0  0  0  0  0  0  0  0  0  0  0  0
    1.4429    0.8400    0.9817 C   0  0  0  0  0  0  0  0  0  0  0  0
    0.3687   -0.1596    0.8802 C   0  0  0  0  0  0  0  0  0  0  0  0
   -0.2679   -0.4503   -0.2667 C   0  0  0  0  0  0  0  0  0  0  0  0
   -1.3593   -1.4300   -0.3416 C   0  0  0  0  0  0  0  0  0  0  0  0
   -1.0898   -2.7567    0.0068 C   0  0  0  0  0  0  0  0  0  0  0  0
   -2.0774   -3.7195   -0.0989 C   0  0  0  0  0  0  0  0  0  0  0  0
   -3.3330   -3.3590   -0.5734 C   0  0  0  0  0  0  0  0  0  0  0  0
   -4.3373   -4.3308   -0.6999 C   0  0  0  0  0  0  0  0  0  0  0  0
   -5.5976   -3.9905   -1.1860 C   0  0  0  0  0  0  0  0  0  0  0  0
   -5.8671   -2.6781   -1.5535 C   0  0  0  0  0  0  0  0  0  0  0  0
   -4.8762   -1.6978   -1.4323 C   0  0  0  0  0  0  0  0  0  0  0  0
   -3.5936   -2.0081   -0.9334 C   0  0  0  0  0  0  0  0  0  0  0  0
   -2.5985   -1.0696   -0.7883 N   0  0  0  0  0  4  0  0  0  0  0  0
   -2.8947    0.3515   -1.0973 C   0  0  0  0  0  0  0  0  0  0  0  0
    2.3819    1.0411   -0.0346 C   0  0  0  0  0  0  0  0  0  0  0  0
    3.3961    1.9926    0.1181 C   0  0  0  0  0  0  0  0  0  0  0  0
    4.2489    2.1509   -0.9479 O   0  0  0  0  0  0  0  0  0  0  0  0
    5.5401    1.6153   -0.6499 C   0  0  0  0  0  0  0  0  0  0  0  0
    3.6289    5.1712    2.5555 H   0  0  0  0  0  0  0  0  0  0  0  0
    5.3732    5.2766    2.2805 H   0  0  0  0  0  0  0  0  0  0  0  0
    4.7617    3.9990    3.3382 H   0  0  0  0  0  0  0  0  0  0  0  0
    2.5843    3.1377    3.2187 H   0  0  0  0  0  0  0  0  0  0  0  0
    0.8582    1.4515    2.9784 H   0  0  0  0  0  0  0  0  0  0  0  0
    0.0957   -0.6410    1.8179 H   0  0  0  0  0  0  0  0  0  0  0  0
   -0.0082    0.0456   -1.1996 H   0  0  0  0  0  0  0  0  0  0  0  0
   -0.0982   -3.0504    0.3524 H   0  0  0  0  0  0  0  0  0  0  0  0
   -1.8520   -4.7493    0.1782 H   0  0  0  0  0  0  0  0  0  0  0  0
   -4.1505   -5.3689   -0.4239 H   0  0  0  0  0  0  0  0  0  0  0  0
   -6.3699   -4.7530   -1.2809 H   0  0  0  0  0  0  0  0  0  0  0  0
   -6.8537   -2.4174   -1.9378 H   0  0  0  0  0  0  0  0  0  0  0  0
   -5.1531   -0.6946   -1.7480 H   0  0  0  0  0  0  0  0  0  0  0  0
   -3.0072    0.4382   -2.1814 H   0  0  0  0  0  0  0  0  0  0  0  0
   -3.8109    0.6358   -0.5727 H   0  0  0  0  0  0  0  0  0  0  0  0
   -2.1091    1.0243   -0.7516 H   0  0  0  0  0  0  0  0  0  0  0  0
    2.3589    0.4620   -0.9529 H   0  0  0  0  0  0  0  0  0  0  0  0
    6.1495    1.6981   -1.5555 H   0  0  0  0  0  0  0  0  0  0  0  0
    5.4723    0.5534   -0.3798 H   0  0  0  0  0  0  0  0  0  0  0  0
    6.0473    2.1744    0.1442 H   0  0  0  0  0  0  0  0  0  0  0  0
  1  2  1  0
  2  3  1  0
  3  4  2  0
  4  5  1  0
  5  6  2  0
  6  7  1  0
  7  8  2  3
  8  9  1  0
  9 10  2  0
 10 11  1  0
 11 12  2  0
 12 13  1  0
 13 14  2  0
 14 15  1  0
 15 16  2  0
 16 17  1  0
 17 18  2  0
 18 19  1  0
  6 20  1  0
 20 21  2  0
 21 22  1  0
 22 23  1  0
 21  3  1  0
 18  9  1  0
 17 12  1  0
  1 24  1  0
  1 25  1  0
  1 26  1  0
  4 27  1  0
  5 28  1  0
  7 29  1  0
  8 30  1  0
 10 31  1  0
 11 32  1  0
 13 33  1  0
 14 34  1  0
 15 35  1  0
 16 36  1  0
 19 37  1  0
 19 38  1  0
 19 39  1  0
 20 40  1  0
 23 41  1  0
 23 42  1  0
 23 43  1  0
M  CHG  1  18   1
M  END
$$$$
