
     RDKit          3D

 52 54  0  0  0  0  0  0  0  0999 V2000
   -0.1588   -2.0070   -0.2752 C   0  0  0  0  0  0  0  0  0  0  0  0
   -1.5858   -2.2455   -0.4350 N   0  0  0  0  0  0  0  0  0  0  0  0
   -2.1956   -1.8013   -1.6854 C   0  0  0  0  0  0  0  0  0  0  0  0
   -2.2193   -0.2948   -1.8133 C   0  0  0  0  0  0  0  0  0  0  0  0
   -1.5143    0.3412   -2.8459 C   0  0  0  0  0  0  0  0  0  0  0  0
   -1.5352    1.7323   -2.9622 C   0  0  0  0  0  0  0  0  0  0  0  0
   -2.2509    2.5011   -2.0457 C   0  0  0  0  0  0  0  0  0  0  0  0
   -2.9579    1.8809   -1.0183 C   0  0  0  0  0  0  0  0  0  0  0  0
   -2.9498    0.4896   -0.9087 C   0  0  0  0  0  0  0  0  0  0  0  0
   -2.4247   -2.6771    0.5865 C   0  0  0  0  0  0  0  0  0  0  0  0
   -3.6144   -2.9324    0.3914 O   0  0  0  0  0  0  0  0  0  0  0  0
   -1.8193   -2.8789    1.9857 C   0  0  0  0  0  0  0  0  0  0  0  0
   -1.0375   -1.8068    2.5072 O   0  0  0  0  0  0  0  0  0  0  0  0
   -1.7247   -0.6537    2.7292 C   0  0  0  0  0  0  0  0  0  0  0  0
   -2.9255   -0.5067    2.5622 O   0  0  0  0  0  0  0  0  0  0  0  0
   -0.7927    0.4560    3.1678 C   0  0  0  0  0  0  0  0  0  0  0  0
   -0.7956    1.5025    2.1488 N   0  0  0  0  0  0  0  0  0  0  0  0
    0.4771    2.5745    2.0721 S   0  0  0  0  0  6  0  0  0  0  0  0
    0.0474    3.6802    1.2434 O   0  0  0  0  0  0  0  0  0  0  0  0
    0.9723    2.7721    3.4188 O   0  0  0  0  0  0  0  0  0  0  0  0
    1.6701    1.6415    1.1515 C   0  0  0  0  0  0  0  0  0  0  0  0
    2.7214    1.0098    1.8153 C   0  0  0  0  0  0  0  0  0  0  0  0
    3.6398    0.2585    1.0809 C   0  0  0  0  0  0  0  0  0  0  0  0
    3.5208    0.1417   -0.3145 C   0  0  0  0  0  0  0  0  0  0  0  0
    4.4311   -0.6213   -1.0642 C   0  0  0  0  0  0  0  0  0  0  0  0
    4.3008   -0.7303   -2.4494 C   0  0  0  0  0  0  0  0  0  0  0  0
    3.2634   -0.0752   -3.1049 C   0  0  0  0  0  0  0  0  0  0  0  0
    2.3529    0.6932   -2.3755 C   0  0  0  0  0  0  0  0  0  0  0  0
    2.4640    0.8062   -0.9817 C   0  0  0  0  0  0  0  0  0  0  0  0
    1.5458    1.5590   -0.2382 C   0  0  0  0  0  0  0  0  0  0  0  0
   -0.0131   -0.9916    0.0986 H   0  0  0  0  0  0  0  0  0  0  0  0
    0.3495   -2.1247   -1.2389 H   0  0  0  0  0  0  0  0  0  0  0  0
    0.2774   -2.7192    0.4283 H   0  0  0  0  0  0  0  0  0  0  0  0
   -1.6279   -2.2586   -2.5056 H   0  0  0  0  0  0  0  0  0  0  0  0
   -3.2222   -2.1729   -1.7817 H   0  0  0  0  0  0  0  0  0  0  0  0
   -0.9411   -0.2425   -3.5659 H   0  0  0  0  0  0  0  0  0  0  0  0
   -0.9898    2.2199   -3.7699 H   0  0  0  0  0  0  0  0  0  0  0  0
   -2.2547    3.5849   -2.1323 H   0  0  0  0  0  0  0  0  0  0  0  0
   -3.5131    2.4787   -0.3037 H   0  0  0  0  0  0  0  0  0  0  0  0
   -3.5176    0.0180   -0.1110 H   0  0  0  0  0  0  0  0  0  0  0  0
   -2.6276   -3.1080    2.6909 H   0  0  0  0  0  0  0  0  0  0  0  0
   -1.1844   -3.7701    1.9446 H   0  0  0  0  0  0  0  0  0  0  0  0
   -1.1595    0.8462    4.1209 H   0  0  0  0  0  0  0  0  0  0  0  0
    0.2113    0.0512    3.3215 H   0  0  0  0  0  0  0  0  0  0  0  0
   -1.6906    1.8648    1.8116 H   0  0  0  0  0  0  0  0  0  0  0  0
    2.8303    1.0898    2.8955 H   0  0  0  0  0  0  0  0  0  0  0  0
    4.4551   -0.2338    1.6046 H   0  0  0  0  0  0  0  0  0  0  0  0
    5.2541   -1.1351   -0.5751 H   0  0  0  0  0  0  0  0  0  0  0  0
    5.0137   -1.3260   -3.0178 H   0  0  0  0  0  0  0  0  0  0  0  0
    3.1657   -0.1568   -4.1843 H   0  0  0  0  0  0  0  0  0  0  0  0
    1.5547    1.2058   -2.9056 H   0  0  0  0  0  0  0  0  0  0  0  0
    0.7248    2.0707   -0.7366 H   0  0  0  0  0  0  0  0  0  0  0  0
  1  2  1  0
  2  3  1  0
  3  4  1  0
  4  5  2  0
  5  6  1  0
  6  7  2  0
  7  8  1  0
  8  9  2  0
  2 10  1  0
 10 11  2  0
 10 12  1  0
 12 13  1  0
 13 14  1  0
 14 15  2  0
 14 16  1  0
 16 17  1  0
 17 18  1  0
 18 19  2  0
 18 20  2  0
 18 21  1  0
 21 22  2  0
 22 23  1  0
 23 24  2  0
 24 25  1  0
 25 26  2  0
 26 27  1  0
 27 28  2  0
 28 29  1  0
 29 30  2  0
  9  4  1  0
 30 21  1  0
 29 24  1  0
  1 31  1  0
  1 32  1  0
  1 33  1  0
  3 34  1  0
  3 35  1  0
  5 36  1  0
  6 37  1  0
  7 38  1  0
  8 39  1  0
  9 40  1  0
 12 41  1  0
 12 42  1  0
 16 43  1  0
 16 44  1  0
 17 45  1  0
 22 46  1  0
 23 47  1  0
 25 48  1  0
 26 49  1  0
 27 50  1  0
 28 51  1  0
 30 52  1  0
M  END
$$$$
