
     RDKit          3D

 57 59  0  0  0  0  0  0  0  0999 V2000
   -6.1952   -1.9886   -1.6352 C   0  0  0  0  0  0  0  0  0  0  0  0
   -4.9698   -1.0868   -1.5247 C   0  0  0  0  0  0  0  0  0  0  0  0
   -3.9037   -1.6673   -0.6916 N   0  0  0  0  0  0  0  0  0  0  0  0
   -4.2685   -1.6916    0.7351 C   0  0  0  0  0  0  0  0  0  0  0  0
   -3.2346   -2.3744    1.6263 C   0  0  0  0  0  0  0  0  0  0  0  0
   -2.6053   -1.0173   -0.9609 C   0  0  0  0  0  0  0  0  0  0  0  0
   -2.4597    0.4623   -0.5685 C   0  0  0  0  0  0  0  0  0  0  0  0
   -1.1177    0.8751   -0.8791 O   0  0  0  0  0  0  0  0  0  0  0  0
   -0.8289    2.1069   -0.3436 C   0  0  0  0  0  0  0  0  0  0  0  0
   -1.2907    3.2632   -0.8648 C   0  0  0  0  0  0  0  0  0  0  0  0
   -0.8916    4.5412   -0.1842 C   0  0  2  0  0  0  0  0  0  0  0  0
   -0.9756    5.7036   -0.9937 O   0  0  0  0  0  0  0  0  0  0  0  0
   -0.2575    6.6743   -0.3293 C   0  0  0  0  0  0  0  0  0  0  0  0
   -0.2915    7.8573   -0.6257 O   0  0  0  0  0  0  0  0  0  0  0  0
    0.7803    6.0539    0.9776 S   0  0  0  0  0  0  0  0  0  0  0  0
    0.5677    4.4301    0.2768 C   0  0  1  0  0  0  0  0  0  0  0  0
    0.7655    3.2325    1.1432 C   0  0  0  0  0  0  0  0  0  0  0  0
    0.0914    2.1110    0.7995 C   0  0  0  0  0  0  0  0  0  0  0  0
    0.2594    0.8998    1.6437 C   0  0  0  0  0  0  0  0  0  0  0  0
   -0.5808    0.6029    2.4887 O   0  0  0  0  0  0  0  0  0  0  0  0
    1.4748    0.0613    1.4681 C   0  0  0  0  0  0  0  0  0  0  0  0
    2.3535    0.1747    0.4598 C   0  0  0  0  0  0  0  0  0  0  0  0
    3.5450   -0.6750    0.3130 C   0  0  0  0  0  0  0  0  0  0  0  0
    4.6917   -0.1312   -0.2750 C   0  0  0  0  0  0  0  0  0  0  0  0
    5.8359   -0.9138   -0.4578 C   0  0  0  0  0  0  0  0  0  0  0  0
    5.8533   -2.2535   -0.0676 C   0  0  0  0  0  0  0  0  0  0  0  0
    7.0340   -2.9022   -0.3001 O   0  0  0  0  0  0  0  0  0  0  0  0
    7.1141   -4.2599    0.1151 C   0  0  0  0  0  0  0  0  0  0  0  0
    4.7087   -2.8087    0.5007 C   0  0  0  0  0  0  0  0  0  0  0  0
    3.5611   -2.0254    0.6844 C   0  0  0  0  0  0  0  0  0  0  0  0
   -5.9144   -3.0002   -1.9447 H   0  0  0  0  0  0  0  0  0  0  0  0
   -6.7443   -2.0527   -0.6920 H   0  0  0  0  0  0  0  0  0  0  0  0
   -6.8842   -1.5881   -2.3857 H   0  0  0  0  0  0  0  0  0  0  0  0
   -4.5948   -0.9449   -2.5462 H   0  0  0  0  0  0  0  0  0  0  0  0
   -5.2713   -0.0992   -1.1565 H   0  0  0  0  0  0  0  0  0  0  0  0
   -5.1988   -2.2564    0.8615 H   0  0  0  0  0  0  0  0  0  0  0  0
   -4.4635   -0.6813    1.1131 H   0  0  0  0  0  0  0  0  0  0  0  0
   -2.3109   -1.7930    1.7021 H   0  0  0  0  0  0  0  0  0  0  0  0
   -2.9896   -3.3738    1.2526 H   0  0  0  0  0  0  0  0  0  0  0  0
   -3.6334   -2.4850    2.6402 H   0  0  0  0  0  0  0  0  0  0  0  0
   -1.7990   -1.5932   -0.4876 H   0  0  0  0  0  0  0  0  0  0  0  0
   -2.3760   -1.1146   -2.0318 H   0  0  0  0  0  0  0  0  0  0  0  0
   -2.6486    0.5924    0.5031 H   0  0  0  0  0  0  0  0  0  0  0  0
   -3.1667    1.0776   -1.1363 H   0  0  0  0  0  0  0  0  0  0  0  0
   -1.9621    3.2859   -1.7150 H   0  0  0  0  0  0  0  0  0  0  0  0
   -1.5994    4.6723    0.6521 H   0  0  0  0  0  0  0  0  0  0  0  0
    1.2552    4.3672   -0.5781 H   0  0  0  0  0  0  0  0  0  0  0  0
    1.4473    3.2634    1.9868 H   0  0  0  0  0  0  0  0  0  0  0  0
    1.5902   -0.6866    2.2463 H   0  0  0  0  0  0  0  0  0  0  0  0
    2.2259    0.9223   -0.3183 H   0  0  0  0  0  0  0  0  0  0  0  0
    4.7148    0.9087   -0.5923 H   0  0  0  0  0  0  0  0  0  0  0  0
    6.7210   -0.4746   -0.9105 H   0  0  0  0  0  0  0  0  0  0  0  0
    6.9665   -4.3526    1.1963 H   0  0  0  0  0  0  0  0  0  0  0  0
    8.1214   -4.6211   -0.1147 H   0  0  0  0  0  0  0  0  0  0  0  0
    6.4023   -4.8826   -0.4370 H   0  0  0  0  0  0  0  0  0  0  0  0
    4.6686   -3.8487    0.8067 H   0  0  0  0  0  0  0  0  0  0  0  0
    2.6786   -2.4959    1.1113 H   0  0  0  0  0  0  0  0  0  0  0  0
  1  2  1  0
  2  3  1  0
  3  4  1  0
  4  5  1  0
  3  6  1  0
  6  7  1  0
  7  8  1  0
  8  9  1  0
  9 10  2  0
 10 11  1  0
 11 12  1  0
 12 13  1  0
 13 14  2  0
 13 15  1  0
 15 16  1  0
 16 17  1  0
 17 18  2  0
 18 19  1  0
 19 20  2  0
 19 21  1  0
 21 22  2  0
 22 23  1  0
 23 24  2  0
 24 25  1  0
 25 26  2  0
 26 27  1  0
 27 28  1  0
 26 29  1  0
 29 30  2  0
 18  9  1  0
 30 23  1  0
 16 11  1  0
  1 31  1  0
  1 32  1  0
  1 33  1  0
  2 34  1  0
  2 35  1  0
  4 36  1  0
  4 37  1  0
  5 38  1  0
  5 39  1  0
  5 40  1  0
  6 41  1  0
  6 42  1  0
  7 43  1  0
  7 44  1  0
 10 45  1  0
 11 46  1  1
 16 47  1  6
 17 48  1  0
 21 49  1  0
 22 50  1  0
 24 51  1  0
 25 52  1  0
 28 53  1  0
 28 54  1  0
 28 55  1  0
 29 56  1  0
 30 57  1  0
M  END
$$$$
