
     RDKit          3D

 42 41  0  0  0  0  0  0  0  0999 V2000
   -4.1517   -0.7884    2.6995 C   0  0  0  0  0  0  0  0  0  0  0  0
   -3.2485    0.2268    2.0560 C   0  0  0  0  0  0  0  0  0  0  0  0
   -3.8075    1.6253    2.0243 C   0  0  0  0  0  0  0  0  0  0  0  0
   -2.0390   -0.0406    1.5262 C   0  0  0  0  0  0  0  0  0  0  0  0
   -1.3173   -1.3615    1.5006 C   0  0  0  0  0  0  0  0  0  0  0  0
   -1.4426   -2.1127    0.1671 C   0  0  0  0  0  0  0  0  0  0  0  0
   -0.8342   -1.3954   -1.0258 C   0  0  0  0  0  0  0  0  0  0  0  0
   -1.8218   -0.7165   -1.9362 C   0  0  0  0  0  0  0  0  0  0  0  0
    0.5000   -1.4090   -1.2183 C   0  0  0  0  0  0  0  0  0  0  0  0
    1.2655   -0.7886   -2.3551 C   0  0  0  0  0  0  0  0  0  0  0  0
    1.7004    0.6616   -2.1012 C   0  0  0  0  0  0  0  0  0  0  0  0
    2.7205    0.8345   -0.9870 C   0  0  0  0  0  0  0  0  0  0  0  0
    2.1466    1.1963    0.3574 C   0  0  0  0  0  0  0  0  0  0  0  0
    4.0361    0.7022   -1.2537 C   0  0  0  0  0  0  0  0  0  0  0  0
    5.1952    0.8292   -0.3189 C   0  0  0  0  0  0  0  0  0  0  0  0
    5.9918    1.9218   -0.7493 O   0  0  0  0  0  0  0  0  0  0  0  0
   -5.1509   -0.7380    2.2536 H   0  0  0  0  0  0  0  0  0  0  0  0
   -3.8014   -1.8162    2.5787 H   0  0  0  0  0  0  0  0  0  0  0  0
   -4.2418   -0.5847    3.7713 H   0  0  0  0  0  0  0  0  0  0  0  0
   -4.0116    1.9746    3.0424 H   0  0  0  0  0  0  0  0  0  0  0  0
   -3.1163    2.3377    1.5616 H   0  0  0  0  0  0  0  0  0  0  0  0
   -4.7419    1.6485    1.4535 H   0  0  0  0  0  0  0  0  0  0  0  0
   -1.4805    0.7752    1.0663 H   0  0  0  0  0  0  0  0  0  0  0  0
   -1.6695   -2.0129    2.3077 H   0  0  0  0  0  0  0  0  0  0  0  0
   -0.2596   -1.1755    1.7261 H   0  0  0  0  0  0  0  0  0  0  0  0
   -2.4976   -2.3399   -0.0343 H   0  0  0  0  0  0  0  0  0  0  0  0
   -0.9521   -3.0896    0.2761 H   0  0  0  0  0  0  0  0  0  0  0  0
   -2.4461   -0.0158   -1.3717 H   0  0  0  0  0  0  0  0  0  0  0  0
   -1.3460   -0.1435   -2.7367 H   0  0  0  0  0  0  0  0  0  0  0  0
   -2.4757   -1.4611   -2.4026 H   0  0  0  0  0  0  0  0  0  0  0  0
    1.1246   -1.9276   -0.4907 H   0  0  0  0  0  0  0  0  0  0  0  0
    2.1460   -1.4124   -2.5571 H   0  0  0  0  0  0  0  0  0  0  0  0
    0.6711   -0.8258   -3.2756 H   0  0  0  0  0  0  0  0  0  0  0  0
    0.8227    1.2900   -1.9022 H   0  0  0  0  0  0  0  0  0  0  0  0
    2.1268    1.0547   -3.0346 H   0  0  0  0  0  0  0  0  0  0  0  0
    1.4704    2.0525    0.2616 H   0  0  0  0  0  0  0  0  0  0  0  0
    1.5838    0.3563    0.7734 H   0  0  0  0  0  0  0  0  0  0  0  0
    2.9058    1.4787    1.0898 H   0  0  0  0  0  0  0  0  0  0  0  0
    4.3340    0.4499   -2.2712 H   0  0  0  0  0  0  0  0  0  0  0  0
    4.9143    0.9940    0.7221 H   0  0  0  0  0  0  0  0  0  0  0  0
    5.8062   -0.0785   -0.3586 H   0  0  0  0  0  0  0  0  0  0  0  0
    5.3922    2.6838   -0.8346 H   0  0  0  0  0  0  0  0  0  0  0  0
  1  2  1  0
  2  3  1  0
  2  4  2  3
  4  5  1  0
  5  6  1  0
  6  7  1  0
  7  8  1  0
  7  9  2  3
  9 10  1  0
 10 11  1  0
 11 12  1  0
 12 13  1  0
 12 14  2  3
 14 15  1  0
 15 16  1  0
  1 17  1  0
  1 18  1  0
  1 19  1  0
  3 20  1  0
  3 21  1  0
  3 22  1  0
  4 23  1  0
  5 24  1  0
  5 25  1  0
  6 26  1  0
  6 27  1  0
  8 28  1  0
  8 29  1  0
  8 30  1  0
  9 31  1  0
 10 32  1  0
 10 33  1  0
 11 34  1  0
 11 35  1  0
 13 36  1  0
 13 37  1  0
 13 38  1  0
 14 39  1  0
 15 40  1  0
 15 41  1  0
 16 42  1  0
M  END
$$$$
