
     RDKit          3D

 47 50  0  0  0  0  0  0  0  0999 V2000
   -6.2074    1.4166    1.4343 C   0  0  0  0  0  0  0  0  0  0  0  0
   -6.3380    1.3279   -0.0801 C   0  0  0  0  0  0  0  0  0  0  0  0
   -4.9818    1.2529   -0.7800 C   0  0  0  0  0  0  0  0  0  0  0  0
   -4.3127    0.0667   -0.3583 O   0  0  0  0  0  0  0  0  0  0  0  0
   -3.0211   -0.1170   -0.7709 C   0  0  0  0  0  0  0  0  0  0  0  0
   -2.4104    0.6130   -1.7954 C   0  0  0  0  0  0  0  0  0  0  0  0
   -1.0732    0.3787   -2.1382 C   0  0  0  0  0  0  0  0  0  0  0  0
   -0.3274   -0.5844   -1.4558 C   0  0  0  0  0  0  0  0  0  0  0  0
    1.0717   -0.8201   -1.8134 C   0  0  0  0  0  0  0  0  0  0  0  0
    2.1273   -0.2733   -1.1947 C   0  0  0  0  0  0  0  0  0  0  0  0
    2.1002    0.8426    0.1592 S   0  0  0  0  0  0  0  0  0  0  0  0
    3.8153    0.8824    0.1484 C   0  0  0  0  0  0  0  0  0  0  0  0
    4.7351    1.4776    0.8499 N   0  0  0  0  0  0  0  0  0  0  0  0
    5.8925    1.0094    0.2444 C   0  0  0  0  0  0  0  0  0  0  0  0
    7.3182    1.4297    0.7329 C   0  0  0  0  0  0  0  0  0  0  0  0
    8.5166    1.0164    0.1816 C   0  0  0  0  0  0  0  0  0  0  0  0
    9.5468    1.6348    0.9313 C   0  0  0  0  0  0  0  0  0  0  0  0
    8.9165    2.3793    1.8987 C   0  0  0  0  0  0  0  0  0  0  0  0
    7.5678    2.2698    1.7832 O   0  0  0  0  0  0  0  0  0  0  0  0
    5.6990    0.1657   -0.7925 N   0  0  0  0  0  0  0  0  0  0  0  0
    4.3562    0.1105   -0.8146 N   0  0  0  0  0  0  0  0  0  0  0  0
    3.5151   -0.5956   -1.6468 C   0  0  0  0  0  0  0  0  0  0  0  0
    3.8913   -1.3211   -2.5494 O   0  0  0  0  0  0  0  0  0  0  0  0
   -0.9319   -1.3245   -0.4374 C   0  0  0  0  0  0  0  0  0  0  0  0
   -2.2759   -1.1106   -0.1151 C   0  0  0  0  0  0  0  0  0  0  0  0
   -2.7605   -1.8823    0.9133 O   0  0  0  0  0  0  0  0  0  0  0  0
   -3.9002   -2.6610    0.5315 C   0  0  0  0  0  0  0  0  0  0  0  0
   -3.9370   -3.8889    1.4246 C   0  0  0  0  0  0  0  0  0  0  0  0
   -5.7321    0.5192    1.8442 H   0  0  0  0  0  0  0  0  0  0  0  0
   -5.6113    2.2876    1.7272 H   0  0  0  0  0  0  0  0  0  0  0  0
   -7.1971    1.5115    1.8926 H   0  0  0  0  0  0  0  0  0  0  0  0
   -6.9256    0.4346   -0.3249 H   0  0  0  0  0  0  0  0  0  0  0  0
   -6.8883    2.2001   -0.4491 H   0  0  0  0  0  0  0  0  0  0  0  0
   -4.3886    2.1398   -0.5261 H   0  0  0  0  0  0  0  0  0  0  0  0
   -5.1522    1.2168   -1.8625 H   0  0  0  0  0  0  0  0  0  0  0  0
   -2.9482    1.3732   -2.3516 H   0  0  0  0  0  0  0  0  0  0  0  0
   -0.6235    0.9605   -2.9397 H   0  0  0  0  0  0  0  0  0  0  0  0
    1.2178   -1.4994   -2.6529 H   0  0  0  0  0  0  0  0  0  0  0  0
    8.6237    0.3470   -0.6622 H   0  0  0  0  0  0  0  0  0  0  0  0
   10.6144    1.5428    0.7884 H   0  0  0  0  0  0  0  0  0  0  0  0
    9.2638    3.0149    2.7013 H   0  0  0  0  0  0  0  0  0  0  0  0
   -0.3730   -2.0810    0.1082 H   0  0  0  0  0  0  0  0  0  0  0  0
   -3.8372   -2.9820   -0.5174 H   0  0  0  0  0  0  0  0  0  0  0  0
   -4.8201   -2.0847    0.6854 H   0  0  0  0  0  0  0  0  0  0  0  0
   -4.7765   -4.5400    1.1595 H   0  0  0  0  0  0  0  0  0  0  0  0
   -4.0328   -3.5963    2.4771 H   0  0  0  0  0  0  0  0  0  0  0  0
   -3.0050   -4.4598    1.3359 H   0  0  0  0  0  0  0  0  0  0  0  0
  1  2  1  0
  2  3  1  0
  3  4  1  0
  4  5  1  0
  5  6  2  0
  6  7  1  0
  7  8  2  0
  8  9  1  0
  9 10  2  3
 10 11  1  0
 11 12  1  0
 12 13  2  0
 13 14  1  0
 14 15  1  0
 15 16  2  0
 16 17  1  0
 17 18  2  0
 18 19  1  0
 14 20  2  0
 20 21  1  0
 21 22  1  0
 22 23  2  0
  8 24  1  0
 24 25  2  0
 25 26  1  0
 26 27  1  0
 27 28  1  0
 25  5  1  0
 22 10  1  0
 21 12  1  0
 19 15  1  0
  1 29  1  0
  1 30  1  0
  1 31  1  0
  2 32  1  0
  2 33  1  0
  3 34  1  0
  3 35  1  0
  6 36  1  0
  7 37  1  0
  9 38  1  0
 16 39  1  0
 17 40  1  0
 18 41  1  0
 24 42  1  0
 27 43  1  0
 27 44  1  0
 28 45  1  0
 28 46  1  0
 28 47  1  0
M  END
$$$$
