
     RDKit          3D

 61 64  0  0  0  0  0  0  0  0999 V2000
    5.8292    3.7308   -2.3125 C   0  0  0  0  0  0  0  0  0  0  0  0
    6.1175    2.3808   -1.9751 O   0  0  0  0  0  0  0  0  0  0  0  0
    5.2689    1.7499   -1.1001 C   0  0  0  0  0  0  0  0  0  0  0  0
    4.1854    2.3643   -0.4682 C   0  0  0  0  0  0  0  0  0  0  0  0
    3.3803    1.6395    0.4152 C   0  0  0  0  0  0  0  0  0  0  0  0
    3.6435    0.2927    0.6805 C   0  0  0  0  0  0  0  0  0  0  0  0
    2.7788   -0.3567    1.5828 N   0  0  0  0  0  0  0  0  0  0  0  0
    2.7373   -1.7019    1.9092 C   0  0  0  0  0  0  0  0  0  0  0  0
    3.4614   -2.5817    1.4491 O   0  0  0  0  0  0  0  0  0  0  0  0
    1.6666   -2.0378    2.9400 C   0  0  0  0  0  0  0  0  0  0  0  0
    0.0695   -2.3644    2.1347 S   0  0  0  0  0  0  0  0  0  0  0  0
   -0.4423   -0.7558    1.7318 C   0  0  0  0  0  0  0  0  0  0  0  0
    0.1442    0.3313    2.1820 N   0  0  0  0  0  0  0  0  0  0  0  0
   -0.4020    1.4023    1.5381 N   0  0  0  0  0  0  0  0  0  0  0  0
   -1.3550    0.9600    0.7354 C   0  0  0  0  0  0  0  0  0  0  0  0
   -2.3573    1.8329    0.0465 C   0  0  0  0  0  0  0  0  0  0  0  0
   -3.6353    1.9438    0.8309 C   0  0  0  0  0  0  0  0  0  0  0  0
   -3.8047    2.3139    2.1567 C   0  0  0  0  0  0  0  0  0  0  0  0
   -5.1841    2.2720    2.4530 C   0  0  0  0  0  0  0  0  0  0  0  0
   -5.8326    1.8914    1.3025 C   0  0  0  0  0  0  0  0  0  0  0  0
   -4.8930    1.7014    0.3201 N   0  0  0  0  0  0  0  0  0  0  0  0
   -5.2185    1.3171   -1.0371 C   0  0  0  0  0  0  0  0  0  0  0  0
   -1.3858   -0.4296    0.7741 N   0  0  0  0  0  0  0  0  0  0  0  0
   -2.1806   -1.2948   -0.0158 C   0  0  0  0  0  0  0  0  0  0  0  0
   -2.2250   -1.1192   -1.4041 C   0  0  0  0  0  0  0  0  0  0  0  0
   -2.9982   -1.9772   -2.1894 C   0  0  0  0  0  0  0  0  0  0  0  0
   -3.7423   -3.0047   -1.5981 C   0  0  0  0  0  0  0  0  0  0  0  0
   -4.5443   -3.9463   -2.4475 C   0  0  0  0  0  0  0  0  0  0  0  0
   -3.6750   -3.1847   -0.2111 C   0  0  0  0  0  0  0  0  0  0  0  0
   -2.8980   -2.3355    0.5810 C   0  0  0  0  0  0  0  0  0  0  0  0
    4.7294   -0.3229    0.0545 C   0  0  0  0  0  0  0  0  0  0  0  0
    5.5438    0.3931   -0.8360 C   0  0  0  0  0  0  0  0  0  0  0  0
    6.6241   -0.1407   -1.4988 O   0  0  0  0  0  0  0  0  0  0  0  0
    6.9601   -1.4934   -1.2243 C   0  0  0  0  0  0  0  0  0  0  0  0
    4.8528    3.8170   -2.7988 H   0  0  0  0  0  0  0  0  0  0  0  0
    5.8929    4.3793   -1.4339 H   0  0  0  0  0  0  0  0  0  0  0  0
    6.5880    4.0659   -3.0256 H   0  0  0  0  0  0  0  0  0  0  0  0
    3.9407    3.4081   -0.6352 H   0  0  0  0  0  0  0  0  0  0  0  0
    2.5410    2.1445    0.8904 H   0  0  0  0  0  0  0  0  0  0  0  0
    2.0189    0.2177    1.9519 H   0  0  0  0  0  0  0  0  0  0  0  0
    1.9801   -2.9441    3.4691 H   0  0  0  0  0  0  0  0  0  0  0  0
    1.5865   -1.2465    3.6929 H   0  0  0  0  0  0  0  0  0  0  0  0
   -1.9308    2.8419   -0.0431 H   0  0  0  0  0  0  0  0  0  0  0  0
   -2.5350    1.5031   -0.9790 H   0  0  0  0  0  0  0  0  0  0  0  0
   -3.0066    2.5787    2.8397 H   0  0  0  0  0  0  0  0  0  0  0  0
   -5.6537    2.4993    3.4006 H   0  0  0  0  0  0  0  0  0  0  0  0
   -6.8877    1.7444    1.1081 H   0  0  0  0  0  0  0  0  0  0  0  0
   -6.3009    1.3628   -1.1818 H   0  0  0  0  0  0  0  0  0  0  0  0
   -4.7326    2.0142   -1.7244 H   0  0  0  0  0  0  0  0  0  0  0  0
   -4.8700    0.2974   -1.1995 H   0  0  0  0  0  0  0  0  0  0  0  0
   -1.6257   -0.3598   -1.9013 H   0  0  0  0  0  0  0  0  0  0  0  0
   -3.0060   -1.8481   -3.2702 H   0  0  0  0  0  0  0  0  0  0  0  0
   -3.9170   -4.7808   -2.7768 H   0  0  0  0  0  0  0  0  0  0  0  0
   -5.3988   -4.3446   -1.8903 H   0  0  0  0  0  0  0  0  0  0  0  0
   -4.9430   -3.4325   -3.3287 H   0  0  0  0  0  0  0  0  0  0  0  0
   -4.2297   -3.9916    0.2641 H   0  0  0  0  0  0  0  0  0  0  0  0
   -2.8938   -2.4877    1.6584 H   0  0  0  0  0  0  0  0  0  0  0  0
    4.9450   -1.3623    0.2629 H   0  0  0  0  0  0  0  0  0  0  0  0
    6.1525   -2.1720   -1.5221 H   0  0  0  0  0  0  0  0  0  0  0  0
    7.2249   -1.6288   -0.1694 H   0  0  0  0  0  0  0  0  0  0  0  0
    7.8416   -1.7454   -1.8218 H   0  0  0  0  0  0  0  0  0  0  0  0
  1  2  1  0
  2  3  1  0
  3  4  2  0
  4  5  1  0
  5  6  2  0
  6  7  1  0
  7  8  1  0
  8  9  2  0
  8 10  1  0
 10 11  1  0
 11 12  1  0
 12 13  2  0
 13 14  1  0
 14 15  2  0
 15 16  1  0
 16 17  1  0
 17 18  2  0
 18 19  1  0
 19 20  2  0
 20 21  1  0
 21 22  1  0
 15 23  1  0
 23 24  1  0
 24 25  2  0
 25 26  1  0
 26 27  2  0
 27 28  1  0
 27 29  1  0
 29 30  2  0
  6 31  1  0
 31 32  2  0
 32 33  1  0
 33 34  1  0
 32  3  1  0
 23 12  1  0
 30 24  1  0
 21 17  1  0
  1 35  1  0
  1 36  1  0
  1 37  1  0
  4 38  1  0
  5 39  1  0
  7 40  1  0
 10 41  1  0
 10 42  1  0
 16 43  1  0
 16 44  1  0
 18 45  1  0
 19 46  1  0
 20 47  1  0
 22 48  1  0
 22 49  1  0
 22 50  1  0
 25 51  1  0
 26 52  1  0
 28 53  1  0
 28 54  1  0
 28 55  1  0
 29 56  1  0
 30 57  1  0
 31 58  1  0
 34 59  1  0
 34 60  1  0
 34 61  1  0
M  END
$$$$
