
     RDKit          3D

 48 50  0  0  0  0  0  0  0  0999 V2000
   -5.2939    0.3684    3.6306 C   0  0  0  0  0  0  0  0  0  0  0  0
   -4.5943    0.5637    2.4025 O   0  0  0  0  0  0  0  0  0  0  0  0
   -3.3936   -0.0753    2.3343 C   0  0  0  0  0  0  0  0  0  0  0  0
   -2.8953   -0.7353    3.2427 O   0  0  0  0  0  0  0  0  0  0  0  0
   -2.7417    0.1188    0.9644 C   0  0  0  0  0  0  0  0  0  0  0  0
   -3.2048   -0.9840    0.0012 C   0  0  0  0  0  0  0  0  0  0  0  0
   -4.5879   -0.7463   -0.5566 C   0  0  0  0  0  0  0  0  0  0  0  0
   -4.7845    0.2132   -1.5599 C   0  0  0  0  0  0  0  0  0  0  0  0
   -6.0605    0.4484   -2.0722 C   0  0  0  0  0  0  0  0  0  0  0  0
   -7.1508   -0.2720   -1.5872 C   0  0  0  0  0  0  0  0  0  0  0  0
   -6.9659   -1.2286   -0.5905 C   0  0  0  0  0  0  0  0  0  0  0  0
   -5.6899   -1.4666   -0.0767 C   0  0  0  0  0  0  0  0  0  0  0  0
   -1.2922    0.0689    1.1612 N   0  0  0  0  0  0  0  0  0  0  0  0
   -0.4001    0.5564    0.2359 C   0  0  0  0  0  0  0  0  0  0  0  0
   -0.7536    1.1264   -0.7911 O   0  0  0  0  0  0  0  0  0  0  0  0
    1.0054    0.3339    0.5760 C   0  0  0  0  0  0  0  0  0  0  0  0
    2.1429    0.7453   -0.1607 C   0  0  0  0  0  0  0  0  0  0  0  0
    3.2131    0.3114    0.5837 C   0  0  0  0  0  0  0  0  0  0  0  0
    4.6821    0.4310    0.4401 C   0  0  0  0  0  0  0  0  0  0  0  0
    5.0299   -0.2469   -0.7687 O   0  0  0  0  0  0  0  0  0  0  0  0
    6.2867   -0.0246   -1.2633 C   0  0  0  0  0  0  0  0  0  0  0  0
    7.3389    0.6257   -0.6143 C   0  0  0  0  0  0  0  0  0  0  0  0
    7.2059    1.0916    0.6320 F   0  0  0  0  0  0  0  0  0  0  0  0
    8.5776    0.8093   -1.2410 C   0  0  0  0  0  0  0  0  0  0  0  0
    8.7869    0.3301   -2.5323 C   0  0  0  0  0  0  0  0  0  0  0  0
    7.7543   -0.3414   -3.1860 C   0  0  0  0  0  0  0  0  0  0  0  0
    6.5241   -0.5123   -2.5515 C   0  0  0  0  0  0  0  0  0  0  0  0
    5.5506   -1.1583   -3.2135 F   0  0  0  0  0  0  0  0  0  0  0  0
    2.7549   -0.3357    1.6897 O   0  0  0  0  0  0  0  0  0  0  0  0
    1.3725   -0.3254    1.6917 N   0  0  0  0  0  0  0  0  0  0  0  0
   -4.7472    0.8342    4.4579 H   0  0  0  0  0  0  0  0  0  0  0  0
   -5.4406   -0.6995    3.8268 H   0  0  0  0  0  0  0  0  0  0  0  0
   -6.2793    0.8402    3.5444 H   0  0  0  0  0  0  0  0  0  0  0  0
   -2.9803    1.1215    0.5907 H   0  0  0  0  0  0  0  0  0  0  0  0
   -3.1681   -1.9631    0.4977 H   0  0  0  0  0  0  0  0  0  0  0  0
   -2.5146   -1.0675   -0.8488 H   0  0  0  0  0  0  0  0  0  0  0  0
   -3.9415    0.7823   -1.9500 H   0  0  0  0  0  0  0  0  0  0  0  0
   -6.2020    1.1938   -2.8507 H   0  0  0  0  0  0  0  0  0  0  0  0
   -8.1442   -0.0885   -1.9877 H   0  0  0  0  0  0  0  0  0  0  0  0
   -7.8165   -1.7911   -0.2135 H   0  0  0  0  0  0  0  0  0  0  0  0
   -5.5648   -2.2170    0.7007 H   0  0  0  0  0  0  0  0  0  0  0  0
   -0.9223   -0.4582    1.9532 H   0  0  0  0  0  0  0  0  0  0  0  0
    2.1674    1.2882   -1.0927 H   0  0  0  0  0  0  0  0  0  0  0  0
    5.1917   -0.0362    1.2917 H   0  0  0  0  0  0  0  0  0  0  0  0
    4.9313    1.4970    0.3837 H   0  0  0  0  0  0  0  0  0  0  0  0
    9.3724    1.3289   -0.7116 H   0  0  0  0  0  0  0  0  0  0  0  0
    9.7446    0.4779   -3.0254 H   0  0  0  0  0  0  0  0  0  0  0  0
    7.8975   -0.7326   -4.1906 H   0  0  0  0  0  0  0  0  0  0  0  0
  1  2  1  0
  2  3  1  0
  3  4  2  0
  3  5  1  0
  5  6  1  0
  6  7  1  0
  7  8  2  0
  8  9  1  0
  9 10  2  0
 10 11  1  0
 11 12  2  0
  5 13  1  0
 13 14  1  0
 14 15  2  0
 14 16  1  0
 16 17  1  0
 17 18  2  0
 18 19  1  0
 19 20  1  0
 20 21  1  0
 21 22  2  0
 22 23  1  0
 22 24  1  0
 24 25  2  0
 25 26  1  0
 26 27  2  0
 27 28  1  0
 18 29  1  0
 29 30  1  0
 12  7  1  0
 30 16  2  0
 27 21  1  0
  1 31  1  0
  1 32  1  0
  1 33  1  0
  5 34  1  0
  6 35  1  0
  6 36  1  0
  8 37  1  0
  9 38  1  0
 10 39  1  0
 11 40  1  0
 12 41  1  0
 13 42  1  0
 17 43  1  0
 19 44  1  0
 19 45  1  0
 24 46  1  0
 25 47  1  0
 26 48  1  0
M  END
$$$$
