
     RDKit          3D

 38 39  0  0  0  0  0  0  0  0999 V2000
    1.2689    0.8529    1.8874 O   0  0  0  0  0  0  0  0  0  0  0  0
    0.3137    0.4282    1.2510 C   0  0  0  0  0  0  0  0  0  0  0  0
   -1.0585    0.8858    1.5669 C   0  0  0  0  0  0  0  0  0  0  0  0
   -2.1110    0.0539    1.5399 C   0  0  0  0  0  0  0  0  0  0  0  0
   -3.4865    0.5015    1.8067 C   0  0  0  0  0  0  0  0  0  0  0  0
   -3.7600    1.1862    3.0028 C   0  0  0  0  0  0  0  0  0  0  0  0
   -5.0603    1.5955    3.3188 C   0  0  0  0  0  0  0  0  0  0  0  0
   -6.1164    1.3212    2.4520 C   0  0  0  0  0  0  0  0  0  0  0  0
   -5.8770    0.6351    1.2634 C   0  0  0  0  0  0  0  0  0  0  0  0
   -4.5689    0.2311    0.9475 C   0  0  0  0  0  0  0  0  0  0  0  0
   -4.3744   -0.4769   -0.3154 N   0  0  0  0  0  4  0  0  0  0  0  0
   -5.2113   -1.3413   -0.6119 O   0  0  0  0  0  0  0  0  0  0  0  0
   -3.3987   -0.1669   -1.0146 O   0  0  0  0  0  1  0  0  0  0  0  0
    0.4004   -0.4143    0.1720 N   0  0  0  0  0  0  0  0  0  0  0  0
    1.6831   -0.8634   -0.3338 C   0  0  0  0  0  0  0  0  0  0  0  0
    2.3706    0.2008   -1.1924 C   0  0  0  0  0  0  0  0  0  0  0  0
    3.6901   -0.2874   -1.7377 C   0  0  0  0  0  0  0  0  0  0  0  0
    3.7641   -0.8694   -3.0121 C   0  0  0  0  0  0  0  0  0  0  0  0
    4.9848   -1.3351   -3.5025 C   0  0  0  0  0  0  0  0  0  0  0  0
    6.1273   -1.2224   -2.7192 C   0  0  0  0  0  0  0  0  0  0  0  0
    7.2977   -1.6710   -3.1918 F   0  0  0  0  0  0  0  0  0  0  0  0
    6.0732   -0.6536   -1.4527 C   0  0  0  0  0  0  0  0  0  0  0  0
    4.8542   -0.1870   -0.9598 C   0  0  0  0  0  0  0  0  0  0  0  0
   -1.1331    1.9282    1.8560 H   0  0  0  0  0  0  0  0  0  0  0  0
   -1.9884   -0.9958    1.2815 H   0  0  0  0  0  0  0  0  0  0  0  0
   -2.9621    1.3993    3.7135 H   0  0  0  0  0  0  0  0  0  0  0  0
   -5.2478    2.1246    4.2513 H   0  0  0  0  0  0  0  0  0  0  0  0
   -7.1256    1.6386    2.7061 H   0  0  0  0  0  0  0  0  0  0  0  0
   -6.7074    0.4212    0.5929 H   0  0  0  0  0  0  0  0  0  0  0  0
   -0.4186   -0.5548   -0.4082 H   0  0  0  0  0  0  0  0  0  0  0  0
    2.3160   -1.1385    0.5184 H   0  0  0  0  0  0  0  0  0  0  0  0
    1.4961   -1.7717   -0.9174 H   0  0  0  0  0  0  0  0  0  0  0  0
    2.5355    1.1179   -0.6127 H   0  0  0  0  0  0  0  0  0  0  0  0
    1.7132    0.4943   -2.0212 H   0  0  0  0  0  0  0  0  0  0  0  0
    2.8734   -0.9615   -3.6297 H   0  0  0  0  0  0  0  0  0  0  0  0
    5.0523   -1.7840   -4.4882 H   0  0  0  0  0  0  0  0  0  0  0  0
    6.9775   -0.5773   -0.8578 H   0  0  0  0  0  0  0  0  0  0  0  0
    4.8142    0.2562    0.0339 H   0  0  0  0  0  0  0  0  0  0  0  0
  1  2  2  0
  2  3  1  0
  3  4  2  3
  4  5  1  0
  5  6  2  0
  6  7  1  0
  7  8  2  0
  8  9  1  0
  9 10  2  0
 10 11  1  0
 11 12  2  0
 11 13  1  0
  2 14  1  0
 14 15  1  0
 15 16  1  0
 16 17  1  0
 17 18  2  0
 18 19  1  0
 19 20  2  0
 20 21  1  0
 20 22  1  0
 22 23  2  0
 10  5  1  0
 23 17  1  0
  3 24  1  0
  4 25  1  0
  6 26  1  0
  7 27  1  0
  8 28  1  0
  9 29  1  0
 14 30  1  0
 15 31  1  0
 15 32  1  0
 16 33  1  0
 16 34  1  0
 18 35  1  0
 19 36  1  0
 22 37  1  0
 23 38  1  0
M  CHG  2  11   1  13  -1
M  END
$$$$
