
     RDKit          3D

 40 41  0  0  0  0  0  0  0  0999 V2000
    6.5108    1.6537    1.2567 C   0  0  0  0  0  0  0  0  0  0  0  0
    6.4673    0.1319    2.2352 S   0  0  0  0  0  0  0  0  0  0  0  0
    5.8266   -1.0164    0.9761 C   0  0  0  0  0  0  0  0  0  0  0  0
    4.4048   -0.7228    0.5660 C   0  0  0  0  0  0  0  0  0  0  0  0
    3.3438   -0.9474    1.4570 C   0  0  0  0  0  0  0  0  0  0  0  0
    2.0252   -0.6765    1.0800 C   0  0  0  0  0  0  0  0  0  0  0  0
    1.7518   -0.1700   -0.1956 C   0  0  0  0  0  0  0  0  0  0  0  0
    0.3643    0.1358   -0.6434 C   0  0  0  0  0  0  0  0  0  0  0  0
    0.0833    0.1167   -1.8359 O   0  0  0  0  0  0  0  0  0  0  0  0
   -0.5383    0.4716    0.3485 N   0  0  0  0  0  0  0  0  0  0  0  0
   -1.8660    0.9533   -0.0047 C   0  0  0  0  0  0  0  0  0  0  0  0
   -2.8416    0.8135    1.1623 C   0  0  0  0  0  0  0  0  0  0  0  0
   -4.4709    1.5558    0.7996 S   0  0  0  0  0  0  0  0  0  0  0  0
   -5.0894    0.4020   -0.4107 C   0  0  0  0  0  0  0  0  0  0  0  0
   -5.3706    0.8534   -1.7044 C   0  0  0  0  0  0  0  0  0  0  0  0
   -5.8618   -0.0298   -2.6696 C   0  0  0  0  0  0  0  0  0  0  0  0
   -6.0814   -1.3645   -2.3360 C   0  0  0  0  0  0  0  0  0  0  0  0
   -6.7481   -2.5607   -3.6387 Br  0  0  0  0  0  0  0  0  0  0  0  0
   -5.8185   -1.8224   -1.0464 C   0  0  0  0  0  0  0  0  0  0  0  0
   -5.3264   -0.9372   -0.0834 C   0  0  0  0  0  0  0  0  0  0  0  0
    2.8030    0.0374   -1.0958 C   0  0  0  0  0  0  0  0  0  0  0  0
    4.1203   -0.2332   -0.7165 C   0  0  0  0  0  0  0  0  0  0  0  0
    6.9957    2.4390    1.8430 H   0  0  0  0  0  0  0  0  0  0  0  0
    7.0855    1.5045    0.3390 H   0  0  0  0  0  0  0  0  0  0  0  0
    5.4994    1.9873    1.0123 H   0  0  0  0  0  0  0  0  0  0  0  0
    6.4987   -1.0050    0.1107 H   0  0  0  0  0  0  0  0  0  0  0  0
    5.8728   -2.0322    1.3854 H   0  0  0  0  0  0  0  0  0  0  0  0
    3.5429   -1.3405    2.4529 H   0  0  0  0  0  0  0  0  0  0  0  0
    1.2260   -0.8916    1.7833 H   0  0  0  0  0  0  0  0  0  0  0  0
   -0.1515    0.7813    1.2306 H   0  0  0  0  0  0  0  0  0  0  0  0
   -2.2180    0.3950   -0.8791 H   0  0  0  0  0  0  0  0  0  0  0  0
   -1.7511    2.0032   -0.2985 H   0  0  0  0  0  0  0  0  0  0  0  0
   -2.4399    1.3351    2.0385 H   0  0  0  0  0  0  0  0  0  0  0  0
   -2.9552   -0.2366    1.4516 H   0  0  0  0  0  0  0  0  0  0  0  0
   -5.2054    1.8942   -1.9741 H   0  0  0  0  0  0  0  0  0  0  0  0
   -6.0687    0.3338   -3.6726 H   0  0  0  0  0  0  0  0  0  0  0  0
   -5.9962   -2.8608   -0.7797 H   0  0  0  0  0  0  0  0  0  0  0  0
   -5.1407   -1.3033    0.9232 H   0  0  0  0  0  0  0  0  0  0  0  0
    2.5973    0.4127   -2.0968 H   0  0  0  0  0  0  0  0  0  0  0  0
    4.9205   -0.0602   -1.4333 H   0  0  0  0  0  0  0  0  0  0  0  0
  1  2  1  0
  2  3  1  0
  3  4  1  0
  4  5  2  0
  5  6  1  0
  6  7  2  0
  7  8  1  0
  8  9  2  0
  8 10  1  0
 10 11  1  0
 11 12  1  0
 12 13  1  0
 13 14  1  0
 14 15  2  0
 15 16  1  0
 16 17  2  0
 17 18  1  0
 17 19  1  0
 19 20  2  0
  7 21  1  0
 21 22  2  0
 22  4  1  0
 20 14  1  0
  1 23  1  0
  1 24  1  0
  1 25  1  0
  3 26  1  0
  3 27  1  0
  5 28  1  0
  6 29  1  0
 10 30  1  0
 11 31  1  0
 11 32  1  0
 12 33  1  0
 12 34  1  0
 15 35  1  0
 16 36  1  0
 19 37  1  0
 20 38  1  0
 21 39  1  0
 22 40  1  0
M  END
$$$$
