
     RDKit          3D

 43 45  0  0  0  0  0  0  0  0999 V2000
   -2.0972   -2.1413   -0.7241 C   0  0  0  0  0  0  0  0  0  0  0  0
   -2.2340   -0.6058   -0.6797 C   0  0  0  0  0  0  0  0  0  0  0  0
   -2.2590   -0.1098   -2.1382 C   0  0  0  0  0  0  0  0  0  0  0  0
   -3.4781   -0.1808    0.1598 C   0  0  0  0  0  0  0  0  0  0  0  0
   -3.1052   -0.6438    1.5913 C   0  0  0  0  0  0  0  0  0  0  0  0
   -1.5856   -0.3685    1.6703 C   0  0  0  0  0  0  0  0  0  0  0  0
   -1.2540    0.1636    0.2538 C   0  0  0  0  0  0  0  0  0  0  0  0
    0.2122    0.3686   -0.0866 C   0  0  0  0  0  0  0  0  0  0  0  0
    1.1864   -1.0974   -0.3524 S   0  0  0  0  0  6  0  0  0  0  0  0
    0.9570   -1.5513   -1.7064 O   0  0  0  0  0  0  0  0  0  0  0  0
    1.0229   -1.9827    0.7788 O   0  0  0  0  0  0  0  0  0  0  0  0
    2.7599   -0.5029   -0.2946 N   0  0  0  0  0  0  0  0  0  0  0  0
    3.3353   -0.0961    1.0171 C   0  0  0  0  0  0  0  0  0  0  0  0
    3.8212    1.3572    0.9707 C   0  0  0  0  0  0  0  0  0  0  0  0
    4.8073    1.6068   -0.0395 O   0  0  0  0  0  0  0  0  0  0  0  0
    4.6949    0.7440   -1.1804 C   0  0  0  0  0  0  0  0  0  0  0  0
    3.2575    0.2875   -1.4509 C   0  0  0  0  0  0  0  0  0  0  0  0
   -1.9475    1.5374    0.2659 C   0  0  0  0  0  0  0  0  0  0  0  0
   -1.3802    2.6150    0.3720 O   0  0  0  0  0  0  0  0  0  0  0  0
   -3.4435    1.3599    0.1528 C   0  0  0  0  0  0  0  0  0  0  0  0
   -3.0427   -2.5947   -1.0447 H   0  0  0  0  0  0  0  0  0  0  0  0
   -1.3397   -2.4615   -1.4438 H   0  0  0  0  0  0  0  0  0  0  0  0
   -1.8287   -2.5923    0.2340 H   0  0  0  0  0  0  0  0  0  0  0  0
   -1.3689   -0.4461   -2.6805 H   0  0  0  0  0  0  0  0  0  0  0  0
   -3.1368   -0.5055   -2.6614 H   0  0  0  0  0  0  0  0  0  0  0  0
   -2.2834    0.9788   -2.2369 H   0  0  0  0  0  0  0  0  0  0  0  0
   -4.4343   -0.5843   -0.1831 H   0  0  0  0  0  0  0  0  0  0  0  0
   -3.6562   -0.0993    2.3654 H   0  0  0  0  0  0  0  0  0  0  0  0
   -3.3122   -1.7103    1.7309 H   0  0  0  0  0  0  0  0  0  0  0  0
   -1.3669    0.3681    2.4526 H   0  0  0  0  0  0  0  0  0  0  0  0
   -1.0534   -1.2873    1.9255 H   0  0  0  0  0  0  0  0  0  0  0  0
    0.3163    0.9762   -0.9927 H   0  0  0  0  0  0  0  0  0  0  0  0
    0.6895    0.9162    0.7337 H   0  0  0  0  0  0  0  0  0  0  0  0
    2.6078   -0.2101    1.8263 H   0  0  0  0  0  0  0  0  0  0  0  0
    4.1756   -0.7675    1.2275 H   0  0  0  0  0  0  0  0  0  0  0  0
    4.2593    1.6387    1.9335 H   0  0  0  0  0  0  0  0  0  0  0  0
    2.9802    2.0355    0.7859 H   0  0  0  0  0  0  0  0  0  0  0  0
    5.3494   -0.1193   -1.0125 H   0  0  0  0  0  0  0  0  0  0  0  0
    5.0874    1.2902   -2.0439 H   0  0  0  0  0  0  0  0  0  0  0  0
    2.6160    1.1622   -1.5999 H   0  0  0  0  0  0  0  0  0  0  0  0
    3.2408   -0.3319   -2.3529 H   0  0  0  0  0  0  0  0  0  0  0  0
   -3.9602    1.8016    1.0077 H   0  0  0  0  0  0  0  0  0  0  0  0
   -3.8094    1.7827   -0.7852 H   0  0  0  0  0  0  0  0  0  0  0  0
  1  2  1  0
  2  3  1  0
  2  4  1  0
  4  5  1  0
  5  6  1  0
  6  7  1  0
  7  8  1  0
  8  9  1  0
  9 10  2  0
  9 11  2  0
  9 12  1  0
 12 13  1  0
 13 14  1  0
 14 15  1  0
 15 16  1  0
 16 17  1  0
  7 18  1  0
 18 19  2  0
 18 20  1  0
  7  2  1  0
 17 12  1  0
 20  4  1  0
  1 21  1  0
  1 22  1  0
  1 23  1  0
  3 24  1  0
  3 25  1  0
  3 26  1  0
  4 27  1  0
  5 28  1  0
  5 29  1  0
  6 30  1  0
  6 31  1  0
  8 32  1  0
  8 33  1  0
 13 34  1  0
 13 35  1  0
 14 36  1  0
 14 37  1  0
 16 38  1  0
 16 39  1  0
 17 40  1  0
 17 41  1  0
 20 42  1  0
 20 43  1  0
M  END
$$$$
