
     RDKit          3D

 42 44  0  0  0  0  0  0  0  0999 V2000
    4.8456   -3.6904    0.0486 C   0  0  0  0  0  0  0  0  0  0  0  0
    5.2135   -2.3241   -0.1049 O   0  0  0  0  0  0  0  0  0  0  0  0
    4.1964   -1.4279   -0.2956 C   0  0  0  0  0  0  0  0  0  0  0  0
    4.6147   -0.1072   -0.4961 C   0  0  0  0  0  0  0  0  0  0  0  0
    3.6850    0.9105   -0.7144 C   0  0  0  0  0  0  0  0  0  0  0  0
    3.9737    2.2291   -0.9374 O   0  0  0  0  0  0  0  0  0  0  0  0
    5.3486    2.5947   -0.9415 C   0  0  0  0  0  0  0  0  0  0  0  0
    2.3225    0.6054   -0.7208 C   0  0  0  0  0  0  0  0  0  0  0  0
    1.8919   -0.7086   -0.5018 C   0  0  0  0  0  0  0  0  0  0  0  0
    0.4455   -1.0800   -0.5056 C   0  0  0  0  0  0  0  0  0  0  0  0
    0.1533   -2.2082   -0.8845 O   0  0  0  0  0  0  0  0  0  0  0  0
   -0.4052   -0.0976   -0.0399 N   0  0  0  0  0  0  0  0  0  0  0  0
   -1.7899   -0.1502    0.0571 C   0  0  0  0  0  0  0  0  0  0  0  0
   -2.6721   -1.5124   -0.4888 S   0  0  0  0  0  0  0  0  0  0  0  0
   -4.1052   -0.8146   -0.0087 C   0  0  0  0  0  0  0  0  0  0  0  0
   -3.9679    0.4302    0.5411 C   0  0  0  0  0  0  0  0  0  0  0  0
   -2.6076    0.8628    0.5746 C   0  0  0  0  0  0  0  0  0  0  0  0
   -2.0531    2.1233    1.0641 C   0  0  0  0  0  0  0  0  0  0  0  0
   -2.9390    3.1234    1.3407 N   0  0  0  0  0  0  0  0  0  0  0  0
   -0.8465    2.3192    1.1937 O   0  0  0  0  0  0  0  0  0  0  0  0
   -5.2959    0.9584    0.9548 C   0  0  0  0  0  0  0  0  0  0  0  0
   -6.2041   -0.3085    0.8898 C   0  0  0  0  0  0  0  0  0  0  0  0
   -5.4976   -1.3148   -0.0644 C   0  0  0  0  0  0  0  0  0  0  0  0
    2.8352   -1.7269   -0.3017 C   0  0  0  0  0  0  0  0  0  0  0  0
    5.7651   -4.2723    0.1650 H   0  0  0  0  0  0  0  0  0  0  0  0
    4.2427   -3.8368    0.9507 H   0  0  0  0  0  0  0  0  0  0  0  0
    4.3265   -4.0626   -0.8409 H   0  0  0  0  0  0  0  0  0  0  0  0
    5.6818    0.0911   -0.4844 H   0  0  0  0  0  0  0  0  0  0  0  0
    5.8897    2.0861   -1.7462 H   0  0  0  0  0  0  0  0  0  0  0  0
    5.4073    3.6711   -1.1296 H   0  0  0  0  0  0  0  0  0  0  0  0
    5.8114    2.4011    0.0318 H   0  0  0  0  0  0  0  0  0  0  0  0
    1.6139    1.4046   -0.9227 H   0  0  0  0  0  0  0  0  0  0  0  0
    0.0009    0.7498    0.3549 H   0  0  0  0  0  0  0  0  0  0  0  0
   -3.8845    3.1008    0.9941 H   0  0  0  0  0  0  0  0  0  0  0  0
   -2.5356    4.0273    1.5470 H   0  0  0  0  0  0  0  0  0  0  0  0
   -5.2902    1.3818    1.9629 H   0  0  0  0  0  0  0  0  0  0  0  0
   -5.6464    1.7125    0.2423 H   0  0  0  0  0  0  0  0  0  0  0  0
   -6.2686   -0.7519    1.8924 H   0  0  0  0  0  0  0  0  0  0  0  0
   -7.2236   -0.0738    0.5684 H   0  0  0  0  0  0  0  0  0  0  0  0
   -5.6060   -2.3427    0.2920 H   0  0  0  0  0  0  0  0  0  0  0  0
   -5.9009   -1.2314   -1.0788 H   0  0  0  0  0  0  0  0  0  0  0  0
    2.4750   -2.7404   -0.1508 H   0  0  0  0  0  0  0  0  0  0  0  0
  1  2  1  0
  2  3  1  0
  3  4  2  0
  4  5  1  0
  5  6  1  0
  6  7  1  0
  5  8  2  0
  8  9  1  0
  9 10  1  0
 10 11  2  0
 10 12  1  0
 12 13  1  0
 13 14  1  0
 14 15  1  0
 15 16  2  0
 16 17  1  0
 17 18  1  0
 18 19  1  0
 18 20  2  0
 16 21  1  0
 21 22  1  0
 22 23  1  0
  9 24  2  0
 24  3  1  0
 17 13  2  0
 23 15  1  0
  1 25  1  0
  1 26  1  0
  1 27  1  0
  4 28  1  0
  7 29  1  0
  7 30  1  0
  7 31  1  0
  8 32  1  0
 12 33  1  0
 19 34  1  0
 19 35  1  0
 21 36  1  0
 21 37  1  0
 22 38  1  0
 22 39  1  0
 23 40  1  0
 23 41  1  0
 24 42  1  0
M  END
$$$$
