
     RDKit          3D

 55 59  0  0  0  0  0  0  0  0999 V2000
    7.8643    2.3999    0.9744 C   0  0  0  0  0  0  0  0  0  0  0  0
    6.5161    2.2221    0.5580 O   0  0  0  0  0  0  0  0  0  0  0  0
    5.8463    1.1434    1.0675 C   0  0  0  0  0  0  0  0  0  0  0  0
    6.3939    0.1487    1.8782 C   0  0  0  0  0  0  0  0  0  0  0  0
    5.6005   -0.9141    2.3219 C   0  0  0  0  0  0  0  0  0  0  0  0
    4.2577   -0.9885    1.9521 C   0  0  0  0  0  0  0  0  0  0  0  0
    3.6998    0.0006    1.1359 C   0  0  0  0  0  0  0  0  0  0  0  0
    2.3034   -0.0746    0.7338 C   0  0  0  0  0  0  0  0  0  0  0  0
    1.3242    0.6848    1.1880 N   0  0  0  0  0  0  0  0  0  0  0  0
    0.1532    0.2800    0.5967 N   0  0  0  0  0  0  0  0  0  0  0  0
    0.4446   -0.6859   -0.2424 C   0  0  0  0  0  0  0  0  0  0  0  0
   -0.6632   -1.5219   -1.2667 S   0  0  0  0  0  0  0  0  0  0  0  0
   -2.2719   -1.0836   -0.5000 C   0  0  0  0  0  0  0  0  0  0  0  0
   -3.3283   -1.0174   -1.6140 C   0  0  0  0  0  0  0  0  0  0  0  0
   -3.5956   -2.0010   -2.3098 O   0  0  0  0  0  0  0  0  0  0  0  0
   -4.0630    0.2369   -1.8369 C   0  0  0  0  0  0  0  0  0  0  0  0
   -5.3616    0.2550   -2.3234 C   0  0  0  0  0  0  0  0  0  0  0  0
   -5.7787    1.5534   -2.4058 N   0  0  0  0  0  0  0  0  0  0  0  0
   -4.7766    2.4013   -2.0045 C   0  0  0  0  0  0  0  0  0  0  0  0
   -4.7704    3.8013   -1.9347 C   0  0  0  0  0  0  0  0  0  0  0  0
   -3.5976    4.4292   -1.5124 C   0  0  0  0  0  0  0  0  0  0  0  0
   -2.4701    3.6836   -1.1907 C   0  0  0  0  0  0  0  0  0  0  0  0
   -2.4911    2.2848   -1.2708 C   0  0  0  0  0  0  0  0  0  0  0  0
   -3.6732    1.6121   -1.6624 C   0  0  0  0  0  0  0  0  0  0  0  0
   -2.6301   -2.0471    0.6272 C   0  0  0  0  0  0  0  0  0  0  0  0
   -2.4902   -1.6234    1.9620 C   0  0  0  0  0  0  0  0  0  0  0  0
   -2.8214   -2.4706    3.0243 C   0  0  0  0  0  0  0  0  0  0  0  0
   -3.2889   -3.7572    2.7706 C   0  0  0  0  0  0  0  0  0  0  0  0
   -3.4132   -4.2007    1.4554 C   0  0  0  0  0  0  0  0  0  0  0  0
   -3.0790   -3.3565    0.3910 C   0  0  0  0  0  0  0  0  0  0  0  0
    1.7851   -0.9458   -0.2001 N   0  0  0  0  0  0  0  0  0  0  0  0
    2.5177   -1.9134   -0.9747 C   0  0  0  0  0  0  0  0  0  0  0  0
    4.4982    1.0664    0.7046 C   0  0  0  0  0  0  0  0  0  0  0  0
    7.9316    2.5290    2.0604 H   0  0  0  0  0  0  0  0  0  0  0  0
    8.2412    3.3150    0.5052 H   0  0  0  0  0  0  0  0  0  0  0  0
    8.4939    1.5685    0.6355 H   0  0  0  0  0  0  0  0  0  0  0  0
    7.4343    0.1704    2.1855 H   0  0  0  0  0  0  0  0  0  0  0  0
    6.0296   -1.6815    2.9620 H   0  0  0  0  0  0  0  0  0  0  0  0
    3.6483   -1.8141    2.3161 H   0  0  0  0  0  0  0  0  0  0  0  0
   -2.2054   -0.0901   -0.0582 H   0  0  0  0  0  0  0  0  0  0  0  0
   -6.0191   -0.5619   -2.6058 H   0  0  0  0  0  0  0  0  0  0  0  0
   -6.6883    1.8537   -2.7232 H   0  0  0  0  0  0  0  0  0  0  0  0
   -5.6445    4.3861   -2.2001 H   0  0  0  0  0  0  0  0  0  0  0  0
   -3.5635    5.5145   -1.4418 H   0  0  0  0  0  0  0  0  0  0  0  0
   -1.5585    4.1875   -0.8727 H   0  0  0  0  0  0  0  0  0  0  0  0
   -1.5793    1.7463   -1.0306 H   0  0  0  0  0  0  0  0  0  0  0  0
   -2.1168   -0.6244    2.1865 H   0  0  0  0  0  0  0  0  0  0  0  0
   -2.7151   -2.1232    4.0486 H   0  0  0  0  0  0  0  0  0  0  0  0
   -3.5540   -4.4133    3.5969 H   0  0  0  0  0  0  0  0  0  0  0  0
   -3.7760   -5.2055    1.2553 H   0  0  0  0  0  0  0  0  0  0  0  0
   -3.1823   -3.7371   -0.6242 H   0  0  0  0  0  0  0  0  0  0  0  0
    2.1407   -1.9299   -2.0003 H   0  0  0  0  0  0  0  0  0  0  0  0
    2.3942   -2.8933   -0.5074 H   0  0  0  0  0  0  0  0  0  0  0  0
    3.5764   -1.6461   -1.0060 H   0  0  0  0  0  0  0  0  0  0  0  0
    4.0717    1.8475    0.0789 H   0  0  0  0  0  0  0  0  0  0  0  0
  1  2  1  0
  2  3  1  0
  3  4  2  0
  4  5  1  0
  5  6  2  0
  6  7  1  0
  7  8  1  0
  8  9  2  0
  9 10  1  0
 10 11  2  0
 11 12  1  0
 12 13  1  0
 13 14  1  0
 14 15  2  0
 14 16  1  0
 16 17  2  0
 17 18  1  0
 18 19  1  0
 19 20  2  0
 20 21  1  0
 21 22  2  0
 22 23  1  0
 23 24  2  0
 13 25  1  0
 25 26  2  0
 26 27  1  0
 27 28  2  0
 28 29  1  0
 29 30  2  0
 11 31  1  0
 31 32  1  0
  7 33  2  0
 33  3  1  0
 31  8  1  0
 24 16  1  0
 30 25  1  0
 24 19  1  0
  1 34  1  0
  1 35  1  0
  1 36  1  0
  4 37  1  0
  5 38  1  0
  6 39  1  0
 13 40  1  0
 17 41  1  0
 18 42  1  0
 20 43  1  0
 21 44  1  0
 22 45  1  0
 23 46  1  0
 26 47  1  0
 27 48  1  0
 28 49  1  0
 29 50  1  0
 30 51  1  0
 32 52  1  0
 32 53  1  0
 32 54  1  0
 33 55  1  0
M  END
$$$$
