
     RDKit          3D

 60 65  0  0  0  0  0  0  0  0999 V2000
   -1.9322   -3.7705   -0.4425 O   0  0  0  0  0  0  0  0  0  0  0  0
   -2.2731   -2.5966   -0.3654 C   0  0  0  0  0  0  0  0  0  0  0  0
   -1.3736   -1.5735   -0.0911 N   0  0  0  0  0  0  0  0  0  0  0  0
   -1.7196   -0.2334    0.0292 C   0  0  0  0  0  0  0  0  0  0  0  0
   -0.5916    0.7458    0.3467 C   0  0  0  0  0  0  0  0  0  0  0  0
    0.2041    0.3244    1.5924 C   0  0  0  0  0  0  0  0  0  0  0  0
    1.5949   -0.2132    1.2613 C   0  0  0  0  0  0  0  0  0  0  0  0
    1.5046   -1.0194    0.0249 N   0  0  0  0  0  0  0  0  0  0  0  0
    2.6602   -2.2732   -0.1583 S   0  0  0  0  0  6  0  0  0  0  0  0
    2.3943   -2.9149   -1.4267 O   0  0  0  0  0  0  0  0  0  0  0  0
    2.6804   -3.0239    1.0778 O   0  0  0  0  0  0  0  0  0  0  0  0
    4.2072   -1.4073   -0.2914 C   0  0  0  0  0  0  0  0  0  0  0  0
    4.9338   -1.1087    0.8675 C   0  0  0  0  0  0  0  0  0  0  0  0
    6.1611   -0.4526    0.7614 C   0  0  0  0  0  0  0  0  0  0  0  0
    6.6632   -0.1174   -0.4958 C   0  0  0  0  0  0  0  0  0  0  0  0
    5.9309   -0.4178   -1.6507 C   0  0  0  0  0  0  0  0  0  0  0  0
    4.7131   -1.0864   -1.5547 C   0  0  0  0  0  0  0  0  0  0  0  0
    6.3536   -0.0925   -2.9137 O   0  0  0  0  0  0  0  0  0  0  0  0
    7.4299    0.8524   -2.8829 C   0  0  0  0  0  0  0  0  0  0  0  0
    8.4596    0.4652   -1.8342 C   0  0  0  0  0  0  0  0  0  0  0  0
    7.8833    0.5077   -0.5233 O   0  0  0  0  0  0  0  0  0  0  0  0
    1.2336   -0.2060   -1.1910 C   0  0  0  0  0  0  0  0  0  0  0  0
    0.3074    0.9704   -0.8729 C   0  0  0  0  0  0  0  0  0  0  0  0
   -2.9320    0.2265   -0.1267 N   0  0  0  0  0  0  0  0  0  0  0  0
   -3.8318   -0.7500   -0.4033 C   0  0  0  0  0  0  0  0  0  0  0  0
   -3.6121   -2.1001   -0.5355 C   0  0  0  0  0  0  0  0  0  0  0  0
   -4.7720   -2.7480   -0.8270 N   0  0  0  0  0  0  0  0  0  0  0  0
   -5.7361   -1.8285   -0.8845 N   0  0  0  0  0  0  0  0  0  0  0  0
   -5.1770   -0.6242   -0.6112 N   0  0  0  0  0  0  0  0  0  0  0  0
   -5.9679    0.5885   -0.6360 C   0  0  0  0  0  0  0  0  0  0  0  0
   -6.4983    0.9326    0.7281 C   0  0  0  0  0  0  0  0  0  0  0  0
   -5.7010    1.5999    1.6704 C   0  0  0  0  0  0  0  0  0  0  0  0
   -6.2043    1.8963    2.9398 C   0  0  0  0  0  0  0  0  0  0  0  0
   -7.5059    1.5283    3.2823 C   0  0  0  0  0  0  0  0  0  0  0  0
   -8.3052    0.8634    2.3548 C   0  0  0  0  0  0  0  0  0  0  0  0
   -7.7981    0.5712    1.0918 C   0  0  0  0  0  0  0  0  0  0  0  0
   -8.5873   -0.0587    0.2108 F   0  0  0  0  0  0  0  0  0  0  0  0
   -0.4114   -1.8703    0.0390 H   0  0  0  0  0  0  0  0  0  0  0  0
   -1.0831    1.7011    0.5794 H   0  0  0  0  0  0  0  0  0  0  0  0
    0.3215    1.1858    2.2625 H   0  0  0  0  0  0  0  0  0  0  0  0
   -0.3517   -0.4262    2.1687 H   0  0  0  0  0  0  0  0  0  0  0  0
    2.3001    0.6139    1.1168 H   0  0  0  0  0  0  0  0  0  0  0  0
    1.9484   -0.8071    2.1095 H   0  0  0  0  0  0  0  0  0  0  0  0
    4.5610   -1.3941    1.8493 H   0  0  0  0  0  0  0  0  0  0  0  0
    6.7373   -0.2221    1.6546 H   0  0  0  0  0  0  0  0  0  0  0  0
    4.1679   -1.3451   -2.4598 H   0  0  0  0  0  0  0  0  0  0  0  0
    7.8880    0.8655   -3.8770 H   0  0  0  0  0  0  0  0  0  0  0  0
    7.0119    1.8475   -2.6855 H   0  0  0  0  0  0  0  0  0  0  0  0
    9.2988    1.1675   -1.8501 H   0  0  0  0  0  0  0  0  0  0  0  0
    8.8538   -0.5433   -2.0106 H   0  0  0  0  0  0  0  0  0  0  0  0
    2.1593    0.1797   -1.6267 H   0  0  0  0  0  0  0  0  0  0  0  0
    0.7505   -0.8474   -1.9364 H   0  0  0  0  0  0  0  0  0  0  0  0
    0.9286    1.8551   -0.6790 H   0  0  0  0  0  0  0  0  0  0  0  0
   -0.2898    1.2106   -1.7609 H   0  0  0  0  0  0  0  0  0  0  0  0
   -6.7772    0.4504   -1.3627 H   0  0  0  0  0  0  0  0  0  0  0  0
   -5.3371    1.3994   -1.0186 H   0  0  0  0  0  0  0  0  0  0  0  0
   -4.6801    1.8876    1.4240 H   0  0  0  0  0  0  0  0  0  0  0  0
   -5.5784    2.4114    3.6650 H   0  0  0  0  0  0  0  0  0  0  0  0
   -7.8950    1.7559    4.2715 H   0  0  0  0  0  0  0  0  0  0  0  0
   -9.3193    0.5683    2.6066 H   0  0  0  0  0  0  0  0  0  0  0  0
  1  2  2  0
  2  3  1  0
  3  4  1  0
  4  5  1  0
  5  6  1  0
  6  7  1  0
  7  8  1  0
  8  9  1  0
  9 10  2  0
  9 11  2  0
  9 12  1  0
 12 13  2  0
 13 14  1  0
 14 15  2  0
 15 16  1  0
 16 17  2  0
 16 18  1  0
 18 19  1  0
 19 20  1  0
 20 21  1  0
  8 22  1  0
 22 23  1  0
  4 24  2  0
 24 25  1  0
 25 26  2  0
 26 27  1  0
 27 28  2  0
 28 29  1  0
 29 30  1  0
 30 31  1  0
 31 32  2  0
 32 33  1  0
 33 34  2  0
 34 35  1  0
 35 36  2  0
 36 37  1  0
 26  2  1  0
 36 31  1  0
 23  5  1  0
 29 25  1  0
 17 12  1  0
 21 15  1  0
  3 38  1  0
  5 39  1  0
  6 40  1  0
  6 41  1  0
  7 42  1  0
  7 43  1  0
 13 44  1  0
 14 45  1  0
 17 46  1  0
 19 47  1  0
 19 48  1  0
 20 49  1  0
 20 50  1  0
 22 51  1  0
 22 52  1  0
 23 53  1  0
 23 54  1  0
 30 55  1  0
 30 56  1  0
 32 57  1  0
 33 58  1  0
 34 59  1  0
 35 60  1  0
M  END
$$$$
