
     RDKit          3D

 40 42  0  0  0  0  0  0  0  0999 V2000
   -4.9974   -0.9882    1.1890 C   0  0  0  0  0  0  0  0  0  0  0  0
   -5.3885   -0.2360    0.1503 C   0  0  0  0  0  0  0  0  0  0  0  0
   -4.5671    0.7315   -0.6594 C   0  0  0  0  0  0  0  0  0  0  0  0
   -3.1598    0.8337   -0.2800 N   0  0  0  0  0  0  0  0  0  0  0  0
   -2.1474    0.1204   -0.8746 C   0  0  0  0  0  0  0  0  0  0  0  0
   -0.9596    0.4882   -0.2826 C   0  0  0  0  0  0  0  0  0  0  0  0
    0.2918   -0.0889   -0.6586 C   0  0  0  0  0  0  0  0  0  0  0  0
    1.3175   -0.3249    0.1764 C   0  0  0  0  0  0  0  0  0  0  0  0
    2.5892   -0.9314   -0.2313 C   0  0  0  0  0  0  0  0  0  0  0  0
    2.6532   -2.0060   -1.1170 C   0  0  0  0  0  0  0  0  0  0  0  0
    3.8867   -2.5587   -1.4432 C   0  0  0  0  0  0  0  0  0  0  0  0
    5.0247   -2.0729   -0.8995 N   0  0  0  0  0  4  0  0  0  0  0  0
    6.3205   -2.6665   -1.2702 C   0  0  0  0  0  0  0  0  0  0  0  0
    4.9873   -1.0365   -0.0329 C   0  0  0  0  0  0  0  0  0  0  0  0
    3.7757   -0.4549    0.3234 C   0  0  0  0  0  0  0  0  0  0  0  0
   -1.2525    1.5017    0.6830 C   0  0  0  0  0  0  0  0  0  0  0  0
   -0.4791    2.2976    1.5585 C   0  0  0  0  0  0  0  0  0  0  0  0
   -1.1044    3.2190    2.4057 C   0  0  0  0  0  0  0  0  0  0  0  0
   -2.4861    3.3648    2.3919 C   0  0  0  0  0  0  0  0  0  0  0  0
   -3.2775    2.6061    1.5267 C   0  0  0  0  0  0  0  0  0  0  0  0
   -2.6412    1.6881    0.6739 C   0  0  0  0  0  0  0  0  0  0  0  0
   -5.7006   -1.6472    1.6905 H   0  0  0  0  0  0  0  0  0  0  0  0
   -3.9825   -0.9680    1.5752 H   0  0  0  0  0  0  0  0  0  0  0  0
   -6.4283   -0.3154   -0.1645 H   0  0  0  0  0  0  0  0  0  0  0  0
   -4.5939    0.4338   -1.7144 H   0  0  0  0  0  0  0  0  0  0  0  0
   -5.0007    1.7355   -0.5987 H   0  0  0  0  0  0  0  0  0  0  0  0
   -2.3666   -0.6005   -1.6517 H   0  0  0  0  0  0  0  0  0  0  0  0
    0.3772   -0.3698   -1.7062 H   0  0  0  0  0  0  0  0  0  0  0  0
    1.2303   -0.0652    1.2295 H   0  0  0  0  0  0  0  0  0  0  0  0
    1.7487   -2.4280   -1.5509 H   0  0  0  0  0  0  0  0  0  0  0  0
    3.9723   -3.3918   -2.1354 H   0  0  0  0  0  0  0  0  0  0  0  0
    7.0142   -2.5663   -0.4314 H   0  0  0  0  0  0  0  0  0  0  0  0
    6.1777   -3.7264   -1.4961 H   0  0  0  0  0  0  0  0  0  0  0  0
    6.6883   -2.1273   -2.1466 H   0  0  0  0  0  0  0  0  0  0  0  0
    5.9309   -0.6795    0.3702 H   0  0  0  0  0  0  0  0  0  0  0  0
    3.7661    0.3770    1.0258 H   0  0  0  0  0  0  0  0  0  0  0  0
    0.6018    2.2118    1.5758 H   0  0  0  0  0  0  0  0  0  0  0  0
   -0.5052    3.8277    3.0782 H   0  0  0  0  0  0  0  0  0  0  0  0
   -2.9598    4.0826    3.0582 H   0  0  0  0  0  0  0  0  0  0  0  0
   -4.3560    2.7310    1.5237 H   0  0  0  0  0  0  0  0  0  0  0  0
  1  2  2  0
  2  3  1  0
  3  4  1  0
  4  5  1  0
  5  6  2  0
  6  7  1  0
  7  8  2  3
  8  9  1  0
  9 10  2  0
 10 11  1  0
 11 12  2  0
 12 13  1  0
 12 14  1  0
 14 15  2  0
  6 16  1  0
 16 17  2  0
 17 18  1  0
 18 19  2  0
 19 20  1  0
 20 21  2  0
 21  4  1  0
 15  9  1  0
 21 16  1  0
  1 22  1  0
  1 23  1  0
  2 24  1  0
  3 25  1  0
  3 26  1  0
  5 27  1  0
  7 28  1  0
  8 29  1  0
 10 30  1  0
 11 31  1  0
 13 32  1  0
 13 33  1  0
 13 34  1  0
 14 35  1  0
 15 36  1  0
 17 37  1  0
 18 38  1  0
 19 39  1  0
 20 40  1  0
M  CHG  1  12   1
M  END
$$$$
