
     RDKit          3D

 59 62  0  0  0  0  0  0  0  0999 V2000
    6.4051   -2.2355   -1.1431 C   0  0  0  0  0  0  0  0  0  0  0  0
    5.4853   -3.1057   -0.3054 C   0  0  0  0  0  0  0  0  0  0  0  0
    4.4441   -2.3395    0.2965 O   0  0  0  0  0  0  0  0  0  0  0  0
    3.3700   -2.0405   -0.5917 C   0  0  0  0  0  0  0  0  0  0  0  0
    2.3052   -1.2816    0.1897 C   0  0  0  0  0  0  0  0  0  0  0  0
    1.1094   -0.9456   -0.6963 C   0  0  0  0  0  0  0  0  0  0  0  0
    0.0997   -0.1754    0.0535 N   0  0  0  0  0  0  0  0  0  0  0  0
   -0.9059   -0.8244    0.7939 C   0  0  0  0  0  0  0  0  0  0  0  0
   -0.9707   -2.1099    0.9562 N   0  0  0  0  0  0  0  0  0  0  0  0
   -1.9727   -0.0099    1.4485 C   0  0  0  0  0  0  0  0  0  0  0  0
   -3.3022   -0.6958    2.3149 S   0  0  0  0  0  6  0  0  0  0  0  0
   -2.8239   -1.4255    3.4772 O   0  0  0  0  0  0  0  0  0  0  0  0
   -4.3306    0.3183    2.5087 O   0  0  0  0  0  0  0  0  0  0  0  0
   -4.0292   -1.8660    1.1821 C   0  0  0  0  0  0  0  0  0  0  0  0
   -4.7651   -1.3906    0.0920 C   0  0  0  0  0  0  0  0  0  0  0  0
   -5.3670   -2.2989   -0.7803 C   0  0  0  0  0  0  0  0  0  0  0  0
   -5.2559   -3.6784   -0.5572 C   0  0  0  0  0  0  0  0  0  0  0  0
   -5.8783   -4.6530   -1.5136 C   0  0  0  0  0  0  0  0  0  0  0  0
   -4.5170   -4.1396    0.5411 C   0  0  0  0  0  0  0  0  0  0  0  0
   -3.9138   -3.2371    1.4188 C   0  0  0  0  0  0  0  0  0  0  0  0
   -1.8500    1.3255    1.3772 C   0  0  0  0  0  0  0  0  0  0  0  0
   -0.7467    1.9683    0.6824 C   0  0  0  0  0  0  0  0  0  0  0  0
   -0.6530    3.4564    0.6731 C   0  0  0  0  0  0  0  0  0  0  0  0
   -1.5201    4.1283    1.2354 O   0  0  0  0  0  0  0  0  0  0  0  0
    0.4344    3.9929    0.0072 N   0  0  0  0  0  0  0  0  0  0  0  0
    0.5998    5.3740   -0.0330 C   0  0  0  0  0  0  0  0  0  0  0  0
    1.6302    5.9521   -0.6704 C   0  0  0  0  0  0  0  0  0  0  0  0
    1.8327    7.4352   -0.7276 C   0  0  0  0  0  0  0  0  0  0  0  0
    2.6001    5.1137   -1.3381 C   0  0  0  0  0  0  0  0  0  0  0  0
    2.4763    3.7813   -1.3247 C   0  0  0  0  0  0  0  0  0  0  0  0
    1.3308    3.1479   -0.6158 C   0  0  0  0  0  0  0  0  0  0  0  0
    1.2374    1.8570   -0.6232 N   0  0  0  0  0  0  0  0  0  0  0  0
    0.1956    1.2443    0.0368 C   0  0  0  0  0  0  0  0  0  0  0  0
    6.7668   -1.3827   -0.5595 H   0  0  0  0  0  0  0  0  0  0  0  0
    7.2644   -2.8126   -1.4969 H   0  0  0  0  0  0  0  0  0  0  0  0
    5.8844   -1.8303   -2.0158 H   0  0  0  0  0  0  0  0  0  0  0  0
    5.0685   -3.9296   -0.8953 H   0  0  0  0  0  0  0  0  0  0  0  0
    6.0652   -3.5491    0.5107 H   0  0  0  0  0  0  0  0  0  0  0  0
    3.7309   -1.4269   -1.4234 H   0  0  0  0  0  0  0  0  0  0  0  0
    2.9530   -2.9730   -0.9889 H   0  0  0  0  0  0  0  0  0  0  0  0
    2.7457   -0.3683    0.6093 H   0  0  0  0  0  0  0  0  0  0  0  0
    1.9916   -1.8770    1.0561 H   0  0  0  0  0  0  0  0  0  0  0  0
    1.4441   -0.3896   -1.5816 H   0  0  0  0  0  0  0  0  0  0  0  0
    0.6662   -1.8593   -1.1106 H   0  0  0  0  0  0  0  0  0  0  0  0
   -0.1923   -2.5985    0.5193 H   0  0  0  0  0  0  0  0  0  0  0  0
   -4.8839   -0.3232   -0.0774 H   0  0  0  0  0  0  0  0  0  0  0  0
   -5.9337   -1.9252   -1.6306 H   0  0  0  0  0  0  0  0  0  0  0  0
   -6.7924   -4.2394   -1.9526 H   0  0  0  0  0  0  0  0  0  0  0  0
   -5.1743   -4.8890   -2.3175 H   0  0  0  0  0  0  0  0  0  0  0  0
   -6.1553   -5.5807   -1.0017 H   0  0  0  0  0  0  0  0  0  0  0  0
   -4.4086   -5.2067    0.7229 H   0  0  0  0  0  0  0  0  0  0  0  0
   -3.3450   -3.6073    2.2689 H   0  0  0  0  0  0  0  0  0  0  0  0
   -2.5796    1.9802    1.8518 H   0  0  0  0  0  0  0  0  0  0  0  0
   -0.1522    5.9680    0.4822 H   0  0  0  0  0  0  0  0  0  0  0  0
    1.8268    7.7847   -1.7656 H   0  0  0  0  0  0  0  0  0  0  0  0
    2.7906    7.7107   -0.2737 H   0  0  0  0  0  0  0  0  0  0  0  0
    1.0444    7.9748   -0.1916 H   0  0  0  0  0  0  0  0  0  0  0  0
    3.4346    5.5824   -1.8513 H   0  0  0  0  0  0  0  0  0  0  0  0
    3.1860    3.1253   -1.8128 H   0  0  0  0  0  0  0  0  0  0  0  0
  1  2  1  0
  2  3  1  0
  3  4  1  0
  4  5  1  0
  5  6  1  0
  6  7  1  0
  7  8  1  0
  8  9  2  3
  8 10  1  0
 10 11  1  0
 11 12  2  0
 11 13  2  0
 11 14  1  0
 14 15  2  0
 15 16  1  0
 16 17  2  0
 17 18  1  0
 17 19  1  0
 19 20  2  0
 10 21  2  0
 21 22  1  0
 22 23  1  0
 23 24  2  0
 23 25  1  0
 25 26  1  0
 26 27  2  0
 27 28  1  0
 27 29  1  0
 29 30  2  0
 30 31  1  0
 31 32  2  0
 32 33  1  0
 33  7  1  0
 20 14  1  0
 33 22  2  0
 31 25  1  0
  1 34  1  0
  1 35  1  0
  1 36  1  0
  2 37  1  0
  2 38  1  0
  4 39  1  0
  4 40  1  0
  5 41  1  0
  5 42  1  0
  6 43  1  0
  6 44  1  0
  9 45  1  0
 15 46  1  0
 16 47  1  0
 18 48  1  0
 18 49  1  0
 18 50  1  0
 19 51  1  0
 20 52  1  0
 21 53  1  0
 26 54  1  0
 28 55  1  0
 28 56  1  0
 28 57  1  0
 29 58  1  0
 30 59  1  0
M  END
$$$$
