
     RDKit          3D

 71 77  0  0  0  0  0  0  0  0999 V2000
    4.0086    2.6709    3.0878 C   0  0  0  0  0  0  0  0  0  0  0  0
    3.4930    1.8308    2.0603 O   0  0  0  0  0  0  0  0  0  0  0  0
    4.4638    0.9003    1.5698 C   0  0  0  0  0  0  0  0  0  0  0  0
    3.9446   -0.5705    1.5251 C   0  0  0  0  0  0  0  0  0  0  0  0
    4.6702   -1.4730    1.9679 O   0  0  0  0  0  0  0  0  0  0  0  0
    2.7095   -0.8690    0.9488 N   0  0  0  0  0  0  0  0  0  0  0  0
    2.2194   -2.2524    1.1284 C   0  0  0  0  0  0  0  0  0  0  0  0
    1.0507   -2.6638    0.1976 C   0  0  0  0  0  0  0  0  0  0  0  0
    0.0456   -1.6160    0.2139 N   0  0  0  0  0  0  0  0  0  0  0  0
    0.6285   -0.3418   -0.3028 C   0  0  2  0  0  0  0  0  0  0  0  0
    1.6790    0.1573    0.6849 C   0  0  0  0  0  0  0  0  0  0  0  0
   -0.6053    0.4506   -0.4995 C   0  0  0  0  0  0  0  0  0  0  0  0
   -1.7077   -0.4144   -0.6011 C   0  0  0  0  0  0  0  0  0  0  0  0
   -2.8173    0.3294   -0.8925 C   0  0  0  0  0  0  0  0  0  0  0  0
   -4.0299   -0.1037   -1.2347 O   0  0  0  0  0  0  0  0  0  0  0  0
   -2.4390    1.6881   -0.8129 N   0  0  0  0  0  0  0  0  0  0  0  0
   -3.3339    2.8065   -0.8433 C   0  0  0  0  0  0  0  0  0  0  0  0
   -2.9263    4.0422   -1.3617 C   0  0  0  0  0  0  0  0  0  0  0  0
   -3.8110    5.1247   -1.3794 C   0  0  0  0  0  0  0  0  0  0  0  0
   -5.1024    4.9857   -0.8727 C   0  0  0  0  0  0  0  0  0  0  0  0
   -5.5121    3.7647   -0.3408 C   0  0  0  0  0  0  0  0  0  0  0  0
   -4.6321    2.6795   -0.3218 C   0  0  0  0  0  0  0  0  0  0  0  0
   -1.0364    1.7400   -0.6634 C   0  0  0  0  0  0  0  0  0  0  0  0
   -0.3547    2.8821   -0.6288 O   0  0  0  0  0  0  0  0  0  0  0  0
   -1.2734   -1.8239   -0.4305 C   0  0  1  0  0  0  0  0  0  0  0  0
   -1.2453   -2.6293   -1.7505 C   0  0  0  0  0  0  0  0  0  0  0  0
   -0.5579   -2.4444   -2.7439 O   0  0  0  0  0  0  0  0  0  0  0  0
   -2.1613   -3.6738   -1.5977 N   0  0  0  0  0  0  0  0  0  0  0  0
   -2.7789   -3.6450   -0.3467 C   0  0  0  0  0  0  0  0  0  0  0  0
   -2.2796   -2.5656    0.3998 C   0  0  0  0  0  0  0  0  0  0  0  0
   -2.7164   -2.3353    1.6934 C   0  0  0  0  0  0  0  0  0  0  0  0
   -3.6757   -3.1987    2.2226 C   0  0  0  0  0  0  0  0  0  0  0  0
   -4.1768   -4.2750    1.4627 C   0  0  0  0  0  0  0  0  0  0  0  0
   -5.3540   -5.2939    2.2211 Cl  0  0  0  0  0  0  0  0  0  0  0  0
   -3.7373   -4.5217    0.1479 C   0  0  0  0  0  0  0  0  0  0  0  0
   -4.2610   -5.6764   -0.6506 C   0  0  0  0  0  0  0  0  0  0  0  0
    5.0459    1.3318    0.2248 C   0  0  0  0  0  0  0  0  0  0  0  0
    6.1383    0.6251   -0.3110 C   0  0  0  0  0  0  0  0  0  0  0  0
    6.7065    0.9993   -1.5303 C   0  0  0  0  0  0  0  0  0  0  0  0
    6.1939    2.0880   -2.2335 C   0  0  0  0  0  0  0  0  0  0  0  0
    5.1156    2.8034   -1.7165 C   0  0  0  0  0  0  0  0  0  0  0  0
    4.5473    2.4301   -0.4956 C   0  0  0  0  0  0  0  0  0  0  0  0
    4.2298    2.0806    3.9821 H   0  0  0  0  0  0  0  0  0  0  0  0
    3.2438    3.4126    3.3384 H   0  0  0  0  0  0  0  0  0  0  0  0
    4.9052    3.1987    2.7447 H   0  0  0  0  0  0  0  0  0  0  0  0
    5.3052    0.8766    2.2793 H   0  0  0  0  0  0  0  0  0  0  0  0
    1.8972   -2.3312    2.1747 H   0  0  0  0  0  0  0  0  0  0  0  0
    3.0493   -2.9545    0.9894 H   0  0  0  0  0  0  0  0  0  0  0  0
    1.4355   -2.8323   -0.8152 H   0  0  0  0  0  0  0  0  0  0  0  0
    0.6351   -3.6116    0.5569 H   0  0  0  0  0  0  0  0  0  0  0  0
    1.0946   -0.5096   -1.2847 H   0  0  0  0  0  0  0  0  0  0  0  0
    1.2295    0.4259    1.6501 H   0  0  0  0  0  0  0  0  0  0  0  0
    2.1428    1.0531    0.2691 H   0  0  0  0  0  0  0  0  0  0  0  0
   -4.4822    0.6055   -1.7267 H   0  0  0  0  0  0  0  0  0  0  0  0
   -1.9364    4.1821   -1.7878 H   0  0  0  0  0  0  0  0  0  0  0  0
   -3.4882    6.0789   -1.7893 H   0  0  0  0  0  0  0  0  0  0  0  0
   -5.7844    5.8321   -0.8825 H   0  0  0  0  0  0  0  0  0  0  0  0
   -6.5111    3.6612    0.0773 H   0  0  0  0  0  0  0  0  0  0  0  0
   -4.9657    1.7599    0.1567 H   0  0  0  0  0  0  0  0  0  0  0  0
    0.5812    2.6721   -0.4701 H   0  0  0  0  0  0  0  0  0  0  0  0
   -2.3364   -4.3416   -2.3325 H   0  0  0  0  0  0  0  0  0  0  0  0
   -2.3282   -1.5033    2.2738 H   0  0  0  0  0  0  0  0  0  0  0  0
   -4.0388   -3.0350    3.2344 H   0  0  0  0  0  0  0  0  0  0  0  0
   -5.3542   -5.6410   -0.7052 H   0  0  0  0  0  0  0  0  0  0  0  0
   -3.8968   -5.6720   -1.6815 H   0  0  0  0  0  0  0  0  0  0  0  0
   -3.9470   -6.6210   -0.1949 H   0  0  0  0  0  0  0  0  0  0  0  0
    6.5582   -0.2268    0.2250 H   0  0  0  0  0  0  0  0  0  0  0  0
    7.5535    0.4423   -1.9269 H   0  0  0  0  0  0  0  0  0  0  0  0
    6.6360    2.3823   -3.1817 H   0  0  0  0  0  0  0  0  0  0  0  0
    4.7213    3.6587   -2.2591 H   0  0  0  0  0  0  0  0  0  0  0  0
    3.7167    3.0143   -0.1087 H   0  0  0  0  0  0  0  0  0  0  0  0
  1  2  1  0
  2  3  1  0
  3  4  1  0
  4  5  2  0
  4  6  1  0
  6  7  1  0
  7  8  1  0
  8  9  1  0
  9 10  1  0
 10 11  1  0
 10 12  1  0
 12 13  1  0
 13 14  2  0
 14 15  1  0
 14 16  1  0
 16 17  1  0
 17 18  2  0
 18 19  1  0
 19 20  2  0
 20 21  1  0
 21 22  2  0
 16 23  1  0
 23 24  1  0
 13 25  1  0
 25 26  1  0
 26 27  2  0
 26 28  1  0
 28 29  1  0
 29 30  2  0
 30 31  1  0
 31 32  2  0
 32 33  1  0
 33 34  1  0
 33 35  2  0
 35 36  1  0
  3 37  1  0
 37 38  2  0
 38 39  1  0
 39 40  2  0
 40 41  1  0
 41 42  2  0
 11  6  1  0
 23 12  2  0
 30 25  1  0
 42 37  1  0
 25  9  1  1
 35 29  1  0
 22 17  1  0
  1 43  1  0
  1 44  1  0
  1 45  1  0
  3 46  1  0
  7 47  1  0
  7 48  1  0
  8 49  1  0
  8 50  1  0
 10 51  1  6
 11 52  1  0
 11 53  1  0
 15 54  1  0
 18 55  1  0
 19 56  1  0
 20 57  1  0
 21 58  1  0
 22 59  1  0
 24 60  1  0
 28 61  1  0
 31 62  1  0
 32 63  1  0
 36 64  1  0
 36 65  1  0
 36 66  1  0
 38 67  1  0
 39 68  1  0
 40 69  1  0
 41 70  1  0
 42 71  1  0
M  END
$$$$
