
     RDKit          3D

 64 67  0  0  0  0  0  0  0  0999 V2000
    6.3357   -1.5812   -6.8804 C   0  0  0  0  0  0  0  0  0  0  0  0
    5.1718   -0.8881   -6.3039 C   0  0  0  0  0  0  0  0  0  0  0  0
    4.4919   -0.9794   -5.1151 C   0  0  0  0  0  0  0  0  0  0  0  0
    3.4743   -0.0060   -5.2130 C   0  0  0  0  0  0  0  0  0  0  0  0
    2.5037    0.3441   -4.3017 N   0  0  0  0  0  0  0  0  0  0  0  0
    2.3417   -0.2178   -3.0562 C   0  0  0  0  0  0  0  0  0  0  0  0
    3.0084   -1.1347   -2.5898 O   0  0  0  0  0  0  0  0  0  0  0  0
    1.2043    0.4287   -2.2912 C   0  0  0  0  0  0  0  0  0  0  0  0
    1.1037   -0.1020   -0.8631 C   0  0  0  0  0  0  0  0  0  0  0  0
    0.0439    0.6551   -0.0751 C   0  0  0  0  0  0  0  0  0  0  0  0
   -0.8150    1.3286   -0.6513 O   0  0  0  0  0  0  0  0  0  0  0  0
    0.1107    0.5735    1.3180 N   0  0  0  0  0  0  0  0  0  0  0  0
    0.6685   -0.5710    1.9548 C   0  0  0  0  0  0  0  0  0  0  0  0
    0.1751   -1.8518    1.6989 C   0  0  0  0  0  0  0  0  0  0  0  0
    0.7643   -2.9513    2.3193 C   0  0  0  0  0  0  0  0  0  0  0  0
    1.8333   -2.7313    3.1732 C   0  0  0  0  0  0  0  0  0  0  0  0
    2.3393   -1.5084    3.4433 N   0  0  0  0  0  0  0  0  0  0  0  0
    1.7426   -0.4557    2.8341 C   0  0  0  0  0  0  0  0  0  0  0  0
   -0.8819    1.3701    2.0853 C   0  0  0  0  0  0  0  0  0  0  0  0
   -2.2446    0.6183    2.1348 C   0  0  0  0  0  0  0  0  0  0  0  0
   -2.5869   -0.1610    3.0214 O   0  0  0  0  0  0  0  0  0  0  0  0
   -3.0326    0.8354    1.0094 N   0  0  0  0  0  0  0  0  0  0  0  0
   -4.2483    0.0843    0.7894 C   0  0  0  0  0  0  0  0  0  0  0  0
   -5.1080    0.6779   -0.3246 C   0  0  0  0  0  0  0  0  0  0  0  0
   -5.9309   -0.4894   -0.8685 C   0  0  0  0  0  0  0  0  0  0  0  0
   -5.3292   -1.7600   -0.2702 C   0  0  0  0  0  0  0  0  0  0  0  0
   -3.9850   -1.3383    0.3027 C   0  0  0  0  0  0  0  0  0  0  0  0
   -0.3589    1.9274    3.4072 C   0  0  0  0  0  0  0  0  0  0  0  0
   -0.4809    1.2548    4.6327 C   0  0  0  0  0  0  0  0  0  0  0  0
    0.0488    1.7992    5.8055 C   0  0  0  0  0  0  0  0  0  0  0  0
    0.7122    3.0223    5.7740 C   0  0  0  0  0  0  0  0  0  0  0  0
    0.8536    3.7016    4.5679 C   0  0  0  0  0  0  0  0  0  0  0  0
    0.3279    3.1574    3.3946 C   0  0  0  0  0  0  0  0  0  0  0  0
    3.5325    0.6310   -6.3882 N   0  0  0  0  0  0  0  0  0  0  0  0
    4.6001    0.0772   -7.0703 O   0  0  0  0  0  0  0  0  0  0  0  0
    7.1895   -0.9005   -6.9476 H   0  0  0  0  0  0  0  0  0  0  0  0
    6.6272   -2.4368   -6.2637 H   0  0  0  0  0  0  0  0  0  0  0  0
    6.1087   -1.9487   -7.8862 H   0  0  0  0  0  0  0  0  0  0  0  0
    4.7069   -1.6499   -4.2963 H   0  0  0  0  0  0  0  0  0  0  0  0
    1.8972    1.0884   -4.6182 H   0  0  0  0  0  0  0  0  0  0  0  0
    0.2709    0.2360   -2.8347 H   0  0  0  0  0  0  0  0  0  0  0  0
    1.3697    1.5138   -2.2742 H   0  0  0  0  0  0  0  0  0  0  0  0
    0.8405   -1.1643   -0.8908 H   0  0  0  0  0  0  0  0  0  0  0  0
    2.0725    0.0079   -0.3619 H   0  0  0  0  0  0  0  0  0  0  0  0
   -0.6758   -2.0033    1.0412 H   0  0  0  0  0  0  0  0  0  0  0  0
    0.3955   -3.9566    2.1453 H   0  0  0  0  0  0  0  0  0  0  0  0
    2.3248   -3.5580    3.6797 H   0  0  0  0  0  0  0  0  0  0  0  0
    2.1817    0.5097    3.0691 H   0  0  0  0  0  0  0  0  0  0  0  0
   -1.0967    2.2698    1.4878 H   0  0  0  0  0  0  0  0  0  0  0  0
   -2.5477    1.2019    0.1877 H   0  0  0  0  0  0  0  0  0  0  0  0
   -4.8203    0.0561    1.7270 H   0  0  0  0  0  0  0  0  0  0  0  0
   -4.4836    1.0878   -1.1296 H   0  0  0  0  0  0  0  0  0  0  0  0
   -5.7413    1.4941    0.0394 H   0  0  0  0  0  0  0  0  0  0  0  0
   -6.9861   -0.3964   -0.5929 H   0  0  0  0  0  0  0  0  0  0  0  0
   -5.8801   -0.5092   -1.9619 H   0  0  0  0  0  0  0  0  0  0  0  0
   -5.2285   -2.5581   -1.0133 H   0  0  0  0  0  0  0  0  0  0  0  0
   -5.9779   -2.1324    0.5328 H   0  0  0  0  0  0  0  0  0  0  0  0
   -3.2159   -1.3507   -0.4811 H   0  0  0  0  0  0  0  0  0  0  0  0
   -3.6515   -2.0034    1.1066 H   0  0  0  0  0  0  0  0  0  0  0  0
   -0.9721    0.2857    4.6973 H   0  0  0  0  0  0  0  0  0  0  0  0
   -0.0526    1.2591    6.7439 H   0  0  0  0  0  0  0  0  0  0  0  0
    1.1233    3.4397    6.6890 H   0  0  0  0  0  0  0  0  0  0  0  0
    1.3758    4.6546    4.5392 H   0  0  0  0  0  0  0  0  0  0  0  0
    0.4600    3.7045    2.4626 H   0  0  0  0  0  0  0  0  0  0  0  0
  1  2  1  0
  2  3  2  0
  3  4  1  0
  4  5  1  0
  5  6  1  0
  6  7  2  0
  6  8  1  0
  8  9  1  0
  9 10  1  0
 10 11  2  0
 10 12  1  0
 12 13  1  0
 13 14  2  0
 14 15  1  0
 15 16  2  0
 16 17  1  0
 17 18  2  0
 12 19  1  0
 19 20  1  0
 20 21  2  0
 20 22  1  0
 22 23  1  0
 23 24  1  0
 24 25  1  0
 25 26  1  0
 26 27  1  0
 19 28  1  0
 28 29  2  0
 29 30  1  0
 30 31  2  0
 31 32  1  0
 32 33  2  0
  4 34  2  0
 34 35  1  0
 35  2  1  0
 18 13  1  0
 27 23  1  0
 33 28  1  0
  1 36  1  0
  1 37  1  0
  1 38  1  0
  3 39  1  0
  5 40  1  0
  8 41  1  0
  8 42  1  0
  9 43  1  0
  9 44  1  0
 14 45  1  0
 15 46  1  0
 16 47  1  0
 18 48  1  0
 19 49  1  0
 22 50  1  0
 23 51  1  0
 24 52  1  0
 24 53  1  0
 25 54  1  0
 25 55  1  0
 26 56  1  0
 26 57  1  0
 27 58  1  0
 27 59  1  0
 29 60  1  0
 30 61  1  0
 31 62  1  0
 32 63  1  0
 33 64  1  0
M  END
$$$$
