
     RDKit          3D

 57 62  0  0  0  0  0  0  0  0999 V2000
    6.9499    2.3981    0.0048 C   0  0  0  0  0  0  0  0  0  0  0  0
    6.2303    1.1002    0.1379 C   0  0  0  0  0  0  0  0  0  0  0  0
    6.5968   -0.0140    0.8646 C   0  0  0  0  0  0  0  0  0  0  0  0
    5.6535   -1.0749    0.7377 C   0  0  0  0  0  0  0  0  0  0  0  0
    4.5772   -0.7222   -0.0502 C   0  0  0  0  0  0  0  0  0  0  0  0
    3.4498   -1.5491   -0.4339 C   0  0  0  0  0  0  0  0  0  0  0  0
    3.6066   -2.5658   -1.1116 O   0  0  0  0  0  0  0  0  0  0  0  0
    2.1729   -1.1730    0.0006 N   0  0  0  0  0  0  0  0  0  0  0  0
    1.0446   -1.9575   -0.4748 C   0  0  0  0  0  0  0  0  0  0  0  0
   -0.2981   -1.4477    0.0498 C   0  0  0  0  0  0  0  0  0  0  0  0
   -0.4340    0.0901   -0.1048 C   0  0  0  0  0  0  0  0  0  0  0  0
    0.8164    0.7925    0.5289 C   0  0  0  0  0  0  0  0  0  0  0  0
    1.8824   -0.1806    1.0257 C   0  0  0  0  0  0  0  0  0  0  0  0
   -0.4377    0.3131   -1.5405 O   0  0  0  0  0  0  0  0  0  0  0  0
   -0.7812    1.5695   -1.9543 C   0  0  0  0  0  0  0  0  0  0  0  0
   -0.4245    1.9056   -3.2595 C   0  0  0  0  0  0  0  0  0  0  0  0
   -0.7153    3.1782   -3.7570 C   0  0  0  0  0  0  0  0  0  0  0  0
   -1.3667    4.1094   -2.9475 C   0  0  0  0  0  0  0  0  0  0  0  0
   -1.7202    5.6749   -3.5649 Cl  0  0  0  0  0  0  0  0  0  0  0  0
   -1.7395    3.7775   -1.6473 C   0  0  0  0  0  0  0  0  0  0  0  0
   -1.4511    2.4989   -1.1600 C   0  0  0  0  0  0  0  0  0  0  0  0
   -1.8768    2.1015    0.1950 C   0  0  0  0  0  0  0  0  0  0  0  0
   -2.3312    2.9440    0.9616 O   0  0  0  0  0  0  0  0  0  0  0  0
   -1.7634    0.6135    0.5097 C   0  0  0  0  0  0  0  0  0  0  0  0
   -3.0428   -0.0592    0.0240 C   0  0  0  0  0  0  0  0  0  0  0  0
   -3.3323   -0.9124    1.2094 C   0  0  0  0  0  0  0  0  0  0  0  0
   -4.3654   -1.9660    1.1853 C   0  0  0  0  0  0  0  0  0  0  0  0
   -4.5469   -2.7933    2.2954 C   0  0  0  0  0  0  0  0  0  0  0  0
   -5.5236   -3.7861    2.2605 C   0  0  0  0  0  0  0  0  0  0  0  0
   -6.2867   -3.9174    1.1119 C   0  0  0  0  0  0  0  0  0  0  0  0
   -6.1383   -3.1344    0.0207 N   0  0  0  0  0  0  0  0  0  0  0  0
   -5.1845   -2.1738    0.0834 C   0  0  0  0  0  0  0  0  0  0  0  0
   -2.6123   -0.6552    2.2531 N   0  0  0  0  0  0  0  0  0  0  0  0
   -1.7585    0.4227    1.9293 O   0  0  0  0  0  0  0  0  0  0  0  0
    4.7582    0.8508   -0.7010 S   0  0  0  0  0  0  0  0  0  0  0  0
    6.3106    3.2310    0.3155 H   0  0  0  0  0  0  0  0  0  0  0  0
    7.2624    2.5636   -1.0313 H   0  0  0  0  0  0  0  0  0  0  0  0
    7.8471    2.4137    0.6326 H   0  0  0  0  0  0  0  0  0  0  0  0
    7.5066   -0.0738    1.4501 H   0  0  0  0  0  0  0  0  0  0  0  0
    5.7534   -2.0478    1.2039 H   0  0  0  0  0  0  0  0  0  0  0  0
    1.1906   -2.9992   -0.1649 H   0  0  0  0  0  0  0  0  0  0  0  0
    1.0619   -1.9419   -1.5714 H   0  0  0  0  0  0  0  0  0  0  0  0
   -0.3964   -1.7362    1.1029 H   0  0  0  0  0  0  0  0  0  0  0  0
   -1.0858   -1.9721   -0.5032 H   0  0  0  0  0  0  0  0  0  0  0  0
    0.5305    1.4239    1.3782 H   0  0  0  0  0  0  0  0  0  0  0  0
    1.2861    1.4586   -0.2058 H   0  0  0  0  0  0  0  0  0  0  0  0
    1.5322   -0.7180    1.9158 H   0  0  0  0  0  0  0  0  0  0  0  0
    2.7714    0.3678    1.3424 H   0  0  0  0  0  0  0  0  0  0  0  0
    0.0940    1.1838   -3.8872 H   0  0  0  0  0  0  0  0  0  0  0  0
   -0.4271    3.4379   -4.7731 H   0  0  0  0  0  0  0  0  0  0  0  0
   -2.2565    4.5016   -1.0214 H   0  0  0  0  0  0  0  0  0  0  0  0
   -2.9137   -0.6396   -0.8921 H   0  0  0  0  0  0  0  0  0  0  0  0
   -3.8738    0.6423   -0.1104 H   0  0  0  0  0  0  0  0  0  0  0  0
   -3.9372   -2.6690    3.1876 H   0  0  0  0  0  0  0  0  0  0  0  0
   -5.6855   -4.4396    3.1109 H   0  0  0  0  0  0  0  0  0  0  0  0
   -7.0612   -4.6762    1.0374 H   0  0  0  0  0  0  0  0  0  0  0  0
   -5.1172   -1.5685   -0.8149 H   0  0  0  0  0  0  0  0  0  0  0  0
  1  2  1  0
  2  3  2  0
  3  4  1  0
  4  5  2  0
  5  6  1  0
  6  7  2  0
  6  8  1  0
  8  9  1  0
  9 10  1  0
 10 11  1  0
 11 12  1  0
 12 13  1  0
 11 14  1  0
 14 15  1  0
 15 16  2  0
 16 17  1  0
 17 18  2  0
 18 19  1  0
 18 20  1  0
 20 21  2  0
 21 22  1  0
 22 23  2  0
 22 24  1  0
 24 25  1  0
 25 26  1  0
 26 27  1  0
 27 28  2  0
 28 29  1  0
 29 30  2  0
 30 31  1  0
 31 32  2  0
 26 33  2  0
 33 34  1  0
  5 35  1  0
 35  2  1  0
 13  8  1  0
 21 15  1  0
 34 24  1  0
 24 11  1  0
 32 27  1  0
  1 36  1  0
  1 37  1  0
  1 38  1  0
  3 39  1  0
  4 40  1  0
  9 41  1  0
  9 42  1  0
 10 43  1  0
 10 44  1  0
 12 45  1  0
 12 46  1  0
 13 47  1  0
 13 48  1  0
 16 49  1  0
 17 50  1  0
 20 51  1  0
 25 52  1  0
 25 53  1  0
 28 54  1  0
 29 55  1  0
 30 56  1  0
 32 57  1  0
M  END
$$$$
