
     RDKit          3D

 67 72  0  0  0  0  0  0  0  0999 V2000
   -4.0667   -4.8599    1.0883 C   0  0  0  0  0  0  0  0  0  0  0  0
   -3.1926   -3.6705    1.3508 C   0  0  0  0  0  0  0  0  0  0  0  0
   -2.9018   -3.2408    2.6592 C   0  0  0  0  0  0  0  0  0  0  0  0
   -3.5301   -4.0754    4.0393 Cl  0  0  0  0  0  0  0  0  0  0  0  0
   -2.0976   -2.1105    2.9040 C   0  0  0  0  0  0  0  0  0  0  0  0
   -1.5631   -1.3708    1.8487 C   0  0  0  0  0  0  0  0  0  0  0  0
   -1.8448   -1.7797    0.5532 C   0  0  0  0  0  0  0  0  0  0  0  0
   -2.6534   -2.9043    0.3232 C   0  0  0  0  0  0  0  0  0  0  0  0
   -2.8212   -3.0886   -1.0473 N   0  0  0  0  0  0  0  0  0  0  0  0
   -2.1673   -2.1045   -1.7923 C   0  0  0  0  0  0  0  0  0  0  0  0
   -2.1894   -2.0395   -3.0130 O   0  0  0  0  0  0  0  0  0  0  0  0
   -1.4380   -1.1874   -0.7760 C   0  0  1  0  0  0  0  0  0  0  0  0
   -1.8965    0.2172   -0.7893 C   0  0  0  0  0  0  0  0  0  0  0  0
   -0.8228    1.0922   -0.9472 C   0  0  0  0  0  0  0  0  0  0  0  0
   -1.2915    2.3763   -0.9608 C   0  0  0  0  0  0  0  0  0  0  0  0
   -0.6036    3.4938   -1.1848 O   0  0  0  0  0  0  0  0  0  0  0  0
   -2.6860    2.3054   -0.7837 N   0  0  0  0  0  0  0  0  0  0  0  0
   -3.5803    3.4154   -0.7405 C   0  0  0  0  0  0  0  0  0  0  0  0
   -4.8357    3.3286   -1.3621 C   0  0  0  0  0  0  0  0  0  0  0  0
   -5.7082    4.4178   -1.3208 C   0  0  0  0  0  0  0  0  0  0  0  0
   -5.3261    5.5810   -0.6618 C   0  0  0  0  0  0  0  0  0  0  0  0
   -6.1658    6.6231   -0.6230 F   0  0  0  0  0  0  0  0  0  0  0  0
   -4.0851    5.6792   -0.0424 C   0  0  0  0  0  0  0  0  0  0  0  0
   -3.2050    4.5958   -0.0810 C   0  0  0  0  0  0  0  0  0  0  0  0
   -3.0466    0.9501   -0.6584 C   0  0  0  0  0  0  0  0  0  0  0  0
   -4.2738    0.5071   -0.3896 O   0  0  0  0  0  0  0  0  0  0  0  0
    0.4536    0.3726   -1.1269 C   0  0  1  0  0  0  0  0  0  0  0  0
    1.5348    0.7096   -0.0856 C   0  0  0  0  0  0  0  0  0  0  0  0
    2.6775   -0.2066   -0.1636 N   0  0  0  0  0  0  0  0  0  0  0  0
    3.9368    0.2418    0.1749 C   0  0  0  0  0  0  0  0  0  0  0  0
    4.1608    1.3615    0.6145 O   0  0  0  0  0  0  0  0  0  0  0  0
    4.8852   -0.7053   -0.0416 O   0  0  0  0  0  0  0  0  0  0  0  0
    6.2843   -0.4421    0.2354 C   0  0  0  0  0  0  0  0  0  0  0  0
    7.0050   -1.7464   -0.1393 C   0  0  0  0  0  0  0  0  0  0  0  0
    6.5162   -0.1664    1.7251 C   0  0  0  0  0  0  0  0  0  0  0  0
    6.8255    0.6859   -0.6499 C   0  0  0  0  0  0  0  0  0  0  0  0
    2.4157   -1.5616   -0.6603 C   0  0  0  0  0  0  0  0  0  0  0  0
    0.9476   -1.9801   -0.4504 C   0  0  0  0  0  0  0  0  0  0  0  0
    0.0166   -1.0659   -1.1035 N   0  0  0  0  0  0  0  0  0  0  0  0
   -4.0591   -5.1590    0.0363 H   0  0  0  0  0  0  0  0  0  0  0  0
   -5.1021   -4.6344    1.3640 H   0  0  0  0  0  0  0  0  0  0  0  0
   -3.7193   -5.7285    1.6577 H   0  0  0  0  0  0  0  0  0  0  0  0
   -1.8928   -1.8005    3.9267 H   0  0  0  0  0  0  0  0  0  0  0  0
   -0.9526   -0.4940    2.0414 H   0  0  0  0  0  0  0  0  0  0  0  0
   -3.3826   -3.7979   -1.4918 H   0  0  0  0  0  0  0  0  0  0  0  0
   -1.2020    4.1699   -1.5496 H   0  0  0  0  0  0  0  0  0  0  0  0
   -5.1324    2.4435   -1.9233 H   0  0  0  0  0  0  0  0  0  0  0  0
   -6.6776    4.3715   -1.8083 H   0  0  0  0  0  0  0  0  0  0  0  0
   -3.8162    6.5961    0.4740 H   0  0  0  0  0  0  0  0  0  0  0  0
   -2.2553    4.6762    0.4458 H   0  0  0  0  0  0  0  0  0  0  0  0
   -4.8004    1.2280   -0.0023 H   0  0  0  0  0  0  0  0  0  0  0  0
    0.8505    0.5721   -2.1306 H   0  0  0  0  0  0  0  0  0  0  0  0
    1.8741    1.7447   -0.2093 H   0  0  0  0  0  0  0  0  0  0  0  0
    1.1354    0.6269    0.9335 H   0  0  0  0  0  0  0  0  0  0  0  0
    8.0856   -1.6762    0.0240 H   0  0  0  0  0  0  0  0  0  0  0  0
    6.8301   -2.0004   -1.1915 H   0  0  0  0  0  0  0  0  0  0  0  0
    6.6194   -2.5869    0.4496 H   0  0  0  0  0  0  0  0  0  0  0  0
    6.0400   -0.9361    2.3424 H   0  0  0  0  0  0  0  0  0  0  0  0
    7.5848   -0.1409    1.9635 H   0  0  0  0  0  0  0  0  0  0  0  0
    6.0897    0.7924    2.0350 H   0  0  0  0  0  0  0  0  0  0  0  0
    6.3977    1.6569   -0.3834 H   0  0  0  0  0  0  0  0  0  0  0  0
    7.9140    0.7731   -0.5627 H   0  0  0  0  0  0  0  0  0  0  0  0
    6.5727    0.5096   -1.7016 H   0  0  0  0  0  0  0  0  0  0  0  0
    2.6695   -1.5712   -1.7268 H   0  0  0  0  0  0  0  0  0  0  0  0
    3.0763   -2.2741   -0.1553 H   0  0  0  0  0  0  0  0  0  0  0  0
    0.7841   -2.0158    0.6313 H   0  0  0  0  0  0  0  0  0  0  0  0
    0.8017   -2.9933   -0.8407 H   0  0  0  0  0  0  0  0  0  0  0  0
  1  2  1  0
  2  3  2  0
  3  4  1  0
  3  5  1  0
  5  6  2  0
  6  7  1  0
  7  8  2  0
  8  9  1  0
  9 10  1  0
 10 11  2  0
 10 12  1  0
 12 13  1  0
 13 14  1  0
 14 15  2  0
 15 16  1  0
 15 17  1  0
 17 18  1  0
 18 19  2  0
 19 20  1  0
 20 21  2  0
 21 22  1  0
 21 23  1  0
 23 24  2  0
 17 25  1  0
 25 26  1  0
 14 27  1  0
 27 28  1  0
 28 29  1  0
 29 30  1  0
 30 31  2  0
 30 32  1  0
 32 33  1  0
 33 34  1  0
 33 35  1  0
 33 36  1  0
 29 37  1  0
 37 38  1  0
 38 39  1  0
  8  2  1  0
 12 39  1  6
 12  7  1  0
 25 13  2  0
 39 27  1  0
 24 18  1  0
  1 40  1  0
  1 41  1  0
  1 42  1  0
  5 43  1  0
  6 44  1  0
  9 45  1  0
 16 46  1  0
 19 47  1  0
 20 48  1  0
 23 49  1  0
 24 50  1  0
 26 51  1  0
 27 52  1  6
 28 53  1  0
 28 54  1  0
 34 55  1  0
 34 56  1  0
 34 57  1  0
 35 58  1  0
 35 59  1  0
 35 60  1  0
 36 61  1  0
 36 62  1  0
 36 63  1  0
 37 64  1  0
 37 65  1  0
 38 66  1  0
 38 67  1  0
M  END
$$$$
