
     RDKit          3D

 63 67  0  0  0  0  0  0  0  0999 V2000
   -4.8653   -0.3095    2.4567 C   0  0  0  0  0  0  0  0  0  0  0  0
   -3.9020   -1.1113    1.7675 O   0  0  0  0  0  0  0  0  0  0  0  0
   -4.4188   -2.2345    1.2109 C   0  0  0  0  0  0  0  0  0  0  0  0
   -5.6040   -2.5319    1.2068 O   0  0  0  0  0  0  0  0  0  0  0  0
   -3.3578   -3.1075    0.6261 C   0  0  0  0  0  0  0  0  0  0  0  0
   -3.7820   -4.4014    0.2599 C   0  0  0  0  0  0  0  0  0  0  0  0
   -2.8900   -5.3264   -0.2802 C   0  0  0  0  0  0  0  0  0  0  0  0
   -1.5624   -4.9677   -0.4708 C   0  0  0  0  0  0  0  0  0  0  0  0
   -1.1269   -3.6881   -0.1190 C   0  0  0  0  0  0  0  0  0  0  0  0
   -2.0035   -2.7480    0.4490 C   0  0  0  0  0  0  0  0  0  0  0  0
   -1.5396   -1.4349    0.7245 N   0  0  0  0  0  0  0  0  0  0  0  0
   -0.2823   -1.0211    1.1478 C   0  0  0  0  0  0  0  0  0  0  0  0
    0.7281   -1.9742    2.1016 S   0  0  0  0  0  0  0  0  0  0  0  0
    0.0201    0.2983    0.7449 N   0  0  0  0  0  0  0  0  0  0  0  0
   -0.7421    0.9786   -0.3157 C   0  0  0  0  0  0  0  0  0  0  0  0
   -1.9976    1.6831    0.1573 C   0  0  0  0  0  0  0  0  0  0  0  0
   -3.1391    1.6893   -0.6827 C   0  0  0  0  0  0  0  0  0  0  0  0
   -4.3050    2.3711   -0.3197 C   0  0  0  0  0  0  0  0  0  0  0  0
   -4.3022    3.0494    0.8777 C   0  0  0  0  0  0  0  0  0  0  0  0
   -3.2016    3.0603    1.6981 C   0  0  0  0  0  0  0  0  0  0  0  0
   -2.0408    2.3913    1.3701 C   0  0  0  0  0  0  0  0  0  0  0  0
   -3.4074    3.7841    2.8309 O   0  0  0  0  0  0  0  0  0  0  0  0
   -4.7551    4.2514    2.6140 C   0  0  0  0  0  0  0  0  0  0  0  0
   -5.3400    3.7622    1.3898 O   0  0  0  0  0  0  0  0  0  0  0  0
    1.2210    1.0195    1.2180 C   0  0  0  0  0  0  0  0  0  0  0  0
    2.4309    0.8256    0.3388 C   0  0  0  0  0  0  0  0  0  0  0  0
    2.5640   -0.0249   -0.6958 C   0  0  0  0  0  0  0  0  0  0  0  0
    3.8111   -0.1066   -1.4571 C   0  0  0  0  0  0  0  0  0  0  0  0
    3.9640   -0.9969   -2.5195 C   0  0  0  0  0  0  0  0  0  0  0  0
    5.1723   -1.0417   -3.2207 C   0  0  0  0  0  0  0  0  0  0  0  0
    6.2340   -0.1993   -2.8755 C   0  0  0  0  0  0  0  0  0  0  0  0
    7.3527   -0.3467   -3.6491 O   0  0  0  0  0  0  0  0  0  0  0  0
    8.4258    0.5543   -3.4082 C   0  0  0  0  0  0  0  0  0  0  0  0
    6.0857    0.6886   -1.8096 C   0  0  0  0  0  0  0  0  0  0  0  0
    4.8780    0.7272   -1.1086 C   0  0  0  0  0  0  0  0  0  0  0  0
    4.7246    1.6121   -0.0361 N   0  0  0  0  0  0  0  0  0  0  0  0
    3.5820    1.7124    0.7098 C   0  0  0  0  0  0  0  0  0  0  0  0
    3.5044    2.5099    1.6404 O   0  0  0  0  0  0  0  0  0  0  0  0
   -4.3348    0.5051    2.9542 H   0  0  0  0  0  0  0  0  0  0  0  0
   -5.3797   -0.8961    3.2239 H   0  0  0  0  0  0  0  0  0  0  0  0
   -5.5828    0.1141    1.7490 H   0  0  0  0  0  0  0  0  0  0  0  0
   -4.8209   -4.6999    0.4014 H   0  0  0  0  0  0  0  0  0  0  0  0
   -3.2333   -6.3210   -0.5531 H   0  0  0  0  0  0  0  0  0  0  0  0
   -0.8616   -5.6797   -0.9007 H   0  0  0  0  0  0  0  0  0  0  0  0
   -0.0902   -3.4329   -0.3241 H   0  0  0  0  0  0  0  0  0  0  0  0
   -2.2717   -0.7772    0.9898 H   0  0  0  0  0  0  0  0  0  0  0  0
   -0.9995    0.2288   -1.0736 H   0  0  0  0  0  0  0  0  0  0  0  0
   -0.0991    1.7128   -0.8150 H   0  0  0  0  0  0  0  0  0  0  0  0
   -3.1204    1.1601   -1.6353 H   0  0  0  0  0  0  0  0  0  0  0  0
   -5.1803    2.3729   -0.9596 H   0  0  0  0  0  0  0  0  0  0  0  0
   -1.1955    2.4274    2.0458 H   0  0  0  0  0  0  0  0  0  0  0  0
   -4.7475    5.3468    2.5865 H   0  0  0  0  0  0  0  0  0  0  0  0
   -5.3785    3.9247    3.4544 H   0  0  0  0  0  0  0  0  0  0  0  0
    1.4532    0.7190    2.2446 H   0  0  0  0  0  0  0  0  0  0  0  0
    0.9647    2.0846    1.2576 H   0  0  0  0  0  0  0  0  0  0  0  0
    1.7587   -0.6875   -0.9911 H   0  0  0  0  0  0  0  0  0  0  0  0
    3.1557   -1.6621   -2.8111 H   0  0  0  0  0  0  0  0  0  0  0  0
    5.2877   -1.7385   -4.0483 H   0  0  0  0  0  0  0  0  0  0  0  0
    8.1127    1.5891   -3.5730 H   0  0  0  0  0  0  0  0  0  0  0  0
    9.2216    0.3275   -4.1248 H   0  0  0  0  0  0  0  0  0  0  0  0
    8.8349    0.4190   -2.4022 H   0  0  0  0  0  0  0  0  0  0  0  0
    6.8896    1.3484   -1.5095 H   0  0  0  0  0  0  0  0  0  0  0  0
    5.4839    2.2186    0.2417 H   0  0  0  0  0  0  0  0  0  0  0  0
  1  2  1  0
  2  3  1  0
  3  4  2  0
  3  5  1  0
  5  6  2  0
  6  7  1  0
  7  8  2  0
  8  9  1  0
  9 10  2  0
 10 11  1  0
 11 12  1  0
 12 13  2  0
 12 14  1  0
 14 15  1  0
 15 16  1  0
 16 17  2  0
 17 18  1  0
 18 19  2  0
 19 20  1  0
 20 21  2  0
 20 22  1  0
 22 23  1  0
 23 24  1  0
 14 25  1  0
 25 26  1  0
 26 27  2  0
 27 28  1  0
 28 29  2  0
 29 30  1  0
 30 31  2  0
 31 32  1  0
 32 33  1  0
 31 34  1  0
 34 35  2  0
 35 36  1  0
 36 37  1  0
 37 38  2  0
 10  5  1  0
 21 16  1  0
 37 26  1  0
 24 19  1  0
 35 28  1  0
  1 39  1  0
  1 40  1  0
  1 41  1  0
  6 42  1  0
  7 43  1  0
  8 44  1  0
  9 45  1  0
 11 46  1  0
 15 47  1  0
 15 48  1  0
 17 49  1  0
 18 50  1  0
 21 51  1  0
 23 52  1  0
 23 53  1  0
 25 54  1  0
 25 55  1  0
 27 56  1  0
 29 57  1  0
 30 58  1  0
 33 59  1  0
 33 60  1  0
 33 61  1  0
 34 62  1  0
 36 63  1  0
M  END
$$$$
