
     RDKit          3D

 32 34  0  0  0  0  0  0  0  0999 V2000
    6.2559    0.7121    1.0964 O   0  0  0  0  0  0  0  0  0  0  0  0
    5.7047   -0.2963    0.6340 N   0  0  0  0  0  4  0  0  0  0  0  0
    6.2793   -1.3700    0.4057 O   0  0  0  0  0  1  0  0  0  0  0  0
    4.2821   -0.2172    0.3413 C   0  0  0  0  0  0  0  0  0  0  0  0
    3.5936   -1.3021   -0.1923 C   0  0  0  0  0  0  0  0  0  0  0  0
    2.2290   -1.1617   -0.4520 C   0  0  0  0  0  0  0  0  0  0  0  0
    1.5778    0.0449   -0.1719 C   0  0  0  0  0  0  0  0  0  0  0  0
    0.2037    0.1673   -0.4545 N   0  0  0  0  0  0  0  0  0  0  0  0
   -0.2675    1.5609   -0.4382 C   0  0  0  0  0  0  0  0  0  0  0  0
   -1.6631    1.6271   -1.0640 C   0  0  0  0  0  0  0  0  0  0  0  0
   -2.6059    0.6258   -0.4463 C   0  0  0  0  0  0  0  0  0  0  0  0
   -3.9912    0.7931   -0.5806 C   0  0  0  0  0  0  0  0  0  0  0  0
   -4.8704   -0.1438   -0.0394 C   0  0  0  0  0  0  0  0  0  0  0  0
   -4.3739   -1.2575    0.6326 C   0  0  0  0  0  0  0  0  0  0  0  0
   -2.9964   -1.4390    0.7599 C   0  0  0  0  0  0  0  0  0  0  0  0
   -2.0977   -0.5085    0.2131 C   0  0  0  0  0  0  0  0  0  0  0  0
   -0.6062   -0.7258    0.3943 C   0  0  0  0  0  0  0  0  0  0  0  0
    2.2613    1.0961    0.3380 N   0  0  0  0  0  0  0  0  0  0  0  0
    3.5882    0.9529    0.5876 C   0  0  0  0  0  0  0  0  0  0  0  0
    4.0906   -2.2417   -0.4187 H   0  0  0  0  0  0  0  0  0  0  0  0
    1.6815   -1.9860   -0.8996 H   0  0  0  0  0  0  0  0  0  0  0  0
    0.3926    2.2098   -1.0284 H   0  0  0  0  0  0  0  0  0  0  0  0
   -0.2967    1.9483    0.5898 H   0  0  0  0  0  0  0  0  0  0  0  0
   -2.0585    2.6426   -0.9448 H   0  0  0  0  0  0  0  0  0  0  0  0
   -1.5966    1.4138   -2.1382 H   0  0  0  0  0  0  0  0  0  0  0  0
   -4.3909    1.6555   -1.1092 H   0  0  0  0  0  0  0  0  0  0  0  0
   -5.9432   -0.0052   -0.1442 H   0  0  0  0  0  0  0  0  0  0  0  0
   -5.0600   -1.9865    1.0560 H   0  0  0  0  0  0  0  0  0  0  0  0
   -2.6255   -2.3145    1.2884 H   0  0  0  0  0  0  0  0  0  0  0  0
   -0.3695   -0.5621    1.4547 H   0  0  0  0  0  0  0  0  0  0  0  0
   -0.3911   -1.7722    0.1456 H   0  0  0  0  0  0  0  0  0  0  0  0
    4.0636    1.8400    0.9985 H   0  0  0  0  0  0  0  0  0  0  0  0
  1  2  2  0
  2  3  1  0
  2  4  1  0
  4  5  2  0
  5  6  1  0
  6  7  2  0
  7  8  1  0
  8  9  1  0
  9 10  1  0
 10 11  1  0
 11 12  2  0
 12 13  1  0
 13 14  2  0
 14 15  1  0
 15 16  2  0
 16 17  1  0
  7 18  1  0
 18 19  2  0
 19  4  1  0
 17  8  1  0
 16 11  1  0
  5 20  1  0
  6 21  1  0
  9 22  1  0
  9 23  1  0
 10 24  1  0
 10 25  1  0
 12 26  1  0
 13 27  1  0
 14 28  1  0
 15 29  1  0
 17 30  1  0
 17 31  1  0
 19 32  1  0
M  CHG  2   2   1   3  -1
M  END
$$$$
