
     RDKit          3D

 59 62  0  0  0  0  0  0  0  0999 V2000
    7.6278    0.8241    0.3243 C   0  0  0  0  0  0  0  0  0  0  0  0
    6.3854    1.5118    0.4081 O   0  0  0  0  0  0  0  0  0  0  0  0
    5.2703    0.7535    0.6374 C   0  0  0  0  0  0  0  0  0  0  0  0
    5.2404   -0.6343    0.7958 C   0  0  0  0  0  0  0  0  0  0  0  0
    4.0265   -1.2935    1.0274 C   0  0  0  0  0  0  0  0  0  0  0  0
    2.8368   -0.5672    1.1023 C   0  0  0  0  0  0  0  0  0  0  0  0
    1.5505   -1.2215    1.3367 C   0  0  0  0  0  0  0  0  0  0  0  0
    0.4064   -0.5128    1.3706 C   0  0  0  0  0  0  0  0  0  0  0  0
   -0.9463   -1.1241    1.6028 C   0  0  0  0  0  0  0  0  0  0  0  0
   -1.5605   -1.5159    0.2978 N   0  0  0  0  0  0  0  0  0  0  0  0
   -1.0831   -2.8453   -0.2017 C   0  0  0  0  0  0  0  0  0  0  0  0
   -0.2509   -2.6759   -1.4764 C   0  0  0  0  0  0  0  0  0  0  0  0
   -1.0609   -2.4153   -2.7354 C   0  0  0  0  0  0  0  0  0  0  0  0
   -0.1125   -2.8954   -3.8052 C   0  0  0  0  0  0  0  0  0  0  0  0
    0.5007   -4.1160   -3.1527 C   0  0  0  0  0  0  0  0  0  0  0  0
    0.5045   -3.8791   -1.7356 O   0  0  0  0  0  0  0  0  0  0  0  0
   -3.2604   -1.3394    0.2454 S   0  0  0  0  0  6  0  0  0  0  0  0
   -3.7273   -1.7952   -1.0466 O   0  0  0  0  0  0  0  0  0  0  0  0
   -3.7866   -1.9019    1.4717 O   0  0  0  0  0  0  0  0  0  0  0  0
   -3.4850    0.4207    0.2784 C   0  0  0  0  0  0  0  0  0  0  0  0
   -4.0595    1.0388    1.3917 C   0  0  0  0  0  0  0  0  0  0  0  0
   -4.2253    2.4275    1.4005 C   0  0  0  0  0  0  0  0  0  0  0  0
   -3.8279    3.1930    0.2945 C   0  0  0  0  0  0  0  0  0  0  0  0
   -3.9729    4.6790    0.2636 C   0  0  0  0  0  0  0  0  0  0  0  0
   -4.4091    5.3948    1.5153 C   0  0  0  0  0  0  0  0  0  0  0  0
   -3.7421    5.2975   -0.7737 O   0  0  0  0  0  0  0  0  0  0  0  0
   -3.2784    2.5546   -0.8276 C   0  0  0  0  0  0  0  0  0  0  0  0
   -3.1069    1.1692   -0.8393 C   0  0  0  0  0  0  0  0  0  0  0  0
    0.4563    0.9770    1.2537 C   0  0  0  0  0  0  0  0  0  0  0  0
   -0.5487    1.6701    1.3763 O   0  0  0  0  0  0  0  0  0  0  0  0
    1.6794    1.5464    1.0206 N   0  0  0  0  0  0  0  0  0  0  0  0
    2.8724    0.8202    0.9409 C   0  0  0  0  0  0  0  0  0  0  0  0
    4.0786    1.4802    0.7111 C   0  0  0  0  0  0  0  0  0  0  0  0
    7.6332    0.1202   -0.5145 H   0  0  0  0  0  0  0  0  0  0  0  0
    7.8635    0.3191    1.2669 H   0  0  0  0  0  0  0  0  0  0  0  0
    8.4095    1.5674    0.1403 H   0  0  0  0  0  0  0  0  0  0  0  0
    6.1429   -1.2349    0.7435 H   0  0  0  0  0  0  0  0  0  0  0  0
    4.0249   -2.3748    1.1438 H   0  0  0  0  0  0  0  0  0  0  0  0
    1.5490   -2.3003    1.4531 H   0  0  0  0  0  0  0  0  0  0  0  0
   -0.8639   -2.0036    2.2541 H   0  0  0  0  0  0  0  0  0  0  0  0
   -1.5797   -0.4228    2.1545 H   0  0  0  0  0  0  0  0  0  0  0  0
   -0.4808   -3.3537    0.5604 H   0  0  0  0  0  0  0  0  0  0  0  0
   -1.9159   -3.5351   -0.3836 H   0  0  0  0  0  0  0  0  0  0  0  0
    0.4854   -1.8739   -1.3461 H   0  0  0  0  0  0  0  0  0  0  0  0
   -1.9683   -3.0303   -2.7556 H   0  0  0  0  0  0  0  0  0  0  0  0
   -1.3476   -1.3665   -2.8504 H   0  0  0  0  0  0  0  0  0  0  0  0
   -0.5998   -3.1200   -4.7574 H   0  0  0  0  0  0  0  0  0  0  0  0
    0.6600   -2.1383   -3.9851 H   0  0  0  0  0  0  0  0  0  0  0  0
    1.5211   -4.3077   -3.4964 H   0  0  0  0  0  0  0  0  0  0  0  0
   -0.1042   -5.0100   -3.3375 H   0  0  0  0  0  0  0  0  0  0  0  0
   -4.3698    0.4541    2.2549 H   0  0  0  0  0  0  0  0  0  0  0  0
   -4.6645    2.8866    2.2813 H   0  0  0  0  0  0  0  0  0  0  0  0
   -4.3436    6.4752    1.3522 H   0  0  0  0  0  0  0  0  0  0  0  0
   -3.7481    5.1433    2.3490 H   0  0  0  0  0  0  0  0  0  0  0  0
   -5.4469    5.1448    1.7502 H   0  0  0  0  0  0  0  0  0  0  0  0
   -2.9715    3.1375   -1.6945 H   0  0  0  0  0  0  0  0  0  0  0  0
   -2.6733    0.6850   -1.7109 H   0  0  0  0  0  0  0  0  0  0  0  0
    1.6897    2.5538    0.9314 H   0  0  0  0  0  0  0  0  0  0  0  0
    4.1068    2.5590    0.5868 H   0  0  0  0  0  0  0  0  0  0  0  0
  1  2  1  0
  2  3  1  0
  3  4  2  0
  4  5  1  0
  5  6  2  0
  6  7  1  0
  7  8  2  0
  8  9  1  0
  9 10  1  0
 10 11  1  0
 11 12  1  0
 12 13  1  0
 13 14  1  0
 14 15  1  0
 15 16  1  0
 10 17  1  0
 17 18  2  0
 17 19  2  0
 17 20  1  0
 20 21  2  0
 21 22  1  0
 22 23  2  0
 23 24  1  0
 24 25  1  0
 24 26  2  0
 23 27  1  0
 27 28  2  0
  8 29  1  0
 29 30  2  0
 29 31  1  0
 31 32  1  0
 32 33  2  0
 33  3  1  0
 32  6  1  0
 16 12  1  0
 28 20  1  0
  1 34  1  0
  1 35  1  0
  1 36  1  0
  4 37  1  0
  5 38  1  0
  7 39  1  0
  9 40  1  0
  9 41  1  0
 11 42  1  0
 11 43  1  0
 12 44  1  0
 13 45  1  0
 13 46  1  0
 14 47  1  0
 14 48  1  0
 15 49  1  0
 15 50  1  0
 21 51  1  0
 22 52  1  0
 25 53  1  0
 25 54  1  0
 25 55  1  0
 27 56  1  0
 28 57  1  0
 31 58  1  0
 33 59  1  0
M  END
$$$$
