
     RDKit          3D

 47 50  0  0  0  0  0  0  0  0999 V2000
   -2.3132   -3.2182    0.5138 C   0  0  0  0  0  0  0  0  0  0  0  0
   -1.5160   -2.0274    0.0633 C   0  0  0  0  0  0  0  0  0  0  0  0
   -0.3038   -2.2250   -0.3755 N   0  0  0  0  0  0  0  0  0  0  0  0
    0.4872   -1.1521   -0.8032 N   0  0  0  0  0  0  0  0  0  0  0  0
    1.8538   -1.4658   -1.1830 C   0  0  0  0  0  0  0  0  0  0  0  0
    2.8180   -1.2324   -0.0176 C   0  0  0  0  0  0  0  0  0  0  0  0
    2.4683   -1.0146    1.1397 O   0  0  0  0  0  0  0  0  0  0  0  0
    4.1479   -1.3147   -0.3829 N   0  0  0  0  0  0  0  0  0  0  0  0
    5.1873   -1.2129    0.6139 C   0  0  0  0  0  0  0  0  0  0  0  0
    6.4965   -1.0582   -0.0881 C   0  0  0  0  0  0  0  0  0  0  0  0
    7.0971    0.1065   -0.5264 C   0  0  0  0  0  0  0  0  0  0  0  0
    8.3490   -0.1345   -1.1621 C   0  0  0  0  0  0  0  0  0  0  0  0
    8.6626   -1.4747   -1.1900 C   0  0  0  0  0  0  0  0  0  0  0  0
    7.4519   -2.4331   -0.4559 S   0  0  0  0  0  0  0  0  0  0  0  0
    0.0878    0.1982   -0.8278 C   0  0  0  0  0  0  0  0  0  0  0  0
    0.8100    1.1093   -1.2292 O   0  0  0  0  0  0  0  0  0  0  0  0
   -1.2726    0.3891   -0.3438 C   0  0  0  0  0  0  0  0  0  0  0  0
   -1.9210    1.5506   -0.2387 N   0  0  0  0  0  0  0  0  0  0  0  0
   -3.1689    1.2231    0.1941 N   0  0  0  0  0  0  0  0  0  0  0  0
   -4.1719    2.2425    0.2143 C   0  0  0  0  0  0  0  0  0  0  0  0
   -5.5404    1.9503    0.2577 C   0  0  0  0  0  0  0  0  0  0  0  0
   -6.4840    2.9839    0.2671 C   0  0  0  0  0  0  0  0  0  0  0  0
   -6.0725    4.3139    0.2205 C   0  0  0  0  0  0  0  0  0  0  0  0
   -4.7160    4.6164    0.1512 C   0  0  0  0  0  0  0  0  0  0  0  0
   -3.7705    3.5882    0.1402 C   0  0  0  0  0  0  0  0  0  0  0  0
   -3.2370   -0.1311    0.5456 C   0  0  0  0  0  0  0  0  0  0  0  0
   -4.3526   -0.7537    1.3038 C   0  0  0  0  0  0  0  0  0  0  0  0
   -2.0492   -0.6868    0.0990 C   0  0  0  0  0  0  0  0  0  0  0  0
   -1.8206   -4.1446    0.2037 H   0  0  0  0  0  0  0  0  0  0  0  0
   -3.3137   -3.1935    0.0743 H   0  0  0  0  0  0  0  0  0  0  0  0
   -2.3883   -3.2149    1.6044 H   0  0  0  0  0  0  0  0  0  0  0  0
    1.9124   -2.5163   -1.4878 H   0  0  0  0  0  0  0  0  0  0  0  0
    2.1538   -0.8354   -2.0273 H   0  0  0  0  0  0  0  0  0  0  0  0
    4.3962   -1.6790   -1.2934 H   0  0  0  0  0  0  0  0  0  0  0  0
    4.9859   -0.3501    1.2591 H   0  0  0  0  0  0  0  0  0  0  0  0
    5.1547   -2.1121    1.2391 H   0  0  0  0  0  0  0  0  0  0  0  0
    6.6552    1.0881   -0.3965 H   0  0  0  0  0  0  0  0  0  0  0  0
    8.9869    0.6366   -1.5768 H   0  0  0  0  0  0  0  0  0  0  0  0
    9.5459   -1.9395   -1.6065 H   0  0  0  0  0  0  0  0  0  0  0  0
   -5.9193    0.9361    0.2366 H   0  0  0  0  0  0  0  0  0  0  0  0
   -7.5453    2.7489    0.2966 H   0  0  0  0  0  0  0  0  0  0  0  0
   -6.8084    5.1138    0.2248 H   0  0  0  0  0  0  0  0  0  0  0  0
   -4.3884    5.6519    0.1025 H   0  0  0  0  0  0  0  0  0  0  0  0
   -2.7155    3.8549    0.0848 H   0  0  0  0  0  0  0  0  0  0  0  0
   -5.1052   -1.1619    0.6228 H   0  0  0  0  0  0  0  0  0  0  0  0
   -4.8247   -0.0472    1.9927 H   0  0  0  0  0  0  0  0  0  0  0  0
   -3.9897   -1.5724    1.9313 H   0  0  0  0  0  0  0  0  0  0  0  0
  1  2  1  0
  2  3  2  0
  3  4  1  0
  4  5  1  0
  5  6  1  0
  6  7  2  0
  6  8  1  0
  8  9  1  0
  9 10  1  0
 10 11  2  0
 11 12  1  0
 12 13  2  0
 13 14  1  0
  4 15  1  0
 15 16  2  0
 15 17  1  0
 17 18  2  0
 18 19  1  0
 19 20  1  0
 20 21  2  0
 21 22  1  0
 22 23  2  0
 23 24  1  0
 24 25  2  0
 19 26  1  0
 26 27  1  0
 26 28  2  0
 28  2  1  0
 14 10  1  0
 28 17  1  0
 25 20  1  0
  1 29  1  0
  1 30  1  0
  1 31  1  0
  5 32  1  0
  5 33  1  0
  8 34  1  0
  9 35  1  0
  9 36  1  0
 11 37  1  0
 12 38  1  0
 13 39  1  0
 21 40  1  0
 22 41  1  0
 23 42  1  0
 24 43  1  0
 25 44  1  0
 27 45  1  0
 27 46  1  0
 27 47  1  0
M  END
$$$$
