
     RDKit          3D

 39 41  0  0  0  0  0  0  0  0999 V2000
    2.7794   -2.1916   -0.3117 O   0  0  0  0  0  0  0  0  0  0  0  0
    2.8910   -1.0274   -0.6630 C   0  0  0  0  0  0  0  0  0  0  0  0
    2.1598   -0.4033   -1.6162 O   0  0  0  0  0  0  0  0  0  0  0  0
    1.1294   -1.1900   -2.2255 C   0  0  0  0  0  0  0  0  0  0  0  0
   -0.1909   -0.8683   -1.5762 C   0  0  0  0  0  0  0  0  0  0  0  0
   -0.9379    0.2409   -1.9885 C   0  0  0  0  0  0  0  0  0  0  0  0
   -2.1529    0.5485   -1.3675 C   0  0  0  0  0  0  0  0  0  0  0  0
   -2.6497   -0.2369   -0.3153 C   0  0  0  0  0  0  0  0  0  0  0  0
   -3.9287    0.0886    0.3372 C   0  0  0  0  0  0  0  0  0  0  0  0
   -4.1682    1.3690    0.8637 C   0  0  0  0  0  0  0  0  0  0  0  0
   -5.3820    1.6784    1.4836 C   0  0  0  0  0  0  0  0  0  0  0  0
   -6.3787    0.7114    1.5866 C   0  0  0  0  0  0  0  0  0  0  0  0
   -6.1623   -0.5640    1.0714 C   0  0  0  0  0  0  0  0  0  0  0  0
   -4.9474   -0.8720    0.4529 C   0  0  0  0  0  0  0  0  0  0  0  0
   -1.8861   -1.3397    0.0986 C   0  0  0  0  0  0  0  0  0  0  0  0
   -0.6706   -1.6501   -0.5194 C   0  0  0  0  0  0  0  0  0  0  0  0
    3.8907   -0.0938   -0.0773 C   0  0  0  0  0  0  0  0  0  0  0  0
    3.9637    1.2584   -0.4443 C   0  0  0  0  0  0  0  0  0  0  0  0
    4.9221    2.0923    0.1371 C   0  0  0  0  0  0  0  0  0  0  0  0
    5.8073    1.5810    1.0849 C   0  0  0  0  0  0  0  0  0  0  0  0
    5.7308    0.2415    1.4491 C   0  0  0  0  0  0  0  0  0  0  0  0
    6.6157   -0.2131    2.3816 O   0  0  0  0  0  0  0  0  0  0  0  0
    4.7821   -0.6016    0.8790 C   0  0  0  0  0  0  0  0  0  0  0  0
    1.3406   -2.2661   -2.1957 H   0  0  0  0  0  0  0  0  0  0  0  0
    1.0953   -0.9205   -3.2875 H   0  0  0  0  0  0  0  0  0  0  0  0
   -0.5795    0.8751   -2.7963 H   0  0  0  0  0  0  0  0  0  0  0  0
   -2.7192    1.4087   -1.7194 H   0  0  0  0  0  0  0  0  0  0  0  0
   -3.3982    2.1356    0.8047 H   0  0  0  0  0  0  0  0  0  0  0  0
   -5.5456    2.6739    1.8879 H   0  0  0  0  0  0  0  0  0  0  0  0
   -7.3227    0.9513    2.0685 H   0  0  0  0  0  0  0  0  0  0  0  0
   -6.9385   -1.3209    1.1477 H   0  0  0  0  0  0  0  0  0  0  0  0
   -4.8029   -1.8715    0.0476 H   0  0  0  0  0  0  0  0  0  0  0  0
   -2.2276   -1.9611    0.9242 H   0  0  0  0  0  0  0  0  0  0  0  0
   -0.0954   -2.5032   -0.1630 H   0  0  0  0  0  0  0  0  0  0  0  0
    3.2794    1.6774   -1.1781 H   0  0  0  0  0  0  0  0  0  0  0  0
    4.9777    3.1402   -0.1470 H   0  0  0  0  0  0  0  0  0  0  0  0
    6.5542    2.2255    1.5408 H   0  0  0  0  0  0  0  0  0  0  0  0
    6.4405   -1.1544    2.5489 H   0  0  0  0  0  0  0  0  0  0  0  0
    4.7252   -1.6478    1.1670 H   0  0  0  0  0  0  0  0  0  0  0  0
  1  2  2  0
  2  3  1  0
  3  4  1  0
  4  5  1  0
  5  6  2  0
  6  7  1  0
  7  8  2  0
  8  9  1  0
  9 10  2  0
 10 11  1  0
 11 12  2  0
 12 13  1  0
 13 14  2  0
  8 15  1  0
 15 16  2  0
  2 17  1  0
 17 18  2  0
 18 19  1  0
 19 20  2  0
 20 21  1  0
 21 22  1  0
 21 23  2  0
 16  5  1  0
 23 17  1  0
 14  9  1  0
  4 24  1  0
  4 25  1  0
  6 26  1  0
  7 27  1  0
 10 28  1  0
 11 29  1  0
 12 30  1  0
 13 31  1  0
 14 32  1  0
 15 33  1  0
 16 34  1  0
 18 35  1  0
 19 36  1  0
 20 37  1  0
 22 38  1  0
 23 39  1  0
M  END
$$$$
