
     RDKit          3D

 29 29  0  0  0  0  0  0  0  0999 V2000
   -5.1146   -2.7943   -1.2737 C   0  0  0  0  0  0  0  0  0  0  0  0
   -4.3562   -2.5988   -0.3628 C   0  0  0  0  0  0  0  0  0  0  0  0
   -3.4315   -2.3587    0.7532 C   0  0  0  0  0  0  0  0  0  0  0  0
   -2.7007   -1.1009    0.5968 N   0  0  0  0  0  0  0  0  0  0  0  0
   -1.6682   -1.1762   -0.4350 C   0  0  0  0  0  0  0  0  0  0  0  0
   -0.9025    0.1422   -0.5460 C   0  0  0  0  0  0  0  0  0  0  0  0
   -0.1615    0.5142    0.7373 C   0  0  0  0  0  0  0  0  0  0  0  0
    0.6012    1.7065    0.5362 O   0  0  0  0  0  0  0  0  0  0  0  0
    1.9189    1.6118    0.1782 C   0  0  0  0  0  0  0  0  0  0  0  0
    2.5407    0.4413   -0.2685 C   0  0  0  0  0  0  0  0  0  0  0  0
    3.8941    0.4493   -0.6243 C   0  0  0  0  0  0  0  0  0  0  0  0
    4.6308    1.6281   -0.5411 C   0  0  0  0  0  0  0  0  0  0  0  0
    6.2935    1.6279   -0.9816 Cl  0  0  0  0  0  0  0  0  0  0  0  0
    4.0292    2.8044   -0.1088 C   0  0  0  0  0  0  0  0  0  0  0  0
    2.6778    2.7945    0.2458 C   0  0  0  0  0  0  0  0  0  0  0  0
    1.9749    4.2849    0.7752 Cl  0  0  0  0  0  0  0  0  0  0  0  0
   -5.7882   -2.9673   -2.0813 H   0  0  0  0  0  0  0  0  0  0  0  0
   -4.0077   -2.2996    1.6835 H   0  0  0  0  0  0  0  0  0  0  0  0
   -2.7379   -3.1985    0.8750 H   0  0  0  0  0  0  0  0  0  0  0  0
   -3.3690   -0.3649    0.3663 H   0  0  0  0  0  0  0  0  0  0  0  0
   -2.1124   -1.3976   -1.4123 H   0  0  0  0  0  0  0  0  0  0  0  0
   -0.9598   -1.9803   -0.2021 H   0  0  0  0  0  0  0  0  0  0  0  0
   -0.1921    0.0687   -1.3780 H   0  0  0  0  0  0  0  0  0  0  0  0
   -1.5837    0.9584   -0.8200 H   0  0  0  0  0  0  0  0  0  0  0  0
   -0.8901    0.7520    1.5209 H   0  0  0  0  0  0  0  0  0  0  0  0
    0.4455   -0.3078    1.1337 H   0  0  0  0  0  0  0  0  0  0  0  0
    2.0007   -0.4948   -0.3645 H   0  0  0  0  0  0  0  0  0  0  0  0
    4.3644   -0.4686   -0.9692 H   0  0  0  0  0  0  0  0  0  0  0  0
    4.6045    3.7239   -0.0481 H   0  0  0  0  0  0  0  0  0  0  0  0
  1  2  3  0
  2  3  1  0
  3  4  1  0
  4  5  1  0
  5  6  1  0
  6  7  1  0
  7  8  1  0
  8  9  1  0
  9 10  2  0
 10 11  1  0
 11 12  2  0
 12 13  1  0
 12 14  1  0
 14 15  2  0
 15 16  1  0
 15  9  1  0
  1 17  1  0
  3 18  1  0
  3 19  1  0
  4 20  1  0
  5 21  1  0
  5 22  1  0
  6 23  1  0
  6 24  1  0
  7 25  1  0
  7 26  1  0
 10 27  1  0
 11 28  1  0
 14 29  1  0
M  END
$$$$
