
     RDKit          3D

 56 59  0  0  0  0  0  0  0  0999 V2000
   -4.0352    4.3720    1.7256 C   0  0  0  0  0  0  0  0  0  0  0  0
   -4.1029    3.1206    0.8685 C   0  0  0  0  0  0  0  0  0  0  0  0
   -2.6929    3.0828   -0.2863 S   0  0  0  0  0  0  0  0  0  0  0  0
   -2.9543    1.4766   -1.0175 C   0  0  0  0  0  0  0  0  0  0  0  0
   -4.0833    1.2066   -1.7770 C   0  0  0  0  0  0  0  0  0  0  0  0
   -4.2388   -0.0551   -2.3420 C   0  0  0  0  0  0  0  0  0  0  0  0
   -3.2662   -1.0587   -2.1635 C   0  0  0  0  0  0  0  0  0  0  0  0
   -2.1040   -0.8171   -1.4047 C   0  0  0  0  0  0  0  0  0  0  0  0
   -1.9830    0.4786   -0.8488 C   0  0  0  0  0  0  0  0  0  0  0  0
   -1.1006   -1.8167   -1.2309 N   0  0  0  0  0  0  0  0  0  0  0  0
   -0.0717   -1.5695   -0.1889 C   0  0  0  0  0  0  0  0  0  0  0  0
    1.1553   -0.8519   -0.7731 C   0  0  0  0  0  0  0  0  0  0  0  0
    2.2768   -0.6795    0.2591 C   0  0  0  0  0  0  0  0  0  0  0  0
    1.8669    0.0752    1.4517 N   0  0  0  0  0  0  0  0  0  0  0  0
    2.8496   -0.0789    2.5498 C   0  0  0  0  0  0  0  0  0  0  0  0
    4.1790    0.6857    2.3459 C   0  0  0  0  0  0  0  0  0  0  0  0
    3.9604    2.1222    2.1056 N   0  0  0  0  0  0  0  0  0  0  0  0
    5.2214    2.8108    1.8469 C   0  0  0  0  0  0  0  0  0  0  0  0
    3.0126    2.3177    0.9943 C   0  0  0  0  0  0  0  0  0  0  0  0
    1.6975    1.5249    1.1939 C   0  0  0  0  0  0  0  0  0  0  0  0
   -1.0468   -3.0628   -1.9218 C   0  0  0  0  0  0  0  0  0  0  0  0
    0.0844   -3.9101   -1.8661 C   0  0  0  0  0  0  0  0  0  0  0  0
    0.1503   -5.1313   -2.5489 C   0  0  0  0  0  0  0  0  0  0  0  0
   -0.9187   -5.5506   -3.3210 C   0  0  0  0  0  0  0  0  0  0  0  0
   -2.0461   -4.7432   -3.4075 C   0  0  0  0  0  0  0  0  0  0  0  0
   -2.1159   -3.5123   -2.7235 C   0  0  0  0  0  0  0  0  0  0  0  0
   -3.6376   -2.6185   -2.9266 S   0  0  0  0  0  0  0  0  0  0  0  0
   -3.1182    4.4006    2.3243 H   0  0  0  0  0  0  0  0  0  0  0  0
   -4.8830    4.3945    2.4185 H   0  0  0  0  0  0  0  0  0  0  0  0
   -4.0831    5.2805    1.1156 H   0  0  0  0  0  0  0  0  0  0  0  0
   -5.0417    3.1109    0.3062 H   0  0  0  0  0  0  0  0  0  0  0  0
   -4.0732    2.2325    1.5083 H   0  0  0  0  0  0  0  0  0  0  0  0
   -4.8417    1.9655   -1.9463 H   0  0  0  0  0  0  0  0  0  0  0  0
   -5.1307   -0.2555   -2.9329 H   0  0  0  0  0  0  0  0  0  0  0  0
   -1.1098    0.7537   -0.2676 H   0  0  0  0  0  0  0  0  0  0  0  0
   -0.4963   -1.0071    0.6517 H   0  0  0  0  0  0  0  0  0  0  0  0
    0.2294   -2.5071    0.2958 H   0  0  0  0  0  0  0  0  0  0  0  0
    1.5583   -1.4264   -1.6157 H   0  0  0  0  0  0  0  0  0  0  0  0
    0.8757    0.1164   -1.2004 H   0  0  0  0  0  0  0  0  0  0  0  0
    3.1473   -0.2284   -0.2307 H   0  0  0  0  0  0  0  0  0  0  0  0
    2.5865   -1.6890    0.5609 H   0  0  0  0  0  0  0  0  0  0  0  0
    3.0597   -1.1417    2.7226 H   0  0  0  0  0  0  0  0  0  0  0  0
    2.3788    0.2774    3.4761 H   0  0  0  0  0  0  0  0  0  0  0  0
    4.7866    0.5584    3.2500 H   0  0  0  0  0  0  0  0  0  0  0  0
    4.7364    0.2335    1.5154 H   0  0  0  0  0  0  0  0  0  0  0  0
    5.0524    3.8855    1.7165 H   0  0  0  0  0  0  0  0  0  0  0  0
    5.9013    2.6999    2.6988 H   0  0  0  0  0  0  0  0  0  0  0  0
    5.7263    2.4303    0.9516 H   0  0  0  0  0  0  0  0  0  0  0  0
    2.7591    3.3823    0.9198 H   0  0  0  0  0  0  0  0  0  0  0  0
    3.4706    2.0289    0.0397 H   0  0  0  0  0  0  0  0  0  0  0  0
    1.0397    1.6967    0.3361 H   0  0  0  0  0  0  0  0  0  0  0  0
    1.1627    1.9535    2.0525 H   0  0  0  0  0  0  0  0  0  0  0  0
    0.9688   -3.6417   -1.2983 H   0  0  0  0  0  0  0  0  0  0  0  0
    1.0435   -5.7463   -2.4744 H   0  0  0  0  0  0  0  0  0  0  0  0
   -0.8785   -6.4959   -3.8544 H   0  0  0  0  0  0  0  0  0  0  0  0
   -2.8831   -5.0794   -4.0166 H   0  0  0  0  0  0  0  0  0  0  0  0
  1  2  1  0
  2  3  1  0
  3  4  1  0
  4  5  2  0
  5  6  1  0
  6  7  2  0
  7  8  1  0
  8  9  2  0
  8 10  1  0
 10 11  1  0
 11 12  1  0
 12 13  1  0
 13 14  1  0
 14 15  1  0
 15 16  1  0
 16 17  1  0
 17 18  1  0
 17 19  1  0
 19 20  1  0
 10 21  1  0
 21 22  2  0
 22 23  1  0
 23 24  2  0
 24 25  1  0
 25 26  2  0
 26 27  1  0
  9  4  1  0
 20 14  1  0
 26 21  1  0
 27  7  1  0
  1 28  1  0
  1 29  1  0
  1 30  1  0
  2 31  1  0
  2 32  1  0
  5 33  1  0
  6 34  1  0
  9 35  1  0
 11 36  1  0
 11 37  1  0
 12 38  1  0
 12 39  1  0
 13 40  1  0
 13 41  1  0
 15 42  1  0
 15 43  1  0
 16 44  1  0
 16 45  1  0
 18 46  1  0
 18 47  1  0
 18 48  1  0
 19 49  1  0
 19 50  1  0
 20 51  1  0
 20 52  1  0
 22 53  1  0
 23 54  1  0
 24 55  1  0
 25 56  1  0
M  END
$$$$
