
     RDKit          3D

 33 34  0  0  0  0  0  0  0  0999 V2000
   -2.0387    3.7509    1.6359 C   0  0  0  0  0  0  0  0  0  0  0  0
   -1.2677    2.5777    1.3764 O   0  0  0  0  0  0  0  0  0  0  0  0
   -0.3049    2.7623    0.4421 C   0  0  0  0  0  0  0  0  0  0  0  0
    0.0354    3.8050   -0.0876 O   0  0  0  0  0  0  0  0  0  0  0  0
    0.4049    1.4908    0.2622 C   0  0  0  0  0  0  0  0  0  0  0  0
    1.7522    1.4808    0.6178 C   0  0  0  0  0  0  0  0  0  0  0  0
    2.4243    0.2849    0.5231 C   0  0  0  0  0  0  0  0  0  0  0  0
    3.7520    0.2943    0.8915 O   0  0  0  0  0  0  0  0  0  0  0  0
    4.3876   -0.9722    0.7478 C   0  0  0  0  0  0  0  0  0  0  0  0
    1.8438   -0.8608    0.1134 N   0  0  0  0  0  0  0  0  0  0  0  0
    0.5347   -0.8306   -0.2473 C   0  0  0  0  0  0  0  0  0  0  0  0
   -0.2149    0.3298   -0.2075 C   0  0  0  0  0  0  0  0  0  0  0  0
   -1.5939    0.2856   -0.7075 C   0  0  0  0  0  0  0  0  0  0  0  0
   -2.1903    1.3287   -0.9553 O   0  0  0  0  0  0  0  0  0  0  0  0
   -2.1359   -0.9716   -0.9274 N   0  0  0  0  0  0  0  0  0  0  0  0
   -3.5249   -1.0389   -1.3459 C   0  0  0  0  0  0  0  0  0  0  0  0
   -1.3887   -2.1384   -1.0145 C   0  0  0  0  0  0  0  0  0  0  0  0
   -1.8895   -3.1999   -1.3905 O   0  0  0  0  0  0  0  0  0  0  0  0
   -0.0535   -2.0380   -0.6751 N   0  0  0  0  0  0  0  0  0  0  0  0
    0.7977   -3.2183   -0.7254 C   0  0  0  0  0  0  0  0  0  0  0  0
   -2.5048    4.1189    0.7163 H   0  0  0  0  0  0  0  0  0  0  0  0
   -1.4120    4.5250    2.0896 H   0  0  0  0  0  0  0  0  0  0  0  0
   -2.8302    3.4868    2.3425 H   0  0  0  0  0  0  0  0  0  0  0  0
    2.2557    2.3760    0.9682 H   0  0  0  0  0  0  0  0  0  0  0  0
    5.4324   -0.8573    1.0523 H   0  0  0  0  0  0  0  0  0  0  0  0
    4.3789   -1.3042   -0.2962 H   0  0  0  0  0  0  0  0  0  0  0  0
    3.9297   -1.7216    1.4026 H   0  0  0  0  0  0  0  0  0  0  0  0
   -4.1004   -0.2029   -0.9373 H   0  0  0  0  0  0  0  0  0  0  0  0
   -3.9825   -1.9756   -1.0131 H   0  0  0  0  0  0  0  0  0  0  0  0
   -3.5595   -0.9961   -2.4393 H   0  0  0  0  0  0  0  0  0  0  0  0
    1.6386   -3.0332   -1.4019 H   0  0  0  0  0  0  0  0  0  0  0  0
    1.1675   -3.4419    0.2807 H   0  0  0  0  0  0  0  0  0  0  0  0
    0.2571   -4.0959   -1.0905 H   0  0  0  0  0  0  0  0  0  0  0  0
  1  2  1  0
  2  3  1  0
  3  4  2  0
  3  5  1  0
  5  6  2  0
  6  7  1  0
  7  8  1  0
  8  9  1  0
  7 10  2  0
 10 11  1  0
 11 12  2  0
 12 13  1  0
 13 14  2  0
 13 15  1  0
 15 16  1  0
 15 17  1  0
 17 18  2  0
 17 19  1  0
 19 20  1  0
 12  5  1  0
 19 11  1  0
  1 21  1  0
  1 22  1  0
  1 23  1  0
  6 24  1  0
  9 25  1  0
  9 26  1  0
  9 27  1  0
 16 28  1  0
 16 29  1  0
 16 30  1  0
 20 31  1  0
 20 32  1  0
 20 33  1  0
M  END
$$$$
