
     RDKit          3D

 38 40  0  0  0  0  0  0  0  0999 V2000
   -0.0357    2.7808    2.0632 S   0  0  0  0  0  0  0  0  0  0  0  0
    0.0804    1.4934    0.9893 C   0  0  0  0  0  0  0  0  0  0  0  0
    1.2780    0.8830    0.6755 N   0  0  0  0  0  0  0  0  0  0  0  0
    2.5807    1.2198    1.2293 C   0  0  0  0  0  0  0  0  0  0  0  0
    3.6584    0.4079    0.5600 C   0  0  0  0  0  0  0  0  0  0  0  0
    4.1796   -0.7373    1.1779 C   0  0  0  0  0  0  0  0  0  0  0  0
    5.1596   -1.5002    0.5406 C   0  0  0  0  0  0  0  0  0  0  0  0
    5.6222   -1.1303   -0.7211 C   0  0  0  0  0  0  0  0  0  0  0  0
    5.1040    0.0009   -1.3490 C   0  0  0  0  0  0  0  0  0  0  0  0
    4.1242    0.7649   -0.7137 C   0  0  0  0  0  0  0  0  0  0  0  0
   -1.0102    0.9178    0.3194 N   0  0  0  0  0  0  0  0  0  0  0  0
   -0.8830    0.3783   -1.0417 C   0  0  0  0  0  0  0  0  0  0  0  0
   -1.6656   -0.9234   -1.1850 C   0  0  0  0  0  0  0  0  0  0  0  0
   -3.0900   -0.7612   -0.7212 C   0  0  0  0  0  0  0  0  0  0  0  0
   -4.0756   -1.6569   -1.1580 C   0  0  0  0  0  0  0  0  0  0  0  0
   -5.3917   -1.5276   -0.7161 C   0  0  0  0  0  0  0  0  0  0  0  0
   -5.7318   -0.5092    0.1703 C   0  0  0  0  0  0  0  0  0  0  0  0
   -4.7547    0.3785    0.6211 C   0  0  0  0  0  0  0  0  0  0  0  0
   -3.4244    0.2573    0.1899 C   0  0  0  0  0  0  0  0  0  0  0  0
   -2.3940    1.2449    0.6973 C   0  0  0  0  0  0  0  0  0  0  0  0
    1.1840   -0.0868    0.4088 H   0  0  0  0  0  0  0  0  0  0  0  0
    2.5612    1.0240    2.3077 H   0  0  0  0  0  0  0  0  0  0  0  0
    2.7741    2.2895    1.0896 H   0  0  0  0  0  0  0  0  0  0  0  0
    3.8262   -1.0415    2.1610 H   0  0  0  0  0  0  0  0  0  0  0  0
    5.5628   -2.3838    1.0288 H   0  0  0  0  0  0  0  0  0  0  0  0
    6.3862   -1.7243   -1.2157 H   0  0  0  0  0  0  0  0  0  0  0  0
    5.4623    0.2881   -2.3342 H   0  0  0  0  0  0  0  0  0  0  0  0
    3.7210    1.6423   -1.2156 H   0  0  0  0  0  0  0  0  0  0  0  0
   -1.2761    1.1433   -1.7247 H   0  0  0  0  0  0  0  0  0  0  0  0
    0.1580    0.2190   -1.3350 H   0  0  0  0  0  0  0  0  0  0  0  0
   -1.6429   -1.2400   -2.2341 H   0  0  0  0  0  0  0  0  0  0  0  0
   -1.1946   -1.7086   -0.5811 H   0  0  0  0  0  0  0  0  0  0  0  0
   -3.8224   -2.4601   -1.8463 H   0  0  0  0  0  0  0  0  0  0  0  0
   -6.1518   -2.2230   -1.0622 H   0  0  0  0  0  0  0  0  0  0  0  0
   -6.7578   -0.4080    0.5143 H   0  0  0  0  0  0  0  0  0  0  0  0
   -5.0347    1.1669    1.3170 H   0  0  0  0  0  0  0  0  0  0  0  0
   -2.6228    2.2364    0.2874 H   0  0  0  0  0  0  0  0  0  0  0  0
   -2.4629    1.2850    1.7900 H   0  0  0  0  0  0  0  0  0  0  0  0
  1  2  2  0
  2  3  1  0
  3  4  1  0
  4  5  1  0
  5  6  2  0
  6  7  1  0
  7  8  2  0
  8  9  1  0
  9 10  2  0
  2 11  1  0
 11 12  1  0
 12 13  1  0
 13 14  1  0
 14 15  2  0
 15 16  1  0
 16 17  2  0
 17 18  1  0
 18 19  2  0
 19 20  1  0
 10  5  1  0
 20 11  1  0
 19 14  1  0
  3 21  1  0
  4 22  1  0
  4 23  1  0
  6 24  1  0
  7 25  1  0
  8 26  1  0
  9 27  1  0
 10 28  1  0
 12 29  1  0
 12 30  1  0
 13 31  1  0
 13 32  1  0
 15 33  1  0
 16 34  1  0
 17 35  1  0
 18 36  1  0
 20 37  1  0
 20 38  1  0
M  END
$$$$
