
     RDKit          3D

 52 53  0  0  0  0  0  0  0  0999 V2000
    5.4259   -0.3427   -2.5696 C   0  0  0  0  0  0  0  0  0  0  0  0
    5.7792   -1.7163   -2.0211 C   0  0  0  0  0  0  0  0  0  0  0  0
    4.5636   -2.5387   -1.5780 C   0  0  0  0  0  0  0  0  0  0  0  0
    3.8596   -1.9656   -0.4276 N   0  0  0  0  0  0  0  0  0  0  0  0
    2.5689   -1.3662   -0.8082 C   0  0  0  0  0  0  0  0  0  0  0  0
    1.8814   -0.7912    0.4455 C   0  0  0  0  0  0  0  0  0  0  0  0
    1.7815   -1.8305    1.4306 O   0  0  0  0  0  0  0  0  0  0  0  0
    0.4841   -0.2542    0.1101 C   0  0  0  0  0  0  0  0  0  0  0  0
   -0.0667    0.4830    1.2220 O   0  0  0  0  0  0  0  0  0  0  0  0
    0.0912    1.8337    1.0601 C   0  0  0  0  0  0  0  0  0  0  0  0
    1.1212    2.4541    1.7682 C   0  0  0  0  0  0  0  0  0  0  0  0
    1.3630    3.8178    1.5954 C   0  0  0  0  0  0  0  0  0  0  0  0
    0.5703    4.5651    0.7233 C   0  0  0  0  0  0  0  0  0  0  0  0
   -0.4853    3.9558    0.0429 C   0  0  0  0  0  0  0  0  0  0  0  0
   -0.7444    2.5940    0.2370 C   0  0  0  0  0  0  0  0  0  0  0  0
   -1.9009    2.0010   -0.4656 C   0  0  0  0  0  0  0  0  0  0  0  0
   -1.9929    2.1496   -1.6815 O   0  0  0  0  0  0  0  0  0  0  0  0
   -2.9586    1.3074    0.3679 C   0  0  0  0  0  0  0  0  0  0  0  0
   -3.4075    0.0123   -0.3008 C   0  0  0  0  0  0  0  0  0  0  0  0
   -4.4273   -0.7153    0.5388 C   0  0  0  0  0  0  0  0  0  0  0  0
   -4.0193   -1.5534    1.5853 C   0  0  0  0  0  0  0  0  0  0  0  0
   -4.9660   -2.2030    2.3794 C   0  0  0  0  0  0  0  0  0  0  0  0
   -6.3263   -2.0193    2.1367 C   0  0  0  0  0  0  0  0  0  0  0  0
   -6.7412   -1.1857    1.1000 C   0  0  0  0  0  0  0  0  0  0  0  0
   -5.7964   -0.5342    0.3051 C   0  0  0  0  0  0  0  0  0  0  0  0
    6.3250    0.1530   -2.9501 H   0  0  0  0  0  0  0  0  0  0  0  0
    4.7092   -0.4216   -3.3931 H   0  0  0  0  0  0  0  0  0  0  0  0
    4.9966    0.3010   -1.7961 H   0  0  0  0  0  0  0  0  0  0  0  0
    6.3108   -2.2764   -2.7995 H   0  0  0  0  0  0  0  0  0  0  0  0
    6.4802   -1.6016   -1.1850 H   0  0  0  0  0  0  0  0  0  0  0  0
    4.9240   -3.5285   -1.2759 H   0  0  0  0  0  0  0  0  0  0  0  0
    3.8938   -2.7054   -2.4298 H   0  0  0  0  0  0  0  0  0  0  0  0
    4.4489   -1.2679    0.0297 H   0  0  0  0  0  0  0  0  0  0  0  0
    2.7048   -0.5751   -1.5528 H   0  0  0  0  0  0  0  0  0  0  0  0
    1.9322   -2.1490   -1.2392 H   0  0  0  0  0  0  0  0  0  0  0  0
    2.5009   -0.0006    0.8824 H   0  0  0  0  0  0  0  0  0  0  0  0
    2.5925   -2.3670    1.3127 H   0  0  0  0  0  0  0  0  0  0  0  0
    0.5093    0.3502   -0.8058 H   0  0  0  0  0  0  0  0  0  0  0  0
   -0.1974   -1.0935   -0.0662 H   0  0  0  0  0  0  0  0  0  0  0  0
    1.7476    1.8721    2.4405 H   0  0  0  0  0  0  0  0  0  0  0  0
    2.1758    4.2972    2.1372 H   0  0  0  0  0  0  0  0  0  0  0  0
    0.7701    5.6238    0.5784 H   0  0  0  0  0  0  0  0  0  0  0  0
   -1.1090    4.5423   -0.6284 H   0  0  0  0  0  0  0  0  0  0  0  0
   -2.5910    1.1120    1.3809 H   0  0  0  0  0  0  0  0  0  0  0  0
   -3.8020    2.0025    0.4704 H   0  0  0  0  0  0  0  0  0  0  0  0
   -3.8289    0.2208   -1.2931 H   0  0  0  0  0  0  0  0  0  0  0  0
   -2.5495   -0.6472   -0.4826 H   0  0  0  0  0  0  0  0  0  0  0  0
   -2.9605   -1.7005    1.7912 H   0  0  0  0  0  0  0  0  0  0  0  0
   -4.6411   -2.8509    3.1893 H   0  0  0  0  0  0  0  0  0  0  0  0
   -7.0633   -2.5238    2.7568 H   0  0  0  0  0  0  0  0  0  0  0  0
   -7.8015   -1.0407    0.9103 H   0  0  0  0  0  0  0  0  0  0  0  0
   -6.1348    0.1174   -0.4974 H   0  0  0  0  0  0  0  0  0  0  0  0
  1  2  1  0
  2  3  1  0
  3  4  1  0
  4  5  1  0
  5  6  1  0
  6  7  1  0
  6  8  1  0
  8  9  1  0
  9 10  1  0
 10 11  2  0
 11 12  1  0
 12 13  2  0
 13 14  1  0
 14 15  2  0
 15 16  1  0
 16 17  2  0
 16 18  1  0
 18 19  1  0
 19 20  1  0
 20 21  2  0
 21 22  1  0
 22 23  2  0
 23 24  1  0
 24 25  2  0
 15 10  1  0
 25 20  1  0
  1 26  1  0
  1 27  1  0
  1 28  1  0
  2 29  1  0
  2 30  1  0
  3 31  1  0
  3 32  1  0
  4 33  1  0
  5 34  1  0
  5 35  1  0
  6 36  1  0
  7 37  1  0
  8 38  1  0
  8 39  1  0
 11 40  1  0
 12 41  1  0
 13 42  1  0
 14 43  1  0
 18 44  1  0
 18 45  1  0
 19 46  1  0
 19 47  1  0
 21 48  1  0
 22 49  1  0
 23 50  1  0
 24 51  1  0
 25 52  1  0
M  END
$$$$
