
     RDKit          3D

 55 60  0  0  0  0  0  0  0  0999 V2000
    5.1826   -0.8897   -0.4927 O   0  0  0  0  0  0  0  0  0  0  0  0
    4.3046   -0.8359    0.3662 C   0  0  0  0  0  0  0  0  0  0  0  0
    4.6473   -0.8725    1.7805 C   0  0  0  0  0  0  0  0  0  0  0  0
    3.9290   -1.3860    2.9016 C   0  0  0  0  0  0  0  0  0  0  0  0
    4.7310   -1.1990    4.0027 C   0  0  0  0  0  0  0  0  0  0  0  0
    5.9048   -0.6240    3.6395 O   0  0  0  0  0  0  0  0  0  0  0  0
    5.8575   -0.4493    2.2944 C   0  0  0  0  0  0  0  0  0  0  0  0
    2.9397   -0.7881    0.0338 N   0  0  0  0  0  0  0  0  0  0  0  0
    2.6249   -1.0133   -1.3701 C   0  0  0  0  0  0  0  0  0  0  0  0
    1.1628   -1.4069   -1.5613 C   0  0  0  0  0  0  0  0  0  0  0  0
    0.1873   -0.3639   -0.9469 C   0  0  0  0  0  0  0  0  0  0  0  0
    0.5944   -0.1958    0.5411 C   0  0  0  0  0  0  0  0  0  0  0  0
    2.0673    0.1758    0.6987 C   0  0  0  0  0  0  0  0  0  0  0  0
    0.3936    0.9342   -1.5558 O   0  0  0  0  0  0  0  0  0  0  0  0
   -0.0987    1.0867   -2.8218 C   0  0  0  0  0  0  0  0  0  0  0  0
    0.4176    2.1546   -3.5568 C   0  0  0  0  0  0  0  0  0  0  0  0
   -0.0167    2.3726   -4.8652 C   0  0  0  0  0  0  0  0  0  0  0  0
   -0.9671    1.5247   -5.4262 C   0  0  0  0  0  0  0  0  0  0  0  0
   -1.3793    1.7391   -6.6817 F   0  0  0  0  0  0  0  0  0  0  0  0
   -1.5003    0.4664   -4.7021 C   0  0  0  0  0  0  0  0  0  0  0  0
   -1.0672    0.2578   -3.3905 C   0  0  0  0  0  0  0  0  0  0  0  0
   -1.6431   -0.8304   -2.5774 C   0  0  0  0  0  0  0  0  0  0  0  0
   -2.3853   -1.6529   -3.1030 O   0  0  0  0  0  0  0  0  0  0  0  0
   -1.3006   -0.7932   -1.0922 C   0  0  0  0  0  0  0  0  0  0  0  0
   -2.3244    0.1101   -0.4123 C   0  0  0  0  0  0  0  0  0  0  0  0
   -2.6419   -0.7345    0.7718 C   0  0  0  0  0  0  0  0  0  0  0  0
   -3.4286   -0.2206    1.9173 C   0  0  0  0  0  0  0  0  0  0  0  0
   -4.0023    1.0564    1.8980 C   0  0  0  0  0  0  0  0  0  0  0  0
   -4.7348    1.5111    2.9999 C   0  0  0  0  0  0  0  0  0  0  0  0
   -4.8955    0.6918    4.1165 C   0  0  0  0  0  0  0  0  0  0  0  0
   -5.7957    1.2574    5.4681 Cl  0  0  0  0  0  0  0  0  0  0  0  0
   -4.3321   -0.5817    4.1422 C   0  0  0  0  0  0  0  0  0  0  0  0
   -3.6000   -1.0384    3.0428 C   0  0  0  0  0  0  0  0  0  0  0  0
   -2.1775   -1.9407    0.7180 N   0  0  0  0  0  0  0  0  0  0  0  0
   -1.5092   -2.0875   -0.5191 O   0  0  0  0  0  0  0  0  0  0  0  0
    2.9520   -1.8490    2.9000 H   0  0  0  0  0  0  0  0  0  0  0  0
    4.6252   -1.4211    5.0556 H   0  0  0  0  0  0  0  0  0  0  0  0
    6.7426   -0.0185    1.8457 H   0  0  0  0  0  0  0  0  0  0  0  0
    3.2643   -1.8140   -1.7608 H   0  0  0  0  0  0  0  0  0  0  0  0
    2.8689   -0.1016   -1.9290 H   0  0  0  0  0  0  0  0  0  0  0  0
    0.9976   -2.3861   -1.0937 H   0  0  0  0  0  0  0  0  0  0  0  0
    0.9919   -1.5346   -2.6356 H   0  0  0  0  0  0  0  0  0  0  0  0
    0.4111   -1.1258    1.0923 H   0  0  0  0  0  0  0  0  0  0  0  0
    0.0060    0.5969    1.0162 H   0  0  0  0  0  0  0  0  0  0  0  0
    2.2721    1.1603    0.2592 H   0  0  0  0  0  0  0  0  0  0  0  0
    2.3035    0.2691    1.7602 H   0  0  0  0  0  0  0  0  0  0  0  0
    1.1670    2.8101   -3.1189 H   0  0  0  0  0  0  0  0  0  0  0  0
    0.3823    3.1945   -5.4528 H   0  0  0  0  0  0  0  0  0  0  0  0
   -2.2476   -0.1761   -5.1598 H   0  0  0  0  0  0  0  0  0  0  0  0
   -3.2398    0.2434   -0.9997 H   0  0  0  0  0  0  0  0  0  0  0  0
   -1.9294    1.0905   -0.1370 H   0  0  0  0  0  0  0  0  0  0  0  0
   -3.9037    1.7136    1.0390 H   0  0  0  0  0  0  0  0  0  0  0  0
   -5.1807    2.5027    2.9801 H   0  0  0  0  0  0  0  0  0  0  0  0
   -4.4595   -1.2250    5.0092 H   0  0  0  0  0  0  0  0  0  0  0  0
   -3.1680   -2.0375    3.0716 H   0  0  0  0  0  0  0  0  0  0  0  0
  1  2  2  0
  2  3  1  0
  3  4  1  0
  4  5  2  0
  5  6  1  0
  6  7  1  0
  2  8  1  0
  8  9  1  0
  9 10  1  0
 10 11  1  0
 11 12  1  0
 12 13  1  0
 11 14  1  0
 14 15  1  0
 15 16  2  0
 16 17  1  0
 17 18  2  0
 18 19  1  0
 18 20  1  0
 20 21  2  0
 21 22  1  0
 22 23  2  0
 22 24  1  0
 24 25  1  0
 25 26  1  0
 26 27  1  0
 27 28  2  0
 28 29  1  0
 29 30  2  0
 30 31  1  0
 30 32  1  0
 32 33  2  0
 26 34  2  0
 34 35  1  0
  7  3  2  0
 13  8  1  0
 21 15  1  0
 35 24  1  0
 24 11  1  0
 33 27  1  0
  4 36  1  0
  5 37  1  0
  7 38  1  0
  9 39  1  0
  9 40  1  0
 10 41  1  0
 10 42  1  0
 12 43  1  0
 12 44  1  0
 13 45  1  0
 13 46  1  0
 16 47  1  0
 17 48  1  0
 20 49  1  0
 25 50  1  0
 25 51  1  0
 28 52  1  0
 29 53  1  0
 32 54  1  0
 33 55  1  0
M  END
$$$$
