
     RDKit          3D

 63 67  0  0  0  0  0  0  0  0999 V2000
    6.7913    2.5490   -3.4118 C   0  0  0  0  0  0  0  0  0  0  0  0
    6.5759    1.0492   -3.4906 C   0  0  0  0  0  0  0  0  0  0  0  0
    5.9732    0.5709   -2.2807 O   0  0  0  0  0  0  0  0  0  0  0  0
    4.6103    0.6286   -2.2324 C   0  0  0  0  0  0  0  0  0  0  0  0
    3.8986    1.0556   -3.1334 O   0  0  0  0  0  0  0  0  0  0  0  0
    4.0731    0.1217   -0.9757 C   0  0  0  0  0  0  0  0  0  0  0  0
    2.7014    0.0555   -0.5957 C   0  0  0  0  0  0  0  0  0  0  0  0
    2.6190   -0.5097    0.6646 C   0  0  0  0  0  0  0  0  0  0  0  0
    1.4860   -0.8176    1.5295 C   0  0  0  0  0  0  0  0  0  0  0  0
    0.1548   -0.6711    1.1497 N   0  0  0  0  0  0  0  0  0  0  0  0
   -0.8959   -0.7055    2.1839 C   0  0  0  0  0  0  0  0  0  0  0  0
   -2.2345   -0.1957    1.6106 C   0  0  0  0  0  0  0  0  0  0  0  0
   -2.7626   -1.0086    0.4898 N   0  0  0  0  0  0  0  0  0  0  0  0
   -3.5654   -0.2044   -0.4474 C   0  0  0  0  0  0  0  0  0  0  0  0
   -4.8412    0.3726    0.1947 C   0  0  0  0  0  0  0  0  0  0  0  0
   -5.6764    1.1476   -0.8070 C   0  0  0  0  0  0  0  0  0  0  0  0
   -5.3120    2.4788   -1.0828 C   0  0  0  0  0  0  0  0  0  0  0  0
   -6.0273    3.2434   -2.0030 C   0  0  0  0  0  0  0  0  0  0  0  0
   -7.1177    2.6915   -2.6643 C   0  0  0  0  0  0  0  0  0  0  0  0
   -7.4924    1.3732   -2.4059 C   0  0  0  0  0  0  0  0  0  0  0  0
   -6.7820    0.5809   -1.4824 C   0  0  0  0  0  0  0  0  0  0  0  0
   -7.2373   -0.8427   -1.2372 C   0  0  0  0  0  0  0  0  0  0  0  0
   -6.2431   -1.7551   -1.4210 F   0  0  0  0  0  0  0  0  0  0  0  0
   -7.7018   -1.0353    0.0285 F   0  0  0  0  0  0  0  0  0  0  0  0
   -8.2496   -1.2395   -2.0617 F   0  0  0  0  0  0  0  0  0  0  0  0
   -1.6685   -1.7238   -0.2028 C   0  0  0  0  0  0  0  0  0  0  0  0
   -0.3048   -0.9980   -0.2091 C   0  0  0  0  0  0  0  0  0  0  0  0
    1.7349   -1.2457    2.7434 N   0  0  0  0  0  0  0  0  0  0  0  0
    3.0546   -1.4541    3.1839 C   0  0  0  0  0  0  0  0  0  0  0  0
    3.2534   -1.9293    4.4817 C   0  0  0  0  0  0  0  0  0  0  0  0
    4.5428   -2.1645    4.9662 C   0  0  0  0  0  0  0  0  0  0  0  0
    5.6503   -1.9256    4.1521 C   0  0  0  0  0  0  0  0  0  0  0  0
    5.4749   -1.4504    2.8519 C   0  0  0  0  0  0  0  0  0  0  0  0
    4.1783   -1.2205    2.3812 C   0  0  0  0  0  0  0  0  0  0  0  0
    3.9102   -0.7308    1.0928 N   0  0  0  0  0  0  0  0  0  0  0  0
    4.7898   -0.3851    0.0956 C   0  0  0  0  0  0  0  0  0  0  0  0
    7.3047    2.9145   -4.3055 H   0  0  0  0  0  0  0  0  0  0  0  0
    5.8383    3.0787   -3.3151 H   0  0  0  0  0  0  0  0  0  0  0  0
    7.3890    2.8056   -2.5309 H   0  0  0  0  0  0  0  0  0  0  0  0
    5.9815    0.7741   -4.3695 H   0  0  0  0  0  0  0  0  0  0  0  0
    7.5427    0.5443   -3.5872 H   0  0  0  0  0  0  0  0  0  0  0  0
    1.8724    0.3966   -1.2010 H   0  0  0  0  0  0  0  0  0  0  0  0
   -0.6137   -0.0561    3.0215 H   0  0  0  0  0  0  0  0  0  0  0  0
   -1.0115   -1.7250    2.5724 H   0  0  0  0  0  0  0  0  0  0  0  0
   -2.9805   -0.1797    2.4132 H   0  0  0  0  0  0  0  0  0  0  0  0
   -2.0779    0.8430    1.2884 H   0  0  0  0  0  0  0  0  0  0  0  0
   -2.9576    0.6015   -0.8801 H   0  0  0  0  0  0  0  0  0  0  0  0
   -3.8748   -0.8412   -1.2862 H   0  0  0  0  0  0  0  0  0  0  0  0
   -4.5874    1.0492    1.0208 H   0  0  0  0  0  0  0  0  0  0  0  0
   -5.4304   -0.4307    0.6501 H   0  0  0  0  0  0  0  0  0  0  0  0
   -4.4615    2.9310   -0.5749 H   0  0  0  0  0  0  0  0  0  0  0  0
   -5.7328    4.2709   -2.2020 H   0  0  0  0  0  0  0  0  0  0  0  0
   -7.6783    3.2867   -3.3811 H   0  0  0  0  0  0  0  0  0  0  0  0
   -8.3517    0.9614   -2.9348 H   0  0  0  0  0  0  0  0  0  0  0  0
   -1.9512   -1.9834   -1.2305 H   0  0  0  0  0  0  0  0  0  0  0  0
   -1.5396   -2.6860    0.3109 H   0  0  0  0  0  0  0  0  0  0  0  0
    0.4149   -1.6527   -0.7134 H   0  0  0  0  0  0  0  0  0  0  0  0
   -0.3884   -0.0720   -0.7889 H   0  0  0  0  0  0  0  0  0  0  0  0
    2.3920   -2.1187    5.1169 H   0  0  0  0  0  0  0  0  0  0  0  0
    4.6799   -2.5350    5.9788 H   0  0  0  0  0  0  0  0  0  0  0  0
    6.6519   -2.1097    4.5334 H   0  0  0  0  0  0  0  0  0  0  0  0
    6.3523   -1.2702    2.2400 H   0  0  0  0  0  0  0  0  0  0  0  0
    5.8576   -0.5024    0.2155 H   0  0  0  0  0  0  0  0  0  0  0  0
  1  2  1  0
  2  3  1  0
  3  4  1  0
  4  5  2  0
  4  6  1  0
  6  7  1  0
  7  8  2  0
  8  9  1  0
  9 10  1  0
 10 11  1  0
 11 12  1  0
 12 13  1  0
 13 14  1  0
 14 15  1  0
 15 16  1  0
 16 17  2  0
 17 18  1  0
 18 19  2  0
 19 20  1  0
 20 21  2  0
 21 22  1  0
 22 23  1  0
 22 24  1  0
 22 25  1  0
 13 26  1  0
 26 27  1  0
  9 28  2  0
 28 29  1  0
 29 30  2  0
 30 31  1  0
 31 32  2  0
 32 33  1  0
 33 34  2  0
 34 35  1  0
 35 36  1  0
 36  6  2  0
 35  8  1  0
 27 10  1  0
 34 29  1  0
 21 16  1  0
  1 37  1  0
  1 38  1  0
  1 39  1  0
  2 40  1  0
  2 41  1  0
  7 42  1  0
 11 43  1  0
 11 44  1  0
 12 45  1  0
 12 46  1  0
 14 47  1  0
 14 48  1  0
 15 49  1  0
 15 50  1  0
 17 51  1  0
 18 52  1  0
 19 53  1  0
 20 54  1  0
 26 55  1  0
 26 56  1  0
 27 57  1  0
 27 58  1  0
 30 59  1  0
 31 60  1  0
 32 61  1  0
 33 62  1  0
 36 63  1  0
M  END
$$$$
