
     RDKit          3D

 36 37  0  0  0  0  0  0  0  0999 V2000
    0.7543    1.2863    0.7309 O   0  0  0  0  0  0  0  0  0  0  0  0
    0.0256    0.5927    0.0254 C   0  0  0  0  0  0  0  0  0  0  0  0
    0.5432   -0.5799   -0.8136 C   0  0  0  0  0  0  0  0  0  0  0  0
    1.8335   -1.0236   -0.4030 O   0  0  0  0  0  0  0  0  0  0  0  0
    1.8200   -1.7047    0.7667 C   0  0  0  0  0  0  0  0  0  0  0  0
    0.8472   -2.0401    1.4192 O   0  0  0  0  0  0  0  0  0  0  0  0
    3.2069   -1.9087    1.2000 C   0  0  0  0  0  0  0  0  0  0  0  0
    3.6266   -1.1953    2.3319 C   0  0  0  0  0  0  0  0  0  0  0  0
    4.9308   -1.3393    2.7969 C   0  0  0  0  0  0  0  0  0  0  0  0
    5.8085   -2.1982    2.1357 C   0  0  0  0  0  0  0  0  0  0  0  0
    5.3839   -2.9197    1.0116 C   0  0  0  0  0  0  0  0  0  0  0  0
    6.5402   -3.9689    0.2653 Cl  0  0  0  0  0  0  0  0  0  0  0  0
    4.0727   -2.7840    0.5334 C   0  0  0  0  0  0  0  0  0  0  0  0
    3.5221   -3.7025   -0.8310 Cl  0  0  0  0  0  0  0  0  0  0  0  0
   -1.3290    0.8090   -0.0961 N   0  0  0  0  0  0  0  0  0  0  0  0
   -1.9949    1.8876    0.6111 C   0  0  0  0  0  0  0  0  0  0  0  0
   -3.5192    1.8217    0.4792 C   0  0  0  0  0  0  0  0  0  0  0  0
   -3.9810    2.0820   -0.8757 N   0  0  0  0  0  0  0  0  0  0  0  0
   -4.1046    1.1215   -1.8495 C   0  0  0  0  0  0  0  0  0  0  0  0
   -3.7621   -0.1668   -1.5582 O   0  0  0  0  0  0  0  0  0  0  0  0
   -4.5442    1.5767   -3.0282 C   0  0  0  0  0  0  0  0  0  0  0  0
   -4.8157    3.2921   -2.9786 S   0  0  0  0  0  0  0  0  0  0  0  0
   -4.2945    3.3696   -1.2845 C   0  0  0  0  0  0  0  0  0  0  0  0
   -4.2397    4.4018   -0.6377 O   0  0  0  0  0  0  0  0  0  0  0  0
    0.6314   -0.2302   -1.8477 H   0  0  0  0  0  0  0  0  0  0  0  0
   -0.1725   -1.4108   -0.8049 H   0  0  0  0  0  0  0  0  0  0  0  0
    2.9373   -0.5225    2.8410 H   0  0  0  0  0  0  0  0  0  0  0  0
    5.2634   -0.7829    3.6706 H   0  0  0  0  0  0  0  0  0  0  0  0
    6.8270   -2.3059    2.5039 H   0  0  0  0  0  0  0  0  0  0  0  0
   -1.8981    0.1970   -0.6734 H   0  0  0  0  0  0  0  0  0  0  0  0
   -1.7109    1.8211    1.6673 H   0  0  0  0  0  0  0  0  0  0  0  0
   -1.6049    2.8335    0.2184 H   0  0  0  0  0  0  0  0  0  0  0  0
   -3.8993    0.8469    0.8072 H   0  0  0  0  0  0  0  0  0  0  0  0
   -3.9580    2.5771    1.1418 H   0  0  0  0  0  0  0  0  0  0  0  0
   -4.0425   -0.7262   -2.3053 H   0  0  0  0  0  0  0  0  0  0  0  0
   -4.7032    0.9936   -3.9233 H   0  0  0  0  0  0  0  0  0  0  0  0
  1  2  2  0
  2  3  1  0
  3  4  1  0
  4  5  1  0
  5  6  2  0
  5  7  1  0
  7  8  2  0
  8  9  1  0
  9 10  2  0
 10 11  1  0
 11 12  1  0
 11 13  2  0
 13 14  1  0
  2 15  1  0
 15 16  1  0
 16 17  1  0
 17 18  1  0
 18 19  1  0
 19 20  1  0
 19 21  2  0
 21 22  1  0
 22 23  1  0
 23 24  2  0
 13  7  1  0
 23 18  1  0
  3 25  1  0
  3 26  1  0
  8 27  1  0
  9 28  1  0
 10 29  1  0
 15 30  1  0
 16 31  1  0
 16 32  1  0
 17 33  1  0
 17 34  1  0
 20 35  1  0
 21 36  1  0
M  END
$$$$
