
     RDKit          3D

 54 58  0  0  0  0  0  0  0  0999 V2000
    6.7473    1.6985   -2.1923 F   0  0  0  0  0  0  0  0  0  0  0  0
    5.7536    0.8039   -1.9246 C   0  0  0  0  0  0  0  0  0  0  0  0
    4.6062    1.3979   -2.3559 F   0  0  0  0  0  0  0  0  0  0  0  0
    5.9762   -0.2458   -2.7626 F   0  0  0  0  0  0  0  0  0  0  0  0
    5.6913    0.3890   -0.4695 C   0  0  0  0  0  0  0  0  0  0  0  0
    6.6850    0.8547    0.4139 C   0  0  0  0  0  0  0  0  0  0  0  0
    6.6770    0.4999    1.7617 C   0  0  0  0  0  0  0  0  0  0  0  0
    5.6769   -0.3288    2.2517 C   0  0  0  0  0  0  0  0  0  0  0  0
    4.6865   -0.8057    1.3944 C   0  0  0  0  0  0  0  0  0  0  0  0
    4.6786   -0.4608    0.0312 C   0  0  0  0  0  0  0  0  0  0  0  0
    3.5638   -1.0110   -0.8392 C   0  0  0  0  0  0  0  0  0  0  0  0
    2.2724   -0.1810   -0.7162 C   0  0  0  0  0  0  0  0  0  0  0  0
    1.1972   -0.7079   -1.5711 N   0  0  0  0  0  0  0  0  0  0  0  0
    0.1917    0.3463   -1.8499 C   0  0  0  0  0  0  0  0  0  0  0  0
   -1.1791   -0.2360   -2.2386 C   0  0  0  0  0  0  0  0  0  0  0  0
   -1.7779   -0.9590   -1.0934 N   0  0  0  0  0  0  0  0  0  0  0  0
   -2.8103   -0.3365   -0.3904 C   0  0  0  0  0  0  0  0  0  0  0  0
   -2.8914    0.9701   -0.3999 N   0  0  0  0  0  0  0  0  0  0  0  0
   -3.8988    1.6314    0.3296 C   0  0  0  0  0  0  0  0  0  0  0  0
   -3.9364    3.0265    0.2905 C   0  0  0  0  0  0  0  0  0  0  0  0
   -4.9073    3.7332    1.0042 C   0  0  0  0  0  0  0  0  0  0  0  0
   -5.8537    3.0476    1.7673 C   0  0  0  0  0  0  0  0  0  0  0  0
   -5.8361    1.6533    1.8196 C   0  0  0  0  0  0  0  0  0  0  0  0
   -4.8583    0.9599    1.1011 C   0  0  0  0  0  0  0  0  0  0  0  0
   -4.7733   -0.4414    1.0887 N   0  0  0  0  0  0  0  0  0  0  0  0
   -5.5678   -1.3733    1.7141 C   0  0  0  0  0  0  0  0  0  0  0  0
   -5.1260   -2.6282    1.3532 C   0  0  0  0  0  0  0  0  0  0  0  0
   -4.0189   -2.4497    0.4906 C   0  0  0  0  0  0  0  0  0  0  0  0
   -3.7984   -1.0897    0.3638 C   0  0  0  0  0  0  0  0  0  0  0  0
   -0.7821   -1.6966   -0.2804 C   0  0  0  0  0  0  0  0  0  0  0  0
    0.5526   -1.9237   -1.0262 C   0  0  0  0  0  0  0  0  0  0  0  0
    7.4795    1.5003    0.0492 H   0  0  0  0  0  0  0  0  0  0  0  0
    7.4524    0.8699    2.4279 H   0  0  0  0  0  0  0  0  0  0  0  0
    5.6688   -0.6078    3.3021 H   0  0  0  0  0  0  0  0  0  0  0  0
    3.9139   -1.4600    1.7976 H   0  0  0  0  0  0  0  0  0  0  0  0
    3.8810   -1.0559   -1.8877 H   0  0  0  0  0  0  0  0  0  0  0  0
    3.3900   -2.0558   -0.5502 H   0  0  0  0  0  0  0  0  0  0  0  0
    1.9391   -0.1177    0.3299 H   0  0  0  0  0  0  0  0  0  0  0  0
    2.5141    0.8466   -1.0242 H   0  0  0  0  0  0  0  0  0  0  0  0
    0.5649    0.9701   -2.6700 H   0  0  0  0  0  0  0  0  0  0  0  0
    0.0591    0.9955   -0.9742 H   0  0  0  0  0  0  0  0  0  0  0  0
   -1.0665   -0.9396   -3.0746 H   0  0  0  0  0  0  0  0  0  0  0  0
   -1.8382    0.5595   -2.6081 H   0  0  0  0  0  0  0  0  0  0  0  0
   -3.1999    3.5628   -0.3036 H   0  0  0  0  0  0  0  0  0  0  0  0
   -4.9228    4.8184    0.9642 H   0  0  0  0  0  0  0  0  0  0  0  0
   -6.6070    3.6028    2.3206 H   0  0  0  0  0  0  0  0  0  0  0  0
   -6.5840    1.1422    2.4165 H   0  0  0  0  0  0  0  0  0  0  0  0
   -6.3919   -1.0852    2.3504 H   0  0  0  0  0  0  0  0  0  0  0  0
   -5.5629   -3.5681    1.6682 H   0  0  0  0  0  0  0  0  0  0  0  0
   -3.4491   -3.2300    0.0051 H   0  0  0  0  0  0  0  0  0  0  0  0
   -1.1895   -2.6722    0.0019 H   0  0  0  0  0  0  0  0  0  0  0  0
   -0.5780   -1.1409    0.6439 H   0  0  0  0  0  0  0  0  0  0  0  0
    1.2299   -2.4839   -0.3726 H   0  0  0  0  0  0  0  0  0  0  0  0
    0.3567   -2.5877   -1.8782 H   0  0  0  0  0  0  0  0  0  0  0  0
  1  2  1  0
  2  3  1  0
  2  4  1  0
  2  5  1  0
  5  6  2  0
  6  7  1  0
  7  8  2  0
  8  9  1  0
  9 10  2  0
 10 11  1  0
 11 12  1  0
 12 13  1  0
 13 14  1  0
 14 15  1  0
 15 16  1  0
 16 17  1  0
 17 18  2  0
 18 19  1  0
 19 20  2  0
 20 21  1  0
 21 22  2  0
 22 23  1  0
 23 24  2  0
 24 25  1  0
 25 26  1  0
 26 27  2  0
 27 28  1  0
 28 29  2  0
 16 30  1  0
 30 31  1  0
 10  5  1  0
 31 13  1  0
 29 17  1  0
 24 19  1  0
 29 25  1  0
  6 32  1  0
  7 33  1  0
  8 34  1  0
  9 35  1  0
 11 36  1  0
 11 37  1  0
 12 38  1  0
 12 39  1  0
 14 40  1  0
 14 41  1  0
 15 42  1  0
 15 43  1  0
 20 44  1  0
 21 45  1  0
 22 46  1  0
 23 47  1  0
 26 48  1  0
 27 49  1  0
 28 50  1  0
 30 51  1  0
 30 52  1  0
 31 53  1  0
 31 54  1  0
M  END
$$$$
