
     RDKit          3D

 50 52  0  0  0  0  0  0  0  0999 V2000
    1.1966    1.3248   -2.4480 C   0  0  0  0  0  0  0  0  0  0  0  0
    1.7539   -0.0505   -2.1114 C   0  0  0  0  0  0  0  0  0  0  0  0
    2.6101   -0.0229   -0.9144 N   0  0  0  0  0  4  0  0  0  0  0  0
    2.2201   -0.4580    0.2810 C   0  0  0  0  0  0  0  0  0  0  0  0
    0.9736   -1.0147    0.6635 C   0  0  0  0  0  0  0  0  0  0  0  0
   -0.1954   -0.3710    0.5197 C   0  0  0  0  0  0  0  0  0  0  0  0
   -1.4460   -0.9788    0.9292 C   0  0  0  0  0  0  0  0  0  0  0  0
   -2.6535   -0.4910    0.6036 C   0  0  0  0  0  0  0  0  0  0  0  0
   -3.8991   -1.0386    0.9500 N   0  0  0  0  0  0  0  0  0  0  0  0
   -3.9880   -2.3177    1.5500 C   0  0  0  0  0  0  0  0  0  0  0  0
   -5.1138   -2.5237    2.5475 C   0  0  0  0  0  0  0  0  0  0  0  0
   -3.1852   -3.2358    1.3591 O   0  0  0  0  0  0  0  0  0  0  0  0
   -5.1096   -0.3465    0.5581 C   0  0  0  0  0  0  0  0  0  0  0  0
   -6.2337   -1.0646    0.1075 C   0  0  0  0  0  0  0  0  0  0  0  0
   -7.4028   -0.4013   -0.2862 C   0  0  0  0  0  0  0  0  0  0  0  0
   -7.4626    0.9904   -0.2493 C   0  0  0  0  0  0  0  0  0  0  0  0
   -6.3517    1.7210    0.1725 C   0  0  0  0  0  0  0  0  0  0  0  0
   -5.1833    1.0584    0.5715 C   0  0  0  0  0  0  0  0  0  0  0  0
    3.5124   -0.3833    1.4179 S   0  0  0  0  0  0  0  0  0  0  0  0
    4.5968    0.2601    0.2477 C   0  0  0  0  0  0  0  0  0  0  0  0
    5.9514    0.6069    0.4149 C   0  0  0  0  0  0  0  0  0  0  0  0
    6.6467    1.0956   -0.6924 C   0  0  0  0  0  0  0  0  0  0  0  0
    7.9628    1.4702   -0.7012 O   0  0  0  0  0  0  0  0  0  0  0  0
    8.7424    1.1629    0.4540 C   0  0  0  0  0  0  0  0  0  0  0  0
    5.9986    1.2383   -1.9192 C   0  0  0  0  0  0  0  0  0  0  0  0
    4.6504    0.8892   -2.0827 C   0  0  0  0  0  0  0  0  0  0  0  0
    3.9391    0.3944   -0.9733 C   0  0  0  0  0  0  0  0  0  0  0  0
    1.9912    2.0142   -2.7478 H   0  0  0  0  0  0  0  0  0  0  0  0
    0.4807    1.2621   -3.2725 H   0  0  0  0  0  0  0  0  0  0  0  0
    0.6908    1.7718   -1.5895 H   0  0  0  0  0  0  0  0  0  0  0  0
    2.3360   -0.4358   -2.9549 H   0  0  0  0  0  0  0  0  0  0  0  0
    0.9343   -0.7644   -1.9790 H   0  0  0  0  0  0  0  0  0  0  0  0
    0.9929   -2.0005    1.1288 H   0  0  0  0  0  0  0  0  0  0  0  0
   -0.2575    0.6325    0.1091 H   0  0  0  0  0  0  0  0  0  0  0  0
   -1.3600   -1.8850    1.5270 H   0  0  0  0  0  0  0  0  0  0  0  0
   -2.7048    0.4145    0.0003 H   0  0  0  0  0  0  0  0  0  0  0  0
   -4.6845   -2.9357    3.4697 H   0  0  0  0  0  0  0  0  0  0  0  0
   -5.6149   -1.5894    2.8211 H   0  0  0  0  0  0  0  0  0  0  0  0
   -5.8386   -3.2362    2.1426 H   0  0  0  0  0  0  0  0  0  0  0  0
   -6.2103   -2.1489    0.0088 H   0  0  0  0  0  0  0  0  0  0  0  0
   -8.2635   -0.9744   -0.6329 H   0  0  0  0  0  0  0  0  0  0  0  0
   -8.3723    1.5060   -0.5575 H   0  0  0  0  0  0  0  0  0  0  0  0
   -6.3988    2.8113    0.1956 H   0  0  0  0  0  0  0  0  0  0  0  0
   -4.3503    1.6662    0.9225 H   0  0  0  0  0  0  0  0  0  0  0  0
    6.4242    0.4817    1.3856 H   0  0  0  0  0  0  0  0  0  0  0  0
    8.4134    1.7534    1.3149 H   0  0  0  0  0  0  0  0  0  0  0  0
    9.7813    1.4318    0.2380 H   0  0  0  0  0  0  0  0  0  0  0  0
    8.7146    0.0879    0.6727 H   0  0  0  0  0  0  0  0  0  0  0  0
    6.5606    1.6182   -2.7717 H   0  0  0  0  0  0  0  0  0  0  0  0
    4.2050    1.0047   -3.0660 H   0  0  0  0  0  0  0  0  0  0  0  0
  1  2  1  0
  2  3  1  0
  3  4  2  0
  4  5  1  0
  5  6  2  3
  6  7  1  0
  7  8  2  3
  8  9  1  0
  9 10  1  0
 10 11  1  0
 10 12  2  0
  9 13  1  0
 13 14  2  0
 14 15  1  0
 15 16  2  0
 16 17  1  0
 17 18  2  0
  4 19  1  0
 19 20  1  0
 20 21  2  0
 21 22  1  0
 22 23  1  0
 23 24  1  0
 22 25  2  0
 25 26  1  0
 26 27  2  0
 27  3  1  0
 18 13  1  0
 27 20  1  0
  1 28  1  0
  1 29  1  0
  1 30  1  0
  2 31  1  0
  2 32  1  0
  5 33  1  0
  6 34  1  0
  7 35  1  0
  8 36  1  0
 11 37  1  0
 11 38  1  0
 11 39  1  0
 14 40  1  0
 15 41  1  0
 16 42  1  0
 17 43  1  0
 18 44  1  0
 21 45  1  0
 24 46  1  0
 24 47  1  0
 24 48  1  0
 25 49  1  0
 26 50  1  0
M  CHG  1   3   1
M  END
$$$$
