
     RDKit          3D

 50 53  0  0  0  0  0  0  0  0999 V2000
    6.8618    1.2582    2.1105 C   0  0  0  0  0  0  0  0  0  0  0  0
    5.6321    0.9504    1.3084 C   0  0  0  0  0  0  0  0  0  0  0  0
    4.7764    1.9708    0.8983 C   0  0  0  0  0  0  0  0  0  0  0  0
    3.6418    1.6844    0.1306 C   0  0  0  0  0  0  0  0  0  0  0  0
    3.3413    0.3731   -0.2528 C   0  0  0  0  0  0  0  0  0  0  0  0
    2.1981    0.0486   -1.0280 N   0  0  0  0  0  0  0  0  0  0  0  0
    1.1957    0.9041   -1.4546 C   0  0  0  0  0  0  0  0  0  0  0  0
    1.0874    2.0993   -1.1890 O   0  0  0  0  0  0  0  0  0  0  0  0
    0.1042    0.2163   -2.2849 C   0  0  0  0  0  0  0  0  0  0  0  0
   -1.1145   -0.0319   -1.4983 N   0  0  0  0  0  4  0  0  0  0  0  0
   -1.7580    0.8793   -0.6512 C   0  0  0  0  0  0  0  0  0  0  0  0
   -2.8935    0.2774   -0.1213 C   0  0  0  0  0  0  0  0  0  0  0  0
   -3.9109    0.9348    0.8776 C   0  0  0  0  0  0  0  0  0  0  0  0
   -3.6753    2.2291    1.3598 C   0  0  0  0  0  0  0  0  0  0  0  0
   -4.5699    2.8167    2.2588 C   0  0  0  0  0  0  0  0  0  0  0  0
   -5.7006    2.1195    2.6769 C   0  0  0  0  0  0  0  0  0  0  0  0
   -5.9420    0.8346    2.1944 C   0  0  0  0  0  0  0  0  0  0  0  0
   -5.0499    0.2417    1.2956 C   0  0  0  0  0  0  0  0  0  0  0  0
   -2.8802   -0.9850   -0.6908 N   0  0  0  0  0  0  0  0  0  0  0  0
   -1.8444   -1.1403   -1.5064 C   0  0  0  0  0  0  0  0  0  0  0  0
   -1.8137   -2.4660   -2.1659 C   0  0  0  0  0  0  0  0  0  0  0  0
   -2.8741   -3.2513   -1.3715 C   0  0  0  0  0  0  0  0  0  0  0  0
   -3.7251   -2.1698   -0.6489 C   0  0  0  0  0  0  0  0  0  0  0  0
    4.2148   -0.6648    0.1380 C   0  0  0  0  0  0  0  0  0  0  0  0
    3.9785   -2.1075   -0.2255 C   0  0  0  0  0  0  0  0  0  0  0  0
    5.3490   -0.3616    0.9160 C   0  0  0  0  0  0  0  0  0  0  0  0
    6.7297    2.1758    2.6897 H   0  0  0  0  0  0  0  0  0  0  0  0
    7.0685    0.4539    2.8247 H   0  0  0  0  0  0  0  0  0  0  0  0
    7.7239    1.3771    1.4473 H   0  0  0  0  0  0  0  0  0  0  0  0
    4.9833    3.0042    1.1702 H   0  0  0  0  0  0  0  0  0  0  0  0
    3.0259    2.5282   -0.1615 H   0  0  0  0  0  0  0  0  0  0  0  0
    2.1075   -0.9302   -1.2586 H   0  0  0  0  0  0  0  0  0  0  0  0
   -0.1565    0.8599   -3.1304 H   0  0  0  0  0  0  0  0  0  0  0  0
    0.4708   -0.7332   -2.6891 H   0  0  0  0  0  0  0  0  0  0  0  0
   -1.3256    1.8599   -0.5327 H   0  0  0  0  0  0  0  0  0  0  0  0
   -2.8035    2.8074    1.0639 H   0  0  0  0  0  0  0  0  0  0  0  0
   -4.3834    3.8202    2.6359 H   0  0  0  0  0  0  0  0  0  0  0  0
   -6.3967    2.5765    3.3787 H   0  0  0  0  0  0  0  0  0  0  0  0
   -6.8302    0.2973    2.5195 H   0  0  0  0  0  0  0  0  0  0  0  0
   -5.2846   -0.7521    0.9392 H   0  0  0  0  0  0  0  0  0  0  0  0
   -0.8140   -2.8846   -2.0746 H   0  0  0  0  0  0  0  0  0  0  0  0
   -2.1005   -2.3069   -3.2063 H   0  0  0  0  0  0  0  0  0  0  0  0
   -2.3729   -3.8715   -0.6190 H   0  0  0  0  0  0  0  0  0  0  0  0
   -3.4754   -3.9147   -2.0015 H   0  0  0  0  0  0  0  0  0  0  0  0
   -3.9349   -2.4647    0.3810 H   0  0  0  0  0  0  0  0  0  0  0  0
   -4.6519   -1.9685   -1.1972 H   0  0  0  0  0  0  0  0  0  0  0  0
    3.9038   -2.2222   -1.3088 H   0  0  0  0  0  0  0  0  0  0  0  0
    3.0611   -2.4691    0.2462 H   0  0  0  0  0  0  0  0  0  0  0  0
    4.7989   -2.7454    0.1059 H   0  0  0  0  0  0  0  0  0  0  0  0
    6.0276   -1.1574    1.2187 H   0  0  0  0  0  0  0  0  0  0  0  0
  1  2  1  0
  2  3  2  0
  3  4  1  0
  4  5  2  0
  5  6  1  0
  6  7  1  0
  7  8  2  0
  7  9  1  0
  9 10  1  0
 10 11  1  0
 11 12  2  0
 12 13  1  0
 13 14  2  0
 14 15  1  0
 15 16  2  0
 16 17  1  0
 17 18  2  0
 12 19  1  0
 19 20  1  0
 20 21  1  0
 21 22  1  0
 22 23  1  0
  5 24  1  0
 24 25  1  0
 24 26  2  0
 26  2  1  0
 20 10  2  0
 18 13  1  0
 23 19  1  0
  1 27  1  0
  1 28  1  0
  1 29  1  0
  3 30  1  0
  4 31  1  0
  6 32  1  0
  9 33  1  0
  9 34  1  0
 11 35  1  0
 14 36  1  0
 15 37  1  0
 16 38  1  0
 17 39  1  0
 18 40  1  0
 21 41  1  0
 21 42  1  0
 22 43  1  0
 22 44  1  0
 23 45  1  0
 23 46  1  0
 25 47  1  0
 25 48  1  0
 25 49  1  0
 26 50  1  0
M  CHG  1  10   1
M  END
$$$$
