
     RDKit          3D

 52 55  0  0  0  0  0  0  0  0999 V2000
   -7.4084    3.1779    1.2489 C   0  0  0  0  0  0  0  0  0  0  0  0
   -6.5825    2.6842    0.0742 C   0  0  0  0  0  0  0  0  0  0  0  0
   -5.4412    1.7767    0.5238 C   0  0  0  0  0  0  0  0  0  0  0  0
   -4.7288    1.3613   -0.6418 O   0  0  0  0  0  0  0  0  0  0  0  0
   -3.6390    0.5575   -0.4507 C   0  0  0  0  0  0  0  0  0  0  0  0
   -2.9547    0.2160   -1.6198 C   0  0  0  0  0  0  0  0  0  0  0  0
   -1.8214   -0.5998   -1.5717 C   0  0  0  0  0  0  0  0  0  0  0  0
   -1.3636   -1.0901   -0.3455 C   0  0  0  0  0  0  0  0  0  0  0  0
   -0.1809   -1.9382   -0.2873 C   0  0  0  0  0  0  0  0  0  0  0  0
    1.1543   -1.5959   -0.1203 C   0  0  0  0  0  0  0  0  0  0  0  0
    1.7459   -0.2709    0.0523 C   0  0  0  0  0  0  0  0  0  0  0  0
    1.0807    0.7592    0.0759 O   0  0  0  0  0  0  0  0  0  0  0  0
    3.1272   -0.3316    0.1864 N   0  0  0  0  0  0  0  0  0  0  0  0
    3.8623    0.8023    0.3632 N   0  0  0  0  0  0  0  0  0  0  0  0
    5.1397    0.6254    0.4786 C   0  0  0  0  0  0  0  0  0  0  0  0
    6.0663    1.7576    0.6763 C   0  0  0  0  0  0  0  0  0  0  0  0
    5.5890    3.0699    0.7447 C   0  0  0  0  0  0  0  0  0  0  0  0
    6.4841    4.1238    0.9329 C   0  0  0  0  0  0  0  0  0  0  0  0
    7.8501    3.8667    1.0529 C   0  0  0  0  0  0  0  0  0  0  0  0
    8.3257    2.5563    0.9843 C   0  0  0  0  0  0  0  0  0  0  0  0
    7.4348    1.4978    0.7959 C   0  0  0  0  0  0  0  0  0  0  0  0
    1.9203   -2.7340   -0.1367 N   0  0  0  0  0  0  0  0  0  0  0  0
    1.1202   -3.7710   -0.3012 N   0  0  0  0  0  0  0  0  0  0  0  0
   -0.1728   -3.3321   -0.3864 N   0  0  0  0  0  0  0  0  0  0  0  0
   -1.2492   -4.2401   -0.5579 C   0  0  0  0  0  0  0  0  0  0  0  0
   -2.5064   -3.8129   -0.6764 N   0  0  0  0  0  0  0  0  0  0  0  0
   -3.2502   -4.9792   -0.8384 O   0  0  0  0  0  0  0  0  0  0  0  0
   -2.4338   -6.1053   -0.8172 N   0  0  0  0  0  0  0  0  0  0  0  0
   -1.1969   -5.6449   -0.6355 C   0  0  0  0  0  0  0  0  0  0  0  0
   -0.1041   -6.4266   -0.5444 N   0  0  0  0  0  0  0  0  0  0  0  0
   -2.0434   -0.7435    0.8272 C   0  0  0  0  0  0  0  0  0  0  0  0
   -3.1784    0.0745    0.7743 C   0  0  0  0  0  0  0  0  0  0  0  0
   -6.7919    3.7515    1.9489 H   0  0  0  0  0  0  0  0  0  0  0  0
   -8.2167    3.8270    0.8982 H   0  0  0  0  0  0  0  0  0  0  0  0
   -7.8573    2.3400    1.7926 H   0  0  0  0  0  0  0  0  0  0  0  0
   -6.1753    3.5388   -0.4802 H   0  0  0  0  0  0  0  0  0  0  0  0
   -7.2250    2.1446   -0.6325 H   0  0  0  0  0  0  0  0  0  0  0  0
   -5.8530    0.9025    1.0430 H   0  0  0  0  0  0  0  0  0  0  0  0
   -4.7759    2.3339    1.1950 H   0  0  0  0  0  0  0  0  0  0  0  0
   -3.3048    0.5943   -2.5772 H   0  0  0  0  0  0  0  0  0  0  0  0
   -1.3048   -0.8398   -2.4972 H   0  0  0  0  0  0  0  0  0  0  0  0
    3.5834   -1.2383    0.1553 H   0  0  0  0  0  0  0  0  0  0  0  0
    5.5917   -0.3819    0.4351 H   0  0  0  0  0  0  0  0  0  0  0  0
    4.5248    3.2770    0.6509 H   0  0  0  0  0  0  0  0  0  0  0  0
    6.1144    5.1448    0.9851 H   0  0  0  0  0  0  0  0  0  0  0  0
    8.5452    4.6902    1.1994 H   0  0  0  0  0  0  0  0  0  0  0  0
    9.3914    2.3619    1.0774 H   0  0  0  0  0  0  0  0  0  0  0  0
    7.8187    0.4828    0.7443 H   0  0  0  0  0  0  0  0  0  0  0  0
   -0.1731   -7.4017   -0.8166 H   0  0  0  0  0  0  0  0  0  0  0  0
    0.8338   -6.0346   -0.6031 H   0  0  0  0  0  0  0  0  0  0  0  0
   -1.6966   -1.1006    1.7941 H   0  0  0  0  0  0  0  0  0  0  0  0
   -3.6740    0.3168    1.7082 H   0  0  0  0  0  0  0  0  0  0  0  0
  1  2  1  0
  2  3  1  0
  3  4  1  0
  4  5  1  0
  5  6  2  0
  6  7  1  0
  7  8  2  0
  8  9  1  0
  9 10  2  0
 10 11  1  0
 11 12  2  0
 11 13  1  0
 13 14  1  0
 14 15  2  3
 15 16  1  0
 16 17  2  0
 17 18  1  0
 18 19  2  0
 19 20  1  0
 20 21  2  0
 10 22  1  0
 22 23  2  0
 23 24  1  0
 24 25  1  0
 25 26  2  0
 26 27  1  0
 27 28  1  0
 28 29  2  0
 29 30  1  0
  8 31  1  0
 31 32  2  0
 32  5  1  0
 24  9  1  0
 29 25  1  0
 21 16  1  0
  1 33  1  0
  1 34  1  0
  1 35  1  0
  2 36  1  0
  2 37  1  0
  3 38  1  0
  3 39  1  0
  6 40  1  0
  7 41  1  0
 13 42  1  0
 15 43  1  0
 17 44  1  0
 18 45  1  0
 19 46  1  0
 20 47  1  0
 21 48  1  0
 30 49  1  0
 30 50  1  0
 31 51  1  0
 32 52  1  0
M  END
$$$$
