
     RDKit          3D

 52 56  0  0  0  0  0  0  0  0999 V2000
    3.6213   -2.3669    0.1004 O   0  0  0  0  0  0  0  0  0  0  0  0
    2.5404   -1.8547    0.3888 C   0  0  0  0  0  0  0  0  0  0  0  0
    1.2896   -2.7117    0.4565 C   0  0  0  0  0  0  0  0  0  0  0  0
    0.1345   -2.3162   -0.8907 S   0  0  0  0  0  0  0  0  0  0  0  0
   -0.9577   -1.2598   -0.0554 C   0  0  0  0  0  0  0  0  0  0  0  0
   -0.5686   -0.3745    0.8343 N   0  0  0  0  0  0  0  0  0  0  0  0
   -1.6881    0.1588    1.4067 N   0  0  0  0  0  0  0  0  0  0  0  0
   -2.7507   -0.4086    0.8599 C   0  0  0  0  0  0  0  0  0  0  0  0
   -4.1590    0.0062    1.1462 C   0  0  0  0  0  0  0  0  0  0  0  0
   -4.7159    0.9163    0.0894 C   0  0  0  0  0  0  0  0  0  0  0  0
   -4.3828    2.2319   -0.1664 C   0  0  0  0  0  0  0  0  0  0  0  0
   -5.1363    2.7866   -1.2372 C   0  0  0  0  0  0  0  0  0  0  0  0
   -6.0272    1.8775   -1.7613 C   0  0  0  0  0  0  0  0  0  0  0  0
   -5.9622    0.3761   -0.9537 S   0  0  0  0  0  0  0  0  0  0  0  0
   -2.3399   -1.3271   -0.1016 N   0  0  0  0  0  0  0  0  0  0  0  0
   -3.1428   -2.1619   -0.9131 C   0  0  0  0  0  0  0  0  0  0  0  0
   -4.1669   -2.9259   -0.3356 C   0  0  0  0  0  0  0  0  0  0  0  0
   -4.9469   -3.7596   -1.1394 C   0  0  0  0  0  0  0  0  0  0  0  0
   -4.7039   -3.8325   -2.5120 C   0  0  0  0  0  0  0  0  0  0  0  0
   -3.6832   -3.0736   -3.0877 C   0  0  0  0  0  0  0  0  0  0  0  0
   -2.8950   -2.2437   -2.2903 C   0  0  0  0  0  0  0  0  0  0  0  0
    2.3270   -0.5278    0.7203 N   0  0  0  0  0  0  0  0  0  0  0  0
    3.2819    0.5099    0.7851 C   0  0  0  0  0  0  0  0  0  0  0  0
    2.7963    1.8087    0.9823 C   0  0  0  0  0  0  0  0  0  0  0  0
    3.6738    2.8960    1.0493 C   0  0  0  0  0  0  0  0  0  0  0  0
    5.0448    2.6896    0.9412 C   0  0  0  0  0  0  0  0  0  0  0  0
    5.5352    1.4002    0.7219 C   0  0  0  0  0  0  0  0  0  0  0  0
    4.6587    0.3142    0.6567 C   0  0  0  0  0  0  0  0  0  0  0  0
    6.8745    1.1223    0.5808 O   0  0  0  0  0  0  0  0  0  0  0  0
    7.6084    2.3093    0.2648 C   0  0  0  0  0  0  0  0  0  0  0  0
    7.2232    3.4393    1.2103 C   0  0  0  0  0  0  0  0  0  0  0  0
    5.8460    3.7991    1.0422 O   0  0  0  0  0  0  0  0  0  0  0  0
    0.8259   -2.6272    1.4450 H   0  0  0  0  0  0  0  0  0  0  0  0
    1.5914   -3.7577    0.3373 H   0  0  0  0  0  0  0  0  0  0  0  0
   -4.1650    0.5567    2.0974 H   0  0  0  0  0  0  0  0  0  0  0  0
   -4.8057   -0.8588    1.3205 H   0  0  0  0  0  0  0  0  0  0  0  0
   -3.6367    2.7836    0.4069 H   0  0  0  0  0  0  0  0  0  0  0  0
   -5.0455    3.8087   -1.5933 H   0  0  0  0  0  0  0  0  0  0  0  0
   -6.7266    2.0255   -2.5711 H   0  0  0  0  0  0  0  0  0  0  0  0
   -4.3465   -2.9312    0.7367 H   0  0  0  0  0  0  0  0  0  0  0  0
   -5.7316   -4.3683   -0.6908 H   0  0  0  0  0  0  0  0  0  0  0  0
   -5.3099   -4.4855   -3.1354 H   0  0  0  0  0  0  0  0  0  0  0  0
   -3.5030   -3.1301   -4.1619 H   0  0  0  0  0  0  0  0  0  0  0  0
   -2.1210   -1.6483   -2.7690 H   0  0  0  0  0  0  0  0  0  0  0  0
    1.3520   -0.2427    0.8401 H   0  0  0  0  0  0  0  0  0  0  0  0
    1.7259    1.9965    1.0619 H   0  0  0  0  0  0  0  0  0  0  0  0
    3.2920    3.9068    1.1884 H   0  0  0  0  0  0  0  0  0  0  0  0
    5.0830   -0.6728    0.5073 H   0  0  0  0  0  0  0  0  0  0  0  0
    8.6741    2.0805    0.3562 H   0  0  0  0  0  0  0  0  0  0  0  0
    7.4033    2.5785   -0.7780 H   0  0  0  0  0  0  0  0  0  0  0  0
    7.8264    4.3290    0.9955 H   0  0  0  0  0  0  0  0  0  0  0  0
    7.3891    3.1594    2.2571 H   0  0  0  0  0  0  0  0  0  0  0  0
  1  2  2  0
  2  3  1  0
  3  4  1  0
  4  5  1  0
  5  6  2  0
  6  7  1  0
  7  8  2  0
  8  9  1  0
  9 10  1  0
 10 11  2  0
 11 12  1  0
 12 13  2  0
 13 14  1  0
  8 15  1  0
 15 16  1  0
 16 17  2  0
 17 18  1  0
 18 19  2  0
 19 20  1  0
 20 21  2  0
  2 22  1  0
 22 23  1  0
 23 24  2  0
 24 25  1  0
 25 26  2  0
 26 27  1  0
 27 28  2  0
 27 29  1  0
 29 30  1  0
 30 31  1  0
 31 32  1  0
 15  5  1  0
 21 16  1  0
 28 23  1  0
 14 10  1  0
 32 26  1  0
  3 33  1  0
  3 34  1  0
  9 35  1  0
  9 36  1  0
 11 37  1  0
 12 38  1  0
 13 39  1  0
 17 40  1  0
 18 41  1  0
 19 42  1  0
 20 43  1  0
 21 44  1  0
 22 45  1  0
 24 46  1  0
 25 47  1  0
 28 48  1  0
 30 49  1  0
 30 50  1  0
 31 51  1  0
 31 52  1  0
M  END
$$$$
