
     RDKit          3D

 74 79  0  0  0  0  0  0  0  0999 V2000
    8.4638   -4.3553   -2.3982 C   0  0  0  0  0  0  0  0  0  0  0  0
    8.5252   -2.9349   -2.3690 O   0  0  0  0  0  0  0  0  0  0  0  0
    7.3908   -2.2750   -1.9877 C   0  0  0  0  0  0  0  0  0  0  0  0
    7.4854   -0.8855   -2.0142 C   0  0  0  0  0  0  0  0  0  0  0  0
    6.3951   -0.0886   -1.6467 C   0  0  0  0  0  0  0  0  0  0  0  0
    5.1721   -0.6540   -1.2430 C   0  0  0  0  0  0  0  0  0  0  0  0
    4.0320    0.2089   -0.8595 C   0  0  0  0  0  0  0  0  0  0  0  0
    2.7095   -0.1856   -0.9585 C   0  0  0  0  0  0  0  0  0  0  0  0
    1.7135    0.7051   -0.5526 C   0  0  0  0  0  0  0  0  0  0  0  0
    0.3230    0.1984   -0.6167 C   0  0  0  0  0  0  0  0  0  0  0  0
   -0.0970   -0.2229   -1.6858 O   0  0  0  0  0  0  0  0  0  0  0  0
   -0.3369    0.2272    0.5882 N   0  0  0  0  0  0  0  0  0  0  0  0
   -1.6608   -0.1602    0.8745 C   0  0  0  0  0  0  0  0  0  0  0  0
   -2.5216   -0.7401   -0.0555 C   0  0  0  0  0  0  0  0  0  0  0  0
   -3.8312   -1.0418    0.3267 C   0  0  0  0  0  0  0  0  0  0  0  0
   -4.9447   -1.7973   -0.8339 S   0  0  0  0  0  6  0  0  0  0  0  0
   -4.1852   -2.2689   -1.9699 O   0  0  0  0  0  0  0  0  0  0  0  0
   -5.7910   -2.7012   -0.0830 O   0  0  0  0  0  0  0  0  0  0  0  0
   -5.9006   -0.4811   -1.3374 N   0  0  0  0  0  0  0  0  0  0  0  0
   -5.2187    0.5966   -2.1258 C   0  0  0  0  0  0  0  0  0  0  0  0
   -5.1227    0.2512   -3.6177 C   0  0  0  0  0  0  0  0  0  0  0  0
   -6.4121   -0.0597   -4.1652 O   0  0  0  0  0  0  0  0  0  0  0  0
   -6.9898   -1.1803   -3.4792 C   0  0  0  0  0  0  0  0  0  0  0  0
   -7.1921   -0.8587   -1.9960 C   0  0  0  0  0  0  0  0  0  0  0  0
   -4.2768   -0.7991    1.6297 C   0  0  0  0  0  0  0  0  0  0  0  0
   -3.4080   -0.2331    2.5636 C   0  0  0  0  0  0  0  0  0  0  0  0
   -2.0940    0.0940    2.2019 C   0  0  0  0  0  0  0  0  0  0  0  0
   -1.1681    0.6635    3.1113 N   0  0  0  0  0  0  0  0  0  0  0  0
   -0.6766   -0.3330    4.0963 C   0  0  0  0  0  0  0  0  0  0  0  0
    0.0787    0.3908    5.2216 C   0  0  0  0  0  0  0  0  0  0  0  0
   -0.7485    1.2950    5.9727 O   0  0  0  0  0  0  0  0  0  0  0  0
   -1.8766    1.7874    5.2339 C   0  0  0  0  0  0  0  0  0  0  0  0
   -1.6057    1.9410    3.7291 C   0  0  0  0  0  0  0  0  0  0  0  0
    2.0303    2.0046   -0.1004 C   0  0  0  0  0  0  0  0  0  0  0  0
    1.0870    3.0030    0.2602 C   0  0  0  0  0  0  0  0  0  0  0  0
    1.5004    4.2583    0.7023 C   0  0  0  0  0  0  0  0  0  0  0  0
    2.8561    4.5390    0.7838 C   0  0  0  0  0  0  0  0  0  0  0  0
    3.7867    3.5661    0.4123 C   0  0  0  0  0  0  0  0  0  0  0  0
    3.4004    2.3095   -0.0353 C   0  0  0  0  0  0  0  0  0  0  0  0
    4.3603    1.4400   -0.3917 N   0  0  0  0  0  0  0  0  0  0  0  0
    5.1014   -2.0590   -1.2152 C   0  0  0  0  0  0  0  0  0  0  0  0
    6.1938   -2.8606   -1.5838 C   0  0  0  0  0  0  0  0  0  0  0  0
    9.4366   -4.7251   -2.7373 H   0  0  0  0  0  0  0  0  0  0  0  0
    7.7077   -4.7038   -3.1104 H   0  0  0  0  0  0  0  0  0  0  0  0
    8.2832   -4.7634   -1.3977 H   0  0  0  0  0  0  0  0  0  0  0  0
    8.4148   -0.4128   -2.3230 H   0  0  0  0  0  0  0  0  0  0  0  0
    6.5087    0.9941   -1.6809 H   0  0  0  0  0  0  0  0  0  0  0  0
    2.4333   -1.1606   -1.3467 H   0  0  0  0  0  0  0  0  0  0  0  0
    0.1356    0.6076    1.4070 H   0  0  0  0  0  0  0  0  0  0  0  0
   -2.1946   -0.9593   -1.0672 H   0  0  0  0  0  0  0  0  0  0  0  0
   -5.8229    1.5045   -2.0034 H   0  0  0  0  0  0  0  0  0  0  0  0
   -4.2315    0.8248   -1.7178 H   0  0  0  0  0  0  0  0  0  0  0  0
   -4.4419   -0.5835   -3.8094 H   0  0  0  0  0  0  0  0  0  0  0  0
   -4.7355    1.1160   -4.1667 H   0  0  0  0  0  0  0  0  0  0  0  0
   -6.3572   -2.0626   -3.6261 H   0  0  0  0  0  0  0  0  0  0  0  0
   -7.9576   -1.3860   -3.9470 H   0  0  0  0  0  0  0  0  0  0  0  0
   -7.8678   -0.0001   -1.8936 H   0  0  0  0  0  0  0  0  0  0  0  0
   -7.6679   -1.6959   -1.4765 H   0  0  0  0  0  0  0  0  0  0  0  0
   -5.2936   -1.0555    1.9214 H   0  0  0  0  0  0  0  0  0  0  0  0
   -3.7653   -0.0618    3.5746 H   0  0  0  0  0  0  0  0  0  0  0  0
   -1.5097   -0.8988    4.5341 H   0  0  0  0  0  0  0  0  0  0  0  0
   -0.0033   -1.0390    3.5960 H   0  0  0  0  0  0  0  0  0  0  0  0
    0.9148    0.9700    4.8121 H   0  0  0  0  0  0  0  0  0  0  0  0
    0.4953   -0.3353    5.9268 H   0  0  0  0  0  0  0  0  0  0  0  0
   -2.7153    1.1053    5.4134 H   0  0  0  0  0  0  0  0  0  0  0  0
   -2.1505    2.7559    5.6646 H   0  0  0  0  0  0  0  0  0  0  0  0
   -0.7799    2.6505    3.5955 H   0  0  0  0  0  0  0  0  0  0  0  0
   -2.4786    2.3701    3.2232 H   0  0  0  0  0  0  0  0  0  0  0  0
    0.0177    2.8158    0.1812 H   0  0  0  0  0  0  0  0  0  0  0  0
    0.7667    5.0139    0.9719 H   0  0  0  0  0  0  0  0  0  0  0  0
    3.1969    5.5143    1.1225 H   0  0  0  0  0  0  0  0  0  0  0  0
    4.8488    3.7981    0.4664 H   0  0  0  0  0  0  0  0  0  0  0  0
    4.1940   -2.5631   -0.8893 H   0  0  0  0  0  0  0  0  0  0  0  0
    6.0721   -3.9378   -1.5370 H   0  0  0  0  0  0  0  0  0  0  0  0
  1  2  1  0
  2  3  1  0
  3  4  2  0
  4  5  1  0
  5  6  2  0
  6  7  1  0
  7  8  2  0
  8  9  1  0
  9 10  1  0
 10 11  2  0
 10 12  1  0
 12 13  1  0
 13 14  2  0
 14 15  1  0
 15 16  1  0
 16 17  2  0
 16 18  2  0
 16 19  1  0
 19 20  1  0
 20 21  1  0
 21 22  1  0
 22 23  1  0
 23 24  1  0
 15 25  2  0
 25 26  1  0
 26 27  2  0
 27 28  1  0
 28 29  1  0
 29 30  1  0
 30 31  1  0
 31 32  1  0
 32 33  1  0
  9 34  2  0
 34 35  1  0
 35 36  2  0
 36 37  1  0
 37 38  2  0
 38 39  1  0
 39 40  2  0
  6 41  1  0
 41 42  2  0
 42  3  1  0
 40  7  1  0
 27 13  1  0
 33 28  1  0
 39 34  1  0
 24 19  1  0
  1 43  1  0
  1 44  1  0
  1 45  1  0
  4 46  1  0
  5 47  1  0
  8 48  1  0
 12 49  1  0
 14 50  1  0
 20 51  1  0
 20 52  1  0
 21 53  1  0
 21 54  1  0
 23 55  1  0
 23 56  1  0
 24 57  1  0
 24 58  1  0
 25 59  1  0
 26 60  1  0
 29 61  1  0
 29 62  1  0
 30 63  1  0
 30 64  1  0
 32 65  1  0
 32 66  1  0
 33 67  1  0
 33 68  1  0
 35 69  1  0
 36 70  1  0
 37 71  1  0
 38 72  1  0
 41 73  1  0
 42 74  1  0
M  END
$$$$
