
     RDKit          3D

 39 40  0  0  0  0  0  0  0  0999 V2000
   -0.3110    0.1196   -3.3106 C   0  0  0  0  0  0  0  0  0  0  0  0
   -0.3555   -0.5160   -1.9477 C   0  0  0  0  0  0  0  0  0  0  0  0
    0.3966   -1.4358   -1.6434 O   0  0  0  0  0  0  0  0  0  0  0  0
   -1.3319    0.0086   -1.1380 N   0  0  0  0  0  0  0  0  0  0  0  0
   -1.1269    0.0371    0.1490 C   0  0  0  0  0  0  0  0  0  0  0  0
   -2.1951    0.5628    1.0758 C   0  0  0  0  0  0  0  0  0  0  0  0
   -3.2853   -0.4471    1.3296 C   0  0  0  0  0  0  0  0  0  0  0  0
   -3.1633   -1.3821    2.3664 C   0  0  0  0  0  0  0  0  0  0  0  0
   -4.1661   -2.3275    2.5873 C   0  0  0  0  0  0  0  0  0  0  0  0
   -5.2963   -2.3510    1.7726 C   0  0  0  0  0  0  0  0  0  0  0  0
   -5.4230   -1.4324    0.7327 C   0  0  0  0  0  0  0  0  0  0  0  0
   -4.4212   -0.4868    0.5092 C   0  0  0  0  0  0  0  0  0  0  0  0
    0.1559   -0.3885    0.8418 C   0  0  0  0  0  0  0  0  0  0  0  0
    0.1987   -1.2735    1.6740 O   0  0  0  0  0  0  0  0  0  0  0  0
    1.1466    0.4305    0.4402 O   0  0  0  0  0  0  0  0  0  0  0  0
    2.4318    0.0526    0.9335 C   0  0  0  0  0  0  0  0  0  0  0  0
    3.4621    0.7710    0.1022 C   0  0  0  0  0  0  0  0  0  0  0  0
    4.1186    1.9082    0.5912 C   0  0  0  0  0  0  0  0  0  0  0  0
    5.0594    2.5735   -0.1972 C   0  0  0  0  0  0  0  0  0  0  0  0
    5.3474    2.1129   -1.4810 C   0  0  0  0  0  0  0  0  0  0  0  0
    4.6935    0.9882   -1.9806 C   0  0  0  0  0  0  0  0  0  0  0  0
    3.7530    0.3215   -1.1946 C   0  0  0  0  0  0  0  0  0  0  0  0
   -0.2046    1.2032   -3.2099 H   0  0  0  0  0  0  0  0  0  0  0  0
   -1.2275   -0.1175   -3.8568 H   0  0  0  0  0  0  0  0  0  0  0  0
    0.5478   -0.2646   -3.8681 H   0  0  0  0  0  0  0  0  0  0  0  0
   -1.7454    0.8761    2.0256 H   0  0  0  0  0  0  0  0  0  0  0  0
   -2.6236    1.4702    0.6321 H   0  0  0  0  0  0  0  0  0  0  0  0
   -2.2828   -1.3888    3.0065 H   0  0  0  0  0  0  0  0  0  0  0  0
   -4.0612   -3.0504    3.3923 H   0  0  0  0  0  0  0  0  0  0  0  0
   -6.0744   -3.0900    1.9438 H   0  0  0  0  0  0  0  0  0  0  0  0
   -6.2999   -1.4561    0.0911 H   0  0  0  0  0  0  0  0  0  0  0  0
   -4.5295    0.2153   -0.3150 H   0  0  0  0  0  0  0  0  0  0  0  0
    2.5143    0.3405    1.9880 H   0  0  0  0  0  0  0  0  0  0  0  0
    2.5922   -1.0303    0.8525 H   0  0  0  0  0  0  0  0  0  0  0  0
    3.9016    2.2845    1.5882 H   0  0  0  0  0  0  0  0  0  0  0  0
    5.5673    3.4532    0.1898 H   0  0  0  0  0  0  0  0  0  0  0  0
    6.0802    2.6318   -2.0932 H   0  0  0  0  0  0  0  0  0  0  0  0
    4.9148    0.6298   -2.9825 H   0  0  0  0  0  0  0  0  0  0  0  0
    3.2429   -0.5527   -1.5968 H   0  0  0  0  0  0  0  0  0  0  0  0
  1  2  1  0
  2  3  2  0
  2  4  1  0
  4  5  2  3
  5  6  1  0
  6  7  1  0
  7  8  2  0
  8  9  1  0
  9 10  2  0
 10 11  1  0
 11 12  2  0
  5 13  1  0
 13 14  2  0
 13 15  1  0
 15 16  1  0
 16 17  1  0
 17 18  2  0
 18 19  1  0
 19 20  2  0
 20 21  1  0
 21 22  2  0
 12  7  1  0
 22 17  1  0
  1 23  1  0
  1 24  1  0
  1 25  1  0
  6 26  1  0
  6 27  1  0
  8 28  1  0
  9 29  1  0
 10 30  1  0
 11 31  1  0
 12 32  1  0
 16 33  1  0
 16 34  1  0
 18 35  1  0
 19 36  1  0
 20 37  1  0
 21 38  1  0
 22 39  1  0
M  END
$$$$
