
     RDKit          3D

 62 65  0  0  0  0  0  0  0  0999 V2000
   -2.0203   -1.2481   -2.0773 C   0  0  0  0  0  0  0  0  0  0  0  0
   -2.3195   -1.5479   -0.6158 C   0  0  0  0  0  0  0  0  0  0  0  0
   -2.9028   -0.3916    0.0442 N   0  0  0  0  0  0  0  0  0  0  0  0
   -2.3107    0.5733    0.8727 C   0  0  0  0  0  0  0  0  0  0  0  0
   -1.0226    0.8852    1.1245 C   0  0  0  0  0  0  0  0  0  0  0  0
    0.1803    0.3424    0.5349 C   0  0  0  0  0  0  0  0  0  0  0  0
    1.4031    0.6976    0.9559 C   0  0  0  0  0  0  0  0  0  0  0  0
    2.6240    0.1854    0.2994 C   0  0  0  0  0  0  0  0  0  0  0  0
    2.9743   -1.0590    0.1489 N   0  0  0  0  0  4  0  0  0  0  0  0
    2.3177   -2.2953    0.6223 C   0  0  0  0  0  0  0  0  0  0  0  0
    1.6318   -3.0087   -0.5297 C   0  0  0  0  0  0  0  0  0  0  0  0
    4.2848   -1.1192   -0.5269 C   0  0  0  0  0  0  0  0  0  0  0  0
    5.0420   -2.2281   -0.8618 C   0  0  0  0  0  0  0  0  0  0  0  0
    6.2616   -2.0070   -1.5073 C   0  0  0  0  0  0  0  0  0  0  0  0
    6.6937   -0.7019   -1.7967 C   0  0  0  0  0  0  0  0  0  0  0  0
    5.9175    0.4044   -1.4442 C   0  0  0  0  0  0  0  0  0  0  0  0
    4.7100    0.1764   -0.8040 C   0  0  0  0  0  0  0  0  0  0  0  0
    3.6829    1.1494   -0.2954 C   0  0  0  0  0  0  0  0  0  0  0  0
    4.2723    2.0580    0.7871 C   0  0  0  0  0  0  0  0  0  0  0  0
    3.0789    1.9699   -1.4381 C   0  0  0  0  0  0  0  0  0  0  0  0
   -3.4630    1.3962    1.5603 C   0  0  0  0  0  0  0  0  0  0  0  0
   -3.4779    1.1828    3.0809 C   0  0  0  0  0  0  0  0  0  0  0  0
   -3.3924    2.8913    1.2140 C   0  0  0  0  0  0  0  0  0  0  0  0
   -4.6959    0.7732    0.9341 C   0  0  0  0  0  0  0  0  0  0  0  0
   -6.0333    1.0972    1.1311 C   0  0  0  0  0  0  0  0  0  0  0  0
   -7.0000    0.3692    0.4398 C   0  0  0  0  0  0  0  0  0  0  0  0
   -6.6216   -0.6609   -0.4303 C   0  0  0  0  0  0  0  0  0  0  0  0
   -5.2711   -0.9785   -0.6185 C   0  0  0  0  0  0  0  0  0  0  0  0
   -4.3035   -0.2605    0.0692 C   0  0  0  0  0  0  0  0  0  0  0  0
   -1.3610   -0.3814   -2.1841 H   0  0  0  0  0  0  0  0  0  0  0  0
   -2.9370   -1.0335   -2.6355 H   0  0  0  0  0  0  0  0  0  0  0  0
   -1.5329   -2.1081   -2.5475 H   0  0  0  0  0  0  0  0  0  0  0  0
   -2.9745   -2.4253   -0.5468 H   0  0  0  0  0  0  0  0  0  0  0  0
   -1.4060   -1.8622   -0.1019 H   0  0  0  0  0  0  0  0  0  0  0  0
   -0.8479    1.6843    1.8463 H   0  0  0  0  0  0  0  0  0  0  0  0
    0.0602   -0.3239   -0.3080 H   0  0  0  0  0  0  0  0  0  0  0  0
    1.5423    1.4327    1.7448 H   0  0  0  0  0  0  0  0  0  0  0  0
    1.5874   -2.0288    1.3929 H   0  0  0  0  0  0  0  0  0  0  0  0
    3.0706   -2.9318    1.0993 H   0  0  0  0  0  0  0  0  0  0  0  0
    0.9253   -2.3567   -1.0521 H   0  0  0  0  0  0  0  0  0  0  0  0
    1.0775   -3.8759   -0.1553 H   0  0  0  0  0  0  0  0  0  0  0  0
    2.3499   -3.3714   -1.2718 H   0  0  0  0  0  0  0  0  0  0  0  0
    4.7331   -3.2454   -0.6478 H   0  0  0  0  0  0  0  0  0  0  0  0
    6.8900   -2.8511   -1.7913 H   0  0  0  0  0  0  0  0  0  0  0  0
    7.6489   -0.5525   -2.3008 H   0  0  0  0  0  0  0  0  0  0  0  0
    6.2655    1.4101   -1.6702 H   0  0  0  0  0  0  0  0  0  0  0  0
    4.6486    1.4769    1.6379 H   0  0  0  0  0  0  0  0  0  0  0  0
    3.5214    2.7546    1.1759 H   0  0  0  0  0  0  0  0  0  0  0  0
    5.1056    2.6554    0.3998 H   0  0  0  0  0  0  0  0  0  0  0  0
    2.2992    2.6471   -1.0717 H   0  0  0  0  0  0  0  0  0  0  0  0
    3.8392    2.5787   -1.9399 H   0  0  0  0  0  0  0  0  0  0  0  0
    2.6179    1.3249   -2.1958 H   0  0  0  0  0  0  0  0  0  0  0  0
   -3.5286    0.1181    3.3377 H   0  0  0  0  0  0  0  0  0  0  0  0
   -2.5801    1.5955    3.5538 H   0  0  0  0  0  0  0  0  0  0  0  0
   -4.3435    1.6707    3.5437 H   0  0  0  0  0  0  0  0  0  0  0  0
   -4.2636    3.4329    1.6009 H   0  0  0  0  0  0  0  0  0  0  0  0
   -3.3638    3.0523    0.1295 H   0  0  0  0  0  0  0  0  0  0  0  0
   -2.5026    3.3638    1.6435 H   0  0  0  0  0  0  0  0  0  0  0  0
   -6.3273    1.8955    1.8049 H   0  0  0  0  0  0  0  0  0  0  0  0
   -8.0539    0.6024    0.5738 H   0  0  0  0  0  0  0  0  0  0  0  0
   -7.3869   -1.2180   -0.9668 H   0  0  0  0  0  0  0  0  0  0  0  0
   -5.0135   -1.7746   -1.3072 H   0  0  0  0  0  0  0  0  0  0  0  0
  1  2  1  0
  2  3  1  0
  3  4  1  0
  4  5  2  3
  5  6  1  0
  6  7  2  3
  7  8  1  0
  8  9  2  0
  9 10  1  0
 10 11  1  0
  9 12  1  0
 12 13  2  0
 13 14  1  0
 14 15  2  0
 15 16  1  0
 16 17  2  0
 17 18  1  0
 18 19  1  0
 18 20  1  0
  4 21  1  0
 21 22  1  0
 21 23  1  0
 21 24  1  0
 24 25  2  0
 25 26  1  0
 26 27  2  0
 27 28  1  0
 28 29  2  0
 29  3  1  0
 18  8  1  0
 29 24  1  0
 17 12  1  0
  1 30  1  0
  1 31  1  0
  1 32  1  0
  2 33  1  0
  2 34  1  0
  5 35  1  0
  6 36  1  0
  7 37  1  0
 10 38  1  0
 10 39  1  0
 11 40  1  0
 11 41  1  0
 11 42  1  0
 13 43  1  0
 14 44  1  0
 15 45  1  0
 16 46  1  0
 19 47  1  0
 19 48  1  0
 19 49  1  0
 20 50  1  0
 20 51  1  0
 20 52  1  0
 22 53  1  0
 22 54  1  0
 22 55  1  0
 23 56  1  0
 23 57  1  0
 23 58  1  0
 25 59  1  0
 26 60  1  0
 27 61  1  0
 28 62  1  0
M  CHG  1   9   1
M  END
$$$$
