
     RDKit          3D

 60 63  0  0  0  0  0  0  0  0999 V2000
   -1.3137   -0.7181   -4.8624 C   0  0  0  0  0  0  0  0  0  0  0  0
   -2.6867   -0.5220   -4.2939 C   0  0  0  0  0  0  0  0  0  0  0  0
   -3.4420    0.5791   -4.6524 C   0  0  0  0  0  0  0  0  0  0  0  0
   -4.7003    0.6833   -4.0892 C   0  0  0  0  0  0  0  0  0  0  0  0
   -5.5710    1.8651   -4.3974 C   0  0  0  0  0  0  0  0  0  0  0  0
   -5.1838   -0.2346   -3.2301 N   0  0  0  0  0  0  0  0  0  0  0  0
   -4.3688   -1.2576   -2.9285 C   0  0  0  0  0  0  0  0  0  0  0  0
   -4.9322   -2.4439   -1.7431 S   0  0  0  0  0  0  0  0  0  0  0  0
   -5.2257   -1.3210   -0.3596 C   0  0  0  0  0  0  0  0  0  0  0  0
   -4.0436   -0.5107    0.0570 C   0  0  0  0  0  0  0  0  0  0  0  0
   -3.9538    0.8010   -0.0808 N   0  0  0  0  0  0  0  0  0  0  0  0
   -2.7887    1.2214    0.4983 N   0  0  0  0  0  0  0  0  0  0  0  0
   -2.1856    0.1687    0.9897 C   0  0  0  0  0  0  0  0  0  0  0  0
   -0.7240    0.1968    1.9109 S   0  0  0  0  0  0  0  0  0  0  0  0
   -0.1623    1.8965    1.5604 C   0  0  0  0  0  0  0  0  0  0  0  0
    1.2247    2.1595    2.1284 C   0  0  0  0  0  0  0  0  0  0  0  0
    1.4723    3.2238    2.6904 O   0  0  0  0  0  0  0  0  0  0  0  0
    2.1295    1.1399    1.8843 N   0  0  0  0  0  0  0  0  0  0  0  0
    3.5012    1.1015    2.1999 C   0  0  0  0  0  0  0  0  0  0  0  0
    4.1722   -0.1057    1.9791 C   0  0  0  0  0  0  0  0  0  0  0  0
    5.5350   -0.2248    2.2645 C   0  0  0  0  0  0  0  0  0  0  0  0
    6.2597    0.8661    2.7687 C   0  0  0  0  0  0  0  0  0  0  0  0
    7.7268    0.7107    3.0592 C   0  0  0  0  0  0  0  0  0  0  0  0
    5.5957    2.0912    2.9836 C   0  0  0  0  0  0  0  0  0  0  0  0
    6.3291    3.3056    3.4939 C   0  0  0  0  0  0  0  0  0  0  0  0
    4.2203    2.1920    2.6983 C   0  0  0  0  0  0  0  0  0  0  0  0
   -2.9025   -0.9667    0.6889 N   0  0  0  0  0  0  0  0  0  0  0  0
   -2.5624   -2.3357    1.0313 C   0  0  0  0  0  0  0  0  0  0  0  0
   -1.6401   -2.9427    0.0336 C   0  0  0  0  0  0  0  0  0  0  0  0
   -1.7872   -3.9446   -0.9097 C   0  0  0  0  0  0  0  0  0  0  0  0
   -0.5476   -4.0483   -1.5834 C   0  0  0  0  0  0  0  0  0  0  0  0
    0.2922   -3.1383   -0.9819 C   0  0  0  0  0  0  0  0  0  0  0  0
   -0.3570   -2.4753    0.0126 O   0  0  0  0  0  0  0  0  0  0  0  0
   -3.1408   -1.4563   -3.4361 N   0  0  0  0  0  0  0  0  0  0  0  0
   -0.6902    0.1625   -4.6691 H   0  0  0  0  0  0  0  0  0  0  0  0
   -0.8251   -1.5870   -4.4071 H   0  0  0  0  0  0  0  0  0  0  0  0
   -1.3736   -0.8862   -5.9436 H   0  0  0  0  0  0  0  0  0  0  0  0
   -3.0659    1.3292   -5.3362 H   0  0  0  0  0  0  0  0  0  0  0  0
   -5.6847    1.9838   -5.4771 H   0  0  0  0  0  0  0  0  0  0  0  0
   -6.5683    1.7390   -3.9640 H   0  0  0  0  0  0  0  0  0  0  0  0
   -5.1288    2.7740   -3.9783 H   0  0  0  0  0  0  0  0  0  0  0  0
   -5.5738   -1.9180    0.4899 H   0  0  0  0  0  0  0  0  0  0  0  0
   -6.0557   -0.6529   -0.6196 H   0  0  0  0  0  0  0  0  0  0  0  0
   -0.8629    2.6029    2.0238 H   0  0  0  0  0  0  0  0  0  0  0  0
   -0.1266    2.0798    0.4773 H   0  0  0  0  0  0  0  0  0  0  0  0
    1.7287    0.2842    1.5159 H   0  0  0  0  0  0  0  0  0  0  0  0
    3.6411   -0.9755    1.5943 H   0  0  0  0  0  0  0  0  0  0  0  0
    6.0218   -1.1826    2.0950 H   0  0  0  0  0  0  0  0  0  0  0  0
    8.3124    1.3834    2.4246 H   0  0  0  0  0  0  0  0  0  0  0  0
    8.0694   -0.3110    2.8615 H   0  0  0  0  0  0  0  0  0  0  0  0
    7.9333    0.9256    4.1131 H   0  0  0  0  0  0  0  0  0  0  0  0
    6.8136    3.0885    4.4521 H   0  0  0  0  0  0  0  0  0  0  0  0
    7.0800    3.6266    2.7654 H   0  0  0  0  0  0  0  0  0  0  0  0
    5.6487    4.1495    3.6599 H   0  0  0  0  0  0  0  0  0  0  0  0
    3.7312    3.1478    2.8665 H   0  0  0  0  0  0  0  0  0  0  0  0
   -2.1157   -2.3439    2.0312 H   0  0  0  0  0  0  0  0  0  0  0  0
   -3.4894   -2.9101    1.1047 H   0  0  0  0  0  0  0  0  0  0  0  0
   -2.6876   -4.5085   -1.1116 H   0  0  0  0  0  0  0  0  0  0  0  0
   -0.2926   -4.7022   -2.4072 H   0  0  0  0  0  0  0  0  0  0  0  0
    1.3217   -2.8546   -1.1414 H   0  0  0  0  0  0  0  0  0  0  0  0
  1  2  1  0
  2  3  2  0
  3  4  1  0
  4  5  1  0
  4  6  2  0
  6  7  1  0
  7  8  1  0
  8  9  1  0
  9 10  1  0
 10 11  2  0
 11 12  1  0
 12 13  2  0
 13 14  1  0
 14 15  1  0
 15 16  1  0
 16 17  2  0
 16 18  1  0
 18 19  1  0
 19 20  2  0
 20 21  1  0
 21 22  2  0
 22 23  1  0
 22 24  1  0
 24 25  1  0
 24 26  2  0
 13 27  1  0
 27 28  1  0
 28 29  1  0
 29 30  2  0
 30 31  1  0
 31 32  2  0
 32 33  1  0
  7 34  2  0
 34  2  1  0
 27 10  1  0
 33 29  1  0
 26 19  1  0
  1 35  1  0
  1 36  1  0
  1 37  1  0
  3 38  1  0
  5 39  1  0
  5 40  1  0
  5 41  1  0
  9 42  1  0
  9 43  1  0
 15 44  1  0
 15 45  1  0
 18 46  1  0
 20 47  1  0
 21 48  1  0
 23 49  1  0
 23 50  1  0
 23 51  1  0
 25 52  1  0
 25 53  1  0
 25 54  1  0
 26 55  1  0
 28 56  1  0
 28 57  1  0
 30 58  1  0
 31 59  1  0
 32 60  1  0
M  END
$$$$
