
     RDKit          3D

 61 66  0  0  0  0  0  0  0  0999 V2000
    9.0248    2.5268    1.4132 F   0  0  0  0  0  0  0  0  0  0  0  0
    7.9958    1.6825    1.5773 C   0  0  0  0  0  0  0  0  0  0  0  0
    8.2444    0.3539    1.8933 C   0  0  0  0  0  0  0  0  0  0  0  0
    7.1740   -0.5263    2.0647 C   0  0  0  0  0  0  0  0  0  0  0  0
    5.8533   -0.0764    1.9200 C   0  0  0  0  0  0  0  0  0  0  0  0
    4.6954   -1.0304    2.1156 C   0  0  0  0  0  0  0  0  0  0  0  0
    3.9341   -1.3722    0.8180 C   0  0  0  0  0  0  0  0  0  0  0  0
    3.0290   -0.3072    0.3566 N   0  0  0  0  0  0  0  0  0  0  0  0
    1.7943   -0.1921    1.1686 C   0  0  0  0  0  0  0  0  0  0  0  0
    0.5284   -0.8226    0.5426 C   0  0  0  0  0  0  0  0  0  0  0  0
    0.2419   -0.2725   -0.8102 N   0  0  0  0  0  0  0  0  0  0  0  0
   -0.9589    0.3744   -0.9638 C   0  0  0  0  0  0  0  0  0  0  0  0
   -1.2105    1.7176   -1.1768 C   0  0  0  0  0  0  0  0  0  0  0  0
   -2.6005    1.9308   -1.0416 C   0  0  0  0  0  0  0  0  0  0  0  0
   -3.1842    0.7082   -0.7821 C   0  0  0  0  0  0  0  0  0  0  0  0
   -4.5521    0.3233   -0.5149 C   0  0  0  0  0  0  0  0  0  0  0  0
   -5.5919    1.3532   -0.2624 C   0  0  0  0  0  0  0  0  0  0  0  0
   -6.8119    1.2607   -0.9412 C   0  0  0  0  0  0  0  0  0  0  0  0
   -7.8087    2.2103   -0.7155 C   0  0  0  0  0  0  0  0  0  0  0  0
   -7.5917    3.2442    0.1960 C   0  0  0  0  0  0  0  0  0  0  0  0
   -6.3805    3.3287    0.8891 C   0  0  0  0  0  0  0  0  0  0  0  0
   -5.3807    2.3807    0.6653 C   0  0  0  0  0  0  0  0  0  0  0  0
   -4.8982   -0.9288   -0.4944 N   0  0  0  0  0  0  0  0  0  0  0  0
   -3.9221   -1.9166   -0.7383 C   0  0  0  0  0  0  0  0  0  0  0  0
   -4.3424   -3.2497   -0.7803 C   0  0  0  0  0  0  0  0  0  0  0  0
   -3.4387   -4.2772   -1.0533 C   0  0  0  0  0  0  0  0  0  0  0  0
   -2.1024   -3.9752   -1.3047 C   0  0  0  0  0  0  0  0  0  0  0  0
   -1.6610   -2.6495   -1.2646 C   0  0  0  0  0  0  0  0  0  0  0  0
   -2.5631   -1.6281   -0.9532 C   0  0  0  0  0  0  0  0  0  0  0  0
   -2.2010   -0.2601   -0.8991 N   0  0  0  0  0  0  0  0  0  0  0  0
    1.4303    0.2797   -1.4990 C   0  0  0  0  0  0  0  0  0  0  0  0
    2.7044   -0.4822   -1.0780 C   0  0  0  0  0  0  0  0  0  0  0  0
    5.6243    1.2722    1.6074 C   0  0  0  0  0  0  0  0  0  0  0  0
    6.6948    2.1498    1.4316 C   0  0  0  0  0  0  0  0  0  0  0  0
    9.2683    0.0114    2.0062 H   0  0  0  0  0  0  0  0  0  0  0  0
    7.3784   -1.5643    2.3137 H   0  0  0  0  0  0  0  0  0  0  0  0
    4.0288   -0.6255    2.8847 H   0  0  0  0  0  0  0  0  0  0  0  0
    5.0800   -1.9698    2.5325 H   0  0  0  0  0  0  0  0  0  0  0  0
    3.3627   -2.2980    0.9687 H   0  0  0  0  0  0  0  0  0  0  0  0
    4.6799   -1.5887    0.0401 H   0  0  0  0  0  0  0  0  0  0  0  0
    1.6048    0.8808    1.3080 H   0  0  0  0  0  0  0  0  0  0  0  0
    1.9316   -0.6008    2.1757 H   0  0  0  0  0  0  0  0  0  0  0  0
   -0.3167   -0.6670    1.2242 H   0  0  0  0  0  0  0  0  0  0  0  0
    0.6759   -1.9051    0.4565 H   0  0  0  0  0  0  0  0  0  0  0  0
   -0.4647    2.4863   -1.3261 H   0  0  0  0  0  0  0  0  0  0  0  0
   -3.1088    2.8839   -1.1027 H   0  0  0  0  0  0  0  0  0  0  0  0
   -6.9848    0.4524   -1.6467 H   0  0  0  0  0  0  0  0  0  0  0  0
   -8.7553    2.1392   -1.2472 H   0  0  0  0  0  0  0  0  0  0  0  0
   -8.3720    3.9802    0.3745 H   0  0  0  0  0  0  0  0  0  0  0  0
   -6.2217    4.1287    1.6089 H   0  0  0  0  0  0  0  0  0  0  0  0
   -4.4527    2.4381    1.2281 H   0  0  0  0  0  0  0  0  0  0  0  0
   -5.3890   -3.4825   -0.6044 H   0  0  0  0  0  0  0  0  0  0  0  0
   -3.7827   -5.3092   -1.0865 H   0  0  0  0  0  0  0  0  0  0  0  0
   -1.4037   -4.7710   -1.5457 H   0  0  0  0  0  0  0  0  0  0  0  0
   -0.6255   -2.4403   -1.5145 H   0  0  0  0  0  0  0  0  0  0  0  0
    1.2929    0.1788   -2.5811 H   0  0  0  0  0  0  0  0  0  0  0  0
    1.5623    1.3448   -1.2720 H   0  0  0  0  0  0  0  0  0  0  0  0
    2.5629   -1.5461   -1.3144 H   0  0  0  0  0  0  0  0  0  0  0  0
    3.5511   -0.1224   -1.6742 H   0  0  0  0  0  0  0  0  0  0  0  0
    4.6082    1.6449    1.4937 H   0  0  0  0  0  0  0  0  0  0  0  0
    6.5214    3.1914    1.1834 H   0  0  0  0  0  0  0  0  0  0  0  0
  1  2  1  0
  2  3  2  0
  3  4  1  0
  4  5  2  0
  5  6  1  0
  6  7  1  0
  7  8  1  0
  8  9  1  0
  9 10  1  0
 10 11  1  0
 11 12  1  0
 12 13  2  0
 13 14  1  0
 14 15  2  0
 15 16  1  0
 16 17  1  0
 17 18  2  0
 18 19  1  0
 19 20  2  0
 20 21  1  0
 21 22  2  0
 16 23  2  0
 23 24  1  0
 24 25  2  0
 25 26  1  0
 26 27  2  0
 27 28  1  0
 28 29  2  0
 29 30  1  0
 11 31  1  0
 31 32  1  0
  5 33  1  0
 33 34  2  0
 34  2  1  0
 32  8  1  0
 30 12  1  0
 30 15  1  0
 22 17  1  0
 29 24  1  0
  3 35  1  0
  4 36  1  0
  6 37  1  0
  6 38  1  0
  7 39  1  0
  7 40  1  0
  9 41  1  0
  9 42  1  0
 10 43  1  0
 10 44  1  0
 13 45  1  0
 14 46  1  0
 18 47  1  0
 19 48  1  0
 20 49  1  0
 21 50  1  0
 22 51  1  0
 25 52  1  0
 26 53  1  0
 27 54  1  0
 28 55  1  0
 31 56  1  0
 31 57  1  0
 32 58  1  0
 32 59  1  0
 33 60  1  0
 34 61  1  0
M  END
$$$$
