
     RDKit          3D

 54 56  0  0  0  0  0  0  0  0999 V2000
    8.3392   -0.3888   -2.5165 C   0  0  0  0  0  0  0  0  0  0  0  0
    7.7488   -1.3788   -1.6852 O   0  0  0  0  0  0  0  0  0  0  0  0
    6.5524   -1.0637   -1.1031 C   0  0  0  0  0  0  0  0  0  0  0  0
    6.0756   -2.0117   -0.1965 C   0  0  0  0  0  0  0  0  0  0  0  0
    4.8685   -1.8125    0.4762 C   0  0  0  0  0  0  0  0  0  0  0  0
    4.1143   -0.6575    0.2438 C   0  0  0  0  0  0  0  0  0  0  0  0
    2.8205   -0.4238    0.9842 C   0  0  0  0  0  0  0  0  0  0  0  0
    3.0165    0.5458    2.1562 C   0  0  0  0  0  0  0  0  0  0  0  0
    1.7500    0.7422    2.9900 C   0  0  0  0  0  0  0  0  0  0  0  0
    0.6433    1.4544    2.3011 C   0  0  0  0  0  0  0  0  0  0  0  0
   -0.6237    1.5296    2.6503 N   0  0  0  0  0  0  0  0  0  0  0  0
   -1.2403    2.3127    1.7002 N   0  0  0  0  0  0  0  0  0  0  0  0
   -0.3126    2.6552    0.8289 C   0  0  0  0  0  0  0  0  0  0  0  0
   -0.5893    3.6301   -0.5764 S   0  0  0  0  0  0  0  0  0  0  0  0
   -2.3945    3.7853   -0.5256 C   0  0  0  0  0  0  0  0  0  0  0  0
   -3.0630    2.5138   -1.0288 C   0  0  0  0  0  0  0  0  0  0  0  0
   -3.1595    2.2983   -2.2341 O   0  0  0  0  0  0  0  0  0  0  0  0
   -3.5383    1.7005   -0.0136 N   0  0  0  0  0  0  0  0  0  0  0  0
   -4.2900    0.5047   -0.1280 C   0  0  0  0  0  0  0  0  0  0  0  0
   -4.7090   -0.0209   -1.3541 C   0  0  0  0  0  0  0  0  0  0  0  0
   -5.4638   -1.2101   -1.4296 C   0  0  0  0  0  0  0  0  0  0  0  0
   -5.8811   -1.7259   -2.7809 C   0  0  0  0  0  0  0  0  0  0  0  0
   -5.8198   -1.8847   -0.2480 C   0  0  0  0  0  0  0  0  0  0  0  0
   -6.6234   -3.1566   -0.2748 C   0  0  0  0  0  0  0  0  0  0  0  0
   -5.3995   -1.3644    0.9825 C   0  0  0  0  0  0  0  0  0  0  0  0
   -4.6505   -0.1844    1.0413 C   0  0  0  0  0  0  0  0  0  0  0  0
   -4.1706    0.4574    2.7669 Br  0  0  0  0  0  0  0  0  0  0  0  0
    0.9192    2.1593    1.1611 O   0  0  0  0  0  0  0  0  0  0  0  0
    4.5909    0.2891   -0.6716 C   0  0  0  0  0  0  0  0  0  0  0  0
    5.8022    0.0876   -1.3416 C   0  0  0  0  0  0  0  0  0  0  0  0
    9.3076   -0.7698   -2.8563 H   0  0  0  0  0  0  0  0  0  0  0  0
    8.5209    0.5376   -1.9587 H   0  0  0  0  0  0  0  0  0  0  0  0
    7.7255   -0.2008   -3.4026 H   0  0  0  0  0  0  0  0  0  0  0  0
    6.6536   -2.9135   -0.0089 H   0  0  0  0  0  0  0  0  0  0  0  0
    4.5265   -2.5658    1.1819 H   0  0  0  0  0  0  0  0  0  0  0  0
    2.4289   -1.3815    1.3518 H   0  0  0  0  0  0  0  0  0  0  0  0
    2.0744   -0.0439    0.2766 H   0  0  0  0  0  0  0  0  0  0  0  0
    3.8003    0.1517    2.8184 H   0  0  0  0  0  0  0  0  0  0  0  0
    3.3843    1.5151    1.7927 H   0  0  0  0  0  0  0  0  0  0  0  0
    1.3827   -0.2335    3.3328 H   0  0  0  0  0  0  0  0  0  0  0  0
    2.0093    1.3122    3.8915 H   0  0  0  0  0  0  0  0  0  0  0  0
   -2.7495    4.0583    0.4736 H   0  0  0  0  0  0  0  0  0  0  0  0
   -2.6925    4.6002   -1.1942 H   0  0  0  0  0  0  0  0  0  0  0  0
   -3.2532    1.9302    0.9381 H   0  0  0  0  0  0  0  0  0  0  0  0
   -4.4619    0.4806   -2.2847 H   0  0  0  0  0  0  0  0  0  0  0  0
   -5.5134   -2.7467   -2.9286 H   0  0  0  0  0  0  0  0  0  0  0  0
   -5.4737   -1.1117   -3.5912 H   0  0  0  0  0  0  0  0  0  0  0  0
   -6.9717   -1.7127   -2.8720 H   0  0  0  0  0  0  0  0  0  0  0  0
   -7.5437   -3.0188   -0.8506 H   0  0  0  0  0  0  0  0  0  0  0  0
   -6.9186   -3.4642    0.7336 H   0  0  0  0  0  0  0  0  0  0  0  0
   -6.0352   -3.9670   -0.7168 H   0  0  0  0  0  0  0  0  0  0  0  0
   -5.6635   -1.8795    1.9031 H   0  0  0  0  0  0  0  0  0  0  0  0
    4.0225    1.1950   -0.8698 H   0  0  0  0  0  0  0  0  0  0  0  0
    6.1282    0.8464   -2.0439 H   0  0  0  0  0  0  0  0  0  0  0  0
  1  2  1  0
  2  3  1  0
  3  4  2  0
  4  5  1  0
  5  6  2  0
  6  7  1  0
  7  8  1  0
  8  9  1  0
  9 10  1  0
 10 11  2  0
 11 12  1  0
 12 13  2  0
 13 14  1  0
 14 15  1  0
 15 16  1  0
 16 17  2  0
 16 18  1  0
 18 19  1  0
 19 20  2  0
 20 21  1  0
 21 22  1  0
 21 23  2  0
 23 24  1  0
 23 25  1  0
 25 26  2  0
 26 27  1  0
 13 28  1  0
  6 29  1  0
 29 30  2  0
 30  3  1  0
 28 10  1  0
 26 19  1  0
  1 31  1  0
  1 32  1  0
  1 33  1  0
  4 34  1  0
  5 35  1  0
  7 36  1  0
  7 37  1  0
  8 38  1  0
  8 39  1  0
  9 40  1  0
  9 41  1  0
 15 42  1  0
 15 43  1  0
 18 44  1  0
 20 45  1  0
 22 46  1  0
 22 47  1  0
 22 48  1  0
 24 49  1  0
 24 50  1  0
 24 51  1  0
 25 52  1  0
 29 53  1  0
 30 54  1  0
M  END
$$$$
