
     RDKit          3D

 43 45  0  0  0  0  0  0  0  0999 V2000
   -1.6492   -2.8017    2.7987 C   0  0  0  0  0  0  0  0  0  0  0  0
   -1.5487   -1.8033    1.6864 C   0  0  0  0  0  0  0  0  0  0  0  0
   -0.3358   -1.5444    1.0882 C   0  0  0  0  0  0  0  0  0  0  0  0
   -0.3224   -0.6096    0.0726 C   0  0  0  0  0  0  0  0  0  0  0  0
    0.8619   -0.2899   -0.6139 N   0  0  0  0  0  0  0  0  0  0  0  0
    2.0571   -0.4357    0.0178 N   0  0  0  0  0  0  0  0  0  0  0  0
    3.0690    0.0323   -0.6455 C   0  0  0  0  0  0  0  0  0  0  0  0
    4.4466   -0.0377   -0.1038 C   0  0  0  0  0  0  0  0  0  0  0  0
    4.6636   -0.7060    1.1105 C   0  0  0  0  0  0  0  0  0  0  0  0
    5.9549   -0.8294    1.6353 C   0  0  0  0  0  0  0  0  0  0  0  0
    7.0474   -0.2910    0.9551 C   0  0  0  0  0  0  0  0  0  0  0  0
    6.8528    0.3806   -0.2504 C   0  0  0  0  0  0  0  0  0  0  0  0
    5.5531    0.5065   -0.7651 C   0  0  0  0  0  0  0  0  0  0  0  0
    5.3990    1.2410   -2.0028 N   0  0  0  0  0  4  0  0  0  0  0  0
    6.0482    0.8436   -2.9781 O   0  0  0  0  0  0  0  0  0  0  0  0
    4.6404    2.2185   -1.9906 O   0  0  0  0  0  1  0  0  0  0  0  0
   -1.4384    0.0165   -0.3381 N   0  0  0  0  0  0  0  0  0  0  0  0
   -2.5921   -0.2889    0.2957 C   0  0  0  0  0  0  0  0  0  0  0  0
   -3.8059    0.3786   -0.1235 N   0  0  0  0  0  0  0  0  0  0  0  0
   -5.0021    0.1073    0.4858 N   0  0  0  0  0  0  0  0  0  0  0  0
   -5.8981    0.8825   -0.1258 C   0  0  0  0  0  0  0  0  0  0  0  0
   -7.3206    0.8422    0.2885 C   0  0  0  0  0  0  0  0  0  0  0  0
   -5.3113    1.6614   -1.1375 C   0  0  0  0  0  0  0  0  0  0  0  0
   -3.9715    1.3327   -1.1288 C   0  0  0  0  0  0  0  0  0  0  0  0
   -2.8796    1.8533   -1.9888 C   0  0  0  0  0  0  0  0  0  0  0  0
   -2.6797   -1.1856    1.3039 N   0  0  0  0  0  0  0  0  0  0  0  0
   -2.6787   -2.8771    3.1635 H   0  0  0  0  0  0  0  0  0  0  0  0
   -1.0129   -2.5002    3.6365 H   0  0  0  0  0  0  0  0  0  0  0  0
   -1.3385   -3.7911    2.4488 H   0  0  0  0  0  0  0  0  0  0  0  0
    0.5699   -2.0501    1.3957 H   0  0  0  0  0  0  0  0  0  0  0  0
    0.6892    0.4942   -1.2412 H   0  0  0  0  0  0  0  0  0  0  0  0
    2.9187    0.4791   -1.6430 H   0  0  0  0  0  0  0  0  0  0  0  0
    3.8297   -1.1433    1.6582 H   0  0  0  0  0  0  0  0  0  0  0  0
    6.1062   -1.3523    2.5781 H   0  0  0  0  0  0  0  0  0  0  0  0
    8.0490   -0.3947    1.3678 H   0  0  0  0  0  0  0  0  0  0  0  0
    7.7076    0.8022   -0.7764 H   0  0  0  0  0  0  0  0  0  0  0  0
   -7.7812   -0.1013   -0.0215 H   0  0  0  0  0  0  0  0  0  0  0  0
   -7.8865    1.6626   -0.1649 H   0  0  0  0  0  0  0  0  0  0  0  0
   -7.4113    0.9317    1.3760 H   0  0  0  0  0  0  0  0  0  0  0  0
   -5.7981    2.3722   -1.7912 H   0  0  0  0  0  0  0  0  0  0  0  0
   -2.4201    1.0498   -2.5726 H   0  0  0  0  0  0  0  0  0  0  0  0
   -2.1124    2.3554   -1.3914 H   0  0  0  0  0  0  0  0  0  0  0  0
   -3.2689    2.5891   -2.7010 H   0  0  0  0  0  0  0  0  0  0  0  0
  1  2  1  0
  2  3  2  0
  3  4  1  0
  4  5  1  0
  5  6  1  0
  6  7  2  3
  7  8  1  0
  8  9  2  0
  9 10  1  0
 10 11  2  0
 11 12  1  0
 12 13  2  0
 13 14  1  0
 14 15  2  0
 14 16  1  0
  4 17  2  0
 17 18  1  0
 18 19  1  0
 19 20  1  0
 20 21  2  0
 21 22  1  0
 21 23  1  0
 23 24  2  0
 24 25  1  0
 18 26  2  0
 26  2  1  0
 13  8  1  0
 24 19  1  0
  1 27  1  0
  1 28  1  0
  1 29  1  0
  3 30  1  0
  5 31  1  0
  7 32  1  0
  9 33  1  0
 10 34  1  0
 11 35  1  0
 12 36  1  0
 22 37  1  0
 22 38  1  0
 22 39  1  0
 23 40  1  0
 25 41  1  0
 25 42  1  0
 25 43  1  0
M  CHG  2  14   1  16  -1
M  END
$$$$
