
     RDKit          3D

 53 55  0  0  0  0  0  0  0  0999 V2000
    8.1894   -2.0755    0.7526 C   0  0  0  0  0  0  0  0  0  0  0  0
    7.5944   -1.2354   -0.2289 O   0  0  0  0  0  0  0  0  0  0  0  0
    6.2892   -0.8786   -0.0306 C   0  0  0  0  0  0  0  0  0  0  0  0
    5.5010   -1.2278    1.0686 C   0  0  0  0  0  0  0  0  0  0  0  0
    4.1748   -0.7913    1.1487 C   0  0  0  0  0  0  0  0  0  0  0  0
    3.6431    0.0010    0.1276 C   0  0  0  0  0  0  0  0  0  0  0  0
    1.9574    0.5418    0.2437 S   0  0  0  0  0  6  0  0  0  0  0  0
    1.5957    1.1844   -1.0007 O   0  0  0  0  0  0  0  0  0  0  0  0
    1.1809   -0.5593    0.7722 O   0  0  0  0  0  0  0  0  0  0  0  0
    2.0396    1.7196    1.4279 N   0  0  0  0  0  0  0  0  0  0  0  0
    2.8030    2.9399    1.1560 C   0  0  0  0  0  0  0  0  0  0  0  0
    2.4252    3.7936    2.3433 C   0  0  0  0  0  0  0  0  0  0  0  0
    1.0436    3.5042    2.5699 O   0  0  0  0  0  0  0  0  0  0  0  0
    0.7987    2.1535    2.1113 C   0  0  0  0  0  0  0  0  0  0  0  0
   -0.4913    2.1749    1.2647 C   0  0  0  0  0  0  0  0  0  0  0  0
   -1.1628    0.8927    1.1510 N   0  0  0  0  0  0  0  0  0  0  0  0
   -2.4476    0.8088    0.6634 C   0  0  0  0  0  0  0  0  0  0  0  0
   -3.1893    1.7546    0.4326 O   0  0  0  0  0  0  0  0  0  0  0  0
   -2.9359   -0.6340    0.3963 C   0  0  0  0  0  0  0  0  0  0  0  0
   -2.2602   -1.5944    0.7334 O   0  0  0  0  0  0  0  0  0  0  0  0
   -4.1634   -0.6887   -0.2220 N   0  0  0  0  0  0  0  0  0  0  0  0
   -4.8735   -1.9328   -0.3585 C   0  0  0  0  0  0  0  0  0  0  0  0
   -5.9981   -1.8135   -1.3516 C   0  0  0  0  0  0  0  0  0  0  0  0
   -5.7520   -2.1455   -2.6964 C   0  0  0  0  0  0  0  0  0  0  0  0
   -6.7577   -2.0360   -3.6585 C   0  0  0  0  0  0  0  0  0  0  0  0
   -8.0232   -1.5849   -3.2947 C   0  0  0  0  0  0  0  0  0  0  0  0
   -8.2809   -1.2373   -1.9693 C   0  0  0  0  0  0  0  0  0  0  0  0
   -7.2748   -1.3457   -1.0035 C   0  0  0  0  0  0  0  0  0  0  0  0
   -7.6628   -0.8694    0.6113 Cl  0  0  0  0  0  0  0  0  0  0  0  0
    4.4167    0.3461   -0.9808 C   0  0  0  0  0  0  0  0  0  0  0  0
    5.7401   -0.0931   -1.0506 C   0  0  0  0  0  0  0  0  0  0  0  0
    9.2169   -2.2816    0.4375 H   0  0  0  0  0  0  0  0  0  0  0  0
    8.2336   -1.5745    1.7252 H   0  0  0  0  0  0  0  0  0  0  0  0
    7.6642   -3.0337    0.8239 H   0  0  0  0  0  0  0  0  0  0  0  0
    5.8860   -1.8406    1.8774 H   0  0  0  0  0  0  0  0  0  0  0  0
    3.5636   -1.0728    2.0039 H   0  0  0  0  0  0  0  0  0  0  0  0
    2.4593    3.4082    0.2276 H   0  0  0  0  0  0  0  0  0  0  0  0
    3.8805    2.7684    1.1134 H   0  0  0  0  0  0  0  0  0  0  0  0
    2.5622    4.8628    2.1619 H   0  0  0  0  0  0  0  0  0  0  0  0
    2.9855    3.5084    3.2407 H   0  0  0  0  0  0  0  0  0  0  0  0
    0.6572    1.5337    3.0042 H   0  0  0  0  0  0  0  0  0  0  0  0
   -0.3010    2.5552    0.2548 H   0  0  0  0  0  0  0  0  0  0  0  0
   -1.2055    2.8761    1.7152 H   0  0  0  0  0  0  0  0  0  0  0  0
   -0.6184    0.0241    1.1159 H   0  0  0  0  0  0  0  0  0  0  0  0
   -4.6676    0.1923   -0.2831 H   0  0  0  0  0  0  0  0  0  0  0  0
   -5.2337   -2.2396    0.6294 H   0  0  0  0  0  0  0  0  0  0  0  0
   -4.1684   -2.7131   -0.6714 H   0  0  0  0  0  0  0  0  0  0  0  0
   -4.7650   -2.4904   -3.0017 H   0  0  0  0  0  0  0  0  0  0  0  0
   -6.5501   -2.2995   -4.6930 H   0  0  0  0  0  0  0  0  0  0  0  0
   -8.8068   -1.4972   -4.0430 H   0  0  0  0  0  0  0  0  0  0  0  0
   -9.2690   -0.8764   -1.6947 H   0  0  0  0  0  0  0  0  0  0  0  0
    4.0059    0.9463   -1.7892 H   0  0  0  0  0  0  0  0  0  0  0  0
    6.3511    0.1719   -1.9110 H   0  0  0  0  0  0  0  0  0  0  0  0
  1  2  1  0
  2  3  1  0
  3  4  2  0
  4  5  1  0
  5  6  2  0
  6  7  1  0
  7  8  2  0
  7  9  2  0
  7 10  1  0
 10 11  1  0
 11 12  1  0
 12 13  1  0
 13 14  1  0
 14 15  1  0
 15 16  1  0
 16 17  1  0
 17 18  2  0
 17 19  1  0
 19 20  2  0
 19 21  1  0
 21 22  1  0
 22 23  1  0
 23 24  2  0
 24 25  1  0
 25 26  2  0
 26 27  1  0
 27 28  2  0
 28 29  1  0
  6 30  1  0
 30 31  2  0
 31  3  1  0
 14 10  1  0
 28 23  1  0
  1 32  1  0
  1 33  1  0
  1 34  1  0
  4 35  1  0
  5 36  1  0
 11 37  1  0
 11 38  1  0
 12 39  1  0
 12 40  1  0
 14 41  1  0
 15 42  1  0
 15 43  1  0
 16 44  1  0
 21 45  1  0
 22 46  1  0
 22 47  1  0
 24 48  1  0
 25 49  1  0
 26 50  1  0
 27 51  1  0
 30 52  1  0
 31 53  1  0
M  END
$$$$
