
     RDKit          3D

 57 60  0  0  0  0  0  0  0  0999 V2000
    5.1630    0.7963    2.8683 C   0  0  0  0  0  0  0  0  0  0  0  0
    4.2503    0.5309    1.7172 C   0  0  0  0  0  0  0  0  0  0  0  0
    2.8826    0.3459    1.7666 C   0  0  0  0  0  0  0  0  0  0  0  0
    2.4358    0.0138    0.4709 C   0  0  0  0  0  0  0  0  0  0  0  0
    1.0983   -0.2722    0.0524 C   0  0  0  0  0  0  0  0  0  0  0  0
    0.0015   -0.1333    0.8171 C   0  0  0  0  0  0  0  0  0  0  0  0
   -1.3487   -0.4219    0.3220 C   0  0  0  0  0  0  0  0  0  0  0  0
   -1.6621   -1.7316   -0.0446 C   0  0  0  0  0  0  0  0  0  0  0  0
   -2.9419   -2.0464   -0.4645 C   0  0  0  0  0  0  0  0  0  0  0  0
   -3.9187   -1.0560   -0.4939 C   0  0  0  0  0  0  0  0  0  0  0  0
   -5.2321   -1.3696   -0.9008 C   0  0  0  0  0  0  0  0  0  0  0  0
   -6.2694   -0.4233   -0.9326 C   0  0  0  0  0  0  0  0  0  0  0  0
   -7.5541   -0.7387   -1.3640 N   0  0  0  0  0  0  0  0  0  0  0  0
   -7.9217   -2.1252   -1.6598 C   0  0  0  0  0  0  0  0  0  0  0  0
   -8.6711    0.1553   -1.0494 C   0  0  0  0  0  0  0  0  0  0  0  0
   -5.9181    0.8741   -0.5369 C   0  0  0  0  0  0  0  0  0  0  0  0
   -4.6169    1.2144   -0.1319 C   0  0  0  0  0  0  0  0  0  0  0  0
   -3.5867    0.2635   -0.1101 C   0  0  0  0  0  0  0  0  0  0  0  0
   -2.2976    0.5574    0.2641 N   0  0  0  0  0  4  0  0  0  0  0  0
   -1.9357    1.9614    0.5782 C   0  0  0  0  0  0  0  0  0  0  0  0
    3.5415    0.0253   -0.3669 C   0  0  0  0  0  0  0  0  0  0  0  0
    3.5987   -0.1514   -1.8537 C   0  0  0  0  0  0  0  0  0  0  0  0
    4.6702    0.3190    0.4069 N   0  0  0  0  0  0  0  0  0  0  0  0
    6.0161    0.3776   -0.0582 C   0  0  0  0  0  0  0  0  0  0  0  0
    6.5192   -0.6415   -0.8771 C   0  0  0  0  0  0  0  0  0  0  0  0
    7.8386   -0.5844   -1.3294 C   0  0  0  0  0  0  0  0  0  0  0  0
    8.6558    0.4864   -0.9701 C   0  0  0  0  0  0  0  0  0  0  0  0
    8.1581    1.5018   -0.1547 C   0  0  0  0  0  0  0  0  0  0  0  0
    6.8407    1.4494    0.3051 C   0  0  0  0  0  0  0  0  0  0  0  0
    4.6676    0.5467    3.8137 H   0  0  0  0  0  0  0  0  0  0  0  0
    5.4339    1.8552    2.9123 H   0  0  0  0  0  0  0  0  0  0  0  0
    6.0718    0.1895    2.8141 H   0  0  0  0  0  0  0  0  0  0  0  0
    2.2962    0.4182    2.6731 H   0  0  0  0  0  0  0  0  0  0  0  0
    0.9795   -0.6206   -0.9730 H   0  0  0  0  0  0  0  0  0  0  0  0
    0.0667    0.2130    1.8445 H   0  0  0  0  0  0  0  0  0  0  0  0
   -0.9101   -2.5181    0.0054 H   0  0  0  0  0  0  0  0  0  0  0  0
   -3.1719   -3.0723   -0.7508 H   0  0  0  0  0  0  0  0  0  0  0  0
   -5.4379   -2.3974   -1.1961 H   0  0  0  0  0  0  0  0  0  0  0  0
   -7.8726   -2.7431   -0.7561 H   0  0  0  0  0  0  0  0  0  0  0  0
   -7.2706   -2.5497   -2.4320 H   0  0  0  0  0  0  0  0  0  0  0  0
   -8.9410   -2.1940   -2.0556 H   0  0  0  0  0  0  0  0  0  0  0  0
   -8.5456    1.1281   -1.5371 H   0  0  0  0  0  0  0  0  0  0  0  0
   -9.6245   -0.2455   -1.4116 H   0  0  0  0  0  0  0  0  0  0  0  0
   -8.7651    0.2966    0.0334 H   0  0  0  0  0  0  0  0  0  0  0  0
   -6.6577    1.6721   -0.5435 H   0  0  0  0  0  0  0  0  0  0  0  0
   -4.4633    2.2488    0.1619 H   0  0  0  0  0  0  0  0  0  0  0  0
   -2.3838    2.2098    1.5437 H   0  0  0  0  0  0  0  0  0  0  0  0
   -2.3151    2.6064   -0.2195 H   0  0  0  0  0  0  0  0  0  0  0  0
   -0.8567    2.1101    0.6199 H   0  0  0  0  0  0  0  0  0  0  0  0
    4.3898    0.4497   -2.3119 H   0  0  0  0  0  0  0  0  0  0  0  0
    3.7535   -1.2053   -2.1057 H   0  0  0  0  0  0  0  0  0  0  0  0
    2.6640    0.1712   -2.3239 H   0  0  0  0  0  0  0  0  0  0  0  0
    5.9158   -1.5064   -1.1386 H   0  0  0  0  0  0  0  0  0  0  0  0
    8.2344   -1.3810   -1.9554 H   0  0  0  0  0  0  0  0  0  0  0  0
    9.6830    0.5289   -1.3243 H   0  0  0  0  0  0  0  0  0  0  0  0
    8.7963    2.3390    0.1177 H   0  0  0  0  0  0  0  0  0  0  0  0
    6.4678    2.2730    0.9079 H   0  0  0  0  0  0  0  0  0  0  0  0
  1  2  1  0
  2  3  2  0
  3  4  1  0
  4  5  1  0
  5  6  2  3
  6  7  1  0
  7  8  2  0
  8  9  1  0
  9 10  2  0
 10 11  1  0
 11 12  2  0
 12 13  1  0
 13 14  1  0
 13 15  1  0
 12 16  1  0
 16 17  2  0
 17 18  1  0
 18 19  2  0
 19 20  1  0
  4 21  2  0
 21 22  1  0
 21 23  1  0
 23 24  1  0
 24 25  2  0
 25 26  1  0
 26 27  2  0
 27 28  1  0
 28 29  2  0
 23  2  1  0
 29 24  1  0
 19  7  1  0
 18 10  1  0
  1 30  1  0
  1 31  1  0
  1 32  1  0
  3 33  1  0
  5 34  1  0
  6 35  1  0
  8 36  1  0
  9 37  1  0
 11 38  1  0
 14 39  1  0
 14 40  1  0
 14 41  1  0
 15 42  1  0
 15 43  1  0
 15 44  1  0
 16 45  1  0
 17 46  1  0
 20 47  1  0
 20 48  1  0
 20 49  1  0
 22 50  1  0
 22 51  1  0
 22 52  1  0
 25 53  1  0
 26 54  1  0
 27 55  1  0
 28 56  1  0
 29 57  1  0
M  CHG  1  19   1
M  END
$$$$
