
     RDKit          3D

 57 62  0  0  0  0  0  0  0  0999 V2000
    7.8402   -0.2353    2.0398 C   0  0  0  0  0  0  0  0  0  0  0  0
    6.5556    0.0441    1.3382 C   0  0  0  0  0  0  0  0  0  0  0  0
    5.5950    0.9848    1.6457 C   0  0  0  0  0  0  0  0  0  0  0  0
    4.5033    0.9577    0.7299 C   0  0  0  0  0  0  0  0  0  0  0  0
    4.6535   -0.0184   -0.2373 C   0  0  0  0  0  0  0  0  0  0  0  0
    3.7785   -0.3528   -1.3488 C   0  0  0  0  0  0  0  0  0  0  0  0
    4.1949   -0.4433   -2.5049 O   0  0  0  0  0  0  0  0  0  0  0  0
    2.4140   -0.5338   -1.0756 N   0  0  0  0  0  0  0  0  0  0  0  0
    1.5256   -0.7018   -2.2169 C   0  0  0  0  0  0  0  0  0  0  0  0
    0.0515   -0.7911   -1.8164 C   0  0  0  0  0  0  0  0  0  0  0  0
   -0.2921    0.2006   -0.6787 C   0  0  0  0  0  0  0  0  0  0  0  0
    0.6286   -0.0655    0.5551 C   0  0  0  0  0  0  0  0  0  0  0  0
    1.8675   -0.8975    0.2231 C   0  0  0  0  0  0  0  0  0  0  0  0
    0.0944    1.5353   -1.1086 O   0  0  0  0  0  0  0  0  0  0  0  0
   -0.7732    2.2332   -1.8922 C   0  0  0  0  0  0  0  0  0  0  0  0
   -0.2576    3.3721   -2.5112 C   0  0  0  0  0  0  0  0  0  0  0  0
   -1.0672    4.1428   -3.3493 C   0  0  0  0  0  0  0  0  0  0  0  0
   -2.3945    3.7727   -3.5638 C   0  0  0  0  0  0  0  0  0  0  0  0
   -3.3873    4.7201   -4.6001 Cl  0  0  0  0  0  0  0  0  0  0  0  0
   -2.9208    2.6433   -2.9428 C   0  0  0  0  0  0  0  0  0  0  0  0
   -2.1029    1.8847   -2.0988 C   0  0  0  0  0  0  0  0  0  0  0  0
   -2.6331    0.6969   -1.4174 C   0  0  0  0  0  0  0  0  0  0  0  0
   -3.6955    0.2043   -1.7885 O   0  0  0  0  0  0  0  0  0  0  0  0
   -1.7904    0.1467   -0.2730 C   0  0  0  0  0  0  0  0  0  0  0  0
   -2.2880   -1.2275    0.1577 C   0  0  0  0  0  0  0  0  0  0  0  0
   -3.1640   -0.8095    1.2899 C   0  0  0  0  0  0  0  0  0  0  0  0
   -4.1270   -1.7328    1.9221 C   0  0  0  0  0  0  0  0  0  0  0  0
   -4.9639   -1.2787    2.9436 C   0  0  0  0  0  0  0  0  0  0  0  0
   -5.8618   -2.1610    3.5407 C   0  0  0  0  0  0  0  0  0  0  0  0
   -5.8887   -3.4727    3.0958 C   0  0  0  0  0  0  0  0  0  0  0  0
   -5.0917   -3.9470    2.1132 N   0  0  0  0  0  0  0  0  0  0  0  0
   -4.2320   -3.0655    1.5460 C   0  0  0  0  0  0  0  0  0  0  0  0
   -2.9851    0.4073    1.6951 N   0  0  0  0  0  0  0  0  0  0  0  0
   -2.0088    0.9983    0.8644 O   0  0  0  0  0  0  0  0  0  0  0  0
    6.1341   -0.8552   -0.0558 S   0  0  0  0  0  0  0  0  0  0  0  0
    7.9440    0.3936    2.9303 H   0  0  0  0  0  0  0  0  0  0  0  0
    8.6924   -0.0304    1.3833 H   0  0  0  0  0  0  0  0  0  0  0  0
    7.8894   -1.2810    2.3614 H   0  0  0  0  0  0  0  0  0  0  0  0
    5.6750    1.6703    2.4812 H   0  0  0  0  0  0  0  0  0  0  0  0
    3.6515    1.6260    0.7736 H   0  0  0  0  0  0  0  0  0  0  0  0
    1.8182   -1.6109   -2.7558 H   0  0  0  0  0  0  0  0  0  0  0  0
    1.6864    0.1429   -2.8979 H   0  0  0  0  0  0  0  0  0  0  0  0
   -0.1700   -1.8167   -1.4963 H   0  0  0  0  0  0  0  0  0  0  0  0
   -0.5536   -0.6078   -2.7116 H   0  0  0  0  0  0  0  0  0  0  0  0
    0.9591    0.8937    0.9761 H   0  0  0  0  0  0  0  0  0  0  0  0
    0.0991   -0.5811    1.3633 H   0  0  0  0  0  0  0  0  0  0  0  0
    1.6019   -1.9613    0.1689 H   0  0  0  0  0  0  0  0  0  0  0  0
    2.5992   -0.8213    1.0293 H   0  0  0  0  0  0  0  0  0  0  0  0
    0.7795    3.6577   -2.3485 H   0  0  0  0  0  0  0  0  0  0  0  0
   -0.6563    5.0265   -3.8316 H   0  0  0  0  0  0  0  0  0  0  0  0
   -3.9583    2.3593   -3.1040 H   0  0  0  0  0  0  0  0  0  0  0  0
   -2.8300   -1.7712   -0.6194 H   0  0  0  0  0  0  0  0  0  0  0  0
   -1.5000   -1.8718    0.5583 H   0  0  0  0  0  0  0  0  0  0  0  0
   -4.9241   -0.2438    3.2760 H   0  0  0  0  0  0  0  0  0  0  0  0
   -6.5241   -1.8310    4.3336 H   0  0  0  0  0  0  0  0  0  0  0  0
   -6.5716   -4.1976    3.5304 H   0  0  0  0  0  0  0  0  0  0  0  0
   -3.6190   -3.4995    0.7630 H   0  0  0  0  0  0  0  0  0  0  0  0
  1  2  1  0
  2  3  2  0
  3  4  1  0
  4  5  2  0
  5  6  1  0
  6  7  2  0
  6  8  1  0
  8  9  1  0
  9 10  1  0
 10 11  1  0
 11 12  1  0
 12 13  1  0
 11 14  1  0
 14 15  1  0
 15 16  2  0
 16 17  1  0
 17 18  2  0
 18 19  1  0
 18 20  1  0
 20 21  2  0
 21 22  1  0
 22 23  2  0
 22 24  1  0
 24 25  1  0
 25 26  1  0
 26 27  1  0
 27 28  2  0
 28 29  1  0
 29 30  2  0
 30 31  1  0
 31 32  2  0
 26 33  2  0
 33 34  1  0
  5 35  1  0
 35  2  1  0
 13  8  1  0
 21 15  1  0
 34 24  1  0
 24 11  1  0
 32 27  1  0
  1 36  1  0
  1 37  1  0
  1 38  1  0
  3 39  1  0
  4 40  1  0
  9 41  1  0
  9 42  1  0
 10 43  1  0
 10 44  1  0
 12 45  1  0
 12 46  1  0
 13 47  1  0
 13 48  1  0
 16 49  1  0
 17 50  1  0
 20 51  1  0
 25 52  1  0
 25 53  1  0
 28 54  1  0
 29 55  1  0
 30 56  1  0
 32 57  1  0
M  END
$$$$
