
     RDKit          3D

 64 69  0  0  0  0  0  0  0  0999 V2000
   -9.4397    1.8777    0.5863 C   0  0  0  0  0  0  0  0  0  0  0  0
   -8.3368    2.3646    1.3412 O   0  0  0  0  0  0  0  0  0  0  0  0
   -7.0993    1.8954    0.9982 C   0  0  0  0  0  0  0  0  0  0  0  0
   -6.0523    2.3809    1.7811 C   0  0  0  0  0  0  0  0  0  0  0  0
   -4.7329    1.9778    1.5467 C   0  0  0  0  0  0  0  0  0  0  0  0
   -4.4398    1.0794    0.5124 C   0  0  0  0  0  0  0  0  0  0  0  0
   -3.0928    0.6408    0.2830 N   0  0  0  0  0  0  0  0  0  0  0  0
   -1.9106    1.3488    0.5565 C   0  0  0  0  0  0  0  0  0  0  0  0
   -1.8884    2.6528    0.9474 N   0  0  0  0  0  0  0  0  0  0  0  0
   -0.8155    0.5266    0.3163 C   0  0  0  0  0  0  0  0  0  0  0  0
    0.5892    0.8996    0.5006 C   0  0  0  0  0  0  0  0  0  0  0  0
    0.9003    1.9994    0.9455 O   0  0  0  0  0  0  0  0  0  0  0  0
    1.4767   -0.1168    0.2022 N   0  0  0  0  0  0  0  0  0  0  0  0
    2.8431   -0.0495    0.1968 C   0  0  0  0  0  0  0  0  0  0  0  0
    3.6965   -1.0879    0.2616 C   0  0  0  0  0  0  0  0  0  0  0  0
    3.3458   -2.5389    0.3750 C   0  0  0  0  0  0  0  0  0  0  0  0
    5.0437   -0.6958    0.2819 N   0  0  0  0  0  0  0  0  0  0  0  0
    5.8662   -1.1287    1.4282 C   0  0  0  0  0  0  0  0  0  0  0  0
    5.0342    0.7208    0.1076 N   0  0  0  0  0  0  0  0  0  0  0  0
    6.1562    1.3970   -0.4452 C   0  0  0  0  0  0  0  0  0  0  0  0
    6.1933    2.7972   -0.5057 C   0  0  0  0  0  0  0  0  0  0  0  0
    7.2987    3.4683   -1.0399 C   0  0  0  0  0  0  0  0  0  0  0  0
    8.3860    2.7484   -1.5263 C   0  0  0  0  0  0  0  0  0  0  0  0
    8.3674    1.3577   -1.4803 C   0  0  0  0  0  0  0  0  0  0  0  0
    7.2614    0.6892   -0.9442 C   0  0  0  0  0  0  0  0  0  0  0  0
    3.7023    1.1741    0.0361 C   0  0  0  0  0  0  0  0  0  0  0  0
    3.2924    2.2894   -0.2430 O   0  0  0  0  0  0  0  0  0  0  0  0
   -1.3374   -0.6955   -0.1649 C   0  0  0  0  0  0  0  0  0  0  0  0
   -0.6688   -1.8234   -0.5350 N   0  0  0  0  0  0  0  0  0  0  0  0
   -1.4581   -2.8276   -0.9498 C   0  0  0  0  0  0  0  0  0  0  0  0
   -0.8592   -4.0149   -1.3532 C   0  0  0  0  0  0  0  0  0  0  0  0
   -1.6157   -5.1034   -1.7887 C   0  0  0  0  0  0  0  0  0  0  0  0
   -2.9990   -5.0043   -1.8233 C   0  0  0  0  0  0  0  0  0  0  0  0
   -3.6127   -3.8165   -1.4240 C   0  0  0  0  0  0  0  0  0  0  0  0
   -2.8719   -2.7250   -0.9891 C   0  0  0  0  0  0  0  0  0  0  0  0
   -3.5298   -1.6165   -0.6193 N   0  0  0  0  0  0  0  0  0  0  0  0
   -2.7212   -0.6070   -0.2165 C   0  0  0  0  0  0  0  0  0  0  0  0
   -5.4949    0.5897   -0.2689 C   0  0  0  0  0  0  0  0  0  0  0  0
   -6.8148    0.9995   -0.0307 C   0  0  0  0  0  0  0  0  0  0  0  0
  -10.3493    2.3319    0.9917 H   0  0  0  0  0  0  0  0  0  0  0  0
   -9.3586    2.1748   -0.4647 H   0  0  0  0  0  0  0  0  0  0  0  0
   -9.5382    0.7913    0.6847 H   0  0  0  0  0  0  0  0  0  0  0  0
   -6.2655    3.0698    2.5955 H   0  0  0  0  0  0  0  0  0  0  0  0
   -3.9645    2.3434    2.2233 H   0  0  0  0  0  0  0  0  0  0  0  0
   -0.9639    3.1021    0.9929 H   0  0  0  0  0  0  0  0  0  0  0  0
   -2.5907    3.3008    0.5934 H   0  0  0  0  0  0  0  0  0  0  0  0
    1.0581   -1.0286    0.0440 H   0  0  0  0  0  0  0  0  0  0  0  0
    2.2870   -2.7333    0.1854 H   0  0  0  0  0  0  0  0  0  0  0  0
    3.5781   -2.9148    1.3771 H   0  0  0  0  0  0  0  0  0  0  0  0
    3.9166   -3.1231   -0.3554 H   0  0  0  0  0  0  0  0  0  0  0  0
    5.4150   -0.8056    2.3748 H   0  0  0  0  0  0  0  0  0  0  0  0
    6.8808   -0.7229    1.3810 H   0  0  0  0  0  0  0  0  0  0  0  0
    5.9569   -2.2206    1.4381 H   0  0  0  0  0  0  0  0  0  0  0  0
    5.3700    3.3960   -0.1225 H   0  0  0  0  0  0  0  0  0  0  0  0
    7.3050    4.5550   -1.0739 H   0  0  0  0  0  0  0  0  0  0  0  0
    9.2417    3.2718   -1.9455 H   0  0  0  0  0  0  0  0  0  0  0  0
    9.2086    0.7893   -1.8696 H   0  0  0  0  0  0  0  0  0  0  0  0
    7.2646   -0.3969   -0.9545 H   0  0  0  0  0  0  0  0  0  0  0  0
    0.2249   -4.0971   -1.3293 H   0  0  0  0  0  0  0  0  0  0  0  0
   -1.1233   -6.0215   -2.0982 H   0  0  0  0  0  0  0  0  0  0  0  0
   -3.6024   -5.8441   -2.1582 H   0  0  0  0  0  0  0  0  0  0  0  0
   -4.6977   -3.7405   -1.4510 H   0  0  0  0  0  0  0  0  0  0  0  0
   -5.3213   -0.0948   -1.0957 H   0  0  0  0  0  0  0  0  0  0  0  0
   -7.5933    0.5942   -0.6677 H   0  0  0  0  0  0  0  0  0  0  0  0
  1  2  1  0
  2  3  1  0
  3  4  2  0
  4  5  1  0
  5  6  2  0
  6  7  1  0
  7  8  1  0
  8  9  1  0
  8 10  2  0
 10 11  1  0
 11 12  2  0
 11 13  1  0
 13 14  1  0
 14 15  2  0
 15 16  1  0
 15 17  1  0
 17 18  1  0
 17 19  1  0
 19 20  1  0
 20 21  2  0
 21 22  1  0
 22 23  2  0
 23 24  1  0
 24 25  2  0
 19 26  1  0
 26 27  2  0
 10 28  1  0
 28 29  2  0
 29 30  1  0
 30 31  2  0
 31 32  1  0
 32 33  2  0
 33 34  1  0
 34 35  2  0
 35 36  1  0
 36 37  2  0
  6 38  1  0
 38 39  2  0
 39  3  1  0
 37  7  1  0
 26 14  1  0
 37 28  1  0
 25 20  1  0
 35 30  1  0
  1 40  1  0
  1 41  1  0
  1 42  1  0
  4 43  1  0
  5 44  1  0
  9 45  1  0
  9 46  1  0
 13 47  1  0
 16 48  1  0
 16 49  1  0
 16 50  1  0
 18 51  1  0
 18 52  1  0
 18 53  1  0
 21 54  1  0
 22 55  1  0
 23 56  1  0
 24 57  1  0
 25 58  1  0
 31 59  1  0
 32 60  1  0
 33 61  1  0
 34 62  1  0
 38 63  1  0
 39 64  1  0
M  END
$$$$
