
     RDKit          3D

 39 39  0  0  0  0  0  0  0  0999 V2000
   -5.4636    2.9885   -0.6937 C   0  0  0  0  0  0  0  0  0  0  0  0
   -4.2905    2.1390   -1.0752 C   0  0  0  0  0  0  0  0  0  0  0  0
   -3.8418    2.0475   -2.2085 O   0  0  0  0  0  0  0  0  0  0  0  0
   -3.8028    1.4985    0.0227 O   0  0  0  0  0  0  0  0  0  0  0  0
   -2.6774    0.6332   -0.2094 C   0  0  0  0  0  0  0  0  0  0  0  0
   -1.3792    1.4305   -0.0969 C   0  0  0  0  0  0  0  0  0  0  0  0
   -0.1294    0.5824   -0.3968 C   0  0  0  0  0  0  0  0  0  0  0  0
    1.0353    1.4887   -0.3869 N   0  0  0  0  0  0  0  0  0  0  0  0
    2.3873    1.0400   -1.2617 S   0  0  0  0  0  6  0  0  0  0  0  0
    1.9720    0.6224   -2.5793 O   0  0  0  0  0  0  0  0  0  0  0  0
    3.3584    2.0928   -1.0702 O   0  0  0  0  0  0  0  0  0  0  0  0
    2.9402   -0.2638   -0.4816 O   0  0  0  0  0  0  0  0  0  0  0  0
    4.2301   -0.7459   -0.8502 C   0  0  0  0  0  0  0  0  0  0  0  0
    4.4557   -2.1863   -0.3727 C   0  0  0  0  0  0  0  0  0  0  0  0
    4.2790   -2.3061    1.4050 Cl  0  0  0  0  0  0  0  0  0  0  0  0
    6.1182   -2.7022   -0.8096 Cl  0  0  0  0  0  0  0  0  0  0  0  0
    3.2981   -3.3039   -1.1575 Cl  0  0  0  0  0  0  0  0  0  0  0  0
    0.0400   -0.5643    0.5831 C   0  0  0  0  0  0  0  0  0  0  0  0
    0.2018   -0.3423    1.9605 C   0  0  0  0  0  0  0  0  0  0  0  0
    0.3694   -1.4146    2.8385 C   0  0  0  0  0  0  0  0  0  0  0  0
    0.3768   -2.7200    2.3536 C   0  0  0  0  0  0  0  0  0  0  0  0
    0.2162   -2.9560    0.9909 C   0  0  0  0  0  0  0  0  0  0  0  0
    0.0505   -1.8860    0.1102 C   0  0  0  0  0  0  0  0  0  0  0  0
   -5.1502    3.7530    0.0217 H   0  0  0  0  0  0  0  0  0  0  0  0
   -6.2521    2.3627   -0.2683 H   0  0  0  0  0  0  0  0  0  0  0  0
   -5.8569    3.4848   -1.5855 H   0  0  0  0  0  0  0  0  0  0  0  0
   -2.7634    0.1275   -1.1786 H   0  0  0  0  0  0  0  0  0  0  0  0
   -2.7237   -0.1428    0.5612 H   0  0  0  0  0  0  0  0  0  0  0  0
   -1.4167    2.2777   -0.7949 H   0  0  0  0  0  0  0  0  0  0  0  0
   -1.3233    1.8917    0.8980 H   0  0  0  0  0  0  0  0  0  0  0  0
   -0.2574    0.1856   -1.4118 H   0  0  0  0  0  0  0  0  0  0  0  0
    1.2983    1.8498    0.5266 H   0  0  0  0  0  0  0  0  0  0  0  0
    4.3439   -0.6939   -1.9409 H   0  0  0  0  0  0  0  0  0  0  0  0
    4.9780   -0.0766   -0.4072 H   0  0  0  0  0  0  0  0  0  0  0  0
    0.1992    0.6663    2.3669 H   0  0  0  0  0  0  0  0  0  0  0  0
    0.4975   -1.2325    3.9027 H   0  0  0  0  0  0  0  0  0  0  0  0
    0.5132   -3.5542    3.0372 H   0  0  0  0  0  0  0  0  0  0  0  0
    0.2298   -3.9748    0.6110 H   0  0  0  0  0  0  0  0  0  0  0  0
   -0.0606   -2.0962   -0.9525 H   0  0  0  0  0  0  0  0  0  0  0  0
  1  2  1  0
  2  3  2  0
  2  4  1  0
  4  5  1  0
  5  6  1  0
  6  7  1  0
  7  8  1  0
  8  9  1  0
  9 10  2  0
  9 11  2  0
  9 12  1  0
 12 13  1  0
 13 14  1  0
 14 15  1  0
 14 16  1  0
 14 17  1  0
  7 18  1  0
 18 19  2  0
 19 20  1  0
 20 21  2  0
 21 22  1  0
 22 23  2  0
 23 18  1  0
  1 24  1  0
  1 25  1  0
  1 26  1  0
  5 27  1  0
  5 28  1  0
  6 29  1  0
  6 30  1  0
  7 31  1  0
  8 32  1  0
 13 33  1  0
 13 34  1  0
 19 35  1  0
 20 36  1  0
 21 37  1  0
 22 38  1  0
 23 39  1  0
M  END
$$$$
