
     RDKit          3D

 67 72  0  0  0  0  0  0  0  0999 V2000
   -4.1409    5.0807    0.3380 C   0  0  0  0  0  0  0  0  0  0  0  0
   -3.4960    3.9666   -0.4239 C   0  0  0  0  0  0  0  0  0  0  0  0
   -3.6802    3.8321   -1.8083 C   0  0  0  0  0  0  0  0  0  0  0  0
   -3.0749    2.7847   -2.5282 C   0  0  0  0  0  0  0  0  0  0  0  0
   -2.2746    1.8412   -1.8823 C   0  0  0  0  0  0  0  0  0  0  0  0
   -2.1005    1.9613   -0.5131 C   0  0  0  0  0  0  0  0  0  0  0  0
   -2.7008    3.0133    0.1914 C   0  0  0  0  0  0  0  0  0  0  0  0
   -2.3722    2.9329    1.5417 N   0  0  0  0  0  0  0  0  0  0  0  0
   -1.5383    1.8434    1.8050 C   0  0  0  0  0  0  0  0  0  0  0  0
   -1.0742    1.5697    2.9015 O   0  0  0  0  0  0  0  0  0  0  0  0
   -1.3277    1.1134    0.4513 C   0  0  1  0  0  0  0  0  0  0  0  0
   -1.8746   -0.2724    0.4427 C   0  0  0  0  0  0  0  0  0  0  0  0
   -0.8221   -1.1978    0.5327 C   0  0  0  0  0  0  0  0  0  0  0  0
   -1.3409   -2.4635    0.5343 C   0  0  0  0  0  0  0  0  0  0  0  0
   -0.7249   -3.6332    0.6865 O   0  0  0  0  0  0  0  0  0  0  0  0
   -2.7461   -2.3445    0.4133 N   0  0  0  0  0  0  0  0  0  0  0  0
   -3.6888   -3.4301    0.3572 C   0  0  0  0  0  0  0  0  0  0  0  0
   -3.2962   -4.7001   -0.0907 C   0  0  0  0  0  0  0  0  0  0  0  0
   -4.2142   -5.7542   -0.1470 C   0  0  0  0  0  0  0  0  0  0  0  0
   -5.5339   -5.5561    0.2478 C   0  0  0  0  0  0  0  0  0  0  0  0
   -5.9375   -4.3024    0.6964 C   0  0  0  0  0  0  0  0  0  0  0  0
   -5.0229   -3.2450    0.7496 C   0  0  0  0  0  0  0  0  0  0  0  0
   -3.0556   -0.9644    0.3547 C   0  0  0  0  0  0  0  0  0  0  0  0
   -4.2944   -0.5090    0.1763 O   0  0  0  0  0  0  0  0  0  0  0  0
    0.4657   -0.4821    0.6580 C   0  0  1  0  0  0  0  0  0  0  0  0
    1.6812   -0.9983   -0.1023 C   0  0  0  0  0  0  0  0  0  0  0  0
    2.7879   -0.0286   -0.0280 N   0  0  0  0  0  0  0  0  0  0  0  0
    4.0766   -0.5070   -0.1931 C   0  0  0  0  0  0  0  0  0  0  0  0
    4.3559   -1.6990   -0.1990 O   0  0  0  0  0  0  0  0  0  0  0  0
    4.9790    0.4957   -0.3423 O   0  0  0  0  0  0  0  0  0  0  0  0
    6.3904    0.2135   -0.5221 C   0  0  0  0  0  0  0  0  0  0  0  0
    7.0465    1.5959   -0.6612 C   0  0  0  0  0  0  0  0  0  0  0  0
    6.6430   -0.5782   -1.8097 C   0  0  0  0  0  0  0  0  0  0  0  0
    6.9796   -0.4856    0.7077 C   0  0  0  0  0  0  0  0  0  0  0  0
    2.4460    1.3860   -0.2741 C   0  0  0  0  0  0  0  0  0  0  0  0
    1.1117    1.8356    0.3776 C   0  0  0  0  0  0  0  0  0  0  0  0
    0.0824    0.8502    0.0908 N   0  0  0  0  0  0  0  0  0  0  0  0
   -4.6775    5.7639   -0.3286 H   0  0  0  0  0  0  0  0  0  0  0  0
   -3.3846    5.6658    0.8711 H   0  0  0  0  0  0  0  0  0  0  0  0
   -4.8612    4.6793    1.0581 H   0  0  0  0  0  0  0  0  0  0  0  0
   -4.2980    4.5468   -2.3499 H   0  0  0  0  0  0  0  0  0  0  0  0
   -3.2342    2.7100   -3.6024 H   0  0  0  0  0  0  0  0  0  0  0  0
   -1.8075    1.0316   -2.4362 H   0  0  0  0  0  0  0  0  0  0  0  0
   -2.6637    3.5779    2.2607 H   0  0  0  0  0  0  0  0  0  0  0  0
    0.2180   -3.4677    0.8563 H   0  0  0  0  0  0  0  0  0  0  0  0
   -2.2869   -4.8951   -0.4397 H   0  0  0  0  0  0  0  0  0  0  0  0
   -3.8945   -6.7292   -0.5058 H   0  0  0  0  0  0  0  0  0  0  0  0
   -6.2452   -6.3762    0.2061 H   0  0  0  0  0  0  0  0  0  0  0  0
   -6.9647   -4.1434    1.0145 H   0  0  0  0  0  0  0  0  0  0  0  0
   -5.3764   -2.2953    1.1387 H   0  0  0  0  0  0  0  0  0  0  0  0
   -4.2454    0.4451   -0.0094 H   0  0  0  0  0  0  0  0  0  0  0  0
    0.7091   -0.3832    1.7259 H   0  0  0  0  0  0  0  0  0  0  0  0
    1.4559   -1.1571   -1.1650 H   0  0  0  0  0  0  0  0  0  0  0  0
    2.0010   -1.9636    0.3059 H   0  0  0  0  0  0  0  0  0  0  0  0
    8.1296    1.5203   -0.8041 H   0  0  0  0  0  0  0  0  0  0  0  0
    6.8568    2.2085    0.2280 H   0  0  0  0  0  0  0  0  0  0  0  0
    6.6222    2.1444   -1.5103 H   0  0  0  0  0  0  0  0  0  0  0  0
    6.2692   -1.6040   -1.7399 H   0  0  0  0  0  0  0  0  0  0  0  0
    6.1299   -0.1132   -2.6589 H   0  0  0  0  0  0  0  0  0  0  0  0
    7.7126   -0.6364   -2.0380 H   0  0  0  0  0  0  0  0  0  0  0  0
    6.7205    0.0564    1.6240 H   0  0  0  0  0  0  0  0  0  0  0  0
    6.5934   -1.5025    0.8253 H   0  0  0  0  0  0  0  0  0  0  0  0
    8.0706   -0.5555    0.6417 H   0  0  0  0  0  0  0  0  0  0  0  0
    2.3847    1.5060   -1.3632 H   0  0  0  0  0  0  0  0  0  0  0  0
    3.2529    2.0343    0.0830 H   0  0  0  0  0  0  0  0  0  0  0  0
    0.8392    2.8165   -0.0272 H   0  0  0  0  0  0  0  0  0  0  0  0
    1.2607    1.9505    1.4579 H   0  0  0  0  0  0  0  0  0  0  0  0
  1  2  1  0
  2  3  2  0
  3  4  1  0
  4  5  2  0
  5  6  1  0
  6  7  2  0
  7  8  1  0
  8  9  1  0
  9 10  2  0
  9 11  1  0
 11 12  1  0
 12 13  1  0
 13 14  2  0
 14 15  1  0
 14 16  1  0
 16 17  1  0
 17 18  2  0
 18 19  1  0
 19 20  2  0
 20 21  1  0
 21 22  2  0
 16 23  1  0
 23 24  1  0
 13 25  1  0
 25 26  1  0
 26 27  1  0
 27 28  1  0
 28 29  2  0
 28 30  1  0
 30 31  1  0
 31 32  1  0
 31 33  1  0
 31 34  1  0
 27 35  1  0
 35 36  1  0
 36 37  1  0
  7  2  1  0
 11 37  1  6
 11  6  1  0
 23 12  2  0
 37 25  1  0
 22 17  1  0
  1 38  1  0
  1 39  1  0
  1 40  1  0
  3 41  1  0
  4 42  1  0
  5 43  1  0
  8 44  1  0
 15 45  1  0
 18 46  1  0
 19 47  1  0
 20 48  1  0
 21 49  1  0
 22 50  1  0
 24 51  1  0
 25 52  1  1
 26 53  1  0
 26 54  1  0
 32 55  1  0
 32 56  1  0
 32 57  1  0
 33 58  1  0
 33 59  1  0
 33 60  1  0
 34 61  1  0
 34 62  1  0
 34 63  1  0
 35 64  1  0
 35 65  1  0
 36 66  1  0
 36 67  1  0
M  END
$$$$
