
     RDKit          3D

 69 74  0  0  0  0  0  0  0  0999 V2000
    7.1325   -1.8071   -0.6714 C   0  0  0  0  0  0  0  0  0  0  0  0
    6.2293   -2.2582    0.3262 O   0  0  0  0  0  0  0  0  0  0  0  0
    4.9305   -1.8156    0.2579 C   0  0  0  0  0  0  0  0  0  0  0  0
    4.4082   -1.0598   -0.7979 C   0  0  0  0  0  0  0  0  0  0  0  0
    3.0617   -0.6657   -0.8000 C   0  0  0  0  0  0  0  0  0  0  0  0
    2.2318   -1.0025    0.2837 C   0  0  0  0  0  0  0  0  0  0  0  0
    2.7576   -1.7673    1.3386 C   0  0  0  0  0  0  0  0  0  0  0  0
    4.0964   -2.1771    1.3332 C   0  0  0  0  0  0  0  0  0  0  0  0
    4.6829   -2.9244    2.3255 O   0  0  0  0  0  0  0  0  0  0  0  0
    3.8647   -3.3497    3.4056 C   0  0  0  0  0  0  0  0  0  0  0  0
    0.7614   -0.6198    0.3062 C   0  0  0  0  0  0  0  0  0  0  0  0
    0.4702    0.4508   -0.6623 N   0  0  0  0  0  0  0  0  0  0  0  0
   -0.9212    0.6664   -0.7034 C   0  0  0  0  0  0  0  0  0  0  0  0
   -1.7218   -0.2384   -1.3135 N   0  0  0  0  0  0  0  0  0  0  0  0
   -3.0581   -0.0414   -1.3405 C   0  0  0  0  0  0  0  0  0  0  0  0
   -3.9004   -1.1196   -2.0161 C   0  0  0  0  0  0  0  0  0  0  0  0
   -4.4276   -2.1663   -1.1093 N   0  0  0  0  0  0  0  0  0  0  0  0
   -5.5056   -2.9237   -1.7795 C   0  0  0  0  0  0  0  0  0  0  0  0
   -5.7139   -4.3050   -1.1426 C   0  0  0  0  0  0  0  0  0  0  0  0
   -4.5653   -5.1544   -1.2813 O   0  0  0  0  0  0  0  0  0  0  0  0
   -3.3320   -4.4254   -1.3506 C   0  0  0  0  0  0  0  0  0  0  0  0
   -3.3805   -3.0810   -0.6065 C   0  0  0  0  0  0  0  0  0  0  0  0
   -3.7060    1.0149   -0.8301 N   0  0  0  0  0  0  0  0  0  0  0  0
   -2.8870    1.9029   -0.2469 C   0  0  0  0  0  0  0  0  0  0  0  0
   -3.5189    3.3301    0.4388 S   0  0  0  0  0  0  0  0  0  0  0  0
   -1.9718    3.8637    0.8975 C   0  0  0  0  0  0  0  0  0  0  0  0
   -0.9780    2.9587    0.5712 C   0  0  0  0  0  0  0  0  0  0  0  0
   -1.5092    1.8109   -0.1281 C   0  0  0  0  0  0  0  0  0  0  0  0
    0.4653    3.2242    0.8892 C   0  0  0  0  0  0  0  0  0  0  0  0
    0.6309    4.3632    1.9090 C   0  0  0  0  0  0  0  0  0  0  0  0
   -0.2709    5.5692    1.5743 C   0  0  0  0  0  0  0  0  0  0  0  0
   -0.0099    6.7262    2.5365 C   0  0  0  0  0  0  0  0  0  0  0  0
   -1.7631    5.1691    1.6026 C   0  0  0  0  0  0  0  0  0  0  0  0
    0.9957    0.1407   -1.9994 C   0  0  0  0  0  0  0  0  0  0  0  0
    2.5258    0.1728   -1.9376 C   0  0  0  0  0  0  0  0  0  0  0  0
    8.1229   -2.2056   -0.4295 H   0  0  0  0  0  0  0  0  0  0  0  0
    7.2055   -0.7144   -0.6768 H   0  0  0  0  0  0  0  0  0  0  0  0
    6.8527   -2.1909   -1.6578 H   0  0  0  0  0  0  0  0  0  0  0  0
    5.0285   -0.7684   -1.6391 H   0  0  0  0  0  0  0  0  0  0  0  0
    2.0963   -2.0317    2.1577 H   0  0  0  0  0  0  0  0  0  0  0  0
    3.4866   -2.4936    3.9746 H   0  0  0  0  0  0  0  0  0  0  0  0
    3.0455   -3.9867    3.0551 H   0  0  0  0  0  0  0  0  0  0  0  0
    4.4851   -3.9478    4.0801 H   0  0  0  0  0  0  0  0  0  0  0  0
    0.1807   -1.5279    0.0910 H   0  0  0  0  0  0  0  0  0  0  0  0
    0.5052   -0.2718    1.3153 H   0  0  0  0  0  0  0  0  0  0  0  0
   -4.7434   -0.5976   -2.4887 H   0  0  0  0  0  0  0  0  0  0  0  0
   -3.3180   -1.5697   -2.8311 H   0  0  0  0  0  0  0  0  0  0  0  0
   -6.4354   -2.3467   -1.7239 H   0  0  0  0  0  0  0  0  0  0  0  0
   -5.2644   -3.0731   -2.8406 H   0  0  0  0  0  0  0  0  0  0  0  0
   -5.9493   -4.2152   -0.0750 H   0  0  0  0  0  0  0  0  0  0  0  0
   -6.5564   -4.8162   -1.6199 H   0  0  0  0  0  0  0  0  0  0  0  0
   -3.0842   -4.2739   -2.4078 H   0  0  0  0  0  0  0  0  0  0  0  0
   -2.5518   -5.0640   -0.9229 H   0  0  0  0  0  0  0  0  0  0  0  0
   -2.3854   -2.6265   -0.6087 H   0  0  0  0  0  0  0  0  0  0  0  0
   -3.6190   -3.2825    0.4455 H   0  0  0  0  0  0  0  0  0  0  0  0
    0.9871    3.4866   -0.0403 H   0  0  0  0  0  0  0  0  0  0  0  0
    0.9418    2.3253    1.2951 H   0  0  0  0  0  0  0  0  0  0  0  0
    1.6846    4.6666    1.9362 H   0  0  0  0  0  0  0  0  0  0  0  0
    0.3814    3.9905    2.9118 H   0  0  0  0  0  0  0  0  0  0  0  0
   -0.0206    5.9089    0.5591 H   0  0  0  0  0  0  0  0  0  0  0  0
   -0.2440    6.4455    3.5688 H   0  0  0  0  0  0  0  0  0  0  0  0
    1.0401    7.0343    2.5001 H   0  0  0  0  0  0  0  0  0  0  0  0
   -0.6235    7.5933    2.2728 H   0  0  0  0  0  0  0  0  0  0  0  0
   -2.3550    5.9604    1.1303 H   0  0  0  0  0  0  0  0  0  0  0  0
   -2.1102    5.0702    2.6379 H   0  0  0  0  0  0  0  0  0  0  0  0
    0.6565   -0.8469   -2.3427 H   0  0  0  0  0  0  0  0  0  0  0  0
    0.6608    0.8843   -2.7341 H   0  0  0  0  0  0  0  0  0  0  0  0
    2.9291   -0.1811   -2.8941 H   0  0  0  0  0  0  0  0  0  0  0  0
    2.8670    1.2054   -1.7864 H   0  0  0  0  0  0  0  0  0  0  0  0
  1  2  1  0
  2  3  1  0
  3  4  2  0
  4  5  1  0
  5  6  2  0
  6  7  1  0
  7  8  2  0
  8  9  1  0
  9 10  1  0
  6 11  1  0
 11 12  1  0
 12 13  1  0
 13 14  2  0
 14 15  1  0
 15 16  1  0
 16 17  1  0
 17 18  1  0
 18 19  1  0
 19 20  1  0
 20 21  1  0
 21 22  1  0
 15 23  2  0
 23 24  1  0
 24 25  1  0
 25 26  1  0
 26 27  2  0
 27 28  1  0
 27 29  1  0
 29 30  1  0
 30 31  1  0
 31 32  1  0
 31 33  1  0
 12 34  1  0
 34 35  1  0
  8  3  1  0
 28 13  1  0
 35  5  1  0
 22 17  1  0
 28 24  2  0
 33 26  1  0
  1 36  1  0
  1 37  1  0
  1 38  1  0
  4 39  1  0
  7 40  1  0
 10 41  1  0
 10 42  1  0
 10 43  1  0
 11 44  1  0
 11 45  1  0
 16 46  1  0
 16 47  1  0
 18 48  1  0
 18 49  1  0
 19 50  1  0
 19 51  1  0
 21 52  1  0
 21 53  1  0
 22 54  1  0
 22 55  1  0
 29 56  1  0
 29 57  1  0
 30 58  1  0
 30 59  1  0
 31 60  1  0
 32 61  1  0
 32 62  1  0
 32 63  1  0
 33 64  1  0
 33 65  1  0
 34 66  1  0
 34 67  1  0
 35 68  1  0
 35 69  1  0
M  END
$$$$
