
     RDKit          3D

 60 63  0  0  0  0  0  0  0  0999 V2000
    7.3602   -1.5929    2.0115 C   0  0  0  0  0  0  0  0  0  0  0  0
    7.4351   -0.3856    1.0935 C   0  0  0  0  0  0  0  0  0  0  0  0
    6.1418   -0.1897    0.5199 O   0  0  0  0  0  0  0  0  0  0  0  0
    5.9564    0.9102   -0.2781 C   0  0  0  0  0  0  0  0  0  0  0  0
    6.9775    1.7850   -0.6671 C   0  0  0  0  0  0  0  0  0  0  0  0
    6.6974    2.8903   -1.4775 C   0  0  0  0  0  0  0  0  0  0  0  0
    5.3965    3.1341   -1.9096 C   0  0  0  0  0  0  0  0  0  0  0  0
    4.3705    2.2686   -1.5373 C   0  0  0  0  0  0  0  0  0  0  0  0
    4.6472    1.1586   -0.7278 C   0  0  0  0  0  0  0  0  0  0  0  0
    3.5432    0.2487   -0.3468 C   0  0  0  0  0  0  0  0  0  0  0  0
    2.3201    0.4655   -0.7198 N   0  0  0  0  0  0  0  0  0  0  0  0
    1.4117   -0.4592   -0.2974 N   0  0  0  0  0  0  0  0  0  0  0  0
    0.0675   -0.3353   -0.6169 C   0  0  0  0  0  0  0  0  0  0  0  0
   -0.4199    0.5741   -1.2814 O   0  0  0  0  0  0  0  0  0  0  0  0
   -0.7324   -1.4287   -0.0698 C   0  0  0  0  0  0  0  0  0  0  0  0
   -0.1616   -2.4650    0.6220 N   0  0  0  0  0  0  0  0  0  0  0  0
   -1.1210   -3.2878    1.0011 N   0  0  0  0  0  0  0  0  0  0  0  0
   -2.3242   -2.8237    0.5384 N   0  0  0  0  0  0  0  0  0  0  0  0
   -3.5127   -3.5780    0.7268 C   0  0  0  0  0  0  0  0  0  0  0  0
   -4.6620   -3.2339    0.1444 N   0  0  0  0  0  0  0  0  0  0  0  0
   -5.5578   -4.2238    0.5401 O   0  0  0  0  0  0  0  0  0  0  0  0
   -4.9353   -5.1796    1.3359 N   0  0  0  0  0  0  0  0  0  0  0  0
   -3.6720   -4.7731    1.4569 C   0  0  0  0  0  0  0  0  0  0  0  0
   -2.7304   -5.4284    2.1652 N   0  0  0  0  0  0  0  0  0  0  0  0
   -2.1070   -1.6127   -0.1174 C   0  0  0  0  0  0  0  0  0  0  0  0
   -3.1788   -0.7540   -0.6929 C   0  0  0  0  0  0  0  0  0  0  0  0
   -3.9376   -0.0951    0.3786 N   0  0  0  0  0  0  0  0  0  0  0  0
   -3.2468    1.0685    0.9603 C   0  0  0  0  0  0  0  0  0  0  0  0
   -3.2244    2.3125    0.0656 C   0  0  0  0  0  0  0  0  0  0  0  0
   -4.6315    2.6915   -0.4076 C   0  0  0  0  0  0  0  0  0  0  0  0
   -4.5818    3.8501   -1.4000 C   0  0  0  0  0  0  0  0  0  0  0  0
   -5.3261    1.4714   -1.0209 C   0  0  0  0  0  0  0  0  0  0  0  0
   -5.2907    0.2806   -0.0604 C   0  0  0  0  0  0  0  0  0  0  0  0
    7.0445   -2.4825    1.4540 H   0  0  0  0  0  0  0  0  0  0  0  0
    8.3315   -1.7922    2.4751 H   0  0  0  0  0  0  0  0  0  0  0  0
    6.6178   -1.4303    2.8001 H   0  0  0  0  0  0  0  0  0  0  0  0
    7.7300    0.4920    1.6815 H   0  0  0  0  0  0  0  0  0  0  0  0
    8.1718   -0.5798    0.3055 H   0  0  0  0  0  0  0  0  0  0  0  0
    8.0080    1.6377   -0.3588 H   0  0  0  0  0  0  0  0  0  0  0  0
    7.4996    3.5638   -1.7706 H   0  0  0  0  0  0  0  0  0  0  0  0
    5.1795    3.9954   -2.5357 H   0  0  0  0  0  0  0  0  0  0  0  0
    3.3557    2.4630   -1.8793 H   0  0  0  0  0  0  0  0  0  0  0  0
    3.8018   -0.6294    0.2706 H   0  0  0  0  0  0  0  0  0  0  0  0
    1.7121   -1.2524    0.2621 H   0  0  0  0  0  0  0  0  0  0  0  0
   -2.9102   -6.3866    2.4442 H   0  0  0  0  0  0  0  0  0  0  0  0
   -1.7438   -5.1992    2.0542 H   0  0  0  0  0  0  0  0  0  0  0  0
   -2.7729   -0.0293   -1.4043 H   0  0  0  0  0  0  0  0  0  0  0  0
   -3.8300   -1.3876   -1.3070 H   0  0  0  0  0  0  0  0  0  0  0  0
   -2.2237    0.8103    1.2559 H   0  0  0  0  0  0  0  0  0  0  0  0
   -3.7552    1.3253    1.8991 H   0  0  0  0  0  0  0  0  0  0  0  0
   -2.5723    2.1434   -0.7986 H   0  0  0  0  0  0  0  0  0  0  0  0
   -2.7865    3.1482    0.6249 H   0  0  0  0  0  0  0  0  0  0  0  0
   -5.2135    3.0177    0.4650 H   0  0  0  0  0  0  0  0  0  0  0  0
   -4.0106    3.5826   -2.2962 H   0  0  0  0  0  0  0  0  0  0  0  0
   -5.5916    4.1356   -1.7148 H   0  0  0  0  0  0  0  0  0  0  0  0
   -4.1100    4.7282   -0.9467 H   0  0  0  0  0  0  0  0  0  0  0  0
   -4.8495    1.1996   -1.9713 H   0  0  0  0  0  0  0  0  0  0  0  0
   -6.3698    1.7170   -1.2521 H   0  0  0  0  0  0  0  0  0  0  0  0
   -5.7981   -0.5769   -0.5186 H   0  0  0  0  0  0  0  0  0  0  0  0
   -5.8860    0.5232    0.8298 H   0  0  0  0  0  0  0  0  0  0  0  0
  1  2  1  0
  2  3  1  0
  3  4  1  0
  4  5  2  0
  5  6  1  0
  6  7  2  0
  7  8  1  0
  8  9  2  0
  9 10  1  0
 10 11  2  3
 11 12  1  0
 12 13  1  0
 13 14  2  0
 13 15  1  0
 15 16  1  0
 16 17  2  0
 17 18  1  0
 18 19  1  0
 19 20  2  0
 20 21  1  0
 21 22  1  0
 22 23  2  0
 23 24  1  0
 18 25  1  0
 25 26  1  0
 26 27  1  0
 27 28  1  0
 28 29  1  0
 29 30  1  0
 30 31  1  0
 30 32  1  0
 32 33  1  0
  9  4  1  0
 25 15  2  0
 33 27  1  0
 23 19  1  0
  1 34  1  0
  1 35  1  0
  1 36  1  0
  2 37  1  0
  2 38  1  0
  5 39  1  0
  6 40  1  0
  7 41  1  0
  8 42  1  0
 10 43  1  0
 12 44  1  0
 24 45  1  0
 24 46  1  0
 26 47  1  0
 26 48  1  0
 28 49  1  0
 28 50  1  0
 29 51  1  0
 29 52  1  0
 30 53  1  0
 31 54  1  0
 31 55  1  0
 31 56  1  0
 32 57  1  0
 32 58  1  0
 33 59  1  0
 33 60  1  0
M  END
$$$$
