
     RDKit          3D

 61 66  0  0  0  0  0  0  0  0999 V2000
    8.7937    0.4199    0.4325 C   0  0  0  0  0  0  0  0  0  0  0  0
    8.1450   -0.0402    1.5768 C   0  0  0  0  0  0  0  0  0  0  0  0
    6.7599   -0.2109    1.5749 C   0  0  0  0  0  0  0  0  0  0  0  0
    6.0109    0.0812    0.4271 C   0  0  0  0  0  0  0  0  0  0  0  0
    4.5139   -0.1215    0.4168 C   0  0  0  0  0  0  0  0  0  0  0  0
    4.1410   -1.5613    0.0171 C   0  0  0  0  0  0  0  0  0  0  0  0
    2.7097   -1.8820   -0.0461 N   0  0  0  0  0  0  0  0  0  0  0  0
    2.0204   -1.2631   -1.1938 C   0  0  0  0  0  0  0  0  0  0  0  0
    0.4847   -1.2765   -1.0426 C   0  0  0  0  0  0  0  0  0  0  0  0
    0.0609   -0.4617    0.1281 N   0  0  0  0  0  0  0  0  0  0  0  0
   -1.2689   -0.5590    0.4420 C   0  0  0  0  0  0  0  0  0  0  0  0
   -1.8951   -1.4964    1.2415 C   0  0  0  0  0  0  0  0  0  0  0  0
   -3.2845   -1.2697    1.1756 C   0  0  0  0  0  0  0  0  0  0  0  0
   -3.4910   -0.1667    0.3693 C   0  0  0  0  0  0  0  0  0  0  0  0
   -4.7012    0.4971   -0.0669 C   0  0  0  0  0  0  0  0  0  0  0  0
   -6.0322    0.0377    0.4040 C   0  0  0  0  0  0  0  0  0  0  0  0
   -6.3008   -0.1173    1.7685 C   0  0  0  0  0  0  0  0  0  0  0  0
   -7.5669   -0.5340    2.1834 C   0  0  0  0  0  0  0  0  0  0  0  0
   -8.5647   -0.7822    1.2397 C   0  0  0  0  0  0  0  0  0  0  0  0
   -8.3043   -0.6058   -0.1199 C   0  0  0  0  0  0  0  0  0  0  0  0
   -7.0404   -0.1890   -0.5395 C   0  0  0  0  0  0  0  0  0  0  0  0
   -4.6530    1.4983   -0.8943 N   0  0  0  0  0  0  0  0  0  0  0  0
   -3.3995    1.9830   -1.3151 C   0  0  0  0  0  0  0  0  0  0  0  0
   -3.3900    3.0978   -2.1591 C   0  0  0  0  0  0  0  0  0  0  0  0
   -2.1873    3.6585   -2.5900 C   0  0  0  0  0  0  0  0  0  0  0  0
   -0.9781    3.1104   -2.1699 C   0  0  0  0  0  0  0  0  0  0  0  0
   -0.9671    1.9953   -1.3288 C   0  0  0  0  0  0  0  0  0  0  0  0
   -2.1738    1.4232   -0.9136 C   0  0  0  0  0  0  0  0  0  0  0  0
   -2.2546    0.2837   -0.0726 N   0  0  0  0  0  0  0  0  0  0  0  0
    1.0304   -0.4666    1.2514 C   0  0  0  0  0  0  0  0  0  0  0  0
    1.9759   -1.6883    1.2185 C   0  0  0  0  0  0  0  0  0  0  0  0
    6.6735    0.5376   -0.7202 C   0  0  0  0  0  0  0  0  0  0  0  0
    8.0586    0.7079   -0.7156 C   0  0  0  0  0  0  0  0  0  0  0  0
    9.8723    0.5522    0.4348 H   0  0  0  0  0  0  0  0  0  0  0  0
    8.7187   -0.2677    2.4712 H   0  0  0  0  0  0  0  0  0  0  0  0
    6.2689   -0.5743    2.4747 H   0  0  0  0  0  0  0  0  0  0  0  0
    4.1211    0.1201    1.4117 H   0  0  0  0  0  0  0  0  0  0  0  0
    4.0648    0.6061   -0.2687 H   0  0  0  0  0  0  0  0  0  0  0  0
    4.5950   -1.8011   -0.9540 H   0  0  0  0  0  0  0  0  0  0  0  0
    4.6099   -2.2597    0.7235 H   0  0  0  0  0  0  0  0  0  0  0  0
    2.2942   -1.8077   -2.1047 H   0  0  0  0  0  0  0  0  0  0  0  0
    2.3337   -0.2216   -1.3308 H   0  0  0  0  0  0  0  0  0  0  0  0
    0.0322   -0.8680   -1.9539 H   0  0  0  0  0  0  0  0  0  0  0  0
    0.1356   -2.3126   -0.9366 H   0  0  0  0  0  0  0  0  0  0  0  0
   -1.3989   -2.2974    1.7726 H   0  0  0  0  0  0  0  0  0  0  0  0
   -4.0481   -1.8672    1.6560 H   0  0  0  0  0  0  0  0  0  0  0  0
   -5.5390    0.1018    2.5119 H   0  0  0  0  0  0  0  0  0  0  0  0
   -7.7790   -0.6556    3.2428 H   0  0  0  0  0  0  0  0  0  0  0  0
   -9.5515   -1.1029    1.5651 H   0  0  0  0  0  0  0  0  0  0  0  0
   -9.0868   -0.7863   -0.8525 H   0  0  0  0  0  0  0  0  0  0  0  0
   -6.8411   -0.0406   -1.5984 H   0  0  0  0  0  0  0  0  0  0  0  0
   -4.3346    3.5342   -2.4733 H   0  0  0  0  0  0  0  0  0  0  0  0
   -2.1971    4.5274   -3.2423 H   0  0  0  0  0  0  0  0  0  0  0  0
   -0.0395    3.5547   -2.4915 H   0  0  0  0  0  0  0  0  0  0  0  0
   -0.0075    1.6120   -1.0042 H   0  0  0  0  0  0  0  0  0  0  0  0
    1.6235    0.4529    1.1782 H   0  0  0  0  0  0  0  0  0  0  0  0
    0.5230   -0.4260    2.2234 H   0  0  0  0  0  0  0  0  0  0  0  0
    2.6586   -1.6503    2.0760 H   0  0  0  0  0  0  0  0  0  0  0  0
    1.3673   -2.5890    1.3728 H   0  0  0  0  0  0  0  0  0  0  0  0
    6.1145    0.7634   -1.6253 H   0  0  0  0  0  0  0  0  0  0  0  0
    8.5648    1.0643   -1.6090 H   0  0  0  0  0  0  0  0  0  0  0  0
  1  2  2  0
  2  3  1  0
  3  4  2  0
  4  5  1  0
  5  6  1  0
  6  7  1  0
  7  8  1  0
  8  9  1  0
  9 10  1  0
 10 11  1  0
 11 12  2  0
 12 13  1  0
 13 14  2  0
 14 15  1  0
 15 16  1  0
 16 17  2  0
 17 18  1  0
 18 19  2  0
 19 20  1  0
 20 21  2  0
 15 22  2  0
 22 23  1  0
 23 24  2  0
 24 25  1  0
 25 26  2  0
 26 27  1  0
 27 28  2  0
 28 29  1  0
 10 30  1  0
 30 31  1  0
  4 32  1  0
 32 33  2  0
 33  1  1  0
 31  7  1  0
 29 11  1  0
 29 14  1  0
 21 16  1  0
 28 23  1  0
  1 34  1  0
  2 35  1  0
  3 36  1  0
  5 37  1  0
  5 38  1  0
  6 39  1  0
  6 40  1  0
  8 41  1  0
  8 42  1  0
  9 43  1  0
  9 44  1  0
 12 45  1  0
 13 46  1  0
 17 47  1  0
 18 48  1  0
 19 49  1  0
 20 50  1  0
 21 51  1  0
 24 52  1  0
 25 53  1  0
 26 54  1  0
 27 55  1  0
 30 56  1  0
 30 57  1  0
 31 58  1  0
 31 59  1  0
 32 60  1  0
 33 61  1  0
M  END
$$$$
