
     RDKit          3D

 42 45  0  0  0  0  0  0  0  0999 V2000
    3.2229   -2.3076   -0.5097 C   0  0  0  0  0  0  0  0  0  0  0  0
    3.4191   -0.8806   -0.1487 C   0  0  0  0  0  0  0  0  0  0  0  0
    2.5059    0.1443    0.0533 C   0  0  0  0  0  0  0  0  0  0  0  0
    1.0458    0.1176   -0.0430 C   0  0  0  0  0  0  0  0  0  0  0  0
    0.4257   -0.8886   -0.3728 O   0  0  0  0  0  0  0  0  0  0  0  0
    0.4776    1.3539    0.2629 N   0  0  0  0  0  0  0  0  0  0  0  0
   -0.8385    1.7096    0.0987 N   0  0  0  0  0  0  0  0  0  0  0  0
   -1.7506    0.8026    0.2892 C   0  0  0  0  0  0  0  0  0  0  0  0
   -3.1939    1.0973    0.0844 C   0  0  0  0  0  0  0  0  0  0  0  0
   -3.6116    2.4333   -0.0515 C   0  0  0  0  0  0  0  0  0  0  0  0
   -2.7540    3.5020   -0.0484 O   0  0  0  0  0  0  0  0  0  0  0  0
   -4.9560    2.7468   -0.1894 C   0  0  0  0  0  0  0  0  0  0  0  0
   -5.9040    1.7286   -0.1989 C   0  0  0  0  0  0  0  0  0  0  0  0
   -5.5218    0.3840   -0.0837 C   0  0  0  0  0  0  0  0  0  0  0  0
   -6.5080   -0.6159   -0.1103 C   0  0  0  0  0  0  0  0  0  0  0  0
   -6.1704   -1.9635   -0.0157 C   0  0  0  0  0  0  0  0  0  0  0  0
   -4.8383   -2.3297    0.1005 C   0  0  0  0  0  0  0  0  0  0  0  0
   -3.8442   -1.3473    0.1314 C   0  0  0  0  0  0  0  0  0  0  0  0
   -4.1505    0.0375    0.0529 C   0  0  0  0  0  0  0  0  0  0  0  0
    3.1840    1.2906    0.3769 N   0  0  0  0  0  0  0  0  0  0  0  0
    4.4766    1.0232    0.3837 N   0  0  0  0  0  0  0  0  0  0  0  0
    4.6658   -0.2903    0.0647 N   0  0  0  0  0  0  0  0  0  0  0  0
    5.9647   -0.8527   -0.0227 C   0  0  0  0  0  0  0  0  0  0  0  0
    6.1445   -2.1238   -0.3852 N   0  0  0  0  0  0  0  0  0  0  0  0
    7.5290   -2.2881   -0.3702 O   0  0  0  0  0  0  0  0  0  0  0  0
    8.1731   -1.1122   -0.0012 N   0  0  0  0  0  0  0  0  0  0  0  0
    7.2022   -0.2274    0.2210 C   0  0  0  0  0  0  0  0  0  0  0  0
    7.4092    1.0435    0.6141 N   0  0  0  0  0  0  0  0  0  0  0  0
    3.6753   -2.5274   -1.4819 H   0  0  0  0  0  0  0  0  0  0  0  0
    3.6612   -2.9649    0.2481 H   0  0  0  0  0  0  0  0  0  0  0  0
    2.1658   -2.5734   -0.5817 H   0  0  0  0  0  0  0  0  0  0  0  0
    1.1245    2.1387    0.3285 H   0  0  0  0  0  0  0  0  0  0  0  0
   -1.4924   -0.2001    0.6556 H   0  0  0  0  0  0  0  0  0  0  0  0
   -1.8402    3.1439   -0.0218 H   0  0  0  0  0  0  0  0  0  0  0  0
   -5.2655    3.7839   -0.2870 H   0  0  0  0  0  0  0  0  0  0  0  0
   -6.9532    1.9981   -0.3059 H   0  0  0  0  0  0  0  0  0  0  0  0
   -7.5589   -0.3502   -0.2106 H   0  0  0  0  0  0  0  0  0  0  0  0
   -6.9468   -2.7235   -0.0413 H   0  0  0  0  0  0  0  0  0  0  0  0
   -4.5648   -3.3802    0.1620 H   0  0  0  0  0  0  0  0  0  0  0  0
   -2.8173   -1.6978    0.2015 H   0  0  0  0  0  0  0  0  0  0  0  0
    8.3458    1.4306    0.5634 H   0  0  0  0  0  0  0  0  0  0  0  0
    6.6620    1.7352    0.5890 H   0  0  0  0  0  0  0  0  0  0  0  0
  1  2  1  0
  2  3  2  0
  3  4  1  0
  4  5  2  0
  4  6  1  0
  6  7  1  0
  7  8  2  3
  8  9  1  0
  9 10  2  0
 10 11  1  0
 10 12  1  0
 12 13  2  0
 13 14  1  0
 14 15  2  0
 15 16  1  0
 16 17  2  0
 17 18  1  0
 18 19  2  0
  3 20  1  0
 20 21  2  0
 21 22  1  0
 22 23  1  0
 23 24  2  0
 24 25  1  0
 25 26  1  0
 26 27  2  0
 27 28  1  0
 22  2  1  0
 27 23  1  0
 19  9  1  0
 19 14  1  0
  1 29  1  0
  1 30  1  0
  1 31  1  0
  6 32  1  0
  8 33  1  0
 11 34  1  0
 12 35  1  0
 13 36  1  0
 15 37  1  0
 16 38  1  0
 17 39  1  0
 18 40  1  0
 28 41  1  0
 28 42  1  0
M  END
$$$$
