
     RDKit          3D

 37 39  0  0  0  0  0  0  0  0999 V2000
    3.7499   -1.2770    0.7629 N   0  0  0  0  0  0  0  0  0  0  0  0
    2.6390   -0.6230    1.4507 C   0  0  0  0  0  0  0  0  0  0  0  0
    2.1006    0.5630    0.6548 C   0  0  0  0  0  0  0  0  0  0  0  0
    1.3915    0.2045   -0.6632 C   0  0  0  0  0  0  0  0  0  0  0  0
   -0.0163   -0.2324   -0.4569 N   0  0  0  0  0  0  0  0  0  0  0  0
   -0.2933   -1.6335   -0.5167 C   0  0  0  0  0  0  0  0  0  0  0  0
    0.7174   -2.6106   -0.6722 C   0  0  0  0  0  0  0  0  0  0  0  0
    0.4524   -3.9862   -0.7337 C   0  0  0  0  0  0  0  0  0  0  0  0
   -0.8471   -4.4457   -0.6395 C   0  0  0  0  0  0  0  0  0  0  0  0
   -1.8715   -3.5234   -0.4802 C   0  0  0  0  0  0  0  0  0  0  0  0
   -1.6074   -2.1375   -0.4171 C   0  0  0  0  0  0  0  0  0  0  0  0
   -3.0486   -1.1249   -0.2081 S   0  0  0  0  0  0  0  0  0  0  0  0
   -2.3683    0.5105   -0.1624 C   0  0  0  0  0  0  0  0  0  0  0  0
   -3.3203    1.5381    0.0045 C   0  0  0  0  0  0  0  0  0  0  0  0
   -2.9416    2.8740    0.0589 C   0  0  0  0  0  0  0  0  0  0  0  0
   -1.5958    3.2064   -0.0461 C   0  0  0  0  0  0  0  0  0  0  0  0
   -1.1461    4.6459   -0.0072 C   0  0  0  0  0  0  0  0  0  0  0  0
    0.0334    4.8126    0.6549 F   0  0  0  0  0  0  0  0  0  0  0  0
   -2.0358    5.4746    0.6067 F   0  0  0  0  0  0  0  0  0  0  0  0
   -0.9504    5.1607   -1.2519 F   0  0  0  0  0  0  0  0  0  0  0  0
   -0.6514    2.1730   -0.2231 C   0  0  0  0  0  0  0  0  0  0  0  0
   -0.9952    0.7992   -0.2855 C   0  0  0  0  0  0  0  0  0  0  0  0
    4.5424   -0.6365    0.7110 H   0  0  0  0  0  0  0  0  0  0  0  0
    4.0700   -2.0630    1.3303 H   0  0  0  0  0  0  0  0  0  0  0  0
    2.9986   -0.2665    2.4228 H   0  0  0  0  0  0  0  0  0  0  0  0
    1.8455   -1.3474    1.6548 H   0  0  0  0  0  0  0  0  0  0  0  0
    1.4308    1.1285    1.3123 H   0  0  0  0  0  0  0  0  0  0  0  0
    2.9355    1.2373    0.4222 H   0  0  0  0  0  0  0  0  0  0  0  0
    1.4057    1.0788   -1.3270 H   0  0  0  0  0  0  0  0  0  0  0  0
    1.9881   -0.4971   -1.2521 H   0  0  0  0  0  0  0  0  0  0  0  0
    1.7676   -2.3507   -0.7387 H   0  0  0  0  0  0  0  0  0  0  0  0
    1.2740   -4.6881   -0.8529 H   0  0  0  0  0  0  0  0  0  0  0  0
   -1.0643   -5.5086   -0.6862 H   0  0  0  0  0  0  0  0  0  0  0  0
   -2.8935   -3.8906   -0.4039 H   0  0  0  0  0  0  0  0  0  0  0  0
   -4.3783    1.2939    0.0926 H   0  0  0  0  0  0  0  0  0  0  0  0
   -3.7001    3.6442    0.1856 H   0  0  0  0  0  0  0  0  0  0  0  0
    0.3827    2.4976   -0.3005 H   0  0  0  0  0  0  0  0  0  0  0  0
  1  2  1  0
  2  3  1  0
  3  4  1  0
  4  5  1  0
  5  6  1  0
  6  7  2  0
  7  8  1  0
  8  9  2  0
  9 10  1  0
 10 11  2  0
 11 12  1  0
 12 13  1  0
 13 14  2  0
 14 15  1  0
 15 16  2  0
 16 17  1  0
 17 18  1  0
 17 19  1  0
 17 20  1  0
 16 21  1  0
 21 22  2  0
 22  5  1  0
 11  6  1  0
 22 13  1  0
  1 23  1  0
  1 24  1  0
  2 25  1  0
  2 26  1  0
  3 27  1  0
  3 28  1  0
  4 29  1  0
  4 30  1  0
  7 31  1  0
  8 32  1  0
  9 33  1  0
 10 34  1  0
 14 35  1  0
 15 36  1  0
 21 37  1  0
M  END
$$$$
