
     RDKit          3D

 36 38  0  0  0  0  0  0  0  0999 V2000
   -2.7044    0.8420   -2.2653 C   0  0  0  0  0  0  0  0  0  0  0  0
   -2.2787    0.2775   -0.9457 C   0  0  0  0  0  0  0  0  0  0  0  0
   -0.9555    0.2526   -0.6712 N   0  0  0  0  0  0  0  0  0  0  0  0
   -0.6129   -0.2540    0.5428 C   0  0  0  0  0  0  0  0  0  0  0  0
    1.1375   -0.2859    0.9181 S   0  0  0  0  0  6  0  0  0  0  0  0
    1.5416   -1.6821    1.0053 O   0  0  0  0  0  0  0  0  0  0  0  0
    1.3672    0.6407    2.0177 O   0  0  0  0  0  0  0  0  0  0  0  0
    1.8731    0.4115   -0.5548 C   0  0  0  0  0  0  0  0  0  0  0  0
    3.3745    0.4549   -0.4003 C   0  0  0  0  0  0  0  0  0  0  0  0
    4.0005    1.5767    0.1646 C   0  0  0  0  0  0  0  0  0  0  0  0
    5.3892    1.6150    0.3100 C   0  0  0  0  0  0  0  0  0  0  0  0
    6.1596    0.5317   -0.1055 C   0  0  0  0  0  0  0  0  0  0  0  0
    7.8704    0.5806    0.0718 Cl  0  0  0  0  0  0  0  0  0  0  0  0
    5.5529   -0.5916   -0.6620 C   0  0  0  0  0  0  0  0  0  0  0  0
    4.1643   -0.6310   -0.8081 C   0  0  0  0  0  0  0  0  0  0  0  0
   -1.4259   -0.7314    1.5072 N   0  0  0  0  0  0  0  0  0  0  0  0
   -2.7144   -0.6873    1.1662 C   0  0  0  0  0  0  0  0  0  0  0  0
   -3.1948   -0.2010   -0.0382 C   0  0  0  0  0  0  0  0  0  0  0  0
   -4.6838   -0.2531   -0.0859 C   0  0  0  0  0  0  0  0  0  0  0  0
   -4.9838   -1.2487    1.0463 C   0  0  0  0  0  0  0  0  0  0  0  0
   -3.8421   -1.1136    2.0630 C   0  0  0  0  0  0  0  0  0  0  0  0
   -1.8378    1.1910   -2.8361 H   0  0  0  0  0  0  0  0  0  0  0  0
   -3.2157    0.0774   -2.8581 H   0  0  0  0  0  0  0  0  0  0  0  0
   -3.3766    1.6927   -2.1161 H   0  0  0  0  0  0  0  0  0  0  0  0
    1.5961   -0.2095   -1.4127 H   0  0  0  0  0  0  0  0  0  0  0  0
    1.4758    1.4210   -0.7007 H   0  0  0  0  0  0  0  0  0  0  0  0
    3.4112    2.4251    0.5088 H   0  0  0  0  0  0  0  0  0  0  0  0
    5.8606    2.4878    0.7537 H   0  0  0  0  0  0  0  0  0  0  0  0
    6.1521   -1.4417   -0.9770 H   0  0  0  0  0  0  0  0  0  0  0  0
    3.7041   -1.5228   -1.2310 H   0  0  0  0  0  0  0  0  0  0  0  0
   -5.0650   -0.6180   -1.0436 H   0  0  0  0  0  0  0  0  0  0  0  0
   -5.1045    0.7334    0.1345 H   0  0  0  0  0  0  0  0  0  0  0  0
   -5.9674   -1.0851    1.4974 H   0  0  0  0  0  0  0  0  0  0  0  0
   -4.9818   -2.2689    0.6374 H   0  0  0  0  0  0  0  0  0  0  0  0
   -4.0521   -0.3277    2.7953 H   0  0  0  0  0  0  0  0  0  0  0  0
   -3.6335   -2.0579    2.5723 H   0  0  0  0  0  0  0  0  0  0  0  0
  1  2  1  0
  2  3  2  0
  3  4  1  0
  4  5  1  0
  5  6  2  0
  5  7  2  0
  5  8  1  0
  8  9  1  0
  9 10  2  0
 10 11  1  0
 11 12  2  0
 12 13  1  0
 12 14  1  0
 14 15  2  0
  4 16  2  0
 16 17  1  0
 17 18  2  0
 18 19  1  0
 19 20  1  0
 20 21  1  0
 18  2  1  0
 15  9  1  0
 21 17  1  0
  1 22  1  0
  1 23  1  0
  1 24  1  0
  8 25  1  0
  8 26  1  0
 10 27  1  0
 11 28  1  0
 14 29  1  0
 15 30  1  0
 19 31  1  0
 19 32  1  0
 20 33  1  0
 20 34  1  0
 21 35  1  0
 21 36  1  0
M  END
$$$$
