
     RDKit          3D

 67 72  0  0  0  0  0  0  0  0999 V2000
    3.0312    1.3858   -1.4570 O   0  0  0  0  0  0  0  0  0  0  0  0
    2.4348    0.8812   -0.5027 C   0  0  0  0  0  0  0  0  0  0  0  0
    3.1450    0.5388    0.8258 C   0  0  0  0  0  0  0  0  0  0  0  0
    4.4649    1.3153    0.9911 C   0  0  0  0  0  0  0  0  0  0  0  0
    5.6530    0.5899    0.3967 C   0  0  0  0  0  0  0  0  0  0  0  0
    6.1394    0.9330   -0.8712 C   0  0  0  0  0  0  0  0  0  0  0  0
    7.2262    0.2516   -1.4207 C   0  0  0  0  0  0  0  0  0  0  0  0
    7.8371   -0.7790   -0.7091 C   0  0  0  0  0  0  0  0  0  0  0  0
    7.3610   -1.1305    0.5526 C   0  0  0  0  0  0  0  0  0  0  0  0
    6.2742   -0.4501    1.1037 C   0  0  0  0  0  0  0  0  0  0  0  0
    2.2683    0.8280    1.9593 N   0  0  0  0  0  0  0  0  0  0  0  0
    1.0301    0.1881    1.8410 C   0  0  0  0  0  0  0  0  0  0  0  0
    0.5329   -0.2534    3.0041 N   0  0  0  0  0  0  0  0  0  0  0  0
   -0.6844   -0.7847    2.9433 C   0  0  0  0  0  0  0  0  0  0  0  0
   -1.4579   -0.8412    1.8563 N   0  0  0  0  0  0  0  0  0  0  0  0
   -0.9654   -0.3407    0.7021 C   0  0  0  0  0  0  0  0  0  0  0  0
   -1.8871   -0.1868   -0.3494 N   0  0  0  0  0  0  0  0  0  0  0  0
   -2.3012    1.2369   -0.5186 C   0  0  0  0  0  0  0  0  0  0  0  0
   -3.4081    1.6753    0.4673 C   0  0  0  0  0  0  0  0  0  0  0  0
   -4.5795    0.7702    0.3621 N   0  0  0  0  0  0  0  0  0  0  0  0
   -5.7343    1.2734    0.9840 C   0  0  0  0  0  0  0  0  0  0  0  0
   -6.3114    2.4626    0.5049 C   0  0  0  0  0  0  0  0  0  0  0  0
   -7.4648    3.0071    1.0795 C   0  0  0  0  0  0  0  0  0  0  0  0
   -8.0745    2.3666    2.1510 C   0  0  0  0  0  0  0  0  0  0  0  0
   -7.5356    1.1797    2.6361 C   0  0  0  0  0  0  0  0  0  0  0  0
   -6.3826    0.6384    2.0539 C   0  0  0  0  0  0  0  0  0  0  0  0
   -4.2081   -0.6399    0.6214 C   0  0  0  0  0  0  0  0  0  0  0  0
   -3.0633   -1.0979   -0.3156 C   0  0  0  0  0  0  0  0  0  0  0  0
    0.3678    0.0980    0.6072 C   0  0  0  0  0  0  0  0  0  0  0  0
    1.0924    0.4642   -0.5918 N   0  0  0  0  0  0  0  0  0  0  0  0
    0.6166    0.1690   -1.9398 C   0  0  0  0  0  0  0  0  0  0  0  0
    1.0495   -1.2104   -2.4094 C   0  0  0  0  0  0  0  0  0  0  0  0
    0.2274   -2.3288   -2.2129 C   0  0  0  0  0  0  0  0  0  0  0  0
    0.6408   -3.5994   -2.6222 C   0  0  0  0  0  0  0  0  0  0  0  0
    1.8833   -3.7615   -3.2293 C   0  0  0  0  0  0  0  0  0  0  0  0
    2.3928   -5.3269   -3.7289 Cl  0  0  0  0  0  0  0  0  0  0  0  0
    2.7147   -2.6640   -3.4329 C   0  0  0  0  0  0  0  0  0  0  0  0
    2.2990   -1.3943   -3.0248 C   0  0  0  0  0  0  0  0  0  0  0  0
    3.3496   -0.5415    0.8064 H   0  0  0  0  0  0  0  0  0  0  0  0
    4.6837    1.4757    2.0562 H   0  0  0  0  0  0  0  0  0  0  0  0
    4.3878    2.3226    0.5618 H   0  0  0  0  0  0  0  0  0  0  0  0
    5.6707    1.7323   -1.4435 H   0  0  0  0  0  0  0  0  0  0  0  0
    7.5953    0.5273   -2.4056 H   0  0  0  0  0  0  0  0  0  0  0  0
    8.6843   -1.3074   -1.1376 H   0  0  0  0  0  0  0  0  0  0  0  0
    7.8380   -1.9338    1.1080 H   0  0  0  0  0  0  0  0  0  0  0  0
    5.9178   -0.7365    2.0909 H   0  0  0  0  0  0  0  0  0  0  0  0
    2.6363    0.6026    2.8798 H   0  0  0  0  0  0  0  0  0  0  0  0
   -1.0958   -1.1858    3.8629 H   0  0  0  0  0  0  0  0  0  0  0  0
   -2.6841    1.3446   -1.5419 H   0  0  0  0  0  0  0  0  0  0  0  0
   -1.4475    1.9206   -0.4382 H   0  0  0  0  0  0  0  0  0  0  0  0
   -3.0259    1.6678    1.4963 H   0  0  0  0  0  0  0  0  0  0  0  0
   -3.6724    2.7104    0.2230 H   0  0  0  0  0  0  0  0  0  0  0  0
   -5.8736    2.9681   -0.3524 H   0  0  0  0  0  0  0  0  0  0  0  0
   -7.8854    3.9262    0.6812 H   0  0  0  0  0  0  0  0  0  0  0  0
   -8.9702    2.7851    2.6012 H   0  0  0  0  0  0  0  0  0  0  0  0
   -8.0094    0.6691    3.4701 H   0  0  0  0  0  0  0  0  0  0  0  0
   -5.9970   -0.2844    2.4752 H   0  0  0  0  0  0  0  0  0  0  0  0
   -5.0696   -1.2930    0.4336 H   0  0  0  0  0  0  0  0  0  0  0  0
   -3.9173   -0.7663    1.6697 H   0  0  0  0  0  0  0  0  0  0  0  0
   -2.7568   -2.1224   -0.0690 H   0  0  0  0  0  0  0  0  0  0  0  0
   -3.4580   -1.1414   -1.3391 H   0  0  0  0  0  0  0  0  0  0  0  0
    1.0364    0.9088   -2.6347 H   0  0  0  0  0  0  0  0  0  0  0  0
   -0.4548    0.2938   -2.0647 H   0  0  0  0  0  0  0  0  0  0  0  0
   -0.7445   -2.2195   -1.7406 H   0  0  0  0  0  0  0  0  0  0  0  0
   -0.0101   -4.4547   -2.4627 H   0  0  0  0  0  0  0  0  0  0  0  0
    3.6860   -2.7860   -3.9046 H   0  0  0  0  0  0  0  0  0  0  0  0
    2.9622   -0.5458   -3.1890 H   0  0  0  0  0  0  0  0  0  0  0  0
  1  2  2  0
  2  3  1  0
  3  4  1  0
  4  5  1  0
  5  6  2  0
  6  7  1  0
  7  8  2  0
  8  9  1  0
  9 10  2  0
  3 11  1  0
 11 12  1  0
 12 13  2  0
 13 14  1  0
 14 15  2  0
 15 16  1  0
 16 17  1  0
 17 18  1  0
 18 19  1  0
 19 20  1  0
 20 21  1  0
 21 22  2  0
 22 23  1  0
 23 24  2  0
 24 25  1  0
 25 26  2  0
 20 27  1  0
 27 28  1  0
 16 29  2  0
 29 30  1  0
 30 31  1  0
 31 32  1  0
 32 33  2  0
 33 34  1  0
 34 35  2  0
 35 36  1  0
 35 37  1  0
 37 38  2  0
 30  2  1  0
 38 32  1  0
 10  5  1  0
 29 12  1  0
 28 17  1  0
 26 21  1  0
  3 39  1  0
  4 40  1  0
  4 41  1  0
  6 42  1  0
  7 43  1  0
  8 44  1  0
  9 45  1  0
 10 46  1  0
 11 47  1  0
 14 48  1  0
 18 49  1  0
 18 50  1  0
 19 51  1  0
 19 52  1  0
 22 53  1  0
 23 54  1  0
 24 55  1  0
 25 56  1  0
 26 57  1  0
 27 58  1  0
 27 59  1  0
 28 60  1  0
 28 61  1  0
 31 62  1  0
 31 63  1  0
 33 64  1  0
 34 65  1  0
 37 66  1  0
 38 67  1  0
M  END
$$$$
