
     RDKit          3D

 46 48  0  0  0  0  0  0  0  0999 V2000
    0.8790   -0.0340   -1.8107 C   0  0  0  0  0  0  0  0  0  0  0  0
    1.7111    0.7512   -0.8166 C   0  0  0  0  0  0  0  0  0  0  0  0
    3.1999    0.6136   -0.8542 C   0  0  0  0  0  0  0  0  0  0  0  0
    3.8558   -0.3169   -1.5633 C   0  0  0  0  0  0  0  0  0  0  0  0
    5.3209   -0.4393   -1.5774 C   0  0  0  0  0  0  0  0  0  0  0  0
    5.9595   -0.7917   -2.7737 C   0  0  0  0  0  0  0  0  0  0  0  0
    7.3471   -0.9471   -2.8214 C   0  0  0  0  0  0  0  0  0  0  0  0
    8.1095   -0.7615   -1.6702 C   0  0  0  0  0  0  0  0  0  0  0  0
    7.4846   -0.4272   -0.4704 C   0  0  0  0  0  0  0  0  0  0  0  0
    6.0965   -0.2725   -0.4227 C   0  0  0  0  0  0  0  0  0  0  0  0
    1.2340    1.5839    0.0719 N   0  0  0  0  0  0  0  0  0  0  0  0
   -0.1215    1.6667    0.2494 N   0  0  0  0  0  0  0  0  0  0  0  0
   -0.8476    0.5868    0.7392 C   0  0  0  0  0  0  0  0  0  0  0  0
   -0.4715   -0.5755    0.8144 O   0  0  0  0  0  0  0  0  0  0  0  0
   -2.1921    0.9586    1.2529 C   0  0  0  0  0  0  0  0  0  0  0  0
   -3.1282    1.8602    0.4923 C   0  0  0  0  0  0  0  0  0  0  0  0
   -3.4566    0.3839    0.6074 C   0  0  0  0  0  0  0  0  0  0  0  0
   -3.3388   -0.4505   -0.6482 C   0  0  0  0  0  0  0  0  0  0  0  0
   -4.5770   -0.0529    1.5424 C   0  0  0  0  0  0  0  0  0  0  0  0
   -4.3648   -1.0508    2.5096 C   0  0  0  0  0  0  0  0  0  0  0  0
   -5.3880   -1.4667    3.3651 C   0  0  0  0  0  0  0  0  0  0  0  0
   -6.6523   -0.8934    3.2670 C   0  0  0  0  0  0  0  0  0  0  0  0
   -6.8928    0.0899    2.3120 C   0  0  0  0  0  0  0  0  0  0  0  0
   -5.8656    0.5013    1.4585 C   0  0  0  0  0  0  0  0  0  0  0  0
   -0.1117    0.4063   -1.9455 H   0  0  0  0  0  0  0  0  0  0  0  0
    1.3583   -0.0266   -2.7941 H   0  0  0  0  0  0  0  0  0  0  0  0
    0.7762   -1.0679   -1.4709 H   0  0  0  0  0  0  0  0  0  0  0  0
    3.7276    1.3334   -0.2354 H   0  0  0  0  0  0  0  0  0  0  0  0
    3.3289   -1.0399   -2.1788 H   0  0  0  0  0  0  0  0  0  0  0  0
    5.3826   -0.9421   -3.6833 H   0  0  0  0  0  0  0  0  0  0  0  0
    7.8315   -1.2158   -3.7569 H   0  0  0  0  0  0  0  0  0  0  0  0
    9.1885   -0.8846   -1.7060 H   0  0  0  0  0  0  0  0  0  0  0  0
    8.0754   -0.2944    0.4321 H   0  0  0  0  0  0  0  0  0  0  0  0
    5.6298   -0.0346    0.5303 H   0  0  0  0  0  0  0  0  0  0  0  0
   -0.4220    2.5709    0.6008 H   0  0  0  0  0  0  0  0  0  0  0  0
   -2.2028    1.0510    2.3358 H   0  0  0  0  0  0  0  0  0  0  0  0
   -3.7111    2.5722    1.0674 H   0  0  0  0  0  0  0  0  0  0  0  0
   -2.8271    2.2386   -0.4787 H   0  0  0  0  0  0  0  0  0  0  0  0
   -3.0573   -1.4792   -0.4002 H   0  0  0  0  0  0  0  0  0  0  0  0
   -4.2950   -0.4753   -1.1824 H   0  0  0  0  0  0  0  0  0  0  0  0
   -2.5896   -0.0540   -1.3412 H   0  0  0  0  0  0  0  0  0  0  0  0
   -3.3835   -1.5159    2.5923 H   0  0  0  0  0  0  0  0  0  0  0  0
   -5.1956   -2.2414    4.1029 H   0  0  0  0  0  0  0  0  0  0  0  0
   -7.4501   -1.2167    3.9299 H   0  0  0  0  0  0  0  0  0  0  0  0
   -7.8802    0.5356    2.2267 H   0  0  0  0  0  0  0  0  0  0  0  0
   -6.0740    1.2641    0.7115 H   0  0  0  0  0  0  0  0  0  0  0  0
  1  2  1  0
  2  3  1  0
  3  4  2  3
  4  5  1  0
  5  6  2  0
  6  7  1  0
  7  8  2  0
  8  9  1  0
  9 10  2  0
  2 11  2  3
 11 12  1  0
 12 13  1  0
 13 14  2  0
 13 15  1  0
 15 16  1  0
 16 17  1  0
 17 18  1  0
 17 19  1  0
 19 20  2  0
 20 21  1  0
 21 22  2  0
 22 23  1  0
 23 24  2  0
 10  5  1  0
 17 15  1  0
 24 19  1  0
  1 25  1  0
  1 26  1  0
  1 27  1  0
  3 28  1  0
  4 29  1  0
  6 30  1  0
  7 31  1  0
  8 32  1  0
  9 33  1  0
 10 34  1  0
 12 35  1  0
 15 36  1  0
 16 37  1  0
 16 38  1  0
 18 39  1  0
 18 40  1  0
 18 41  1  0
 20 42  1  0
 21 43  1  0
 22 44  1  0
 23 45  1  0
 24 46  1  0
M  END
$$$$
