
     RDKit          3D

 98102  0  0  0  0  0  0  0  0999 V2000
    8.2934   -2.6152    0.8589 C   0  0  0  0  0  0  0  0  0  0  0  0
    8.7712   -1.2325    1.2156 C   0  0  0  0  0  0  0  0  0  0  0  0
    9.6561   -1.1945    2.4361 C   0  0  0  0  0  0  0  0  0  0  0  0
    8.4863   -0.0930    0.5559 C   0  0  0  0  0  0  0  0  0  0  0  0
    7.5994    0.1271   -0.6108 C   0  0  0  0  0  0  0  0  0  0  0  0
    7.7520    1.0766   -1.3667 O   0  0  0  0  0  0  0  0  0  0  0  0
    6.5795   -0.7600   -0.6510 O   0  0  0  0  0  0  0  0  0  0  0  0
    5.7009   -0.6609   -1.7821 C   0  0  0  0  0  0  0  0  0  0  0  0
    4.4433    0.0864   -1.4033 C   0  0  0  0  0  0  0  0  0  0  0  0
    3.2547   -0.5406   -1.3606 C   0  0  0  0  0  0  0  0  0  0  0  0
    1.9734    0.1844   -1.0506 C   0  0  0  0  0  0  0  0  0  0  0  0
    0.9408   -0.7446   -0.4205 C   0  0  0  0  0  0  0  0  0  0  0  0
    1.1283   -1.4699    0.5438 O   0  0  0  0  0  0  0  0  0  0  0  0
   -0.2356   -0.6038   -1.0917 O   0  0  0  0  0  0  0  0  0  0  0  0
   -1.4336   -1.0861   -0.4587 C   0  0  1  0  0  0  0  0  0  0  0  0
   -2.5462   -0.1949   -0.9916 C   0  0  0  0  0  0  0  0  0  0  0  0
   -3.9052   -0.6680   -0.4974 C   0  0  1  0  0  0  0  0  0  0  0  0
   -5.0771    0.1483   -1.0814 C   0  0  0  0  0  0  0  0  0  0  0  0
   -4.8178    1.6177   -1.2894 C   0  0  0  0  0  0  0  0  0  0  0  0
   -4.7248    2.5897   -0.3586 C   0  0  0  0  0  0  0  0  0  0  0  0
   -4.9286    2.3474    1.1105 C   0  0  0  0  0  0  0  0  0  0  0  0
   -4.4125    4.0181   -0.7908 C   0  0  0  0  0  0  0  0  0  0  0  0
   -3.0965    4.6736   -0.2774 C   0  0  1  0  0  0  0  0  0  0  0  0
   -3.3234    5.3635    1.0751 C   0  0  0  0  0  0  0  0  0  0  0  0
   -1.8985    3.7411   -0.3429 C   0  0  0  0  0  0  0  0  0  0  0  0
   -1.0697    3.4370    0.6703 C   0  0  0  0  0  0  0  0  0  0  0  0
    0.0167    2.4878    0.6372 C   0  0  0  0  0  0  0  0  0  0  0  0
    0.9948    2.3622   -0.2765 C   0  0  0  0  0  0  0  0  0  0  0  0
    1.2467    3.1983   -1.5014 C   0  0  0  0  0  0  0  0  0  0  0  0
    2.6175    2.9236   -1.8931 O   0  0  0  0  0  0  0  0  0  0  0  0
    3.2815    2.3525   -0.7325 C   0  0  2  0  0  0  0  0  0  0  0  0
    3.6923    3.5299    0.1892 C   0  0  0  0  0  0  0  0  0  0  0  0
    4.5908    1.5607   -1.0747 C   0  0  2  0  0  0  0  0  0  0  0  0
    5.2913    2.2042   -2.1371 O   0  0  0  0  0  0  0  0  0  0  0  0
    2.1819    1.4347   -0.1513 C   0  0  2  0  0  0  0  0  0  0  0  0
    2.4386    1.1032    1.2121 O   0  0  0  0  0  0  0  0  0  0  0  0
   -4.1021   -2.0362   -0.8857 O   0  0  0  0  0  0  0  0  0  0  0  0
   -3.1206   -2.9471   -0.3705 C   0  0  2  0  0  0  0  0  0  0  0  0
   -3.4296   -4.3459   -0.9297 C   0  0  0  0  0  0  0  0  0  0  0  0
   -4.7512   -4.8806   -0.3842 C   0  0  0  0  0  0  0  0  0  0  0  0
   -4.7622   -4.8251    1.1479 C   0  0  2  0  0  0  0  0  0  0  0  0
   -6.1224   -5.2830    1.6705 C   0  0  0  0  0  0  0  0  0  0  0  0
   -4.3928   -3.4054    1.6185 C   0  0  1  0  0  0  0  0  0  0  0  0
   -4.2396   -3.3067    3.1341 C   0  0  0  0  0  0  0  0  0  0  0  0
   -3.1369   -2.9950    1.0586 O   0  0  0  0  0  0  0  0  0  0  0  0
   -1.7128   -2.5337   -0.8315 C   0  0  0  0  0  0  0  0  0  0  0  0
    7.5758   -2.9726    1.6006 H   0  0  0  0  0  0  0  0  0  0  0  0
    7.8272   -2.6777   -0.1271 H   0  0  0  0  0  0  0  0  0  0  0  0
    9.1439   -3.3072    0.8386 H   0  0  0  0  0  0  0  0  0  0  0  0
    9.0590   -1.4205    3.3241 H   0  0  0  0  0  0  0  0  0  0  0  0
   10.4663   -1.9276    2.3559 H   0  0  0  0  0  0  0  0  0  0  0  0
   10.1182   -0.2122    2.5850 H   0  0  0  0  0  0  0  0  0  0  0  0
    8.9504    0.8389    0.8710 H   0  0  0  0  0  0  0  0  0  0  0  0
    6.1900   -0.2157   -2.6568 H   0  0  0  0  0  0  0  0  0  0  0  0
    5.4661   -1.6914   -2.0709 H   0  0  0  0  0  0  0  0  0  0  0  0
    3.1781   -1.5959   -1.6116 H   0  0  0  0  0  0  0  0  0  0  0  0
    1.5761    0.4759   -2.0360 H   0  0  0  0  0  0  0  0  0  0  0  0
   -1.3594   -0.9648    0.6296 H   0  0  0  0  0  0  0  0  0  0  0  0
   -2.3457    0.8325   -0.6783 H   0  0  0  0  0  0  0  0  0  0  0  0
   -2.5168   -0.1995   -2.0912 H   0  0  0  0  0  0  0  0  0  0  0  0
   -3.9454   -0.5952    0.5954 H   0  0  0  0  0  0  0  0  0  0  0  0
   -5.9685    0.0016   -0.4592 H   0  0  0  0  0  0  0  0  0  0  0  0
   -5.3615   -0.2776   -2.0535 H   0  0  0  0  0  0  0  0  0  0  0  0
   -4.6638    1.8824   -2.3351 H   0  0  0  0  0  0  0  0  0  0  0  0
   -5.3370    1.3583    1.3269 H   0  0  0  0  0  0  0  0  0  0  0  0
   -3.9777    2.4201    1.6423 H   0  0  0  0  0  0  0  0  0  0  0  0
   -5.6281    3.0784    1.5293 H   0  0  0  0  0  0  0  0  0  0  0  0
   -5.2680    4.6516   -0.5233 H   0  0  0  0  0  0  0  0  0  0  0  0
   -4.3740    4.0541   -1.8886 H   0  0  0  0  0  0  0  0  0  0  0  0
   -2.8709    5.4902   -0.9796 H   0  0  0  0  0  0  0  0  0  0  0  0
   -4.1572    6.0712    1.0140 H   0  0  0  0  0  0  0  0  0  0  0  0
   -3.5456    4.6540    1.8751 H   0  0  0  0  0  0  0  0  0  0  0  0
   -2.4413    5.9410    1.3741 H   0  0  0  0  0  0  0  0  0  0  0  0
   -1.7300    3.2789   -1.3193 H   0  0  0  0  0  0  0  0  0  0  0  0
   -1.2444    3.8627    1.6579 H   0  0  0  0  0  0  0  0  0  0  0  0
    0.0589    1.8516    1.5234 H   0  0  0  0  0  0  0  0  0  0  0  0
    0.5979    2.9087   -2.3330 H   0  0  0  0  0  0  0  0  0  0  0  0
    1.1549    4.2736   -1.3096 H   0  0  0  0  0  0  0  0  0  0  0  0
    2.8557    4.1910    0.4348 H   0  0  0  0  0  0  0  0  0  0  0  0
    4.1210    3.1700    1.1302 H   0  0  0  0  0  0  0  0  0  0  0  0
    4.4380    4.1605   -0.3105 H   0  0  0  0  0  0  0  0  0  0  0  0
    5.2315    1.6021   -0.1824 H   0  0  0  0  0  0  0  0  0  0  0  0
    6.2519    2.1025   -1.9672 H   0  0  0  0  0  0  0  0  0  0  0  0
    3.1051    0.3869    1.2342 H   0  0  0  0  0  0  0  0  0  0  0  0
   -2.6306   -5.0446   -0.6474 H   0  0  0  0  0  0  0  0  0  0  0  0
   -3.4872   -4.3178   -2.0249 H   0  0  0  0  0  0  0  0  0  0  0  0
   -5.5814   -4.2875   -0.7872 H   0  0  0  0  0  0  0  0  0  0  0  0
   -4.8988   -5.9108   -0.7270 H   0  0  0  0  0  0  0  0  0  0  0  0
   -3.9965   -5.5236    1.5114 H   0  0  0  0  0  0  0  0  0  0  0  0
   -6.1092   -5.4179    2.7548 H   0  0  0  0  0  0  0  0  0  0  0  0
   -6.9049   -4.5554    1.4315 H   0  0  0  0  0  0  0  0  0  0  0  0
   -6.4089   -6.2431    1.2263 H   0  0  0  0  0  0  0  0  0  0  0  0
   -5.1728   -2.6946    1.3163 H   0  0  0  0  0  0  0  0  0  0  0  0
   -5.1873   -3.4820    3.6516 H   0  0  0  0  0  0  0  0  0  0  0  0
   -3.4982   -4.0246    3.4988 H   0  0  0  0  0  0  0  0  0  0  0  0
   -3.8792   -2.3084    3.4135 H   0  0  0  0  0  0  0  0  0  0  0  0
   -1.6200   -2.6372   -1.9209 H   0  0  0  0  0  0  0  0  0  0  0  0
   -0.9473   -3.1790   -0.3817 H   0  0  0  0  0  0  0  0  0  0  0  0
  1  2  1  0
  2  3  1  0
  2  4  2  3
  4  5  1  0
  5  6  2  0
  5  7  1  0
  7  8  1  0
  8  9  1  0
  9 10  2  0
 10 11  1  0
 11 12  1  0
 12 13  2  0
 12 14  1  0
 14 15  1  0
 15 16  1  0
 16 17  1  0
 17 18  1  0
 18 19  1  0
 19 20  2  0
 20 21  1  0
 20 22  1  0
 22 23  1  0
 23 24  1  0
 23 25  1  0
 25 26  2  0
 26 27  1  0
 27 28  2  0
 28 29  1  0
 29 30  1  0
 30 31  1  0
 31 32  1  1
 31 33  1  0
 33 34  1  0
 31 35  1  0
 35 36  1  1
 17 37  1  0
 38 37  1  6
 38 39  1  0
 39 40  1  0
 40 41  1  0
 41 42  1  0
 41 43  1  0
 43 44  1  0
 43 45  1  0
 38 46  1  0
 33  9  1  0
 45 38  1  0
 35 11  1  0
 46 15  1  0
 35 28  1  0
  1 47  1  0
  1 48  1  0
  1 49  1  0
  3 50  1  0
  3 51  1  0
  3 52  1  0
  4 53  1  0
  8 54  1  0
  8 55  1  0
 10 56  1  0
 11 57  1  0
 15 58  1  1
 16 59  1  0
 16 60  1  0
 17 61  1  1
 18 62  1  0
 18 63  1  0
 19 64  1  0
 21 65  1  0
 21 66  1  0
 21 67  1  0
 22 68  1  0
 22 69  1  0
 23 70  1  6
 24 71  1  0
 24 72  1  0
 24 73  1  0
 25 74  1  0
 26 75  1  0
 27 76  1  0
 29 77  1  0
 29 78  1  0
 32 79  1  0
 32 80  1  0
 32 81  1  0
 33 82  1  1
 34 83  1  0
 36 84  1  0
 39 85  1  0
 39 86  1  0
 40 87  1  0
 40 88  1  0
 41 89  1  1
 42 90  1  0
 42 91  1  0
 42 92  1  0
 43 93  1  6
 44 94  1  0
 44 95  1  0
 44 96  1  0
 46 97  1  0
 46 98  1  0
M  END
$$$$
