
     RDKit          3D

 40 41  0  0  0  0  0  0  0  0999 V2000
   -4.9430   -2.5307   -0.8738 C   0  0  0  0  0  0  0  0  0  0  0  0
   -4.1789   -1.9446   -2.0477 C   0  0  0  0  0  0  0  0  0  0  0  0
   -2.7905   -1.9565   -1.7144 O   0  0  0  0  0  0  0  0  0  0  0  0
   -1.9785   -1.3959   -2.6790 C   0  0  0  0  0  0  0  0  0  0  0  0
   -2.5392   -1.0215   -3.8575 N   0  0  0  0  0  0  0  0  0  0  0  0
   -1.7116   -0.5392   -4.8112 C   0  0  0  0  0  0  0  0  0  0  0  0
   -0.3411   -0.4188   -4.6541 C   0  0  0  0  0  0  0  0  0  0  0  0
    0.2166   -0.8080   -3.4405 C   0  0  0  0  0  0  0  0  0  0  0  0
   -0.6149   -1.2929   -2.4256 C   0  0  0  0  0  0  0  0  0  0  0  0
    0.0015   -1.7002   -1.1542 C   0  0  0  0  0  0  0  0  0  0  0  0
    1.0598   -2.3067   -1.0961 O   0  0  0  0  0  0  0  0  0  0  0  0
   -0.7154   -1.2167   -0.1145 O   0  0  0  0  0  0  0  0  0  0  0  0
   -0.1826   -1.4892    1.1852 C   0  0  0  0  0  0  0  0  0  0  0  0
    0.6324   -0.3095    1.6512 C   0  0  0  0  0  0  0  0  0  0  0  0
    0.0011    0.8328    2.1609 C   0  0  0  0  0  0  0  0  0  0  0  0
    0.7558    1.9342    2.5730 C   0  0  0  0  0  0  0  0  0  0  0  0
    2.1531    1.9129    2.4736 C   0  0  0  0  0  0  0  0  0  0  0  0
    2.9079    3.1137    2.9254 C   0  0  0  0  0  0  0  0  0  0  0  0
    2.3747    4.1160    3.3753 O   0  0  0  0  0  0  0  0  0  0  0  0
    4.2428    2.9301    2.7665 O   0  0  0  0  0  0  0  0  0  0  0  0
    5.0344    4.0438    3.1818 C   0  0  0  0  0  0  0  0  0  0  0  0
    2.7865    0.7776    1.9526 C   0  0  0  0  0  0  0  0  0  0  0  0
    2.0294   -0.3235    1.5412 C   0  0  0  0  0  0  0  0  0  0  0  0
   -4.7621   -1.9460    0.0343 H   0  0  0  0  0  0  0  0  0  0  0  0
   -6.0176   -2.5458   -1.0762 H   0  0  0  0  0  0  0  0  0  0  0  0
   -4.6075   -3.5524   -0.6669 H   0  0  0  0  0  0  0  0  0  0  0  0
   -4.3636   -2.5591   -2.9369 H   0  0  0  0  0  0  0  0  0  0  0  0
   -4.5241   -0.9182   -2.2214 H   0  0  0  0  0  0  0  0  0  0  0  0
   -2.1958   -0.2479   -5.7396 H   0  0  0  0  0  0  0  0  0  0  0  0
    0.2779   -0.0333   -5.4570 H   0  0  0  0  0  0  0  0  0  0  0  0
    1.2900   -0.7324   -3.2829 H   0  0  0  0  0  0  0  0  0  0  0  0
    0.3970   -2.4203    1.2144 H   0  0  0  0  0  0  0  0  0  0  0  0
   -1.0299   -1.6411    1.8640 H   0  0  0  0  0  0  0  0  0  0  0  0
   -1.0841    0.8727    2.2345 H   0  0  0  0  0  0  0  0  0  0  0  0
    0.2475    2.8119    2.9684 H   0  0  0  0  0  0  0  0  0  0  0  0
    4.7899    4.9306    2.5886 H   0  0  0  0  0  0  0  0  0  0  0  0
    4.8919    4.2389    4.2493 H   0  0  0  0  0  0  0  0  0  0  0  0
    6.0855    3.7937    3.0131 H   0  0  0  0  0  0  0  0  0  0  0  0
    3.8684    0.7347    1.8551 H   0  0  0  0  0  0  0  0  0  0  0  0
    2.5365   -1.1931    1.1245 H   0  0  0  0  0  0  0  0  0  0  0  0
  1  2  1  0
  2  3  1  0
  3  4  1  0
  4  5  2  0
  5  6  1  0
  6  7  2  0
  7  8  1  0
  8  9  2  0
  9 10  1  0
 10 11  2  0
 10 12  1  0
 12 13  1  0
 13 14  1  0
 14 15  2  0
 15 16  1  0
 16 17  2  0
 17 18  1  0
 18 19  2  0
 18 20  1  0
 20 21  1  0
 17 22  1  0
 22 23  2  0
  9  4  1  0
 23 14  1  0
  1 24  1  0
  1 25  1  0
  1 26  1  0
  2 27  1  0
  2 28  1  0
  6 29  1  0
  7 30  1  0
  8 31  1  0
 13 32  1  0
 13 33  1  0
 15 34  1  0
 16 35  1  0
 21 36  1  0
 21 37  1  0
 21 38  1  0
 22 39  1  0
 23 40  1  0
M  END
$$$$
