
     RDKit          3D

 68 70  0  0  0  0  0  0  0  0999 V2000
   -5.1137    0.1850    5.6856 C   0  0  0  0  0  0  0  0  0  0  0  0
   -4.5764    1.2413    4.9014 O   0  0  0  0  0  0  0  0  0  0  0  0
   -4.0690    0.9019    3.6776 C   0  0  0  0  0  0  0  0  0  0  0  0
   -3.4511    1.9467    2.9901 C   0  0  0  0  0  0  0  0  0  0  0  0
   -2.8818    1.7339    1.7324 C   0  0  0  0  0  0  0  0  0  0  0  0
   -2.9277    0.4665    1.1278 C   0  0  0  0  0  0  0  0  0  0  0  0
   -2.2414    0.2695   -0.2170 C   0  0  0  0  0  0  0  0  0  0  0  0
   -2.9168   -0.7307   -1.2038 C   0  0  0  0  0  0  0  0  0  0  0  0
   -4.0855   -1.0949   -1.1185 O   0  0  0  0  0  0  0  0  0  0  0  0
   -2.0968   -1.0883   -2.2672 N   0  0  0  0  0  0  0  0  0  0  0  0
   -2.5004   -1.9302   -3.4031 C   0  0  0  0  0  0  0  0  0  0  0  0
   -2.9599   -3.3177   -2.9279 C   0  0  0  0  0  0  0  0  0  0  0  0
   -3.6094   -1.2533   -4.2207 C   0  0  0  0  0  0  0  0  0  0  0  0
   -1.2699   -2.1196   -4.3097 C   0  0  0  0  0  0  0  0  0  0  0  0
   -0.7856   -0.0095   -0.0662 N   0  0  0  0  0  0  0  0  0  0  0  0
   -0.3984   -1.2907    0.5422 C   0  0  0  0  0  0  0  0  0  0  0  0
   -0.2175   -1.1881    2.0154 C   0  0  0  0  0  0  0  0  0  0  0  0
    0.0567   -0.1634    2.9002 C   0  0  0  0  0  0  0  0  0  0  0  0
    0.0854   -0.7412    4.1922 C   0  0  0  0  0  0  0  0  0  0  0  0
   -0.1654   -2.0811    4.0174 C   0  0  0  0  0  0  0  0  0  0  0  0
   -0.3456   -2.3631    2.7027 O   0  0  0  0  0  0  0  0  0  0  0  0
    0.1212    0.9247   -0.5417 C   0  0  0  0  0  0  0  0  0  0  0  0
   -0.2484    1.9690   -1.0797 O   0  0  0  0  0  0  0  0  0  0  0  0
    1.6012    0.6006   -0.4315 C   0  0  0  0  0  0  0  0  0  0  0  0
    2.4650    1.8005   -0.8136 C   0  0  0  0  0  0  0  0  0  0  0  0
    3.9359    1.4427   -0.8829 C   0  0  0  0  0  0  0  0  0  0  0  0
    4.3353    0.2864   -0.7891 O   0  0  0  0  0  0  0  0  0  0  0  0
    4.7215    2.5556   -1.0778 N   0  0  0  0  0  0  0  0  0  0  0  0
    6.0909    2.5492   -1.2227 C   0  0  0  0  0  0  0  0  0  0  0  0
    6.9881    1.4597   -1.2601 C   0  0  0  0  0  0  0  0  0  0  0  0
    8.2216    2.0341   -1.4398 C   0  0  0  0  0  0  0  0  0  0  0  0
    9.5926    1.5122   -1.5728 C   0  0  0  0  0  0  0  0  0  0  0  0
    8.0787    3.3844   -1.4936 O   0  0  0  0  0  0  0  0  0  0  0  0
    6.7424    3.7095   -1.3617 N   0  0  0  0  0  0  0  0  0  0  0  0
   -3.5548   -0.5757    1.8251 C   0  0  0  0  0  0  0  0  0  0  0  0
   -4.1230   -0.3597    3.0873 C   0  0  0  0  0  0  0  0  0  0  0  0
   -5.9962   -0.2518    5.2077 H   0  0  0  0  0  0  0  0  0  0  0  0
   -5.4287    0.6080    6.6444 H   0  0  0  0  0  0  0  0  0  0  0  0
   -4.3572   -0.5790    5.8926 H   0  0  0  0  0  0  0  0  0  0  0  0
   -3.4044    2.9347    3.4414 H   0  0  0  0  0  0  0  0  0  0  0  0
   -2.3936    2.5661    1.2273 H   0  0  0  0  0  0  0  0  0  0  0  0
   -2.3635    1.2233   -0.7488 H   0  0  0  0  0  0  0  0  0  0  0  0
   -1.2718   -0.5114   -2.3876 H   0  0  0  0  0  0  0  0  0  0  0  0
   -3.1709   -3.9764   -3.7777 H   0  0  0  0  0  0  0  0  0  0  0  0
   -3.8704   -3.2672   -2.3241 H   0  0  0  0  0  0  0  0  0  0  0  0
   -2.1885   -3.7968   -2.3149 H   0  0  0  0  0  0  0  0  0  0  0  0
   -3.2951   -0.2592   -4.5614 H   0  0  0  0  0  0  0  0  0  0  0  0
   -4.5276   -1.1220   -3.6384 H   0  0  0  0  0  0  0  0  0  0  0  0
   -3.8645   -1.8472   -5.1063 H   0  0  0  0  0  0  0  0  0  0  0  0
   -0.4482   -2.5985   -3.7636 H   0  0  0  0  0  0  0  0  0  0  0  0
   -0.8961   -1.1554   -4.6765 H   0  0  0  0  0  0  0  0  0  0  0  0
   -1.5037   -2.7423   -5.1806 H   0  0  0  0  0  0  0  0  0  0  0  0
    0.5351   -1.6460    0.0956 H   0  0  0  0  0  0  0  0  0  0  0  0
   -1.1581   -2.0440    0.3075 H   0  0  0  0  0  0  0  0  0  0  0  0
    0.1979    0.8790    2.6484 H   0  0  0  0  0  0  0  0  0  0  0  0
    0.2584   -0.2416    5.1348 H   0  0  0  0  0  0  0  0  0  0  0  0
   -0.2479   -2.9224    4.6919 H   0  0  0  0  0  0  0  0  0  0  0  0
    1.8481    0.2986    0.5908 H   0  0  0  0  0  0  0  0  0  0  0  0
    1.8116   -0.2390   -1.1050 H   0  0  0  0  0  0  0  0  0  0  0  0
    2.3263    2.6025   -0.0786 H   0  0  0  0  0  0  0  0  0  0  0  0
    2.1739    2.1875   -1.7975 H   0  0  0  0  0  0  0  0  0  0  0  0
    4.3138    3.4809   -1.0928 H   0  0  0  0  0  0  0  0  0  0  0  0
    6.7716    0.4050   -1.1794 H   0  0  0  0  0  0  0  0  0  0  0  0
    9.5840    0.4356   -1.7719 H   0  0  0  0  0  0  0  0  0  0  0  0
   10.1159    2.0034   -2.3995 H   0  0  0  0  0  0  0  0  0  0  0  0
   10.1575    1.6873   -0.6523 H   0  0  0  0  0  0  0  0  0  0  0  0
   -3.6081   -1.5758    1.3992 H   0  0  0  0  0  0  0  0  0  0  0  0
   -4.5978   -1.2023    3.5788 H   0  0  0  0  0  0  0  0  0  0  0  0
  1  2  1  0
  2  3  1  0
  3  4  2  0
  4  5  1  0
  5  6  2  0
  6  7  1  0
  7  8  1  0
  8  9  2  0
  8 10  1  0
 10 11  1  0
 11 12  1  0
 11 13  1  0
 11 14  1  0
  7 15  1  0
 15 16  1  0
 16 17  1  0
 17 18  2  0
 18 19  1  0
 19 20  2  0
 20 21  1  0
 15 22  1  0
 22 23  2  0
 22 24  1  0
 24 25  1  0
 25 26  1  0
 26 27  2  0
 26 28  1  0
 28 29  1  0
 29 30  1  0
 30 31  2  0
 31 32  1  0
 31 33  1  0
 33 34  1  0
  6 35  1  0
 35 36  2  0
 36  3  1  0
 21 17  1  0
 34 29  2  0
  1 37  1  0
  1 38  1  0
  1 39  1  0
  4 40  1  0
  5 41  1  0
  7 42  1  0
 10 43  1  0
 12 44  1  0
 12 45  1  0
 12 46  1  0
 13 47  1  0
 13 48  1  0
 13 49  1  0
 14 50  1  0
 14 51  1  0
 14 52  1  0
 16 53  1  0
 16 54  1  0
 18 55  1  0
 19 56  1  0
 20 57  1  0
 24 58  1  0
 24 59  1  0
 25 60  1  0
 25 61  1  0
 28 62  1  0
 30 63  1  0
 32 64  1  0
 32 65  1  0
 32 66  1  0
 35 67  1  0
 36 68  1  0
M  END
$$$$
