
     RDKit          3D

 51 55  0  0  0  0  0  0  0  0999 V2000
    8.8868   -1.4852    0.6078 F   0  0  0  0  0  0  0  0  0  0  0  0
    7.5724   -1.2305    0.5702 C   0  0  0  0  0  0  0  0  0  0  0  0
    7.0741   -0.3421   -0.3750 C   0  0  0  0  0  0  0  0  0  0  0  0
    5.7048   -0.0763   -0.4158 C   0  0  0  0  0  0  0  0  0  0  0  0
    4.8343   -0.7046    0.4883 C   0  0  0  0  0  0  0  0  0  0  0  0
    3.3532   -0.4037    0.4564 C   0  0  0  0  0  0  0  0  0  0  0  0
    2.9923    0.7636    1.3935 C   0  0  0  0  0  0  0  0  0  0  0  0
    1.5815    1.1633    1.4366 N   0  0  0  0  0  0  0  0  0  0  0  0
    0.6453    0.1056    1.8495 C   0  0  0  0  0  0  0  0  0  0  0  0
   -0.2271   -0.4897    0.7201 C   0  0  0  0  0  0  0  0  0  0  0  0
   -0.9484    0.5434   -0.0380 N   0  0  0  0  0  0  0  0  0  0  0  0
   -2.2764    0.3765   -0.4223 C   0  0  0  0  0  0  0  0  0  0  0  0
   -3.0636    1.4242   -0.3771 N   0  0  0  0  0  0  0  0  0  0  0  0
   -4.4268    1.3224   -0.7104 C   0  0  0  0  0  0  0  0  0  0  0  0
   -5.2176    2.4701   -0.6255 C   0  0  0  0  0  0  0  0  0  0  0  0
   -6.5799    2.4229   -0.9332 C   0  0  0  0  0  0  0  0  0  0  0  0
   -7.1661    1.2206   -1.3298 C   0  0  0  0  0  0  0  0  0  0  0  0
   -6.3946    0.0616   -1.4216 C   0  0  0  0  0  0  0  0  0  0  0  0
   -5.0329    0.1248   -1.1100 C   0  0  0  0  0  0  0  0  0  0  0  0
   -4.1802   -0.9877   -1.1901 N   0  0  0  0  0  0  0  0  0  0  0  0
   -4.4658   -2.2766   -1.5739 C   0  0  0  0  0  0  0  0  0  0  0  0
   -3.2918   -2.9963   -1.5733 C   0  0  0  0  0  0  0  0  0  0  0  0
   -2.2643   -2.1177   -1.1584 C   0  0  0  0  0  0  0  0  0  0  0  0
   -2.8387   -0.8878   -0.8837 C   0  0  0  0  0  0  0  0  0  0  0  0
   -0.4044    1.9085    0.0880 C   0  0  0  0  0  0  0  0  0  0  0  0
    1.1309    1.8721    0.2263 C   0  0  0  0  0  0  0  0  0  0  0  0
    5.3577   -1.5943    1.4393 C   0  0  0  0  0  0  0  0  0  0  0  0
    6.7276   -1.8577    1.4780 C   0  0  0  0  0  0  0  0  0  0  0  0
    7.7539    0.1375   -1.0720 H   0  0  0  0  0  0  0  0  0  0  0  0
    5.3213    0.6230   -1.1556 H   0  0  0  0  0  0  0  0  0  0  0  0
    2.8057   -1.3111    0.7381 H   0  0  0  0  0  0  0  0  0  0  0  0
    3.0602   -0.1842   -0.5767 H   0  0  0  0  0  0  0  0  0  0  0  0
    3.5969    1.6430    1.1338 H   0  0  0  0  0  0  0  0  0  0  0  0
    3.2997    0.5065    2.4161 H   0  0  0  0  0  0  0  0  0  0  0  0
    1.1612   -0.7019    2.3833 H   0  0  0  0  0  0  0  0  0  0  0  0
   -0.0302    0.5542    2.5902 H   0  0  0  0  0  0  0  0  0  0  0  0
    0.4074   -1.0537    0.0279 H   0  0  0  0  0  0  0  0  0  0  0  0
   -0.9295   -1.1917    1.1839 H   0  0  0  0  0  0  0  0  0  0  0  0
   -4.7635    3.4072   -0.3140 H   0  0  0  0  0  0  0  0  0  0  0  0
   -7.1812    3.3254   -0.8621 H   0  0  0  0  0  0  0  0  0  0  0  0
   -8.2263    1.1882   -1.5688 H   0  0  0  0  0  0  0  0  0  0  0  0
   -6.8724   -0.8604   -1.7353 H   0  0  0  0  0  0  0  0  0  0  0  0
   -5.4670   -2.5844   -1.8379 H   0  0  0  0  0  0  0  0  0  0  0  0
   -3.1870   -4.0365   -1.8537 H   0  0  0  0  0  0  0  0  0  0  0  0
   -1.2159   -2.3657   -1.0756 H   0  0  0  0  0  0  0  0  0  0  0  0
   -0.6552    2.4904   -0.8071 H   0  0  0  0  0  0  0  0  0  0  0  0
   -0.8503    2.4133    0.9542 H   0  0  0  0  0  0  0  0  0  0  0  0
    1.5120    2.8993    0.2570 H   0  0  0  0  0  0  0  0  0  0  0  0
    1.5354    1.4032   -0.6783 H   0  0  0  0  0  0  0  0  0  0  0  0
    4.7020   -2.0855    2.1550 H   0  0  0  0  0  0  0  0  0  0  0  0
    7.1405   -2.5453    2.2090 H   0  0  0  0  0  0  0  0  0  0  0  0
  1  2  1  0
  2  3  2  0
  3  4  1  0
  4  5  2  0
  5  6  1  0
  6  7  1  0
  7  8  1  0
  8  9  1  0
  9 10  1  0
 10 11  1  0
 11 12  1  0
 12 13  2  0
 13 14  1  0
 14 15  2  0
 15 16  1  0
 16 17  2  0
 17 18  1  0
 18 19  2  0
 19 20  1  0
 20 21  1  0
 21 22  2  0
 22 23  1  0
 23 24  2  0
 11 25  1  0
 25 26  1  0
  5 27  1  0
 27 28  2  0
 28  2  1  0
 26  8  1  0
 24 12  1  0
 19 14  1  0
 24 20  1  0
  3 29  1  0
  4 30  1  0
  6 31  1  0
  6 32  1  0
  7 33  1  0
  7 34  1  0
  9 35  1  0
  9 36  1  0
 10 37  1  0
 10 38  1  0
 15 39  1  0
 16 40  1  0
 17 41  1  0
 18 42  1  0
 21 43  1  0
 22 44  1  0
 23 45  1  0
 25 46  1  0
 25 47  1  0
 26 48  1  0
 26 49  1  0
 27 50  1  0
 28 51  1  0
M  END
$$$$
