
     RDKit          3D

 44 47  0  0  0  0  0  0  0  0999 V2000
   -3.7191   -1.4216    1.1713 O   0  0  0  0  0  0  0  0  0  0  0  0
   -3.1684   -0.8163    0.2619 C   0  0  0  0  0  0  0  0  0  0  0  0
   -2.1884   -1.2860   -0.5879 O   0  0  0  0  0  0  0  0  0  0  0  0
   -1.7796   -2.5945   -0.3033 C   0  0  0  0  0  0  0  0  0  0  0  0
   -2.2685   -3.6120   -1.1243 C   0  0  0  0  0  0  0  0  0  0  0  0
   -1.8561   -4.9242   -0.9055 C   0  0  0  0  0  0  0  0  0  0  0  0
   -0.9512   -5.2092    0.1174 C   0  0  0  0  0  0  0  0  0  0  0  0
   -0.4513   -4.1814    0.9218 C   0  0  0  0  0  0  0  0  0  0  0  0
   -0.8537   -2.8576    0.7143 C   0  0  0  0  0  0  0  0  0  0  0  0
   -0.3125   -1.8091    1.5824 C   0  0  0  0  0  0  0  0  0  0  0  0
    0.6606   -0.9296    1.2935 C   0  0  0  0  0  0  0  0  0  0  0  0
    1.4147   -0.8081    0.0030 C   0  0  0  0  0  0  0  0  0  0  0  0
    1.1442   -1.5153   -0.9636 O   0  0  0  0  0  0  0  0  0  0  0  0
    2.4661    0.1900   -0.0551 C   0  0  0  0  0  0  0  0  0  0  0  0
    3.2932    0.5545   -1.1028 C   0  0  0  0  0  0  0  0  0  0  0  0
    4.1508    1.5764   -0.6228 C   0  0  0  0  0  0  0  0  0  0  0  0
    5.1918    2.3533   -1.1607 C   0  0  0  0  0  0  0  0  0  0  0  0
    5.8198    3.2992   -0.3368 C   0  0  0  0  0  0  0  0  0  0  0  0
    5.4249    3.4718    0.9928 C   0  0  0  0  0  0  0  0  0  0  0  0
    4.3899    2.7086    1.5455 C   0  0  0  0  0  0  0  0  0  0  0  0
    3.7875    1.7773    0.7035 C   0  0  0  0  0  0  0  0  0  0  0  0
    2.7704    0.9419    1.0495 O   0  0  0  0  0  0  0  0  0  0  0  0
   -3.4961    0.5936   -0.0946 C   0  0  0  0  0  0  0  0  0  0  0  0
   -2.7784    1.3202   -1.0565 C   0  0  0  0  0  0  0  0  0  0  0  0
   -3.1314    2.6420   -1.3483 C   0  0  0  0  0  0  0  0  0  0  0  0
   -4.1999    3.2424   -0.6849 C   0  0  0  0  0  0  0  0  0  0  0  0
   -4.9165    2.5270    0.2756 C   0  0  0  0  0  0  0  0  0  0  0  0
   -4.5655    1.2078    0.5711 C   0  0  0  0  0  0  0  0  0  0  0  0
   -2.9657   -3.3853   -1.9230 H   0  0  0  0  0  0  0  0  0  0  0  0
   -2.2354   -5.7249   -1.5342 H   0  0  0  0  0  0  0  0  0  0  0  0
   -0.6283   -6.2327    0.2849 H   0  0  0  0  0  0  0  0  0  0  0  0
    0.2599   -4.4230    1.7075 H   0  0  0  0  0  0  0  0  0  0  0  0
   -0.7811   -1.7727    2.5657 H   0  0  0  0  0  0  0  0  0  0  0  0
    0.9393   -0.2169    2.0643 H   0  0  0  0  0  0  0  0  0  0  0  0
    3.2706    0.1233   -2.0948 H   0  0  0  0  0  0  0  0  0  0  0  0
    5.5045    2.2291   -2.1926 H   0  0  0  0  0  0  0  0  0  0  0  0
    6.6257    3.9111   -0.7439 H   0  0  0  0  0  0  0  0  0  0  0  0
    5.9289    4.2142    1.6088 H   0  0  0  0  0  0  0  0  0  0  0  0
    4.0693    2.8326    2.5728 H   0  0  0  0  0  0  0  0  0  0  0  0
   -1.9400    0.8770   -1.5859 H   0  0  0  0  0  0  0  0  0  0  0  0
   -2.5706    3.2027   -2.0939 H   0  0  0  0  0  0  0  0  0  0  0  0
   -4.4734    4.2708   -0.9156 H   0  0  0  0  0  0  0  0  0  0  0  0
   -5.7510    2.9951    0.7932 H   0  0  0  0  0  0  0  0  0  0  0  0
   -5.1302    0.6587    1.3233 H   0  0  0  0  0  0  0  0  0  0  0  0
  1  2  2  0
  2  3  1  0
  3  4  1  0
  4  5  2  0
  5  6  1  0
  6  7  2  0
  7  8  1  0
  8  9  2  0
  9 10  1  0
 10 11  2  3
 11 12  1  0
 12 13  2  0
 12 14  1  0
 14 15  2  0
 15 16  1  0
 16 17  2  0
 17 18  1  0
 18 19  2  0
 19 20  1  0
 20 21  2  0
 21 22  1  0
  2 23  1  0
 23 24  2  0
 24 25  1  0
 25 26  2  0
 26 27  1  0
 27 28  2  0
  9  4  1  0
 22 14  1  0
 28 23  1  0
 21 16  1  0
  5 29  1  0
  6 30  1  0
  7 31  1  0
  8 32  1  0
 10 33  1  0
 11 34  1  0
 15 35  1  0
 17 36  1  0
 18 37  1  0
 19 38  1  0
 20 39  1  0
 24 40  1  0
 25 41  1  0
 26 42  1  0
 27 43  1  0
 28 44  1  0
M  END
$$$$
