
     RDKit          3D

 54 57  0  0  0  0  0  0  0  0999 V2000
    8.4922   -0.8390    1.8950 C   0  0  0  0  0  0  0  0  0  0  0  0
    7.6391    0.4256    1.7605 C   0  0  0  0  0  0  0  0  0  0  0  0
    7.2284    0.9528    3.1374 C   0  0  0  0  0  0  0  0  0  0  0  0
    6.4303    0.1937    0.8715 C   0  0  0  0  0  0  0  0  0  0  0  0
    5.4488   -0.7533    1.1927 C   0  0  0  0  0  0  0  0  0  0  0  0
    4.3397   -0.9546    0.3612 C   0  0  0  0  0  0  0  0  0  0  0  0
    4.1859   -0.2111   -0.8074 C   0  0  0  0  0  0  0  0  0  0  0  0
    3.1068   -0.3590   -1.7042 N   0  0  0  0  0  0  0  0  0  0  0  0
    2.0025   -1.1853   -1.5673 C   0  0  0  0  0  0  0  0  0  0  0  0
    1.7471   -1.9107   -0.6096 O   0  0  0  0  0  0  0  0  0  0  0  0
    1.0732   -1.1433   -2.7880 C   0  0  0  0  0  0  0  0  0  0  0  0
   -0.2999   -1.2972   -2.4317 O   0  0  0  0  0  0  0  0  0  0  0  0
   -0.8460   -0.1844   -1.8847 C   0  0  0  0  0  0  0  0  0  0  0  0
   -0.2998    0.9029   -1.7894 O   0  0  0  0  0  0  0  0  0  0  0  0
   -2.2398   -0.4476   -1.4379 C   0  0  0  0  0  0  0  0  0  0  0  0
   -2.7745   -1.7392   -1.3686 C   0  0  0  0  0  0  0  0  0  0  0  0
   -4.0941   -1.9340   -0.9408 C   0  0  0  0  0  0  0  0  0  0  0  0
   -4.9027   -0.8460   -0.5737 C   0  0  0  0  0  0  0  0  0  0  0  0
   -4.3577    0.4280   -0.6438 C   0  0  0  0  0  0  0  0  0  0  0  0
   -3.0364    0.6402   -1.0674 C   0  0  0  0  0  0  0  0  0  0  0  0
   -5.3138    1.8258   -0.2094 S   0  0  0  0  0  6  0  0  0  0  0  0
   -4.6544    2.4312    0.9299 O   0  0  0  0  0  0  0  0  0  0  0  0
   -5.5455    2.5563   -1.4390 O   0  0  0  0  0  0  0  0  0  0  0  0
   -6.8795    1.2894    0.3521 C   0  0  0  0  0  0  0  0  0  0  0  0
   -7.7830    2.2582    0.8112 C   0  0  0  0  0  0  0  0  0  0  0  0
   -9.0416    1.8690    1.2632 C   0  0  0  0  0  0  0  0  0  0  0  0
   -9.3916    0.5212    1.2555 C   0  0  0  0  0  0  0  0  0  0  0  0
   -8.4821   -0.4362    0.7962 C   0  0  0  0  0  0  0  0  0  0  0  0
   -7.2089   -0.0586    0.3385 C   0  0  0  0  0  0  0  0  0  0  0  0
   -6.2914   -1.1217   -0.1349 C   0  0  0  0  0  0  0  0  0  0  0  0
   -6.6957   -2.2817   -0.1641 O   0  0  0  0  0  0  0  0  0  0  0  0
    5.1618    0.7380   -1.1318 C   0  0  0  0  0  0  0  0  0  0  0  0
    6.2707    0.9394   -0.3022 C   0  0  0  0  0  0  0  0  0  0  0  0
    9.4036   -0.6294    2.4656 H   0  0  0  0  0  0  0  0  0  0  0  0
    8.7920   -1.2163    0.9108 H   0  0  0  0  0  0  0  0  0  0  0  0
    7.9544   -1.6422    2.4115 H   0  0  0  0  0  0  0  0  0  0  0  0
    8.2727    1.1927    1.2954 H   0  0  0  0  0  0  0  0  0  0  0  0
    8.1132    1.1929    3.7371 H   0  0  0  0  0  0  0  0  0  0  0  0
    6.6282    1.8644    3.0445 H   0  0  0  0  0  0  0  0  0  0  0  0
    6.6377    0.2192    3.6963 H   0  0  0  0  0  0  0  0  0  0  0  0
    5.5323   -1.3509    2.0982 H   0  0  0  0  0  0  0  0  0  0  0  0
    3.6144   -1.7041    0.6622 H   0  0  0  0  0  0  0  0  0  0  0  0
    3.1200    0.2598   -2.5048 H   0  0  0  0  0  0  0  0  0  0  0  0
    1.3428   -1.9909   -3.4276 H   0  0  0  0  0  0  0  0  0  0  0  0
    1.2178   -0.2338   -3.3832 H   0  0  0  0  0  0  0  0  0  0  0  0
   -2.1756   -2.6082   -1.6346 H   0  0  0  0  0  0  0  0  0  0  0  0
   -4.4852   -2.9510   -0.8947 H   0  0  0  0  0  0  0  0  0  0  0  0
   -2.6335    1.6522   -1.1107 H   0  0  0  0  0  0  0  0  0  0  0  0
   -7.5086    3.3118    0.8161 H   0  0  0  0  0  0  0  0  0  0  0  0
   -9.7490    2.6143    1.6200 H   0  0  0  0  0  0  0  0  0  0  0  0
  -10.3738    0.2108    1.6062 H   0  0  0  0  0  0  0  0  0  0  0  0
   -8.7783   -1.4854    0.7981 H   0  0  0  0  0  0  0  0  0  0  0  0
    5.0765    1.3395   -2.0326 H   0  0  0  0  0  0  0  0  0  0  0  0
    7.0100    1.6862   -0.5841 H   0  0  0  0  0  0  0  0  0  0  0  0
  1  2  1  0
  2  3  1  0
  2  4  1  0
  4  5  2  0
  5  6  1  0
  6  7  2  0
  7  8  1  0
  8  9  1  0
  9 10  2  0
  9 11  1  0
 11 12  1  0
 12 13  1  0
 13 14  2  0
 13 15  1  0
 15 16  2  0
 16 17  1  0
 17 18  2  0
 18 19  1  0
 19 20  2  0
 19 21  1  0
 21 22  2  0
 21 23  2  0
 21 24  1  0
 24 25  2  0
 25 26  1  0
 26 27  2  0
 27 28  1  0
 28 29  2  0
 29 30  1  0
 30 31  2  0
  7 32  1  0
 32 33  2  0
 33  4  1  0
 20 15  1  0
 29 24  1  0
 30 18  1  0
  1 34  1  0
  1 35  1  0
  1 36  1  0
  2 37  1  0
  3 38  1  0
  3 39  1  0
  3 40  1  0
  5 41  1  0
  6 42  1  0
  8 43  1  0
 11 44  1  0
 11 45  1  0
 16 46  1  0
 17 47  1  0
 20 48  1  0
 25 49  1  0
 26 50  1  0
 27 51  1  0
 28 52  1  0
 32 53  1  0
 33 54  1  0
M  END
$$$$
