
     RDKit          3D

 46 49  0  0  0  0  0  0  0  0999 V2000
    4.7643   -1.5152    0.7064 O   0  0  0  0  0  0  0  0  0  0  0  0
    3.6956   -0.9045    0.6939 C   0  0  0  0  0  0  0  0  0  0  0  0
    2.5014   -1.4479    1.4468 C   0  0  0  0  0  0  0  0  0  0  0  0
    1.2429   -2.1283    0.3277 S   0  0  0  0  0  0  0  0  0  0  0  0
    0.2054   -0.7495    0.1845 C   0  0  0  0  0  0  0  0  0  0  0  0
    0.6346    0.4837    0.0730 N   0  0  0  0  0  0  0  0  0  0  0  0
   -0.4609    1.3075    0.1032 N   0  0  0  0  0  0  0  0  0  0  0  0
   -1.5344    0.5553    0.2408 C   0  0  0  0  0  0  0  0  0  0  0  0
   -2.9317    1.0780    0.3706 C   0  0  0  0  0  0  0  0  0  0  0  0
   -3.5705    0.8493    1.7167 C   0  0  0  0  0  0  0  0  0  0  0  0
   -4.8621    0.4412    1.9786 C   0  0  0  0  0  0  0  0  0  0  0  0
   -5.1418    0.3684    3.3714 C   0  0  0  0  0  0  0  0  0  0  0  0
   -4.0583    0.7448    4.1284 C   0  0  0  0  0  0  0  0  0  0  0  0
   -2.7164    1.1600    3.1703 S   0  0  0  0  0  0  0  0  0  0  0  0
   -1.1573   -0.7737    0.2468 N   0  0  0  0  0  0  0  0  0  0  0  0
   -2.0189   -1.9282    0.4189 C   0  0  0  0  0  0  0  0  0  0  0  0
   -2.8188   -2.2033   -0.7981 C   0  0  0  0  0  0  0  0  0  0  0  0
   -4.1751   -2.2929   -1.0382 C   0  0  0  0  0  0  0  0  0  0  0  0
   -4.3180   -2.5955   -2.4132 C   0  0  0  0  0  0  0  0  0  0  0  0
   -3.0431   -2.6867   -2.9209 C   0  0  0  0  0  0  0  0  0  0  0  0
   -2.1277   -2.4548   -1.9468 O   0  0  0  0  0  0  0  0  0  0  0  0
    3.4565    0.3081    0.0757 N   0  0  0  0  0  0  0  0  0  0  0  0
    4.3949    1.1621   -0.5357 C   0  0  0  0  0  0  0  0  0  0  0  0
    3.8964    2.2730   -1.2332 C   0  0  0  0  0  0  0  0  0  0  0  0
    4.7673    3.1891   -1.8399 C   0  0  0  0  0  0  0  0  0  0  0  0
    6.1453    3.0019   -1.7356 C   0  0  0  0  0  0  0  0  0  0  0  0
    7.3313    4.2494   -2.5216 Br  0  0  0  0  0  0  0  0  0  0  0  0
    6.6530    1.9017   -1.0500 C   0  0  0  0  0  0  0  0  0  0  0  0
    5.7763    0.9782   -0.4613 C   0  0  0  0  0  0  0  0  0  0  0  0
    2.8534   -2.2513    2.1120 H   0  0  0  0  0  0  0  0  0  0  0  0
    2.0911   -0.6698    2.0940 H   0  0  0  0  0  0  0  0  0  0  0  0
   -2.9285    2.1597    0.1817 H   0  0  0  0  0  0  0  0  0  0  0  0
   -3.5547    0.6395   -0.4242 H   0  0  0  0  0  0  0  0  0  0  0  0
   -5.5869    0.2239    1.2060 H   0  0  0  0  0  0  0  0  0  0  0  0
   -6.1014    0.0912    3.7897 H   0  0  0  0  0  0  0  0  0  0  0  0
   -3.9892    0.8046    5.2060 H   0  0  0  0  0  0  0  0  0  0  0  0
   -2.6607   -1.7442    1.2845 H   0  0  0  0  0  0  0  0  0  0  0  0
   -1.4184   -2.8046    0.6687 H   0  0  0  0  0  0  0  0  0  0  0  0
   -4.9646   -2.1583   -0.3109 H   0  0  0  0  0  0  0  0  0  0  0  0
   -5.2357   -2.7411   -2.9707 H   0  0  0  0  0  0  0  0  0  0  0  0
   -2.6380   -2.8985   -3.9026 H   0  0  0  0  0  0  0  0  0  0  0  0
    2.4837    0.6129    0.0341 H   0  0  0  0  0  0  0  0  0  0  0  0
    2.8216    2.4327   -1.3262 H   0  0  0  0  0  0  0  0  0  0  0  0
    4.3613    4.0406   -2.3773 H   0  0  0  0  0  0  0  0  0  0  0  0
    7.7282    1.7527   -0.9498 H   0  0  0  0  0  0  0  0  0  0  0  0
    6.2084    0.1388    0.0771 H   0  0  0  0  0  0  0  0  0  0  0  0
  1  2  2  0
  2  3  1  0
  3  4  1  0
  4  5  1  0
  5  6  2  0
  6  7  1  0
  7  8  2  0
  8  9  1  0
  9 10  1  0
 10 11  2  0
 11 12  1  0
 12 13  2  0
 13 14  1  0
  8 15  1  0
 15 16  1  0
 16 17  1  0
 17 18  2  0
 18 19  1  0
 19 20  2  0
 20 21  1  0
  2 22  1  0
 22 23  1  0
 23 24  2  0
 24 25  1  0
 25 26  2  0
 26 27  1  0
 26 28  1  0
 28 29  2  0
 15  5  1  0
 21 17  1  0
 29 23  1  0
 14 10  1  0
  3 30  1  0
  3 31  1  0
  9 32  1  0
  9 33  1  0
 11 34  1  0
 12 35  1  0
 13 36  1  0
 16 37  1  0
 16 38  1  0
 18 39  1  0
 19 40  1  0
 20 41  1  0
 22 42  1  0
 24 43  1  0
 25 44  1  0
 28 45  1  0
 29 46  1  0
M  END
$$$$
