
     RDKit          3D

 37 39  0  0  0  0  0  0  0  0999 V2000
   -5.9790    4.3967   -0.3732 C   0  0  0  0  0  0  0  0  0  0  0  0
   -5.4399    3.3572   -1.1802 O   0  0  0  0  0  0  0  0  0  0  0  0
   -4.4835    2.5645   -0.6115 C   0  0  0  0  0  0  0  0  0  0  0  0
   -4.0079    2.6581    0.6947 C   0  0  0  0  0  0  0  0  0  0  0  0
   -3.0181    1.7756    1.1538 C   0  0  0  0  0  0  0  0  0  0  0  0
   -2.4843    0.7817    0.3176 C   0  0  0  0  0  0  0  0  0  0  0  0
   -1.4412   -0.1637    0.7449 C   0  0  0  0  0  0  0  0  0  0  0  0
   -0.7675   -0.9743   -0.0529 N   0  0  0  0  0  0  0  0  0  0  0  0
    0.1327   -1.7136    0.6999 C   0  0  0  0  0  0  0  0  0  0  0  0
    0.9134   -2.5775   -0.0239 N   0  0  0  0  0  0  0  0  0  0  0  0
    1.9268   -3.3521    0.4866 C   0  0  0  0  0  0  0  0  0  0  0  0
    2.2745   -3.4253    1.6625 O   0  0  0  0  0  0  0  0  0  0  0  0
    2.6084   -4.2280   -0.5519 C   0  0  0  0  0  0  0  0  0  0  0  0
    3.1731   -3.3043   -2.0069 S   0  0  0  0  0  0  0  0  0  0  0  0
    4.0868   -2.0247   -1.2441 C   0  0  0  0  0  0  0  0  0  0  0  0
    3.6930   -0.7742   -1.3320 N   0  0  0  0  0  0  0  0  0  0  0  0
    4.5319    0.0807   -0.6440 N   0  0  0  0  0  0  0  0  0  0  0  0
    5.5288   -0.5593   -0.0691 C   0  0  0  0  0  0  0  0  0  0  0  0
    6.5908    0.0754    0.7509 C   0  0  0  0  0  0  0  0  0  0  0  0
    5.5255   -2.2562   -0.3459 S   0  0  0  0  0  0  0  0  0  0  0  0
    0.1561   -1.5499    2.0193 N   0  0  0  0  0  0  0  0  0  0  0  0
   -0.9654   -0.3803    2.3846 S   0  0  0  0  0  0  0  0  0  0  0  0
   -2.9707    0.7059   -0.9969 C   0  0  0  0  0  0  0  0  0  0  0  0
   -3.9591    1.5845   -1.4536 C   0  0  0  0  0  0  0  0  0  0  0  0
   -5.2009    5.1079   -0.0758 H   0  0  0  0  0  0  0  0  0  0  0  0
   -6.4993    3.9896    0.5004 H   0  0  0  0  0  0  0  0  0  0  0  0
   -6.7125    4.9413   -0.9752 H   0  0  0  0  0  0  0  0  0  0  0  0
   -4.3806    3.4068    1.3860 H   0  0  0  0  0  0  0  0  0  0  0  0
   -2.6724    1.8996    2.1773 H   0  0  0  0  0  0  0  0  0  0  0  0
    0.7682   -2.5124   -1.0214 H   0  0  0  0  0  0  0  0  0  0  0  0
    3.4654   -4.7286   -0.0904 H   0  0  0  0  0  0  0  0  0  0  0  0
    1.9035   -5.0025   -0.8690 H   0  0  0  0  0  0  0  0  0  0  0  0
    6.5844   -0.3226    1.7704 H   0  0  0  0  0  0  0  0  0  0  0  0
    7.5781   -0.0995    0.3118 H   0  0  0  0  0  0  0  0  0  0  0  0
    6.4342    1.1571    0.8083 H   0  0  0  0  0  0  0  0  0  0  0  0
   -2.5796   -0.0428   -1.6842 H   0  0  0  0  0  0  0  0  0  0  0  0
   -4.3138    1.5087   -2.4785 H   0  0  0  0  0  0  0  0  0  0  0  0
  1  2  1  0
  2  3  1  0
  3  4  2  0
  4  5  1  0
  5  6  2  0
  6  7  1  0
  7  8  2  0
  8  9  1  0
  9 10  1  0
 10 11  1  0
 11 12  2  0
 11 13  1  0
 13 14  1  0
 14 15  1  0
 15 16  2  0
 16 17  1  0
 17 18  2  0
 18 19  1  0
 18 20  1  0
  9 21  2  0
 21 22  1  0
  6 23  1  0
 23 24  2  0
 24  3  1  0
 22  7  1  0
 20 15  1  0
  1 25  1  0
  1 26  1  0
  1 27  1  0
  4 28  1  0
  5 29  1  0
 10 30  1  0
 13 31  1  0
 13 32  1  0
 19 33  1  0
 19 34  1  0
 19 35  1  0
 23 36  1  0
 24 37  1  0
M  END
$$$$
