
     RDKit          3D

 57 60  0  0  0  0  0  0  0  0999 V2000
   -1.1621   -2.4205    3.5800 C   0  0  0  0  0  0  0  0  0  0  0  0
   -1.8489   -1.7233    2.5363 O   0  0  0  0  0  0  0  0  0  0  0  0
   -1.0435   -1.5383    1.4481 C   0  0  0  0  0  0  0  0  0  0  0  0
   -0.7516   -2.6417    0.6372 C   0  0  0  0  0  0  0  0  0  0  0  0
   -0.0014   -2.4818   -0.5301 C   0  0  0  0  0  0  0  0  0  0  0  0
    0.4518   -1.2102   -0.8971 C   0  0  0  0  0  0  0  0  0  0  0  0
    1.2192   -0.9924   -2.1501 C   0  0  0  0  0  0  0  0  0  0  0  0
    1.0641    0.0448   -2.7827 O   0  0  0  0  0  0  0  0  0  0  0  0
    2.0912   -1.9977   -2.5055 N   0  0  0  0  0  0  0  0  0  0  0  0
    3.0064   -1.8349   -3.6135 C   0  0  0  0  0  0  0  0  0  0  0  0
    4.3641   -1.3981   -3.1243 C   0  0  0  0  0  0  0  0  0  0  0  0
    5.3741   -2.3531   -2.8630 C   0  0  0  0  0  0  0  0  0  0  0  0
    6.6283   -1.9603   -2.3838 C   0  0  0  0  0  0  0  0  0  0  0  0
    6.8417   -0.6158   -2.1707 C   0  0  0  0  0  0  0  0  0  0  0  0
    5.8647    0.3198   -2.4150 C   0  0  0  0  0  0  0  0  0  0  0  0
    4.6191   -0.0365   -2.8862 C   0  0  0  0  0  0  0  0  0  0  0  0
    6.2774    1.5853   -2.1377 O   0  0  0  0  0  0  0  0  0  0  0  0
    7.6241    1.3386   -1.6843 C   0  0  0  0  0  0  0  0  0  0  0  0
    7.9922   -0.0572   -1.7081 O   0  0  0  0  0  0  0  0  0  0  0  0
    0.1420   -0.1013   -0.1017 C   0  0  0  0  0  0  0  0  0  0  0  0
   -0.6168   -0.2637    1.0673 C   0  0  0  0  0  0  0  0  0  0  0  0
   -0.9282    1.1741    2.0729 S   0  0  0  0  0  6  0  0  0  0  0  0
    0.0248    2.1863    1.6631 O   0  0  0  0  0  0  0  0  0  0  0  0
   -0.9801    0.7682    3.4616 O   0  0  0  0  0  0  0  0  0  0  0  0
   -2.4719    1.6894    1.5831 N   0  0  0  0  0  0  0  0  0  0  0  0
   -2.5880    2.1826    0.1960 C   0  0  0  0  0  0  0  0  0  0  0  0
   -3.6058    0.8351    2.0109 C   0  0  0  0  0  0  0  0  0  0  0  0
   -4.9156    1.5890    2.1066 C   0  0  0  0  0  0  0  0  0  0  0  0
   -5.0171    2.7240    2.9256 C   0  0  0  0  0  0  0  0  0  0  0  0
   -6.2236    3.4170    3.0301 C   0  0  0  0  0  0  0  0  0  0  0  0
   -7.3416    2.9810    2.3213 C   0  0  0  0  0  0  0  0  0  0  0  0
   -7.2549    1.8513    1.5085 C   0  0  0  0  0  0  0  0  0  0  0  0
   -6.0486    1.1563    1.4021 C   0  0  0  0  0  0  0  0  0  0  0  0
   -1.0991   -3.4897    3.3539 H   0  0  0  0  0  0  0  0  0  0  0  0
   -0.1612   -2.0075    3.7545 H   0  0  0  0  0  0  0  0  0  0  0  0
   -1.7437   -2.3014    4.4994 H   0  0  0  0  0  0  0  0  0  0  0  0
   -1.1309   -3.6271    0.8984 H   0  0  0  0  0  0  0  0  0  0  0  0
    0.1892   -3.3473   -1.1604 H   0  0  0  0  0  0  0  0  0  0  0  0
    2.3313   -2.6962   -1.8168 H   0  0  0  0  0  0  0  0  0  0  0  0
    3.0793   -2.8041   -4.1192 H   0  0  0  0  0  0  0  0  0  0  0  0
    2.6134   -1.1176   -4.3429 H   0  0  0  0  0  0  0  0  0  0  0  0
    5.1840   -3.4106   -3.0355 H   0  0  0  0  0  0  0  0  0  0  0  0
    7.4084   -2.6862   -2.1843 H   0  0  0  0  0  0  0  0  0  0  0  0
    3.8584    0.7193   -3.0613 H   0  0  0  0  0  0  0  0  0  0  0  0
    7.7213    1.7096   -0.6570 H   0  0  0  0  0  0  0  0  0  0  0  0
    8.3176    1.8948   -2.3257 H   0  0  0  0  0  0  0  0  0  0  0  0
    0.4966    0.8851   -0.4006 H   0  0  0  0  0  0  0  0  0  0  0  0
   -2.6774    1.3523   -0.5101 H   0  0  0  0  0  0  0  0  0  0  0  0
   -1.7266    2.7969   -0.0799 H   0  0  0  0  0  0  0  0  0  0  0  0
   -3.4673    2.8260    0.0951 H   0  0  0  0  0  0  0  0  0  0  0  0
   -3.4236    0.4122    3.0047 H   0  0  0  0  0  0  0  0  0  0  0  0
   -3.7081   -0.0032    1.3119 H   0  0  0  0  0  0  0  0  0  0  0  0
   -4.1481    3.0727    3.4812 H   0  0  0  0  0  0  0  0  0  0  0  0
   -6.2887    4.2971    3.6652 H   0  0  0  0  0  0  0  0  0  0  0  0
   -8.2807    3.5226    2.4043 H   0  0  0  0  0  0  0  0  0  0  0  0
   -8.1284    1.5111    0.9581 H   0  0  0  0  0  0  0  0  0  0  0  0
   -6.0012    0.2753    0.7659 H   0  0  0  0  0  0  0  0  0  0  0  0
  1  2  1  0
  2  3  1  0
  3  4  2  0
  4  5  1  0
  5  6  2  0
  6  7  1  0
  7  8  2  0
  7  9  1  0
  9 10  1  0
 10 11  1  0
 11 12  2  0
 12 13  1  0
 13 14  2  0
 14 15  1  0
 15 16  2  0
 15 17  1  0
 17 18  1  0
 18 19  1  0
  6 20  1  0
 20 21  2  0
 21 22  1  0
 22 23  2  0
 22 24  2  0
 22 25  1  0
 25 26  1  0
 25 27  1  0
 27 28  1  0
 28 29  2  0
 29 30  1  0
 30 31  2  0
 31 32  1  0
 32 33  2  0
 21  3  1  0
 33 28  1  0
 16 11  1  0
 19 14  1  0
  1 34  1  0
  1 35  1  0
  1 36  1  0
  4 37  1  0
  5 38  1  0
  9 39  1  0
 10 40  1  0
 10 41  1  0
 12 42  1  0
 13 43  1  0
 16 44  1  0
 18 45  1  0
 18 46  1  0
 20 47  1  0
 26 48  1  0
 26 49  1  0
 26 50  1  0
 27 51  1  0
 27 52  1  0
 29 53  1  0
 30 54  1  0
 31 55  1  0
 32 56  1  0
 33 57  1  0
M  END
$$$$
