
     RDKit          3D

 50 52  0  0  0  0  0  0  0  0999 V2000
    4.1794   -1.3722    3.8413 C   0  0  0  0  0  0  0  0  0  0  0  0
    4.6598   -2.0777    2.6645 N   0  0  0  0  0  0  0  0  0  0  0  0
    3.5694   -2.7267    1.5587 S   0  0  0  0  0  6  0  0  0  0  0  0
    4.3451   -3.1359    0.4065 O   0  0  0  0  0  0  0  0  0  0  0  0
    2.7045   -3.6585    2.2621 O   0  0  0  0  0  0  0  0  0  0  0  0
    2.6097   -1.3029    1.0880 C   0  0  0  0  0  0  0  0  0  0  0  0
    1.3470   -1.1056    1.6615 C   0  0  0  0  0  0  0  0  0  0  0  0
    0.6141    0.0384    1.3126 C   0  0  0  0  0  0  0  0  0  0  0  0
    1.1210    0.9520    0.3730 C   0  0  0  0  0  0  0  0  0  0  0  0
    0.3092    2.1543    0.0215 C   0  0  0  0  0  0  0  0  0  0  0  0
   -0.5140    2.6198    0.8088 O   0  0  0  0  0  0  0  0  0  0  0  0
    0.4990    2.6673   -1.2453 N   0  0  0  0  0  0  0  0  0  0  0  0
   -0.3239    3.7697   -1.7122 C   0  0  0  0  0  0  0  0  0  0  0  0
   -1.6653    3.2342   -2.2091 C   0  0  0  0  0  0  0  0  0  0  0  0
   -1.8702    2.9911   -3.3985 O   0  0  0  0  0  0  0  0  0  0  0  0
   -2.5675    2.9804   -1.1937 N   0  0  0  0  0  0  0  0  0  0  0  0
   -3.7716    2.2004   -1.4303 C   0  0  0  0  0  0  0  0  0  0  0  0
   -3.5905    0.6927   -1.1625 C   0  0  0  0  0  0  0  0  0  0  0  0
   -3.3938    0.4165    0.3335 C   0  0  0  0  0  0  0  0  0  0  0  0
   -3.2994   -0.9899    0.5828 O   0  0  0  0  0  0  0  0  0  0  0  0
   -2.3826   -1.5758   -0.2694 C   0  0  0  0  0  0  0  0  0  0  0  0
   -1.8493   -2.8017    0.1262 C   0  0  0  0  0  0  0  0  0  0  0  0
   -0.8954   -3.4389   -0.6757 C   0  0  0  0  0  0  0  0  0  0  0  0
   -0.4942   -2.8525   -1.8741 C   0  0  0  0  0  0  0  0  0  0  0  0
   -1.0402   -1.6325   -2.2768 C   0  0  0  0  0  0  0  0  0  0  0  0
   -1.9879   -0.9960   -1.4773 C   0  0  0  0  0  0  0  0  0  0  0  0
   -2.4722    0.2015   -1.9329 O   0  0  0  0  0  0  0  0  0  0  0  0
    2.3870    0.7391   -0.1996 C   0  0  0  0  0  0  0  0  0  0  0  0
    3.1296   -0.3937    0.1520 C   0  0  0  0  0  0  0  0  0  0  0  0
    3.9111   -0.3416    3.5759 H   0  0  0  0  0  0  0  0  0  0  0  0
    4.9803   -1.3267    4.5879 H   0  0  0  0  0  0  0  0  0  0  0  0
    3.3227   -1.8719    4.2948 H   0  0  0  0  0  0  0  0  0  0  0  0
    5.5511   -1.8119    2.2481 H   0  0  0  0  0  0  0  0  0  0  0  0
    0.9365   -1.8139    2.3786 H   0  0  0  0  0  0  0  0  0  0  0  0
   -0.3620    0.1965    1.7691 H   0  0  0  0  0  0  0  0  0  0  0  0
    0.8595    2.0462   -1.9565 H   0  0  0  0  0  0  0  0  0  0  0  0
   -0.4870    4.4923   -0.9072 H   0  0  0  0  0  0  0  0  0  0  0  0
    0.1953    4.2650   -2.5309 H   0  0  0  0  0  0  0  0  0  0  0  0
   -2.1920    3.0294   -0.2432 H   0  0  0  0  0  0  0  0  0  0  0  0
   -4.0833    2.3575   -2.4759 H   0  0  0  0  0  0  0  0  0  0  0  0
   -4.5608    2.6177   -0.7825 H   0  0  0  0  0  0  0  0  0  0  0  0
   -4.4917    0.1713   -1.5166 H   0  0  0  0  0  0  0  0  0  0  0  0
   -2.4889    0.8921    0.7284 H   0  0  0  0  0  0  0  0  0  0  0  0
   -4.2425    0.7991    0.9099 H   0  0  0  0  0  0  0  0  0  0  0  0
   -2.1543   -3.2552    1.0611 H   0  0  0  0  0  0  0  0  0  0  0  0
   -0.4736   -4.3940   -0.3668 H   0  0  0  0  0  0  0  0  0  0  0  0
    0.2394   -3.3545   -2.4991 H   0  0  0  0  0  0  0  0  0  0  0  0
   -0.7403   -1.1789   -3.2165 H   0  0  0  0  0  0  0  0  0  0  0  0
    2.8168    1.4623   -0.8964 H   0  0  0  0  0  0  0  0  0  0  0  0
    4.1068   -0.5559   -0.2978 H   0  0  0  0  0  0  0  0  0  0  0  0
  1  2  1  0
  2  3  1  0
  3  4  2  0
  3  5  2  0
  3  6  1  0
  6  7  2  0
  7  8  1  0
  8  9  2  0
  9 10  1  0
 10 11  2  0
 10 12  1  0
 12 13  1  0
 13 14  1  0
 14 15  2  0
 14 16  1  0
 16 17  1  0
 17 18  1  0
 18 19  1  0
 19 20  1  0
 20 21  1  0
 21 22  2  0
 22 23  1  0
 23 24  2  0
 24 25  1  0
 25 26  2  0
 26 27  1  0
  9 28  1  0
 28 29  2  0
 29  6  1  0
 27 18  1  0
 26 21  1  0
  1 30  1  0
  1 31  1  0
  1 32  1  0
  2 33  1  0
  7 34  1  0
  8 35  1  0
 12 36  1  0
 13 37  1  0
 13 38  1  0
 16 39  1  0
 17 40  1  0
 17 41  1  0
 18 42  1  0
 19 43  1  0
 19 44  1  0
 22 45  1  0
 23 46  1  0
 24 47  1  0
 25 48  1  0
 28 49  1  0
 29 50  1  0
M  END
$$$$
