
     RDKit          3D

 71 72  0  0  0  0  0  0  0  0999 V2000
   -1.7456   -5.6489   -1.2715 C   0  0  0  0  0  0  0  0  0  0  0  0
   -1.2298   -4.5487   -0.5350 O   0  0  0  0  0  0  0  0  0  0  0  0
   -2.0748   -3.4974   -0.2941 C   0  0  0  0  0  0  0  0  0  0  0  0
   -3.4219   -3.4655   -0.6512 C   0  0  0  0  0  0  0  0  0  0  0  0
   -4.1861   -2.3248   -0.4049 C   0  0  0  0  0  0  0  0  0  0  0  0
   -3.6142   -1.2018    0.1967 C   0  0  0  0  0  0  0  0  0  0  0  0
   -2.2684   -1.1998    0.5903 C   0  0  0  0  0  0  0  0  0  0  0  0
   -1.5880    0.0038    1.2422 C   0  0  0  0  0  0  0  0  0  0  0  0
   -2.4721    1.0178    2.0432 C   0  0  0  0  0  0  0  0  0  0  0  0
   -3.6842    0.9074    2.2056 O   0  0  0  0  0  0  0  0  0  0  0  0
   -1.7356    2.0157    2.6687 N   0  0  0  0  0  0  0  0  0  0  0  0
   -2.2724    3.0171    3.5987 C   0  0  0  0  0  0  0  0  0  0  0  0
   -1.1125    3.9392    4.0167 C   0  0  0  0  0  0  0  0  0  0  0  0
   -3.3502    3.8802    2.9248 C   0  0  0  0  0  0  0  0  0  0  0  0
   -2.8416    2.3451    4.8567 C   0  0  0  0  0  0  0  0  0  0  0  0
   -0.5762    0.6699    0.3568 N   0  0  0  0  0  0  0  0  0  0  0  0
    0.6554    0.9439    0.9499 C   0  0  0  0  0  0  0  0  0  0  0  0
    0.8040    0.8910    2.1761 O   0  0  0  0  0  0  0  0  0  0  0  0
    1.8528    1.2720    0.0836 C   0  0  0  0  0  0  0  0  0  0  0  0
    2.3259    0.0316   -0.6599 C   0  0  0  0  0  0  0  0  0  0  0  0
    3.5380    0.3156   -1.5226 C   0  0  0  0  0  0  0  0  0  0  0  0
    3.9925    1.4454   -1.6668 O   0  0  0  0  0  0  0  0  0  0  0  0
    4.0209   -0.8292   -2.1145 N   0  0  0  0  0  0  0  0  0  0  0  0
    5.1071   -0.8917   -2.9582 C   0  0  0  0  0  0  0  0  0  0  0  0
    5.9562    0.1422   -3.4094 C   0  0  0  0  0  0  0  0  0  0  0  0
    6.8633   -0.4873   -4.2241 C   0  0  0  0  0  0  0  0  0  0  0  0
    8.0192   -0.0374   -5.0182 C   0  0  0  0  0  0  0  0  0  0  0  0
    6.5813   -1.8158   -4.2610 O   0  0  0  0  0  0  0  0  0  0  0  0
    5.4784   -2.0716   -3.4674 N   0  0  0  0  0  0  0  0  0  0  0  0
   -0.9791    1.2496   -0.9521 C   0  0  0  0  0  0  0  0  0  0  0  0
   -1.2757    0.2186   -2.0427 C   0  0  0  0  0  0  0  0  0  0  0  0
   -2.1159    2.2671   -0.8378 C   0  0  0  0  0  0  0  0  0  0  0  0
   -1.5163   -2.3742    0.3485 C   0  0  0  0  0  0  0  0  0  0  0  0
   -0.1778   -2.3611    0.6834 O   0  0  0  0  0  0  0  0  0  0  0  0
    0.0712   -3.1916    1.8189 C   0  0  0  0  0  0  0  0  0  0  0  0
   -2.0904   -5.3371   -2.2630 H   0  0  0  0  0  0  0  0  0  0  0  0
   -2.5406   -6.1565   -0.7161 H   0  0  0  0  0  0  0  0  0  0  0  0
   -0.9315   -6.3657   -1.4140 H   0  0  0  0  0  0  0  0  0  0  0  0
   -3.9093   -4.3064   -1.1320 H   0  0  0  0  0  0  0  0  0  0  0  0
   -5.2349   -2.3030   -0.6924 H   0  0  0  0  0  0  0  0  0  0  0  0
   -4.2464   -0.3287    0.3383 H   0  0  0  0  0  0  0  0  0  0  0  0
   -1.0329   -0.4604    2.0727 H   0  0  0  0  0  0  0  0  0  0  0  0
   -0.7344    1.8239    2.7325 H   0  0  0  0  0  0  0  0  0  0  0  0
   -1.4475    4.7157    4.7127 H   0  0  0  0  0  0  0  0  0  0  0  0
   -0.3138    3.3709    4.5075 H   0  0  0  0  0  0  0  0  0  0  0  0
   -0.6690    4.4350    3.1450 H   0  0  0  0  0  0  0  0  0  0  0  0
   -3.6797    4.6883    3.5877 H   0  0  0  0  0  0  0  0  0  0  0  0
   -2.9691    4.3355    2.0033 H   0  0  0  0  0  0  0  0  0  0  0  0
   -4.2385    3.2995    2.6576 H   0  0  0  0  0  0  0  0  0  0  0  0
   -3.1587    3.0901    5.5947 H   0  0  0  0  0  0  0  0  0  0  0  0
   -3.7127    1.7237    4.6276 H   0  0  0  0  0  0  0  0  0  0  0  0
   -2.0943    1.6979    5.3293 H   0  0  0  0  0  0  0  0  0  0  0  0
    2.6538    1.6203    0.7499 H   0  0  0  0  0  0  0  0  0  0  0  0
    1.6533    2.1173   -0.5784 H   0  0  0  0  0  0  0  0  0  0  0  0
    2.5821   -0.7565    0.0592 H   0  0  0  0  0  0  0  0  0  0  0  0
    1.5381   -0.3593   -1.3092 H   0  0  0  0  0  0  0  0  0  0  0  0
    3.5804   -1.7236   -1.9440 H   0  0  0  0  0  0  0  0  0  0  0  0
    5.9180    1.1956   -3.1746 H   0  0  0  0  0  0  0  0  0  0  0  0
    8.0616    1.0556   -5.0638 H   0  0  0  0  0  0  0  0  0  0  0  0
    8.9519   -0.3972   -4.5723 H   0  0  0  0  0  0  0  0  0  0  0  0
    7.9563   -0.4167   -6.0427 H   0  0  0  0  0  0  0  0  0  0  0  0
   -0.1329    1.8225   -1.3329 H   0  0  0  0  0  0  0  0  0  0  0  0
   -2.2806   -0.1989   -1.9592 H   0  0  0  0  0  0  0  0  0  0  0  0
   -1.2227    0.6936   -3.0294 H   0  0  0  0  0  0  0  0  0  0  0  0
   -0.5575   -0.6052   -2.0329 H   0  0  0  0  0  0  0  0  0  0  0  0
   -3.0593    1.7979   -0.5461 H   0  0  0  0  0  0  0  0  0  0  0  0
   -2.2837    2.7638   -1.8000 H   0  0  0  0  0  0  0  0  0  0  0  0
   -1.8745    3.0414   -0.1026 H   0  0  0  0  0  0  0  0  0  0  0  0
    0.2132   -4.2322    1.5148 H   0  0  0  0  0  0  0  0  0  0  0  0
   -0.7240   -3.1185    2.5697 H   0  0  0  0  0  0  0  0  0  0  0  0
    1.0022   -2.8494    2.2813 H   0  0  0  0  0  0  0  0  0  0  0  0
  1  2  1  0
  2  3  1  0
  3  4  2  0
  4  5  1  0
  5  6  2  0
  6  7  1  0
  7  8  1  0
  8  9  1  0
  9 10  2  0
  9 11  1  0
 11 12  1  0
 12 13  1  0
 12 14  1  0
 12 15  1  0
  8 16  1  0
 16 17  1  0
 17 18  2  0
 17 19  1  0
 19 20  1  0
 20 21  1  0
 21 22  2  0
 21 23  1  0
 23 24  1  0
 24 25  1  0
 25 26  2  0
 26 27  1  0
 26 28  1  0
 28 29  1  0
 16 30  1  0
 30 31  1  0
 30 32  1  0
  7 33  2  0
 33 34  1  0
 34 35  1  0
 33  3  1  0
 29 24  2  0
  1 36  1  0
  1 37  1  0
  1 38  1  0
  4 39  1  0
  5 40  1  0
  6 41  1  0
  8 42  1  0
 11 43  1  0
 13 44  1  0
 13 45  1  0
 13 46  1  0
 14 47  1  0
 14 48  1  0
 14 49  1  0
 15 50  1  0
 15 51  1  0
 15 52  1  0
 19 53  1  0
 19 54  1  0
 20 55  1  0
 20 56  1  0
 23 57  1  0
 25 58  1  0
 27 59  1  0
 27 60  1  0
 27 61  1  0
 30 62  1  0
 31 63  1  0
 31 64  1  0
 31 65  1  0
 32 66  1  0
 32 67  1  0
 32 68  1  0
 35 69  1  0
 35 70  1  0
 35 71  1  0
M  END
$$$$
