
     RDKit          3D

 32 33  0  0  0  0  0  0  0  0999 V2000
   -5.2321   -0.3703    0.9270 C   0  0  0  0  0  0  0  0  0  0  0  0
   -3.9126   -0.3751    0.2126 C   0  0  0  0  0  0  0  0  0  0  0  0
   -2.9851   -1.3979    0.4465 C   0  0  0  0  0  0  0  0  0  0  0  0
   -1.7684   -1.4231   -0.2420 C   0  0  0  0  0  0  0  0  0  0  0  0
   -0.6804   -2.7286    0.0719 Cl  0  0  0  0  0  0  0  0  0  0  0  0
   -1.4583   -0.4181   -1.1670 C   0  0  0  0  0  0  0  0  0  0  0  0
   -0.2738   -0.4600   -1.8600 O   0  0  0  0  0  0  0  0  0  0  0  0
    0.7576    0.2354   -1.1434 C   0  0  0  0  0  0  0  0  0  0  0  0
    2.0864   -0.1020   -1.8141 C   0  0  0  0  0  0  0  0  0  0  0  0
    3.2583    0.6985   -1.2561 C   0  0  0  0  0  0  0  0  0  0  0  0
    3.5254    0.4444    0.1431 N   0  0  0  0  0  0  0  0  0  0  0  0
    3.2442    1.2813    1.1859 C   0  0  0  0  0  0  0  0  0  0  0  0
    3.6887    0.6138    2.3034 C   0  0  0  0  0  0  0  0  0  0  0  0
    4.2372   -0.5950    1.9612 N   0  0  0  0  0  0  0  0  0  0  0  0
    4.1309   -0.6676    0.6536 C   0  0  0  0  0  0  0  0  0  0  0  0
   -2.4031    0.5778   -1.4377 C   0  0  0  0  0  0  0  0  0  0  0  0
   -2.0977    1.9142   -2.7519 Br  0  0  0  0  0  0  0  0  0  0  0  0
   -3.6204    0.6017   -0.7481 C   0  0  0  0  0  0  0  0  0  0  0  0
   -5.6187    0.6490    1.0279 H   0  0  0  0  0  0  0  0  0  0  0  0
   -5.1298   -0.7802    1.9372 H   0  0  0  0  0  0  0  0  0  0  0  0
   -5.9596   -0.9707    0.3723 H   0  0  0  0  0  0  0  0  0  0  0  0
   -3.2133   -2.1838    1.1641 H   0  0  0  0  0  0  0  0  0  0  0  0
    0.5761    1.3151   -1.1955 H   0  0  0  0  0  0  0  0  0  0  0  0
    0.7785   -0.0689   -0.0902 H   0  0  0  0  0  0  0  0  0  0  0  0
    2.0037    0.0903   -2.8913 H   0  0  0  0  0  0  0  0  0  0  0  0
    2.2736   -1.1791   -1.7188 H   0  0  0  0  0  0  0  0  0  0  0  0
    4.1751    0.4540   -1.8054 H   0  0  0  0  0  0  0  0  0  0  0  0
    3.0839    1.7739   -1.3773 H   0  0  0  0  0  0  0  0  0  0  0  0
    2.7701    2.2443    1.0596 H   0  0  0  0  0  0  0  0  0  0  0  0
    3.6463    0.9397    3.3346 H   0  0  0  0  0  0  0  0  0  0  0  0
    4.4680   -1.4928    0.0394 H   0  0  0  0  0  0  0  0  0  0  0  0
   -4.3505    1.3797   -0.9635 H   0  0  0  0  0  0  0  0  0  0  0  0
  1  2  1  0
  2  3  2  0
  3  4  1  0
  4  5  1  0
  4  6  2  0
  6  7  1  0
  7  8  1  0
  8  9  1  0
  9 10  1  0
 10 11  1  0
 11 12  1  0
 12 13  2  0
 13 14  1  0
 14 15  2  0
  6 16  1  0
 16 17  1  0
 16 18  2  0
 18  2  1  0
 15 11  1  0
  1 19  1  0
  1 20  1  0
  1 21  1  0
  3 22  1  0
  8 23  1  0
  8 24  1  0
  9 25  1  0
  9 26  1  0
 10 27  1  0
 10 28  1  0
 12 29  1  0
 13 30  1  0
 15 31  1  0
 18 32  1  0
M  END
$$$$
