
     RDKit          3D

 46 49  0  0  0  0  0  0  0  0999 V2000
    3.2619    1.8491    1.7437 O   0  0  0  0  0  0  0  0  0  0  0  0
    2.8768    1.9509    0.5808 C   0  0  0  0  0  0  0  0  0  0  0  0
    2.5336    3.3134   -0.0049 C   0  0  0  0  0  0  0  0  0  0  0  0
    0.7610    3.6714    0.2153 S   0  0  0  0  0  0  0  0  0  0  0  0
    0.0814    2.5720   -0.9307 C   0  0  0  0  0  0  0  0  0  0  0  0
    0.7014    2.1098   -1.9907 N   0  0  0  0  0  0  0  0  0  0  0  0
   -0.1256    1.2028   -2.5950 N   0  0  0  0  0  0  0  0  0  0  0  0
   -1.2439    1.1277   -1.8950 C   0  0  0  0  0  0  0  0  0  0  0  0
   -2.4104    0.2531   -2.2223 C   0  0  0  0  0  0  0  0  0  0  0  0
   -2.5498   -0.9337   -1.3108 C   0  0  0  0  0  0  0  0  0  0  0  0
   -3.5828   -1.2293   -0.4411 C   0  0  0  0  0  0  0  0  0  0  0  0
   -3.3682   -2.4484    0.2645 C   0  0  0  0  0  0  0  0  0  0  0  0
   -2.1855   -3.0510   -0.0982 C   0  0  0  0  0  0  0  0  0  0  0  0
   -1.3487   -2.1595   -1.2893 S   0  0  0  0  0  0  0  0  0  0  0  0
   -1.1503    1.9881   -0.8193 N   0  0  0  0  0  0  0  0  0  0  0  0
   -2.1345    2.2007    0.2247 C   0  0  0  0  0  0  0  0  0  0  0  0
   -1.9222    1.3105    1.3949 C   0  0  0  0  0  0  0  0  0  0  0  0
   -0.8858    0.5162    1.8464 C   0  0  0  0  0  0  0  0  0  0  0  0
   -1.3265   -0.0766    3.0519 C   0  0  0  0  0  0  0  0  0  0  0  0
   -2.6041    0.3845    3.2586 C   0  0  0  0  0  0  0  0  0  0  0  0
   -2.9751    1.2244    2.2599 O   0  0  0  0  0  0  0  0  0  0  0  0
    2.6853    0.9077   -0.3105 N   0  0  0  0  0  0  0  0  0  0  0  0
    2.8867   -0.4659   -0.0842 C   0  0  0  0  0  0  0  0  0  0  0  0
    2.4620   -1.3427   -1.0917 C   0  0  0  0  0  0  0  0  0  0  0  0
    2.6221   -2.7257   -0.9494 C   0  0  0  0  0  0  0  0  0  0  0  0
    3.2101   -3.2350    0.2047 C   0  0  0  0  0  0  0  0  0  0  0  0
    3.4231   -5.1034    0.4057 Br  0  0  0  0  0  0  0  0  0  0  0  0
    3.6393   -2.3754    1.2131 C   0  0  0  0  0  0  0  0  0  0  0  0
    3.4761   -0.9915    1.0678 C   0  0  0  0  0  0  0  0  0  0  0  0
    3.1130    4.0709    0.5318 H   0  0  0  0  0  0  0  0  0  0  0  0
    2.8256    3.3739   -1.0586 H   0  0  0  0  0  0  0  0  0  0  0  0
   -3.3298    0.8492   -2.2035 H   0  0  0  0  0  0  0  0  0  0  0  0
   -2.3095   -0.1025   -3.2555 H   0  0  0  0  0  0  0  0  0  0  0  0
   -4.4504   -0.5964   -0.3030 H   0  0  0  0  0  0  0  0  0  0  0  0
   -4.0451   -2.8590    1.0018 H   0  0  0  0  0  0  0  0  0  0  0  0
   -1.7707   -3.9759    0.2773 H   0  0  0  0  0  0  0  0  0  0  0  0
   -3.1282    2.0335   -0.2072 H   0  0  0  0  0  0  0  0  0  0  0  0
   -2.0979    3.2513    0.5276 H   0  0  0  0  0  0  0  0  0  0  0  0
    0.0763    0.3718    1.3706 H   0  0  0  0  0  0  0  0  0  0  0  0
   -0.7795   -0.7574    3.6896 H   0  0  0  0  0  0  0  0  0  0  0  0
   -3.3424    0.2193    4.0320 H   0  0  0  0  0  0  0  0  0  0  0  0
    2.2353    1.1446   -1.1996 H   0  0  0  0  0  0  0  0  0  0  0  0
    1.9875   -0.9627   -1.9966 H   0  0  0  0  0  0  0  0  0  0  0  0
    2.2810   -3.3874   -1.7421 H   0  0  0  0  0  0  0  0  0  0  0  0
    4.0972   -2.7658    2.1187 H   0  0  0  0  0  0  0  0  0  0  0  0
    3.8302   -0.3516    1.8697 H   0  0  0  0  0  0  0  0  0  0  0  0
  1  2  2  0
  2  3  1  0
  3  4  1  0
  4  5  1  0
  5  6  2  0
  6  7  1  0
  7  8  2  0
  8  9  1  0
  9 10  1  0
 10 11  2  0
 11 12  1  0
 12 13  2  0
 13 14  1  0
  8 15  1  0
 15 16  1  0
 16 17  1  0
 17 18  2  0
 18 19  1  0
 19 20  2  0
 20 21  1  0
  2 22  1  0
 22 23  1  0
 23 24  2  0
 24 25  1  0
 25 26  2  0
 26 27  1  0
 26 28  1  0
 28 29  2  0
 15  5  1  0
 21 17  1  0
 29 23  1  0
 14 10  1  0
  3 30  1  0
  3 31  1  0
  9 32  1  0
  9 33  1  0
 11 34  1  0
 12 35  1  0
 13 36  1  0
 16 37  1  0
 16 38  1  0
 18 39  1  0
 19 40  1  0
 20 41  1  0
 22 42  1  0
 24 43  1  0
 25 44  1  0
 28 45  1  0
 29 46  1  0
M  END
$$$$
