
     RDKit          3D

 56 61  0  0  0  0  0  0  0  0999 V2000
    6.1134    1.5429   -3.9362 C   0  0  0  0  0  0  0  0  0  0  0  0
    5.1085    1.0996   -2.9140 C   0  0  0  0  0  0  0  0  0  0  0  0
    3.9055    1.7876   -2.7550 C   0  0  0  0  0  0  0  0  0  0  0  0
    2.9835    1.3868   -1.7854 C   0  0  0  0  0  0  0  0  0  0  0  0
    3.2569    0.2926   -0.9614 C   0  0  0  0  0  0  0  0  0  0  0  0
    2.2020   -0.1537    0.1140 C   0  0  0  0  0  0  0  0  0  0  0  0
    1.0013    0.4837    0.4011 C   0  0  0  0  0  0  0  0  0  0  0  0
    0.3473   -0.2169    1.4128 N   0  0  0  0  0  4  0  0  0  0  0  0
   -0.9865    0.0724    1.9595 C   0  0  0  0  0  0  0  0  0  0  0  0
   -2.0325   -0.8105    1.2684 C   0  0  0  0  0  0  0  0  0  0  0  0
   -1.9201   -2.0355    1.2309 O   0  0  0  0  0  0  0  0  0  0  0  0
   -3.0288   -0.0748    0.6313 N   0  0  0  0  0  0  0  0  0  0  0  0
   -2.8837    0.2388   -0.7612 C   0  0  0  0  0  0  0  0  0  0  0  0
   -1.9430   -0.4775   -1.5345 C   0  0  0  0  0  0  0  0  0  0  0  0
   -1.7292   -0.1939   -2.8867 C   0  0  0  0  0  0  0  0  0  0  0  0
   -2.4528    0.8143   -3.4999 C   0  0  0  0  0  0  0  0  0  0  0  0
   -3.3956    1.5249   -2.7621 C   0  0  0  0  0  0  0  0  0  0  0  0
   -3.6218    1.2428   -1.4021 C   0  0  0  0  0  0  0  0  0  0  0  0
   -4.8049    2.2686   -0.5793 S   0  0  0  0  0  0  0  0  0  0  0  0
   -4.9977    1.4255    0.9615 C   0  0  0  0  0  0  0  0  0  0  0  0
   -6.0608    1.8541    1.7762 C   0  0  0  0  0  0  0  0  0  0  0  0
   -6.2868    1.2833    3.0238 C   0  0  0  0  0  0  0  0  0  0  0  0
   -5.4457    0.2774    3.4719 C   0  0  0  0  0  0  0  0  0  0  0  0
   -4.3836   -0.1496    2.6732 C   0  0  0  0  0  0  0  0  0  0  0  0
   -4.1320    0.4176    1.4040 C   0  0  0  0  0  0  0  0  0  0  0  0
    1.1085   -1.2573    1.7352 C   0  0  0  0  0  0  0  0  0  0  0  0
    2.2024   -1.2319    0.9809 N   0  0  0  0  0  0  0  0  0  0  0  0
    3.0851   -2.3560    1.2656 C   0  0  0  0  0  0  0  0  0  0  0  0
    2.2281   -3.2834    2.1703 C   0  0  0  0  0  0  0  0  0  0  0  0
    1.0727   -2.3952    2.6800 C   0  0  0  0  0  0  0  0  0  0  0  0
    4.4678   -0.3835   -1.1001 C   0  0  0  0  0  0  0  0  0  0  0  0
    5.3885    0.0212   -2.0695 C   0  0  0  0  0  0  0  0  0  0  0  0
    6.8482    2.2072   -3.4770 H   0  0  0  0  0  0  0  0  0  0  0  0
    5.6274    2.0752   -4.7617 H   0  0  0  0  0  0  0  0  0  0  0  0
    6.6334    0.6811   -4.3677 H   0  0  0  0  0  0  0  0  0  0  0  0
    3.6770    2.6426   -3.3861 H   0  0  0  0  0  0  0  0  0  0  0  0
    2.0578    1.9461   -1.7134 H   0  0  0  0  0  0  0  0  0  0  0  0
    0.5227    1.3614   -0.0026 H   0  0  0  0  0  0  0  0  0  0  0  0
   -1.1991    1.1409    1.8147 H   0  0  0  0  0  0  0  0  0  0  0  0
   -0.9941   -0.1391    3.0366 H   0  0  0  0  0  0  0  0  0  0  0  0
   -1.3854   -1.3106   -1.1162 H   0  0  0  0  0  0  0  0  0  0  0  0
   -1.0153   -0.7743   -3.4690 H   0  0  0  0  0  0  0  0  0  0  0  0
   -2.3075    1.0391   -4.5557 H   0  0  0  0  0  0  0  0  0  0  0  0
   -3.9626    2.3075   -3.2637 H   0  0  0  0  0  0  0  0  0  0  0  0
   -6.7265    2.6441    1.4358 H   0  0  0  0  0  0  0  0  0  0  0  0
   -7.1208    1.6153    3.6369 H   0  0  0  0  0  0  0  0  0  0  0  0
   -5.6320   -0.1918    4.4352 H   0  0  0  0  0  0  0  0  0  0  0  0
   -3.7940   -0.9794    3.0538 H   0  0  0  0  0  0  0  0  0  0  0  0
    3.3754   -2.8708    0.3435 H   0  0  0  0  0  0  0  0  0  0  0  0
    3.9650   -1.9863    1.8005 H   0  0  0  0  0  0  0  0  0  0  0  0
    1.8174   -4.0983    1.5603 H   0  0  0  0  0  0  0  0  0  0  0  0
    2.8062   -3.7324    2.9848 H   0  0  0  0  0  0  0  0  0  0  0  0
    1.2661   -1.9816    3.6716 H   0  0  0  0  0  0  0  0  0  0  0  0
    0.1026   -2.8852    2.6249 H   0  0  0  0  0  0  0  0  0  0  0  0
    4.7387   -1.2160   -0.4656 H   0  0  0  0  0  0  0  0  0  0  0  0
    6.3333   -0.5091   -2.1628 H   0  0  0  0  0  0  0  0  0  0  0  0
  1  2  1  0
  2  3  2  0
  3  4  1  0
  4  5  2  0
  5  6  1  0
  6  7  2  0
  7  8  1  0
  8  9  1  0
  9 10  1  0
 10 11  2  0
 10 12  1  0
 12 13  1  0
 13 14  2  0
 14 15  1  0
 15 16  2  0
 16 17  1  0
 17 18  2  0
 18 19  1  0
 19 20  1  0
 20 21  2  0
 21 22  1  0
 22 23  2  0
 23 24  1  0
 24 25  2  0
  8 26  2  0
 26 27  1  0
 27 28  1  0
 28 29  1  0
 29 30  1  0
  5 31  1  0
 31 32  2  0
 32  2  1  0
 27  6  1  0
 25 12  1  0
 30 26  1  0
 18 13  1  0
 25 20  1  0
  1 33  1  0
  1 34  1  0
  1 35  1  0
  3 36  1  0
  4 37  1  0
  7 38  1  0
  9 39  1  0
  9 40  1  0
 14 41  1  0
 15 42  1  0
 16 43  1  0
 17 44  1  0
 21 45  1  0
 22 46  1  0
 23 47  1  0
 24 48  1  0
 28 49  1  0
 28 50  1  0
 29 51  1  0
 29 52  1  0
 30 53  1  0
 30 54  1  0
 31 55  1  0
 32 56  1  0
M  CHG  1   8   1
M  END
$$$$
