
     RDKit          3D

 56 59  0  0  0  0  0  0  0  0999 V2000
    6.6172   -3.0729    3.0895 C   0  0  0  0  0  0  0  0  0  0  0  0
    5.5635   -3.2137    2.1437 O   0  0  0  0  0  0  0  0  0  0  0  0
    5.3053   -2.1388    1.3389 C   0  0  0  0  0  0  0  0  0  0  0  0
    4.2116   -2.3034    0.4820 C   0  0  0  0  0  0  0  0  0  0  0  0
    3.8346   -1.2868   -0.3972 C   0  0  0  0  0  0  0  0  0  0  0  0
    4.5607   -0.0946   -0.4130 C   0  0  0  0  0  0  0  0  0  0  0  0
    4.0714    1.1955   -1.5264 S   0  0  0  0  0  6  0  0  0  0  0  0
    3.9117    0.6076   -2.8382 O   0  0  0  0  0  0  0  0  0  0  0  0
    4.9270    2.3447   -1.3151 O   0  0  0  0  0  0  0  0  0  0  0  0
    2.5381    1.6078   -0.9556 N   0  0  0  0  0  0  0  0  0  0  0  0
    2.4519    2.2264    0.3836 C   0  0  0  0  0  0  0  0  0  0  0  0
    1.9595    3.6272    0.1000 C   0  0  0  0  0  0  0  0  0  0  0  0
    1.1143    3.4602   -1.0385 O   0  0  0  0  0  0  0  0  0  0  0  0
    1.7917    2.5077   -1.8763 C   0  0  0  0  0  0  0  0  0  0  0  0
    0.7720    1.7053   -2.7128 C   0  0  0  0  0  0  0  0  0  0  0  0
   -0.0575    0.8342   -1.8911 N   0  0  0  0  0  0  0  0  0  0  0  0
   -1.2493    1.2643   -1.3560 C   0  0  0  0  0  0  0  0  0  0  0  0
   -1.8990    2.2387   -1.7062 O   0  0  0  0  0  0  0  0  0  0  0  0
   -1.7495    0.3822   -0.1888 C   0  0  0  0  0  0  0  0  0  0  0  0
   -1.0723   -0.5589    0.2027 O   0  0  0  0  0  0  0  0  0  0  0  0
   -2.9606    0.7829    0.3183 N   0  0  0  0  0  0  0  0  0  0  0  0
   -3.6581    0.0547    1.3444 C   0  0  0  0  0  0  0  0  0  0  0  0
   -4.8438   -0.6758    0.7681 C   0  0  0  0  0  0  0  0  0  0  0  0
   -4.6682   -1.9379    0.1519 C   0  0  0  0  0  0  0  0  0  0  0  0
   -5.7521   -2.6244   -0.4061 C   0  0  0  0  0  0  0  0  0  0  0  0
   -6.9917   -2.0267   -0.3398 C   0  0  0  0  0  0  0  0  0  0  0  0
   -7.1709   -0.7958    0.2468 C   0  0  0  0  0  0  0  0  0  0  0  0
   -6.1223   -0.0941    0.8046 C   0  0  0  0  0  0  0  0  0  0  0  0
   -8.4667   -0.3830    0.2030 O   0  0  0  0  0  0  0  0  0  0  0  0
   -9.0819   -1.4960   -0.4793 C   0  0  0  0  0  0  0  0  0  0  0  0
   -8.1521   -2.5440   -0.8258 O   0  0  0  0  0  0  0  0  0  0  0  0
    5.6599    0.0817    0.4306 C   0  0  0  0  0  0  0  0  0  0  0  0
    6.0296   -0.9435    1.3079 C   0  0  0  0  0  0  0  0  0  0  0  0
    7.5799   -2.9104    2.5912 H   0  0  0  0  0  0  0  0  0  0  0  0
    6.6885   -4.0085    3.6529 H   0  0  0  0  0  0  0  0  0  0  0  0
    6.3986   -2.2699    3.8033 H   0  0  0  0  0  0  0  0  0  0  0  0
    3.6460   -3.2319    0.5039 H   0  0  0  0  0  0  0  0  0  0  0  0
    2.9847   -1.4315   -1.0599 H   0  0  0  0  0  0  0  0  0  0  0  0
    3.3874    2.2284    0.9471 H   0  0  0  0  0  0  0  0  0  0  0  0
    1.7091    1.6622    0.9589 H   0  0  0  0  0  0  0  0  0  0  0  0
    1.3946    4.0557    0.9320 H   0  0  0  0  0  0  0  0  0  0  0  0
    2.7795    4.3042   -0.1653 H   0  0  0  0  0  0  0  0  0  0  0  0
    2.4589    3.0738   -2.5370 H   0  0  0  0  0  0  0  0  0  0  0  0
    0.1233    2.3916   -3.2671 H   0  0  0  0  0  0  0  0  0  0  0  0
    1.2903    1.0556   -3.4240 H   0  0  0  0  0  0  0  0  0  0  0  0
    0.4062    0.0886   -1.3781 H   0  0  0  0  0  0  0  0  0  0  0  0
   -3.4222    1.5503   -0.1632 H   0  0  0  0  0  0  0  0  0  0  0  0
   -2.9865   -0.6511    1.8474 H   0  0  0  0  0  0  0  0  0  0  0  0
   -3.9850    0.7817    2.0967 H   0  0  0  0  0  0  0  0  0  0  0  0
   -3.6751   -2.3844    0.1055 H   0  0  0  0  0  0  0  0  0  0  0  0
   -5.6228   -3.5923   -0.8782 H   0  0  0  0  0  0  0  0  0  0  0  0
   -6.2943    0.8780    1.2554 H   0  0  0  0  0  0  0  0  0  0  0  0
   -9.8593   -1.9170    0.1682 H   0  0  0  0  0  0  0  0  0  0  0  0
   -9.5523   -1.1273   -1.3978 H   0  0  0  0  0  0  0  0  0  0  0  0
    6.2360    1.0042    0.4105 H   0  0  0  0  0  0  0  0  0  0  0  0
    6.8905   -0.7817    1.9477 H   0  0  0  0  0  0  0  0  0  0  0  0
  1  2  1  0
  2  3  1  0
  3  4  2  0
  4  5  1  0
  5  6  2  0
  6  7  1  0
  7  8  2  0
  7  9  2  0
  7 10  1  0
 10 11  1  0
 11 12  1  0
 12 13  1  0
 13 14  1  0
 14 15  1  0
 15 16  1  0
 16 17  1  0
 17 18  2  0
 17 19  1  0
 19 20  2  0
 19 21  1  0
 21 22  1  0
 22 23  1  0
 23 24  2  0
 24 25  1  0
 25 26  2  0
 26 27  1  0
 27 28  2  0
 27 29  1  0
 29 30  1  0
 30 31  1  0
  6 32  1  0
 32 33  2  0
 33  3  1  0
 14 10  1  0
 28 23  1  0
 31 26  1  0
  1 34  1  0
  1 35  1  0
  1 36  1  0
  4 37  1  0
  5 38  1  0
 11 39  1  0
 11 40  1  0
 12 41  1  0
 12 42  1  0
 14 43  1  0
 15 44  1  0
 15 45  1  0
 16 46  1  0
 21 47  1  0
 22 48  1  0
 22 49  1  0
 24 50  1  0
 25 51  1  0
 28 52  1  0
 30 53  1  0
 30 54  1  0
 32 55  1  0
 33 56  1  0
M  END
$$$$
