
     RDKit          3D

 59 62  0  0  0  0  0  0  0  0999 V2000
    5.0766    1.0729    5.1136 C   0  0  0  0  0  0  0  0  0  0  0  0
    4.2335    0.1678    4.2324 C   0  0  0  0  0  0  0  0  0  0  0  0
    4.6599    0.3440    2.8828 O   0  0  0  0  0  0  0  0  0  0  0  0
    3.9495   -0.3111    1.9171 C   0  0  0  0  0  0  0  0  0  0  0  0
    3.0495   -1.3537    2.1352 C   0  0  0  0  0  0  0  0  0  0  0  0
    2.3940   -1.9666    1.0580 C   0  0  0  0  0  0  0  0  0  0  0  0
    2.6314   -1.5352   -0.2460 C   0  0  0  0  0  0  0  0  0  0  0  0
    2.0478   -2.0490   -1.3775 O   0  0  0  0  0  0  0  0  0  0  0  0
    1.1416   -3.1373   -1.2061 C   0  0  0  0  0  0  0  0  0  0  0  0
    0.6469   -3.5516   -2.5809 C   0  0  0  0  0  0  0  0  0  0  0  0
    3.5307   -0.4759   -0.4582 C   0  0  0  0  0  0  0  0  0  0  0  0
    3.7114    0.0226   -1.7907 N   0  0  0  0  0  0  0  0  0  0  0  0
    2.9961    1.5141   -2.1644 S   0  0  0  0  0  6  0  0  0  0  0  0
    3.0376    1.6347   -3.6074 O   0  0  0  0  0  0  0  0  0  0  0  0
    3.5537    2.5441   -1.3147 O   0  0  0  0  0  0  0  0  0  0  0  0
    1.2891    1.2840   -1.7051 C   0  0  0  0  0  0  0  0  0  0  0  0
    0.8474    1.7019   -0.4377 C   0  0  0  0  0  0  0  0  0  0  0  0
   -0.4871    1.5135   -0.0620 C   0  0  0  0  0  0  0  0  0  0  0  0
   -1.3570    0.9241   -0.9663 C   0  0  0  0  0  0  0  0  0  0  0  0
   -0.9150    0.5391   -2.2353 C   0  0  0  0  0  0  0  0  0  0  0  0
    0.4040    0.7161   -2.6274 C   0  0  0  0  0  0  0  0  0  0  0  0
   -2.0290   -0.0259   -3.0549 C   0  0  0  0  0  0  0  0  0  0  0  0
   -3.1910   -0.0284   -2.0547 C   0  0  0  0  0  0  0  0  0  0  0  0
   -2.7252    0.6260   -0.8211 N   0  0  0  0  0  0  0  0  0  0  0  0
   -3.5032    0.8662    0.3087 C   0  0  0  0  0  0  0  0  0  0  0  0
   -3.0513    1.3707    1.3436 O   0  0  0  0  0  0  0  0  0  0  0  0
   -5.0045    0.4488    0.1902 C   0  0  0  0  0  0  0  0  0  0  0  0
   -5.9684    1.4700   -0.4764 C   0  0  0  0  0  0  0  0  0  0  0  0
   -6.3541    1.9496    0.9339 C   0  0  0  0  0  0  0  0  0  0  0  0
   -5.8953    0.5780    1.4588 C   0  0  0  0  0  0  0  0  0  0  0  0
    4.1888    0.1262    0.6134 C   0  0  0  0  0  0  0  0  0  0  0  0
    6.1326    0.7880    5.0537 H   0  0  0  0  0  0  0  0  0  0  0  0
    5.0091    2.1139    4.7816 H   0  0  0  0  0  0  0  0  0  0  0  0
    4.7559    1.0111    6.1559 H   0  0  0  0  0  0  0  0  0  0  0  0
    3.1777    0.4441    4.3353 H   0  0  0  0  0  0  0  0  0  0  0  0
    4.3805   -0.8706    4.5469 H   0  0  0  0  0  0  0  0  0  0  0  0
    2.8402   -1.7228    3.1337 H   0  0  0  0  0  0  0  0  0  0  0  0
    1.7010   -2.7711    1.2790 H   0  0  0  0  0  0  0  0  0  0  0  0
    1.6565   -3.9863   -0.7417 H   0  0  0  0  0  0  0  0  0  0  0  0
    0.2861   -2.8296   -0.5937 H   0  0  0  0  0  0  0  0  0  0  0  0
   -0.0180   -4.4178   -2.5123 H   0  0  0  0  0  0  0  0  0  0  0  0
    0.1039   -2.7286   -3.0585 H   0  0  0  0  0  0  0  0  0  0  0  0
    1.4893   -3.8001   -3.2358 H   0  0  0  0  0  0  0  0  0  0  0  0
    3.4709   -0.6637   -2.5081 H   0  0  0  0  0  0  0  0  0  0  0  0
    1.5392    2.1653    0.2639 H   0  0  0  0  0  0  0  0  0  0  0  0
   -0.8113    1.8335    0.9226 H   0  0  0  0  0  0  0  0  0  0  0  0
    0.7366    0.4203   -3.6180 H   0  0  0  0  0  0  0  0  0  0  0  0
   -1.8060   -1.0385   -3.4051 H   0  0  0  0  0  0  0  0  0  0  0  0
   -2.2489    0.6197   -3.9123 H   0  0  0  0  0  0  0  0  0  0  0  0
   -4.0644    0.5003   -2.4506 H   0  0  0  0  0  0  0  0  0  0  0  0
   -3.4920   -1.0542   -1.8096 H   0  0  0  0  0  0  0  0  0  0  0  0
   -5.0992   -0.5598   -0.2332 H   0  0  0  0  0  0  0  0  0  0  0  0
   -5.5076    2.2301   -1.1137 H   0  0  0  0  0  0  0  0  0  0  0  0
   -6.7914    0.9989   -1.0266 H   0  0  0  0  0  0  0  0  0  0  0  0
   -5.7460    2.7868    1.2963 H   0  0  0  0  0  0  0  0  0  0  0  0
   -7.4103    2.1869    1.0838 H   0  0  0  0  0  0  0  0  0  0  0  0
   -5.3801    0.5909    2.4225 H   0  0  0  0  0  0  0  0  0  0  0  0
   -6.6983   -0.1677    1.5041 H   0  0  0  0  0  0  0  0  0  0  0  0
    4.8858    0.9412    0.4392 H   0  0  0  0  0  0  0  0  0  0  0  0
  1  2  1  0
  2  3  1  0
  3  4  1  0
  4  5  2  0
  5  6  1  0
  6  7  2  0
  7  8  1  0
  8  9  1  0
  9 10  1  0
  7 11  1  0
 11 12  1  0
 12 13  1  0
 13 14  2  0
 13 15  2  0
 13 16  1  0
 16 17  2  0
 17 18  1  0
 18 19  2  0
 19 20  1  0
 20 21  2  0
 20 22  1  0
 22 23  1  0
 23 24  1  0
 24 25  1  0
 25 26  2  0
 25 27  1  0
 27 28  1  0
 28 29  1  0
 29 30  1  0
 11 31  2  0
 31  4  1  0
 21 16  1  0
 30 27  1  0
 24 19  1  0
  1 32  1  0
  1 33  1  0
  1 34  1  0
  2 35  1  0
  2 36  1  0
  5 37  1  0
  6 38  1  0
  9 39  1  0
  9 40  1  0
 10 41  1  0
 10 42  1  0
 10 43  1  0
 12 44  1  0
 17 45  1  0
 18 46  1  0
 21 47  1  0
 22 48  1  0
 22 49  1  0
 23 50  1  0
 23 51  1  0
 27 52  1  0
 28 53  1  0
 28 54  1  0
 29 55  1  0
 29 56  1  0
 30 57  1  0
 30 58  1  0
 31 59  1  0
M  END
$$$$
