
     RDKit          3D

 40 42  0  0  0  0  0  0  0  0999 V2000
   -2.3278    4.0296    3.3213 C   0  0  0  0  0  0  0  0  0  0  0  0
   -1.6733    3.2322    2.3413 O   0  0  0  0  0  0  0  0  0  0  0  0
   -1.9046    1.8828    2.3878 C   0  0  0  0  0  0  0  0  0  0  0  0
   -2.7010    1.2212    3.3173 C   0  0  0  0  0  0  0  0  0  0  0  0
   -2.8735   -0.1678    3.2609 C   0  0  0  0  0  0  0  0  0  0  0  0
   -2.2160   -0.8817    2.2470 C   0  0  0  0  0  0  0  0  0  0  0  0
   -1.3926   -0.2511    1.3081 C   0  0  0  0  0  0  0  0  0  0  0  0
   -1.2550    1.1531    1.3836 C   0  0  0  0  0  0  0  0  0  0  0  0
   -0.8846   -1.2715    0.4447 C   0  0  0  0  0  0  0  0  0  0  0  0
    0.0038   -1.1686   -0.6693 C   0  0  0  0  0  0  0  0  0  0  0  0
    1.0290   -0.3048   -0.7605 C   0  0  0  0  0  0  0  0  0  0  0  0
    1.9286   -0.2046   -1.9143 C   0  0  0  0  0  0  0  0  0  0  0  0
    2.3672    1.0548   -2.3197 C   0  0  0  0  0  0  0  0  0  0  0  0
    3.2395    1.1692   -3.3960 C   0  0  0  0  0  0  0  0  0  0  0  0
    3.6815    0.0681   -4.0431 N   0  0  0  0  0  4  0  0  0  0  0  0
    4.5969    0.2145   -5.1873 C   0  0  0  0  0  0  0  0  0  0  0  0
    3.2776   -1.1643   -3.6626 C   0  0  0  0  0  0  0  0  0  0  0  0
    2.4039   -1.3254   -2.5929 C   0  0  0  0  0  0  0  0  0  0  0  0
   -1.4325   -2.4698    0.8485 C   0  0  0  0  0  0  0  0  0  0  0  0
   -2.2189   -2.2271    1.9440 N   0  0  0  0  0  0  0  0  0  0  0  0
   -2.9558   -3.2382    2.6704 C   0  0  0  0  0  0  0  0  0  0  0  0
   -3.4163    3.9536    3.2299 H   0  0  0  0  0  0  0  0  0  0  0  0
   -1.9947    3.7660    4.3306 H   0  0  0  0  0  0  0  0  0  0  0  0
   -2.0509    5.0730    3.1417 H   0  0  0  0  0  0  0  0  0  0  0  0
   -3.2171    1.7569    4.1079 H   0  0  0  0  0  0  0  0  0  0  0  0
   -3.5070   -0.6687    3.9868 H   0  0  0  0  0  0  0  0  0  0  0  0
   -0.6526    1.6859    0.6558 H   0  0  0  0  0  0  0  0  0  0  0  0
   -0.1837   -1.8685   -1.4807 H   0  0  0  0  0  0  0  0  0  0  0  0
    1.2304    0.3840    0.0578 H   0  0  0  0  0  0  0  0  0  0  0  0
    2.0244    1.9537   -1.8094 H   0  0  0  0  0  0  0  0  0  0  0  0
    3.5887    2.1366   -3.7459 H   0  0  0  0  0  0  0  0  0  0  0  0
    5.2393   -0.6678   -5.2482 H   0  0  0  0  0  0  0  0  0  0  0  0
    3.9835    0.3127   -6.0863 H   0  0  0  0  0  0  0  0  0  0  0  0
    5.2166    1.1027   -5.0391 H   0  0  0  0  0  0  0  0  0  0  0  0
    3.6611   -2.0160   -4.2175 H   0  0  0  0  0  0  0  0  0  0  0  0
    2.1092   -2.3286   -2.2915 H   0  0  0  0  0  0  0  0  0  0  0  0
   -1.3173   -3.4733    0.4596 H   0  0  0  0  0  0  0  0  0  0  0  0
   -2.6081   -3.2413    3.7066 H   0  0  0  0  0  0  0  0  0  0  0  0
   -4.0200   -2.9944    2.6183 H   0  0  0  0  0  0  0  0  0  0  0  0
   -2.7779   -4.2171    2.2180 H   0  0  0  0  0  0  0  0  0  0  0  0
  1  2  1  0
  2  3  1  0
  3  4  2  0
  4  5  1  0
  5  6  2  0
  6  7  1  0
  7  8  2  0
  7  9  1  0
  9 10  1  0
 10 11  2  3
 11 12  1  0
 12 13  2  0
 13 14  1  0
 14 15  2  0
 15 16  1  0
 15 17  1  0
 17 18  2  0
  9 19  2  0
 19 20  1  0
 20 21  1  0
  8  3  1  0
 18 12  1  0
 20  6  1  0
  1 22  1  0
  1 23  1  0
  1 24  1  0
  4 25  1  0
  5 26  1  0
  8 27  1  0
 10 28  1  0
 11 29  1  0
 13 30  1  0
 14 31  1  0
 16 32  1  0
 16 33  1  0
 16 34  1  0
 17 35  1  0
 18 36  1  0
 19 37  1  0
 21 38  1  0
 21 39  1  0
 21 40  1  0
M  CHG  1  15   1
M  END
$$$$
