
     RDKit          3D

 36 37  0  0  0  0  0  0  0  0999 V2000
    7.6656   -0.1456    0.1482 C   0  0  0  0  0  0  0  0  0  0  0  0
    6.2313   -0.5590   -0.0704 C   0  0  0  0  0  0  0  0  0  0  0  0
    5.9614   -1.5845   -0.6851 O   0  0  0  0  0  0  0  0  0  0  0  0
    5.3360    0.3509    0.4629 N   0  0  0  0  0  0  0  0  0  0  0  0
    3.9281    0.2806    0.4445 C   0  0  0  0  0  0  0  0  0  0  0  0
    3.2274    1.3437    1.0279 C   0  0  0  0  0  0  0  0  0  0  0  0
    1.8289    1.3504    1.0502 C   0  0  0  0  0  0  0  0  0  0  0  0
    1.1096    0.2949    0.4806 C   0  0  0  0  0  0  0  0  0  0  0  0
   -0.3803    0.3405    0.5267 C   0  0  0  0  0  0  0  0  0  0  0  0
   -0.9251    0.9677    1.4302 O   0  0  0  0  0  0  0  0  0  0  0  0
   -1.0221   -0.3211   -0.5163 N   0  0  0  0  0  0  0  0  0  0  0  0
   -2.3733   -0.2901   -0.7543 N   0  0  0  0  0  0  0  0  0  0  0  0
   -3.1683   -0.2957    0.2691 C   0  0  0  0  0  0  0  0  0  0  0  0
   -4.6355   -0.2151    0.1098 C   0  0  0  0  0  0  0  0  0  0  0  0
   -5.2191   -0.1341   -1.1605 C   0  0  0  0  0  0  0  0  0  0  0  0
   -6.6078   -0.0603   -1.2811 C   0  0  0  0  0  0  0  0  0  0  0  0
   -7.3972   -0.0670   -0.1357 C   0  0  0  0  0  0  0  0  0  0  0  0
   -8.7294    0.0039   -0.2532 F   0  0  0  0  0  0  0  0  0  0  0  0
   -6.8257   -0.1454    1.1308 C   0  0  0  0  0  0  0  0  0  0  0  0
   -5.4372   -0.2196    1.2575 C   0  0  0  0  0  0  0  0  0  0  0  0
    1.8045   -0.7785   -0.0867 C   0  0  0  0  0  0  0  0  0  0  0  0
    3.2058   -0.7802   -0.1066 C   0  0  0  0  0  0  0  0  0  0  0  0
    7.7914    0.3348    1.1228 H   0  0  0  0  0  0  0  0  0  0  0  0
    7.9678    0.5445   -0.6438 H   0  0  0  0  0  0  0  0  0  0  0  0
    8.3063   -1.0318    0.1229 H   0  0  0  0  0  0  0  0  0  0  0  0
    5.7325    1.1700    0.9066 H   0  0  0  0  0  0  0  0  0  0  0  0
    3.7546    2.1825    1.4755 H   0  0  0  0  0  0  0  0  0  0  0  0
    1.3021    2.1842    1.5113 H   0  0  0  0  0  0  0  0  0  0  0  0
   -0.4809   -0.5084   -1.3550 H   0  0  0  0  0  0  0  0  0  0  0  0
   -2.8042   -0.3903    1.3065 H   0  0  0  0  0  0  0  0  0  0  0  0
   -4.5991   -0.1270   -2.0538 H   0  0  0  0  0  0  0  0  0  0  0  0
   -7.0766    0.0033   -2.2579 H   0  0  0  0  0  0  0  0  0  0  0  0
   -7.4644   -0.1461    2.0085 H   0  0  0  0  0  0  0  0  0  0  0  0
   -4.9921   -0.2761    2.2478 H   0  0  0  0  0  0  0  0  0  0  0  0
    1.2818   -1.6395   -0.4954 H   0  0  0  0  0  0  0  0  0  0  0  0
    3.7033   -1.6364   -0.5529 H   0  0  0  0  0  0  0  0  0  0  0  0
  1  2  1  0
  2  3  2  0
  2  4  1  0
  4  5  1  0
  5  6  2  0
  6  7  1  0
  7  8  2  0
  8  9  1  0
  9 10  2  0
  9 11  1  0
 11 12  1  0
 12 13  2  3
 13 14  1  0
 14 15  2  0
 15 16  1  0
 16 17  2  0
 17 18  1  0
 17 19  1  0
 19 20  2  0
  8 21  1  0
 21 22  2  0
 22  5  1  0
 20 14  1  0
  1 23  1  0
  1 24  1  0
  1 25  1  0
  4 26  1  0
  6 27  1  0
  7 28  1  0
 11 29  1  0
 13 30  1  0
 15 31  1  0
 16 32  1  0
 19 33  1  0
 20 34  1  0
 21 35  1  0
 22 36  1  0
M  END
$$$$
