
     RDKit          3D

 42 44  0  0  0  0  0  0  0  0999 V2000
   -0.4911   -2.9467   -1.1156 C   0  0  0  0  0  0  0  0  0  0  0  0
   -0.7408   -1.7343   -0.2779 C   0  0  0  0  0  0  0  0  0  0  0  0
    0.1535   -0.9144    0.3003 C   0  0  0  0  0  0  0  0  0  0  0  0
    1.5178   -0.8883    0.4207 N   0  0  0  0  0  0  0  0  0  0  0  0
    2.4330   -1.8888    0.1737 C   0  0  0  0  0  0  0  0  0  0  0  0
    2.1580   -3.0447   -0.1396 O   0  0  0  0  0  0  0  0  0  0  0  0
    3.8734   -1.4900    0.4080 C   0  0  0  0  0  0  0  0  0  0  0  0
    4.2363   -0.3118   -0.3555 N   0  0  0  0  0  0  0  0  0  0  0  0
    4.7936   -0.2767   -1.6025 C   0  0  0  0  0  0  0  0  0  0  0  0
    4.9639    1.0545   -1.9094 C   0  0  0  0  0  0  0  0  0  0  0  0
    4.4814    1.7481   -0.7767 C   0  0  0  0  0  0  0  0  0  0  0  0
    4.4334    3.1828   -0.5527 N   0  0  0  0  0  4  0  0  0  0  0  0
    4.8186    3.8936   -1.4941 O   0  0  0  0  0  0  0  0  0  0  0  0
    4.0310    3.5993    0.5426 O   0  0  0  0  0  1  0  0  0  0  0  0
    4.0263    0.9111    0.1752 N   0  0  0  0  0  0  0  0  0  0  0  0
   -0.6506    0.2054    0.8908 C   0  0  0  0  0  0  0  0  0  0  0  0
   -0.1215    1.1569    1.4466 O   0  0  0  0  0  0  0  0  0  0  0  0
   -1.9897   -0.0690    0.6093 N   0  0  0  0  0  0  0  0  0  0  0  0
   -3.0348    0.8887    0.5426 C   0  0  0  0  0  0  0  0  0  0  0  0
   -2.9834    2.0632    1.3060 C   0  0  0  0  0  0  0  0  0  0  0  0
   -4.0130    3.0086    1.2457 C   0  0  0  0  0  0  0  0  0  0  0  0
   -5.1097    2.7965    0.4158 C   0  0  0  0  0  0  0  0  0  0  0  0
   -5.1756    1.6413   -0.3567 C   0  0  0  0  0  0  0  0  0  0  0  0
   -4.1457    0.6970   -0.2939 C   0  0  0  0  0  0  0  0  0  0  0  0
   -2.0723   -1.3147   -0.0776 N   0  0  0  0  0  0  0  0  0  0  0  0
   -2.9870   -2.2753    0.5704 C   0  0  0  0  0  0  0  0  0  0  0  0
    0.3853   -2.8195   -1.7570 H   0  0  0  0  0  0  0  0  0  0  0  0
   -0.3704   -3.8347   -0.4883 H   0  0  0  0  0  0  0  0  0  0  0  0
   -1.3321   -3.1275   -1.7948 H   0  0  0  0  0  0  0  0  0  0  0  0
    1.8730   -0.0172    0.8277 H   0  0  0  0  0  0  0  0  0  0  0  0
    4.5380   -2.3040    0.0999 H   0  0  0  0  0  0  0  0  0  0  0  0
    4.0387   -1.2855    1.4708 H   0  0  0  0  0  0  0  0  0  0  0  0
    5.0155   -1.1794   -2.1570 H   0  0  0  0  0  0  0  0  0  0  0  0
    5.3797    1.4727   -2.8161 H   0  0  0  0  0  0  0  0  0  0  0  0
   -2.1508    2.2618    1.9763 H   0  0  0  0  0  0  0  0  0  0  0  0
   -3.9522    3.9108    1.8493 H   0  0  0  0  0  0  0  0  0  0  0  0
   -5.9068    3.5335    0.3666 H   0  0  0  0  0  0  0  0  0  0  0  0
   -6.0225    1.4765   -1.0177 H   0  0  0  0  0  0  0  0  0  0  0  0
   -4.2117   -0.1761   -0.9370 H   0  0  0  0  0  0  0  0  0  0  0  0
   -3.9839   -1.8523    0.7223 H   0  0  0  0  0  0  0  0  0  0  0  0
   -2.5974   -2.5853    1.5470 H   0  0  0  0  0  0  0  0  0  0  0  0
   -3.1075   -3.1662   -0.0548 H   0  0  0  0  0  0  0  0  0  0  0  0
  1  2  1  0
  2  3  2  0
  3  4  1  0
  4  5  1  0
  5  6  2  0
  5  7  1  0
  7  8  1  0
  8  9  1  0
  9 10  2  0
 10 11  1  0
 11 12  1  0
 12 13  2  0
 12 14  1  0
 11 15  2  0
  3 16  1  0
 16 17  2  0
 16 18  1  0
 18 19  1  0
 19 20  2  0
 20 21  1  0
 21 22  2  0
 22 23  1  0
 23 24  2  0
 18 25  1  0
 25 26  1  0
 25  2  1  0
 15  8  1  0
 24 19  1  0
  1 27  1  0
  1 28  1  0
  1 29  1  0
  4 30  1  0
  7 31  1  0
  7 32  1  0
  9 33  1  0
 10 34  1  0
 20 35  1  0
 21 36  1  0
 22 37  1  0
 23 38  1  0
 24 39  1  0
 26 40  1  0
 26 41  1  0
 26 42  1  0
M  CHG  2  12   1  14  -1
M  END
$$$$
