
     RDKit          3D

 43 46  0  0  0  0  0  0  0  0999 V2000
    0.7451   -1.4280    2.9330 O   0  0  0  0  0  0  0  0  0  0  0  0
    1.8258   -1.5182    2.3468 C   0  0  0  0  0  0  0  0  0  0  0  0
    2.1778   -2.7023    1.4567 C   0  0  0  0  0  0  0  0  0  0  0  0
    0.7955   -3.0985    0.3392 S   0  0  0  0  0  0  0  0  0  0  0  0
    0.5918   -1.5460   -0.3908 C   0  0  0  0  0  0  0  0  0  0  0  0
    1.5613   -0.8381   -0.9163 N   0  0  0  0  0  0  0  0  0  0  0  0
    1.0369    0.3788   -1.2695 N   0  0  0  0  0  0  0  0  0  0  0  0
   -0.2399    0.4014   -0.9289 C   0  0  0  0  0  0  0  0  0  0  0  0
   -1.1436    1.5224   -1.1272 C   0  0  0  0  0  0  0  0  0  0  0  0
   -1.4615    1.9636   -2.4130 C   0  0  0  0  0  0  0  0  0  0  0  0
   -2.3527    3.0222   -2.5791 C   0  0  0  0  0  0  0  0  0  0  0  0
   -2.8911    3.6128   -1.4468 C   0  0  0  0  0  0  0  0  0  0  0  0
   -2.5940    3.2255   -0.1868 N   0  0  0  0  0  0  0  0  0  0  0  0
   -1.7141    2.2045   -0.0572 C   0  0  0  0  0  0  0  0  0  0  0  0
   -0.5699   -0.8253   -0.3829 N   0  0  0  0  0  0  0  0  0  0  0  0
   -1.8644   -1.2329    0.1285 C   0  0  0  0  0  0  0  0  0  0  0  0
   -2.7967   -1.5471   -0.9817 C   0  0  0  0  0  0  0  0  0  0  0  0
   -3.8502   -0.8676   -1.5615 C   0  0  0  0  0  0  0  0  0  0  0  0
   -4.3486   -1.7072   -2.5868 C   0  0  0  0  0  0  0  0  0  0  0  0
   -3.5782   -2.8460   -2.5596 C   0  0  0  0  0  0  0  0  0  0  0  0
   -2.6356   -2.7584   -1.5868 O   0  0  0  0  0  0  0  0  0  0  0  0
    2.8313   -0.4384    2.5649 C   0  0  0  0  0  0  0  0  0  0  0  0
    2.8106    0.2396    3.7926 C   0  0  0  0  0  0  0  0  0  0  0  0
    3.7195    1.2690    4.0483 C   0  0  0  0  0  0  0  0  0  0  0  0
    4.6543    1.6338    3.0776 C   0  0  0  0  0  0  0  0  0  0  0  0
    5.7650    2.8996    3.4664 Cl  0  0  0  0  0  0  0  0  0  0  0  0
    4.6677    0.9725    1.8434 C   0  0  0  0  0  0  0  0  0  0  0  0
    5.7939    1.3748    0.5944 Cl  0  0  0  0  0  0  0  0  0  0  0  0
    3.7540   -0.0578    1.5853 C   0  0  0  0  0  0  0  0  0  0  0  0
    2.3663   -3.5636    2.1053 H   0  0  0  0  0  0  0  0  0  0  0  0
    3.0782   -2.5368    0.8649 H   0  0  0  0  0  0  0  0  0  0  0  0
   -1.0223    1.4818   -3.2843 H   0  0  0  0  0  0  0  0  0  0  0  0
   -2.6163    3.3795   -3.5682 H   0  0  0  0  0  0  0  0  0  0  0  0
   -3.5914    4.4402   -1.5244 H   0  0  0  0  0  0  0  0  0  0  0  0
   -1.4784    1.9445    0.9718 H   0  0  0  0  0  0  0  0  0  0  0  0
   -1.7491   -2.0993    0.7840 H   0  0  0  0  0  0  0  0  0  0  0  0
   -2.2542   -0.4250    0.7552 H   0  0  0  0  0  0  0  0  0  0  0  0
   -4.2122    0.1131   -1.2813 H   0  0  0  0  0  0  0  0  0  0  0  0
   -5.1710   -1.5104   -3.2591 H   0  0  0  0  0  0  0  0  0  0  0  0
   -3.5723   -3.7640   -3.1322 H   0  0  0  0  0  0  0  0  0  0  0  0
    2.0822   -0.0294    4.5575 H   0  0  0  0  0  0  0  0  0  0  0  0
    3.6901    1.7830    5.0070 H   0  0  0  0  0  0  0  0  0  0  0  0
    3.7605   -0.5225    0.6022 H   0  0  0  0  0  0  0  0  0  0  0  0
  1  2  2  0
  2  3  1  0
  3  4  1  0
  4  5  1  0
  5  6  2  0
  6  7  1  0
  7  8  2  0
  8  9  1  0
  9 10  2  0
 10 11  1  0
 11 12  2  0
 12 13  1  0
 13 14  2  0
  8 15  1  0
 15 16  1  0
 16 17  1  0
 17 18  2  0
 18 19  1  0
 19 20  2  0
 20 21  1  0
  2 22  1  0
 22 23  2  0
 23 24  1  0
 24 25  2  0
 25 26  1  0
 25 27  1  0
 27 28  1  0
 27 29  2  0
 15  5  1  0
 21 17  1  0
 29 22  1  0
 14  9  1  0
  3 30  1  0
  3 31  1  0
 10 32  1  0
 11 33  1  0
 12 34  1  0
 14 35  1  0
 16 36  1  0
 16 37  1  0
 18 38  1  0
 19 39  1  0
 20 40  1  0
 23 41  1  0
 24 42  1  0
 29 43  1  0
M  END
$$$$
