
     RDKit          3D

 50 51  0  0  0  0  0  0  0  0999 V2000
   -4.2851   -4.7071    0.0328 C   0  0  0  0  0  0  0  0  0  0  0  0
   -4.6107   -3.3619    0.3528 O   0  0  0  0  0  0  0  0  0  0  0  0
   -3.5778   -2.4639    0.4547 C   0  0  0  0  0  0  0  0  0  0  0  0
   -2.2317   -2.7801    0.2478 C   0  0  0  0  0  0  0  0  0  0  0  0
   -1.2495   -1.7959    0.3750 C   0  0  0  0  0  0  0  0  0  0  0  0
   -1.6038   -0.4901    0.7055 C   0  0  0  0  0  0  0  0  0  0  0  0
   -0.5697    0.4855    0.8700 N   0  0  0  0  0  0  0  0  0  0  0  0
   -0.6077    1.7179    0.0530 C   0  0  0  0  0  0  0  0  0  0  0  0
    0.3191    1.5930   -1.1523 C   0  0  0  0  0  0  0  0  0  0  0  0
   -0.1335    1.7188   -2.2879 O   0  0  0  0  0  0  0  0  0  0  0  0
    1.6473    1.3744   -0.8136 N   0  0  0  0  0  0  0  0  0  0  0  0
    2.7622    1.2385   -1.6793 C   0  0  0  0  0  0  0  0  0  0  0  0
    2.6405    1.3915   -3.0708 C   0  0  0  0  0  0  0  0  0  0  0  0
    3.7460    1.2953   -3.9211 C   0  0  0  0  0  0  0  0  0  0  0  0
    5.0050    1.0585   -3.3925 C   0  0  0  0  0  0  0  0  0  0  0  0
    5.1379    0.9033   -2.0083 C   0  0  0  0  0  0  0  0  0  0  0  0
    6.4898    0.7053   -1.5098 N   0  0  0  0  0  4  0  0  0  0  0  0
    6.9419    1.5658   -0.7425 O   0  0  0  0  0  0  0  0  0  0  0  0
    7.0962   -0.2976   -1.9095 O   0  0  0  0  0  1  0  0  0  0  0  0
    4.0350    0.9556   -1.1252 C   0  0  0  0  0  0  0  0  0  0  0  0
    4.2059    0.7195    0.3554 C   0  0  0  0  0  0  0  0  0  0  0  0
    0.3016    0.5025    2.3108 S   0  0  0  0  0  6  0  0  0  0  0  0
   -0.7891    1.3783    3.4158 C   0  0  0  0  0  0  0  0  0  0  0  0
    1.4589    1.3427    2.0639 O   0  0  0  0  0  0  0  0  0  0  0  0
    0.4674   -0.8463    2.8028 O   0  0  0  0  0  0  0  0  0  0  0  0
   -2.9448   -0.1640    0.9249 C   0  0  0  0  0  0  0  0  0  0  0  0
   -3.9375   -1.1421    0.7908 C   0  0  0  0  0  0  0  0  0  0  0  0
   -5.2774   -0.9139    0.9881 O   0  0  0  0  0  0  0  0  0  0  0  0
   -5.7091    0.4338    1.1059 C   0  0  0  0  0  0  0  0  0  0  0  0
   -3.6482   -5.1538    0.8034 H   0  0  0  0  0  0  0  0  0  0  0  0
   -5.2179   -5.2783    0.0010 H   0  0  0  0  0  0  0  0  0  0  0  0
   -3.8196   -4.7762   -0.9559 H   0  0  0  0  0  0  0  0  0  0  0  0
   -1.9104   -3.7840   -0.0089 H   0  0  0  0  0  0  0  0  0  0  0  0
   -0.2054   -2.0595    0.2219 H   0  0  0  0  0  0  0  0  0  0  0  0
   -0.3077    2.5993    0.6301 H   0  0  0  0  0  0  0  0  0  0  0  0
   -1.6206    1.9251   -0.3094 H   0  0  0  0  0  0  0  0  0  0  0  0
    1.8350    1.3112    0.1865 H   0  0  0  0  0  0  0  0  0  0  0  0
    1.6834    1.5984   -3.5404 H   0  0  0  0  0  0  0  0  0  0  0  0
    3.6142    1.4198   -4.9936 H   0  0  0  0  0  0  0  0  0  0  0  0
    5.8686    1.0008   -4.0515 H   0  0  0  0  0  0  0  0  0  0  0  0
    5.1626    0.2551    0.6085 H   0  0  0  0  0  0  0  0  0  0  0  0
    3.4470    0.0187    0.7185 H   0  0  0  0  0  0  0  0  0  0  0  0
    4.1287    1.6663    0.8985 H   0  0  0  0  0  0  0  0  0  0  0  0
   -1.0167    2.3595    2.9968 H   0  0  0  0  0  0  0  0  0  0  0  0
   -0.2699    1.4975    4.3695 H   0  0  0  0  0  0  0  0  0  0  0  0
   -1.6967    0.7915    3.5641 H   0  0  0  0  0  0  0  0  0  0  0  0
   -3.2002    0.8497    1.2073 H   0  0  0  0  0  0  0  0  0  0  0  0
   -5.3484    0.8795    2.0385 H   0  0  0  0  0  0  0  0  0  0  0  0
   -6.8028    0.4336    1.1392 H   0  0  0  0  0  0  0  0  0  0  0  0
   -5.4024    1.0284    0.2389 H   0  0  0  0  0  0  0  0  0  0  0  0
  1  2  1  0
  2  3  1  0
  3  4  2  0
  4  5  1  0
  5  6  2  0
  6  7  1  0
  7  8  1  0
  8  9  1  0
  9 10  2  0
  9 11  1  0
 11 12  1  0
 12 13  2  0
 13 14  1  0
 14 15  2  0
 15 16  1  0
 16 17  1  0
 17 18  2  0
 17 19  1  0
 16 20  2  0
 20 21  1  0
  7 22  1  0
 22 23  1  0
 22 24  2  0
 22 25  2  0
  6 26  1  0
 26 27  2  0
 27 28  1  0
 28 29  1  0
 27  3  1  0
 20 12  1  0
  1 30  1  0
  1 31  1  0
  1 32  1  0
  4 33  1  0
  5 34  1  0
  8 35  1  0
  8 36  1  0
 11 37  1  0
 13 38  1  0
 14 39  1  0
 15 40  1  0
 21 41  1  0
 21 42  1  0
 21 43  1  0
 23 44  1  0
 23 45  1  0
 23 46  1  0
 26 47  1  0
 29 48  1  0
 29 49  1  0
 29 50  1  0
M  CHG  2  17   1  19  -1
M  END
$$$$
