
     RDKit          3D

 60 63  0  0  0  0  0  0  0  0999 V2000
   -1.8413    1.4423    4.8380 C   0  0  0  0  0  0  0  0  0  0  0  0
   -1.7474    2.1185    3.5897 O   0  0  0  0  0  0  0  0  0  0  0  0
   -1.6662    1.3368    2.4698 C   0  0  0  0  0  0  0  0  0  0  0  0
   -1.5908    2.0456    1.2680 C   0  0  0  0  0  0  0  0  0  0  0  0
   -1.5075    1.3753    0.0450 C   0  0  0  0  0  0  0  0  0  0  0  0
   -1.4961   -0.0231    0.0185 C   0  0  0  0  0  0  0  0  0  0  0  0
   -1.4291   -0.7079   -1.2229 N   0  0  0  0  0  0  0  0  0  0  0  0
   -2.1684   -0.4483   -2.3740 C   0  0  0  0  0  0  0  0  0  0  0  0
   -3.3352    0.4836   -2.4847 C   0  0  0  0  0  0  0  0  0  0  0  0
   -4.4485    0.1798   -1.5193 C   0  0  0  0  0  0  0  0  0  0  0  0
   -4.9233   -1.0427   -1.0663 C   0  0  0  0  0  0  0  0  0  0  0  0
   -5.9573   -0.7945   -0.1364 C   0  0  0  0  0  0  0  0  0  0  0  0
   -6.1200    0.5687   -0.0642 C   0  0  0  0  0  0  0  0  0  0  0  0
   -5.2217    1.1529   -0.9195 N   0  0  0  0  0  0  0  0  0  0  0  0
   -5.1390    2.5792   -1.1527 C   0  0  0  0  0  0  0  0  0  0  0  0
   -1.7674   -1.2510   -3.3430 N   0  0  0  0  0  0  0  0  0  0  0  0
   -0.8088   -2.0851   -2.8430 N   0  0  0  0  0  0  0  0  0  0  0  0
   -0.6237   -1.7769   -1.5810 C   0  0  0  0  0  0  0  0  0  0  0  0
    0.5787   -2.5209   -0.5719 S   0  0  0  0  0  0  0  0  0  0  0  0
    1.8692   -2.8770   -1.8038 C   0  0  0  0  0  0  0  0  0  0  0  0
    2.6110   -1.6344   -2.2785 C   0  0  0  0  0  0  0  0  0  0  0  0
    3.1413   -1.5858   -3.3867 O   0  0  0  0  0  0  0  0  0  0  0  0
    2.7453   -0.6165   -1.3575 N   0  0  0  0  0  0  0  0  0  0  0  0
    3.5885    0.5383   -1.6046 C   0  0  0  0  0  0  0  0  0  0  0  0
    5.0778    0.2432   -1.3976 C   0  0  0  0  0  0  0  0  0  0  0  0
    5.4022   -0.1234    0.0327 C   0  0  0  0  0  0  0  0  0  0  0  0
    5.5252    0.8721    1.0125 C   0  0  0  0  0  0  0  0  0  0  0  0
    5.8102    0.5309    2.3367 C   0  0  0  0  0  0  0  0  0  0  0  0
    5.9695   -0.8079    2.6928 C   0  0  0  0  0  0  0  0  0  0  0  0
    5.8401   -1.8063    1.7272 C   0  0  0  0  0  0  0  0  0  0  0  0
    5.5607   -1.4665    0.4026 C   0  0  0  0  0  0  0  0  0  0  0  0
   -1.5634   -0.7382    1.2192 C   0  0  0  0  0  0  0  0  0  0  0  0
   -1.6525   -0.0577    2.4399 C   0  0  0  0  0  0  0  0  0  0  0  0
   -2.7622    0.8508    4.8966 H   0  0  0  0  0  0  0  0  0  0  0  0
   -1.8809    2.2007    5.6258 H   0  0  0  0  0  0  0  0  0  0  0  0
   -0.9583    0.8203    5.0191 H   0  0  0  0  0  0  0  0  0  0  0  0
   -1.5918    3.1328    1.2880 H   0  0  0  0  0  0  0  0  0  0  0  0
   -1.4099    1.9657   -0.8609 H   0  0  0  0  0  0  0  0  0  0  0  0
   -3.7488    0.4036   -3.4991 H   0  0  0  0  0  0  0  0  0  0  0  0
   -2.9868    1.5160   -2.3883 H   0  0  0  0  0  0  0  0  0  0  0  0
   -4.5477   -2.0170   -1.3670 H   0  0  0  0  0  0  0  0  0  0  0  0
   -6.5277   -1.5278    0.4186 H   0  0  0  0  0  0  0  0  0  0  0  0
   -6.8108    1.1629    0.5219 H   0  0  0  0  0  0  0  0  0  0  0  0
   -5.9795    3.0781   -0.6627 H   0  0  0  0  0  0  0  0  0  0  0  0
   -5.1886    2.7566   -2.2297 H   0  0  0  0  0  0  0  0  0  0  0  0
   -4.1959    2.9442   -0.7397 H   0  0  0  0  0  0  0  0  0  0  0  0
    1.4395   -3.3938   -2.6665 H   0  0  0  0  0  0  0  0  0  0  0  0
    2.6066   -3.5442   -1.3448 H   0  0  0  0  0  0  0  0  0  0  0  0
    2.4628   -0.8032   -0.4023 H   0  0  0  0  0  0  0  0  0  0  0  0
    3.2463    1.3329   -0.9325 H   0  0  0  0  0  0  0  0  0  0  0  0
    3.4230    0.8749   -2.6336 H   0  0  0  0  0  0  0  0  0  0  0  0
    5.4040   -0.5615   -2.0675 H   0  0  0  0  0  0  0  0  0  0  0  0
    5.6662    1.1259   -1.6775 H   0  0  0  0  0  0  0  0  0  0  0  0
    5.4052    1.9217    0.7502 H   0  0  0  0  0  0  0  0  0  0  0  0
    5.9125    1.3096    3.0889 H   0  0  0  0  0  0  0  0  0  0  0  0
    6.1950   -1.0727    3.7232 H   0  0  0  0  0  0  0  0  0  0  0  0
    5.9661   -2.8500    2.0046 H   0  0  0  0  0  0  0  0  0  0  0  0
    5.4714   -2.2548   -0.3412 H   0  0  0  0  0  0  0  0  0  0  0  0
   -1.6001   -1.8253    1.2343 H   0  0  0  0  0  0  0  0  0  0  0  0
   -1.7216   -0.6496    3.3467 H   0  0  0  0  0  0  0  0  0  0  0  0
  1  2  1  0
  2  3  1  0
  3  4  2  0
  4  5  1  0
  5  6  2  0
  6  7  1  0
  7  8  1  0
  8  9  1  0
  9 10  1  0
 10 11  2  0
 11 12  1  0
 12 13  2  0
 13 14  1  0
 14 15  1  0
  8 16  2  0
 16 17  1  0
 17 18  2  0
 18 19  1  0
 19 20  1  0
 20 21  1  0
 21 22  2  0
 21 23  1  0
 23 24  1  0
 24 25  1  0
 25 26  1  0
 26 27  2  0
 27 28  1  0
 28 29  2  0
 29 30  1  0
 30 31  2  0
  6 32  1  0
 32 33  2  0
 33  3  1  0
 18  7  1  0
 31 26  1  0
 14 10  1  0
  1 34  1  0
  1 35  1  0
  1 36  1  0
  4 37  1  0
  5 38  1  0
  9 39  1  0
  9 40  1  0
 11 41  1  0
 12 42  1  0
 13 43  1  0
 15 44  1  0
 15 45  1  0
 15 46  1  0
 20 47  1  0
 20 48  1  0
 23 49  1  0
 24 50  1  0
 24 51  1  0
 25 52  1  0
 25 53  1  0
 27 54  1  0
 28 55  1  0
 29 56  1  0
 30 57  1  0
 31 58  1  0
 32 59  1  0
 33 60  1  0
M  END
$$$$
