
     RDKit          3D

 44 44  0  0  0  0  0  0  0  0999 V2000
   -1.7781   -0.1715    2.6130 C   0  0  0  0  0  0  0  0  0  0  0  0
   -2.5758    0.0050    1.3040 C   0  0  0  0  0  0  0  0  0  0  0  0
   -2.4309    1.4546    0.8360 C   0  0  0  0  0  0  0  0  0  0  0  0
   -2.2157   -1.0815    0.2385 C   0  0  0  0  0  0  0  0  0  0  0  0
   -2.4985   -2.3482    0.8699 O   0  0  0  0  0  0  0  0  0  0  0  0
   -0.7669   -1.0745   -0.0694 C   0  0  0  0  0  0  0  0  0  0  0  0
    0.4108   -1.0575   -0.3108 C   0  0  0  0  0  0  0  0  0  0  0  0
    1.8538   -1.0112   -0.5953 C   0  0  0  0  0  0  0  0  0  0  0  0
    2.2828    0.3399   -0.9816 N   0  0  0  0  0  0  0  0  0  0  0  0
    3.6242    0.3348   -1.5832 C   0  0  0  0  0  0  0  0  0  0  0  0
    4.7567    0.1019   -0.5800 C   0  0  0  0  0  0  0  0  0  0  0  0
    4.6902    1.1021    0.5690 C   0  0  0  0  0  0  0  0  0  0  0  0
    3.2976    1.1284    1.1893 C   0  0  0  0  0  0  0  0  0  0  0  0
    2.2155    1.3126    0.1215 C   0  0  0  0  0  0  0  0  0  0  0  0
   -3.0533   -1.0794   -1.0849 C   0  0  0  0  0  0  0  0  0  0  0  0
   -4.5663   -1.0460   -0.8277 C   0  0  0  0  0  0  0  0  0  0  0  0
   -2.6869   -0.0106   -2.1230 C   0  0  0  0  0  0  0  0  0  0  0  0
   -2.1477    0.5175    3.3811 H   0  0  0  0  0  0  0  0  0  0  0  0
   -0.7127    0.0372    2.4705 H   0  0  0  0  0  0  0  0  0  0  0  0
   -1.8801   -1.1844    3.0146 H   0  0  0  0  0  0  0  0  0  0  0  0
   -3.6253   -0.1431    1.5929 H   0  0  0  0  0  0  0  0  0  0  0  0
   -3.2265    1.7233    0.1378 H   0  0  0  0  0  0  0  0  0  0  0  0
   -1.4634    1.6378    0.3594 H   0  0  0  0  0  0  0  0  0  0  0  0
   -2.5209    2.1488    1.6794 H   0  0  0  0  0  0  0  0  0  0  0  0
   -2.0751   -3.0338    0.3257 H   0  0  0  0  0  0  0  0  0  0  0  0
    2.4162   -1.3968    0.2620 H   0  0  0  0  0  0  0  0  0  0  0  0
    2.0390   -1.7035   -1.4266 H   0  0  0  0  0  0  0  0  0  0  0  0
    3.7827    1.3019   -2.0783 H   0  0  0  0  0  0  0  0  0  0  0  0
    3.6803   -0.4119   -2.3849 H   0  0  0  0  0  0  0  0  0  0  0  0
    4.7063   -0.9192   -0.1837 H   0  0  0  0  0  0  0  0  0  0  0  0
    5.7227    0.1942   -1.0896 H   0  0  0  0  0  0  0  0  0  0  0  0
    5.4367    0.8510    1.3305 H   0  0  0  0  0  0  0  0  0  0  0  0
    4.9392    2.1025    0.1939 H   0  0  0  0  0  0  0  0  0  0  0  0
    3.1247    0.2010    1.7477 H   0  0  0  0  0  0  0  0  0  0  0  0
    3.2376    1.9469    1.9160 H   0  0  0  0  0  0  0  0  0  0  0  0
    1.2277    1.3064    0.5963 H   0  0  0  0  0  0  0  0  0  0  0  0
    2.3157    2.3183   -0.3084 H   0  0  0  0  0  0  0  0  0  0  0  0
   -2.8621   -2.0452   -1.5781 H   0  0  0  0  0  0  0  0  0  0  0  0
   -4.8868   -0.0807   -0.4239 H   0  0  0  0  0  0  0  0  0  0  0  0
   -4.8694   -1.8301   -0.1266 H   0  0  0  0  0  0  0  0  0  0  0  0
   -5.1170   -1.2107   -1.7606 H   0  0  0  0  0  0  0  0  0  0  0  0
   -2.9551    0.9982   -1.8075 H   0  0  0  0  0  0  0  0  0  0  0  0
   -1.6206   -0.0233   -2.3658 H   0  0  0  0  0  0  0  0  0  0  0  0
   -3.2254   -0.2011   -3.0590 H   0  0  0  0  0  0  0  0  0  0  0  0
  1  2  1  0
  2  3  1  0
  2  4  1  0
  4  5  1  0
  4  6  1  0
  6  7  3  0
  7  8  1  0
  8  9  1  0
  9 10  1  0
 10 11  1  0
 11 12  1  0
 12 13  1  0
 13 14  1  0
  4 15  1  0
 15 16  1  0
 15 17  1  0
 14  9  1  0
  1 18  1  0
  1 19  1  0
  1 20  1  0
  2 21  1  0
  3 22  1  0
  3 23  1  0
  3 24  1  0
  5 25  1  0
  8 26  1  0
  8 27  1  0
 10 28  1  0
 10 29  1  0
 11 30  1  0
 11 31  1  0
 12 32  1  0
 12 33  1  0
 13 34  1  0
 13 35  1  0
 14 36  1  0
 14 37  1  0
 15 38  1  0
 16 39  1  0
 16 40  1  0
 16 41  1  0
 17 42  1  0
 17 43  1  0
 17 44  1  0
M  END
$$$$
