
     RDKit          3D

 38 39  0  0  0  0  0  0  0  0999 V2000
    0.0346   -2.1048   -0.6459 C   0  0  0  0  0  0  0  0  0  0  0  0
    0.4662   -0.7477   -1.1669 C   0  0  0  0  0  0  0  0  0  0  0  0
    1.8123   -0.2167   -0.7915 C   0  0  0  0  0  0  0  0  0  0  0  0
    2.6145   -0.7657    0.1325 C   0  0  0  0  0  0  0  0  0  0  0  0
    3.9314   -0.2173    0.4885 C   0  0  0  0  0  0  0  0  0  0  0  0
    4.9782   -1.1028    0.7767 C   0  0  0  0  0  0  0  0  0  0  0  0
    6.2367   -0.6211    1.1459 C   0  0  0  0  0  0  0  0  0  0  0  0
    6.4578    0.7510    1.2420 C   0  0  0  0  0  0  0  0  0  0  0  0
    5.4203    1.6415    0.9741 C   0  0  0  0  0  0  0  0  0  0  0  0
    4.1617    1.1601    0.6041 C   0  0  0  0  0  0  0  0  0  0  0  0
   -0.2644    0.0183   -1.9335 N   0  0  0  0  0  0  0  0  0  0  0  0
   -1.5277   -0.4239   -2.2297 N   0  0  0  0  0  0  0  0  0  0  0  0
   -2.5760   -0.0316   -1.3600 C   0  0  0  0  0  0  0  0  0  0  0  0
   -2.3705    0.0568   -0.0328 N   0  0  0  0  0  0  0  0  0  0  0  0
   -3.4091    0.4298    0.7382 C   0  0  0  0  0  0  0  0  0  0  0  0
   -3.1661    0.5352    2.2129 C   0  0  0  0  0  0  0  0  0  0  0  0
   -4.6534    0.7081    0.2140 C   0  0  0  0  0  0  0  0  0  0  0  0
   -4.7845    0.5846   -1.1534 C   0  0  0  0  0  0  0  0  0  0  0  0
   -6.1005    0.8643   -1.8142 C   0  0  0  0  0  0  0  0  0  0  0  0
   -3.7596    0.2153   -1.9476 N   0  0  0  0  0  0  0  0  0  0  0  0
   -0.3469   -1.9968    0.3731 H   0  0  0  0  0  0  0  0  0  0  0  0
   -0.7397   -2.5531   -1.2729 H   0  0  0  0  0  0  0  0  0  0  0  0
    0.8777   -2.8013   -0.6443 H   0  0  0  0  0  0  0  0  0  0  0  0
    2.0960    0.6833   -1.3294 H   0  0  0  0  0  0  0  0  0  0  0  0
    2.3299   -1.6640    0.6716 H   0  0  0  0  0  0  0  0  0  0  0  0
    4.8263   -2.1776    0.7071 H   0  0  0  0  0  0  0  0  0  0  0  0
    7.0432   -1.3179    1.3589 H   0  0  0  0  0  0  0  0  0  0  0  0
    7.4363    1.1262    1.5299 H   0  0  0  0  0  0  0  0  0  0  0  0
    5.5874    2.7122    1.0573 H   0  0  0  0  0  0  0  0  0  0  0  0
    3.3627    1.8742    0.4188 H   0  0  0  0  0  0  0  0  0  0  0  0
   -1.8788   -0.1154   -3.1362 H   0  0  0  0  0  0  0  0  0  0  0  0
   -2.1299    0.2790    2.4569 H   0  0  0  0  0  0  0  0  0  0  0  0
   -3.3537    1.5576    2.5553 H   0  0  0  0  0  0  0  0  0  0  0  0
   -3.8232   -0.1521    2.7549 H   0  0  0  0  0  0  0  0  0  0  0  0
   -5.4826    1.0071    0.8421 H   0  0  0  0  0  0  0  0  0  0  0  0
   -6.4051    1.8989   -1.6280 H   0  0  0  0  0  0  0  0  0  0  0  0
   -6.0319    0.7191   -2.8972 H   0  0  0  0  0  0  0  0  0  0  0  0
   -6.8692    0.1876   -1.4280 H   0  0  0  0  0  0  0  0  0  0  0  0
  1  2  1  0
  2  3  1  0
  3  4  2  3
  4  5  1  0
  5  6  2  0
  6  7  1  0
  7  8  2  0
  8  9  1  0
  9 10  2  0
  2 11  2  3
 11 12  1  0
 12 13  1  0
 13 14  2  0
 14 15  1  0
 15 16  1  0
 15 17  2  0
 17 18  1  0
 18 19  1  0
 18 20  2  0
 10  5  1  0
 20 13  1  0
  1 21  1  0
  1 22  1  0
  1 23  1  0
  3 24  1  0
  4 25  1  0
  6 26  1  0
  7 27  1  0
  8 28  1  0
  9 29  1  0
 10 30  1  0
 12 31  1  0
 16 32  1  0
 16 33  1  0
 16 34  1  0
 17 35  1  0
 19 36  1  0
 19 37  1  0
 19 38  1  0
M  END
$$$$
