
     RDKit          3D

 61 65  0  0  0  0  0  0  0  0999 V2000
   -8.1199   -0.7897    2.5166 C   0  0  0  0  0  0  0  0  0  0  0  0
   -7.6821   -0.5193    1.1981 O   0  0  0  0  0  0  0  0  0  0  0  0
   -6.4125   -0.0259    1.0345 C   0  0  0  0  0  0  0  0  0  0  0  0
   -5.5078    0.1808    2.0774 C   0  0  0  0  0  0  0  0  0  0  0  0
   -4.2318    0.6872    1.8107 C   0  0  0  0  0  0  0  0  0  0  0  0
   -3.8355    0.9993    0.5046 C   0  0  0  0  0  0  0  0  0  0  0  0
   -2.4984    1.5372    0.2645 C   0  0  0  0  0  0  0  0  0  0  0  0
   -1.5495    1.8409    1.1296 N   0  0  0  0  0  0  0  0  0  0  0  0
   -0.5081    2.3186    0.3563 C   0  0  0  0  0  0  0  0  0  0  0  0
    0.7271    2.8171    1.0202 C   0  0  0  0  0  0  0  0  0  0  0  0
    1.9494    2.4133    0.3466 N   0  0  0  0  0  0  0  0  0  0  0  0
    2.6046    1.2125    0.4561 C   0  0  0  0  0  0  0  0  0  0  0  0
    1.9920   -0.1231    1.3723 S   0  0  0  0  0  0  0  0  0  0  0  0
    3.5176   -0.8323    2.0377 C   0  0  0  0  0  0  0  0  0  0  0  0
    4.0161   -2.0255    1.2644 C   0  0  0  0  0  0  0  0  0  0  0  0
    4.9747   -1.8648    0.2595 C   0  0  0  0  0  0  0  0  0  0  0  0
    5.4885   -2.9710   -0.4159 C   0  0  0  0  0  0  0  0  0  0  0  0
    5.0384   -4.2623   -0.1178 C   0  0  0  0  0  0  0  0  0  0  0  0
    5.6328   -5.4558   -0.8162 C   0  0  0  0  0  0  0  0  0  0  0  0
    4.0756   -4.4289    0.8782 C   0  0  0  0  0  0  0  0  0  0  0  0
    3.5576   -3.3194    1.5556 C   0  0  0  0  0  0  0  0  0  0  0  0
    3.7209    1.1972   -0.2369 N   0  0  0  0  0  0  0  0  0  0  0  0
    3.8047    2.4313   -0.8225 C   0  0  0  0  0  0  0  0  0  0  0  0
    4.7847    2.9403   -1.6766 C   0  0  0  0  0  0  0  0  0  0  0  0
    4.5841    4.2371   -2.1111 C   0  0  0  0  0  0  0  0  0  0  0  0
    3.5343    5.0143   -1.7613 N   0  0  0  0  0  0  0  0  0  0  0  0
    2.5893    4.5226   -0.9257 C   0  0  0  0  0  0  0  0  0  0  0  0
    2.7195    3.2221   -0.4659 C   0  0  0  0  0  0  0  0  0  0  0  0
   -0.8816    2.2741   -0.9734 C   0  0  0  0  0  0  0  0  0  0  0  0
   -0.2617    2.6314   -2.2627 C   0  0  0  0  0  0  0  0  0  0  0  0
   -2.1537    1.7797   -1.0341 O   0  0  0  0  0  0  0  0  0  0  0  0
   -4.7467    0.7865   -0.5400 C   0  0  0  0  0  0  0  0  0  0  0  0
   -6.0285    0.2780   -0.2885 C   0  0  0  0  0  0  0  0  0  0  0  0
   -6.9713    0.0433   -1.2582 O   0  0  0  0  0  0  0  0  0  0  0  0
   -6.6353    0.3701   -2.5988 C   0  0  0  0  0  0  0  0  0  0  0  0
   -7.5318   -1.5930    2.9694 H   0  0  0  0  0  0  0  0  0  0  0  0
   -8.0971    0.1157    3.1347 H   0  0  0  0  0  0  0  0  0  0  0  0
   -9.1581   -1.1330    2.4598 H   0  0  0  0  0  0  0  0  0  0  0  0
   -5.7612   -0.0460    3.1106 H   0  0  0  0  0  0  0  0  0  0  0  0
   -3.5406    0.8363    2.6353 H   0  0  0  0  0  0  0  0  0  0  0  0
    0.6995    3.9132    1.0654 H   0  0  0  0  0  0  0  0  0  0  0  0
    0.7874    2.4651    2.0562 H   0  0  0  0  0  0  0  0  0  0  0  0
    3.2987   -1.1485    3.0690 H   0  0  0  0  0  0  0  0  0  0  0  0
    4.3074   -0.0756    2.1273 H   0  0  0  0  0  0  0  0  0  0  0  0
    5.3390   -0.8716    0.0044 H   0  0  0  0  0  0  0  0  0  0  0  0
    6.2445   -2.8164   -1.1728 H   0  0  0  0  0  0  0  0  0  0  0  0
    5.9381   -5.1977   -1.8336 H   0  0  0  0  0  0  0  0  0  0  0  0
    6.5124   -5.8141   -0.2648 H   0  0  0  0  0  0  0  0  0  0  0  0
    4.9044   -6.2744   -0.8938 H   0  0  0  0  0  0  0  0  0  0  0  0
    3.7207   -5.4259    1.1332 H   0  0  0  0  0  0  0  0  0  0  0  0
    2.8072   -3.4742    2.3227 H   0  0  0  0  0  0  0  0  0  0  0  0
    5.6390    2.3555   -1.9818 H   0  0  0  0  0  0  0  0  0  0  0  0
    5.2962    4.7066   -2.7855 H   0  0  0  0  0  0  0  0  0  0  0  0
    1.7652    5.1782   -0.6770 H   0  0  0  0  0  0  0  0  0  0  0  0
    0.0424    3.6820   -2.2697 H   0  0  0  0  0  0  0  0  0  0  0  0
    0.6131    2.0035   -2.4647 H   0  0  0  0  0  0  0  0  0  0  0  0
   -0.9635    2.4866   -3.0908 H   0  0  0  0  0  0  0  0  0  0  0  0
   -4.4353    1.0234   -1.5497 H   0  0  0  0  0  0  0  0  0  0  0  0
   -6.4335    1.4432   -2.7038 H   0  0  0  0  0  0  0  0  0  0  0  0
   -5.7816   -0.2297   -2.9446 H   0  0  0  0  0  0  0  0  0  0  0  0
   -7.4999    0.1278   -3.2325 H   0  0  0  0  0  0  0  0  0  0  0  0
  1  2  1  0
  2  3  1  0
  3  4  2  0
  4  5  1  0
  5  6  2  0
  6  7  1  0
  7  8  2  0
  8  9  1  0
  9 10  1  0
 10 11  1  0
 11 12  1  0
 12 13  1  0
 13 14  1  0
 14 15  1  0
 15 16  2  0
 16 17  1  0
 17 18  2  0
 18 19  1  0
 18 20  1  0
 20 21  2  0
 12 22  2  0
 22 23  1  0
 23 24  2  0
 24 25  1  0
 25 26  2  0
 26 27  1  0
 27 28  2  0
  9 29  2  0
 29 30  1  0
 29 31  1  0
  6 32  1  0
 32 33  2  0
 33 34  1  0
 34 35  1  0
 33  3  1  0
 31  7  1  0
 28 11  1  0
 21 15  1  0
 28 23  1  0
  1 36  1  0
  1 37  1  0
  1 38  1  0
  4 39  1  0
  5 40  1  0
 10 41  1  0
 10 42  1  0
 14 43  1  0
 14 44  1  0
 16 45  1  0
 17 46  1  0
 19 47  1  0
 19 48  1  0
 19 49  1  0
 20 50  1  0
 21 51  1  0
 24 52  1  0
 25 53  1  0
 27 54  1  0
 30 55  1  0
 30 56  1  0
 30 57  1  0
 32 58  1  0
 35 59  1  0
 35 60  1  0
 35 61  1  0
M  END
$$$$
