
     RDKit          3D

 49 53  0  0  0  0  0  0  0  0999 V2000
    6.8869   -1.0442    2.3007 C   0  0  0  0  0  0  0  0  0  0  0  0
    5.4039   -1.1396    2.4705 C   0  0  0  0  0  0  0  0  0  0  0  0
    4.7675   -2.2295    3.6176 S   0  0  0  0  0  0  0  0  0  0  0  0
    3.1695   -1.7936    3.2510 C   0  0  0  0  0  0  0  0  0  0  0  0
    2.1554   -2.3830    3.9069 N   0  0  0  0  0  0  0  0  0  0  0  0
    0.9626   -1.9399    3.5188 C   0  0  0  0  0  0  0  0  0  0  0  0
    0.7082   -1.0208    2.5818 N   0  0  0  0  0  0  0  0  0  0  0  0
    1.7551   -0.4556    1.9426 C   0  0  0  0  0  0  0  0  0  0  0  0
    1.3963    0.7767    0.7278 S   0  0  0  0  0  0  0  0  0  0  0  0
   -0.0083   -0.0214   -0.1459 C   0  0  0  0  0  0  0  0  0  0  0  0
    0.4730   -1.1962   -0.9949 C   0  0  0  0  0  0  0  0  0  0  0  0
   -0.6898    1.0051   -1.0735 C   0  0  0  0  0  0  0  0  0  0  0  0
   -0.0532    1.8164   -1.7480 O   0  0  0  0  0  0  0  0  0  0  0  0
   -2.0820    0.8212   -1.1701 N   0  0  0  0  0  0  0  0  0  0  0  0
   -2.9118    1.1086   -0.0241 C   0  0  0  0  0  0  0  0  0  0  0  0
   -2.3664    1.8294    1.0634 C   0  0  0  0  0  0  0  0  0  0  0  0
   -3.1134    2.1304    2.2064 C   0  0  0  0  0  0  0  0  0  0  0  0
   -4.4366    1.7302    2.2895 C   0  0  0  0  0  0  0  0  0  0  0  0
   -5.0073    1.0431    1.2228 C   0  0  0  0  0  0  0  0  0  0  0  0
   -4.2609    0.7401    0.0675 C   0  0  0  0  0  0  0  0  0  0  0  0
   -5.1200   -0.1403   -1.1998 S   0  0  0  0  0  0  0  0  0  0  0  0
   -4.0300    0.1091   -2.5730 C   0  0  0  0  0  0  0  0  0  0  0  0
   -4.5695   -0.1981   -3.8380 C   0  0  0  0  0  0  0  0  0  0  0  0
   -3.7899   -0.1348   -4.9871 C   0  0  0  0  0  0  0  0  0  0  0  0
   -2.4570    0.2223   -4.8781 C   0  0  0  0  0  0  0  0  0  0  0  0
   -1.9154    0.5271   -3.6241 C   0  0  0  0  0  0  0  0  0  0  0  0
   -2.6877    0.5026   -2.4417 C   0  0  0  0  0  0  0  0  0  0  0  0
    3.0765   -0.8240    2.2609 C   0  0  0  0  0  0  0  0  0  0  0  0
    4.4083   -0.4395    1.7986 C   0  0  0  0  0  0  0  0  0  0  0  0
    4.6891    0.5787    0.7345 C   0  0  0  0  0  0  0  0  0  0  0  0
    7.4327   -1.6772    3.0082 H   0  0  0  0  0  0  0  0  0  0  0  0
    7.1704   -1.3519    1.2887 H   0  0  0  0  0  0  0  0  0  0  0  0
    7.2202   -0.0123    2.4548 H   0  0  0  0  0  0  0  0  0  0  0  0
    0.1008   -2.3728    4.0175 H   0  0  0  0  0  0  0  0  0  0  0  0
   -0.7301   -0.3874    0.5892 H   0  0  0  0  0  0  0  0  0  0  0  0
    1.1933   -0.8774   -1.7574 H   0  0  0  0  0  0  0  0  0  0  0  0
    0.9381   -1.9771   -0.3846 H   0  0  0  0  0  0  0  0  0  0  0  0
   -0.3695   -1.6569   -1.5239 H   0  0  0  0  0  0  0  0  0  0  0  0
   -1.3477    2.2101    1.0394 H   0  0  0  0  0  0  0  0  0  0  0  0
   -2.6571    2.6861    3.0224 H   0  0  0  0  0  0  0  0  0  0  0  0
   -5.0274    1.9599    3.1725 H   0  0  0  0  0  0  0  0  0  0  0  0
   -6.0519    0.7439    1.2953 H   0  0  0  0  0  0  0  0  0  0  0  0
   -5.6103   -0.5037   -3.9316 H   0  0  0  0  0  0  0  0  0  0  0  0
   -4.2195   -0.3733   -5.9561 H   0  0  0  0  0  0  0  0  0  0  0  0
   -1.8294    0.2708   -5.7646 H   0  0  0  0  0  0  0  0  0  0  0  0
   -0.8652    0.8059   -3.6172 H   0  0  0  0  0  0  0  0  0  0  0  0
    4.3139    1.5613    1.0362 H   0  0  0  0  0  0  0  0  0  0  0  0
    4.2245    0.2836   -0.2112 H   0  0  0  0  0  0  0  0  0  0  0  0
    5.7611    0.6880    0.5440 H   0  0  0  0  0  0  0  0  0  0  0  0
  1  2  1  0
  2  3  1  0
  3  4  1  0
  4  5  2  0
  5  6  1  0
  6  7  2  0
  7  8  1  0
  8  9  1  0
  9 10  1  0
 10 11  1  0
 10 12  1  0
 12 13  2  0
 12 14  1  0
 14 15  1  0
 15 16  2  0
 16 17  1  0
 17 18  2  0
 18 19  1  0
 19 20  2  0
 20 21  1  0
 21 22  1  0
 22 23  2  0
 23 24  1  0
 24 25  2  0
 25 26  1  0
 26 27  2  0
  8 28  2  0
 28 29  1  0
 29 30  1  0
 29  2  2  0
 28  4  1  0
 27 14  1  0
 20 15  1  0
 27 22  1  0
  1 31  1  0
  1 32  1  0
  1 33  1  0
  6 34  1  0
 10 35  1  0
 11 36  1  0
 11 37  1  0
 11 38  1  0
 16 39  1  0
 17 40  1  0
 18 41  1  0
 19 42  1  0
 23 43  1  0
 24 44  1  0
 25 45  1  0
 26 46  1  0
 30 47  1  0
 30 48  1  0
 30 49  1  0
M  END
$$$$
