
     RDKit          3D

 32 32  0  0  0  0  0  0  0  0999 V2000
   -4.2644    1.6975   -2.5483 C   0  0  0  0  0  0  0  0  0  0  0  0
   -3.3365    0.9352   -2.5158 C   0  0  0  0  0  0  0  0  0  0  0  0
   -2.1963    0.0051   -2.4797 C   0  0  0  0  0  0  0  0  0  0  0  0
   -2.3972   -1.0806   -1.5161 N   0  0  0  0  0  0  0  0  0  0  0  0
   -1.4368   -2.1585   -1.7085 C   0  0  0  0  0  0  0  0  0  0  0  0
   -2.5514   -0.6634   -0.1168 C   0  0  0  0  0  0  0  0  0  0  0  0
   -1.5880    0.3657    0.4892 C   0  0  0  0  0  0  0  0  0  0  0  0
   -0.1398   -0.0947    0.5927 C   0  0  0  0  0  0  0  0  0  0  0  0
    0.5682    0.8715    1.3722 O   0  0  0  0  0  0  0  0  0  0  0  0
    1.9025    0.6631    1.6011 C   0  0  0  0  0  0  0  0  0  0  0  0
    2.6262   -0.4371    1.1284 C   0  0  0  0  0  0  0  0  0  0  0  0
    3.9900   -0.5623    1.4153 C   0  0  0  0  0  0  0  0  0  0  0  0
    4.6358    0.4103    2.1751 C   0  0  0  0  0  0  0  0  0  0  0  0
    6.3126    0.2470    2.5220 Cl  0  0  0  0  0  0  0  0  0  0  0  0
    3.9339    1.5107    2.6538 C   0  0  0  0  0  0  0  0  0  0  0  0
    2.5723    1.6345    2.3667 C   0  0  0  0  0  0  0  0  0  0  0  0
    1.7417    3.0213    2.9844 Cl  0  0  0  0  0  0  0  0  0  0  0  0
   -5.0915    2.3686   -2.5740 H   0  0  0  0  0  0  0  0  0  0  0  0
   -2.0955   -0.4193   -3.4871 H   0  0  0  0  0  0  0  0  0  0  0  0
   -1.2654    0.5489   -2.2817 H   0  0  0  0  0  0  0  0  0  0  0  0
   -1.5356   -2.5799   -2.7155 H   0  0  0  0  0  0  0  0  0  0  0  0
   -1.6266   -2.9840   -1.0136 H   0  0  0  0  0  0  0  0  0  0  0  0
   -0.4001   -1.8357   -1.5850 H   0  0  0  0  0  0  0  0  0  0  0  0
   -2.5670   -1.5527    0.5276 H   0  0  0  0  0  0  0  0  0  0  0  0
   -3.5632   -0.2488   -0.0140 H   0  0  0  0  0  0  0  0  0  0  0  0
   -1.9464    0.6105    1.4985 H   0  0  0  0  0  0  0  0  0  0  0  0
   -1.6324    1.3163   -0.0557 H   0  0  0  0  0  0  0  0  0  0  0  0
   -0.0978   -1.0739    1.0834 H   0  0  0  0  0  0  0  0  0  0  0  0
    0.3059   -0.1437   -0.4053 H   0  0  0  0  0  0  0  0  0  0  0  0
    2.1618   -1.2171    0.5338 H   0  0  0  0  0  0  0  0  0  0  0  0
    4.5413   -1.4224    1.0423 H   0  0  0  0  0  0  0  0  0  0  0  0
    4.4396    2.2680    3.2463 H   0  0  0  0  0  0  0  0  0  0  0  0
  1  2  3  0
  2  3  1  0
  3  4  1  0
  4  5  1  0
  4  6  1  0
  6  7  1  0
  7  8  1  0
  8  9  1  0
  9 10  1  0
 10 11  2  0
 11 12  1  0
 12 13  2  0
 13 14  1  0
 13 15  1  0
 15 16  2  0
 16 17  1  0
 16 10  1  0
  1 18  1  0
  3 19  1  0
  3 20  1  0
  5 21  1  0
  5 22  1  0
  5 23  1  0
  6 24  1  0
  6 25  1  0
  7 26  1  0
  7 27  1  0
  8 28  1  0
  8 29  1  0
 11 30  1  0
 12 31  1  0
 15 32  1  0
M  END
$$$$
