
     RDKit          3D

 40 41  0  0  0  0  0  0  0  0999 V2000
   -2.0259   -4.5709   -3.7991 C   0  0  0  0  0  0  0  0  0  0  0  0
   -1.9463   -3.2381   -4.5240 C   0  0  0  0  0  0  0  0  0  0  0  0
   -1.3663   -2.2403   -3.6836 O   0  0  0  0  0  0  0  0  0  0  0  0
   -2.2542   -1.5073   -2.9266 C   0  0  0  0  0  0  0  0  0  0  0  0
   -3.5442   -1.9245   -2.8565 N   0  0  0  0  0  0  0  0  0  0  0  0
   -4.3812   -1.2269   -2.0581 C   0  0  0  0  0  0  0  0  0  0  0  0
   -3.9942   -0.1281   -1.3110 C   0  0  0  0  0  0  0  0  0  0  0  0
   -2.6674    0.2838   -1.3890 C   0  0  0  0  0  0  0  0  0  0  0  0
   -1.7737   -0.4162   -2.2101 C   0  0  0  0  0  0  0  0  0  0  0  0
   -0.3667    0.0137   -2.3298 C   0  0  0  0  0  0  0  0  0  0  0  0
    0.2901    0.0117   -3.3557 O   0  0  0  0  0  0  0  0  0  0  0  0
    0.0683    0.4170   -1.1094 O   0  0  0  0  0  0  0  0  0  0  0  0
    1.4322    0.8446   -1.1014 C   0  0  0  0  0  0  0  0  0  0  0  0
    1.7614    1.2918    0.3004 C   0  0  0  0  0  0  0  0  0  0  0  0
    1.7368    2.6506    0.6409 C   0  0  0  0  0  0  0  0  0  0  0  0
    2.0224    3.0582    1.9470 C   0  0  0  0  0  0  0  0  0  0  0  0
    2.3298    2.1126    2.9339 C   0  0  0  0  0  0  0  0  0  0  0  0
    2.6235    2.6021    4.3086 C   0  0  0  0  0  0  0  0  0  0  0  0
    2.5975    3.7815    4.6243 O   0  0  0  0  0  0  0  0  0  0  0  0
    2.9173    1.5668    5.1347 O   0  0  0  0  0  0  0  0  0  0  0  0
    3.2139    1.9611    6.4750 C   0  0  0  0  0  0  0  0  0  0  0  0
    2.3451    0.7526    2.5996 C   0  0  0  0  0  0  0  0  0  0  0  0
    2.0592    0.3467    1.2925 C   0  0  0  0  0  0  0  0  0  0  0  0
   -1.0391   -4.8633   -3.4249 H   0  0  0  0  0  0  0  0  0  0  0  0
   -2.3941   -5.3534   -4.4688 H   0  0  0  0  0  0  0  0  0  0  0  0
   -2.6904   -4.5148   -2.9317 H   0  0  0  0  0  0  0  0  0  0  0  0
   -1.2717   -3.3503   -5.3805 H   0  0  0  0  0  0  0  0  0  0  0  0
   -2.9143   -2.9354   -4.9413 H   0  0  0  0  0  0  0  0  0  0  0  0
   -5.4054   -1.5893   -2.0323 H   0  0  0  0  0  0  0  0  0  0  0  0
   -4.7079    0.3956   -0.6841 H   0  0  0  0  0  0  0  0  0  0  0  0
   -2.3373    1.1473   -0.8168 H   0  0  0  0  0  0  0  0  0  0  0  0
    2.0921    0.0173   -1.3910 H   0  0  0  0  0  0  0  0  0  0  0  0
    1.5754    1.6723   -1.8070 H   0  0  0  0  0  0  0  0  0  0  0  0
    1.4937    3.4023   -0.1075 H   0  0  0  0  0  0  0  0  0  0  0  0
    2.0015    4.1188    2.1919 H   0  0  0  0  0  0  0  0  0  0  0  0
    2.3509    2.4588    6.9282 H   0  0  0  0  0  0  0  0  0  0  0  0
    4.0939    2.6117    6.4976 H   0  0  0  0  0  0  0  0  0  0  0  0
    3.4356    1.0592    7.0520 H   0  0  0  0  0  0  0  0  0  0  0  0
    2.5739   -0.0045    3.3455 H   0  0  0  0  0  0  0  0  0  0  0  0
    2.0653   -0.7148    1.0514 H   0  0  0  0  0  0  0  0  0  0  0  0
  1  2  1  0
  2  3  1  0
  3  4  1  0
  4  5  2  0
  5  6  1  0
  6  7  2  0
  7  8  1  0
  8  9  2  0
  9 10  1  0
 10 11  2  0
 10 12  1  0
 12 13  1  0
 13 14  1  0
 14 15  2  0
 15 16  1  0
 16 17  2  0
 17 18  1  0
 18 19  2  0
 18 20  1  0
 20 21  1  0
 17 22  1  0
 22 23  2  0
  9  4  1  0
 23 14  1  0
  1 24  1  0
  1 25  1  0
  1 26  1  0
  2 27  1  0
  2 28  1  0
  6 29  1  0
  7 30  1  0
  8 31  1  0
 13 32  1  0
 13 33  1  0
 15 34  1  0
 16 35  1  0
 21 36  1  0
 21 37  1  0
 21 38  1  0
 22 39  1  0
 23 40  1  0
M  END
$$$$
