
     RDKit          3D

 56 58  0  0  0  0  0  0  0  0999 V2000
   10.5495    2.2104   -0.5981 C   0  0  0  0  0  0  0  0  0  0  0  0
    9.2426    1.4516   -0.7532 C   0  0  0  0  0  0  0  0  0  0  0  0
    8.6404    1.3447    0.5359 O   0  0  0  0  0  0  0  0  0  0  0  0
    7.3589    0.8718    0.5858 C   0  0  0  0  0  0  0  0  0  0  0  0
    6.7305    1.0126    1.8238 C   0  0  0  0  0  0  0  0  0  0  0  0
    5.4073    0.5910    2.0127 C   0  0  0  0  0  0  0  0  0  0  0  0
    4.6937    0.0185    0.9621 C   0  0  0  0  0  0  0  0  0  0  0  0
    3.3492   -0.4012    1.0529 N   0  0  0  0  0  0  0  0  0  0  0  0
    2.5062   -0.2981    2.1468 C   0  0  0  0  0  0  0  0  0  0  0  0
    2.7853    0.1403    3.2580 O   0  0  0  0  0  0  0  0  0  0  0  0
    1.0858   -0.7115    1.8317 C   0  0  0  0  0  0  0  0  0  0  0  0
    0.3330    0.5185    1.3473 C   0  0  0  0  0  0  0  0  0  0  0  0
   -1.0812    0.1964    1.0165 N   0  0  0  0  0  0  0  0  0  0  0  0
   -1.3444   -0.2963   -0.5864 S   0  0  0  0  0  6  0  0  0  0  0  0
   -1.1904    0.8799   -1.4116 O   0  0  0  0  0  0  0  0  0  0  0  0
   -0.5755   -1.4978   -0.8256 O   0  0  0  0  0  0  0  0  0  0  0  0
   -3.0640   -0.7244   -0.5318 C   0  0  0  0  0  0  0  0  0  0  0  0
   -3.4516   -2.0299   -0.2276 C   0  0  0  0  0  0  0  0  0  0  0  0
   -4.8137   -2.3586   -0.1950 C   0  0  0  0  0  0  0  0  0  0  0  0
   -5.7992   -1.3926   -0.4695 C   0  0  0  0  0  0  0  0  0  0  0  0
   -5.3847   -0.0969   -0.7805 C   0  0  0  0  0  0  0  0  0  0  0  0
   -4.0237    0.2442   -0.8235 C   0  0  0  0  0  0  0  0  0  0  0  0
   -6.3933    0.9382   -1.0550 C   0  0  0  0  0  0  0  0  0  0  0  0
   -6.0186    2.0929   -1.2539 O   0  0  0  0  0  0  0  0  0  0  0  0
   -7.7169    0.5343   -1.0515 N   0  0  0  0  0  0  0  0  0  0  0  0
   -8.7313    1.5404   -1.3161 C   0  0  0  0  0  0  0  0  0  0  0  0
   -8.1637   -0.7361   -0.7029 C   0  0  0  0  0  0  0  0  0  0  0  0
   -9.3679   -0.9950   -0.6313 O   0  0  0  0  0  0  0  0  0  0  0  0
   -7.1876   -1.6915   -0.4319 N   0  0  0  0  0  0  0  0  0  0  0  0
   -7.6273   -3.0367   -0.0807 C   0  0  0  0  0  0  0  0  0  0  0  0
    5.3345   -0.1412   -0.2740 C   0  0  0  0  0  0  0  0  0  0  0  0
    6.6598    0.2799   -0.4632 C   0  0  0  0  0  0  0  0  0  0  0  0
   10.3590    3.2172   -0.2155 H   0  0  0  0  0  0  0  0  0  0  0  0
   11.0804    2.2840   -1.5540 H   0  0  0  0  0  0  0  0  0  0  0  0
   11.2012    1.7104    0.1308 H   0  0  0  0  0  0  0  0  0  0  0  0
    9.4512    0.4512   -1.1554 H   0  0  0  0  0  0  0  0  0  0  0  0
    8.5914    2.0056   -1.4408 H   0  0  0  0  0  0  0  0  0  0  0  0
    7.2665    1.4687    2.6535 H   0  0  0  0  0  0  0  0  0  0  0  0
    4.9695    0.7308    2.9948 H   0  0  0  0  0  0  0  0  0  0  0  0
    2.9593   -0.8098    0.2101 H   0  0  0  0  0  0  0  0  0  0  0  0
    1.0895   -1.5148    1.0880 H   0  0  0  0  0  0  0  0  0  0  0  0
    0.6266   -1.1284    2.7396 H   0  0  0  0  0  0  0  0  0  0  0  0
    0.3180    1.2786    2.1398 H   0  0  0  0  0  0  0  0  0  0  0  0
    0.8288    0.9942    0.4894 H   0  0  0  0  0  0  0  0  0  0  0  0
   -1.6746    1.0043    1.2107 H   0  0  0  0  0  0  0  0  0  0  0  0
   -2.7059   -2.7951   -0.0119 H   0  0  0  0  0  0  0  0  0  0  0  0
   -5.0742   -3.3857    0.0513 H   0  0  0  0  0  0  0  0  0  0  0  0
   -3.7242    1.2596   -1.0826 H   0  0  0  0  0  0  0  0  0  0  0  0
   -9.1629    1.8536   -0.3584 H   0  0  0  0  0  0  0  0  0  0  0  0
   -9.5281    1.1199   -1.9394 H   0  0  0  0  0  0  0  0  0  0  0  0
   -8.3154    2.4157   -1.8224 H   0  0  0  0  0  0  0  0  0  0  0  0
   -7.2924   -3.2742    0.9355 H   0  0  0  0  0  0  0  0  0  0  0  0
   -7.2142   -3.7537   -0.7967 H   0  0  0  0  0  0  0  0  0  0  0  0
   -8.7160   -3.1335   -0.1061 H   0  0  0  0  0  0  0  0  0  0  0  0
    4.8124   -0.5889   -1.1161 H   0  0  0  0  0  0  0  0  0  0  0  0
    7.1121    0.1321   -1.4384 H   0  0  0  0  0  0  0  0  0  0  0  0
  1  2  1  0
  2  3  1  0
  3  4  1  0
  4  5  2  0
  5  6  1  0
  6  7  2  0
  7  8  1  0
  8  9  1  0
  9 10  2  0
  9 11  1  0
 11 12  1  0
 12 13  1  0
 13 14  1  0
 14 15  2  0
 14 16  2  0
 14 17  1  0
 17 18  2  0
 18 19  1  0
 19 20  2  0
 20 21  1  0
 21 22  2  0
 21 23  1  0
 23 24  2  0
 23 25  1  0
 25 26  1  0
 25 27  1  0
 27 28  2  0
 27 29  1  0
 29 30  1  0
  7 31  1  0
 31 32  2  0
 32  4  1  0
 22 17  1  0
 29 20  1  0
  1 33  1  0
  1 34  1  0
  1 35  1  0
  2 36  1  0
  2 37  1  0
  5 38  1  0
  6 39  1  0
  8 40  1  0
 11 41  1  0
 11 42  1  0
 12 43  1  0
 12 44  1  0
 13 45  1  0
 18 46  1  0
 19 47  1  0
 22 48  1  0
 26 49  1  0
 26 50  1  0
 26 51  1  0
 30 52  1  0
 30 53  1  0
 30 54  1  0
 31 55  1  0
 32 56  1  0
M  END
$$$$
