
     RDKit          3D

 39 39  0  0  0  0  0  0  0  0999 V2000
   -2.4858   -3.1535    0.4438 C   0  0  0  0  0  0  0  0  0  0  0  0
   -1.4389   -2.4240    1.2626 C   0  0  0  0  0  0  0  0  0  0  0  0
   -1.0802   -1.2281    0.5600 O   0  0  0  0  0  0  0  0  0  0  0  0
   -0.1550   -0.4428    1.2095 C   0  0  0  0  0  0  0  0  0  0  0  0
    0.3509   -0.7593    2.2806 O   0  0  0  0  0  0  0  0  0  0  0  0
    0.2108    0.8051    0.3623 C   0  0  0  0  0  0  0  0  0  0  0  0
   -0.8960    1.1088   -0.5668 N   0  0  0  0  0  0  0  0  0  0  0  0
   -2.0891    1.6274   -0.1326 C   0  0  0  0  0  0  0  0  0  0  0  0
   -2.2692    1.9998    1.0166 O   0  0  0  0  0  0  0  0  0  0  0  0
   -3.1461    1.6718   -1.2176 C   0  0  0  0  0  0  0  0  0  0  0  0
   -4.4479    2.2818   -0.7302 C   0  0  0  0  0  0  0  0  0  0  0  0
    1.2100    0.5032   -0.7075 N   0  0  0  0  0  0  0  0  0  0  0  0
    2.4917   -0.0106   -0.5817 C   0  0  0  0  0  0  0  0  0  0  0  0
    3.2645   -0.0911   -1.7554 C   0  0  0  0  0  0  0  0  0  0  0  0
    4.5461   -0.6507   -1.7655 C   0  0  0  0  0  0  0  0  0  0  0  0
    5.0826   -1.1654   -0.5938 C   0  0  0  0  0  0  0  0  0  0  0  0
    4.3305   -1.1228    0.5740 C   0  0  0  0  0  0  0  0  0  0  0  0
    3.0454   -0.5615    0.5733 C   0  0  0  0  0  0  0  0  0  0  0  0
    0.6273    1.9486    1.3451 C   0  0  0  0  0  0  0  0  0  0  0  0
    1.8854    1.7861    1.8284 F   0  0  0  0  0  0  0  0  0  0  0  0
   -0.1758    2.0834    2.4216 F   0  0  0  0  0  0  0  0  0  0  0  0
    0.6362    3.1476    0.6950 F   0  0  0  0  0  0  0  0  0  0  0  0
   -2.0963   -3.3981   -0.5500 H   0  0  0  0  0  0  0  0  0  0  0  0
   -2.7950   -4.0778    0.9396 H   0  0  0  0  0  0  0  0  0  0  0  0
   -3.3667   -2.5206    0.2931 H   0  0  0  0  0  0  0  0  0  0  0  0
   -1.8504   -2.1679    2.2452 H   0  0  0  0  0  0  0  0  0  0  0  0
   -0.5545   -3.0592    1.3842 H   0  0  0  0  0  0  0  0  0  0  0  0
   -0.9403    0.4572   -1.3377 H   0  0  0  0  0  0  0  0  0  0  0  0
   -3.3297    0.6491   -1.5656 H   0  0  0  0  0  0  0  0  0  0  0  0
   -2.7581    2.2582   -2.0578 H   0  0  0  0  0  0  0  0  0  0  0  0
   -5.1860    2.3010   -1.5379 H   0  0  0  0  0  0  0  0  0  0  0  0
   -4.2946    3.3085   -0.3816 H   0  0  0  0  0  0  0  0  0  0  0  0
   -4.8655    1.7044    0.1013 H   0  0  0  0  0  0  0  0  0  0  0  0
    1.2146    1.2803   -1.3671 H   0  0  0  0  0  0  0  0  0  0  0  0
    2.8642    0.2832   -2.6956 H   0  0  0  0  0  0  0  0  0  0  0  0
    5.1161   -0.6881   -2.6898 H   0  0  0  0  0  0  0  0  0  0  0  0
    6.0773   -1.6021   -0.5894 H   0  0  0  0  0  0  0  0  0  0  0  0
    4.7385   -1.5265    1.4978 H   0  0  0  0  0  0  0  0  0  0  0  0
    2.5288   -0.5556    1.5250 H   0  0  0  0  0  0  0  0  0  0  0  0
  1  2  1  0
  2  3  1  0
  3  4  1  0
  4  5  2  0
  4  6  1  0
  6  7  1  0
  7  8  1  0
  8  9  2  0
  8 10  1  0
 10 11  1  0
  6 12  1  0
 12 13  1  0
 13 14  2  0
 14 15  1  0
 15 16  2  0
 16 17  1  0
 17 18  2  0
  6 19  1  0
 19 20  1  0
 19 21  1  0
 19 22  1  0
 18 13  1  0
  1 23  1  0
  1 24  1  0
  1 25  1  0
  2 26  1  0
  2 27  1  0
  7 28  1  0
 10 29  1  0
 10 30  1  0
 11 31  1  0
 11 32  1  0
 11 33  1  0
 12 34  1  0
 14 35  1  0
 15 36  1  0
 16 37  1  0
 17 38  1  0
 18 39  1  0
M  END
$$$$
