
     RDKit          3D

 51 55  0  0  0  0  0  0  0  0999 V2000
    1.3279   -2.1638    0.1162 O   0  0  0  0  0  0  0  0  0  0  0  0
    1.4348   -0.9492    0.2861 C   0  0  0  0  0  0  0  0  0  0  0  0
    0.6729   -0.1911    1.3825 C   0  0  0  0  0  0  0  0  0  0  0  0
   -0.7644   -0.4365    1.2877 N   0  0  0  0  0  0  0  0  0  0  0  0
   -1.4364    0.2005    0.2503 C   0  0  0  0  0  0  0  0  0  0  0  0
   -0.8846    1.0106   -0.5011 O   0  0  0  0  0  0  0  0  0  0  0  0
   -2.8800   -0.1747    0.0241 C   0  0  0  0  0  0  0  0  0  0  0  0
   -3.7896    0.7093    0.8595 C   0  0  0  0  0  0  0  0  0  0  0  0
   -5.2366    0.3774    0.6619 C   0  0  0  0  0  0  0  0  0  0  0  0
   -6.3842    1.1547    0.6223 C   0  0  0  0  0  0  0  0  0  0  0  0
   -7.4613    0.2687    0.3736 C   0  0  0  0  0  0  0  0  0  0  0  0
   -6.9079   -0.9918    0.2831 C   0  0  0  0  0  0  0  0  0  0  0  0
   -5.5595   -0.9391    0.4659 O   0  0  0  0  0  0  0  0  0  0  0  0
   -3.4050    0.7539    2.6543 S   0  0  0  0  0  0  0  0  0  0  0  0
   -2.6219   -0.8406    2.9008 C   0  0  0  0  0  0  0  0  0  0  0  0
   -3.1935   -1.6607    3.8898 C   0  0  0  0  0  0  0  0  0  0  0  0
   -2.5816   -2.8557    4.2749 C   0  0  0  0  0  0  0  0  0  0  0  0
   -1.3792   -3.2327    3.6894 C   0  0  0  0  0  0  0  0  0  0  0  0
   -0.7923   -2.4200    2.7139 C   0  0  0  0  0  0  0  0  0  0  0  0
   -1.4032   -1.2235    2.2956 C   0  0  0  0  0  0  0  0  0  0  0  0
    2.2638   -0.1551   -0.4818 N   0  0  0  0  0  0  0  0  0  0  0  0
    2.9538   -0.7154   -1.6201 C   0  0  0  0  0  0  0  0  0  0  0  0
    4.0805    0.1887   -2.0587 C   0  0  0  0  0  0  0  0  0  0  0  0
    5.2651    0.2577   -1.2843 C   0  0  0  0  0  0  0  0  0  0  0  0
    6.3267    1.0873   -1.6604 C   0  0  0  0  0  0  0  0  0  0  0  0
    6.1772    1.8344   -2.8096 C   0  0  0  0  0  0  0  0  0  0  0  0
    5.0286    1.7833   -3.5641 C   0  0  0  0  0  0  0  0  0  0  0  0
    3.9620    0.9769   -3.2165 C   0  0  0  0  0  0  0  0  0  0  0  0
    5.0882    2.5982   -4.6511 O   0  0  0  0  0  0  0  0  0  0  0  0
    6.4153    3.1482   -4.5066 C   0  0  0  0  0  0  0  0  0  0  0  0
    7.1031    2.6856   -3.3267 O   0  0  0  0  0  0  0  0  0  0  0  0
    0.8489    0.8923    1.2909 H   0  0  0  0  0  0  0  0  0  0  0  0
    1.0705   -0.4940    2.3620 H   0  0  0  0  0  0  0  0  0  0  0  0
   -3.0298   -1.2496    0.1978 H   0  0  0  0  0  0  0  0  0  0  0  0
   -3.0985   -0.0350   -1.0447 H   0  0  0  0  0  0  0  0  0  0  0  0
   -3.6465    1.7474    0.5278 H   0  0  0  0  0  0  0  0  0  0  0  0
   -6.4338    2.2316    0.7551 H   0  0  0  0  0  0  0  0  0  0  0  0
   -8.5084    0.5226    0.2613 H   0  0  0  0  0  0  0  0  0  0  0  0
   -7.3142   -1.9779    0.0978 H   0  0  0  0  0  0  0  0  0  0  0  0
   -4.1186   -1.3663    4.3822 H   0  0  0  0  0  0  0  0  0  0  0  0
   -3.0375   -3.4832    5.0418 H   0  0  0  0  0  0  0  0  0  0  0  0
   -0.8965   -4.1652    3.9836 H   0  0  0  0  0  0  0  0  0  0  0  0
    0.1325   -2.7673    2.2571 H   0  0  0  0  0  0  0  0  0  0  0  0
    2.0353    0.8321   -0.5369 H   0  0  0  0  0  0  0  0  0  0  0  0
    3.3473   -1.7084   -1.3694 H   0  0  0  0  0  0  0  0  0  0  0  0
    2.2197   -0.8512   -2.4245 H   0  0  0  0  0  0  0  0  0  0  0  0
    5.3560   -0.3440   -0.3805 H   0  0  0  0  0  0  0  0  0  0  0  0
    7.2405    1.1434   -1.0719 H   0  0  0  0  0  0  0  0  0  0  0  0
    3.0670    0.9592   -3.8314 H   0  0  0  0  0  0  0  0  0  0  0  0
    6.3398    4.2420   -4.4617 H   0  0  0  0  0  0  0  0  0  0  0  0
    7.0078    2.8704   -5.3873 H   0  0  0  0  0  0  0  0  0  0  0  0
  1  2  2  0
  2  3  1  0
  3  4  1  0
  4  5  1  0
  5  6  2  0
  5  7  1  0
  7  8  1  0
  8  9  1  0
  9 10  2  0
 10 11  1  0
 11 12  2  0
 12 13  1  0
  8 14  1  0
 14 15  1  0
 15 16  2  0
 16 17  1  0
 17 18  2  0
 18 19  1  0
 19 20  2  0
  2 21  1  0
 21 22  1  0
 22 23  1  0
 23 24  2  0
 24 25  1  0
 25 26  2  0
 26 27  1  0
 27 28  2  0
 27 29  1  0
 29 30  1  0
 30 31  1  0
 20  4  1  0
 28 23  1  0
 13  9  1  0
 20 15  1  0
 31 26  1  0
  3 32  1  0
  3 33  1  0
  7 34  1  0
  7 35  1  0
  8 36  1  0
 10 37  1  0
 11 38  1  0
 12 39  1  0
 16 40  1  0
 17 41  1  0
 18 42  1  0
 19 43  1  0
 21 44  1  0
 22 45  1  0
 22 46  1  0
 24 47  1  0
 25 48  1  0
 28 49  1  0
 30 50  1  0
 30 51  1  0
M  END
$$$$
