
     RDKit          3D

 61 65  0  0  0  0  0  0  0  0999 V2000
   -7.7389   -1.1146   -4.0336 C   0  0  0  0  0  0  0  0  0  0  0  0
   -6.5575   -1.2786   -3.1304 C   0  0  0  0  0  0  0  0  0  0  0  0
   -6.6743   -1.0079   -1.7671 C   0  0  0  0  0  0  0  0  0  0  0  0
   -5.5859   -1.2004   -0.9104 C   0  0  0  0  0  0  0  0  0  0  0  0
   -4.3613   -1.6796   -1.3996 C   0  0  0  0  0  0  0  0  0  0  0  0
   -3.2483   -1.8991   -0.5194 N   0  0  0  0  0  0  0  0  0  0  0  0
   -2.8072   -0.9520    0.4025 C   0  0  0  0  0  0  0  0  0  0  0  0
   -3.3420    0.7237    0.2940 S   0  0  0  0  0  0  0  0  0  0  0  0
   -2.3245    1.2245   -1.1183 C   0  0  0  0  0  0  0  0  0  0  0  0
   -0.8567    0.9205   -0.8709 C   0  0  0  0  0  0  0  0  0  0  0  0
   -0.3336   -0.0712   -1.3725 O   0  0  0  0  0  0  0  0  0  0  0  0
   -0.2446    1.8606   -0.0634 N   0  0  0  0  0  0  0  0  0  0  0  0
    1.1072    1.9026    0.3259 C   0  0  0  0  0  0  0  0  0  0  0  0
    1.5180    2.9944    1.0930 C   0  0  0  0  0  0  0  0  0  0  0  0
    2.8591    3.1330    1.4858 C   0  0  0  0  0  0  0  0  0  0  0  0
    3.8392    2.1948    1.1307 C   0  0  0  0  0  0  0  0  0  0  0  0
    5.1705    2.3331    1.4985 N   0  0  0  0  0  0  0  0  0  0  0  0
    6.2409    1.7865    0.6408 C   0  0  0  0  0  0  0  0  0  0  0  0
    7.3796    2.8085    0.4927 C   0  0  0  0  0  0  0  0  0  0  0  0
    7.9842    3.1906    1.7350 O   0  0  0  0  0  0  0  0  0  0  0  0
    7.0703    3.1624    2.8404 C   0  0  0  0  0  0  0  0  0  0  0  0
    5.6019    3.3780    2.4428 C   0  0  0  0  0  0  0  0  0  0  0  0
    3.3902    1.0843    0.3986 C   0  0  0  0  0  0  0  0  0  0  0  0
    2.0520    0.9389   -0.0070 C   0  0  0  0  0  0  0  0  0  0  0  0
   -1.9319   -1.1657    1.3297 N   0  0  0  0  0  0  0  0  0  0  0  0
   -1.3212   -2.4190    1.3880 C   0  0  0  0  0  0  0  0  0  0  0  0
   -0.3695   -2.6613    2.3829 C   0  0  0  0  0  0  0  0  0  0  0  0
    0.2930   -3.8901    2.4503 C   0  0  0  0  0  0  0  0  0  0  0  0
    0.0108   -4.8871    1.5179 C   0  0  0  0  0  0  0  0  0  0  0  0
   -0.9371   -4.6546    0.5225 C   0  0  0  0  0  0  0  0  0  0  0  0
   -1.5972   -3.4187    0.4625 C   0  0  0  0  0  0  0  0  0  0  0  0
   -2.6287   -3.1555   -0.5610 C   0  0  0  0  0  0  0  0  0  0  0  0
   -2.9028   -4.0725   -1.3411 O   0  0  0  0  0  0  0  0  0  0  0  0
   -4.2611   -1.9783   -2.7626 C   0  0  0  0  0  0  0  0  0  0  0  0
   -5.3453   -1.7749   -3.6196 C   0  0  0  0  0  0  0  0  0  0  0  0
   -8.3568   -0.2696   -3.7185 H   0  0  0  0  0  0  0  0  0  0  0  0
   -8.3475   -2.0193   -4.0170 H   0  0  0  0  0  0  0  0  0  0  0  0
   -7.4221   -0.9198   -5.0605 H   0  0  0  0  0  0  0  0  0  0  0  0
   -7.6202   -0.6565   -1.3591 H   0  0  0  0  0  0  0  0  0  0  0  0
   -5.7253   -1.0092    0.1502 H   0  0  0  0  0  0  0  0  0  0  0  0
   -2.4518    2.2949   -1.2903 H   0  0  0  0  0  0  0  0  0  0  0  0
   -2.6481    0.7175   -2.0291 H   0  0  0  0  0  0  0  0  0  0  0  0
   -0.8372    2.5911    0.3047 H   0  0  0  0  0  0  0  0  0  0  0  0
    0.8134    3.7677    1.3879 H   0  0  0  0  0  0  0  0  0  0  0  0
    3.1208    4.0214    2.0538 H   0  0  0  0  0  0  0  0  0  0  0  0
    6.6246    0.8714    1.1053 H   0  0  0  0  0  0  0  0  0  0  0  0
    5.8829    1.5419   -0.3634 H   0  0  0  0  0  0  0  0  0  0  0  0
    8.1685    2.4013   -0.1436 H   0  0  0  0  0  0  0  0  0  0  0  0
    7.0102    3.7199    0.0105 H   0  0  0  0  0  0  0  0  0  0  0  0
    7.1928    2.1986    3.3452 H   0  0  0  0  0  0  0  0  0  0  0  0
    7.3846    3.9419    3.5417 H   0  0  0  0  0  0  0  0  0  0  0  0
    4.9888    3.3516    3.3483 H   0  0  0  0  0  0  0  0  0  0  0  0
    5.5002    4.3612    1.9705 H   0  0  0  0  0  0  0  0  0  0  0  0
    4.0787    0.2841    0.1364 H   0  0  0  0  0  0  0  0  0  0  0  0
    1.7875    0.0472   -0.5677 H   0  0  0  0  0  0  0  0  0  0  0  0
   -0.1351   -1.8795    3.1015 H   0  0  0  0  0  0  0  0  0  0  0  0
    1.0338   -4.0631    3.2284 H   0  0  0  0  0  0  0  0  0  0  0  0
    0.5312   -5.8421    1.5624 H   0  0  0  0  0  0  0  0  0  0  0  0
   -1.1592   -5.4301   -0.2072 H   0  0  0  0  0  0  0  0  0  0  0  0
   -3.3315   -2.3661   -3.1776 H   0  0  0  0  0  0  0  0  0  0  0  0
   -5.2302   -2.0120   -4.6705 H   0  0  0  0  0  0  0  0  0  0  0  0
  1  2  1  0
  2  3  2  0
  3  4  1  0
  4  5  2  0
  5  6  1  0
  6  7  1  0
  7  8  1  0
  8  9  1  0
  9 10  1  0
 10 11  2  0
 10 12  1  0
 12 13  1  0
 13 14  2  0
 14 15  1  0
 15 16  2  0
 16 17  1  0
 17 18  1  0
 18 19  1  0
 19 20  1  0
 20 21  1  0
 21 22  1  0
 16 23  1  0
 23 24  2  0
  7 25  2  0
 25 26  1  0
 26 27  2  0
 27 28  1  0
 28 29  2  0
 29 30  1  0
 30 31  2  0
 31 32  1  0
 32 33  2  0
  5 34  1  0
 34 35  2  0
 35  2  1  0
 32  6  1  0
 24 13  1  0
 31 26  1  0
 22 17  1  0
  1 36  1  0
  1 37  1  0
  1 38  1  0
  3 39  1  0
  4 40  1  0
  9 41  1  0
  9 42  1  0
 12 43  1  0
 14 44  1  0
 15 45  1  0
 18 46  1  0
 18 47  1  0
 19 48  1  0
 19 49  1  0
 21 50  1  0
 21 51  1  0
 22 52  1  0
 22 53  1  0
 23 54  1  0
 24 55  1  0
 27 56  1  0
 28 57  1  0
 29 58  1  0
 30 59  1  0
 34 60  1  0
 35 61  1  0
M  END
$$$$
