
     RDKit          3D

 34 36  0  0  0  0  0  0  0  0999 V2000
    3.1948   -2.0616    0.5766 C   0  0  0  0  0  0  0  0  0  0  0  0
    3.8941   -0.7987    0.4890 N   0  0  0  0  0  0  0  0  0  0  0  0
    5.1993   -0.8087    0.1463 N   0  0  0  0  0  0  0  0  0  0  0  0
    5.5643    0.4693    0.2713 C   0  0  0  0  0  0  0  0  0  0  0  0
    4.4944    1.2933    0.6582 C   0  0  0  0  0  0  0  0  0  0  0  0
    4.5843    2.9692    0.8918 Cl  0  0  0  0  0  0  0  0  0  0  0  0
    3.4009    0.4565    0.7570 C   0  0  0  0  0  0  0  0  0  0  0  0
    2.0433    0.7854    1.1236 C   0  0  0  0  0  0  0  0  0  0  0  0
    1.8017    1.4527    2.1200 O   0  0  0  0  0  0  0  0  0  0  0  0
    1.1192    0.2801    0.2297 N   0  0  0  0  0  0  0  0  0  0  0  0
   -0.2650    0.3768    0.2802 C   0  0  0  0  0  0  0  0  0  0  0  0
   -1.0595    1.1521    1.5818 S   0  0  0  0  0  0  0  0  0  0  0  0
   -2.5429    0.8752    0.8794 C   0  0  0  0  0  0  0  0  0  0  0  0
   -2.4866    0.1975   -0.3078 C   0  0  0  0  0  0  0  0  0  0  0  0
   -1.1489   -0.1379   -0.6782 C   0  0  0  0  0  0  0  0  0  0  0  0
   -0.6636   -0.8789   -1.8420 C   0  0  0  0  0  0  0  0  0  0  0  0
   -1.5969   -1.4414   -2.6604 N   0  0  0  0  0  0  0  0  0  0  0  0
    0.5333   -1.0337   -2.0788 O   0  0  0  0  0  0  0  0  0  0  0  0
   -3.8573    0.0147   -0.8577 C   0  0  0  0  0  0  0  0  0  0  0  0
   -4.7107    0.9909    0.0096 C   0  0  0  0  0  0  0  0  0  0  0  0
   -3.9085    1.2427    1.3185 C   0  0  0  0  0  0  0  0  0  0  0  0
    3.9106   -2.8485    0.8296 H   0  0  0  0  0  0  0  0  0  0  0  0
    2.4355   -2.0029    1.3597 H   0  0  0  0  0  0  0  0  0  0  0  0
    2.7381   -2.2650   -0.3946 H   0  0  0  0  0  0  0  0  0  0  0  0
    6.5914    0.7461    0.0719 H   0  0  0  0  0  0  0  0  0  0  0  0
    1.4700   -0.1582   -0.6212 H   0  0  0  0  0  0  0  0  0  0  0  0
   -2.5714   -1.5064   -2.4172 H   0  0  0  0  0  0  0  0  0  0  0  0
   -1.2535   -2.0250   -3.4112 H   0  0  0  0  0  0  0  0  0  0  0  0
   -4.1937   -1.0171   -0.7112 H   0  0  0  0  0  0  0  0  0  0  0  0
   -3.9293    0.2768   -1.9169 H   0  0  0  0  0  0  0  0  0  0  0  0
   -4.8221    1.9412   -0.5295 H   0  0  0  0  0  0  0  0  0  0  0  0
   -5.7159    0.6044    0.2039 H   0  0  0  0  0  0  0  0  0  0  0  0
   -3.9960    2.2827    1.6441 H   0  0  0  0  0  0  0  0  0  0  0  0
   -4.2535    0.5763    2.1157 H   0  0  0  0  0  0  0  0  0  0  0  0
  1  2  1  0
  2  3  1  0
  3  4  2  0
  4  5  1  0
  5  6  1  0
  5  7  2  0
  7  8  1  0
  8  9  2  0
  8 10  1  0
 10 11  1  0
 11 12  1  0
 12 13  1  0
 13 14  2  0
 14 15  1  0
 15 16  1  0
 16 17  1  0
 16 18  2  0
 14 19  1  0
 19 20  1  0
 20 21  1  0
  7  2  1  0
 15 11  2  0
 21 13  1  0
  1 22  1  0
  1 23  1  0
  1 24  1  0
  4 25  1  0
 10 26  1  0
 17 27  1  0
 17 28  1  0
 19 29  1  0
 19 30  1  0
 20 31  1  0
 20 32  1  0
 21 33  1  0
 21 34  1  0
M  END
$$$$
