
     RDKit          3D

 37 39  0  0  0  0  0  0  0  0999 V2000
   -7.1696    2.2812   -0.5814 C   0  0  0  0  0  0  0  0  0  0  0  0
   -6.6779    1.6167    0.6948 C   0  0  0  0  0  0  0  0  0  0  0  0
   -5.5266    0.7052    0.4292 C   0  0  0  0  0  0  0  0  0  0  0  0
   -5.6389   -0.5547    0.0626 N   0  0  0  0  0  0  0  0  0  0  0  0
   -4.4059   -1.1568   -0.1148 N   0  0  0  0  0  0  0  0  0  0  0  0
   -3.4215   -0.3279    0.1264 C   0  0  0  0  0  0  0  0  0  0  0  0
   -2.0716   -0.5141    0.0709 N   0  0  0  0  0  0  0  0  0  0  0  0
   -1.4982   -1.7147   -0.2765 C   0  0  0  0  0  0  0  0  0  0  0  0
   -2.0852   -2.7502   -0.5747 O   0  0  0  0  0  0  0  0  0  0  0  0
    0.0315   -1.6665   -0.2636 C   0  0  0  0  0  0  0  0  0  0  0  0
    0.5014   -0.3732    0.1150 O   0  0  0  0  0  0  0  0  0  0  0  0
    1.8574   -0.1994    0.1705 C   0  0  0  0  0  0  0  0  0  0  0  0
    2.2637    1.0811    0.5462 C   0  0  0  0  0  0  0  0  0  0  0  0
    3.6204    1.3968    0.6442 C   0  0  0  0  0  0  0  0  0  0  0  0
    4.5983    0.4321    0.3669 C   0  0  0  0  0  0  0  0  0  0  0  0
    5.9673    0.7304    0.4605 C   0  0  0  0  0  0  0  0  0  0  0  0
    6.9291   -0.2414    0.1815 C   0  0  0  0  0  0  0  0  0  0  0  0
    6.5346   -1.5216   -0.1947 C   0  0  0  0  0  0  0  0  0  0  0  0
    5.1773   -1.8332   -0.2924 C   0  0  0  0  0  0  0  0  0  0  0  0
    4.1952   -0.8677   -0.0148 C   0  0  0  0  0  0  0  0  0  0  0  0
    2.8230   -1.1686   -0.1090 C   0  0  0  0  0  0  0  0  0  0  0  0
   -3.9000    1.2453    0.5869 S   0  0  0  0  0  0  0  0  0  0  0  0
   -8.0262    2.9278   -0.3662 H   0  0  0  0  0  0  0  0  0  0  0  0
   -6.3861    2.8963   -1.0369 H   0  0  0  0  0  0  0  0  0  0  0  0
   -7.4834    1.5362   -1.3206 H   0  0  0  0  0  0  0  0  0  0  0  0
   -7.4963    1.0361    1.1369 H   0  0  0  0  0  0  0  0  0  0  0  0
   -6.4060    2.3842    1.4287 H   0  0  0  0  0  0  0  0  0  0  0  0
   -1.4683    0.2651    0.2992 H   0  0  0  0  0  0  0  0  0  0  0  0
    0.3696   -2.4180    0.4593 H   0  0  0  0  0  0  0  0  0  0  0  0
    0.3690   -1.9087   -1.2779 H   0  0  0  0  0  0  0  0  0  0  0  0
    1.5223    1.8449    0.7663 H   0  0  0  0  0  0  0  0  0  0  0  0
    3.9072    2.4035    0.9396 H   0  0  0  0  0  0  0  0  0  0  0  0
    6.2954    1.7255    0.7527 H   0  0  0  0  0  0  0  0  0  0  0  0
    7.9856    0.0023    0.2579 H   0  0  0  0  0  0  0  0  0  0  0  0
    7.2827   -2.2796   -0.4123 H   0  0  0  0  0  0  0  0  0  0  0  0
    4.8921   -2.8405   -0.5883 H   0  0  0  0  0  0  0  0  0  0  0  0
    2.5388   -2.1739   -0.4049 H   0  0  0  0  0  0  0  0  0  0  0  0
  1  2  1  0
  2  3  1  0
  3  4  2  0
  4  5  1  0
  5  6  2  0
  6  7  1  0
  7  8  1  0
  8  9  2  0
  8 10  1  0
 10 11  1  0
 11 12  1  0
 12 13  2  0
 13 14  1  0
 14 15  2  0
 15 16  1  0
 16 17  2  0
 17 18  1  0
 18 19  2  0
 19 20  1  0
 20 21  2  0
  6 22  1  0
 22  3  1  0
 21 12  1  0
 20 15  1  0
  1 23  1  0
  1 24  1  0
  1 25  1  0
  2 26  1  0
  2 27  1  0
  7 28  1  0
 10 29  1  0
 10 30  1  0
 13 31  1  0
 14 32  1  0
 16 33  1  0
 17 34  1  0
 18 35  1  0
 19 36  1  0
 21 37  1  0
M  END
$$$$
