
     RDKit          3D

 60 65  0  0  0  0  0  0  0  0999 V2000
    4.7769   -0.6427   -4.2391 C   0  0  0  0  0  0  0  0  0  0  0  0
    4.9581   -1.3476   -2.9491 C   0  0  0  0  0  0  0  0  0  0  0  0
    5.6519   -2.4915   -2.8983 N   0  0  0  0  0  0  0  0  0  0  0  0
    5.6752   -2.8568   -1.5672 O   0  0  0  0  0  0  0  0  0  0  0  0
    4.9966   -1.9384   -0.8285 C   0  0  0  0  0  0  0  0  0  0  0  0
    5.0097   -2.1579    0.6299 C   0  0  0  0  0  0  0  0  0  0  0  0
    4.4707   -0.9778   -1.6678 C   0  0  0  0  0  0  0  0  0  0  0  0
    3.6954    0.1912   -1.3154 C   0  0  0  0  0  0  0  0  0  0  0  0
    4.0349    1.3033   -1.7137 O   0  0  0  0  0  0  0  0  0  0  0  0
    2.5486    0.0082   -0.5347 N   0  0  0  0  0  0  0  0  0  0  0  0
    1.8510    1.2018   -0.0756 C   0  0  0  0  0  0  0  0  0  0  0  0
    0.9621    0.9227    1.1316 C   0  0  0  0  0  0  0  0  0  0  0  0
   -0.0587   -0.2351    0.9056 C   0  0  0  0  0  0  0  0  0  0  0  0
    0.3275   -1.0594   -0.3499 C   0  0  0  0  0  0  0  0  0  0  0  0
    1.8384   -1.2662   -0.4275 C   0  0  0  0  0  0  0  0  0  0  0  0
    0.1406   -1.0889    2.0710 O   0  0  0  0  0  0  0  0  0  0  0  0
   -0.8524   -1.9625    2.4053 C   0  0  0  0  0  0  0  0  0  0  0  0
   -0.5294   -2.9171    3.3712 C   0  0  0  0  0  0  0  0  0  0  0  0
   -1.4751   -3.8705    3.7534 C   0  0  0  0  0  0  0  0  0  0  0  0
   -2.7376   -3.8614    3.1677 C   0  0  0  0  0  0  0  0  0  0  0  0
   -3.6388   -4.7812    3.5340 F   0  0  0  0  0  0  0  0  0  0  0  0
   -3.0777   -2.9123    2.2133 C   0  0  0  0  0  0  0  0  0  0  0  0
   -2.1285   -1.9557    1.8470 C   0  0  0  0  0  0  0  0  0  0  0  0
   -2.4528   -0.9204    0.8578 C   0  0  0  0  0  0  0  0  0  0  0  0
   -3.4087   -1.0701    0.1020 O   0  0  0  0  0  0  0  0  0  0  0  0
   -1.5228    0.2860    0.8414 C   0  0  0  0  0  0  0  0  0  0  0  0
   -1.8333    1.2156   -0.3212 C   0  0  0  0  0  0  0  0  0  0  0  0
   -2.7731    2.1412    0.3753 C   0  0  0  0  0  0  0  0  0  0  0  0
   -3.6399    3.0890   -0.3635 C   0  0  0  0  0  0  0  0  0  0  0  0
   -3.5304    3.2549   -1.7494 C   0  0  0  0  0  0  0  0  0  0  0  0
   -4.3620    4.1631   -2.4137 C   0  0  0  0  0  0  0  0  0  0  0  0
   -5.2995    4.9040   -1.6955 C   0  0  0  0  0  0  0  0  0  0  0  0
   -6.3172    6.0199   -2.5179 Cl  0  0  0  0  0  0  0  0  0  0  0  0
   -5.4141    4.7466   -0.3164 C   0  0  0  0  0  0  0  0  0  0  0  0
   -4.5842    3.8403    0.3495 C   0  0  0  0  0  0  0  0  0  0  0  0
   -2.7412    2.0710    1.6682 N   0  0  0  0  0  0  0  0  0  0  0  0
   -1.8188    1.0603    2.0167 O   0  0  0  0  0  0  0  0  0  0  0  0
    5.5226    0.1514   -4.3447 H   0  0  0  0  0  0  0  0  0  0  0  0
    4.8835   -1.3293   -5.0865 H   0  0  0  0  0  0  0  0  0  0  0  0
    3.7806   -0.1917   -4.3025 H   0  0  0  0  0  0  0  0  0  0  0  0
    6.0185   -2.4093    0.9721 H   0  0  0  0  0  0  0  0  0  0  0  0
    4.3426   -2.9824    0.8960 H   0  0  0  0  0  0  0  0  0  0  0  0
    4.6879   -1.2631    1.1716 H   0  0  0  0  0  0  0  0  0  0  0  0
    1.2656    1.5857   -0.9186 H   0  0  0  0  0  0  0  0  0  0  0  0
    2.5845    1.9752    0.1810 H   0  0  0  0  0  0  0  0  0  0  0  0
    1.6167    0.6800    1.9805 H   0  0  0  0  0  0  0  0  0  0  0  0
    0.4575    1.8540    1.4121 H   0  0  0  0  0  0  0  0  0  0  0  0
   -0.0072   -0.5535   -1.2636 H   0  0  0  0  0  0  0  0  0  0  0  0
   -0.1492   -2.0461   -0.3356 H   0  0  0  0  0  0  0  0  0  0  0  0
    2.0699   -1.8992   -1.2900 H   0  0  0  0  0  0  0  0  0  0  0  0
    2.1975   -1.7727    0.4739 H   0  0  0  0  0  0  0  0  0  0  0  0
    0.4591   -2.9229    3.8243 H   0  0  0  0  0  0  0  0  0  0  0  0
   -1.2361   -4.6198    4.5022 H   0  0  0  0  0  0  0  0  0  0  0  0
   -4.0719   -2.9178    1.7764 H   0  0  0  0  0  0  0  0  0  0  0  0
   -0.9726    1.8044   -0.6463 H   0  0  0  0  0  0  0  0  0  0  0  0
   -2.2832    0.7201   -1.1844 H   0  0  0  0  0  0  0  0  0  0  0  0
   -2.8073    2.6961   -2.3355 H   0  0  0  0  0  0  0  0  0  0  0  0
   -4.2736    4.2884   -3.4901 H   0  0  0  0  0  0  0  0  0  0  0  0
   -6.1437    5.3227    0.2469 H   0  0  0  0  0  0  0  0  0  0  0  0
   -4.6826    3.7239    1.4275 H   0  0  0  0  0  0  0  0  0  0  0  0
  1  2  1  0
  2  3  2  0
  3  4  1  0
  4  5  1  0
  5  6  1  0
  5  7  2  0
  7  8  1  0
  8  9  2  0
  8 10  1  0
 10 11  1  0
 11 12  1  0
 12 13  1  0
 13 14  1  0
 14 15  1  0
 13 16  1  0
 16 17  1  0
 17 18  2  0
 18 19  1  0
 19 20  2  0
 20 21  1  0
 20 22  1  0
 22 23  2  0
 23 24  1  0
 24 25  2  0
 24 26  1  0
 26 27  1  0
 27 28  1  0
 28 29  1  0
 29 30  2  0
 30 31  1  0
 31 32  2  0
 32 33  1  0
 32 34  1  0
 34 35  2  0
 28 36  2  0
 36 37  1  0
  7  2  1  0
 15 10  1  0
 23 17  1  0
 37 26  1  0
 26 13  1  0
 35 29  1  0
  1 38  1  0
  1 39  1  0
  1 40  1  0
  6 41  1  0
  6 42  1  0
  6 43  1  0
 11 44  1  0
 11 45  1  0
 12 46  1  0
 12 47  1  0
 14 48  1  0
 14 49  1  0
 15 50  1  0
 15 51  1  0
 18 52  1  0
 19 53  1  0
 22 54  1  0
 27 55  1  0
 27 56  1  0
 30 57  1  0
 31 58  1  0
 34 59  1  0
 35 60  1  0
M  END
$$$$
