
     RDKit          3D

 40 42  0  0  0  0  0  0  0  0999 V2000
   -4.0597   -2.1623    1.2015 C   0  0  0  0  0  0  0  0  0  0  0  0
   -4.8220   -1.0412    0.5473 C   0  0  0  0  0  0  0  0  0  0  0  0
   -6.2280   -1.0880    0.5793 C   0  0  0  0  0  0  0  0  0  0  0  0
   -6.9905   -0.0822   -0.0091 C   0  0  0  0  0  0  0  0  0  0  0  0
   -6.3572    0.9834   -0.6352 C   0  0  0  0  0  0  0  0  0  0  0  0
   -4.9617    1.0446   -0.6757 C   0  0  0  0  0  0  0  0  0  0  0  0
   -4.1778    0.0411   -0.0941 C   0  0  0  0  0  0  0  0  0  0  0  0
   -2.7627    0.0799   -0.1121 N   0  0  0  0  0  0  0  0  0  0  0  0
   -1.9473    0.9932   -0.7562 C   0  0  0  0  0  0  0  0  0  0  0  0
   -2.2913    1.9028   -1.4999 O   0  0  0  0  0  0  0  0  0  0  0  0
   -0.4894    0.7891   -0.5256 C   0  0  0  0  0  0  0  0  0  0  0  0
    0.0109    0.4137    0.7253 C   0  0  0  0  0  0  0  0  0  0  0  0
    1.3879    0.2365    0.9005 C   0  0  0  0  0  0  0  0  0  0  0  0
    2.2793    0.4360   -0.1630 C   0  0  0  0  0  0  0  0  0  0  0  0
    3.6454    0.2333    0.1023 N   0  0  0  0  0  0  0  0  0  0  0  0
    4.7182    0.3489   -0.7650 C   0  0  0  0  0  0  0  0  0  0  0  0
    4.6466    0.6491   -1.9517 O   0  0  0  0  0  0  0  0  0  0  0  0
    5.9878    0.0665   -0.1174 C   0  0  0  0  0  0  0  0  0  0  0  0
    7.2802    0.0697   -0.6074 C   0  0  0  0  0  0  0  0  0  0  0  0
    8.1271   -0.2817    0.4705 C   0  0  0  0  0  0  0  0  0  0  0  0
    7.3052   -0.4794    1.5543 C   0  0  0  0  0  0  0  0  0  0  0  0
    6.0067   -0.2726    1.2135 O   0  0  0  0  0  0  0  0  0  0  0  0
    1.7732    0.8274   -1.4039 C   0  0  0  0  0  0  0  0  0  0  0  0
    0.3967    1.0101   -1.5836 C   0  0  0  0  0  0  0  0  0  0  0  0
   -4.7319   -2.9065    1.6421 H   0  0  0  0  0  0  0  0  0  0  0  0
   -3.4295   -1.7735    2.0079 H   0  0  0  0  0  0  0  0  0  0  0  0
   -3.4377   -2.6799    0.4641 H   0  0  0  0  0  0  0  0  0  0  0  0
   -6.7410   -1.9151    1.0658 H   0  0  0  0  0  0  0  0  0  0  0  0
   -8.0757   -0.1298    0.0214 H   0  0  0  0  0  0  0  0  0  0  0  0
   -6.9437    1.7743   -1.0958 H   0  0  0  0  0  0  0  0  0  0  0  0
   -4.5152    1.9015   -1.1703 H   0  0  0  0  0  0  0  0  0  0  0  0
   -2.2959   -0.6924    0.3400 H   0  0  0  0  0  0  0  0  0  0  0  0
   -0.6506    0.2868    1.5782 H   0  0  0  0  0  0  0  0  0  0  0  0
    1.7544   -0.0501    1.8836 H   0  0  0  0  0  0  0  0  0  0  0  0
    3.9010   -0.0334    1.0473 H   0  0  0  0  0  0  0  0  0  0  0  0
    7.5627    0.3015   -1.6259 H   0  0  0  0  0  0  0  0  0  0  0  0
    9.2039   -0.3786    0.4589 H   0  0  0  0  0  0  0  0  0  0  0  0
    7.4811   -0.7560    2.5850 H   0  0  0  0  0  0  0  0  0  0  0  0
    2.4204    1.0081   -2.2569 H   0  0  0  0  0  0  0  0  0  0  0  0
    0.0201    1.3251   -2.5554 H   0  0  0  0  0  0  0  0  0  0  0  0
  1  2  1  0
  2  3  2  0
  3  4  1  0
  4  5  2  0
  5  6  1  0
  6  7  2  0
  7  8  1  0
  8  9  1  0
  9 10  2  0
  9 11  1  0
 11 12  2  0
 12 13  1  0
 13 14  2  0
 14 15  1  0
 15 16  1  0
 16 17  2  0
 16 18  1  0
 18 19  2  0
 19 20  1  0
 20 21  2  0
 21 22  1  0
 14 23  1  0
 23 24  2  0
  7  2  1  0
 24 11  1  0
 22 18  1  0
  1 25  1  0
  1 26  1  0
  1 27  1  0
  3 28  1  0
  4 29  1  0
  5 30  1  0
  6 31  1  0
  8 32  1  0
 12 33  1  0
 13 34  1  0
 15 35  1  0
 19 36  1  0
 20 37  1  0
 21 38  1  0
 23 39  1  0
 24 40  1  0
M  END
$$$$
