
     RDKit          3D

 38 39  0  0  0  0  0  0  0  0999 V2000
   -5.0977    1.6899   -0.7098 C   0  0  0  0  0  0  0  0  0  0  0  0
   -4.7979    1.0226    0.4124 C   0  0  0  0  0  0  0  0  0  0  0  0
   -3.7446    1.4466    1.3963 C   0  0  0  0  0  0  0  0  0  0  0  0
   -2.6611    0.4063    1.5564 C   0  0  0  0  0  0  0  0  0  0  0  0
   -2.6931   -0.5001    2.6223 C   0  0  0  0  0  0  0  0  0  0  0  0
   -1.6982   -1.4679    2.7523 C   0  0  0  0  0  0  0  0  0  0  0  0
   -0.6681   -1.5403    1.8169 C   0  0  0  0  0  0  0  0  0  0  0  0
    0.2597   -2.5252    2.0250 O   0  0  0  0  0  0  0  0  0  0  0  0
   -0.6079   -0.6549    0.7283 C   0  0  0  0  0  0  0  0  0  0  0  0
    0.4536   -0.7148   -0.2895 C   0  0  0  0  0  0  0  0  0  0  0  0
    1.4132    0.3131   -0.3504 C   0  0  0  0  0  0  0  0  0  0  0  0
    2.4539    0.2924   -1.2938 C   0  0  0  0  0  0  0  0  0  0  0  0
    3.4843    1.3965   -1.3265 C   0  0  0  0  0  0  0  0  0  0  0  0
    4.7157    1.0484   -0.5394 C   0  0  0  0  0  0  0  0  0  0  0  0
    5.9488    0.9740   -1.0578 C   0  0  0  0  0  0  0  0  0  0  0  0
    2.5419   -0.7852   -2.1832 C   0  0  0  0  0  0  0  0  0  0  0  0
    1.6000   -1.8117   -2.1411 C   0  0  0  0  0  0  0  0  0  0  0  0
    0.5669   -1.7718   -1.2075 C   0  0  0  0  0  0  0  0  0  0  0  0
   -0.3089   -2.8235   -1.2384 O   0  0  0  0  0  0  0  0  0  0  0  0
   -1.6205    0.3157    0.6163 C   0  0  0  0  0  0  0  0  0  0  0  0
   -5.8730    1.3288   -1.3789 H   0  0  0  0  0  0  0  0  0  0  0  0
   -4.5805    2.6026   -0.9889 H   0  0  0  0  0  0  0  0  0  0  0  0
   -5.3482    0.1133    0.6467 H   0  0  0  0  0  0  0  0  0  0  0  0
   -4.2232    1.6355    2.3654 H   0  0  0  0  0  0  0  0  0  0  0  0
   -3.2845    2.3985    1.1016 H   0  0  0  0  0  0  0  0  0  0  0  0
   -3.4928   -0.4595    3.3585 H   0  0  0  0  0  0  0  0  0  0  0  0
   -1.7241   -2.1679    3.5833 H   0  0  0  0  0  0  0  0  0  0  0  0
    0.9582   -2.4561    1.3503 H   0  0  0  0  0  0  0  0  0  0  0  0
    1.3535    1.1396    0.3574 H   0  0  0  0  0  0  0  0  0  0  0  0
    3.7314    1.6253   -2.3712 H   0  0  0  0  0  0  0  0  0  0  0  0
    3.0512    2.3174   -0.9162 H   0  0  0  0  0  0  0  0  0  0  0  0
    4.5793    0.8530    0.5224 H   0  0  0  0  0  0  0  0  0  0  0  0
    6.7985    0.7180   -0.4320 H   0  0  0  0  0  0  0  0  0  0  0  0
    6.1398    1.1613   -2.1098 H   0  0  0  0  0  0  0  0  0  0  0  0
    3.3480   -0.8316   -2.9123 H   0  0  0  0  0  0  0  0  0  0  0  0
    1.6703   -2.6444   -2.8359 H   0  0  0  0  0  0  0  0  0  0  0  0
   -1.0368   -2.6517   -0.6152 H   0  0  0  0  0  0  0  0  0  0  0  0
   -1.6070    1.0076   -0.2258 H   0  0  0  0  0  0  0  0  0  0  0  0
  1  2  2  0
  2  3  1  0
  3  4  1  0
  4  5  2  0
  5  6  1  0
  6  7  2  0
  7  8  1  0
  7  9  1  0
  9 10  1  0
 10 11  2  0
 11 12  1  0
 12 13  1  0
 13 14  1  0
 14 15  2  0
 12 16  2  0
 16 17  1  0
 17 18  2  0
 18 19  1  0
  9 20  2  0
 20  4  1  0
 18 10  1  0
  1 21  1  0
  1 22  1  0
  2 23  1  0
  3 24  1  0
  3 25  1  0
  5 26  1  0
  6 27  1  0
  8 28  1  0
 11 29  1  0
 13 30  1  0
 13 31  1  0
 14 32  1  0
 15 33  1  0
 15 34  1  0
 16 35  1  0
 17 36  1  0
 19 37  1  0
 20 38  1  0
M  END
$$$$
