
     RDKit          3D

 54 58  0  0  0  0  0  0  0  0999 V2000
    1.3303   -0.4949   -0.3951 O   0  0  0  0  0  0  0  0  0  0  0  0
    1.8201   -0.5407    0.7305 C   0  0  0  0  0  0  0  0  0  0  0  0
    1.0715   -0.1871    2.0104 C   0  0  0  0  0  0  0  0  0  0  0  0
   -0.7142   -0.4817    1.8578 S   0  0  0  0  0  0  0  0  0  0  0  0
   -1.0794    0.7558    0.6565 C   0  0  0  0  0  0  0  0  0  0  0  0
   -0.7500    1.9663    0.9934 N   0  0  0  0  0  0  0  0  0  0  0  0
   -1.0529    2.9423    0.0385 C   0  0  0  0  0  0  0  0  0  0  0  0
   -1.6837    2.6435   -1.1293 C   0  0  0  0  0  0  0  0  0  0  0  0
   -1.9310    4.0089   -2.0945 S   0  0  0  0  0  0  0  0  0  0  0  0
   -1.1795    5.0456   -0.9289 C   0  0  0  0  0  0  0  0  0  0  0  0
   -0.9940    6.4386   -1.0261 C   0  0  0  0  0  0  0  0  0  0  0  0
   -0.3672    7.1111    0.0260 C   0  0  0  0  0  0  0  0  0  0  0  0
    0.0665    6.4204    1.1498 C   0  0  0  0  0  0  0  0  0  0  0  0
   -0.1173    5.0378    1.2426 C   0  0  0  0  0  0  0  0  0  0  0  0
   -0.7479    4.3263    0.1935 C   0  0  0  0  0  0  0  0  0  0  0  0
   -2.0863    1.3133   -1.4777 C   0  0  0  0  0  0  0  0  0  0  0  0
   -2.7211    1.0305   -2.4928 O   0  0  0  0  0  0  0  0  0  0  0  0
   -1.7088    0.3596   -0.5240 N   0  0  0  0  0  0  0  0  0  0  0  0
   -2.0478   -1.0332   -0.8422 C   0  0  0  0  0  0  0  0  0  0  0  0
   -3.4559   -1.3963   -0.3585 C   0  0  0  0  0  0  0  0  0  0  0  0
   -3.7733   -2.8493   -0.6058 C   0  0  0  0  0  0  0  0  0  0  0  0
   -3.5390   -3.8068    0.3899 C   0  0  0  0  0  0  0  0  0  0  0  0
   -3.8159   -5.1538    0.1529 C   0  0  0  0  0  0  0  0  0  0  0  0
   -4.3242   -5.5557   -1.0806 C   0  0  0  0  0  0  0  0  0  0  0  0
   -4.5541   -4.6113   -2.0796 C   0  0  0  0  0  0  0  0  0  0  0  0
   -4.2784   -3.2635   -1.8450 C   0  0  0  0  0  0  0  0  0  0  0  0
    3.1363   -0.8917    0.9419 N   0  0  0  0  0  0  0  0  0  0  0  0
    3.9531   -1.3562   -0.1568 C   0  0  0  0  0  0  0  0  0  0  0  0
    5.3593   -1.4339    0.3029 C   0  0  0  0  0  0  0  0  0  0  0  0
    6.5162   -0.7823   -0.0700 C   0  0  0  0  0  0  0  0  0  0  0  0
    7.5475   -1.2955    0.7529 C   0  0  0  0  0  0  0  0  0  0  0  0
    6.9544   -2.2209    1.5805 C   0  0  0  0  0  0  0  0  0  0  0  0
    5.6247   -2.3099    1.3190 O   0  0  0  0  0  0  0  0  0  0  0  0
    1.2790    0.8561    2.2662 H   0  0  0  0  0  0  0  0  0  0  0  0
    1.4361   -0.8137    2.8301 H   0  0  0  0  0  0  0  0  0  0  0  0
   -1.3337    6.9823   -1.9036 H   0  0  0  0  0  0  0  0  0  0  0  0
   -0.2206    8.1869   -0.0374 H   0  0  0  0  0  0  0  0  0  0  0  0
    0.5507    6.9546    1.9637 H   0  0  0  0  0  0  0  0  0  0  0  0
    0.2226    4.5012    2.1251 H   0  0  0  0  0  0  0  0  0  0  0  0
   -1.3022   -1.7135   -0.4199 H   0  0  0  0  0  0  0  0  0  0  0  0
   -1.9846   -1.1769   -1.9284 H   0  0  0  0  0  0  0  0  0  0  0  0
   -3.5661   -1.1766    0.7105 H   0  0  0  0  0  0  0  0  0  0  0  0
   -4.2043   -0.7696   -0.8592 H   0  0  0  0  0  0  0  0  0  0  0  0
   -3.1404   -3.5094    1.3570 H   0  0  0  0  0  0  0  0  0  0  0  0
   -3.6351   -5.8901    0.9317 H   0  0  0  0  0  0  0  0  0  0  0  0
   -4.5411   -6.6047   -1.2644 H   0  0  0  0  0  0  0  0  0  0  0  0
   -4.9484   -4.9245   -3.0430 H   0  0  0  0  0  0  0  0  0  0  0  0
   -4.4600   -2.5377   -2.6356 H   0  0  0  0  0  0  0  0  0  0  0  0
    3.4366   -1.1662    1.8703 H   0  0  0  0  0  0  0  0  0  0  0  0
    3.5891   -2.3429   -0.4621 H   0  0  0  0  0  0  0  0  0  0  0  0
    3.8467   -0.6702   -1.0041 H   0  0  0  0  0  0  0  0  0  0  0  0
    6.6031   -0.0279   -0.8421 H   0  0  0  0  0  0  0  0  0  0  0  0
    8.5937   -1.0245    0.7465 H   0  0  0  0  0  0  0  0  0  0  0  0
    7.3211   -2.8681    2.3662 H   0  0  0  0  0  0  0  0  0  0  0  0
  1  2  2  0
  2  3  1  0
  3  4  1  0
  4  5  1  0
  5  6  2  0
  6  7  1  0
  7  8  2  0
  8  9  1  0
  9 10  1  0
 10 11  2  0
 11 12  1  0
 12 13  2  0
 13 14  1  0
 14 15  2  0
  8 16  1  0
 16 17  2  0
 16 18  1  0
 18 19  1  0
 19 20  1  0
 20 21  1  0
 21 22  2  0
 22 23  1  0
 23 24  2  0
 24 25  1  0
 25 26  2  0
  2 27  1  0
 27 28  1  0
 28 29  1  0
 29 30  2  0
 30 31  1  0
 31 32  2  0
 32 33  1  0
 18  5  1  0
 26 21  1  0
 33 29  1  0
 15  7  1  0
 15 10  1  0
  3 34  1  0
  3 35  1  0
 11 36  1  0
 12 37  1  0
 13 38  1  0
 14 39  1  0
 19 40  1  0
 19 41  1  0
 20 42  1  0
 20 43  1  0
 22 44  1  0
 23 45  1  0
 24 46  1  0
 25 47  1  0
 26 48  1  0
 27 49  1  0
 28 50  1  0
 28 51  1  0
 30 52  1  0
 31 53  1  0
 32 54  1  0
M  END
$$$$
