
     RDKit          3D

 50 51  0  0  0  0  0  0  0  0999 V2000
   -4.1058   -4.0733    1.4539 C   0  0  0  0  0  0  0  0  0  0  0  0
   -4.0243   -2.8700    2.2180 O   0  0  0  0  0  0  0  0  0  0  0  0
   -3.2328   -1.9468    1.5826 C   0  0  0  0  0  0  0  0  0  0  0  0
   -1.9622   -1.7330    2.1169 C   0  0  0  0  0  0  0  0  0  0  0  0
   -1.1198   -0.7840    1.5422 C   0  0  0  0  0  0  0  0  0  0  0  0
   -1.5484   -0.0466    0.4376 C   0  0  0  0  0  0  0  0  0  0  0  0
   -0.6731    0.9577   -0.1089 N   0  0  0  0  0  0  0  0  0  0  0  0
   -0.5499    1.0552   -1.5915 C   0  0  0  0  0  0  0  0  0  0  0  0
    0.8976    1.0647   -2.0762 C   0  0  0  0  0  0  0  0  0  0  0  0
    1.1478    1.3579   -3.2429 O   0  0  0  0  0  0  0  0  0  0  0  0
    1.8032    0.6522   -1.1139 N   0  0  0  0  0  0  0  0  0  0  0  0
    3.2079    0.5306   -1.2100 C   0  0  0  0  0  0  0  0  0  0  0  0
    3.8883    0.7727   -2.4145 C   0  0  0  0  0  0  0  0  0  0  0  0
    5.2798    0.6769   -2.5018 C   0  0  0  0  0  0  0  0  0  0  0  0
    6.0212    0.3491   -1.3771 C   0  0  0  0  0  0  0  0  0  0  0  0
    5.3516    0.1076   -0.1719 C   0  0  0  0  0  0  0  0  0  0  0  0
    6.1869   -0.1914    0.9805 N   0  0  0  0  0  4  0  0  0  0  0  0
    6.1354    0.5917    1.9380 O   0  0  0  0  0  0  0  0  0  0  0  0
    6.9008   -1.2010    0.9101 O   0  0  0  0  0  1  0  0  0  0  0  0
    3.9438    0.1603   -0.0581 C   0  0  0  0  0  0  0  0  0  0  0  0
    3.2485   -0.1383    1.2477 C   0  0  0  0  0  0  0  0  0  0  0  0
   -0.5370    2.4211    0.7598 S   0  0  0  0  0  6  0  0  0  0  0  0
   -2.1549    3.1517    0.5796 C   0  0  0  0  0  0  0  0  0  0  0  0
    0.4071    3.2516    0.0442 O   0  0  0  0  0  0  0  0  0  0  0  0
   -0.3269    2.1081    2.1565 O   0  0  0  0  0  0  0  0  0  0  0  0
   -2.8450   -0.2311   -0.0665 C   0  0  0  0  0  0  0  0  0  0  0  0
   -3.6997   -1.1815    0.5029 C   0  0  0  0  0  0  0  0  0  0  0  0
   -4.9831   -1.4264    0.0926 O   0  0  0  0  0  0  0  0  0  0  0  0
   -5.5281   -0.5916   -0.9197 C   0  0  0  0  0  0  0  0  0  0  0  0
   -4.6055   -4.8262    2.0710 H   0  0  0  0  0  0  0  0  0  0  0  0
   -4.7021   -3.9341    0.5466 H   0  0  0  0  0  0  0  0  0  0  0  0
   -3.1096   -4.4536    1.1994 H   0  0  0  0  0  0  0  0  0  0  0  0
   -1.6348   -2.3006    2.9839 H   0  0  0  0  0  0  0  0  0  0  0  0
   -0.1357   -0.6187    1.9736 H   0  0  0  0  0  0  0  0  0  0  0  0
   -1.0228    0.1928   -2.0761 H   0  0  0  0  0  0  0  0  0  0  0  0
   -1.0523    1.9564   -1.9579 H   0  0  0  0  0  0  0  0  0  0  0  0
    1.3840    0.5104   -0.2020 H   0  0  0  0  0  0  0  0  0  0  0  0
    3.3579    1.0484   -3.3215 H   0  0  0  0  0  0  0  0  0  0  0  0
    5.7757    0.8729   -3.4497 H   0  0  0  0  0  0  0  0  0  0  0  0
    7.1055    0.2904   -1.4402 H   0  0  0  0  0  0  0  0  0  0  0  0
    3.8812   -0.6833    1.9534 H   0  0  0  0  0  0  0  0  0  0  0  0
    2.9214    0.7929    1.7205 H   0  0  0  0  0  0  0  0  0  0  0  0
    2.3827   -0.7888    1.0844 H   0  0  0  0  0  0  0  0  0  0  0  0
   -2.8929    2.5298    1.0877 H   0  0  0  0  0  0  0  0  0  0  0  0
   -2.3883    3.2611   -0.4801 H   0  0  0  0  0  0  0  0  0  0  0  0
   -2.1254    4.1372    1.0505 H   0  0  0  0  0  0  0  0  0  0  0  0
   -3.1768    0.3774   -0.8992 H   0  0  0  0  0  0  0  0  0  0  0  0
   -5.5337    0.4579   -0.6070 H   0  0  0  0  0  0  0  0  0  0  0  0
   -6.5664   -0.8963   -1.0822 H   0  0  0  0  0  0  0  0  0  0  0  0
   -4.9914   -0.7200   -1.8654 H   0  0  0  0  0  0  0  0  0  0  0  0
  1  2  1  0
  2  3  1  0
  3  4  2  0
  4  5  1  0
  5  6  2  0
  6  7  1  0
  7  8  1  0
  8  9  1  0
  9 10  2  0
  9 11  1  0
 11 12  1  0
 12 13  2  0
 13 14  1  0
 14 15  2  0
 15 16  1  0
 16 17  1  0
 17 18  2  0
 17 19  1  0
 16 20  2  0
 20 21  1  0
  7 22  1  0
 22 23  1  0
 22 24  2  0
 22 25  2  0
  6 26  1  0
 26 27  2  0
 27 28  1  0
 28 29  1  0
 27  3  1  0
 20 12  1  0
  1 30  1  0
  1 31  1  0
  1 32  1  0
  4 33  1  0
  5 34  1  0
  8 35  1  0
  8 36  1  0
 11 37  1  0
 13 38  1  0
 14 39  1  0
 15 40  1  0
 21 41  1  0
 21 42  1  0
 21 43  1  0
 23 44  1  0
 23 45  1  0
 23 46  1  0
 26 47  1  0
 29 48  1  0
 29 49  1  0
 29 50  1  0
M  CHG  2  17   1  19  -1
M  END
$$$$
