
     RDKit          3D

 31 31  0  0  0  0  0  0  0  0999 V2000
    4.4234    1.1001   -0.0951 C   0  0  0  0  0  0  0  0  0  0  0  0
    4.1476    0.5443    1.1840 O   0  0  0  0  0  0  0  0  0  0  0  0
    2.9199   -0.1873    1.1776 C   0  0  0  0  0  0  0  0  0  0  0  0
    1.7951    0.6687    0.9727 O   0  0  0  0  0  0  0  0  0  0  0  0
    0.6145   -0.0020    1.1504 C   0  0  0  0  0  0  0  0  0  0  0  0
   -0.4309    0.0304    0.3084 C   0  0  0  0  0  0  0  0  0  0  0  0
   -0.4680    0.6099   -0.9426 N   0  0  0  0  0  0  0  0  0  0  0  0
    0.5842    0.8188   -1.8156 C   0  0  0  0  0  0  0  0  0  0  0  0
    0.1761    1.6280   -3.0210 C   0  0  0  0  0  0  0  0  0  0  0  0
    1.7186    0.3616   -1.7241 O   0  0  0  0  0  0  0  0  0  0  0  0
   -1.7009   -0.5631    0.7698 C   0  0  0  0  0  0  0  0  0  0  0  0
   -2.1747   -1.7442    0.1825 C   0  0  0  0  0  0  0  0  0  0  0  0
   -3.3814   -2.3060    0.6037 C   0  0  0  0  0  0  0  0  0  0  0  0
   -4.1231   -1.6905    1.6113 C   0  0  0  0  0  0  0  0  0  0  0  0
   -3.6609   -0.5138    2.1994 C   0  0  0  0  0  0  0  0  0  0  0  0
   -2.4541    0.0497    1.7804 C   0  0  0  0  0  0  0  0  0  0  0  0
    5.3973    1.5953   -0.0478 H   0  0  0  0  0  0  0  0  0  0  0  0
    4.4723    0.3161   -0.8570 H   0  0  0  0  0  0  0  0  0  0  0  0
    3.6729    1.8491   -0.3637 H   0  0  0  0  0  0  0  0  0  0  0  0
    2.8485   -0.6690    2.1601 H   0  0  0  0  0  0  0  0  0  0  0  0
    2.9567   -0.9709    0.4100 H   0  0  0  0  0  0  0  0  0  0  0  0
    0.5658   -0.4814    2.1224 H   0  0  0  0  0  0  0  0  0  0  0  0
   -1.3955    0.7218   -1.3363 H   0  0  0  0  0  0  0  0  0  0  0  0
   -0.6533    2.3009   -2.7843 H   0  0  0  0  0  0  0  0  0  0  0  0
   -0.1238    0.9509   -3.8250 H   0  0  0  0  0  0  0  0  0  0  0  0
    1.0230    2.2374   -3.3491 H   0  0  0  0  0  0  0  0  0  0  0  0
   -1.6004   -2.2363   -0.5999 H   0  0  0  0  0  0  0  0  0  0  0  0
   -3.7410   -3.2253    0.1483 H   0  0  0  0  0  0  0  0  0  0  0  0
   -5.0620   -2.1295    1.9400 H   0  0  0  0  0  0  0  0  0  0  0  0
   -4.2400   -0.0346    2.9849 H   0  0  0  0  0  0  0  0  0  0  0  0
   -2.1061    0.9709    2.2434 H   0  0  0  0  0  0  0  0  0  0  0  0
  1  2  1  0
  2  3  1  0
  3  4  1  0
  4  5  1  0
  5  6  2  3
  6  7  1  0
  7  8  1  0
  8  9  1  0
  8 10  2  0
  6 11  1  0
 11 12  2  0
 12 13  1  0
 13 14  2  0
 14 15  1  0
 15 16  2  0
 16 11  1  0
  1 17  1  0
  1 18  1  0
  1 19  1  0
  3 20  1  0
  3 21  1  0
  5 22  1  0
  7 23  1  0
  9 24  1  0
  9 25  1  0
  9 26  1  0
 12 27  1  0
 13 28  1  0
 14 29  1  0
 15 30  1  0
 16 31  1  0
M  END
$$$$
