
     RDKit          3D

 36 37  0  0  0  0  0  0  0  0999 V2000
   -0.0543   -2.5137    1.0413 O   0  0  0  0  0  0  0  0  0  0  0  0
    0.0275   -1.3206    1.3166 C   0  0  0  0  0  0  0  0  0  0  0  0
    1.0515   -0.7812    2.3187 C   0  0  0  0  0  0  0  0  0  0  0  0
    2.2097   -0.2272    1.6913 O   0  0  0  0  0  0  0  0  0  0  0  0
    2.0397    1.0101    1.1667 C   0  0  0  0  0  0  0  0  0  0  0  0
    1.0213    1.6792    1.2134 O   0  0  0  0  0  0  0  0  0  0  0  0
    3.2867    1.4142    0.4901 C   0  0  0  0  0  0  0  0  0  0  0  0
    4.4857    1.3723    1.2190 C   0  0  0  0  0  0  0  0  0  0  0  0
    5.6824    1.7722    0.6233 C   0  0  0  0  0  0  0  0  0  0  0  0
    5.6867    2.2162   -0.6977 C   0  0  0  0  0  0  0  0  0  0  0  0
    4.4965    2.2569   -1.4275 C   0  0  0  0  0  0  0  0  0  0  0  0
    3.2920    1.8565   -0.8375 C   0  0  0  0  0  0  0  0  0  0  0  0
    1.7345    1.8944   -1.9240 Br  0  0  0  0  0  0  0  0  0  0  0  0
   -0.7904   -0.3572    0.7662 N   0  0  0  0  0  0  0  0  0  0  0  0
   -1.6965   -0.6508   -0.3298 C   0  0  0  0  0  0  0  0  0  0  0  0
   -2.8575   -1.5761    0.0549 C   0  0  0  0  0  0  0  0  0  0  0  0
   -3.9032   -1.5834   -0.9555 N   0  0  0  0  0  0  0  0  0  0  0  0
   -4.9551   -0.7005   -0.9639 C   0  0  0  0  0  0  0  0  0  0  0  0
   -5.0567    0.2161    0.0383 O   0  0  0  0  0  0  0  0  0  0  0  0
   -5.7889   -0.8379   -2.0008 C   0  0  0  0  0  0  0  0  0  0  0  0
   -5.2693   -2.1120   -3.0612 S   0  0  0  0  0  0  0  0  0  0  0  0
   -3.8522   -2.4414   -2.0418 C   0  0  0  0  0  0  0  0  0  0  0  0
   -3.0086   -3.2775   -2.3143 O   0  0  0  0  0  0  0  0  0  0  0  0
    0.5796   -0.0547    2.9918 H   0  0  0  0  0  0  0  0  0  0  0  0
    1.3830   -1.6168    2.9445 H   0  0  0  0  0  0  0  0  0  0  0  0
    4.4910    1.0326    2.2526 H   0  0  0  0  0  0  0  0  0  0  0  0
    6.6108    1.7383    1.1889 H   0  0  0  0  0  0  0  0  0  0  0  0
    6.6188    2.5283   -1.1638 H   0  0  0  0  0  0  0  0  0  0  0  0
    4.5205    2.5978   -2.4602 H   0  0  0  0  0  0  0  0  0  0  0  0
   -0.4893    0.6129    0.8755 H   0  0  0  0  0  0  0  0  0  0  0  0
   -1.1158   -1.0876   -1.1507 H   0  0  0  0  0  0  0  0  0  0  0  0
   -2.0812    0.3153   -0.6757 H   0  0  0  0  0  0  0  0  0  0  0  0
   -3.2878   -1.2829    1.0197 H   0  0  0  0  0  0  0  0  0  0  0  0
   -2.4913   -2.6017    0.1766 H   0  0  0  0  0  0  0  0  0  0  0  0
   -5.8460    0.7599   -0.1231 H   0  0  0  0  0  0  0  0  0  0  0  0
   -6.6738   -0.2497   -2.1942 H   0  0  0  0  0  0  0  0  0  0  0  0
  1  2  2  0
  2  3  1  0
  3  4  1  0
  4  5  1  0
  5  6  2  0
  5  7  1  0
  7  8  2  0
  8  9  1  0
  9 10  2  0
 10 11  1  0
 11 12  2  0
 12 13  1  0
  2 14  1  0
 14 15  1  0
 15 16  1  0
 16 17  1  0
 17 18  1  0
 18 19  1  0
 18 20  2  0
 20 21  1  0
 21 22  1  0
 22 23  2  0
 12  7  1  0
 22 17  1  0
  3 24  1  0
  3 25  1  0
  8 26  1  0
  9 27  1  0
 10 28  1  0
 11 29  1  0
 14 30  1  0
 15 31  1  0
 15 32  1  0
 16 33  1  0
 16 34  1  0
 19 35  1  0
 20 36  1  0
M  END
$$$$
