
     RDKit          3D

 64 67  0  0  0  0  0  0  0  0999 V2000
    9.4560   -2.1612   -1.6266 C   0  0  0  0  0  0  0  0  0  0  0  0
    8.3916   -1.3948   -2.1799 O   0  0  0  0  0  0  0  0  0  0  0  0
    7.1219   -1.8282   -1.9149 C   0  0  0  0  0  0  0  0  0  0  0  0
    6.7758   -3.0098   -1.2598 C   0  0  0  0  0  0  0  0  0  0  0  0
    5.4281   -3.3357   -1.0500 C   0  0  0  0  0  0  0  0  0  0  0  0
    4.4115   -2.4910   -1.4981 C   0  0  0  0  0  0  0  0  0  0  0  0
    3.0381   -2.7510   -1.3304 N   0  0  0  0  0  0  0  0  0  0  0  0
    2.4458   -3.8455   -0.7237 C   0  0  0  0  0  0  0  0  0  0  0  0
    3.0226   -4.8145   -0.2333 O   0  0  0  0  0  0  0  0  0  0  0  0
    0.9135   -3.7882   -0.7539 C   0  0  0  0  0  0  0  0  0  0  0  0
    0.3686   -2.6374   -0.0268 N   0  0  0  0  0  0  0  0  0  0  0  0
    0.2712   -2.7762    1.4210 C   0  0  0  0  0  0  0  0  0  0  0  0
    0.1796   -1.4566   -0.7163 C   0  0  0  0  0  0  0  0  0  0  0  0
    0.6782   -1.2599   -1.8243 O   0  0  0  0  0  0  0  0  0  0  0  0
   -0.6271   -0.3826   -0.0932 C   0  0  0  0  0  0  0  0  0  0  0  0
   -1.8478   -0.6312    0.4067 C   0  0  0  0  0  0  0  0  0  0  0  0
   -2.7218    0.3488    0.9615 C   0  0  0  0  0  0  0  0  0  0  0  0
   -3.4641    0.1405    2.1004 C   0  0  0  0  0  0  0  0  0  0  0  0
   -4.1605    1.3027    2.3456 N   0  0  0  0  0  0  0  0  0  0  0  0
   -5.0349    1.5876    3.4338 C   0  0  0  0  0  0  0  0  0  0  0  0
   -5.7245    2.8090    3.4610 C   0  0  0  0  0  0  0  0  0  0  0  0
   -6.5813    3.1117    4.5228 C   0  0  0  0  0  0  0  0  0  0  0  0
   -6.7493    2.2045    5.5666 C   0  0  0  0  0  0  0  0  0  0  0  0
   -6.0729    0.9850    5.5451 C   0  0  0  0  0  0  0  0  0  0  0  0
   -5.2197    0.6709    4.4808 C   0  0  0  0  0  0  0  0  0  0  0  0
   -3.9184    2.2320    1.3906 N   0  0  0  0  0  0  0  0  0  0  0  0
   -3.0565    1.6639    0.5341 C   0  0  0  0  0  0  0  0  0  0  0  0
   -2.6254    2.3952   -0.6577 C   0  0  0  0  0  0  0  0  0  0  0  0
   -2.2383    3.7378   -0.5556 C   0  0  0  0  0  0  0  0  0  0  0  0
   -1.8392    4.4506   -1.6904 C   0  0  0  0  0  0  0  0  0  0  0  0
   -1.8183    3.8315   -2.9453 C   0  0  0  0  0  0  0  0  0  0  0  0
   -1.4360    4.6056   -4.1739 C   0  0  0  0  0  0  0  0  0  0  0  0
   -2.2242    2.4955   -3.0517 C   0  0  0  0  0  0  0  0  0  0  0  0
   -2.6239    1.7826   -1.9173 C   0  0  0  0  0  0  0  0  0  0  0  0
    4.7625   -1.3095   -2.1602 C   0  0  0  0  0  0  0  0  0  0  0  0
    6.1080   -0.9825   -2.3666 C   0  0  0  0  0  0  0  0  0  0  0  0
   10.3951   -1.6572   -1.8773 H   0  0  0  0  0  0  0  0  0  0  0  0
    9.3834   -2.2083   -0.5334 H   0  0  0  0  0  0  0  0  0  0  0  0
    9.4889   -3.1646   -2.0639 H   0  0  0  0  0  0  0  0  0  0  0  0
    7.5248   -3.7077   -0.8997 H   0  0  0  0  0  0  0  0  0  0  0  0
    5.2055   -4.2672   -0.5366 H   0  0  0  0  0  0  0  0  0  0  0  0
    2.3934   -2.0566   -1.7131 H   0  0  0  0  0  0  0  0  0  0  0  0
    0.5935   -3.7537   -1.8022 H   0  0  0  0  0  0  0  0  0  0  0  0
    0.5068   -4.7054   -0.3125 H   0  0  0  0  0  0  0  0  0  0  0  0
   -0.6002   -3.3943    1.6518 H   0  0  0  0  0  0  0  0  0  0  0  0
    0.1809   -1.8103    1.9210 H   0  0  0  0  0  0  0  0  0  0  0  0
    1.1732   -3.2687    1.8002 H   0  0  0  0  0  0  0  0  0  0  0  0
   -0.2130    0.6164   -0.1701 H   0  0  0  0  0  0  0  0  0  0  0  0
   -2.2126   -1.6566    0.4128 H   0  0  0  0  0  0  0  0  0  0  0  0
   -3.5404   -0.7202    2.7457 H   0  0  0  0  0  0  0  0  0  0  0  0
   -5.6081    3.5362    2.6571 H   0  0  0  0  0  0  0  0  0  0  0  0
   -7.1148    4.0586    4.5333 H   0  0  0  0  0  0  0  0  0  0  0  0
   -7.4095    2.4465    6.3978 H   0  0  0  0  0  0  0  0  0  0  0  0
   -6.2005    0.2821    6.3644 H   0  0  0  0  0  0  0  0  0  0  0  0
   -4.7003   -0.2800    4.5142 H   0  0  0  0  0  0  0  0  0  0  0  0
   -2.2515    4.2383    0.4117 H   0  0  0  0  0  0  0  0  0  0  0  0
   -1.5507    5.4945   -1.5859 H   0  0  0  0  0  0  0  0  0  0  0  0
   -0.8713    3.9772   -4.8689 H   0  0  0  0  0  0  0  0  0  0  0  0
   -0.7993    5.4576   -3.9168 H   0  0  0  0  0  0  0  0  0  0  0  0
   -2.3350    4.9795   -4.6751 H   0  0  0  0  0  0  0  0  0  0  0  0
   -2.2401    2.0013   -4.0214 H   0  0  0  0  0  0  0  0  0  0  0  0
   -2.9494    0.7518   -2.0335 H   0  0  0  0  0  0  0  0  0  0  0  0
    3.9967   -0.6293   -2.5277 H   0  0  0  0  0  0  0  0  0  0  0  0
    6.3654   -0.0594   -2.8820 H   0  0  0  0  0  0  0  0  0  0  0  0
  1  2  1  0
  2  3  1  0
  3  4  2  0
  4  5  1  0
  5  6  2  0
  6  7  1  0
  7  8  1  0
  8  9  2  0
  8 10  1  0
 10 11  1  0
 11 12  1  0
 11 13  1  0
 13 14  2  0
 13 15  1  0
 15 16  2  3
 16 17  1  0
 17 18  2  0
 18 19  1  0
 19 20  1  0
 20 21  2  0
 21 22  1  0
 22 23  2  0
 23 24  1  0
 24 25  2  0
 19 26  1  0
 26 27  2  0
 27 28  1  0
 28 29  2  0
 29 30  1  0
 30 31  2  0
 31 32  1  0
 31 33  1  0
 33 34  2  0
  6 35  1  0
 35 36  2  0
 36  3  1  0
 27 17  1  0
 34 28  1  0
 25 20  1  0
  1 37  1  0
  1 38  1  0
  1 39  1  0
  4 40  1  0
  5 41  1  0
  7 42  1  0
 10 43  1  0
 10 44  1  0
 12 45  1  0
 12 46  1  0
 12 47  1  0
 15 48  1  0
 16 49  1  0
 18 50  1  0
 21 51  1  0
 22 52  1  0
 23 53  1  0
 24 54  1  0
 25 55  1  0
 29 56  1  0
 30 57  1  0
 32 58  1  0
 32 59  1  0
 32 60  1  0
 33 61  1  0
 34 62  1  0
 35 63  1  0
 36 64  1  0
M  END
$$$$
