
     RDKit          3D

 43 45  0  0  0  0  0  0  0  0999 V2000
    1.5875    1.9212   -1.5297 O   0  0  0  0  0  0  0  0  0  0  0  0
    1.9479    0.9688   -0.8418 C   0  0  0  0  0  0  0  0  0  0  0  0
    3.4325    0.6674   -0.6689 C   0  0  0  0  0  0  0  0  0  0  0  0
    3.8293    0.2181    1.0592 S   0  0  0  0  0  0  0  0  0  0  0  0
    5.6140    0.2797    1.0079 C   0  0  0  0  0  0  0  0  0  0  0  0
    6.2801    0.9984    2.0079 C   0  0  0  0  0  0  0  0  0  0  0  0
    7.6768    1.0705    2.0209 C   0  0  0  0  0  0  0  0  0  0  0  0
    8.4222    0.4168    1.0403 C   0  0  0  0  0  0  0  0  0  0  0  0
    7.7708   -0.3134    0.0486 C   0  0  0  0  0  0  0  0  0  0  0  0
    6.3787   -0.3813    0.0403 C   0  0  0  0  0  0  0  0  0  0  0  0
    5.7876   -1.1108   -0.9181 F   0  0  0  0  0  0  0  0  0  0  0  0
    1.1184    0.0406   -0.2354 N   0  0  0  0  0  0  0  0  0  0  0  0
   -0.2877   -0.0110   -0.2559 C   0  0  0  0  0  0  0  0  0  0  0  0
   -0.9044   -1.0095    0.4980 C   0  0  0  0  0  0  0  0  0  0  0  0
   -2.3023   -1.1274    0.5260 C   0  0  0  0  0  0  0  0  0  0  0  0
   -3.1371   -0.2593   -0.1912 C   0  0  0  0  0  0  0  0  0  0  0  0
   -4.5138   -0.3752   -0.1590 N   0  0  0  0  0  0  0  0  0  0  0  0
   -5.1875   -1.6179    0.2490 C   0  0  0  0  0  0  0  0  0  0  0  0
   -6.5708   -1.7119   -0.4173 C   0  0  0  0  0  0  0  0  0  0  0  0
   -7.4485   -0.6231   -0.0982 O   0  0  0  0  0  0  0  0  0  0  0  0
   -6.7543    0.6027    0.1732 C   0  0  0  0  0  0  0  0  0  0  0  0
   -5.4007    0.7339   -0.5462 C   0  0  0  0  0  0  0  0  0  0  0  0
   -2.4918    0.7340   -0.9421 C   0  0  0  0  0  0  0  0  0  0  0  0
   -1.0932    0.8597   -0.9795 C   0  0  0  0  0  0  0  0  0  0  0  0
    3.6894   -0.1476   -1.3509 H   0  0  0  0  0  0  0  0  0  0  0  0
    3.9989    1.5631   -0.9433 H   0  0  0  0  0  0  0  0  0  0  0  0
    5.7182    1.5138    2.7846 H   0  0  0  0  0  0  0  0  0  0  0  0
    8.1821    1.6368    2.8003 H   0  0  0  0  0  0  0  0  0  0  0  0
    9.5080    0.4729    1.0523 H   0  0  0  0  0  0  0  0  0  0  0  0
    8.3371   -0.8355   -0.7167 H   0  0  0  0  0  0  0  0  0  0  0  0
    1.5861   -0.6410    0.3531 H   0  0  0  0  0  0  0  0  0  0  0  0
   -0.3156   -1.7105    1.0833 H   0  0  0  0  0  0  0  0  0  0  0  0
   -2.7257   -1.9092    1.1502 H   0  0  0  0  0  0  0  0  0  0  0  0
   -4.6104   -2.5001   -0.0507 H   0  0  0  0  0  0  0  0  0  0  0  0
   -5.2978   -1.6207    1.3397 H   0  0  0  0  0  0  0  0  0  0  0  0
   -6.4645   -1.7413   -1.5084 H   0  0  0  0  0  0  0  0  0  0  0  0
   -7.0718   -2.6368   -0.1141 H   0  0  0  0  0  0  0  0  0  0  0  0
   -6.6124    0.6665    1.2585 H   0  0  0  0  0  0  0  0  0  0  0  0
   -7.4156    1.4254   -0.1170 H   0  0  0  0  0  0  0  0  0  0  0  0
   -5.5507    0.7076   -1.6318 H   0  0  0  0  0  0  0  0  0  0  0  0
   -4.9686    1.7031   -0.2718 H   0  0  0  0  0  0  0  0  0  0  0  0
   -3.0661    1.4319   -1.5453 H   0  0  0  0  0  0  0  0  0  0  0  0
   -0.6744    1.6509   -1.5928 H   0  0  0  0  0  0  0  0  0  0  0  0
  1  2  2  0
  2  3  1  0
  3  4  1  0
  4  5  1  0
  5  6  2  0
  6  7  1  0
  7  8  2  0
  8  9  1  0
  9 10  2  0
 10 11  1  0
  2 12  1  0
 12 13  1  0
 13 14  2  0
 14 15  1  0
 15 16  2  0
 16 17  1  0
 17 18  1  0
 18 19  1  0
 19 20  1  0
 20 21  1  0
 21 22  1  0
 16 23  1  0
 23 24  2  0
 10  5  1  0
 24 13  1  0
 22 17  1  0
  3 25  1  0
  3 26  1  0
  6 27  1  0
  7 28  1  0
  8 29  1  0
  9 30  1  0
 12 31  1  0
 14 32  1  0
 15 33  1  0
 18 34  1  0
 18 35  1  0
 19 36  1  0
 19 37  1  0
 21 38  1  0
 21 39  1  0
 22 40  1  0
 22 41  1  0
 23 42  1  0
 24 43  1  0
M  END
$$$$
