
     RDKit          3D

 58 60  0  0  0  0  0  0  0  0999 V2000
    5.6633   -1.3440   -4.0428 C   0  0  0  0  0  0  0  0  0  0  0  0
    5.1859   -1.6677   -2.6592 C   0  0  0  0  0  0  0  0  0  0  0  0
    6.0833   -2.1016   -1.6779 C   0  0  0  0  0  0  0  0  0  0  0  0
    5.6402   -2.3723   -0.3812 C   0  0  0  0  0  0  0  0  0  0  0  0
    4.2922   -2.2051   -0.0425 C   0  0  0  0  0  0  0  0  0  0  0  0
    3.8124   -2.4612    1.3674 C   0  0  0  0  0  0  0  0  0  0  0  0
    4.1805   -1.3285    2.3335 C   0  0  0  0  0  0  0  0  0  0  0  0
    3.6535   -0.0375    1.9267 N   0  0  0  0  0  0  0  0  0  0  0  0
    2.3169    0.2679    2.0585 C   0  0  0  0  0  0  0  0  0  0  0  0
    1.5097   -0.4546    2.6323 O   0  0  0  0  0  0  0  0  0  0  0  0
    1.9438    1.5800    1.4069 C   0  0  0  0  0  0  0  0  0  0  0  0
    0.4475    1.8310    1.5196 C   0  0  0  0  0  0  0  0  0  0  0  0
    0.1012    3.0492    0.7750 N   0  0  0  0  0  0  0  0  0  0  0  0
   -1.2770    3.9092    1.1986 S   0  0  0  0  0  6  0  0  0  0  0  0
   -1.4878    4.8967    0.1653 O   0  0  0  0  0  0  0  0  0  0  0  0
   -1.1654    4.2668    2.5944 O   0  0  0  0  0  0  0  0  0  0  0  0
   -2.5600    2.6932    1.0387 C   0  0  0  0  0  0  0  0  0  0  0  0
   -3.2819    2.2788    2.1558 C   0  0  0  0  0  0  0  0  0  0  0  0
   -4.2789    1.3066    2.0133 C   0  0  0  0  0  0  0  0  0  0  0  0
   -4.5624    0.7379    0.7593 C   0  0  0  0  0  0  0  0  0  0  0  0
   -3.8261    1.1713   -0.3433 C   0  0  0  0  0  0  0  0  0  0  0  0
   -2.8323    2.1530   -0.2170 C   0  0  0  0  0  0  0  0  0  0  0  0
   -4.0804    0.5694   -1.6598 C   0  0  0  0  0  0  0  0  0  0  0  0
   -3.3485    0.8705   -2.5998 O   0  0  0  0  0  0  0  0  0  0  0  0
   -5.1310   -0.3290   -1.7426 N   0  0  0  0  0  0  0  0  0  0  0  0
   -5.4148   -0.9223   -3.0363 C   0  0  0  0  0  0  0  0  0  0  0  0
   -5.8496   -0.8147   -0.6567 C   0  0  0  0  0  0  0  0  0  0  0  0
   -6.6973   -1.6997   -0.7942 O   0  0  0  0  0  0  0  0  0  0  0  0
   -5.5558   -0.2623    0.5877 N   0  0  0  0  0  0  0  0  0  0  0  0
   -6.2956   -0.7495    1.7467 C   0  0  0  0  0  0  0  0  0  0  0  0
    3.3960   -1.7628   -1.0233 C   0  0  0  0  0  0  0  0  0  0  0  0
    3.8403   -1.4911   -2.3185 C   0  0  0  0  0  0  0  0  0  0  0  0
    6.5987   -1.8659   -4.2708 H   0  0  0  0  0  0  0  0  0  0  0  0
    4.9257   -1.6550   -4.7894 H   0  0  0  0  0  0  0  0  0  0  0  0
    5.8320   -0.2678   -4.1357 H   0  0  0  0  0  0  0  0  0  0  0  0
    7.1361   -2.2360   -1.9184 H   0  0  0  0  0  0  0  0  0  0  0  0
    6.3563   -2.7148    0.3617 H   0  0  0  0  0  0  0  0  0  0  0  0
    2.7261   -2.6150    1.3633 H   0  0  0  0  0  0  0  0  0  0  0  0
    4.2478   -3.4023    1.7260 H   0  0  0  0  0  0  0  0  0  0  0  0
    3.7948   -1.5612    3.3319 H   0  0  0  0  0  0  0  0  0  0  0  0
    5.2675   -1.2180    2.4086 H   0  0  0  0  0  0  0  0  0  0  0  0
    4.2004    0.4848    1.2522 H   0  0  0  0  0  0  0  0  0  0  0  0
    2.2436    1.5442    0.3526 H   0  0  0  0  0  0  0  0  0  0  0  0
    2.5026    2.3885    1.8919 H   0  0  0  0  0  0  0  0  0  0  0  0
    0.1676    1.9278    2.5741 H   0  0  0  0  0  0  0  0  0  0  0  0
   -0.1082    0.9883    1.0932 H   0  0  0  0  0  0  0  0  0  0  0  0
    0.3187    3.0973   -0.2198 H   0  0  0  0  0  0  0  0  0  0  0  0
   -3.0777    2.6984    3.1395 H   0  0  0  0  0  0  0  0  0  0  0  0
   -4.8164    1.0089    2.9102 H   0  0  0  0  0  0  0  0  0  0  0  0
   -2.2751    2.4834   -1.0913 H   0  0  0  0  0  0  0  0  0  0  0  0
   -4.9814   -1.9275   -3.0584 H   0  0  0  0  0  0  0  0  0  0  0  0
   -6.4965   -1.0037   -3.1826 H   0  0  0  0  0  0  0  0  0  0  0  0
   -4.9936   -0.3351   -3.8568 H   0  0  0  0  0  0  0  0  0  0  0  0
   -5.5944   -1.1743    2.4728 H   0  0  0  0  0  0  0  0  0  0  0  0
   -6.8551    0.0785    2.1954 H   0  0  0  0  0  0  0  0  0  0  0  0
   -7.0133   -1.5313    1.4835 H   0  0  0  0  0  0  0  0  0  0  0  0
    2.3440   -1.6249   -0.7829 H   0  0  0  0  0  0  0  0  0  0  0  0
    3.1277   -1.1449   -3.0633 H   0  0  0  0  0  0  0  0  0  0  0  0
  1  2  1  0
  2  3  2  0
  3  4  1  0
  4  5  2  0
  5  6  1  0
  6  7  1  0
  7  8  1  0
  8  9  1  0
  9 10  2  0
  9 11  1  0
 11 12  1  0
 12 13  1  0
 13 14  1  0
 14 15  2  0
 14 16  2  0
 14 17  1  0
 17 18  2  0
 18 19  1  0
 19 20  2  0
 20 21  1  0
 21 22  2  0
 21 23  1  0
 23 24  2  0
 23 25  1  0
 25 26  1  0
 25 27  1  0
 27 28  2  0
 27 29  1  0
 29 30  1  0
  5 31  1  0
 31 32  2  0
 32  2  1  0
 22 17  1  0
 29 20  1  0
  1 33  1  0
  1 34  1  0
  1 35  1  0
  3 36  1  0
  4 37  1  0
  6 38  1  0
  6 39  1  0
  7 40  1  0
  7 41  1  0
  8 42  1  0
 11 43  1  0
 11 44  1  0
 12 45  1  0
 12 46  1  0
 13 47  1  0
 18 48  1  0
 19 49  1  0
 22 50  1  0
 26 51  1  0
 26 52  1  0
 26 53  1  0
 30 54  1  0
 30 55  1  0
 30 56  1  0
 31 57  1  0
 32 58  1  0
M  END
$$$$
