
     RDKit          3D

 43 46  0  0  0  0  0  0  0  0999 V2000
    6.4134    2.1106   -0.7990 C   0  0  0  0  0  0  0  0  0  0  0  0
    5.0186    1.5609   -0.7214 C   0  0  0  0  0  0  0  0  0  0  0  0
    4.6280    0.7678    0.3617 C   0  0  0  0  0  0  0  0  0  0  0  0
    3.3390    0.2280    0.4221 C   0  0  0  0  0  0  0  0  0  0  0  0
    2.4293    0.4657   -0.6085 C   0  0  0  0  0  0  0  0  0  0  0  0
    0.9775   -0.1313   -0.5522 C   0  0  0  0  0  0  0  0  0  0  0  0
   -0.0414    0.0907   -1.4717 C   0  0  0  0  0  0  0  0  0  0  0  0
   -1.1895   -0.5821   -1.0510 N   0  0  0  0  0  4  0  0  0  0  0  0
   -2.4826   -0.6118   -1.7294 C   0  0  0  0  0  0  0  0  0  0  0  0
   -3.5403   -0.0528   -0.8139 C   0  0  0  0  0  0  0  0  0  0  0  0
   -3.4553    1.2652   -0.3362 C   0  0  0  0  0  0  0  0  0  0  0  0
   -4.4344    1.7768    0.5184 C   0  0  0  0  0  0  0  0  0  0  0  0
   -5.5111    0.9797    0.9045 C   0  0  0  0  0  0  0  0  0  0  0  0
   -5.6080   -0.3249    0.4298 C   0  0  0  0  0  0  0  0  0  0  0  0
   -6.9291   -1.3156    0.9074 Cl  0  0  0  0  0  0  0  0  0  0  0  0
   -4.6351   -0.8421   -0.4274 C   0  0  0  0  0  0  0  0  0  0  0  0
   -0.8843   -1.2139    0.0781 C   0  0  0  0  0  0  0  0  0  0  0  0
    0.3898   -0.9737    0.3743 N   0  0  0  0  0  0  0  0  0  0  0  0
    0.8026   -1.6590    1.5910 C   0  0  0  0  0  0  0  0  0  0  0  0
   -0.3588   -2.6558    1.8574 C   0  0  0  0  0  0  0  0  0  0  0  0
   -1.5540   -2.1003    1.0583 C   0  0  0  0  0  0  0  0  0  0  0  0
    2.8185    1.2510   -1.6998 C   0  0  0  0  0  0  0  0  0  0  0  0
    4.1080    1.7883   -1.7570 C   0  0  0  0  0  0  0  0  0  0  0  0
    7.0696    1.3950   -1.3038 H   0  0  0  0  0  0  0  0  0  0  0  0
    6.4300    3.0568   -1.3500 H   0  0  0  0  0  0  0  0  0  0  0  0
    6.8103    2.3109    0.2018 H   0  0  0  0  0  0  0  0  0  0  0  0
    5.3294    0.5691    1.1709 H   0  0  0  0  0  0  0  0  0  0  0  0
    3.0839   -0.3611    1.2930 H   0  0  0  0  0  0  0  0  0  0  0  0
   -0.1009    0.6656   -2.3802 H   0  0  0  0  0  0  0  0  0  0  0  0
   -2.6913   -1.6518   -2.0041 H   0  0  0  0  0  0  0  0  0  0  0  0
   -2.4367   -0.0219   -2.6513 H   0  0  0  0  0  0  0  0  0  0  0  0
   -2.6267    1.9090   -0.6267 H   0  0  0  0  0  0  0  0  0  0  0  0
   -4.3634    2.8006    0.8814 H   0  0  0  0  0  0  0  0  0  0  0  0
   -6.2724    1.3834    1.5684 H   0  0  0  0  0  0  0  0  0  0  0  0
   -4.7414   -1.8627   -0.7907 H   0  0  0  0  0  0  0  0  0  0  0  0
    1.7463   -2.1885    1.4429 H   0  0  0  0  0  0  0  0  0  0  0  0
    0.8866   -0.9251    2.3978 H   0  0  0  0  0  0  0  0  0  0  0  0
   -0.5768   -2.7787    2.9217 H   0  0  0  0  0  0  0  0  0  0  0  0
   -0.0837   -3.6377    1.4542 H   0  0  0  0  0  0  0  0  0  0  0  0
   -2.1135   -2.8679    0.5226 H   0  0  0  0  0  0  0  0  0  0  0  0
   -2.2010   -1.4655    1.6672 H   0  0  0  0  0  0  0  0  0  0  0  0
    2.1503    1.4605   -2.5296 H   0  0  0  0  0  0  0  0  0  0  0  0
    4.4006    2.3887   -2.6173 H   0  0  0  0  0  0  0  0  0  0  0  0
  1  2  1  0
  2  3  2  0
  3  4  1  0
  4  5  2  0
  5  6  1  0
  6  7  2  0
  7  8  1  0
  8  9  1  0
  9 10  1  0
 10 11  2  0
 11 12  1  0
 12 13  2  0
 13 14  1  0
 14 15  1  0
 14 16  2  0
  8 17  2  0
 17 18  1  0
 18 19  1  0
 19 20  1  0
 20 21  1  0
  5 22  1  0
 22 23  2  0
 23  2  1  0
 18  6  1  0
 16 10  1  0
 21 17  1  0
  1 24  1  0
  1 25  1  0
  1 26  1  0
  3 27  1  0
  4 28  1  0
  7 29  1  0
  9 30  1  0
  9 31  1  0
 11 32  1  0
 12 33  1  0
 13 34  1  0
 16 35  1  0
 19 36  1  0
 19 37  1  0
 20 38  1  0
 20 39  1  0
 21 40  1  0
 21 41  1  0
 22 42  1  0
 23 43  1  0
M  CHG  1   8   1
M  END
$$$$
