
     RDKit          3D

 35 36  0  0  0  0  0  0  0  0999 V2000
   -5.7871    0.4754   -1.7774 C   0  0  0  0  0  0  0  0  0  0  0  0
   -4.7777    1.3573   -1.0905 C   0  0  0  0  0  0  0  0  0  0  0  0
   -4.8568    2.5826   -1.1507 O   0  0  0  0  0  0  0  0  0  0  0  0
   -3.6663    0.7232   -0.3203 C   0  0  0  0  0  0  0  0  0  0  0  0
   -3.5683   -0.6635   -0.1520 C   0  0  0  0  0  0  0  0  0  0  0  0
   -2.5061   -1.2088    0.5774 C   0  0  0  0  0  0  0  0  0  0  0  0
   -1.5449   -0.3712    1.1436 C   0  0  0  0  0  0  0  0  0  0  0  0
   -0.4327   -0.9265    1.8399 N   0  0  0  0  0  0  0  0  0  0  0  0
    0.9186   -1.3678    0.8992 S   0  0  0  0  0  6  0  0  0  0  0  0
    1.5078   -2.4737    1.6278 O   0  0  0  0  0  0  0  0  0  0  0  0
    0.5093   -1.5081   -0.4816 O   0  0  0  0  0  0  0  0  0  0  0  0
    1.9619    0.0827    1.0994 C   0  0  0  0  0  0  0  0  0  0  0  0
    3.2727   -0.1474    0.3912 C   0  0  0  0  0  0  0  0  0  0  0  0
    3.4165    0.1827   -0.9652 C   0  0  0  0  0  0  0  0  0  0  0  0
    4.6294   -0.0354   -1.6227 C   0  0  0  0  0  0  0  0  0  0  0  0
    5.7041   -0.5867   -0.9295 C   0  0  0  0  0  0  0  0  0  0  0  0
    7.1982   -0.8541   -1.7396 Cl  0  0  0  0  0  0  0  0  0  0  0  0
    5.5753   -0.9253    0.4153 C   0  0  0  0  0  0  0  0  0  0  0  0
    4.3629   -0.7078    1.0741 C   0  0  0  0  0  0  0  0  0  0  0  0
   -1.6273    1.0081    0.9725 C   0  0  0  0  0  0  0  0  0  0  0  0
   -2.6901    1.5546    0.2484 C   0  0  0  0  0  0  0  0  0  0  0  0
   -6.3565   -0.0937   -1.0382 H   0  0  0  0  0  0  0  0  0  0  0  0
   -5.2896   -0.1917   -2.4861 H   0  0  0  0  0  0  0  0  0  0  0  0
   -6.4870    1.1014   -2.3399 H   0  0  0  0  0  0  0  0  0  0  0  0
   -4.2970   -1.3436   -0.5835 H   0  0  0  0  0  0  0  0  0  0  0  0
   -2.4268   -2.2884    0.6785 H   0  0  0  0  0  0  0  0  0  0  0  0
   -0.6574   -1.7135    2.4536 H   0  0  0  0  0  0  0  0  0  0  0  0
    1.4404    0.9454    0.6753 H   0  0  0  0  0  0  0  0  0  0  0  0
    2.1163    0.2478    2.1702 H   0  0  0  0  0  0  0  0  0  0  0  0
    2.5819    0.6019   -1.5254 H   0  0  0  0  0  0  0  0  0  0  0  0
    4.7261    0.2209   -2.6745 H   0  0  0  0  0  0  0  0  0  0  0  0
    6.4109   -1.3636    0.9546 H   0  0  0  0  0  0  0  0  0  0  0  0
    4.2750   -0.9904    2.1219 H   0  0  0  0  0  0  0  0  0  0  0  0
   -0.8838    1.6687    1.4082 H   0  0  0  0  0  0  0  0  0  0  0  0
   -2.7521    2.6350    0.1259 H   0  0  0  0  0  0  0  0  0  0  0  0
  1  2  1  0
  2  3  2  0
  2  4  1  0
  4  5  2  0
  5  6  1  0
  6  7  2  0
  7  8  1  0
  8  9  1  0
  9 10  2  0
  9 11  2  0
  9 12  1  0
 12 13  1  0
 13 14  2  0
 14 15  1  0
 15 16  2  0
 16 17  1  0
 16 18  1  0
 18 19  2  0
  7 20  1  0
 20 21  2  0
 21  4  1  0
 19 13  1  0
  1 22  1  0
  1 23  1  0
  1 24  1  0
  5 25  1  0
  6 26  1  0
  8 27  1  0
 12 28  1  0
 12 29  1  0
 14 30  1  0
 15 31  1  0
 18 32  1  0
 19 33  1  0
 20 34  1  0
 21 35  1  0
M  END
$$$$
