
     RDKit          3D

 47 49  0  0  0  0  0  0  0  0999 V2000
   -3.0920   -0.5600   -3.2157 O   0  0  0  0  0  0  0  0  0  0  0  0
   -3.2896   -0.3694   -2.0191 C   0  0  0  0  0  0  0  0  0  0  0  0
   -4.7122   -0.4200   -1.4533 C   0  0  0  0  0  0  0  0  0  0  0  0
   -4.7114   -0.4349   -0.0270 O   0  0  0  0  0  0  0  0  0  0  0  0
   -5.9305   -0.6043    0.5727 C   0  0  0  0  0  0  0  0  0  0  0  0
   -5.8797   -0.9974    1.9132 C   0  0  0  0  0  0  0  0  0  0  0  0
   -7.0558   -1.2033    2.6399 C   0  0  0  0  0  0  0  0  0  0  0  0
   -8.2883   -1.0018    2.0231 C   0  0  0  0  0  0  0  0  0  0  0  0
   -9.8846   -1.2761    2.9970 Br  0  0  0  0  0  0  0  0  0  0  0  0
   -8.3515   -0.5978    0.6907 C   0  0  0  0  0  0  0  0  0  0  0  0
   -7.1717   -0.3981   -0.0352 C   0  0  0  0  0  0  0  0  0  0  0  0
   -2.3395   -0.0557   -1.0630 N   0  0  0  0  0  0  0  0  0  0  0  0
   -0.9560    0.1276   -1.2424 C   0  0  0  0  0  0  0  0  0  0  0  0
   -0.2065    0.4926   -0.1163 C   0  0  0  0  0  0  0  0  0  0  0  0
    1.1737    0.7113   -0.2118 C   0  0  0  0  0  0  0  0  0  0  0  0
    1.8253    0.5456   -1.4396 C   0  0  0  0  0  0  0  0  0  0  0  0
    3.2925    0.7727   -1.6060 C   0  0  0  0  0  0  0  0  0  0  0  0
    3.6998    1.1488   -2.6998 O   0  0  0  0  0  0  0  0  0  0  0  0
    4.0624    0.4959   -0.4923 N   0  0  0  0  0  0  0  0  0  0  0  0
    5.4679    0.6273   -0.3386 C   0  0  0  0  0  0  0  0  0  0  0  0
    6.2795    1.1668   -1.3442 C   0  0  0  0  0  0  0  0  0  0  0  0
    7.6627    1.2840   -1.1715 C   0  0  0  0  0  0  0  0  0  0  0  0
    8.2607    0.8652    0.0113 C   0  0  0  0  0  0  0  0  0  0  0  0
    7.4746    0.3287    1.0284 C   0  0  0  0  0  0  0  0  0  0  0  0
    6.0822    0.2073    0.8663 C   0  0  0  0  0  0  0  0  0  0  0  0
    5.2637   -0.3611    1.9742 C   0  0  0  0  0  0  0  0  0  0  0  0
    4.0471   -0.4495    1.9827 O   0  0  0  0  0  0  0  0  0  0  0  0
    5.9965   -0.7977    3.0144 O   0  0  0  0  0  0  0  0  0  0  0  0
    1.0761    0.1921   -2.5659 C   0  0  0  0  0  0  0  0  0  0  0  0
   -0.3043   -0.0183   -2.4664 C   0  0  0  0  0  0  0  0  0  0  0  0
   -5.1828   -1.3318   -1.8391 H   0  0  0  0  0  0  0  0  0  0  0  0
   -5.2258    0.4726   -1.8266 H   0  0  0  0  0  0  0  0  0  0  0  0
   -4.9184   -1.1574    2.3967 H   0  0  0  0  0  0  0  0  0  0  0  0
   -6.9992   -1.5197    3.6791 H   0  0  0  0  0  0  0  0  0  0  0  0
   -9.3111   -0.4283    0.2097 H   0  0  0  0  0  0  0  0  0  0  0  0
   -7.2601   -0.0696   -1.0655 H   0  0  0  0  0  0  0  0  0  0  0  0
   -2.7037    0.0430   -0.1202 H   0  0  0  0  0  0  0  0  0  0  0  0
   -0.6874    0.6358    0.8494 H   0  0  0  0  0  0  0  0  0  0  0  0
    1.7126    1.0408    0.6730 H   0  0  0  0  0  0  0  0  0  0  0  0
    3.5865    0.0753    0.3055 H   0  0  0  0  0  0  0  0  0  0  0  0
    5.8657    1.5145   -2.2860 H   0  0  0  0  0  0  0  0  0  0  0  0
    8.2695    1.7031   -1.9716 H   0  0  0  0  0  0  0  0  0  0  0  0
    9.3368    0.9547    0.1396 H   0  0  0  0  0  0  0  0  0  0  0  0
    7.9605    0.0060    1.9471 H   0  0  0  0  0  0  0  0  0  0  0  0
    5.3401   -1.1347    3.6586 H   0  0  0  0  0  0  0  0  0  0  0  0
    1.5634    0.0733   -3.5325 H   0  0  0  0  0  0  0  0  0  0  0  0
   -0.8376   -0.2979   -3.3694 H   0  0  0  0  0  0  0  0  0  0  0  0
  1  2  2  0
  2  3  1  0
  3  4  1  0
  4  5  1  0
  5  6  2  0
  6  7  1  0
  7  8  2  0
  8  9  1  0
  8 10  1  0
 10 11  2  0
  2 12  1  0
 12 13  1  0
 13 14  2  0
 14 15  1  0
 15 16  2  0
 16 17  1  0
 17 18  2  0
 17 19  1  0
 19 20  1  0
 20 21  2  0
 21 22  1  0
 22 23  2  0
 23 24  1  0
 24 25  2  0
 25 26  1  0
 26 27  2  0
 26 28  1  0
 16 29  1  0
 29 30  2  0
 11  5  1  0
 30 13  1  0
 25 20  1  0
  3 31  1  0
  3 32  1  0
  6 33  1  0
  7 34  1  0
 10 35  1  0
 11 36  1  0
 12 37  1  0
 14 38  1  0
 15 39  1  0
 19 40  1  0
 21 41  1  0
 22 42  1  0
 23 43  1  0
 24 44  1  0
 28 45  1  0
 29 46  1  0
 30 47  1  0
M  END
$$$$
