
     RDKit          3D

 41 43  0  0  0  0  0  0  0  0999 V2000
   -3.0831   -2.2419    2.1969 C   0  0  0  0  0  0  0  0  0  0  0  0
   -2.9402   -0.9093    1.5234 C   0  0  0  0  0  0  0  0  0  0  0  0
   -3.0685    0.2741    2.2526 C   0  0  0  0  0  0  0  0  0  0  0  0
   -2.9632    1.5146    1.6178 C   0  0  0  0  0  0  0  0  0  0  0  0
   -2.7243    1.6091    0.2365 C   0  0  0  0  0  0  0  0  0  0  0  0
   -2.6375    2.9786   -0.3748 C   0  0  0  0  0  0  0  0  0  0  0  0
   -2.6127    0.4132   -0.4982 C   0  0  0  0  0  0  0  0  0  0  0  0
   -2.3210    0.3983   -2.2653 S   0  0  0  0  0  6  0  0  0  0  0  0
   -2.5601   -0.9435   -2.7556 O   0  0  0  0  0  0  0  0  0  0  0  0
   -3.0088    1.5271   -2.8550 O   0  0  0  0  0  0  0  0  0  0  0  0
   -0.6647    0.7315   -2.3810 N   0  0  0  0  0  0  0  0  0  0  0  0
    0.2485   -0.0584   -1.6274 C   0  0  0  0  0  0  0  0  0  0  0  0
    0.4219   -1.4109   -1.9131 C   0  0  0  0  0  0  0  0  0  0  0  0
    1.2812   -2.1803   -1.1304 C   0  0  0  0  0  0  0  0  0  0  0  0
    1.9666   -1.5944   -0.0678 C   0  0  0  0  0  0  0  0  0  0  0  0
    2.7911   -2.4235    0.6424 O   0  0  0  0  0  0  0  0  0  0  0  0
    1.7986   -0.2357    0.2356 C   0  0  0  0  0  0  0  0  0  0  0  0
    2.5630    0.5662    1.6373 S   0  0  0  0  0  0  0  0  0  0  0  0
    4.2491    0.4863    1.2172 C   0  0  0  0  0  0  0  0  0  0  0  0
    4.9913    1.5729    0.8528 N   0  0  0  0  0  0  0  0  0  0  0  0
    6.1798    1.0596    0.6386 C   0  0  0  0  0  0  0  0  0  0  0  0
    6.1457   -0.2791    0.8709 N   0  0  0  0  0  0  0  0  0  0  0  0
    4.9163   -0.6748    1.2479 N   0  0  0  0  0  0  0  0  0  0  0  0
    0.9292    0.5273   -0.5570 C   0  0  0  0  0  0  0  0  0  0  0  0
   -2.7328   -0.8327    0.1426 C   0  0  0  0  0  0  0  0  0  0  0  0
   -4.1266   -2.5694    2.1612 H   0  0  0  0  0  0  0  0  0  0  0  0
   -2.7652   -2.1877    3.2434 H   0  0  0  0  0  0  0  0  0  0  0  0
   -2.4572   -2.9950    1.7067 H   0  0  0  0  0  0  0  0  0  0  0  0
   -3.2545    0.2406    3.3243 H   0  0  0  0  0  0  0  0  0  0  0  0
   -3.0729    2.4156    2.2197 H   0  0  0  0  0  0  0  0  0  0  0  0
   -1.7610    3.0679   -1.0222 H   0  0  0  0  0  0  0  0  0  0  0  0
   -2.5304    3.7507    0.3955 H   0  0  0  0  0  0  0  0  0  0  0  0
   -3.5475    3.2022   -0.9392 H   0  0  0  0  0  0  0  0  0  0  0  0
   -0.4838    1.7304   -2.4571 H   0  0  0  0  0  0  0  0  0  0  0  0
   -0.1053   -1.8755   -2.7430 H   0  0  0  0  0  0  0  0  0  0  0  0
    1.4183   -3.2361   -1.3486 H   0  0  0  0  0  0  0  0  0  0  0  0
    3.4429   -1.8673    1.1212 H   0  0  0  0  0  0  0  0  0  0  0  0
    7.0693    1.5884    0.3267 H   0  0  0  0  0  0  0  0  0  0  0  0
    6.8924   -0.9621    0.7968 H   0  0  0  0  0  0  0  0  0  0  0  0
    0.7691    1.5769   -0.3238 H   0  0  0  0  0  0  0  0  0  0  0  0
   -2.6532   -1.7537   -0.4337 H   0  0  0  0  0  0  0  0  0  0  0  0
  1  2  1  0
  2  3  2  0
  3  4  1  0
  4  5  2  0
  5  6  1  0
  5  7  1  0
  7  8  1  0
  8  9  2  0
  8 10  2  0
  8 11  1  0
 11 12  1  0
 12 13  2  0
 13 14  1  0
 14 15  2  0
 15 16  1  0
 15 17  1  0
 17 18  1  0
 18 19  1  0
 19 20  1  0
 20 21  2  0
 21 22  1  0
 22 23  1  0
 17 24  2  0
  7 25  2  0
 25  2  1  0
 24 12  1  0
 23 19  2  0
  1 26  1  0
  1 27  1  0
  1 28  1  0
  3 29  1  0
  4 30  1  0
  6 31  1  0
  6 32  1  0
  6 33  1  0
 11 34  1  0
 13 35  1  0
 14 36  1  0
 16 37  1  0
 21 38  1  0
 22 39  1  0
 24 40  1  0
 25 41  1  0
M  END
$$$$
