
     RDKit          3D

 41 43  0  0  0  0  0  0  0  0999 V2000
   -3.3022   -1.4930    0.4975 C   0  0  0  0  0  0  0  0  0  0  0  0
   -3.0941   -0.0999    0.1950 N   0  0  0  0  0  0  0  0  0  0  0  0
   -1.8964    0.5404    0.0349 C   0  0  0  0  0  0  0  0  0  0  0  0
   -0.3582   -0.2027    0.2887 S   0  0  0  0  0  0  0  0  0  0  0  0
    0.7087    1.2678    0.2606 C   0  0  0  0  0  0  0  0  0  0  0  0
    2.1514    0.8363    0.4412 C   0  0  0  0  0  0  0  0  0  0  0  0
    2.6851    0.7963    1.5482 O   0  0  0  0  0  0  0  0  0  0  0  0
    2.7669    0.5005   -0.7659 N   0  0  0  0  0  0  0  0  0  0  0  0
    4.0132   -0.0682   -0.8758 N   0  0  0  0  0  0  0  0  0  0  0  0
    4.9408    0.3074   -0.0513 C   0  0  0  0  0  0  0  0  0  0  0  0
    6.2660   -0.2755   -0.0697 C   0  0  0  0  0  0  0  0  0  0  0  0
    7.3254    0.0341    0.7644 C   0  0  0  0  0  0  0  0  0  0  0  0
    8.4924   -0.7346    0.4691 C   0  0  0  0  0  0  0  0  0  0  0  0
    8.2715   -1.5995   -0.5811 C   0  0  0  0  0  0  0  0  0  0  0  0
    9.2223   -2.5215   -1.1470 N   0  0  0  0  0  4  0  0  0  0  0  0
   10.3459   -2.5370   -0.6251 O   0  0  0  0  0  0  0  0  0  0  0  0
    8.8672   -3.2251   -2.1008 O   0  0  0  0  0  1  0  0  0  0  0  0
    6.6938   -1.4926   -1.1986 S   0  0  0  0  0  0  0  0  0  0  0  0
   -2.0991    1.7809   -0.3352 N   0  0  0  0  0  0  0  0  0  0  0  0
   -3.4562    1.9743   -0.4025 N   0  0  0  0  0  0  0  0  0  0  0  0
   -4.0614    0.8559   -0.0404 C   0  0  0  0  0  0  0  0  0  0  0  0
   -5.5082    0.6769    0.0537 C   0  0  0  0  0  0  0  0  0  0  0  0
   -6.3245    1.1004   -1.0048 C   0  0  0  0  0  0  0  0  0  0  0  0
   -7.7126    0.9499   -0.9383 C   0  0  0  0  0  0  0  0  0  0  0  0
   -8.2924    0.3856    0.1950 C   0  0  0  0  0  0  0  0  0  0  0  0
  -10.0000    0.1997    0.2808 Cl  0  0  0  0  0  0  0  0  0  0  0  0
   -7.4971   -0.0229    1.2639 C   0  0  0  0  0  0  0  0  0  0  0  0
   -6.1084    0.1271    1.1957 C   0  0  0  0  0  0  0  0  0  0  0  0
   -4.2822   -1.8126    0.1368 H   0  0  0  0  0  0  0  0  0  0  0  0
   -3.2348   -1.6225    1.5802 H   0  0  0  0  0  0  0  0  0  0  0  0
   -2.5457   -2.0974   -0.0083 H   0  0  0  0  0  0  0  0  0  0  0  0
    0.6023    1.8059   -0.6874 H   0  0  0  0  0  0  0  0  0  0  0  0
    0.4439    1.9513    1.0740 H   0  0  0  0  0  0  0  0  0  0  0  0
    2.1540    0.2586   -1.5420 H   0  0  0  0  0  0  0  0  0  0  0  0
    4.7881    1.1122    0.6878 H   0  0  0  0  0  0  0  0  0  0  0  0
    7.2684    0.7754    1.5542 H   0  0  0  0  0  0  0  0  0  0  0  0
    9.4342   -0.6530    1.0007 H   0  0  0  0  0  0  0  0  0  0  0  0
   -5.8789    1.5547   -1.8887 H   0  0  0  0  0  0  0  0  0  0  0  0
   -8.3307    1.2814   -1.7687 H   0  0  0  0  0  0  0  0  0  0  0  0
   -7.9516   -0.4473    2.1555 H   0  0  0  0  0  0  0  0  0  0  0  0
   -5.5068   -0.1677    2.0523 H   0  0  0  0  0  0  0  0  0  0  0  0
  1  2  1  0
  2  3  1  0
  3  4  1  0
  4  5  1  0
  5  6  1  0
  6  7  2  0
  6  8  1  0
  8  9  1  0
  9 10  2  3
 10 11  1  0
 11 12  2  0
 12 13  1  0
 13 14  2  0
 14 15  1  0
 15 16  2  0
 15 17  1  0
 14 18  1  0
  3 19  2  0
 19 20  1  0
 20 21  2  0
 21 22  1  0
 22 23  2  0
 23 24  1  0
 24 25  2  0
 25 26  1  0
 25 27  1  0
 27 28  2  0
 21  2  1  0
 28 22  1  0
 18 11  1  0
  1 29  1  0
  1 30  1  0
  1 31  1  0
  5 32  1  0
  5 33  1  0
  8 34  1  0
 10 35  1  0
 12 36  1  0
 13 37  1  0
 23 38  1  0
 24 39  1  0
 27 40  1  0
 28 41  1  0
M  CHG  2  15   1  17  -1
M  END
$$$$
