
     RDKit          3D

 24 24  0  0  0  0  0  0  0  0999 V2000
   -4.6925   -0.7644   -0.6727 C   0  0  0  0  0  0  0  0  0  0  0  0
   -3.4755   -0.4304    0.0442 N   0  0  0  0  0  0  0  0  0  0  0  0
   -2.1832   -0.7149   -0.3931 C   0  0  0  0  0  0  0  0  0  0  0  0
   -1.8454   -1.5943   -1.7739 S   0  0  0  0  0  0  0  0  0  0  0  0
   -1.2788   -0.2124    0.5344 N   0  0  0  0  0  0  0  0  0  0  0  0
    0.1139    0.0084    0.4575 C   0  0  0  0  0  0  0  0  0  0  0  0
    0.8062    0.1276    1.6694 C   0  0  0  0  0  0  0  0  0  0  0  0
    2.1830    0.3736    1.6898 C   0  0  0  0  0  0  0  0  0  0  0  0
    2.8897    0.5332    0.4957 C   0  0  0  0  0  0  0  0  0  0  0  0
    4.3717    0.7610    0.5090 C   0  0  0  0  0  0  0  0  0  0  0  0
    2.1984    0.4266   -0.7145 C   0  0  0  0  0  0  0  0  0  0  0  0
    0.8201    0.1793   -0.7322 C   0  0  0  0  0  0  0  0  0  0  0  0
   -5.5437   -0.5111   -0.0358 H   0  0  0  0  0  0  0  0  0  0  0  0
   -4.7151   -1.8327   -0.9021 H   0  0  0  0  0  0  0  0  0  0  0  0
   -4.7379   -0.1802   -1.5957 H   0  0  0  0  0  0  0  0  0  0  0  0
   -3.5430    0.3816    0.6429 H   0  0  0  0  0  0  0  0  0  0  0  0
   -1.6611   -0.1713    1.4699 H   0  0  0  0  0  0  0  0  0  0  0  0
    0.2891    0.0117    2.6183 H   0  0  0  0  0  0  0  0  0  0  0  0
    2.6977    0.4392    2.6457 H   0  0  0  0  0  0  0  0  0  0  0  0
    4.6829    1.3581   -0.3547 H   0  0  0  0  0  0  0  0  0  0  0  0
    4.6749    1.3082    1.4077 H   0  0  0  0  0  0  0  0  0  0  0  0
    4.8978   -0.1982    0.4844 H   0  0  0  0  0  0  0  0  0  0  0  0
    2.7240    0.5435   -1.6600 H   0  0  0  0  0  0  0  0  0  0  0  0
    0.3268    0.1580   -1.6973 H   0  0  0  0  0  0  0  0  0  0  0  0
  1  2  1  0
  2  3  1  0
  3  4  2  0
  3  5  1  0
  5  6  1  0
  6  7  2  0
  7  8  1  0
  8  9  2  0
  9 10  1  0
  9 11  1  0
 11 12  2  0
 12  6  1  0
  1 13  1  0
  1 14  1  0
  1 15  1  0
  2 16  1  0
  5 17  1  0
  7 18  1  0
  8 19  1  0
 10 20  1  0
 10 21  1  0
 10 22  1  0
 11 23  1  0
 12 24  1  0
M  END
$$$$
