
     RDKit          3D

 56 61  0  0  0  0  0  0  0  0999 V2000
    6.5170    0.0377    0.2351 C   0  0  0  0  0  0  0  0  0  0  0  0
    5.1665   -0.4198    0.6979 C   0  0  0  0  0  0  0  0  0  0  0  0
    4.9533   -0.8926    2.0069 C   0  0  0  0  0  0  0  0  0  0  0  0
    6.2472   -0.9724    3.1548 Cl  0  0  0  0  0  0  0  0  0  0  0  0
    3.6820   -1.3179    2.4418 C   0  0  0  0  0  0  0  0  0  0  0  0
    2.5803   -1.2713    1.5869 C   0  0  0  0  0  0  0  0  0  0  0  0
    2.7710   -0.7843    0.3036 C   0  0  0  0  0  0  0  0  0  0  0  0
    4.0449   -0.3728   -0.1224 C   0  0  0  0  0  0  0  0  0  0  0  0
    3.9799    0.0545   -1.4485 N   0  0  0  0  0  0  0  0  0  0  0  0
    2.6897   -0.0588   -1.9637 C   0  0  0  0  0  0  0  0  0  0  0  0
    2.3637    0.1907   -3.1159 O   0  0  0  0  0  0  0  0  0  0  0  0
    1.7946   -0.6041   -0.8258 C   0  0  0  0  0  0  0  0  0  0  0  0
    1.0693   -1.8548   -1.2392 N   0  0  0  0  0  0  0  0  0  0  0  0
   -0.3476   -1.8039   -0.6889 C   0  0  2  0  0  0  0  0  0  0  0  0
   -1.3382   -2.3427   -1.7365 C   0  0  0  0  0  0  0  0  0  0  0  0
   -2.6860   -2.7462   -1.1830 C   0  0  0  0  0  0  0  0  0  0  0  0
   -3.8409   -2.0325   -1.5296 C   0  0  0  0  0  0  0  0  0  0  0  0
   -5.0877   -2.4162   -1.0329 C   0  0  0  0  0  0  0  0  0  0  0  0
   -5.1938   -3.5196   -0.1888 C   0  0  0  0  0  0  0  0  0  0  0  0
   -4.0532   -4.2409    0.1588 C   0  0  0  0  0  0  0  0  0  0  0  0
   -2.8057   -3.8583   -0.3372 C   0  0  0  0  0  0  0  0  0  0  0  0
   -0.4994   -0.3701   -0.3401 C   0  0  0  0  0  0  0  0  0  0  0  0
    0.7218    0.2995   -0.3974 C   0  0  0  0  0  0  0  0  0  0  0  0
    0.5273    1.6179   -0.0868 C   0  0  0  0  0  0  0  0  0  0  0  0
    1.4103    2.6130   -0.1459 O   0  0  0  0  0  0  0  0  0  0  0  0
   -0.8310    1.7613    0.2457 N   0  0  0  0  0  0  0  0  0  0  0  0
   -1.4710    2.9692    0.6559 C   0  0  0  0  0  0  0  0  0  0  0  0
   -0.7983    3.8746    1.4909 C   0  0  0  0  0  0  0  0  0  0  0  0
   -1.4310    5.0537    1.8906 C   0  0  0  0  0  0  0  0  0  0  0  0
   -2.7237    5.3235    1.4559 C   0  0  0  0  0  0  0  0  0  0  0  0
   -3.3259    6.4558    1.8409 F   0  0  0  0  0  0  0  0  0  0  0  0
   -3.4007    4.4354    0.6280 C   0  0  0  0  0  0  0  0  0  0  0  0
   -2.7768    3.2528    0.2255 C   0  0  0  0  0  0  0  0  0  0  0  0
   -1.4511    0.5048    0.1109 C   0  0  0  0  0  0  0  0  0  0  0  0
   -2.7127    0.2483    0.4465 O   0  0  0  0  0  0  0  0  0  0  0  0
    6.5560    0.1946   -0.8465 H   0  0  0  0  0  0  0  0  0  0  0  0
    6.7809    0.9825    0.7205 H   0  0  0  0  0  0  0  0  0  0  0  0
    7.2801   -0.7129    0.4644 H   0  0  0  0  0  0  0  0  0  0  0  0
    3.5500   -1.6864    3.4571 H   0  0  0  0  0  0  0  0  0  0  0  0
    1.6019   -1.6009    1.9223 H   0  0  0  0  0  0  0  0  0  0  0  0
    4.7506    0.3874   -2.0062 H   0  0  0  0  0  0  0  0  0  0  0  0
    0.9823   -1.7713   -2.2554 H   0  0  0  0  0  0  0  0  0  0  0  0
   -0.3626   -2.4100    0.2246 H   0  0  0  0  0  0  0  0  0  0  0  0
   -1.4689   -1.6141   -2.5475 H   0  0  0  0  0  0  0  0  0  0  0  0
   -0.9186   -3.2404   -2.2119 H   0  0  0  0  0  0  0  0  0  0  0  0
   -3.7740   -1.1629   -2.1795 H   0  0  0  0  0  0  0  0  0  0  0  0
   -5.9750   -1.8506   -1.3044 H   0  0  0  0  0  0  0  0  0  0  0  0
   -6.1645   -3.8176    0.1976 H   0  0  0  0  0  0  0  0  0  0  0  0
   -4.1348   -5.1037    0.8144 H   0  0  0  0  0  0  0  0  0  0  0  0
   -1.9271   -4.4385   -0.0631 H   0  0  0  0  0  0  0  0  0  0  0  0
    0.9353    3.4505   -0.2938 H   0  0  0  0  0  0  0  0  0  0  0  0
    0.1962    3.6602    1.8791 H   0  0  0  0  0  0  0  0  0  0  0  0
   -0.9288    5.7585    2.5465 H   0  0  0  0  0  0  0  0  0  0  0  0
   -4.4057    4.6747    0.2932 H   0  0  0  0  0  0  0  0  0  0  0  0
   -3.3066    2.5905   -0.4576 H   0  0  0  0  0  0  0  0  0  0  0  0
   -3.0111    0.8968    1.1076 H   0  0  0  0  0  0  0  0  0  0  0  0
  1  2  1  0
  2  3  2  0
  3  4  1  0
  3  5  1  0
  5  6  2  0
  6  7  1  0
  7  8  2  0
  8  9  1  0
  9 10  1  0
 10 11  2  0
 10 12  1  0
 12 13  1  0
 13 14  1  0
 14 15  1  0
 15 16  1  0
 16 17  2  0
 17 18  1  0
 18 19  2  0
 19 20  1  0
 20 21  2  0
 14 22  1  0
 22 23  1  0
 23 24  2  0
 24 25  1  0
 24 26  1  0
 26 27  1  0
 27 28  2  0
 28 29  1  0
 29 30  2  0
 30 31  1  0
 30 32  1  0
 32 33  2  0
 26 34  1  0
 34 35  1  0
  8  2  1  0
 23 12  1  0
 33 27  1  0
 12  7  1  0
 21 16  1  0
 34 22  2  0
  1 36  1  0
  1 37  1  0
  1 38  1  0
  5 39  1  0
  6 40  1  0
  9 41  1  0
 13 42  1  0
 14 43  1  1
 15 44  1  0
 15 45  1  0
 17 46  1  0
 18 47  1  0
 19 48  1  0
 20 49  1  0
 21 50  1  0
 25 51  1  0
 28 52  1  0
 29 53  1  0
 32 54  1  0
 33 55  1  0
 35 56  1  0
M  END
$$$$
