
     RDKit          3D

 52 55  0  0  0  0  0  0  0  0999 V2000
    4.2838   -1.3752    1.4880 C   0  0  0  0  0  0  0  0  0  0  0  0
    4.9469   -0.2890    0.7640 N   0  0  0  0  0  0  0  0  0  0  0  0
    4.5900    1.0262    1.3408 C   0  0  0  0  0  0  0  0  0  0  0  0
    3.4590    1.8119    0.6219 C   0  0  0  0  0  0  0  0  0  0  0  0
    2.4585    0.9277    0.0029 N   0  0  0  0  0  0  0  0  0  0  0  0
    1.3438    1.6893   -0.5693 C   0  0  0  0  0  0  0  0  0  0  0  0
    0.1434    0.8169   -0.9551 C   0  0  0  0  0  0  0  0  0  0  0  0
   -0.4391    0.0676    0.2540 C   0  0  0  0  0  0  0  0  0  0  0  0
   -1.7416   -0.5661   -0.0748 N   0  0  0  0  0  0  0  0  0  0  0  0
   -1.7125   -1.9235   -0.5112 C   0  0  0  0  0  0  0  0  0  0  0  0
   -0.5242   -2.5489   -0.9527 C   0  0  0  0  0  0  0  0  0  0  0  0
   -0.4860   -3.8770   -1.3955 C   0  0  0  0  0  0  0  0  0  0  0  0
   -1.6452   -4.6323   -1.4164 C   0  0  0  0  0  0  0  0  0  0  0  0
   -2.8358   -4.0526   -0.9956 C   0  0  0  0  0  0  0  0  0  0  0  0
   -2.8782   -2.7154   -0.5509 C   0  0  0  0  0  0  0  0  0  0  0  0
   -4.4746   -2.1429   -0.0223 S   0  0  0  0  0  0  0  0  0  0  0  0
   -4.1964   -0.4044    0.2085 C   0  0  0  0  0  0  0  0  0  0  0  0
   -5.3533    0.3619    0.4517 C   0  0  0  0  0  0  0  0  0  0  0  0
   -5.2772    1.7337    0.6676 C   0  0  0  0  0  0  0  0  0  0  0  0
   -4.0363    2.3643    0.6487 C   0  0  0  0  0  0  0  0  0  0  0  0
   -3.9232    3.8554    0.8465 C   0  0  0  0  0  0  0  0  0  0  0  0
   -4.9361    4.3790    1.5913 F   0  0  0  0  0  0  0  0  0  0  0  0
   -3.9336    4.5353   -0.3327 F   0  0  0  0  0  0  0  0  0  0  0  0
   -2.7715    4.2214    1.4768 F   0  0  0  0  0  0  0  0  0  0  0  0
   -2.8844    1.5909    0.3984 C   0  0  0  0  0  0  0  0  0  0  0  0
   -2.9209    0.1929    0.1825 C   0  0  0  0  0  0  0  0  0  0  0  0
    3.1156    0.0492   -0.9905 C   0  0  0  0  0  0  0  0  0  0  0  0
    4.5902   -0.3145   -0.6643 C   0  0  0  0  0  0  0  0  0  0  0  0
    4.5495   -2.3443    1.0508 H   0  0  0  0  0  0  0  0  0  0  0  0
    3.1920   -1.2910    1.4952 H   0  0  0  0  0  0  0  0  0  0  0  0
    4.6287   -1.4016    2.5279 H   0  0  0  0  0  0  0  0  0  0  0  0
    4.3354    0.9192    2.4035 H   0  0  0  0  0  0  0  0  0  0  0  0
    5.4916    1.6515    1.3200 H   0  0  0  0  0  0  0  0  0  0  0  0
    2.9819    2.4651    1.3627 H   0  0  0  0  0  0  0  0  0  0  0  0
    3.9034    2.4634   -0.1429 H   0  0  0  0  0  0  0  0  0  0  0  0
    1.6740    2.2639   -1.4443 H   0  0  0  0  0  0  0  0  0  0  0  0
    0.9897    2.4242    0.1656 H   0  0  0  0  0  0  0  0  0  0  0  0
    0.4209    0.1162   -1.7498 H   0  0  0  0  0  0  0  0  0  0  0  0
   -0.6180    1.4680   -1.4006 H   0  0  0  0  0  0  0  0  0  0  0  0
   -0.5455    0.7451    1.1112 H   0  0  0  0  0  0  0  0  0  0  0  0
    0.2758   -0.6726    0.6348 H   0  0  0  0  0  0  0  0  0  0  0  0
    0.4196   -2.0167   -0.9805 H   0  0  0  0  0  0  0  0  0  0  0  0
    0.4542   -4.3115   -1.7253 H   0  0  0  0  0  0  0  0  0  0  0  0
   -1.6272   -5.6635   -1.7572 H   0  0  0  0  0  0  0  0  0  0  0  0
   -3.7432   -4.6533   -1.0129 H   0  0  0  0  0  0  0  0  0  0  0  0
   -6.3314   -0.1165    0.4733 H   0  0  0  0  0  0  0  0  0  0  0  0
   -6.1884    2.3011    0.8483 H   0  0  0  0  0  0  0  0  0  0  0  0
   -1.9439    2.1344    0.3629 H   0  0  0  0  0  0  0  0  0  0  0  0
    2.5393   -0.8807   -1.0488 H   0  0  0  0  0  0  0  0  0  0  0  0
    3.1029    0.5036   -1.9895 H   0  0  0  0  0  0  0  0  0  0  0  0
    5.2431    0.4045   -1.1779 H   0  0  0  0  0  0  0  0  0  0  0  0
    4.8345   -1.2903   -1.1025 H   0  0  0  0  0  0  0  0  0  0  0  0
  1  2  1  0
  2  3  1  0
  3  4  1  0
  4  5  1  0
  5  6  1  0
  6  7  1  0
  7  8  1  0
  8  9  1  0
  9 10  1  0
 10 11  2  0
 11 12  1  0
 12 13  2  0
 13 14  1  0
 14 15  2  0
 15 16  1  0
 16 17  1  0
 17 18  2  0
 18 19  1  0
 19 20  2  0
 20 21  1  0
 21 22  1  0
 21 23  1  0
 21 24  1  0
 20 25  1  0
 25 26  2  0
  5 27  1  0
 27 28  1  0
 28  2  1  0
 26  9  1  0
 15 10  1  0
 26 17  1  0
  1 29  1  0
  1 30  1  0
  1 31  1  0
  3 32  1  0
  3 33  1  0
  4 34  1  0
  4 35  1  0
  6 36  1  0
  6 37  1  0
  7 38  1  0
  7 39  1  0
  8 40  1  0
  8 41  1  0
 11 42  1  0
 12 43  1  0
 13 44  1  0
 14 45  1  0
 18 46  1  0
 19 47  1  0
 25 48  1  0
 27 49  1  0
 27 50  1  0
 28 51  1  0
 28 52  1  0
M  END
$$$$
