
     RDKit          3D

 49 51  0  0  0  0  0  0  0  0999 V2000
    2.3735    0.5442   -0.3982 O   0  0  0  0  0  0  0  0  0  0  0  0
    2.3324   -0.2488   -1.3269 C   0  0  0  0  0  0  0  0  0  0  0  0
    3.4110   -0.8697   -1.9128 N   0  0  0  0  0  0  0  0  0  0  0  0
    4.7410   -0.7752   -1.3700 C   0  0  0  0  0  0  0  0  0  0  0  0
    5.0459   -1.9562   -0.4857 C   0  0  0  0  0  0  0  0  0  0  0  0
    5.6729   -3.0976   -1.0056 C   0  0  0  0  0  0  0  0  0  0  0  0
    5.9312   -4.1979   -0.1863 C   0  0  0  0  0  0  0  0  0  0  0  0
    5.5584   -4.1715    1.1563 C   0  0  0  0  0  0  0  0  0  0  0  0
    4.9263   -3.0460    1.6821 C   0  0  0  0  0  0  0  0  0  0  0  0
    4.6678   -1.9450    0.8650 C   0  0  0  0  0  0  0  0  0  0  0  0
    0.9799   -0.6579   -1.9559 C   0  0  0  0  0  0  0  0  0  0  0  0
    0.9483   -1.5307   -2.8137 O   0  0  0  0  0  0  0  0  0  0  0  0
   -0.1066    0.0361   -1.4745 N   0  0  0  0  0  0  0  0  0  0  0  0
   -1.4151   -0.0943   -2.0888 C   0  0  0  0  0  0  0  0  0  0  0  0
   -2.5768    0.3611   -1.1883 C   0  0  0  0  0  0  0  0  0  0  0  0
   -3.8116   -0.1732   -1.7034 O   0  0  0  0  0  0  0  0  0  0  0  0
   -4.8219    0.7757   -1.3532 C   0  0  0  0  0  0  0  0  0  0  0  0
   -4.1414    2.1132   -1.5353 C   0  0  0  0  0  0  0  0  0  0  0  0
   -2.7440    1.8247   -1.1951 N   0  0  0  0  0  0  0  0  0  0  0  0
   -1.9552    2.7476   -0.0447 S   0  0  0  0  0  6  0  0  0  0  0  0
   -2.2815    4.1360   -0.2887 O   0  0  0  0  0  0  0  0  0  0  0  0
   -0.5803    2.2999    0.0057 O   0  0  0  0  0  0  0  0  0  0  0  0
   -2.7274    2.2831    1.4927 C   0  0  0  0  0  0  0  0  0  0  0  0
   -3.8612    2.9731    1.9352 C   0  0  0  0  0  0  0  0  0  0  0  0
   -4.4508    2.6235    3.1518 C   0  0  0  0  0  0  0  0  0  0  0  0
   -3.8938    1.6033    3.9240 C   0  0  0  0  0  0  0  0  0  0  0  0
   -4.6934    1.1328    5.5705 Br  0  0  0  0  0  0  0  0  0  0  0  0
   -2.7458    0.9348    3.4981 C   0  0  0  0  0  0  0  0  0  0  0  0
   -2.1515    1.2817    2.2830 C   0  0  0  0  0  0  0  0  0  0  0  0
    3.1937   -1.6036   -2.5805 H   0  0  0  0  0  0  0  0  0  0  0  0
    5.4391   -0.7404   -2.2137 H   0  0  0  0  0  0  0  0  0  0  0  0
    4.8608    0.1596   -0.8106 H   0  0  0  0  0  0  0  0  0  0  0  0
    5.9637   -3.1372   -2.0530 H   0  0  0  0  0  0  0  0  0  0  0  0
    6.4203   -5.0779   -0.5967 H   0  0  0  0  0  0  0  0  0  0  0  0
    5.7589   -5.0289    1.7931 H   0  0  0  0  0  0  0  0  0  0  0  0
    4.6318   -3.0255    2.7283 H   0  0  0  0  0  0  0  0  0  0  0  0
    4.1650   -1.0740    1.2840 H   0  0  0  0  0  0  0  0  0  0  0  0
    0.1081    0.8715   -0.9174 H   0  0  0  0  0  0  0  0  0  0  0  0
   -1.4004    0.4787   -3.0242 H   0  0  0  0  0  0  0  0  0  0  0  0
   -1.5598   -1.1442   -2.3720 H   0  0  0  0  0  0  0  0  0  0  0  0
   -2.4594   -0.0360   -0.1762 H   0  0  0  0  0  0  0  0  0  0  0  0
   -5.6986    0.6521   -1.9935 H   0  0  0  0  0  0  0  0  0  0  0  0
   -5.1137    0.6071   -0.3101 H   0  0  0  0  0  0  0  0  0  0  0  0
   -4.6102    2.8944   -0.9344 H   0  0  0  0  0  0  0  0  0  0  0  0
   -4.1722    2.4236   -2.5856 H   0  0  0  0  0  0  0  0  0  0  0  0
   -4.2820    3.7890    1.3507 H   0  0  0  0  0  0  0  0  0  0  0  0
   -5.3328    3.1592    3.4953 H   0  0  0  0  0  0  0  0  0  0  0  0
   -2.3007    0.1527    4.1093 H   0  0  0  0  0  0  0  0  0  0  0  0
   -1.2418    0.7730    1.9685 H   0  0  0  0  0  0  0  0  0  0  0  0
  1  2  2  0
  2  3  1  0
  3  4  1  0
  4  5  1  0
  5  6  2  0
  6  7  1  0
  7  8  2  0
  8  9  1  0
  9 10  2  0
  2 11  1  0
 11 12  2  0
 11 13  1  0
 13 14  1  0
 14 15  1  0
 15 16  1  0
 16 17  1  0
 17 18  1  0
 18 19  1  0
 19 20  1  0
 20 21  2  0
 20 22  2  0
 20 23  1  0
 23 24  2  0
 24 25  1  0
 25 26  2  0
 26 27  1  0
 26 28  1  0
 28 29  2  0
 10  5  1  0
 19 15  1  0
 29 23  1  0
  3 30  1  0
  4 31  1  0
  4 32  1  0
  6 33  1  0
  7 34  1  0
  8 35  1  0
  9 36  1  0
 10 37  1  0
 13 38  1  0
 14 39  1  0
 14 40  1  0
 15 41  1  0
 17 42  1  0
 17 43  1  0
 18 44  1  0
 18 45  1  0
 24 46  1  0
 25 47  1  0
 28 48  1  0
 29 49  1  0
M  END
$$$$
