
     RDKit          3D

 52 51  0  0  0  0  0  0  0  0999 V2000
   -6.1541   -1.0090   -1.7310 C   0  0  0  0  0  0  0  0  0  0  0  0
   -6.0905   -0.6338   -0.5911 C   0  0  0  0  0  0  0  0  0  0  0  0
   -6.0425   -0.1918    0.8041 C   0  0  0  0  0  0  0  0  0  0  0  0
   -5.1182    1.0205    1.0325 N   0  0  0  0  0  4  0  0  0  0  0  0
   -5.3460    2.1098   -0.0121 C   0  0  0  0  0  0  0  0  0  0  0  0
   -5.5066    1.6178    2.3967 C   0  0  0  0  0  0  0  0  0  0  0  0
   -3.6312    0.6312    1.1330 C   0  0  0  0  0  0  0  0  0  0  0  0
   -3.0449   -0.0282   -0.1137 C   0  0  0  0  0  0  0  0  0  0  0  0
   -1.5318   -0.2260    0.0442 C   0  0  0  0  0  0  0  0  0  0  0  0
   -0.9294   -0.8997   -1.1910 C   0  0  0  0  0  0  0  0  0  0  0  0
    0.5614   -1.2207   -1.0418 C   0  0  0  0  0  0  0  0  0  0  0  0
    1.4393    0.0278   -0.9209 C   0  0  0  0  0  0  0  0  0  0  0  0
    2.9401   -0.2734   -1.0068 C   0  0  0  0  0  0  0  0  0  0  0  0
    3.4620   -1.0930    0.1763 C   0  0  0  0  0  0  0  0  0  0  0  0
    4.9617   -1.3960    0.0910 C   0  0  0  0  0  0  0  0  0  0  0  0
    5.8448   -0.1542    0.2323 C   0  0  0  0  0  0  0  0  0  0  0  0
    7.3271   -0.5302    0.2616 C   0  0  0  0  0  0  0  0  0  0  0  0
    8.2112    0.6991    0.3992 C   0  0  0  0  0  0  0  0  0  0  0  0
   -6.2160   -1.3528   -2.7402 H   0  0  0  0  0  0  0  0  0  0  0  0
   -5.6990   -0.9901    1.4711 H   0  0  0  0  0  0  0  0  0  0  0  0
   -7.0491    0.1091    1.1180 H   0  0  0  0  0  0  0  0  0  0  0  0
   -4.7356    2.9771    0.2578 H   0  0  0  0  0  0  0  0  0  0  0  0
   -5.0541    1.7477   -0.9993 H   0  0  0  0  0  0  0  0  0  0  0  0
   -6.4073    2.3771   -0.0058 H   0  0  0  0  0  0  0  0  0  0  0  0
   -4.8479    2.4664    2.6052 H   0  0  0  0  0  0  0  0  0  0  0  0
   -6.5478    1.9515    2.3491 H   0  0  0  0  0  0  0  0  0  0  0  0
   -5.3873    0.8426    3.1597 H   0  0  0  0  0  0  0  0  0  0  0  0
   -3.5371   -0.0436    1.9928 H   0  0  0  0  0  0  0  0  0  0  0  0
   -3.0853    1.5544    1.3635 H   0  0  0  0  0  0  0  0  0  0  0  0
   -3.5006   -1.0104   -0.2712 H   0  0  0  0  0  0  0  0  0  0  0  0
   -3.2273    0.5779   -1.0061 H   0  0  0  0  0  0  0  0  0  0  0  0
   -1.3326   -0.8388    0.9317 H   0  0  0  0  0  0  0  0  0  0  0  0
   -1.0587    0.7488    0.2076 H   0  0  0  0  0  0  0  0  0  0  0  0
   -1.0826   -0.2641   -2.0716 H   0  0  0  0  0  0  0  0  0  0  0  0
   -1.4631   -1.8388   -1.3836 H   0  0  0  0  0  0  0  0  0  0  0  0
    0.7012   -1.8682   -0.1689 H   0  0  0  0  0  0  0  0  0  0  0  0
    0.8760   -1.7976   -1.9201 H   0  0  0  0  0  0  0  0  0  0  0  0
    1.1849    0.7235   -1.7300 H   0  0  0  0  0  0  0  0  0  0  0  0
    1.2318    0.5467    0.0219 H   0  0  0  0  0  0  0  0  0  0  0  0
    3.1572   -0.7967   -1.9458 H   0  0  0  0  0  0  0  0  0  0  0  0
    3.4672    0.6862   -1.0498 H   0  0  0  0  0  0  0  0  0  0  0  0
    2.9335   -2.0520    0.2184 H   0  0  0  0  0  0  0  0  0  0  0  0
    3.2452   -0.5697    1.1154 H   0  0  0  0  0  0  0  0  0  0  0  0
    5.2115   -2.1033    0.8919 H   0  0  0  0  0  0  0  0  0  0  0  0
    5.1816   -1.9025   -0.8567 H   0  0  0  0  0  0  0  0  0  0  0  0
    5.6673    0.5318   -0.6033 H   0  0  0  0  0  0  0  0  0  0  0  0
    5.5838    0.3802    1.1537 H   0  0  0  0  0  0  0  0  0  0  0  0
    7.5232   -1.2089    1.0998 H   0  0  0  0  0  0  0  0  0  0  0  0
    7.5938   -1.0641   -0.6580 H   0  0  0  0  0  0  0  0  0  0  0  0
    9.2658    0.4071    0.4191 H   0  0  0  0  0  0  0  0  0  0  0  0
    7.9906    1.2391    1.3255 H   0  0  0  0  0  0  0  0  0  0  0  0
    8.0643    1.3843   -0.4417 H   0  0  0  0  0  0  0  0  0  0  0  0
  1  2  3  0
  2  3  1  0
  3  4  1  0
  4  5  1  0
  4  6  1  0
  4  7  1  0
  7  8  1  0
  8  9  1  0
  9 10  1  0
 10 11  1  0
 11 12  1  0
 12 13  1  0
 13 14  1  0
 14 15  1  0
 15 16  1  0
 16 17  1  0
 17 18  1  0
  1 19  1  0
  3 20  1  0
  3 21  1  0
  5 22  1  0
  5 23  1  0
  5 24  1  0
  6 25  1  0
  6 26  1  0
  6 27  1  0
  7 28  1  0
  7 29  1  0
  8 30  1  0
  8 31  1  0
  9 32  1  0
  9 33  1  0
 10 34  1  0
 10 35  1  0
 11 36  1  0
 11 37  1  0
 12 38  1  0
 12 39  1  0
 13 40  1  0
 13 41  1  0
 14 42  1  0
 14 43  1  0
 15 44  1  0
 15 45  1  0
 16 46  1  0
 16 47  1  0
 17 48  1  0
 17 49  1  0
 18 50  1  0
 18 51  1  0
 18 52  1  0
M  CHG  1   4   1
M  END
$$$$
