
     RDKit          3D

 36 37  0  0  0  0  0  0  0  0999 V2000
   -3.5763   -1.0236    1.9087 C   0  0  0  0  0  0  0  0  0  0  0  0
   -3.8457    0.3666    1.3633 C   0  0  0  0  0  0  0  0  0  0  0  0
   -3.3018    0.4939    0.0414 O   0  0  0  0  0  0  0  0  0  0  0  0
   -1.9926    0.8366   -0.0263 C   0  0  0  0  0  0  0  0  0  0  0  0
   -1.2563    1.0726    0.9227 O   0  0  0  0  0  0  0  0  0  0  0  0
   -1.5248    0.8761   -1.4367 C   0  0  0  0  0  0  0  0  0  0  0  0
   -2.4385    0.9650   -2.4992 C   0  0  0  0  0  0  0  0  0  0  0  0
   -1.9821    1.0210   -3.8181 C   0  0  0  0  0  0  0  0  0  0  0  0
   -0.6151    0.9890   -4.0861 C   0  0  0  0  0  0  0  0  0  0  0  0
    0.3011    0.9021   -3.0375 C   0  0  0  0  0  0  0  0  0  0  0  0
   -0.1442    0.8545   -1.7130 C   0  0  0  0  0  0  0  0  0  0  0  0
    0.8427    0.6982   -0.6707 N   0  0  0  0  0  0  0  0  0  0  0  0
    1.4068   -0.9045   -0.5026 S   0  0  0  0  0  6  0  0  0  0  0  0
    0.2779   -1.7009   -0.0628 O   0  0  0  0  0  0  0  0  0  0  0  0
    2.1690   -1.2838   -1.6720 O   0  0  0  0  0  0  0  0  0  0  0  0
    2.5184   -0.7547    0.8538 C   0  0  0  0  0  0  0  0  0  0  0  0
    2.2442   -1.3888    2.0702 C   0  0  0  0  0  0  0  0  0  0  0  0
    3.1461   -1.2638    3.1287 C   0  0  0  0  0  0  0  0  0  0  0  0
    4.3128   -0.5130    2.9698 C   0  0  0  0  0  0  0  0  0  0  0  0
    4.5790    0.1147    1.7519 C   0  0  0  0  0  0  0  0  0  0  0  0
    3.6796   -0.0098    0.6960 C   0  0  0  0  0  0  0  0  0  0  0  0
    3.9556    0.6173   -0.4548 F   0  0  0  0  0  0  0  0  0  0  0  0
   -2.5014   -1.2084    2.0016 H   0  0  0  0  0  0  0  0  0  0  0  0
   -4.0385   -1.1507    2.8917 H   0  0  0  0  0  0  0  0  0  0  0  0
   -3.9728   -1.7860    1.2301 H   0  0  0  0  0  0  0  0  0  0  0  0
   -4.9257    0.5275    1.2818 H   0  0  0  0  0  0  0  0  0  0  0  0
   -3.4536    1.1428    2.0305 H   0  0  0  0  0  0  0  0  0  0  0  0
   -3.5097    0.9932   -2.3140 H   0  0  0  0  0  0  0  0  0  0  0  0
   -2.6943    1.0855   -4.6378 H   0  0  0  0  0  0  0  0  0  0  0  0
   -0.2588    1.0231   -5.1132 H   0  0  0  0  0  0  0  0  0  0  0  0
    1.3663    0.8641   -3.2577 H   0  0  0  0  0  0  0  0  0  0  0  0
    0.4548    0.9933    0.2392 H   0  0  0  0  0  0  0  0  0  0  0  0
    1.3393   -1.9788    2.2017 H   0  0  0  0  0  0  0  0  0  0  0  0
    2.9406   -1.7541    4.0781 H   0  0  0  0  0  0  0  0  0  0  0  0
    5.0149   -0.4177    3.7951 H   0  0  0  0  0  0  0  0  0  0  0  0
    5.4830    0.7017    1.6184 H   0  0  0  0  0  0  0  0  0  0  0  0
  1  2  1  0
  2  3  1  0
  3  4  1  0
  4  5  2  0
  4  6  1  0
  6  7  2  0
  7  8  1  0
  8  9  2  0
  9 10  1  0
 10 11  2  0
 11 12  1  0
 12 13  1  0
 13 14  2  0
 13 15  2  0
 13 16  1  0
 16 17  2  0
 17 18  1  0
 18 19  2  0
 19 20  1  0
 20 21  2  0
 21 22  1  0
 11  6  1  0
 21 16  1  0
  1 23  1  0
  1 24  1  0
  1 25  1  0
  2 26  1  0
  2 27  1  0
  7 28  1  0
  8 29  1  0
  9 30  1  0
 10 31  1  0
 12 32  1  0
 17 33  1  0
 18 34  1  0
 19 35  1  0
 20 36  1  0
M  END
$$$$
