
     RDKit          3D

 63 67  0  0  0  0  0  0  0  0999 V2000
   -3.4210   -1.1172    6.4071 C   0  0  0  0  0  0  0  0  0  0  0  0
   -2.7251   -0.9430    5.1794 O   0  0  0  0  0  0  0  0  0  0  0  0
   -3.4843   -0.8369    4.0459 C   0  0  0  0  0  0  0  0  0  0  0  0
   -4.8681   -0.9235    3.9787 C   0  0  0  0  0  0  0  0  0  0  0  0
   -5.5320   -0.7977    2.7529 C   0  0  0  0  0  0  0  0  0  0  0  0
   -4.7811   -0.5837    1.5810 C   0  0  0  0  0  0  0  0  0  0  0  0
   -5.3904   -0.4028   -0.0149 S   0  0  0  0  0  0  0  0  0  0  0  0
   -3.8289   -0.2010   -0.6805 C   0  0  0  0  0  0  0  0  0  0  0  0
   -3.7105   -0.0129   -2.1326 C   0  0  0  0  0  0  0  0  0  0  0  0
   -3.4415   -1.1337   -2.9353 C   0  0  0  0  0  0  0  0  0  0  0  0
   -3.3114   -1.0014   -4.3164 C   0  0  0  0  0  0  0  0  0  0  0  0
   -3.4461    0.2520   -4.9058 C   0  0  0  0  0  0  0  0  0  0  0  0
   -3.7089    1.3770   -4.1183 C   0  0  0  0  0  0  0  0  0  0  0  0
   -3.8417    1.2582   -2.7297 C   0  0  0  0  0  0  0  0  0  0  0  0
   -4.0844    2.3096   -1.8814 O   0  0  0  0  0  0  0  0  0  0  0  0
   -4.2476    3.5973   -2.4582 C   0  0  0  0  0  0  0  0  0  0  0  0
   -2.8437   -0.2748    0.2905 C   0  0  0  0  0  0  0  0  0  0  0  0
   -1.4290   -0.1508   -0.0421 C   0  0  0  0  0  0  0  0  0  0  0  0
   -0.8963    1.0810   -0.4304 C   0  0  0  0  0  0  0  0  0  0  0  0
    0.4617    1.1878   -0.7389 C   0  0  0  0  0  0  0  0  0  0  0  0
    1.3021    0.0746   -0.6556 C   0  0  0  0  0  0  0  0  0  0  0  0
    2.6058    0.3199   -0.9855 O   0  0  0  0  0  0  0  0  0  0  0  0
    3.5402   -0.7413   -0.7848 C   0  0  0  0  0  0  0  0  0  0  0  0
    4.9602   -0.2548   -1.1409 C   0  0  0  0  0  0  0  0  0  0  0  0
    5.4748    0.8509   -0.3081 N   0  0  0  0  0  0  0  0  0  0  0  0
    5.7185    0.4775    1.1007 C   0  0  0  0  0  0  0  0  0  0  0  0
    6.9638   -0.4020    1.3073 C   0  0  0  0  0  0  0  0  0  0  0  0
    8.1379    0.2146    0.7648 O   0  0  0  0  0  0  0  0  0  0  0  0
    7.9620    0.5128   -0.6256 C   0  0  0  0  0  0  0  0  0  0  0  0
    6.7311    1.4055   -0.8596 C   0  0  0  0  0  0  0  0  0  0  0  0
    0.7704   -1.1555   -0.2664 C   0  0  0  0  0  0  0  0  0  0  0  0
   -0.5904   -1.2674    0.0414 C   0  0  0  0  0  0  0  0  0  0  0  0
   -3.3888   -0.4956    1.6118 C   0  0  0  0  0  0  0  0  0  0  0  0
   -2.7497   -0.6242    2.8732 C   0  0  0  0  0  0  0  0  0  0  0  0
   -4.0790   -0.2665    6.6130 H   0  0  0  0  0  0  0  0  0  0  0  0
   -2.6775   -1.1644    7.2088 H   0  0  0  0  0  0  0  0  0  0  0  0
   -3.9781   -2.0599    6.4141 H   0  0  0  0  0  0  0  0  0  0  0  0
   -5.4741   -1.0885    4.8636 H   0  0  0  0  0  0  0  0  0  0  0  0
   -6.6157   -0.8637    2.7077 H   0  0  0  0  0  0  0  0  0  0  0  0
   -3.3318   -2.1157   -2.4806 H   0  0  0  0  0  0  0  0  0  0  0  0
   -3.1033   -1.8743   -4.9293 H   0  0  0  0  0  0  0  0  0  0  0  0
   -3.3430    0.3577   -5.9830 H   0  0  0  0  0  0  0  0  0  0  0  0
   -3.7996    2.3336   -4.6216 H   0  0  0  0  0  0  0  0  0  0  0  0
   -5.1050    3.6205   -3.1388 H   0  0  0  0  0  0  0  0  0  0  0  0
   -3.3314    3.9228   -2.9616 H   0  0  0  0  0  0  0  0  0  0  0  0
   -4.4489    4.3035   -1.6468 H   0  0  0  0  0  0  0  0  0  0  0  0
   -1.5314    1.9613   -0.4953 H   0  0  0  0  0  0  0  0  0  0  0  0
    0.8703    2.1486   -1.0421 H   0  0  0  0  0  0  0  0  0  0  0  0
    3.2922   -1.5706   -1.4593 H   0  0  0  0  0  0  0  0  0  0  0  0
    3.5042   -1.1031    0.2484 H   0  0  0  0  0  0  0  0  0  0  0  0
    5.6384   -1.1152   -1.1226 H   0  0  0  0  0  0  0  0  0  0  0  0
    4.9170    0.0989   -2.1793 H   0  0  0  0  0  0  0  0  0  0  0  0
    4.8413    0.0011    1.5486 H   0  0  0  0  0  0  0  0  0  0  0  0
    5.8638    1.4108    1.6608 H   0  0  0  0  0  0  0  0  0  0  0  0
    7.1363   -0.5470    2.3787 H   0  0  0  0  0  0  0  0  0  0  0  0
    6.8383   -1.3939    0.8589 H   0  0  0  0  0  0  0  0  0  0  0  0
    8.8629    1.0340   -0.9652 H   0  0  0  0  0  0  0  0  0  0  0  0
    7.8947   -0.4251   -1.1883 H   0  0  0  0  0  0  0  0  0  0  0  0
    6.6216    1.6265   -1.9278 H   0  0  0  0  0  0  0  0  0  0  0  0
    6.9058    2.3710   -0.3671 H   0  0  0  0  0  0  0  0  0  0  0  0
    1.3824   -2.0476   -0.1953 H   0  0  0  0  0  0  0  0  0  0  0  0
   -0.9919   -2.2320    0.3433 H   0  0  0  0  0  0  0  0  0  0  0  0
   -1.6660   -0.5503    2.9340 H   0  0  0  0  0  0  0  0  0  0  0  0
  1  2  1  0
  2  3  1  0
  3  4  2  0
  4  5  1  0
  5  6  2  0
  6  7  1  0
  7  8  1  0
  8  9  1  0
  9 10  2  0
 10 11  1  0
 11 12  2  0
 12 13  1  0
 13 14  2  0
 14 15  1  0
 15 16  1  0
  8 17  2  0
 17 18  1  0
 18 19  2  0
 19 20  1  0
 20 21  2  0
 21 22  1  0
 22 23  1  0
 23 24  1  0
 24 25  1  0
 25 26  1  0
 26 27  1  0
 27 28  1  0
 28 29  1  0
 29 30  1  0
 21 31  1  0
 31 32  2  0
 17 33  1  0
 33 34  2  0
 34  3  1  0
 33  6  1  0
 14  9  1  0
 32 18  1  0
 30 25  1  0
  1 35  1  0
  1 36  1  0
  1 37  1  0
  4 38  1  0
  5 39  1  0
 10 40  1  0
 11 41  1  0
 12 42  1  0
 13 43  1  0
 16 44  1  0
 16 45  1  0
 16 46  1  0
 19 47  1  0
 20 48  1  0
 23 49  1  0
 23 50  1  0
 24 51  1  0
 24 52  1  0
 26 53  1  0
 26 54  1  0
 27 55  1  0
 27 56  1  0
 29 57  1  0
 29 58  1  0
 30 59  1  0
 30 60  1  0
 31 61  1  0
 32 62  1  0
 34 63  1  0
M  END
$$$$
