
     RDKit          3D

 63 66  0  0  0  0  0  0  0  0999 V2000
   -1.0852    2.8056   -1.1605 C   0  0  0  0  0  0  0  0  0  0  0  0
   -0.1166    2.6301   -0.0266 C   0  0  0  0  0  0  0  0  0  0  0  0
   -0.4604    3.0630    1.1535 N   0  0  0  0  0  0  0  0  0  0  0  0
    0.3973    2.9429    2.2480 N   0  0  0  0  0  0  0  0  0  0  0  0
   -0.1218    3.4431    3.5211 C   0  0  0  0  0  0  0  0  0  0  0  0
   -0.6528    2.3229    4.4099 C   0  0  0  0  0  0  0  0  0  0  0  0
   -2.0086    1.8388    3.9463 C   0  0  0  0  0  0  0  0  0  0  0  0
   -2.8965    2.6015    3.5757 O   0  0  0  0  0  0  0  0  0  0  0  0
   -2.1737    0.4739    4.0527 N   0  0  0  0  0  0  0  0  0  0  0  0
   -3.3586   -0.1824    3.5506 C   0  0  0  0  0  0  0  0  0  0  0  0
   -3.1206   -0.7252    2.1654 C   0  0  0  0  0  0  0  0  0  0  0  0
   -2.7963   -2.0740    1.9636 C   0  0  0  0  0  0  0  0  0  0  0  0
   -2.5408   -2.5615    0.6764 C   0  0  0  0  0  0  0  0  0  0  0  0
   -2.6042   -1.7070   -0.4233 C   0  0  0  0  0  0  0  0  0  0  0  0
   -2.3411   -2.0459   -1.7200 O   0  0  0  0  0  0  0  0  0  0  0  0
   -2.4536   -3.4229   -2.0987 C   0  0  0  0  0  0  0  0  0  0  0  0
   -3.0091   -3.4360   -3.5208 C   0  0  0  0  0  0  0  0  0  0  0  0
   -1.0746   -4.0792   -2.0719 C   0  0  0  0  0  0  0  0  0  0  0  0
   -2.9195   -0.3621   -0.2242 C   0  0  0  0  0  0  0  0  0  0  0  0
   -3.1751    0.1284    1.0572 C   0  0  0  0  0  0  0  0  0  0  0  0
    1.6754    2.3477    2.2132 C   0  0  0  0  0  0  0  0  0  0  0  0
    2.3925    2.2276    3.2045 O   0  0  0  0  0  0  0  0  0  0  0  0
    2.0427    1.8803    0.8838 C   0  0  0  0  0  0  0  0  0  0  0  0
    3.2010    1.3173    0.5340 N   0  0  0  0  0  0  0  0  0  0  0  0
    3.0495    0.9782   -0.7754 N   0  0  0  0  0  0  0  0  0  0  0  0
    4.0498    0.1576   -1.3865 C   0  0  0  0  0  0  0  0  0  0  0  0
    3.8139   -0.5614   -2.5651 C   0  0  0  0  0  0  0  0  0  0  0  0
    4.8199   -1.3637   -3.1160 C   0  0  0  0  0  0  0  0  0  0  0  0
    6.0602   -1.4663   -2.4920 C   0  0  0  0  0  0  0  0  0  0  0  0
    6.3007   -0.7731   -1.3092 C   0  0  0  0  0  0  0  0  0  0  0  0
    5.2996    0.0263   -0.7541 C   0  0  0  0  0  0  0  0  0  0  0  0
    1.8719    1.5259   -1.2995 C   0  0  0  0  0  0  0  0  0  0  0  0
    1.5376    1.5877   -2.7463 C   0  0  0  0  0  0  0  0  0  0  0  0
    1.1780    2.0180   -0.2055 C   0  0  0  0  0  0  0  0  0  0  0  0
   -0.7514    3.6283   -1.7990 H   0  0  0  0  0  0  0  0  0  0  0  0
   -2.0814    3.0469   -0.7762 H   0  0  0  0  0  0  0  0  0  0  0  0
   -1.1520    1.8891   -1.7516 H   0  0  0  0  0  0  0  0  0  0  0  0
    0.7032    3.9450    4.0428 H   0  0  0  0  0  0  0  0  0  0  0  0
   -0.8864    4.2015    3.3178 H   0  0  0  0  0  0  0  0  0  0  0  0
   -0.7871    2.7019    5.4308 H   0  0  0  0  0  0  0  0  0  0  0  0
    0.0602    1.4914    4.4617 H   0  0  0  0  0  0  0  0  0  0  0  0
   -1.3518   -0.1015    4.1796 H   0  0  0  0  0  0  0  0  0  0  0  0
   -4.2136    0.4990    3.5507 H   0  0  0  0  0  0  0  0  0  0  0  0
   -3.5931   -0.9949    4.2438 H   0  0  0  0  0  0  0  0  0  0  0  0
   -2.7319   -2.7581    2.8088 H   0  0  0  0  0  0  0  0  0  0  0  0
   -2.2773   -3.6087    0.5717 H   0  0  0  0  0  0  0  0  0  0  0  0
   -3.1611   -3.9680   -1.4615 H   0  0  0  0  0  0  0  0  0  0  0  0
   -3.1278   -4.4549   -3.8963 H   0  0  0  0  0  0  0  0  0  0  0  0
   -2.3501   -2.8867   -4.2017 H   0  0  0  0  0  0  0  0  0  0  0  0
   -3.9821   -2.9351   -3.5542 H   0  0  0  0  0  0  0  0  0  0  0  0
   -0.3770   -3.5516   -2.7342 H   0  0  0  0  0  0  0  0  0  0  0  0
   -1.1308   -5.1276   -2.3863 H   0  0  0  0  0  0  0  0  0  0  0  0
   -0.6342   -4.0433   -1.0692 H   0  0  0  0  0  0  0  0  0  0  0  0
   -2.9728    0.3103   -1.0763 H   0  0  0  0  0  0  0  0  0  0  0  0
   -3.4083    1.1846    1.1897 H   0  0  0  0  0  0  0  0  0  0  0  0
    2.8502   -0.5644   -3.0597 H   0  0  0  0  0  0  0  0  0  0  0  0
    4.6297   -1.9262   -4.0278 H   0  0  0  0  0  0  0  0  0  0  0  0
    6.8362   -2.0932   -2.9217 H   0  0  0  0  0  0  0  0  0  0  0  0
    7.2645   -0.8556   -0.8130 H   0  0  0  0  0  0  0  0  0  0  0  0
    5.5150    0.5565    0.1743 H   0  0  0  0  0  0  0  0  0  0  0  0
    0.9913    0.6936   -3.0585 H   0  0  0  0  0  0  0  0  0  0  0  0
    2.4300    1.7116   -3.3659 H   0  0  0  0  0  0  0  0  0  0  0  0
    0.9090    2.4540   -2.9680 H   0  0  0  0  0  0  0  0  0  0  0  0
  1  2  1  0
  2  3  2  0
  3  4  1  0
  4  5  1  0
  5  6  1  0
  6  7  1  0
  7  8  2  0
  7  9  1  0
  9 10  1  0
 10 11  1  0
 11 12  2  0
 12 13  1  0
 13 14  2  0
 14 15  1  0
 15 16  1  0
 16 17  1  0
 16 18  1  0
 14 19  1  0
 19 20  2  0
  4 21  1  0
 21 22  2  0
 21 23  1  0
 23 24  2  0
 24 25  1  0
 25 26  1  0
 26 27  2  0
 27 28  1  0
 28 29  2  0
 29 30  1  0
 30 31  2  0
 25 32  1  0
 32 33  1  0
 32 34  2  0
 34  2  1  0
 20 11  1  0
 34 23  1  0
 31 26  1  0
  1 35  1  0
  1 36  1  0
  1 37  1  0
  5 38  1  0
  5 39  1  0
  6 40  1  0
  6 41  1  0
  9 42  1  0
 10 43  1  0
 10 44  1  0
 12 45  1  0
 13 46  1  0
 16 47  1  0
 17 48  1  0
 17 49  1  0
 17 50  1  0
 18 51  1  0
 18 52  1  0
 18 53  1  0
 19 54  1  0
 20 55  1  0
 27 56  1  0
 28 57  1  0
 29 58  1  0
 30 59  1  0
 31 60  1  0
 33 61  1  0
 33 62  1  0
 33 63  1  0
M  END
$$$$
