
     RDKit          3D

 50 51  0  0  0  0  0  0  0  0999 V2000
   -4.7714   -4.2920   -0.3388 C   0  0  0  0  0  0  0  0  0  0  0  0
   -5.0017   -3.0441    0.3001 O   0  0  0  0  0  0  0  0  0  0  0  0
   -3.9485   -2.1680    0.3833 C   0  0  0  0  0  0  0  0  0  0  0  0
   -2.6646   -2.4265   -0.1072 C   0  0  0  0  0  0  0  0  0  0  0  0
   -1.6517   -1.4741    0.0263 C   0  0  0  0  0  0  0  0  0  0  0  0
   -1.9115   -0.2635    0.6634 C   0  0  0  0  0  0  0  0  0  0  0  0
   -0.9154    0.7641    0.8017 N   0  0  0  0  0  0  0  0  0  0  0  0
   -0.6097    1.5353   -0.4339 C   0  0  0  0  0  0  0  0  0  0  0  0
    0.4608    0.9369   -1.3399 C   0  0  0  0  0  0  0  0  0  0  0  0
    0.1457    0.1834   -2.2576 O   0  0  0  0  0  0  0  0  0  0  0  0
    1.7480    1.3398   -1.0109 N   0  0  0  0  0  0  0  0  0  0  0  0
    2.9612    1.0109   -1.6665 C   0  0  0  0  0  0  0  0  0  0  0  0
    2.9739    0.3093   -2.8839 C   0  0  0  0  0  0  0  0  0  0  0  0
    4.1691   -0.0413   -3.5180 C   0  0  0  0  0  0  0  0  0  0  0  0
    5.3823    0.2946   -2.9381 C   0  0  0  0  0  0  0  0  0  0  0  0
    5.3814    0.9993   -1.7290 C   0  0  0  0  0  0  0  0  0  0  0  0
    6.6852    1.2873   -1.1499 N   0  0  0  0  0  4  0  0  0  0  0  0
    7.4686    1.9592   -1.8346 O   0  0  0  0  0  0  0  0  0  0  0  0
    6.9227    0.8263   -0.0255 O   0  0  0  0  0  1  0  0  0  0  0  0
    4.1904    1.4052   -1.0830 C   0  0  0  0  0  0  0  0  0  0  0  0
    4.2338    2.2007    0.1990 C   0  0  0  0  0  0  0  0  0  0  0  0
    0.4112    0.4289    1.8068 S   0  0  0  0  0  6  0  0  0  0  0  0
   -0.3481    0.3608    3.4173 C   0  0  0  0  0  0  0  0  0  0  0  0
    0.9608   -0.8673    1.4827 O   0  0  0  0  0  0  0  0  0  0  0  0
    1.2590    1.6080    1.7643 O   0  0  0  0  0  0  0  0  0  0  0  0
   -3.1967    0.0153    1.1360 C   0  0  0  0  0  0  0  0  0  0  0  0
   -4.2184   -0.9321    1.0064 C   0  0  0  0  0  0  0  0  0  0  0  0
   -5.5038   -0.7514    1.4547 O   0  0  0  0  0  0  0  0  0  0  0  0
   -5.8412    0.5103    2.0122 C   0  0  0  0  0  0  0  0  0  0  0  0
   -4.0203   -4.8789    0.2000 H   0  0  0  0  0  0  0  0  0  0  0  0
   -5.7093   -4.8554   -0.3195 H   0  0  0  0  0  0  0  0  0  0  0  0
   -4.4892   -4.1530   -1.3876 H   0  0  0  0  0  0  0  0  0  0  0  0
   -2.4160   -3.3585   -0.6044 H   0  0  0  0  0  0  0  0  0  0  0  0
   -0.6654   -1.6962   -0.3760 H   0  0  0  0  0  0  0  0  0  0  0  0
   -0.3218    2.5556   -0.1512 H   0  0  0  0  0  0  0  0  0  0  0  0
   -1.5209    1.6587   -1.0339 H   0  0  0  0  0  0  0  0  0  0  0  0
    1.8358    1.8040   -0.1078 H   0  0  0  0  0  0  0  0  0  0  0  0
    2.0541    0.0118   -3.3791 H   0  0  0  0  0  0  0  0  0  0  0  0
    4.1412   -0.5879   -4.4579 H   0  0  0  0  0  0  0  0  0  0  0  0
    6.3130    0.0059   -3.4215 H   0  0  0  0  0  0  0  0  0  0  0  0
    4.0815    1.5386    1.0565 H   0  0  0  0  0  0  0  0  0  0  0  0
    3.4714    2.9865    0.2007 H   0  0  0  0  0  0  0  0  0  0  0  0
    5.1803    2.7331    0.3310 H   0  0  0  0  0  0  0  0  0  0  0  0
   -0.8825    1.2955    3.5966 H   0  0  0  0  0  0  0  0  0  0  0  0
   -1.0214   -0.4963    3.4644 H   0  0  0  0  0  0  0  0  0  0  0  0
    0.4479    0.2431    4.1560 H   0  0  0  0  0  0  0  0  0  0  0  0
   -3.3750    0.9763    1.6046 H   0  0  0  0  0  0  0  0  0  0  0  0
   -5.6969    1.3162    1.2851 H   0  0  0  0  0  0  0  0  0  0  0  0
   -6.9030    0.4868    2.2758 H   0  0  0  0  0  0  0  0  0  0  0  0
   -5.2751    0.6988    2.9302 H   0  0  0  0  0  0  0  0  0  0  0  0
  1  2  1  0
  2  3  1  0
  3  4  2  0
  4  5  1  0
  5  6  2  0
  6  7  1  0
  7  8  1  0
  8  9  1  0
  9 10  2  0
  9 11  1  0
 11 12  1  0
 12 13  2  0
 13 14  1  0
 14 15  2  0
 15 16  1  0
 16 17  1  0
 17 18  2  0
 17 19  1  0
 16 20  2  0
 20 21  1  0
  7 22  1  0
 22 23  1  0
 22 24  2  0
 22 25  2  0
  6 26  1  0
 26 27  2  0
 27 28  1  0
 28 29  1  0
 27  3  1  0
 20 12  1  0
  1 30  1  0
  1 31  1  0
  1 32  1  0
  4 33  1  0
  5 34  1  0
  8 35  1  0
  8 36  1  0
 11 37  1  0
 13 38  1  0
 14 39  1  0
 15 40  1  0
 21 41  1  0
 21 42  1  0
 21 43  1  0
 23 44  1  0
 23 45  1  0
 23 46  1  0
 26 47  1  0
 29 48  1  0
 29 49  1  0
 29 50  1  0
M  CHG  2  17   1  19  -1
M  END
$$$$
