
     RDKit          3D

 28 30  0  0  0  0  0  0  0  0999 V2000
    1.5965    0.7038   -3.1207 N   0  0  0  0  0  0  0  0  0  0  0  0
    1.1392    0.5337   -2.0668 C   0  0  0  0  0  0  0  0  0  0  0  0
    0.5650    0.2944   -0.7805 C   0  0  0  0  0  0  0  0  0  0  0  0
    1.2023   -0.4604    0.1397 C   0  0  0  0  0  0  0  0  0  0  0  0
    2.5036   -1.1156   -0.0066 C   0  0  0  0  0  0  0  0  0  0  0  0
    2.7837   -2.0179   -1.0272 C   0  0  0  0  0  0  0  0  0  0  0  0
    4.0425   -2.6133   -1.0646 C   0  0  0  0  0  0  0  0  0  0  0  0
    4.9745   -2.3000   -0.0836 C   0  0  0  0  0  0  0  0  0  0  0  0
    4.6045   -1.4042    0.9045 C   0  0  0  0  0  0  0  0  0  0  0  0
    3.3899   -0.8146    0.9684 N   0  0  0  0  0  0  0  0  0  0  0  0
   -0.7128    0.8517   -0.4188 C   0  0  0  0  0  0  0  0  0  0  0  0
   -1.4314    0.5119    0.6386 N   0  0  0  0  0  0  0  0  0  0  0  0
   -2.6138    1.2278    0.7027 C   0  0  0  0  0  0  0  0  0  0  0  0
   -3.6009    1.1062    1.7022 C   0  0  0  0  0  0  0  0  0  0  0  0
   -4.7533    1.8967    1.6404 C   0  0  0  0  0  0  0  0  0  0  0  0
   -4.9310    2.8014    0.5978 C   0  0  0  0  0  0  0  0  0  0  0  0
   -3.9636    2.9417   -0.4022 C   0  0  0  0  0  0  0  0  0  0  0  0
   -2.8110    2.1419   -0.3289 C   0  0  0  0  0  0  0  0  0  0  0  0
   -1.4616    2.0858   -1.3876 S   0  0  0  0  0  0  0  0  0  0  0  0
    0.7808   -0.5860    1.1368 H   0  0  0  0  0  0  0  0  0  0  0  0
    2.0457   -2.2695   -1.7830 H   0  0  0  0  0  0  0  0  0  0  0  0
    4.2918   -3.3167   -1.8544 H   0  0  0  0  0  0  0  0  0  0  0  0
    5.9633   -2.7449   -0.0862 H   0  0  0  0  0  0  0  0  0  0  0  0
    5.2944   -1.1297    1.6976 H   0  0  0  0  0  0  0  0  0  0  0  0
   -3.4552    0.4035    2.5168 H   0  0  0  0  0  0  0  0  0  0  0  0
   -5.5119    1.8024    2.4147 H   0  0  0  0  0  0  0  0  0  0  0  0
   -5.8309    3.4118    0.5622 H   0  0  0  0  0  0  0  0  0  0  0  0
   -4.1002    3.6549   -1.2116 H   0  0  0  0  0  0  0  0  0  0  0  0
  1  2  3  0
  2  3  1  0
  3  4  2  3
  4  5  1  0
  5  6  2  0
  6  7  1  0
  7  8  2  0
  8  9  1  0
  9 10  2  0
  3 11  1  0
 11 12  2  0
 12 13  1  0
 13 14  2  0
 14 15  1  0
 15 16  2  0
 16 17  1  0
 17 18  2  0
 18 19  1  0
 10  5  1  0
 19 11  1  0
 18 13  1  0
  4 20  1  0
  6 21  1  0
  7 22  1  0
  8 23  1  0
  9 24  1  0
 14 25  1  0
 15 26  1  0
 16 27  1  0
 17 28  1  0
M  END
$$$$
