
     RDKit          3D

 36 37  0  0  0  0  0  0  0  0999 V2000
    0.7841   -0.9048   -0.6510 O   0  0  0  0  0  0  0  0  0  0  0  0
   -0.1134   -0.3268   -0.0423 C   0  0  0  0  0  0  0  0  0  0  0  0
    0.1180    0.4368    1.2649 C   0  0  0  0  0  0  0  0  0  0  0  0
    1.4941    0.7457    1.4838 O   0  0  0  0  0  0  0  0  0  0  0  0
    1.9621    1.7473    0.7003 C   0  0  0  0  0  0  0  0  0  0  0  0
    1.2940    2.4426   -0.0481 O   0  0  0  0  0  0  0  0  0  0  0  0
    3.4270    1.9179    0.8857 C   0  0  0  0  0  0  0  0  0  0  0  0
    4.1900    1.0424    1.6696 C   0  0  0  0  0  0  0  0  0  0  0  0
    5.5621    1.2530    1.8040 C   0  0  0  0  0  0  0  0  0  0  0  0
    6.4968    0.1784    2.7705 Cl  0  0  0  0  0  0  0  0  0  0  0  0
    6.1856    2.3228    1.1665 C   0  0  0  0  0  0  0  0  0  0  0  0
    5.4242    3.1877    0.3850 C   0  0  0  0  0  0  0  0  0  0  0  0
    6.1861    4.5115   -0.4074 Cl  0  0  0  0  0  0  0  0  0  0  0  0
    4.0518    2.9930    0.2393 C   0  0  0  0  0  0  0  0  0  0  0  0
   -1.4253   -0.3300   -0.4616 N   0  0  0  0  0  0  0  0  0  0  0  0
   -1.8218   -0.9727   -1.7027 C   0  0  0  0  0  0  0  0  0  0  0  0
   -3.3291   -0.8877   -1.9650 C   0  0  0  0  0  0  0  0  0  0  0  0
   -4.1130   -1.6016   -0.9688 N   0  0  0  0  0  0  0  0  0  0  0  0
   -4.5538   -2.8919   -1.1270 C   0  0  0  0  0  0  0  0  0  0  0  0
   -4.2907   -3.5411   -2.2949 O   0  0  0  0  0  0  0  0  0  0  0  0
   -5.2106   -3.3881   -0.0719 C   0  0  0  0  0  0  0  0  0  0  0  0
   -5.2984   -2.2263    1.2186 S   0  0  0  0  0  0  0  0  0  0  0  0
   -4.3751   -1.0465    0.2731 C   0  0  0  0  0  0  0  0  0  0  0  0
   -4.0199    0.0439    0.6953 O   0  0  0  0  0  0  0  0  0  0  0  0
   -0.4945    1.3456    1.3010 H   0  0  0  0  0  0  0  0  0  0  0  0
   -0.2050   -0.2121    2.0860 H   0  0  0  0  0  0  0  0  0  0  0  0
    3.7268    0.1954    2.1700 H   0  0  0  0  0  0  0  0  0  0  0  0
    7.2553    2.4796    1.2761 H   0  0  0  0  0  0  0  0  0  0  0  0
    3.4678    3.6744   -0.3770 H   0  0  0  0  0  0  0  0  0  0  0  0
   -2.1124    0.2317    0.0406 H   0  0  0  0  0  0  0  0  0  0  0  0
   -1.4906   -2.0168   -1.6636 H   0  0  0  0  0  0  0  0  0  0  0  0
   -1.2763   -0.4801   -2.5154 H   0  0  0  0  0  0  0  0  0  0  0  0
   -3.5616   -1.2705   -2.9647 H   0  0  0  0  0  0  0  0  0  0  0  0
   -3.6399    0.1644   -1.9426 H   0  0  0  0  0  0  0  0  0  0  0  0
   -4.6588   -4.4396   -2.2373 H   0  0  0  0  0  0  0  0  0  0  0  0
   -5.6359   -4.3774    0.0107 H   0  0  0  0  0  0  0  0  0  0  0  0
  1  2  2  0
  2  3  1  0
  3  4  1  0
  4  5  1  0
  5  6  2  0
  5  7  1  0
  7  8  2  0
  8  9  1  0
  9 10  1  0
  9 11  2  0
 11 12  1  0
 12 13  1  0
 12 14  2  0
  2 15  1  0
 15 16  1  0
 16 17  1  0
 17 18  1  0
 18 19  1  0
 19 20  1  0
 19 21  2  0
 21 22  1  0
 22 23  1  0
 23 24  2  0
 14  7  1  0
 23 18  1  0
  3 25  1  0
  3 26  1  0
  8 27  1  0
 11 28  1  0
 14 29  1  0
 15 30  1  0
 16 31  1  0
 16 32  1  0
 17 33  1  0
 17 34  1  0
 20 35  1  0
 21 36  1  0
M  END
$$$$
