
     RDKit          3D

 36 37  0  0  0  0  0  0  0  0999 V2000
   -1.3899    0.2101   -2.1641 O   0  0  0  0  0  0  0  0  0  0  0  0
   -0.3379   -0.4027   -1.9837 C   0  0  0  0  0  0  0  0  0  0  0  0
    1.0170    0.0964   -2.4868 C   0  0  0  0  0  0  0  0  0  0  0  0
    1.7167    0.8836   -1.5213 O   0  0  0  0  0  0  0  0  0  0  0  0
    2.2994    0.1854   -0.5188 C   0  0  0  0  0  0  0  0  0  0  0  0
    2.2439   -1.0263   -0.3738 O   0  0  0  0  0  0  0  0  0  0  0  0
    3.0219    1.0931    0.4106 C   0  0  0  0  0  0  0  0  0  0  0  0
    3.7081    0.5206    1.4899 C   0  0  0  0  0  0  0  0  0  0  0  0
    4.3973    1.3364    2.3861 C   0  0  0  0  0  0  0  0  0  0  0  0
    5.2386    0.6270    3.7082 Cl  0  0  0  0  0  0  0  0  0  0  0  0
    4.4121    2.7187    2.2219 C   0  0  0  0  0  0  0  0  0  0  0  0
    3.7289    3.2844    1.1483 C   0  0  0  0  0  0  0  0  0  0  0  0
    3.7423    4.9921    0.9369 Cl  0  0  0  0  0  0  0  0  0  0  0  0
    3.0337    2.4839    0.2416 C   0  0  0  0  0  0  0  0  0  0  0  0
   -0.2927   -1.5859   -1.2784 N   0  0  0  0  0  0  0  0  0  0  0  0
   -1.4967   -2.1488   -0.6993 C   0  0  0  0  0  0  0  0  0  0  0  0
   -2.0600   -1.3000    0.4501 C   0  0  0  0  0  0  0  0  0  0  0  0
   -3.5076   -1.2802    0.4454 N   0  0  0  0  0  0  0  0  0  0  0  0
   -4.2837   -0.3427   -0.1939 C   0  0  0  0  0  0  0  0  0  0  0  0
   -3.7405    0.6817   -0.9105 O   0  0  0  0  0  0  0  0  0  0  0  0
   -5.5997   -0.5216   -0.0476 C   0  0  0  0  0  0  0  0  0  0  0  0
   -5.9504   -1.9349    0.8973 S   0  0  0  0  0  0  0  0  0  0  0  0
   -4.2240   -2.2796    1.0899 C   0  0  0  0  0  0  0  0  0  0  0  0
   -3.7828   -3.2485    1.6865 O   0  0  0  0  0  0  0  0  0  0  0  0
    0.8379    0.7269   -3.3643 H   0  0  0  0  0  0  0  0  0  0  0  0
    1.6327   -0.7451   -2.8277 H   0  0  0  0  0  0  0  0  0  0  0  0
    3.7069   -0.5588    1.6317 H   0  0  0  0  0  0  0  0  0  0  0  0
    4.9510    3.3496    2.9241 H   0  0  0  0  0  0  0  0  0  0  0  0
    2.5068    2.9521   -0.5864 H   0  0  0  0  0  0  0  0  0  0  0  0
    0.6154   -1.8809   -0.9131 H   0  0  0  0  0  0  0  0  0  0  0  0
   -2.2284   -2.2446   -1.5107 H   0  0  0  0  0  0  0  0  0  0  0  0
   -1.2569   -3.1583   -0.3496 H   0  0  0  0  0  0  0  0  0  0  0  0
   -1.7155   -1.7274    1.4005 H   0  0  0  0  0  0  0  0  0  0  0  0
   -1.6916   -0.2680    0.4376 H   0  0  0  0  0  0  0  0  0  0  0  0
   -2.8884    0.3978   -1.3059 H   0  0  0  0  0  0  0  0  0  0  0  0
   -6.3639    0.1145   -0.4708 H   0  0  0  0  0  0  0  0  0  0  0  0
  1  2  2  0
  2  3  1  0
  3  4  1  0
  4  5  1  0
  5  6  2  0
  5  7  1  0
  7  8  2  0
  8  9  1  0
  9 10  1  0
  9 11  2  0
 11 12  1  0
 12 13  1  0
 12 14  2  0
  2 15  1  0
 15 16  1  0
 16 17  1  0
 17 18  1  0
 18 19  1  0
 19 20  1  0
 19 21  2  0
 21 22  1  0
 22 23  1  0
 23 24  2  0
 14  7  1  0
 23 18  1  0
  3 25  1  0
  3 26  1  0
  8 27  1  0
 11 28  1  0
 14 29  1  0
 15 30  1  0
 16 31  1  0
 16 32  1  0
 17 33  1  0
 17 34  1  0
 20 35  1  0
 21 36  1  0
M  END
$$$$
