
     RDKit          3D

 56 61  0  0  0  0  0  0  0  0999 V2000
    7.8772   -2.5470   -0.5234 C   0  0  0  0  0  0  0  0  0  0  0  0
    6.4828   -1.9909   -0.5306 C   0  0  0  0  0  0  0  0  0  0  0  0
    5.5014   -2.5607   -1.3466 C   0  0  0  0  0  0  0  0  0  0  0  0
    4.2085   -2.0300   -1.3793 C   0  0  0  0  0  0  0  0  0  0  0  0
    3.8854   -0.9116   -0.6024 C   0  0  0  0  0  0  0  0  0  0  0  0
    2.4291   -0.3242   -0.6460 C   0  0  0  0  0  0  0  0  0  0  0  0
    1.3584   -0.8263   -1.3783 C   0  0  0  0  0  0  0  0  0  0  0  0
    0.2341   -0.0401   -1.1315 N   0  0  0  0  0  4  0  0  0  0  0  0
   -1.1320   -0.2635   -1.6343 C   0  0  0  0  0  0  0  0  0  0  0  0
   -1.9635   -0.9872   -0.5537 C   0  0  0  0  0  0  0  0  0  0  0  0
   -1.5122   -2.0338   -0.0837 O   0  0  0  0  0  0  0  0  0  0  0  0
   -3.0749   -0.2743   -0.0746 N   0  0  0  0  0  0  0  0  0  0  0  0
   -3.8969    0.5187   -0.9514 C   0  0  0  0  0  0  0  0  0  0  0  0
   -4.1049    0.0900   -2.2783 C   0  0  0  0  0  0  0  0  0  0  0  0
   -4.8906    0.8315   -3.1640 C   0  0  0  0  0  0  0  0  0  0  0  0
   -5.4948    2.0069   -2.7373 C   0  0  0  0  0  0  0  0  0  0  0  0
   -5.3266    2.4316   -1.4208 C   0  0  0  0  0  0  0  0  0  0  0  0
   -4.5448    1.6882   -0.5254 C   0  0  0  0  0  0  0  0  0  0  0  0
   -4.3563    2.3007    1.1250 S   0  0  0  0  0  0  0  0  0  0  0  0
   -4.0947    0.7479    1.9527 C   0  0  0  0  0  0  0  0  0  0  0  0
   -4.4551    0.6791    3.3087 C   0  0  0  0  0  0  0  0  0  0  0  0
   -4.2212   -0.4774    4.0450 C   0  0  0  0  0  0  0  0  0  0  0  0
   -3.6200   -1.5668    3.4307 C   0  0  0  0  0  0  0  0  0  0  0  0
   -3.2502   -1.4986    2.0824 C   0  0  0  0  0  0  0  0  0  0  0  0
   -3.4797   -0.3456    1.3109 C   0  0  0  0  0  0  0  0  0  0  0  0
    0.5857    0.8891   -0.2509 C   0  0  0  0  0  0  0  0  0  0  0  0
    1.8831    0.7674    0.0085 N   0  0  0  0  0  0  0  0  0  0  0  0
    2.3412    1.7693    0.9599 C   0  0  0  0  0  0  0  0  0  0  0  0
    1.1560    2.7729    1.0291 C   0  0  0  0  0  0  0  0  0  0  0  0
   -0.0614    1.9950    0.4914 C   0  0  0  0  0  0  0  0  0  0  0  0
    4.8655   -0.3337    0.2050 C   0  0  0  0  0  0  0  0  0  0  0  0
    6.1582   -0.8670    0.2352 C   0  0  0  0  0  0  0  0  0  0  0  0
    8.4323   -2.1762   -1.3909 H   0  0  0  0  0  0  0  0  0  0  0  0
    7.8553   -3.6416   -0.5546 H   0  0  0  0  0  0  0  0  0  0  0  0
    8.4142   -2.2572    0.3860 H   0  0  0  0  0  0  0  0  0  0  0  0
    5.7423   -3.4246   -1.9644 H   0  0  0  0  0  0  0  0  0  0  0  0
    3.4844   -2.5131   -2.0273 H   0  0  0  0  0  0  0  0  0  0  0  0
    1.2466   -1.6698   -2.0384 H   0  0  0  0  0  0  0  0  0  0  0  0
   -1.0934   -0.8875   -2.5329 H   0  0  0  0  0  0  0  0  0  0  0  0
   -1.5226    0.7208   -1.9024 H   0  0  0  0  0  0  0  0  0  0  0  0
   -3.7121   -0.8597   -2.6351 H   0  0  0  0  0  0  0  0  0  0  0  0
   -5.0547    0.4787   -4.1805 H   0  0  0  0  0  0  0  0  0  0  0  0
   -6.1171    2.5827   -3.4195 H   0  0  0  0  0  0  0  0  0  0  0  0
   -5.8238    3.3445   -1.0951 H   0  0  0  0  0  0  0  0  0  0  0  0
   -4.9216    1.5288    3.8016 H   0  0  0  0  0  0  0  0  0  0  0  0
   -4.5115   -0.5293    5.0921 H   0  0  0  0  0  0  0  0  0  0  0  0
   -3.4481   -2.4818    3.9940 H   0  0  0  0  0  0  0  0  0  0  0  0
   -2.8280   -2.4020    1.6534 H   0  0  0  0  0  0  0  0  0  0  0  0
    2.5089    1.2877    1.9280 H   0  0  0  0  0  0  0  0  0  0  0  0
    3.2488    2.2621    0.6047 H   0  0  0  0  0  0  0  0  0  0  0  0
    0.9974    3.1735    2.0341 H   0  0  0  0  0  0  0  0  0  0  0  0
    1.3660    3.6165    0.3605 H   0  0  0  0  0  0  0  0  0  0  0  0
   -0.6791    2.5737   -0.1969 H   0  0  0  0  0  0  0  0  0  0  0  0
   -0.6513    1.5370    1.2890 H   0  0  0  0  0  0  0  0  0  0  0  0
    4.6659    0.5274    0.8277 H   0  0  0  0  0  0  0  0  0  0  0  0
    6.9143   -0.4003    0.8652 H   0  0  0  0  0  0  0  0  0  0  0  0
  1  2  1  0
  2  3  2  0
  3  4  1  0
  4  5  2  0
  5  6  1  0
  6  7  2  0
  7  8  1  0
  8  9  1  0
  9 10  1  0
 10 11  2  0
 10 12  1  0
 12 13  1  0
 13 14  2  0
 14 15  1  0
 15 16  2  0
 16 17  1  0
 17 18  2  0
 18 19  1  0
 19 20  1  0
 20 21  2  0
 21 22  1  0
 22 23  2  0
 23 24  1  0
 24 25  2  0
  8 26  2  0
 26 27  1  0
 27 28  1  0
 28 29  1  0
 29 30  1  0
  5 31  1  0
 31 32  2  0
 32  2  1  0
 27  6  1  0
 25 12  1  0
 30 26  1  0
 18 13  1  0
 25 20  1  0
  1 33  1  0
  1 34  1  0
  1 35  1  0
  3 36  1  0
  4 37  1  0
  7 38  1  0
  9 39  1  0
  9 40  1  0
 14 41  1  0
 15 42  1  0
 16 43  1  0
 17 44  1  0
 21 45  1  0
 22 46  1  0
 23 47  1  0
 24 48  1  0
 28 49  1  0
 28 50  1  0
 29 51  1  0
 29 52  1  0
 30 53  1  0
 30 54  1  0
 31 55  1  0
 32 56  1  0
M  CHG  1   8   1
M  END
$$$$
