
     RDKit          3D

 57 62  0  0  0  0  0  0  0  0999 V2000
    6.2326   -3.3524    0.9600 C   0  0  0  0  0  0  0  0  0  0  0  0
    5.9002   -1.9976    0.4342 C   0  0  0  0  0  0  0  0  0  0  0  0
    6.6768   -0.8575    0.4489 C   0  0  0  0  0  0  0  0  0  0  0  0
    6.0219    0.2477   -0.1676 C   0  0  0  0  0  0  0  0  0  0  0  0
    4.7477   -0.0684   -0.5970 C   0  0  0  0  0  0  0  0  0  0  0  0
    3.8203    0.7958   -1.3115 C   0  0  0  0  0  0  0  0  0  0  0  0
    4.2023    1.5047   -2.2436 O   0  0  0  0  0  0  0  0  0  0  0  0
    2.4678    0.7954   -0.9153 N   0  0  0  0  0  0  0  0  0  0  0  0
    2.1110    0.7560    0.5023 C   0  0  0  0  0  0  0  0  0  0  0  0
    0.6959    0.2188    0.7013 C   0  0  0  0  0  0  0  0  0  0  0  0
   -0.3494    1.0083   -0.1312 C   0  0  0  0  0  0  0  0  0  0  0  0
    0.1162    1.0401   -1.6072 C   0  0  0  0  0  0  0  0  0  0  0  0
    1.5469    1.5532   -1.7514 C   0  0  0  0  0  0  0  0  0  0  0  0
   -0.2835    2.3536    0.4115 O   0  0  0  0  0  0  0  0  0  0  0  0
   -1.3311    3.1901    0.1694 C   0  0  0  0  0  0  0  0  0  0  0  0
   -1.1164    4.5386    0.4553 C   0  0  0  0  0  0  0  0  0  0  0  0
   -2.1254    5.4754    0.2182 C   0  0  0  0  0  0  0  0  0  0  0  0
   -3.3505    5.0591   -0.3022 C   0  0  0  0  0  0  0  0  0  0  0  0
   -4.5877    6.2160   -0.5993 Cl  0  0  0  0  0  0  0  0  0  0  0  0
   -3.5784    3.7140   -0.5794 C   0  0  0  0  0  0  0  0  0  0  0  0
   -2.5641    2.7839   -0.3289 C   0  0  0  0  0  0  0  0  0  0  0  0
   -2.7811    1.3553   -0.5933 C   0  0  0  0  0  0  0  0  0  0  0  0
   -3.7318    1.0019   -1.2863 O   0  0  0  0  0  0  0  0  0  0  0  0
   -1.7702    0.3970    0.0272 C   0  0  0  0  0  0  0  0  0  0  0  0
   -1.9466   -1.0115   -0.5249 C   0  0  0  0  0  0  0  0  0  0  0  0
   -2.8303   -1.5664    0.5405 C   0  0  0  0  0  0  0  0  0  0  0  0
   -3.5501   -2.8450    0.3790 C   0  0  0  0  0  0  0  0  0  0  0  0
   -4.4219   -3.2874    1.3765 C   0  0  0  0  0  0  0  0  0  0  0  0
   -5.0928   -4.4981    1.2168 C   0  0  0  0  0  0  0  0  0  0  0  0
   -4.8639   -5.2289    0.0626 C   0  0  0  0  0  0  0  0  0  0  0  0
   -4.0244   -4.8343   -0.9203 N   0  0  0  0  0  0  0  0  0  0  0  0
   -3.3893   -3.6496   -0.7414 C   0  0  0  0  0  0  0  0  0  0  0  0
   -2.8864   -0.8584    1.6235 N   0  0  0  0  0  0  0  0  0  0  0  0
   -2.0939    0.2922    1.4244 O   0  0  0  0  0  0  0  0  0  0  0  0
    4.3947   -1.7251   -0.3331 S   0  0  0  0  0  0  0  0  0  0  0  0
    7.1585   -3.3290    1.5422 H   0  0  0  0  0  0  0  0  0  0  0  0
    6.3710   -4.0606    0.1377 H   0  0  0  0  0  0  0  0  0  0  0  0
    5.4387   -3.7270    1.6128 H   0  0  0  0  0  0  0  0  0  0  0  0
    7.6759   -0.8185    0.8669 H   0  0  0  0  0  0  0  0  0  0  0  0
    6.4577    1.2332   -0.2891 H   0  0  0  0  0  0  0  0  0  0  0  0
    2.8129    0.1557    1.0840 H   0  0  0  0  0  0  0  0  0  0  0  0
    2.2023    1.7785    0.8894 H   0  0  0  0  0  0  0  0  0  0  0  0
    0.6932   -0.8413    0.4286 H   0  0  0  0  0  0  0  0  0  0  0  0
    0.4598    0.2841    1.7703 H   0  0  0  0  0  0  0  0  0  0  0  0
   -0.5341    1.6815   -2.2126 H   0  0  0  0  0  0  0  0  0  0  0  0
    0.0642    0.0318   -2.0358 H   0  0  0  0  0  0  0  0  0  0  0  0
    1.8473    1.4706   -2.8025 H   0  0  0  0  0  0  0  0  0  0  0  0
    1.6232    2.6115   -1.4742 H   0  0  0  0  0  0  0  0  0  0  0  0
   -0.1600    4.8651    0.8575 H   0  0  0  0  0  0  0  0  0  0  0  0
   -1.9492    6.5254    0.4396 H   0  0  0  0  0  0  0  0  0  0  0  0
   -4.5370    3.3883   -0.9769 H   0  0  0  0  0  0  0  0  0  0  0  0
   -2.4036   -1.0488   -1.5167 H   0  0  0  0  0  0  0  0  0  0  0  0
   -1.0267   -1.6008   -0.5366 H   0  0  0  0  0  0  0  0  0  0  0  0
   -4.5855   -2.6957    2.2743 H   0  0  0  0  0  0  0  0  0  0  0  0
   -5.7786   -4.8601    1.9753 H   0  0  0  0  0  0  0  0  0  0  0  0
   -5.3645   -6.1786   -0.1075 H   0  0  0  0  0  0  0  0  0  0  0  0
   -2.7305   -3.3814   -1.5606 H   0  0  0  0  0  0  0  0  0  0  0  0
  1  2  1  0
  2  3  2  0
  3  4  1  0
  4  5  2  0
  5  6  1  0
  6  7  2  0
  6  8  1  0
  8  9  1  0
  9 10  1  0
 10 11  1  0
 11 12  1  0
 12 13  1  0
 11 14  1  0
 14 15  1  0
 15 16  2  0
 16 17  1  0
 17 18  2  0
 18 19  1  0
 18 20  1  0
 20 21  2  0
 21 22  1  0
 22 23  2  0
 22 24  1  0
 24 25  1  0
 25 26  1  0
 26 27  1  0
 27 28  2  0
 28 29  1  0
 29 30  2  0
 30 31  1  0
 31 32  2  0
 26 33  2  0
 33 34  1  0
  5 35  1  0
 35  2  1  0
 13  8  1  0
 21 15  1  0
 34 24  1  0
 24 11  1  0
 32 27  1  0
  1 36  1  0
  1 37  1  0
  1 38  1  0
  3 39  1  0
  4 40  1  0
  9 41  1  0
  9 42  1  0
 10 43  1  0
 10 44  1  0
 12 45  1  0
 12 46  1  0
 13 47  1  0
 13 48  1  0
 16 49  1  0
 17 50  1  0
 20 51  1  0
 25 52  1  0
 25 53  1  0
 28 54  1  0
 29 55  1  0
 30 56  1  0
 32 57  1  0
M  END
$$$$
