
     RDKit          3D

 59 62  0  0  0  0  0  0  0  0999 V2000
    4.6138   -5.0355   -1.6408 C   0  0  0  0  0  0  0  0  0  0  0  0
    4.2451   -4.0482   -0.5526 C   0  0  0  0  0  0  0  0  0  0  0  0
    4.1659   -2.7482   -1.1325 O   0  0  0  0  0  0  0  0  0  0  0  0
    3.9340   -1.7426   -0.1438 C   0  0  0  0  0  0  0  0  0  0  0  0
    3.5063   -0.4600   -0.8440 C   0  0  0  0  0  0  0  0  0  0  0  0
    2.1030   -0.5568   -1.4569 C   0  0  0  0  0  0  0  0  0  0  0  0
    1.0495   -0.2157   -0.4716 N   0  0  0  0  0  0  0  0  0  0  0  0
    0.3647   -1.2488    0.1899 C   0  0  0  0  0  0  0  0  0  0  0  0
    0.6671   -2.4877   -0.0676 N   0  0  0  0  0  0  0  0  0  0  0  0
   -0.6980   -0.8891    1.1819 C   0  0  0  0  0  0  0  0  0  0  0  0
   -1.6479   -2.0573    2.0207 S   0  0  0  0  0  6  0  0  0  0  0  0
   -1.0817   -3.3854    1.8485 O   0  0  0  0  0  0  0  0  0  0  0  0
   -1.9524   -1.5762    3.3586 O   0  0  0  0  0  0  0  0  0  0  0  0
   -3.1750   -2.0449    1.0980 C   0  0  0  0  0  0  0  0  0  0  0  0
   -4.3074   -1.4250    1.6320 C   0  0  0  0  0  0  0  0  0  0  0  0
   -5.5043   -1.4468    0.9143 C   0  0  0  0  0  0  0  0  0  0  0  0
   -5.5743   -2.0850   -0.3321 C   0  0  0  0  0  0  0  0  0  0  0  0
   -6.8769   -2.1435   -1.0760 C   0  0  0  0  0  0  0  0  0  0  0  0
   -4.4359   -2.7227   -0.8443 C   0  0  0  0  0  0  0  0  0  0  0  0
   -3.2348   -2.7037   -0.1332 C   0  0  0  0  0  0  0  0  0  0  0  0
   -0.9212    0.4176    1.3967 C   0  0  0  0  0  0  0  0  0  0  0  0
   -0.1750    1.4562    0.7057 C   0  0  0  0  0  0  0  0  0  0  0  0
   -0.4732    2.8878    0.9957 C   0  0  0  0  0  0  0  0  0  0  0  0
   -1.3649    3.1734    1.7977 O   0  0  0  0  0  0  0  0  0  0  0  0
    0.2946    3.8188    0.3193 N   0  0  0  0  0  0  0  0  0  0  0  0
    0.0842    5.1757    0.5440 C   0  0  0  0  0  0  0  0  0  0  0  0
    0.7960    6.1239   -0.0869 C   0  0  0  0  0  0  0  0  0  0  0  0
    0.5864    7.5908    0.1317 C   0  0  0  0  0  0  0  0  0  0  0  0
    1.8125    5.7226   -1.0318 C   0  0  0  0  0  0  0  0  0  0  0  0
    2.0430    4.4282   -1.2795 C   0  0  0  0  0  0  0  0  0  0  0  0
    1.2496    3.3831   -0.5777 C   0  0  0  0  0  0  0  0  0  0  0  0
    1.4925    2.1399   -0.8426 N   0  0  0  0  0  0  0  0  0  0  0  0
    0.7819    1.1516   -0.1995 C   0  0  0  0  0  0  0  0  0  0  0  0
    5.5819   -4.7728   -2.0826 H   0  0  0  0  0  0  0  0  0  0  0  0
    3.8752   -5.0106   -2.4537 H   0  0  0  0  0  0  0  0  0  0  0  0
    4.6688   -6.0546   -1.2425 H   0  0  0  0  0  0  0  0  0  0  0  0
    5.0040   -4.0620    0.2355 H   0  0  0  0  0  0  0  0  0  0  0  0
    3.2746   -4.3157   -0.1202 H   0  0  0  0  0  0  0  0  0  0  0  0
    3.1853   -2.0655    0.5858 H   0  0  0  0  0  0  0  0  0  0  0  0
    4.8753   -1.5721    0.3900 H   0  0  0  0  0  0  0  0  0  0  0  0
    3.5713    0.3768   -0.1394 H   0  0  0  0  0  0  0  0  0  0  0  0
    4.2138   -0.2597   -1.6584 H   0  0  0  0  0  0  0  0  0  0  0  0
    2.0375    0.1430   -2.2992 H   0  0  0  0  0  0  0  0  0  0  0  0
    1.9335   -1.5403   -1.9113 H   0  0  0  0  0  0  0  0  0  0  0  0
    0.1411   -3.1632    0.5091 H   0  0  0  0  0  0  0  0  0  0  0  0
   -4.2765   -0.9344    2.6024 H   0  0  0  0  0  0  0  0  0  0  0  0
   -6.3888   -0.9717    1.3368 H   0  0  0  0  0  0  0  0  0  0  0  0
   -7.4185   -1.1979   -0.9792 H   0  0  0  0  0  0  0  0  0  0  0  0
   -7.4991   -2.9536   -0.6807 H   0  0  0  0  0  0  0  0  0  0  0  0
   -6.7139   -2.3180   -2.1453 H   0  0  0  0  0  0  0  0  0  0  0  0
   -4.4817   -3.2492   -1.7965 H   0  0  0  0  0  0  0  0  0  0  0  0
   -2.3654   -3.2149   -0.5410 H   0  0  0  0  0  0  0  0  0  0  0  0
   -1.6788    0.7477    2.1063 H   0  0  0  0  0  0  0  0  0  0  0  0
   -0.6927    5.4341    1.2602 H   0  0  0  0  0  0  0  0  0  0  0  0
    0.3148    8.0843   -0.8078 H   0  0  0  0  0  0  0  0  0  0  0  0
   -0.2148    7.7841    0.8513 H   0  0  0  0  0  0  0  0  0  0  0  0
    1.4985    8.0579    0.5179 H   0  0  0  0  0  0  0  0  0  0  0  0
    2.3901    6.4898   -1.5401 H   0  0  0  0  0  0  0  0  0  0  0  0
    2.7973    4.0922   -1.9800 H   0  0  0  0  0  0  0  0  0  0  0  0
  1  2  1  0
  2  3  1  0
  3  4  1  0
  4  5  1  0
  5  6  1  0
  6  7  1  0
  7  8  1  0
  8  9  2  3
  8 10  1  0
 10 11  1  0
 11 12  2  0
 11 13  2  0
 11 14  1  0
 14 15  2  0
 15 16  1  0
 16 17  2  0
 17 18  1  0
 17 19  1  0
 19 20  2  0
 10 21  2  0
 21 22  1  0
 22 23  1  0
 23 24  2  0
 23 25  1  0
 25 26  1  0
 26 27  2  0
 27 28  1  0
 27 29  1  0
 29 30  2  0
 30 31  1  0
 31 32  2  0
 32 33  1  0
 33  7  1  0
 20 14  1  0
 33 22  2  0
 31 25  1  0
  1 34  1  0
  1 35  1  0
  1 36  1  0
  2 37  1  0
  2 38  1  0
  4 39  1  0
  4 40  1  0
  5 41  1  0
  5 42  1  0
  6 43  1  0
  6 44  1  0
  9 45  1  0
 15 46  1  0
 16 47  1  0
 18 48  1  0
 18 49  1  0
 18 50  1  0
 19 51  1  0
 20 52  1  0
 21 53  1  0
 26 54  1  0
 28 55  1  0
 28 56  1  0
 28 57  1  0
 29 58  1  0
 30 59  1  0
M  END
$$$$
