
     RDKit          3D

 22 22  0  0  0  0  0  0  0  0999 V2000
    2.2123   -2.1493   -2.5209 N   0  0  0  0  0  0  0  0  0  0  0  0
    2.4593   -1.1311   -1.7829 C   0  0  0  0  0  0  0  0  0  0  0  0
    3.6754   -0.8793   -1.2600 N   0  0  0  0  0  0  0  0  0  0  0  0
    1.2004    0.0074   -1.4511 S   0  0  0  0  0  0  0  0  0  0  0  0
    0.6397   -0.6965    0.1224 C   0  0  0  0  0  0  0  0  0  0  0  0
   -0.4909    0.1210    0.6708 C   0  0  0  0  0  0  0  0  0  0  0  0
   -0.3973    0.9445    1.7288 C   0  0  0  0  0  0  0  0  0  0  0  0
   -1.6395    1.6603    2.1582 C   0  0  0  0  0  0  0  0  0  0  0  0
   -2.8995    1.0379    1.0517 S   0  0  0  0  0  6  0  0  0  0  0  0
   -3.8028    0.1912    1.8089 O   0  0  0  0  0  0  0  0  0  0  0  0
   -3.3935    2.1351    0.2415 O   0  0  0  0  0  0  0  0  0  0  0  0
   -1.8526   -0.0053    0.0409 C   0  0  0  0  0  0  0  0  0  0  0  0
    1.2298   -2.0912   -2.8107 H   0  0  0  0  0  0  0  0  0  0  0  0
    3.8929    0.1055   -1.1712 H   0  0  0  0  0  0  0  0  0  0  0  0
    4.4003   -1.4072   -1.7345 H   0  0  0  0  0  0  0  0  0  0  0  0
    0.3157   -1.7327   -0.0230 H   0  0  0  0  0  0  0  0  0  0  0  0
    1.4805   -0.7105    0.8249 H   0  0  0  0  0  0  0  0  0  0  0  0
    0.5296    1.1055    2.2691 H   0  0  0  0  0  0  0  0  0  0  0  0
   -1.5454    2.7400    2.0264 H   0  0  0  0  0  0  0  0  0  0  0  0
   -1.9127    1.4120    3.1858 H   0  0  0  0  0  0  0  0  0  0  0  0
   -2.2292   -1.0297    0.0891 H   0  0  0  0  0  0  0  0  0  0  0  0
   -1.8724    0.3725   -0.9836 H   0  0  0  0  0  0  0  0  0  0  0  0
  1  2  2  3
  2  3  1  0
  2  4  1  0
  4  5  1  0
  5  6  1  0
  6  7  2  0
  7  8  1  0
  8  9  1  0
  9 10  2  0
  9 11  2  0
  9 12  1  0
 12  6  1  0
  1 13  1  0
  3 14  1  0
  3 15  1  0
  5 16  1  0
  5 17  1  0
  7 18  1  0
  8 19  1  0
  8 20  1  0
 12 21  1  0
 12 22  1  0
M  END
$$$$
