
     RDKit          3D

 61 65  0  0  0  0  0  0  0  0999 V2000
   -8.0731    0.0732    2.8956 C   0  0  0  0  0  0  0  0  0  0  0  0
   -7.4404   -0.3529    1.6976 O   0  0  0  0  0  0  0  0  0  0  0  0
   -6.1946    0.1522    1.4199 C   0  0  0  0  0  0  0  0  0  0  0  0
   -5.4567    0.9549    2.2946 C   0  0  0  0  0  0  0  0  0  0  0  0
   -4.1913    1.4240    1.9262 C   0  0  0  0  0  0  0  0  0  0  0  0
   -3.6407    1.1027    0.6784 C   0  0  0  0  0  0  0  0  0  0  0  0
   -2.3375    1.6124    0.2588 C   0  0  0  0  0  0  0  0  0  0  0  0
   -1.7721    1.5797   -0.9336 N   0  0  0  0  0  0  0  0  0  0  0  0
   -0.5672    2.2386   -0.7653 C   0  0  0  0  0  0  0  0  0  0  0  0
    0.3248    2.4452   -1.9378 C   0  0  0  0  0  0  0  0  0  0  0  0
    1.7323    2.2551   -1.6255 N   0  0  0  0  0  0  0  0  0  0  0  0
    2.3990    1.0629   -1.4768 C   0  0  0  0  0  0  0  0  0  0  0  0
    1.6156   -0.4769   -1.5925 S   0  0  0  0  0  0  0  0  0  0  0  0
    2.9925   -1.5504   -2.0975 C   0  0  0  0  0  0  0  0  0  0  0  0
    3.4944   -2.4294   -0.9781 C   0  0  0  0  0  0  0  0  0  0  0  0
    2.9737   -3.7167   -0.7895 C   0  0  0  0  0  0  0  0  0  0  0  0
    3.4749   -4.5478    0.2179 C   0  0  0  0  0  0  0  0  0  0  0  0
    4.5076   -4.1070    1.0534 C   0  0  0  0  0  0  0  0  0  0  0  0
    5.0921   -5.0054    2.1057 C   0  0  0  0  0  0  0  0  0  0  0  0
    5.0022   -2.8080    0.8927 C   0  0  0  0  0  0  0  0  0  0  0  0
    4.4979   -1.9763   -0.1117 C   0  0  0  0  0  0  0  0  0  0  0  0
    3.6783    1.2433   -1.2407 N   0  0  0  0  0  0  0  0  0  0  0  0
    3.8663    2.6008   -1.2674 C   0  0  0  0  0  0  0  0  0  0  0  0
    5.0396    3.3351   -1.0957 C   0  0  0  0  0  0  0  0  0  0  0  0
    4.9077    4.7097   -1.1948 C   0  0  0  0  0  0  0  0  0  0  0  0
    3.7442    5.3600   -1.4332 N   0  0  0  0  0  0  0  0  0  0  0  0
    2.6066    4.6472   -1.6005 C   0  0  0  0  0  0  0  0  0  0  0  0
    2.6686    3.2633   -1.5156 C   0  0  0  0  0  0  0  0  0  0  0  0
   -0.4529    2.6398    0.5521 C   0  0  0  0  0  0  0  0  0  0  0  0
    0.5516    3.3639    1.3521 C   0  0  0  0  0  0  0  0  0  0  0  0
   -1.5840    2.2454    1.2109 O   0  0  0  0  0  0  0  0  0  0  0  0
   -4.3834    0.2923   -0.1960 C   0  0  0  0  0  0  0  0  0  0  0  0
   -5.6505   -0.1861    0.1643 C   0  0  0  0  0  0  0  0  0  0  0  0
   -6.4441   -0.9575   -0.6486 O   0  0  0  0  0  0  0  0  0  0  0  0
   -5.8601   -1.4811   -1.8338 C   0  0  0  0  0  0  0  0  0  0  0  0
   -8.2350    1.1575    2.8886 H   0  0  0  0  0  0  0  0  0  0  0  0
   -7.5060   -0.2373    3.7810 H   0  0  0  0  0  0  0  0  0  0  0  0
   -9.0543   -0.4093    2.9448 H   0  0  0  0  0  0  0  0  0  0  0  0
   -5.8370    1.2411    3.2703 H   0  0  0  0  0  0  0  0  0  0  0  0
   -3.6433    2.0547    2.6250 H   0  0  0  0  0  0  0  0  0  0  0  0
    0.1863    3.4595   -2.3256 H   0  0  0  0  0  0  0  0  0  0  0  0
    0.0709    1.7622   -2.7559 H   0  0  0  0  0  0  0  0  0  0  0  0
    3.8226   -0.9822   -2.5309 H   0  0  0  0  0  0  0  0  0  0  0  0
    2.6270   -2.1858   -2.9147 H   0  0  0  0  0  0  0  0  0  0  0  0
    2.1817   -4.0876   -1.4346 H   0  0  0  0  0  0  0  0  0  0  0  0
    3.0650   -5.5486    0.3338 H   0  0  0  0  0  0  0  0  0  0  0  0
    4.6928   -6.0239    2.0342 H   0  0  0  0  0  0  0  0  0  0  0  0
    6.1799   -5.0665    1.9791 H   0  0  0  0  0  0  0  0  0  0  0  0
    4.8663   -4.6200    3.1060 H   0  0  0  0  0  0  0  0  0  0  0  0
    5.7968   -2.4378    1.5399 H   0  0  0  0  0  0  0  0  0  0  0  0
    4.9026   -0.9715   -0.2236 H   0  0  0  0  0  0  0  0  0  0  0  0
    5.9903    2.8578   -0.9033 H   0  0  0  0  0  0  0  0  0  0  0  0
    5.7758    5.3551   -1.0808 H   0  0  0  0  0  0  0  0  0  0  0  0
    1.7003    5.2104   -1.7899 H   0  0  0  0  0  0  0  0  0  0  0  0
    0.8610    4.2822    0.8447 H   0  0  0  0  0  0  0  0  0  0  0  0
    0.1484    3.6465    2.3307 H   0  0  0  0  0  0  0  0  0  0  0  0
    1.4346    2.7385    1.5216 H   0  0  0  0  0  0  0  0  0  0  0  0
   -3.9509    0.0581   -1.1660 H   0  0  0  0  0  0  0  0  0  0  0  0
   -5.6336   -0.6834   -2.5477 H   0  0  0  0  0  0  0  0  0  0  0  0
   -4.9697   -2.0780   -1.6098 H   0  0  0  0  0  0  0  0  0  0  0  0
   -6.5938   -2.1439   -2.3021 H   0  0  0  0  0  0  0  0  0  0  0  0
  1  2  1  0
  2  3  1  0
  3  4  2  0
  4  5  1  0
  5  6  2  0
  6  7  1  0
  7  8  2  0
  8  9  1  0
  9 10  1  0
 10 11  1  0
 11 12  1  0
 12 13  1  0
 13 14  1  0
 14 15  1  0
 15 16  2  0
 16 17  1  0
 17 18  2  0
 18 19  1  0
 18 20  1  0
 20 21  2  0
 12 22  2  0
 22 23  1  0
 23 24  2  0
 24 25  1  0
 25 26  2  0
 26 27  1  0
 27 28  2  0
  9 29  2  0
 29 30  1  0
 29 31  1  0
  6 32  1  0
 32 33  2  0
 33 34  1  0
 34 35  1  0
 33  3  1  0
 31  7  1  0
 28 11  1  0
 21 15  1  0
 28 23  1  0
  1 36  1  0
  1 37  1  0
  1 38  1  0
  4 39  1  0
  5 40  1  0
 10 41  1  0
 10 42  1  0
 14 43  1  0
 14 44  1  0
 16 45  1  0
 17 46  1  0
 19 47  1  0
 19 48  1  0
 19 49  1  0
 20 50  1  0
 21 51  1  0
 24 52  1  0
 25 53  1  0
 27 54  1  0
 30 55  1  0
 30 56  1  0
 30 57  1  0
 32 58  1  0
 35 59  1  0
 35 60  1  0
 35 61  1  0
M  END
$$$$
