
     RDKit          3D

 63 66  0  0  0  0  0  0  0  0999 V2000
   -6.0594   -2.5421    2.4472 C   0  0  0  0  0  0  0  0  0  0  0  0
   -4.7230   -1.8901    2.2325 C   0  0  0  0  0  0  0  0  0  0  0  0
   -3.5837   -2.5664    2.7000 C   0  0  0  0  0  0  0  0  0  0  0  0
   -2.3055   -2.0181    2.5619 C   0  0  0  0  0  0  0  0  0  0  0  0
   -2.1282   -0.7685    1.9664 C   0  0  0  0  0  0  0  0  0  0  0  0
   -0.8095   -0.2807    1.8696 N   0  0  0  0  0  0  0  0  0  0  0  0
   -0.3997    0.9079    1.3008 C   0  0  0  0  0  0  0  0  0  0  0  0
   -1.0739    1.7467    0.7216 O   0  0  0  0  0  0  0  0  0  0  0  0
    1.0484    1.1575    1.4452 C   0  0  0  0  0  0  0  0  0  0  0  0
    1.4725    2.1879    2.2923 C   0  0  0  0  0  0  0  0  0  0  0  0
    2.8367    2.4240    2.4670 C   0  0  0  0  0  0  0  0  0  0  0  0
    3.7698    1.6455    1.7817 C   0  0  0  0  0  0  0  0  0  0  0  0
    3.3292    0.6368    0.9138 C   0  0  0  0  0  0  0  0  0  0  0  0
    4.5383   -0.3074    0.0107 S   0  0  0  0  0  6  0  0  0  0  0  0
    5.3638   -0.9525    1.0095 O   0  0  0  0  0  0  0  0  0  0  0  0
    3.8290   -1.0760   -0.9926 O   0  0  0  0  0  0  0  0  0  0  0  0
    5.4341    0.9171   -0.7872 N   0  0  0  0  0  0  0  0  0  0  0  0
    4.6825    1.6992   -1.7972 C   0  0  0  0  0  0  0  0  0  0  0  0
    6.7356    0.4911   -1.2340 C   0  0  0  0  0  0  0  0  0  0  0  0
    7.8488    1.1649   -0.7289 C   0  0  0  0  0  0  0  0  0  0  0  0
    9.1299    0.8289   -1.1701 C   0  0  0  0  0  0  0  0  0  0  0  0
    9.2979   -0.1717   -2.1270 C   0  0  0  0  0  0  0  0  0  0  0  0
    8.1854   -0.8364   -2.6435 C   0  0  0  0  0  0  0  0  0  0  0  0
    6.9026   -0.5020   -2.2030 C   0  0  0  0  0  0  0  0  0  0  0  0
    1.9680    0.3757    0.7428 C   0  0  0  0  0  0  0  0  0  0  0  0
   -3.2500   -0.0764    1.5149 C   0  0  0  0  0  0  0  0  0  0  0  0
   -4.5390   -0.6380    1.6159 C   0  0  0  0  0  0  0  0  0  0  0  0
   -5.8879    0.3558    0.9693 S   0  0  0  0  0  6  0  0  0  0  0  0
   -7.1448   -0.1719    1.4571 O   0  0  0  0  0  0  0  0  0  0  0  0
   -5.5522    1.7459    1.1973 O   0  0  0  0  0  0  0  0  0  0  0  0
   -5.8342    0.0706   -0.7039 N   0  0  0  0  0  0  0  0  0  0  0  0
   -6.1402   -1.3125   -1.1624 C   0  0  0  0  0  0  0  0  0  0  0  0
   -6.3626   -1.3118   -2.6801 C   0  0  0  0  0  0  0  0  0  0  0  0
   -5.2271   -0.7739   -3.3769 O   0  0  0  0  0  0  0  0  0  0  0  0
   -4.9806    0.5792   -2.9597 C   0  0  0  0  0  0  0  0  0  0  0  0
   -4.6809    0.6415   -1.4578 C   0  0  0  0  0  0  0  0  0  0  0  0
   -6.6657   -1.9529    3.1416 H   0  0  0  0  0  0  0  0  0  0  0  0
   -6.5836   -2.6823    1.4977 H   0  0  0  0  0  0  0  0  0  0  0  0
   -5.9517   -3.5392    2.8899 H   0  0  0  0  0  0  0  0  0  0  0  0
   -3.6811   -3.5365    3.1864 H   0  0  0  0  0  0  0  0  0  0  0  0
   -1.4570   -2.5857    2.9358 H   0  0  0  0  0  0  0  0  0  0  0  0
   -0.0900   -0.8544    2.2943 H   0  0  0  0  0  0  0  0  0  0  0  0
    0.7411    2.7993    2.8180 H   0  0  0  0  0  0  0  0  0  0  0  0
    3.1712    3.2154    3.1343 H   0  0  0  0  0  0  0  0  0  0  0  0
    4.8341    1.8302    1.9184 H   0  0  0  0  0  0  0  0  0  0  0  0
    4.3657    1.0745   -2.6376 H   0  0  0  0  0  0  0  0  0  0  0  0
    3.8062    2.1738   -1.3475 H   0  0  0  0  0  0  0  0  0  0  0  0
    5.3131    2.5064   -2.1851 H   0  0  0  0  0  0  0  0  0  0  0  0
    7.7235    1.9474    0.0137 H   0  0  0  0  0  0  0  0  0  0  0  0
    9.9967    1.3468   -0.7677 H   0  0  0  0  0  0  0  0  0  0  0  0
   10.2964   -0.4331   -2.4707 H   0  0  0  0  0  0  0  0  0  0  0  0
    8.3172   -1.6157   -3.3899 H   0  0  0  0  0  0  0  0  0  0  0  0
    6.0454   -1.0226   -2.6208 H   0  0  0  0  0  0  0  0  0  0  0  0
    1.6271   -0.4054    0.0667 H   0  0  0  0  0  0  0  0  0  0  0  0
   -3.1491    0.9143    1.0796 H   0  0  0  0  0  0  0  0  0  0  0  0
   -5.2925   -1.9608   -0.9199 H   0  0  0  0  0  0  0  0  0  0  0  0
   -7.0418   -1.6897   -0.6732 H   0  0  0  0  0  0  0  0  0  0  0  0
   -6.5069   -2.3363   -3.0338 H   0  0  0  0  0  0  0  0  0  0  0  0
   -7.2526   -0.7323   -2.9520 H   0  0  0  0  0  0  0  0  0  0  0  0
   -4.1209    0.9469   -3.5286 H   0  0  0  0  0  0  0  0  0  0  0  0
   -5.8481    1.1959   -3.2202 H   0  0  0  0  0  0  0  0  0  0  0  0
   -3.7837    0.0501   -1.2498 H   0  0  0  0  0  0  0  0  0  0  0  0
   -4.5028    1.6826   -1.1729 H   0  0  0  0  0  0  0  0  0  0  0  0
  1  2  1  0
  2  3  2  0
  3  4  1  0
  4  5  2  0
  5  6  1  0
  6  7  1  0
  7  8  2  0
  7  9  1  0
  9 10  2  0
 10 11  1  0
 11 12  2  0
 12 13  1  0
 13 14  1  0
 14 15  2  0
 14 16  2  0
 14 17  1  0
 17 18  1  0
 17 19  1  0
 19 20  2  0
 20 21  1  0
 21 22  2  0
 22 23  1  0
 23 24  2  0
 13 25  2  0
  5 26  1  0
 26 27  2  0
 27 28  1  0
 28 29  2  0
 28 30  2  0
 28 31  1  0
 31 32  1  0
 32 33  1  0
 33 34  1  0
 34 35  1  0
 35 36  1  0
 27  2  1  0
 36 31  1  0
 25  9  1  0
 24 19  1  0
  1 37  1  0
  1 38  1  0
  1 39  1  0
  3 40  1  0
  4 41  1  0
  6 42  1  0
 10 43  1  0
 11 44  1  0
 12 45  1  0
 18 46  1  0
 18 47  1  0
 18 48  1  0
 20 49  1  0
 21 50  1  0
 22 51  1  0
 23 52  1  0
 24 53  1  0
 25 54  1  0
 26 55  1  0
 32 56  1  0
 32 57  1  0
 33 58  1  0
 33 59  1  0
 35 60  1  0
 35 61  1  0
 36 62  1  0
 36 63  1  0
M  END
$$$$
