
     RDKit          3D

 57 59  0  0  0  0  0  0  0  0999 V2000
   -1.6118   -3.8672   -4.2129 C   0  0  0  0  0  0  0  0  0  0  0  0
   -1.3096   -2.7021   -3.4016 N   0  0  0  0  0  0  0  0  0  0  0  0
   -2.0292   -2.2717   -2.3030 C   0  0  0  0  0  0  0  0  0  0  0  0
   -3.4030   -3.0840   -1.7616 S   0  0  0  0  0  0  0  0  0  0  0  0
   -1.5152   -1.0958   -1.7148 N   0  0  0  0  0  0  0  0  0  0  0  0
   -2.0677   -0.5655   -0.4476 C   0  0  0  0  0  0  0  0  0  0  0  0
   -3.2410    0.4026   -0.6575 C   0  0  0  0  0  0  0  0  0  0  0  0
   -3.7557    0.9399    0.6554 C   0  0  0  0  0  0  0  0  0  0  0  0
   -3.3387    2.1897    1.1287 C   0  0  0  0  0  0  0  0  0  0  0  0
   -3.8099    2.6725    2.3492 C   0  0  0  0  0  0  0  0  0  0  0  0
   -4.6942    1.9085    3.1109 C   0  0  0  0  0  0  0  0  0  0  0  0
   -5.1078    0.6490    2.6637 C   0  0  0  0  0  0  0  0  0  0  0  0
   -6.0845   -0.1606    3.4644 C   0  0  0  0  0  0  0  0  0  0  0  0
   -4.6429    0.1772    1.4293 C   0  0  0  0  0  0  0  0  0  0  0  0
   -0.5720   -0.2032   -2.4188 C   0  0  0  0  0  0  0  0  0  0  0  0
    0.7923   -0.2400   -1.7868 C   0  0  0  0  0  0  0  0  0  0  0  0
    1.2315    0.6931   -0.9212 C   0  0  0  0  0  0  0  0  0  0  0  0
    2.5760    0.6242   -0.3475 C   0  0  0  0  0  0  0  0  0  0  0  0
    3.0262    1.5728    0.5751 C   0  0  0  0  0  0  0  0  0  0  0  0
    4.3185    1.4795    1.1077 C   0  0  0  0  0  0  0  0  0  0  0  0
    4.8471    2.3639    2.0158 O   0  0  0  0  0  0  0  0  0  0  0  0
    4.0063    3.4013    2.4993 C   0  0  0  0  0  0  0  0  0  0  0  0
    5.1687    0.4248    0.7082 C   0  0  0  0  0  0  0  0  0  0  0  0
    6.4184    0.4136    1.2776 O   0  0  0  0  0  0  0  0  0  0  0  0
    7.3002   -0.6419    0.9234 C   0  0  0  0  0  0  0  0  0  0  0  0
    4.7134   -0.5225   -0.2151 C   0  0  0  0  0  0  0  0  0  0  0  0
    3.4232   -0.4167   -0.7342 C   0  0  0  0  0  0  0  0  0  0  0  0
    2.9643   -1.3584   -1.6622 N   0  0  0  0  0  0  0  0  0  0  0  0
    1.7169   -1.3273   -2.2248 C   0  0  0  0  0  0  0  0  0  0  0  0
    1.3831   -2.1577   -3.0661 O   0  0  0  0  0  0  0  0  0  0  0  0
   -2.6452   -3.8250   -4.5662 H   0  0  0  0  0  0  0  0  0  0  0  0
   -1.4517   -4.7716   -3.6197 H   0  0  0  0  0  0  0  0  0  0  0  0
   -0.9348   -3.8686   -5.0708 H   0  0  0  0  0  0  0  0  0  0  0  0
   -0.3092   -2.5152   -3.3447 H   0  0  0  0  0  0  0  0  0  0  0  0
   -1.2621   -0.0654    0.1006 H   0  0  0  0  0  0  0  0  0  0  0  0
   -2.3707   -1.3994    0.1953 H   0  0  0  0  0  0  0  0  0  0  0  0
   -2.9352    1.2398   -1.2964 H   0  0  0  0  0  0  0  0  0  0  0  0
   -4.0636   -0.0828   -1.1951 H   0  0  0  0  0  0  0  0  0  0  0  0
   -2.6517    2.7993    0.5472 H   0  0  0  0  0  0  0  0  0  0  0  0
   -3.4919    3.6482    2.7072 H   0  0  0  0  0  0  0  0  0  0  0  0
   -5.0595    2.3020    4.0567 H   0  0  0  0  0  0  0  0  0  0  0  0
   -5.9094   -1.2325    3.3249 H   0  0  0  0  0  0  0  0  0  0  0  0
   -5.9813    0.0481    4.5345 H   0  0  0  0  0  0  0  0  0  0  0  0
   -7.1075    0.0749    3.1554 H   0  0  0  0  0  0  0  0  0  0  0  0
   -4.9742   -0.7949    1.0655 H   0  0  0  0  0  0  0  0  0  0  0  0
   -0.5151   -0.4327   -3.4876 H   0  0  0  0  0  0  0  0  0  0  0  0
   -0.9824    0.8129   -2.3780 H   0  0  0  0  0  0  0  0  0  0  0  0
    0.5919    1.5135   -0.6124 H   0  0  0  0  0  0  0  0  0  0  0  0
    2.3580    2.3758    0.8661 H   0  0  0  0  0  0  0  0  0  0  0  0
    3.1283    2.9935    3.0109 H   0  0  0  0  0  0  0  0  0  0  0  0
    3.7149    4.0805    1.6916 H   0  0  0  0  0  0  0  0  0  0  0  0
    4.5773    3.9812    3.2308 H   0  0  0  0  0  0  0  0  0  0  0  0
    8.2345   -0.4965    1.4742 H   0  0  0  0  0  0  0  0  0  0  0  0
    6.8901   -1.6143    1.2155 H   0  0  0  0  0  0  0  0  0  0  0  0
    7.5371   -0.6162   -0.1453 H   0  0  0  0  0  0  0  0  0  0  0  0
    5.3440   -1.3417   -0.5392 H   0  0  0  0  0  0  0  0  0  0  0  0
    3.5664   -2.1109   -1.9679 H   0  0  0  0  0  0  0  0  0  0  0  0
  1  2  1  0
  2  3  1  0
  3  4  2  0
  3  5  1  0
  5  6  1  0
  6  7  1  0
  7  8  1  0
  8  9  2  0
  9 10  1  0
 10 11  2  0
 11 12  1  0
 12 13  1  0
 12 14  2  0
  5 15  1  0
 15 16  1  0
 16 17  2  0
 17 18  1  0
 18 19  2  0
 19 20  1  0
 20 21  1  0
 21 22  1  0
 20 23  2  0
 23 24  1  0
 24 25  1  0
 23 26  1  0
 26 27  2  0
 27 28  1  0
 28 29  1  0
 29 30  2  0
 14  8  1  0
 29 16  1  0
 27 18  1  0
  1 31  1  0
  1 32  1  0
  1 33  1  0
  2 34  1  0
  6 35  1  0
  6 36  1  0
  7 37  1  0
  7 38  1  0
  9 39  1  0
 10 40  1  0
 11 41  1  0
 13 42  1  0
 13 43  1  0
 13 44  1  0
 14 45  1  0
 15 46  1  0
 15 47  1  0
 17 48  1  0
 19 49  1  0
 22 50  1  0
 22 51  1  0
 22 52  1  0
 25 53  1  0
 25 54  1  0
 25 55  1  0
 26 56  1  0
 28 57  1  0
M  END
$$$$
