
     RDKit          3D

 48 51  0  0  0  0  0  0  0  0999 V2000
    1.1548    0.8122    3.2236 C   0  0  0  0  0  0  0  0  0  0  0  0
    1.9603    0.5016    2.0033 C   0  0  0  0  0  0  0  0  0  0  0  0
    1.5358    0.3314    0.7396 C   0  0  0  0  0  0  0  0  0  0  0  0
    0.3275    0.3240    0.0930 N   0  0  0  0  0  0  0  0  0  0  0  0
   -0.9517    0.4088    0.6056 C   0  0  0  0  0  0  0  0  0  0  0  0
   -1.2290    0.5183    1.7958 O   0  0  0  0  0  0  0  0  0  0  0  0
   -2.0267    0.3774   -0.4764 C   0  0  0  0  0  0  0  0  0  0  0  0
   -3.3530   -0.7822   -0.0131 S   0  0  0  0  0  0  0  0  0  0  0  0
   -4.5073   -0.5208   -1.3641 C   0  0  0  0  0  0  0  0  0  0  0  0
   -4.0099    0.1265   -2.4380 N   0  0  0  0  0  0  0  0  0  0  0  0
   -4.8534    0.2988   -3.4581 C   0  0  0  0  0  0  0  0  0  0  0  0
   -6.1256   -0.1078   -3.5080 N   0  0  0  0  0  0  0  0  0  0  0  0
   -6.6006   -0.7514   -2.4362 C   0  0  0  0  0  0  0  0  0  0  0  0
   -7.9187   -1.1936   -2.4640 C   0  0  0  0  0  0  0  0  0  0  0  0
   -8.4955   -1.8749   -1.3888 C   0  0  0  0  0  0  0  0  0  0  0  0
   -7.7438   -2.1212   -0.2494 C   0  0  0  0  0  0  0  0  0  0  0  0
   -6.4202   -1.6896   -0.1979 C   0  0  0  0  0  0  0  0  0  0  0  0
   -5.8289   -1.0000   -1.2931 C   0  0  0  0  0  0  0  0  0  0  0  0
    2.7786    0.1286   -0.0772 C   0  0  0  0  0  0  0  0  0  0  0  0
    2.7317    0.0018   -1.2930 O   0  0  0  0  0  0  0  0  0  0  0  0
    3.8580    0.1987    0.8038 N   0  0  0  0  0  0  0  0  0  0  0  0
    5.1783    0.5873    0.4567 C   0  0  0  0  0  0  0  0  0  0  0  0
    6.0099    1.2376    1.3811 C   0  0  0  0  0  0  0  0  0  0  0  0
    7.3042    1.6358    1.0334 C   0  0  0  0  0  0  0  0  0  0  0  0
    7.7900    1.3872   -0.2476 C   0  0  0  0  0  0  0  0  0  0  0  0
    6.9831    0.7381   -1.1764 C   0  0  0  0  0  0  0  0  0  0  0  0
    5.6869    0.3444   -0.8278 C   0  0  0  0  0  0  0  0  0  0  0  0
    3.3606    0.3713    2.1268 N   0  0  0  0  0  0  0  0  0  0  0  0
    3.8646   -0.6512    3.0655 C   0  0  0  0  0  0  0  0  0  0  0  0
    0.4820    1.6561    3.0478 H   0  0  0  0  0  0  0  0  0  0  0  0
    1.7984    1.1160    4.0557 H   0  0  0  0  0  0  0  0  0  0  0  0
    0.5884   -0.0641    3.5515 H   0  0  0  0  0  0  0  0  0  0  0  0
    0.4265    0.1896   -0.9120 H   0  0  0  0  0  0  0  0  0  0  0  0
   -2.4182    1.3940   -0.5897 H   0  0  0  0  0  0  0  0  0  0  0  0
   -1.5960    0.0521   -1.4303 H   0  0  0  0  0  0  0  0  0  0  0  0
   -4.4709    0.8163   -4.3313 H   0  0  0  0  0  0  0  0  0  0  0  0
   -8.5178   -1.0043   -3.3530 H   0  0  0  0  0  0  0  0  0  0  0  0
   -9.5286   -2.2065   -1.4475 H   0  0  0  0  0  0  0  0  0  0  0  0
   -8.1821   -2.6468    0.5955 H   0  0  0  0  0  0  0  0  0  0  0  0
   -5.8469   -1.8920    0.7048 H   0  0  0  0  0  0  0  0  0  0  0  0
    5.6499    1.4789    2.3779 H   0  0  0  0  0  0  0  0  0  0  0  0
    7.9241    2.1551    1.7604 H   0  0  0  0  0  0  0  0  0  0  0  0
    8.7927    1.7040   -0.5214 H   0  0  0  0  0  0  0  0  0  0  0  0
    7.3562    0.5391   -2.1780 H   0  0  0  0  0  0  0  0  0  0  0  0
    5.0901   -0.1648   -1.5814 H   0  0  0  0  0  0  0  0  0  0  0  0
    4.9563   -0.7302    3.0336 H   0  0  0  0  0  0  0  0  0  0  0  0
    3.5899   -0.3936    4.0943 H   0  0  0  0  0  0  0  0  0  0  0  0
    3.4461   -1.6362    2.8286 H   0  0  0  0  0  0  0  0  0  0  0  0
  1  2  1  0
  2  3  2  0
  3  4  1  0
  4  5  1  0
  5  6  2  0
  5  7  1  0
  7  8  1  0
  8  9  1  0
  9 10  2  0
 10 11  1  0
 11 12  2  0
 12 13  1  0
 13 14  2  0
 14 15  1  0
 15 16  2  0
 16 17  1  0
 17 18  2  0
  3 19  1  0
 19 20  2  0
 19 21  1  0
 21 22  1  0
 22 23  2  0
 23 24  1  0
 24 25  2  0
 25 26  1  0
 26 27  2  0
 21 28  1  0
 28 29  1  0
 28  2  1  0
 18  9  1  0
 27 22  1  0
 18 13  1  0
  1 30  1  0
  1 31  1  0
  1 32  1  0
  4 33  1  0
  7 34  1  0
  7 35  1  0
 11 36  1  0
 14 37  1  0
 15 38  1  0
 16 39  1  0
 17 40  1  0
 23 41  1  0
 24 42  1  0
 25 43  1  0
 26 44  1  0
 27 45  1  0
 29 46  1  0
 29 47  1  0
 29 48  1  0
M  END
$$$$
