
     RDKit          3D

 50 53  0  0  0  0  0  0  0  0999 V2000
   -3.8550    2.5147   -1.9996 C   0  0  0  0  0  0  0  0  0  0  0  0
   -4.5102    1.4135   -1.3236 N   0  0  0  0  0  0  0  0  0  0  0  0
   -5.4381    1.5748   -0.3258 C   0  0  0  0  0  0  0  0  0  0  0  0
   -5.8523    0.3285    0.0836 C   0  0  0  0  0  0  0  0  0  0  0  0
   -5.1470   -0.6206   -0.6892 C   0  0  0  0  0  0  0  0  0  0  0  0
   -4.3066    0.0666   -1.5496 C   0  0  0  0  0  0  0  0  0  0  0  0
   -3.3413   -0.4765   -2.5620 C   0  0  0  0  0  0  0  0  0  0  0  0
   -1.9146   -0.2266   -2.1937 C   0  0  0  0  0  0  0  0  0  0  0  0
   -1.1464    0.6675   -2.7908 N   0  0  0  0  0  0  0  0  0  0  0  0
    0.0190    0.7704   -2.0885 N   0  0  0  0  0  0  0  0  0  0  0  0
   -0.0390   -0.0729   -1.0843 C   0  0  0  0  0  0  0  0  0  0  0  0
    1.2818   -0.3773   -0.0014 S   0  0  0  0  0  0  0  0  0  0  0  0
    2.6701    0.2043   -1.0191 C   0  0  0  0  0  0  0  0  0  0  0  0
    3.9654    0.0475   -0.2405 C   0  0  0  0  0  0  0  0  0  0  0  0
    4.7199   -0.8962   -0.4571 O   0  0  0  0  0  0  0  0  0  0  0  0
    4.1578    1.0629    0.6858 N   0  0  0  0  0  0  0  0  0  0  0  0
    5.2575    1.2449    1.5489 C   0  0  0  0  0  0  0  0  0  0  0  0
    5.2025    2.3314    2.4322 C   0  0  0  0  0  0  0  0  0  0  0  0
    6.2536    2.5860    3.3175 C   0  0  0  0  0  0  0  0  0  0  0  0
    7.3706    1.7560    3.3281 C   0  0  0  0  0  0  0  0  0  0  0  0
    7.4349    0.6744    2.4534 C   0  0  0  0  0  0  0  0  0  0  0  0
    6.3830    0.4197    1.5670 C   0  0  0  0  0  0  0  0  0  0  0  0
   -1.2405   -0.7625   -1.1002 N   0  0  0  0  0  0  0  0  0  0  0  0
   -1.6904   -1.7786   -0.2170 C   0  0  0  0  0  0  0  0  0  0  0  0
   -2.2607   -2.9514   -0.7328 C   0  0  0  0  0  0  0  0  0  0  0  0
   -2.7070   -3.9483    0.1377 C   0  0  0  0  0  0  0  0  0  0  0  0
   -2.5828   -3.7706    1.5104 C   0  0  0  0  0  0  0  0  0  0  0  0
   -3.0151   -4.7278    2.3414 F   0  0  0  0  0  0  0  0  0  0  0  0
   -2.0168   -2.6142    2.0330 C   0  0  0  0  0  0  0  0  0  0  0  0
   -1.5656   -1.6132    1.1700 C   0  0  0  0  0  0  0  0  0  0  0  0
   -2.8908    2.6846   -1.5158 H   0  0  0  0  0  0  0  0  0  0  0  0
   -4.4788    3.4085   -1.9162 H   0  0  0  0  0  0  0  0  0  0  0  0
   -3.7274    2.2702   -3.0558 H   0  0  0  0  0  0  0  0  0  0  0  0
   -5.7315    2.5606    0.0117 H   0  0  0  0  0  0  0  0  0  0  0  0
   -6.5835    0.1269    0.8555 H   0  0  0  0  0  0  0  0  0  0  0  0
   -5.2364   -1.6979   -0.6200 H   0  0  0  0  0  0  0  0  0  0  0  0
   -3.5450   -0.0060   -3.5326 H   0  0  0  0  0  0  0  0  0  0  0  0
   -3.5238   -1.5424   -2.7271 H   0  0  0  0  0  0  0  0  0  0  0  0
    2.5400    1.2560   -1.2969 H   0  0  0  0  0  0  0  0  0  0  0  0
    2.7395   -0.3847   -1.9397 H   0  0  0  0  0  0  0  0  0  0  0  0
    3.3997    1.7268    0.7909 H   0  0  0  0  0  0  0  0  0  0  0  0
    4.3429    2.9968    2.4457 H   0  0  0  0  0  0  0  0  0  0  0  0
    6.2005    3.4334    3.9970 H   0  0  0  0  0  0  0  0  0  0  0  0
    8.1905    1.9503    4.0151 H   0  0  0  0  0  0  0  0  0  0  0  0
    8.3044    0.0223    2.4574 H   0  0  0  0  0  0  0  0  0  0  0  0
    6.4772   -0.4339    0.9038 H   0  0  0  0  0  0  0  0  0  0  0  0
   -2.3263   -3.1336   -1.8022 H   0  0  0  0  0  0  0  0  0  0  0  0
   -3.1403   -4.8675   -0.2452 H   0  0  0  0  0  0  0  0  0  0  0  0
   -1.9372   -2.4952    3.1093 H   0  0  0  0  0  0  0  0  0  0  0  0
   -1.1605   -0.7018    1.6033 H   0  0  0  0  0  0  0  0  0  0  0  0
  1  2  1  0
  2  3  1  0
  3  4  2  0
  4  5  1  0
  5  6  2  0
  6  7  1  0
  7  8  1  0
  8  9  2  0
  9 10  1  0
 10 11  2  0
 11 12  1  0
 12 13  1  0
 13 14  1  0
 14 15  2  0
 14 16  1  0
 16 17  1  0
 17 18  2  0
 18 19  1  0
 19 20  2  0
 20 21  1  0
 21 22  2  0
 11 23  1  0
 23 24  1  0
 24 25  2  0
 25 26  1  0
 26 27  2  0
 27 28  1  0
 27 29  1  0
 29 30  2  0
  6  2  1  0
 23  8  1  0
 30 24  1  0
 22 17  1  0
  1 31  1  0
  1 32  1  0
  1 33  1  0
  3 34  1  0
  4 35  1  0
  5 36  1  0
  7 37  1  0
  7 38  1  0
 13 39  1  0
 13 40  1  0
 16 41  1  0
 18 42  1  0
 19 43  1  0
 20 44  1  0
 21 45  1  0
 22 46  1  0
 25 47  1  0
 26 48  1  0
 29 49  1  0
 30 50  1  0
M  END
$$$$
