
     RDKit          3D

 44 46  0  0  0  0  0  0  0  0999 V2000
    5.2310    2.4356   -1.6990 C   0  0  0  0  0  0  0  0  0  0  0  0
    4.1625    1.4644   -1.2749 C   0  0  0  0  0  0  0  0  0  0  0  0
    2.9016    1.9534   -0.9007 C   0  0  0  0  0  0  0  0  0  0  0  0
    1.8849    1.0867   -0.4891 C   0  0  0  0  0  0  0  0  0  0  0  0
    2.1153   -0.2904   -0.4417 C   0  0  0  0  0  0  0  0  0  0  0  0
    1.0669   -1.2655   -0.0056 C   0  0  0  0  0  0  0  0  0  0  0  0
    1.3057   -2.4709   -0.0767 O   0  0  0  0  0  0  0  0  0  0  0  0
   -0.2606   -0.7112    0.5058 C   0  0  0  0  0  0  0  0  0  0  0  0
   -1.0721   -1.7418    1.0704 O   0  0  0  0  0  0  0  0  0  0  0  0
   -2.2295   -1.9265    0.3570 C   0  0  0  0  0  0  0  0  0  0  0  0
   -2.2929   -3.0860   -0.4215 C   0  0  0  0  0  0  0  0  0  0  0  0
   -3.4364   -3.3625   -1.1657 C   0  0  0  0  0  0  0  0  0  0  0  0
   -4.5201   -2.4889   -1.1181 C   0  0  0  0  0  0  0  0  0  0  0  0
   -4.4610   -1.3403   -0.3219 C   0  0  0  0  0  0  0  0  0  0  0  0
   -3.3177   -1.0339    0.4392 C   0  0  0  0  0  0  0  0  0  0  0  0
   -3.3000    0.1752    1.2848 C   0  0  0  0  0  0  0  0  0  0  0  0
   -3.5636    1.4434    0.7385 C   0  0  0  0  0  0  0  0  0  0  0  0
   -3.5430    2.5900    1.5364 C   0  0  0  0  0  0  0  0  0  0  0  0
   -3.2602    2.4883    2.8960 C   0  0  0  0  0  0  0  0  0  0  0  0
   -2.9970    1.2411    3.4580 C   0  0  0  0  0  0  0  0  0  0  0  0
   -3.0184    0.0960    2.6588 C   0  0  0  0  0  0  0  0  0  0  0  0
    3.3748   -0.7839   -0.8119 C   0  0  0  0  0  0  0  0  0  0  0  0
    4.4070    0.0794   -1.2190 C   0  0  0  0  0  0  0  0  0  0  0  0
    5.7391   -0.5024   -1.6069 C   0  0  0  0  0  0  0  0  0  0  0  0
    6.0182    2.4828   -0.9401 H   0  0  0  0  0  0  0  0  0  0  0  0
    5.6660    2.1385   -2.6586 H   0  0  0  0  0  0  0  0  0  0  0  0
    4.8248    3.4449   -1.8276 H   0  0  0  0  0  0  0  0  0  0  0  0
    2.7002    3.0231   -0.9278 H   0  0  0  0  0  0  0  0  0  0  0  0
    0.9282    1.5216   -0.2159 H   0  0  0  0  0  0  0  0  0  0  0  0
   -0.0534   -0.0008    1.3136 H   0  0  0  0  0  0  0  0  0  0  0  0
   -0.7526   -0.1872   -0.3243 H   0  0  0  0  0  0  0  0  0  0  0  0
   -1.4436   -3.7653   -0.4473 H   0  0  0  0  0  0  0  0  0  0  0  0
   -3.4831   -4.2604   -1.7753 H   0  0  0  0  0  0  0  0  0  0  0  0
   -5.4183   -2.7057   -1.6905 H   0  0  0  0  0  0  0  0  0  0  0  0
   -5.3325   -0.6881   -0.2821 H   0  0  0  0  0  0  0  0  0  0  0  0
   -3.7820    1.5462   -0.3228 H   0  0  0  0  0  0  0  0  0  0  0  0
   -3.7499    3.5614    1.0951 H   0  0  0  0  0  0  0  0  0  0  0  0
   -3.2474    3.3791    3.5188 H   0  0  0  0  0  0  0  0  0  0  0  0
   -2.7784    1.1555    4.5192 H   0  0  0  0  0  0  0  0  0  0  0  0
   -2.8132   -0.8713    3.1165 H   0  0  0  0  0  0  0  0  0  0  0  0
    3.5569   -1.8579   -0.7777 H   0  0  0  0  0  0  0  0  0  0  0  0
    5.7951   -1.5694   -1.3679 H   0  0  0  0  0  0  0  0  0  0  0  0
    6.5485   -0.0062   -1.0625 H   0  0  0  0  0  0  0  0  0  0  0  0
    5.9002   -0.3900   -2.6839 H   0  0  0  0  0  0  0  0  0  0  0  0
  1  2  1  0
  2  3  2  0
  3  4  1  0
  4  5  2  0
  5  6  1  0
  6  7  2  0
  6  8  1  0
  8  9  1  0
  9 10  1  0
 10 11  2  0
 11 12  1  0
 12 13  2  0
 13 14  1  0
 14 15  2  0
 15 16  1  0
 16 17  2  0
 17 18  1  0
 18 19  2  0
 19 20  1  0
 20 21  2  0
  5 22  1  0
 22 23  2  0
 23 24  1  0
 23  2  1  0
 15 10  1  0
 21 16  1  0
  1 25  1  0
  1 26  1  0
  1 27  1  0
  3 28  1  0
  4 29  1  0
  8 30  1  0
  8 31  1  0
 11 32  1  0
 12 33  1  0
 13 34  1  0
 14 35  1  0
 17 36  1  0
 18 37  1  0
 19 38  1  0
 20 39  1  0
 21 40  1  0
 22 41  1  0
 24 42  1  0
 24 43  1  0
 24 44  1  0
M  END
$$$$
