
     RDKit          3D

 42 44  0  0  0  0  0  0  0  0999 V2000
   -5.4010    0.4857   -1.8269 C   0  0  0  0  0  0  0  0  0  0  0  0
   -5.2366   -0.1266   -0.5535 O   0  0  0  0  0  0  0  0  0  0  0  0
   -4.1118    0.2041    0.1507 C   0  0  0  0  0  0  0  0  0  0  0  0
   -3.0957    1.0597   -0.2808 C   0  0  0  0  0  0  0  0  0  0  0  0
   -1.9921    1.3107    0.5406 C   0  0  0  0  0  0  0  0  0  0  0  0
   -1.9000    0.6890    1.7889 C   0  0  0  0  0  0  0  0  0  0  0  0
   -0.4982    1.0114    2.8355 S   0  0  0  0  0  6  0  0  0  0  0  0
   -0.9102    0.7677    4.2028 O   0  0  0  0  0  0  0  0  0  0  0  0
    0.0706    2.2823    2.4436 O   0  0  0  0  0  0  0  0  0  0  0  0
    0.5715   -0.2354    2.4490 N   0  0  0  0  0  0  0  0  0  0  0  0
    0.9349   -0.4791    1.0918 C   0  0  0  0  0  0  0  0  0  0  0  0
    1.5947    0.5149    0.3620 C   0  0  0  0  0  0  0  0  0  0  0  0
    1.9322    0.3126   -0.9814 C   0  0  0  0  0  0  0  0  0  0  0  0
    2.7531    1.6237   -1.8711 S   0  0  0  0  0  0  0  0  0  0  0  0
    4.4268    1.1406   -1.7574 C   0  0  0  0  0  0  0  0  0  0  0  0
    4.8904    0.1222   -0.9617 N   0  0  0  0  0  0  0  0  0  0  0  0
    6.1842    0.1416   -1.1743 C   0  0  0  0  0  0  0  0  0  0  0  0
    6.4826    1.1325   -2.0525 N   0  0  0  0  0  0  0  0  0  0  0  0
    5.3805    1.7912   -2.4363 N   0  0  0  0  0  0  0  0  0  0  0  0
    1.5971   -0.9031   -1.5870 C   0  0  0  0  0  0  0  0  0  0  0  0
    1.8986   -1.1136   -2.9055 O   0  0  0  0  0  0  0  0  0  0  0  0
    0.9529   -1.9072   -0.8614 C   0  0  0  0  0  0  0  0  0  0  0  0
    0.6160   -1.7075    0.4871 C   0  0  0  0  0  0  0  0  0  0  0  0
   -0.0708   -2.8136    1.2389 C   0  0  0  0  0  0  0  0  0  0  0  0
   -2.9209   -0.1495    2.2396 C   0  0  0  0  0  0  0  0  0  0  0  0
   -4.0193   -0.3930    1.4129 C   0  0  0  0  0  0  0  0  0  0  0  0
   -6.3470    0.1320   -2.2480 H   0  0  0  0  0  0  0  0  0  0  0  0
   -4.6002    0.1899   -2.5127 H   0  0  0  0  0  0  0  0  0  0  0  0
   -5.4633    1.5752   -1.7365 H   0  0  0  0  0  0  0  0  0  0  0  0
   -3.1308    1.5500   -1.2485 H   0  0  0  0  0  0  0  0  0  0  0  0
   -1.2107    1.9859    0.1966 H   0  0  0  0  0  0  0  0  0  0  0  0
    0.4846   -1.0271    3.0819 H   0  0  0  0  0  0  0  0  0  0  0  0
    1.8654    1.4518    0.8446 H   0  0  0  0  0  0  0  0  0  0  0  0
    6.9247   -0.5107   -0.7349 H   0  0  0  0  0  0  0  0  0  0  0  0
    7.3837    1.4139   -2.4219 H   0  0  0  0  0  0  0  0  0  0  0  0
    1.6940   -2.0321   -3.1409 H   0  0  0  0  0  0  0  0  0  0  0  0
    0.7034   -2.8494   -1.3421 H   0  0  0  0  0  0  0  0  0  0  0  0
   -0.2775   -3.6732    0.5924 H   0  0  0  0  0  0  0  0  0  0  0  0
    0.5636   -3.1629    2.0597 H   0  0  0  0  0  0  0  0  0  0  0  0
   -1.0288   -2.4702    1.6394 H   0  0  0  0  0  0  0  0  0  0  0  0
   -2.8736   -0.6128    3.2221 H   0  0  0  0  0  0  0  0  0  0  0  0
   -4.8169   -1.0488    1.7554 H   0  0  0  0  0  0  0  0  0  0  0  0
  1  2  1  0
  2  3  1  0
  3  4  2  0
  4  5  1  0
  5  6  2  0
  6  7  1  0
  7  8  2  0
  7  9  2  0
  7 10  1  0
 10 11  1  0
 11 12  2  0
 12 13  1  0
 13 14  1  0
 14 15  1  0
 15 16  1  0
 16 17  2  0
 17 18  1  0
 18 19  1  0
 13 20  2  0
 20 21  1  0
 20 22  1  0
 22 23  2  0
 23 24  1  0
  6 25  1  0
 25 26  2  0
 26  3  1  0
 23 11  1  0
 19 15  2  0
  1 27  1  0
  1 28  1  0
  1 29  1  0
  4 30  1  0
  5 31  1  0
 10 32  1  0
 12 33  1  0
 17 34  1  0
 18 35  1  0
 21 36  1  0
 22 37  1  0
 24 38  1  0
 24 39  1  0
 24 40  1  0
 25 41  1  0
 26 42  1  0
M  END
$$$$
