
     RDKit          3D

 48 50  0  0  0  0  0  0  0  0999 V2000
    8.4306   -2.6053   -0.4362 C   0  0  0  0  0  0  0  0  0  0  0  0
    7.4930   -1.6498    0.2052 C   0  0  0  0  0  0  0  0  0  0  0  0
    7.7161   -0.9291    1.3633 C   0  0  0  0  0  0  0  0  0  0  0  0
    6.3524    0.0464    1.7130 S   0  0  0  0  0  0  0  0  0  0  0  0
    5.5803   -0.5468    0.3192 C   0  0  0  0  0  0  0  0  0  0  0  0
    4.3309   -0.1500   -0.0806 N   0  0  0  0  0  0  0  0  0  0  0  0
    3.4752    0.7046    0.5792 C   0  0  0  0  0  0  0  0  0  0  0  0
    3.6561    1.2390    1.6675 O   0  0  0  0  0  0  0  0  0  0  0  0
    2.1943    0.9196   -0.2100 C   0  0  0  0  0  0  0  0  0  0  0  0
    1.2515    1.9110    0.4622 C   0  0  0  0  0  0  0  0  0  0  0  0
    0.6879    1.3167    1.6856 N   0  0  0  0  0  0  0  0  0  0  0  0
   -0.7523    1.9450    2.2820 S   0  0  0  0  0  6  0  0  0  0  0  0
   -0.8472    1.5368    3.6645 O   0  0  0  0  0  0  0  0  0  0  0  0
   -0.8519    3.3282    1.8783 O   0  0  0  0  0  0  0  0  0  0  0  0
   -1.9478    0.9978    1.3742 C   0  0  0  0  0  0  0  0  0  0  0  0
   -2.2317   -0.3109    1.7637 C   0  0  0  0  0  0  0  0  0  0  0  0
   -3.1989   -1.0465    1.0690 C   0  0  0  0  0  0  0  0  0  0  0  0
   -3.8967   -0.4834   -0.0143 C   0  0  0  0  0  0  0  0  0  0  0  0
   -3.5927    0.8272   -0.3853 C   0  0  0  0  0  0  0  0  0  0  0  0
   -2.6279    1.5766    0.3053 C   0  0  0  0  0  0  0  0  0  0  0  0
   -4.2998    1.4375   -1.5221 C   0  0  0  0  0  0  0  0  0  0  0  0
   -4.0012    2.5801   -1.8624 O   0  0  0  0  0  0  0  0  0  0  0  0
   -5.2654    0.6635   -2.1457 N   0  0  0  0  0  0  0  0  0  0  0  0
   -6.0069    1.2495   -3.2484 C   0  0  0  0  0  0  0  0  0  0  0  0
   -5.6047   -0.6357   -1.7854 C   0  0  0  0  0  0  0  0  0  0  0  0
   -6.4889   -1.2550   -2.3828 O   0  0  0  0  0  0  0  0  0  0  0  0
   -4.8978   -1.1985   -0.7253 N   0  0  0  0  0  0  0  0  0  0  0  0
   -5.2270   -2.5637   -0.3306 C   0  0  0  0  0  0  0  0  0  0  0  0
    6.2636   -1.4140   -0.3914 N   0  0  0  0  0  0  0  0  0  0  0  0
    8.8708   -3.2758    0.3066 H   0  0  0  0  0  0  0  0  0  0  0  0
    7.9131   -3.2179   -1.1801 H   0  0  0  0  0  0  0  0  0  0  0  0
    9.2376   -2.0640   -0.9389 H   0  0  0  0  0  0  0  0  0  0  0  0
    8.5879   -0.9280    2.0027 H   0  0  0  0  0  0  0  0  0  0  0  0
    4.0435   -0.5892   -0.9454 H   0  0  0  0  0  0  0  0  0  0  0  0
    1.6973   -0.0486   -0.3425 H   0  0  0  0  0  0  0  0  0  0  0  0
    2.4691    1.3054   -1.1988 H   0  0  0  0  0  0  0  0  0  0  0  0
    0.4466    2.1471   -0.2421 H   0  0  0  0  0  0  0  0  0  0  0  0
    1.7749    2.8383    0.7176 H   0  0  0  0  0  0  0  0  0  0  0  0
    1.3637    1.1510    2.4408 H   0  0  0  0  0  0  0  0  0  0  0  0
   -1.7119   -0.7604    2.6080 H   0  0  0  0  0  0  0  0  0  0  0  0
   -3.3926   -2.0611    1.4074 H   0  0  0  0  0  0  0  0  0  0  0  0
   -2.4195    2.6039    0.0098 H   0  0  0  0  0  0  0  0  0  0  0  0
   -5.5962    2.2113   -3.5641 H   0  0  0  0  0  0  0  0  0  0  0  0
   -7.0445    1.3939   -2.9300 H   0  0  0  0  0  0  0  0  0  0  0  0
   -5.9979    0.5649   -4.1035 H   0  0  0  0  0  0  0  0  0  0  0  0
   -6.0208   -2.9950   -0.9481 H   0  0  0  0  0  0  0  0  0  0  0  0
   -4.3399   -3.1972   -0.4410 H   0  0  0  0  0  0  0  0  0  0  0  0
   -5.5742   -2.5693    0.7078 H   0  0  0  0  0  0  0  0  0  0  0  0
  1  2  1  0
  2  3  2  0
  3  4  1  0
  4  5  1  0
  5  6  1  0
  6  7  1  0
  7  8  2  0
  7  9  1  0
  9 10  1  0
 10 11  1  0
 11 12  1  0
 12 13  2  0
 12 14  2  0
 12 15  1  0
 15 16  2  0
 16 17  1  0
 17 18  2  0
 18 19  1  0
 19 20  2  0
 19 21  1  0
 21 22  2  0
 21 23  1  0
 23 24  1  0
 23 25  1  0
 25 26  2  0
 25 27  1  0
 27 28  1  0
  5 29  2  0
 29  2  1  0
 20 15  1  0
 27 18  1  0
  1 30  1  0
  1 31  1  0
  1 32  1  0
  3 33  1  0
  6 34  1  0
  9 35  1  0
  9 36  1  0
 10 37  1  0
 10 38  1  0
 11 39  1  0
 16 40  1  0
 17 41  1  0
 20 42  1  0
 24 43  1  0
 24 44  1  0
 24 45  1  0
 28 46  1  0
 28 47  1  0
 28 48  1  0
M  END
$$$$
