
     RDKit          3D

 51 55  0  0  0  0  0  0  0  0999 V2000
    8.1958    2.3439    2.5160 F   0  0  0  0  0  0  0  0  0  0  0  0
    7.2147    1.7278    1.8441 C   0  0  0  0  0  0  0  0  0  0  0  0
    6.1480    2.4721    1.3550 C   0  0  0  0  0  0  0  0  0  0  0  0
    5.1248    1.8316    0.6551 C   0  0  0  0  0  0  0  0  0  0  0  0
    5.1729    0.4453    0.4428 C   0  0  0  0  0  0  0  0  0  0  0  0
    4.0559   -0.2544   -0.2973 C   0  0  0  0  0  0  0  0  0  0  0  0
    2.9079   -0.6461    0.6496 C   0  0  0  0  0  0  0  0  0  0  0  0
    1.8503   -1.4369   -0.0064 N   0  0  0  0  0  0  0  0  0  0  0  0
    1.1829   -0.6776   -1.0890 C   0  0  0  0  0  0  0  0  0  0  0  0
   -0.2360   -1.1850   -1.4330 C   0  0  0  0  0  0  0  0  0  0  0  0
   -1.1320   -1.1109   -0.2698 N   0  0  0  0  0  0  0  0  0  0  0  0
   -2.4174   -0.5881   -0.3681 C   0  0  0  0  0  0  0  0  0  0  0  0
   -2.8484    0.1699    0.6109 N   0  0  0  0  0  0  0  0  0  0  0  0
   -4.1226    0.7653    0.5568 C   0  0  0  0  0  0  0  0  0  0  0  0
   -4.5200    1.5776    1.6208 C   0  0  0  0  0  0  0  0  0  0  0  0
   -5.7693    2.2041    1.6129 C   0  0  0  0  0  0  0  0  0  0  0  0
   -6.6358    2.0233    0.5344 C   0  0  0  0  0  0  0  0  0  0  0  0
   -6.2598    1.2148   -0.5391 C   0  0  0  0  0  0  0  0  0  0  0  0
   -5.0064    0.5953   -0.5168 C   0  0  0  0  0  0  0  0  0  0  0  0
   -4.5543   -0.2457   -1.5459 N   0  0  0  0  0  0  0  0  0  0  0  0
   -5.1937   -0.6315   -2.7007 C   0  0  0  0  0  0  0  0  0  0  0  0
   -4.3840   -1.5285   -3.3618 C   0  0  0  0  0  0  0  0  0  0  0  0
   -3.2084   -1.6777   -2.5895 C   0  0  0  0  0  0  0  0  0  0  0  0
   -3.3136   -0.8450   -1.4882 C   0  0  0  0  0  0  0  0  0  0  0  0
   -0.4549   -1.1148    1.0383 C   0  0  0  0  0  0  0  0  0  0  0  0
    0.8562   -1.9249    0.9802 C   0  0  0  0  0  0  0  0  0  0  0  0
    6.2558   -0.2894    0.9496 C   0  0  0  0  0  0  0  0  0  0  0  0
    7.2776    0.3537    1.6487 C   0  0  0  0  0  0  0  0  0  0  0  0
    6.1202    3.5441    1.5216 H   0  0  0  0  0  0  0  0  0  0  0  0
    4.2908    2.4185    0.2762 H   0  0  0  0  0  0  0  0  0  0  0  0
    3.6988    0.4068   -1.0965 H   0  0  0  0  0  0  0  0  0  0  0  0
    4.4538   -1.1476   -0.7964 H   0  0  0  0  0  0  0  0  0  0  0  0
    3.3386   -1.2470    1.4618 H   0  0  0  0  0  0  0  0  0  0  0  0
    2.4826    0.2516    1.1178 H   0  0  0  0  0  0  0  0  0  0  0  0
    1.7994   -0.7347   -1.9935 H   0  0  0  0  0  0  0  0  0  0  0  0
    1.0999    0.3834   -0.8150 H   0  0  0  0  0  0  0  0  0  0  0  0
   -0.6146   -0.5707   -2.2579 H   0  0  0  0  0  0  0  0  0  0  0  0
   -0.1843   -2.2229   -1.7808 H   0  0  0  0  0  0  0  0  0  0  0  0
   -3.8457    1.7218    2.4607 H   0  0  0  0  0  0  0  0  0  0  0  0
   -6.0627    2.8337    2.4490 H   0  0  0  0  0  0  0  0  0  0  0  0
   -7.6064    2.5132    0.5322 H   0  0  0  0  0  0  0  0  0  0  0  0
   -6.9519    1.0872   -1.3645 H   0  0  0  0  0  0  0  0  0  0  0  0
   -6.1763   -0.2644   -2.9590 H   0  0  0  0  0  0  0  0  0  0  0  0
   -4.6211   -2.0303   -4.2915 H   0  0  0  0  0  0  0  0  0  0  0  0
   -2.3778   -2.3316   -2.8167 H   0  0  0  0  0  0  0  0  0  0  0  0
   -0.2416   -0.0863    1.3557 H   0  0  0  0  0  0  0  0  0  0  0  0
   -1.1115   -1.5706    1.7889 H   0  0  0  0  0  0  0  0  0  0  0  0
    0.6084   -2.9562    0.6963 H   0  0  0  0  0  0  0  0  0  0  0  0
    1.2887   -1.9937    1.9858 H   0  0  0  0  0  0  0  0  0  0  0  0
    6.3071   -1.3660    0.8022 H   0  0  0  0  0  0  0  0  0  0  0  0
    8.1193   -0.2068    2.0415 H   0  0  0  0  0  0  0  0  0  0  0  0
  1  2  1  0
  2  3  2  0
  3  4  1  0
  4  5  2  0
  5  6  1  0
  6  7  1  0
  7  8  1  0
  8  9  1  0
  9 10  1  0
 10 11  1  0
 11 12  1  0
 12 13  2  0
 13 14  1  0
 14 15  2  0
 15 16  1  0
 16 17  2  0
 17 18  1  0
 18 19  2  0
 19 20  1  0
 20 21  1  0
 21 22  2  0
 22 23  1  0
 23 24  2  0
 11 25  1  0
 25 26  1  0
  5 27  1  0
 27 28  2  0
 28  2  1  0
 26  8  1  0
 24 12  1  0
 19 14  1  0
 24 20  1  0
  3 29  1  0
  4 30  1  0
  6 31  1  0
  6 32  1  0
  7 33  1  0
  7 34  1  0
  9 35  1  0
  9 36  1  0
 10 37  1  0
 10 38  1  0
 15 39  1  0
 16 40  1  0
 17 41  1  0
 18 42  1  0
 21 43  1  0
 22 44  1  0
 23 45  1  0
 25 46  1  0
 25 47  1  0
 26 48  1  0
 26 49  1  0
 27 50  1  0
 28 51  1  0
M  END
$$$$
