
     RDKit          3D

 38 39  0  0  0  0  0  0  0  0999 V2000
   -3.6163   -1.6675    1.1842 C   0  0  0  0  0  0  0  0  0  0  0  0
   -2.9024   -0.4782    0.8399 O   0  0  0  0  0  0  0  0  0  0  0  0
   -3.6707    0.6357    0.6340 C   0  0  0  0  0  0  0  0  0  0  0  0
   -4.8525    0.8742    1.3510 C   0  0  0  0  0  0  0  0  0  0  0  0
   -5.6209    2.0159    1.1039 C   0  0  0  0  0  0  0  0  0  0  0  0
   -5.2136    2.9359    0.1427 C   0  0  0  0  0  0  0  0  0  0  0  0
   -4.0303    2.7200   -0.5606 C   0  0  0  0  0  0  0  0  0  0  0  0
   -3.2401    1.5828   -0.3097 C   0  0  0  0  0  0  0  0  0  0  0  0
   -1.9838    1.4548   -1.1077 C   0  0  0  0  0  0  0  0  0  0  0  0
   -1.9298    2.0071   -2.2083 O   0  0  0  0  0  0  0  0  0  0  0  0
   -0.8063    0.6894   -0.5213 C   0  0  0  0  0  0  0  0  0  0  0  0
    0.3934    1.0911   -1.1952 O   0  0  0  0  0  0  0  0  0  0  0  0
    1.5036    0.4380   -0.7740 C   0  0  0  0  0  0  0  0  0  0  0  0
    1.5412   -0.4090    0.0983 O   0  0  0  0  0  0  0  0  0  0  0  0
    2.6441    0.9646   -1.5594 C   0  0  0  0  0  0  0  0  0  0  0  0
    3.8927    0.4739   -1.5899 C   0  0  0  0  0  0  0  0  0  0  0  0
    4.3946   -0.7151   -0.8994 C   0  0  0  0  0  0  0  0  0  0  0  0
    5.3974   -0.5798    0.0690 C   0  0  0  0  0  0  0  0  0  0  0  0
    5.9176   -1.7068    0.7073 C   0  0  0  0  0  0  0  0  0  0  0  0
    5.4498   -2.9773    0.3730 C   0  0  0  0  0  0  0  0  0  0  0  0
    4.4623   -3.1210   -0.6002 C   0  0  0  0  0  0  0  0  0  0  0  0
    3.9374   -1.9944   -1.2371 C   0  0  0  0  0  0  0  0  0  0  0  0
   -4.5072   -1.8066    0.5559 H   0  0  0  0  0  0  0  0  0  0  0  0
   -3.8763   -1.6660    2.2474 H   0  0  0  0  0  0  0  0  0  0  0  0
   -2.9508   -2.5161    1.0080 H   0  0  0  0  0  0  0  0  0  0  0  0
   -5.1961    0.1870    2.1198 H   0  0  0  0  0  0  0  0  0  0  0  0
   -6.5393    2.1816    1.6606 H   0  0  0  0  0  0  0  0  0  0  0  0
   -5.8156    3.8185   -0.0605 H   0  0  0  0  0  0  0  0  0  0  0  0
   -3.7132    3.4501   -1.3049 H   0  0  0  0  0  0  0  0  0  0  0  0
   -0.7079    0.9286    0.5420 H   0  0  0  0  0  0  0  0  0  0  0  0
   -0.9638   -0.3804   -0.6960 H   0  0  0  0  0  0  0  0  0  0  0  0
    2.4180    1.8462   -2.1507 H   0  0  0  0  0  0  0  0  0  0  0  0
    4.6397    0.9951   -2.1866 H   0  0  0  0  0  0  0  0  0  0  0  0
    5.7637    0.4052    0.3500 H   0  0  0  0  0  0  0  0  0  0  0  0
    6.6830   -1.5920    1.4709 H   0  0  0  0  0  0  0  0  0  0  0  0
    5.8499   -3.8536    0.8746 H   0  0  0  0  0  0  0  0  0  0  0  0
    4.0897   -4.1093   -0.8556 H   0  0  0  0  0  0  0  0  0  0  0  0
    3.1587   -2.1226   -1.9866 H   0  0  0  0  0  0  0  0  0  0  0  0
  1  2  1  0
  2  3  1  0
  3  4  2  0
  4  5  1  0
  5  6  2  0
  6  7  1  0
  7  8  2  0
  8  9  1  0
  9 10  2  0
  9 11  1  0
 11 12  1  0
 12 13  1  0
 13 14  2  0
 13 15  1  0
 15 16  2  3
 16 17  1  0
 17 18  2  0
 18 19  1  0
 19 20  2  0
 20 21  1  0
 21 22  2  0
  8  3  1  0
 22 17  1  0
  1 23  1  0
  1 24  1  0
  1 25  1  0
  4 26  1  0
  5 27  1  0
  6 28  1  0
  7 29  1  0
 11 30  1  0
 11 31  1  0
 15 32  1  0
 16 33  1  0
 18 34  1  0
 19 35  1  0
 20 36  1  0
 21 37  1  0
 22 38  1  0
M  END
$$$$
