
     RDKit          3D

 30 31  0  0  0  0  0  0  0  0999 V2000
   -2.7305   -1.5614    0.8620 C   0  0  0  0  0  0  0  0  0  0  0  0
   -3.3075   -0.2348    0.3589 C   0  0  0  0  0  0  0  0  0  0  0  0
   -4.8290   -0.3556    0.2561 C   0  0  0  0  0  0  0  0  0  0  0  0
   -2.8420    0.0520   -0.9681 O   0  0  0  0  0  0  0  0  0  0  0  0
   -1.6317    0.6066   -1.1207 C   0  0  0  0  0  0  0  0  0  0  0  0
   -1.1006    0.8315   -2.1957 O   0  0  0  0  0  0  0  0  0  0  0  0
   -0.9647    0.9522    0.1818 C   0  0  0  0  0  0  0  0  0  0  0  0
    0.3051    0.7918    0.4269 N   0  0  0  0  0  0  0  0  0  0  0  0
    1.0796    0.3123   -0.5891 N   0  0  0  0  0  0  0  0  0  0  0  0
    2.4753    0.2316   -0.3787 C   0  0  0  0  0  0  0  0  0  0  0  0
    3.0495    0.3149    0.8963 C   0  0  0  0  0  0  0  0  0  0  0  0
    4.4276    0.1640    1.0760 C   0  0  0  0  0  0  0  0  0  0  0  0
    5.2491   -0.0963   -0.0179 C   0  0  0  0  0  0  0  0  0  0  0  0
    4.6918   -0.2141   -1.2886 C   0  0  0  0  0  0  0  0  0  0  0  0
    3.3133   -0.0616   -1.4644 C   0  0  0  0  0  0  0  0  0  0  0  0
   -1.8656    1.4391    1.2832 C   0  0  0  0  0  0  0  0  0  0  0  0
   -1.5446    2.3291    2.0487 O   0  0  0  0  0  0  0  0  0  0  0  0
   -3.0559    0.8186    1.2998 O   0  0  0  0  0  0  0  0  0  0  0  0
   -3.1207   -1.8092    1.8550 H   0  0  0  0  0  0  0  0  0  0  0  0
   -2.9607   -2.3787    0.1701 H   0  0  0  0  0  0  0  0  0  0  0  0
   -1.6404   -1.5222    0.9523 H   0  0  0  0  0  0  0  0  0  0  0  0
   -5.2811   -0.5671    1.2311 H   0  0  0  0  0  0  0  0  0  0  0  0
   -5.2624    0.5854   -0.1031 H   0  0  0  0  0  0  0  0  0  0  0  0
   -5.1220   -1.1369   -0.4535 H   0  0  0  0  0  0  0  0  0  0  0  0
    0.8470    0.5749   -1.5557 H   0  0  0  0  0  0  0  0  0  0  0  0
    2.4230    0.5067    1.7638 H   0  0  0  0  0  0  0  0  0  0  0  0
    4.8539    0.2464    2.0720 H   0  0  0  0  0  0  0  0  0  0  0  0
    6.3201   -0.2150    0.1216 H   0  0  0  0  0  0  0  0  0  0  0  0
    5.3271   -0.4301   -2.1433 H   0  0  0  0  0  0  0  0  0  0  0  0
    2.8970   -0.1740   -2.4622 H   0  0  0  0  0  0  0  0  0  0  0  0
  1  2  1  0
  2  3  1  0
  2  4  1  0
  4  5  1  0
  5  6  2  0
  5  7  1  0
  7  8  2  3
  8  9  1  0
  9 10  1  0
 10 11  2  0
 11 12  1  0
 12 13  2  0
 13 14  1  0
 14 15  2  0
  7 16  1  0
 16 17  2  0
 16 18  1  0
 18  2  1  0
 15 10  1  0
  1 19  1  0
  1 20  1  0
  1 21  1  0
  3 22  1  0
  3 23  1  0
  3 24  1  0
  9 25  1  0
 11 26  1  0
 12 27  1  0
 13 28  1  0
 14 29  1  0
 15 30  1  0
M  END
$$$$
