
     RDKit          3D

 57 60  0  0  0  0  0  0  0  0999 V2000
   -8.6054    0.2533    2.7565 C   0  0  0  0  0  0  0  0  0  0  0  0
   -7.3442    1.0223    3.1196 C   0  0  0  0  0  0  0  0  0  0  0  0
   -6.2246    0.7561    2.1463 C   0  0  0  0  0  0  0  0  0  0  0  0
   -6.0292    1.5873    1.0401 C   0  0  0  0  0  0  0  0  0  0  0  0
   -5.0005    1.3257    0.1286 C   0  0  0  0  0  0  0  0  0  0  0  0
   -4.1363    0.2294    0.2905 C   0  0  0  0  0  0  0  0  0  0  0  0
   -3.0512   -0.0245   -0.6769 C   0  0  0  0  0  0  0  0  0  0  0  0
   -1.8248   -0.5472   -0.3073 C   0  0  0  0  0  0  0  0  0  0  0  0
   -0.8586   -0.7402   -1.2950 C   0  0  0  0  0  0  0  0  0  0  0  0
    0.4607   -1.2221   -0.8259 C   0  0  0  0  0  0  0  0  0  0  0  0
    0.5024   -2.2762   -0.2043 O   0  0  0  0  0  0  0  0  0  0  0  0
    1.5042   -0.3607   -1.1069 N   0  0  0  0  0  0  0  0  0  0  0  0
    2.8604   -0.5180   -0.7572 C   0  0  0  0  0  0  0  0  0  0  0  0
    3.7376    0.5135   -1.1230 C   0  0  0  0  0  0  0  0  0  0  0  0
    5.0972    0.4405   -0.8088 C   0  0  0  0  0  0  0  0  0  0  0  0
    5.5812   -0.6671   -0.1097 C   0  0  0  0  0  0  0  0  0  0  0  0
    7.3148   -0.7573    0.2977 S   0  0  0  0  0  6  0  0  0  0  0  0
    8.0202   -0.0561   -0.7509 O   0  0  0  0  0  0  0  0  0  0  0  0
    7.5945   -2.1314    0.6497 O   0  0  0  0  0  0  0  0  0  0  0  0
    7.3364    0.1619    1.6889 N   0  0  0  0  0  0  0  0  0  0  0  0
    8.5083    0.3954    2.4226 C   0  0  0  0  0  0  0  0  0  0  0  0
    8.2882    1.1915    3.6794 C   0  0  0  0  0  0  0  0  0  0  0  0
    9.6130   -0.0026    2.0860 O   0  0  0  0  0  0  0  0  0  0  0  0
    4.7246   -1.7087    0.2478 C   0  0  0  0  0  0  0  0  0  0  0  0
    3.3662   -1.6304   -0.0778 C   0  0  0  0  0  0  0  0  0  0  0  0
   -1.1316   -0.4648   -2.6513 C   0  0  0  0  0  0  0  0  0  0  0  0
   -0.2436   -0.7123   -3.7300 C   0  0  0  0  0  0  0  0  0  0  0  0
   -0.5990   -0.3944   -5.0393 C   0  0  0  0  0  0  0  0  0  0  0  0
   -1.8425    0.1666   -5.2908 C   0  0  0  0  0  0  0  0  0  0  0  0
   -2.7261    0.3934   -4.2329 C   0  0  0  0  0  0  0  0  0  0  0  0
   -2.3997    0.0799   -2.9210 C   0  0  0  0  0  0  0  0  0  0  0  0
   -3.3149    0.3097   -1.9645 N   0  0  0  0  0  0  0  0  0  0  0  0
   -4.3558   -0.6056    1.4004 C   0  0  0  0  0  0  0  0  0  0  0  0
   -5.3836   -0.3475    2.3148 C   0  0  0  0  0  0  0  0  0  0  0  0
   -8.4250   -0.8268    2.7504 H   0  0  0  0  0  0  0  0  0  0  0  0
   -9.3979    0.4584    3.4834 H   0  0  0  0  0  0  0  0  0  0  0  0
   -8.9725    0.5390    1.7650 H   0  0  0  0  0  0  0  0  0  0  0  0
   -7.0209    0.7502    4.1320 H   0  0  0  0  0  0  0  0  0  0  0  0
   -7.5633    2.0964    3.1490 H   0  0  0  0  0  0  0  0  0  0  0  0
   -6.6769    2.4457    0.8756 H   0  0  0  0  0  0  0  0  0  0  0  0
   -4.8746    1.9920   -0.7240 H   0  0  0  0  0  0  0  0  0  0  0  0
   -1.5990   -0.7825    0.7286 H   0  0  0  0  0  0  0  0  0  0  0  0
    1.2656    0.4976   -1.5918 H   0  0  0  0  0  0  0  0  0  0  0  0
    3.3767    1.3848   -1.6653 H   0  0  0  0  0  0  0  0  0  0  0  0
    5.7658    1.2441   -1.1120 H   0  0  0  0  0  0  0  0  0  0  0  0
    6.4406    0.4892    2.0296 H   0  0  0  0  0  0  0  0  0  0  0  0
    7.9008    2.1821    3.4264 H   0  0  0  0  0  0  0  0  0  0  0  0
    9.2359    1.3074    4.2155 H   0  0  0  0  0  0  0  0  0  0  0  0
    7.5758    0.6720    4.3269 H   0  0  0  0  0  0  0  0  0  0  0  0
    5.0982   -2.5889    0.7687 H   0  0  0  0  0  0  0  0  0  0  0  0
    2.7327   -2.4665    0.2024 H   0  0  0  0  0  0  0  0  0  0  0  0
    0.7253   -1.1798   -3.5619 H   0  0  0  0  0  0  0  0  0  0  0  0
    0.0870   -0.5964   -5.8593 H   0  0  0  0  0  0  0  0  0  0  0  0
   -2.1377    0.4155   -6.3072 H   0  0  0  0  0  0  0  0  0  0  0  0
   -3.7059    0.8185   -4.4414 H   0  0  0  0  0  0  0  0  0  0  0  0
   -3.7413   -1.4892    1.5590 H   0  0  0  0  0  0  0  0  0  0  0  0
   -5.5273   -1.0220    3.1560 H   0  0  0  0  0  0  0  0  0  0  0  0
  1  2  1  0
  2  3  1  0
  3  4  2  0
  4  5  1  0
  5  6  2  0
  6  7  1  0
  7  8  2  0
  8  9  1  0
  9 10  1  0
 10 11  2  0
 10 12  1  0
 12 13  1  0
 13 14  2  0
 14 15  1  0
 15 16  2  0
 16 17  1  0
 17 18  2  0
 17 19  2  0
 17 20  1  0
 20 21  1  0
 21 22  1  0
 21 23  2  0
 16 24  1  0
 24 25  2  0
  9 26  2  0
 26 27  1  0
 27 28  2  0
 28 29  1  0
 29 30  2  0
 30 31  1  0
 31 32  2  0
  6 33  1  0
 33 34  2  0
 34  3  1  0
 32  7  1  0
 25 13  1  0
 31 26  1  0
  1 35  1  0
  1 36  1  0
  1 37  1  0
  2 38  1  0
  2 39  1  0
  4 40  1  0
  5 41  1  0
  8 42  1  0
 12 43  1  0
 14 44  1  0
 15 45  1  0
 20 46  1  0
 22 47  1  0
 22 48  1  0
 22 49  1  0
 24 50  1  0
 25 51  1  0
 27 52  1  0
 28 53  1  0
 29 54  1  0
 30 55  1  0
 33 56  1  0
 34 57  1  0
M  END
$$$$
