
     RDKit          3D

 56 59  0  0  0  0  0  0  0  0999 V2000
    9.6960   -0.7622    2.3222 C   0  0  0  0  0  0  0  0  0  0  0  0
    8.7731    0.3126    2.4481 O   0  0  0  0  0  0  0  0  0  0  0  0
    7.4512    0.0202    2.2554 C   0  0  0  0  0  0  0  0  0  0  0  0
    6.9292   -1.2274    1.9049 C   0  0  0  0  0  0  0  0  0  0  0  0
    5.5504   -1.3894    1.7365 C   0  0  0  0  0  0  0  0  0  0  0  0
    4.6974   -0.2967    1.9147 C   0  0  0  0  0  0  0  0  0  0  0  0
    2.9514   -0.5229    1.6983 S   0  0  0  0  0  6  0  0  0  0  0  0
    2.5849   -1.7552    2.3598 O   0  0  0  0  0  0  0  0  0  0  0  0
    2.2825    0.7245    2.0000 O   0  0  0  0  0  0  0  0  0  0  0  0
    2.8214   -0.7669    0.0483 N   0  0  0  0  0  0  0  0  0  0  0  0
    3.2384    0.3005   -0.8732 C   0  0  0  0  0  0  0  0  0  0  0  0
    2.1350    0.3486   -1.9087 C   0  0  0  0  0  0  0  0  0  0  0  0
    1.5343   -0.9490   -1.8619 O   0  0  0  0  0  0  0  0  0  0  0  0
    1.5749   -1.3513   -0.4734 C   0  0  0  0  0  0  0  0  0  0  0  0
    0.2662   -0.8927    0.2127 C   0  0  0  0  0  0  0  0  0  0  0  0
   -0.9125   -1.3513   -0.5054 N   0  0  0  0  0  0  0  0  0  0  0  0
   -2.1683   -1.2969    0.0507 C   0  0  0  0  0  0  0  0  0  0  0  0
   -2.4322   -1.0393    1.2163 O   0  0  0  0  0  0  0  0  0  0  0  0
   -3.3073   -1.5799   -0.9554 C   0  0  0  0  0  0  0  0  0  0  0  0
   -3.0532   -1.7417   -2.1409 O   0  0  0  0  0  0  0  0  0  0  0  0
   -4.5530   -1.6041   -0.3756 N   0  0  0  0  0  0  0  0  0  0  0  0
   -5.7627   -1.6736   -1.1514 C   0  0  0  0  0  0  0  0  0  0  0  0
   -6.3035   -0.2943   -1.4279 C   0  0  0  0  0  0  0  0  0  0  0  0
   -5.8669    0.4230   -2.5668 C   0  0  0  0  0  0  0  0  0  0  0  0
   -6.3362    1.7138   -2.8298 C   0  0  0  0  0  0  0  0  0  0  0  0
   -7.2302    2.2635   -1.9379 C   0  0  0  0  0  0  0  0  0  0  0  0
   -7.6536    1.5793   -0.8232 C   0  0  0  0  0  0  0  0  0  0  0  0
   -7.2094    0.3052   -0.5374 C   0  0  0  0  0  0  0  0  0  0  0  0
   -8.5294    2.3002   -0.0730 O   0  0  0  0  0  0  0  0  0  0  0  0
   -8.6072    3.5176   -0.8438 C   0  0  0  0  0  0  0  0  0  0  0  0
   -7.7868    3.5007   -2.0302 O   0  0  0  0  0  0  0  0  0  0  0  0
    5.2059    0.9516    2.2739 C   0  0  0  0  0  0  0  0  0  0  0  0
    6.5839    1.1034    2.4384 C   0  0  0  0  0  0  0  0  0  0  0  0
    9.6954   -1.1645    1.3038 H   0  0  0  0  0  0  0  0  0  0  0  0
    9.4921   -1.5467    3.0584 H   0  0  0  0  0  0  0  0  0  0  0  0
   10.6969   -0.3685    2.5239 H   0  0  0  0  0  0  0  0  0  0  0  0
    7.5662   -2.0938    1.7587 H   0  0  0  0  0  0  0  0  0  0  0  0
    5.1481   -2.3649    1.4699 H   0  0  0  0  0  0  0  0  0  0  0  0
    4.1859    0.0015   -1.3342 H   0  0  0  0  0  0  0  0  0  0  0  0
    3.3775    1.2758   -0.4003 H   0  0  0  0  0  0  0  0  0  0  0  0
    1.3773    1.0989   -1.6581 H   0  0  0  0  0  0  0  0  0  0  0  0
    2.5086    0.5535   -2.9155 H   0  0  0  0  0  0  0  0  0  0  0  0
    1.6421   -2.4443   -0.4599 H   0  0  0  0  0  0  0  0  0  0  0  0
    0.1984    0.2007    0.2402 H   0  0  0  0  0  0  0  0  0  0  0  0
    0.2034   -1.2556    1.2432 H   0  0  0  0  0  0  0  0  0  0  0  0
   -0.8747   -1.4066   -1.5226 H   0  0  0  0  0  0  0  0  0  0  0  0
   -4.5962   -1.3231    0.6002 H   0  0  0  0  0  0  0  0  0  0  0  0
   -5.5810   -2.2073   -2.0913 H   0  0  0  0  0  0  0  0  0  0  0  0
   -6.4899   -2.2602   -0.5793 H   0  0  0  0  0  0  0  0  0  0  0  0
   -5.1496   -0.0308   -3.2502 H   0  0  0  0  0  0  0  0  0  0  0  0
   -6.0053    2.2648   -3.7030 H   0  0  0  0  0  0  0  0  0  0  0  0
   -7.5564   -0.2075    0.3532 H   0  0  0  0  0  0  0  0  0  0  0  0
   -9.6500    3.6777   -1.1411 H   0  0  0  0  0  0  0  0  0  0  0  0
   -8.2902    4.3541   -0.2103 H   0  0  0  0  0  0  0  0  0  0  0  0
    4.5482    1.8031    2.4311 H   0  0  0  0  0  0  0  0  0  0  0  0
    6.9893    2.0733    2.7190 H   0  0  0  0  0  0  0  0  0  0  0  0
  1  2  1  0
  2  3  1  0
  3  4  2  0
  4  5  1  0
  5  6  2  0
  6  7  1  0
  7  8  2  0
  7  9  2  0
  7 10  1  0
 10 11  1  0
 11 12  1  0
 12 13  1  0
 13 14  1  0
 14 15  1  0
 15 16  1  0
 16 17  1  0
 17 18  2  0
 17 19  1  0
 19 20  2  0
 19 21  1  0
 21 22  1  0
 22 23  1  0
 23 24  2  0
 24 25  1  0
 25 26  2  0
 26 27  1  0
 27 28  2  0
 27 29  1  0
 29 30  1  0
 30 31  1  0
  6 32  1  0
 32 33  2  0
 33  3  1  0
 14 10  1  0
 28 23  1  0
 31 26  1  0
  1 34  1  0
  1 35  1  0
  1 36  1  0
  4 37  1  0
  5 38  1  0
 11 39  1  0
 11 40  1  0
 12 41  1  0
 12 42  1  0
 14 43  1  0
 15 44  1  0
 15 45  1  0
 16 46  1  0
 21 47  1  0
 22 48  1  0
 22 49  1  0
 24 50  1  0
 25 51  1  0
 28 52  1  0
 30 53  1  0
 30 54  1  0
 32 55  1  0
 33 56  1  0
M  END
$$$$
