
     RDKit          3D

 39 39  0  0  0  0  0  0  0  0999 V2000
   -3.0843   -3.4037   -0.0797 C   0  0  0  0  0  0  0  0  0  0  0  0
   -3.3071   -2.1083    0.6773 C   0  0  0  0  0  0  0  0  0  0  0  0
   -2.2609   -1.1744    0.3731 O   0  0  0  0  0  0  0  0  0  0  0  0
   -1.1412   -1.2451    1.1511 C   0  0  0  0  0  0  0  0  0  0  0  0
   -0.9683   -2.0913    2.0261 O   0  0  0  0  0  0  0  0  0  0  0  0
   -0.0650   -0.1852    0.7682 C   0  0  0  0  0  0  0  0  0  0  0  0
   -0.3976    0.5214   -0.4643 N   0  0  0  0  0  0  0  0  0  0  0  0
   -1.3390    1.5103   -0.5270 C   0  0  0  0  0  0  0  0  0  0  0  0
   -1.9307    1.9174    0.4628 O   0  0  0  0  0  0  0  0  0  0  0  0
   -1.5602    2.0359   -1.9300 C   0  0  0  0  0  0  0  0  0  0  0  0
   -2.6040    3.1369   -1.9756 C   0  0  0  0  0  0  0  0  0  0  0  0
    1.1548   -0.9695    0.3681 N   0  0  0  0  0  0  0  0  0  0  0  0
    2.4236   -0.4019    0.2127 C   0  0  0  0  0  0  0  0  0  0  0  0
    2.6645    0.9393   -0.0995 C   0  0  0  0  0  0  0  0  0  0  0  0
    3.9643    1.4138   -0.3168 C   0  0  0  0  0  0  0  0  0  0  0  0
    5.0483    0.5449   -0.2585 C   0  0  0  0  0  0  0  0  0  0  0  0
    4.8306   -0.8015    0.0053 C   0  0  0  0  0  0  0  0  0  0  0  0
    3.5306   -1.2674    0.2237 C   0  0  0  0  0  0  0  0  0  0  0  0
    0.0815    0.6384    2.0963 C   0  0  0  0  0  0  0  0  0  0  0  0
   -1.0935    0.8612    2.7307 F   0  0  0  0  0  0  0  0  0  0  0  0
    0.6594    1.8498    1.8896 F   0  0  0  0  0  0  0  0  0  0  0  0
    0.8767   -0.0136    2.9891 F   0  0  0  0  0  0  0  0  0  0  0  0
   -2.1465   -3.8799    0.2234 H   0  0  0  0  0  0  0  0  0  0  0  0
   -3.0108   -3.2124   -1.1553 H   0  0  0  0  0  0  0  0  0  0  0  0
   -3.9053   -4.1037    0.0990 H   0  0  0  0  0  0  0  0  0  0  0  0
   -4.2480   -1.6503    0.3552 H   0  0  0  0  0  0  0  0  0  0  0  0
   -3.3860   -2.2815    1.7566 H   0  0  0  0  0  0  0  0  0  0  0  0
   -0.0125    0.1125   -1.3025 H   0  0  0  0  0  0  0  0  0  0  0  0
   -0.6069    2.4179   -2.3121 H   0  0  0  0  0  0  0  0  0  0  0  0
   -1.8785    1.2030   -2.5667 H   0  0  0  0  0  0  0  0  0  0  0  0
   -3.5709    2.7773   -1.6085 H   0  0  0  0  0  0  0  0  0  0  0  0
   -2.7384    3.4927   -3.0017 H   0  0  0  0  0  0  0  0  0  0  0  0
   -2.3052    3.9878   -1.3545 H   0  0  0  0  0  0  0  0  0  0  0  0
    1.2273   -1.7907    0.9785 H   0  0  0  0  0  0  0  0  0  0  0  0
    1.8603    1.6635   -0.1774 H   0  0  0  0  0  0  0  0  0  0  0  0
    4.1244    2.4666   -0.5366 H   0  0  0  0  0  0  0  0  0  0  0  0
    6.0559    0.9143   -0.4282 H   0  0  0  0  0  0  0  0  0  0  0  0
    5.6677   -1.4938    0.0362 H   0  0  0  0  0  0  0  0  0  0  0  0
    3.3907   -2.3308    0.4074 H   0  0  0  0  0  0  0  0  0  0  0  0
  1  2  1  0
  2  3  1  0
  3  4  1  0
  4  5  2  0
  4  6  1  0
  6  7  1  0
  7  8  1  0
  8  9  2  0
  8 10  1  0
 10 11  1  0
  6 12  1  0
 12 13  1  0
 13 14  2  0
 14 15  1  0
 15 16  2  0
 16 17  1  0
 17 18  2  0
  6 19  1  0
 19 20  1  0
 19 21  1  0
 19 22  1  0
 18 13  1  0
  1 23  1  0
  1 24  1  0
  1 25  1  0
  2 26  1  0
  2 27  1  0
  7 28  1  0
 10 29  1  0
 10 30  1  0
 11 31  1  0
 11 32  1  0
 11 33  1  0
 12 34  1  0
 14 35  1  0
 15 36  1  0
 16 37  1  0
 17 38  1  0
 18 39  1  0
M  END
$$$$
