
     RDKit          3D

 61 66  0  0  0  0  0  0  0  0999 V2000
   -9.3720    0.4572    1.2345 F   0  0  0  0  0  0  0  0  0  0  0  0
   -8.5644   -0.0978    0.3210 C   0  0  0  0  0  0  0  0  0  0  0  0
   -9.1039   -0.9306   -0.6519 C   0  0  0  0  0  0  0  0  0  0  0  0
   -8.2640   -1.5072   -1.6022 C   0  0  0  0  0  0  0  0  0  0  0  0
   -6.8915   -1.2443   -1.5720 C   0  0  0  0  0  0  0  0  0  0  0  0
   -6.3465   -0.4000   -0.5919 C   0  0  0  0  0  0  0  0  0  0  0  0
   -4.8606   -0.1293   -0.5527 C   0  0  0  0  0  0  0  0  0  0  0  0
   -4.0929   -1.2666    0.1457 C   0  0  0  0  0  0  0  0  0  0  0  0
   -2.6534   -1.0625    0.3244 N   0  0  0  0  0  0  0  0  0  0  0  0
   -1.8986   -0.8515   -0.9157 C   0  0  0  0  0  0  0  0  0  0  0  0
   -0.3707   -0.7807   -0.6723 C   0  0  0  0  0  0  0  0  0  0  0  0
   -0.0010    0.1332    0.4460 N   0  0  0  0  0  0  0  0  0  0  0  0
    1.1904    0.7954    0.3009 C   0  0  0  0  0  0  0  0  0  0  0  0
    1.4077    2.0971   -0.1091 C   0  0  0  0  0  0  0  0  0  0  0  0
    2.7956    2.2726   -0.2912 C   0  0  0  0  0  0  0  0  0  0  0  0
    3.4183    1.0968    0.0775 C   0  0  0  0  0  0  0  0  0  0  0  0
    4.8073    0.6898    0.0642 C   0  0  0  0  0  0  0  0  0  0  0  0
    5.8655    1.6133   -0.4159 C   0  0  0  0  0  0  0  0  0  0  0  0
    6.7723    1.1581   -1.3796 C   0  0  0  0  0  0  0  0  0  0  0  0
    7.7882    2.0014   -1.8315 C   0  0  0  0  0  0  0  0  0  0  0  0
    7.9068    3.2908   -1.3113 C   0  0  0  0  0  0  0  0  0  0  0  0
    7.0170    3.7377   -0.3329 C   0  0  0  0  0  0  0  0  0  0  0  0
    5.9987    2.8981    0.1216 C   0  0  0  0  0  0  0  0  0  0  0  0
    5.1589   -0.4997    0.4516 N   0  0  0  0  0  0  0  0  0  0  0  0
    4.1806   -1.3700    0.9708 C   0  0  0  0  0  0  0  0  0  0  0  0
    4.6110   -2.6036    1.4684 C   0  0  0  0  0  0  0  0  0  0  0  0
    3.7074   -3.4965    2.0457 C   0  0  0  0  0  0  0  0  0  0  0  0
    2.3614   -3.1537    2.1428 C   0  0  0  0  0  0  0  0  0  0  0  0
    1.9123   -1.9269    1.6496 C   0  0  0  0  0  0  0  0  0  0  0  0
    2.8143   -1.0482    1.0426 C   0  0  0  0  0  0  0  0  0  0  0  0
    2.4411    0.2099    0.5064 N   0  0  0  0  0  0  0  0  0  0  0  0
   -1.1385    0.8773    1.0158 C   0  0  0  0  0  0  0  0  0  0  0  0
   -2.3042   -0.0804    1.3679 C   0  0  0  0  0  0  0  0  0  0  0  0
   -7.1993    0.1699    0.3623 C   0  0  0  0  0  0  0  0  0  0  0  0
  -10.1714   -1.1243   -0.6619 H   0  0  0  0  0  0  0  0  0  0  0  0
   -8.6757   -2.1617   -2.3666 H   0  0  0  0  0  0  0  0  0  0  0  0
   -6.2478   -1.7036   -2.3201 H   0  0  0  0  0  0  0  0  0  0  0  0
   -4.6818    0.8279   -0.0482 H   0  0  0  0  0  0  0  0  0  0  0  0
   -4.5063    0.0015   -1.5827 H   0  0  0  0  0  0  0  0  0  0  0  0
   -4.2357   -2.1948   -0.4236 H   0  0  0  0  0  0  0  0  0  0  0  0
   -4.5430   -1.4689    1.1273 H   0  0  0  0  0  0  0  0  0  0  0  0
   -2.2156    0.0767   -1.4078 H   0  0  0  0  0  0  0  0  0  0  0  0
   -2.0947   -1.6706   -1.6179 H   0  0  0  0  0  0  0  0  0  0  0  0
    0.1099   -0.4651   -1.6079 H   0  0  0  0  0  0  0  0  0  0  0  0
   -0.0034   -1.7873   -0.4421 H   0  0  0  0  0  0  0  0  0  0  0  0
    0.6378    2.8207   -0.3386 H   0  0  0  0  0  0  0  0  0  0  0  0
    3.2767    3.1621   -0.6753 H   0  0  0  0  0  0  0  0  0  0  0  0
    6.6881    0.1487   -1.7751 H   0  0  0  0  0  0  0  0  0  0  0  0
    8.4914    1.6503   -2.5828 H   0  0  0  0  0  0  0  0  0  0  0  0
    8.7023    3.9450   -1.6605 H   0  0  0  0  0  0  0  0  0  0  0  0
    7.1243    4.7363    0.0830 H   0  0  0  0  0  0  0  0  0  0  0  0
    5.3296    3.2433    0.9052 H   0  0  0  0  0  0  0  0  0  0  0  0
    5.6655   -2.8598    1.4139 H   0  0  0  0  0  0  0  0  0  0  0  0
    4.0582   -4.4494    2.4324 H   0  0  0  0  0  0  0  0  0  0  0  0
    1.6577   -3.8373    2.6107 H   0  0  0  0  0  0  0  0  0  0  0  0
    0.8646   -1.6779    1.7742 H   0  0  0  0  0  0  0  0  0  0  0  0
   -0.8280    1.3981    1.9302 H   0  0  0  0  0  0  0  0  0  0  0  0
   -1.4905    1.6357    0.3042 H   0  0  0  0  0  0  0  0  0  0  0  0
   -3.1653    0.5344    1.6552 H   0  0  0  0  0  0  0  0  0  0  0  0
   -2.0235   -0.6523    2.2608 H   0  0  0  0  0  0  0  0  0  0  0  0
   -6.8164    0.8229    1.1407 H   0  0  0  0  0  0  0  0  0  0  0  0
  1  2  1  0
  2  3  2  0
  3  4  1  0
  4  5  2  0
  5  6  1  0
  6  7  1  0
  7  8  1  0
  8  9  1  0
  9 10  1  0
 10 11  1  0
 11 12  1  0
 12 13  1  0
 13 14  2  0
 14 15  1  0
 15 16  2  0
 16 17  1  0
 17 18  1  0
 18 19  2  0
 19 20  1  0
 20 21  2  0
 21 22  1  0
 22 23  2  0
 17 24  2  0
 24 25  1  0
 25 26  2  0
 26 27  1  0
 27 28  2  0
 28 29  1  0
 29 30  2  0
 30 31  1  0
 12 32  1  0
 32 33  1  0
  6 34  2  0
 34  2  1  0
 33  9  1  0
 31 13  1  0
 31 16  1  0
 23 18  1  0
 30 25  1  0
  3 35  1  0
  4 36  1  0
  5 37  1  0
  7 38  1  0
  7 39  1  0
  8 40  1  0
  8 41  1  0
 10 42  1  0
 10 43  1  0
 11 44  1  0
 11 45  1  0
 14 46  1  0
 15 47  1  0
 19 48  1  0
 20 49  1  0
 21 50  1  0
 22 51  1  0
 23 52  1  0
 26 53  1  0
 27 54  1  0
 28 55  1  0
 29 56  1  0
 32 57  1  0
 32 58  1  0
 33 59  1  0
 33 60  1  0
 34 61  1  0
M  END
$$$$
