
     RDKit          3D

 47 50  0  0  0  0  0  0  0  0999 V2000
   -8.3257   -2.7648    1.7044 C   0  0  0  0  0  0  0  0  0  0  0  0
   -7.5318   -1.8905    0.9000 O   0  0  0  0  0  0  0  0  0  0  0  0
   -6.3321   -1.5767    1.4496 C   0  0  0  0  0  0  0  0  0  0  0  0
   -5.9114   -1.9796    2.5218 O   0  0  0  0  0  0  0  0  0  0  0  0
   -5.5722   -0.6534    0.5612 C   0  0  0  0  0  0  0  0  0  0  0  0
   -6.0864   -0.1971   -0.6567 C   0  0  0  0  0  0  0  0  0  0  0  0
   -5.3412    0.6802   -1.4437 C   0  0  0  0  0  0  0  0  0  0  0  0
   -4.0735    1.1021   -1.0306 C   0  0  0  0  0  0  0  0  0  0  0  0
   -3.5302    0.6403    0.1735 C   0  0  0  0  0  0  0  0  0  0  0  0
   -2.2439    1.0394    0.6379 N   0  0  0  0  0  0  0  0  0  0  0  0
   -1.8939    0.8272    1.9353 N   0  0  0  0  0  0  0  0  0  0  0  0
   -0.7004    1.3736    2.1017 N   0  0  0  0  0  0  0  0  0  0  0  0
   -0.2315    1.8962    0.9321 N   0  0  0  0  0  0  0  0  0  0  0  0
   -1.1591    1.6624    0.0319 C   0  0  0  0  0  0  0  0  0  0  0  0
   -0.9160    1.9950   -1.6513 S   0  0  0  0  0  0  0  0  0  0  0  0
   -0.4293    0.3526   -2.2506 C   0  0  0  0  0  0  0  0  0  0  0  0
    0.7904   -0.1984   -1.5300 C   0  0  0  0  0  0  0  0  0  0  0  0
    0.7140   -1.2844   -0.9633 O   0  0  0  0  0  0  0  0  0  0  0  0
    1.9006    0.6035   -1.6562 N   0  0  0  0  0  0  0  0  0  0  0  0
    3.1519    0.3798   -1.1459 C   0  0  0  0  0  0  0  0  0  0  0  0
    4.1097    1.2656   -1.3125 N   0  0  0  0  0  0  0  0  0  0  0  0
    5.2604    0.8055   -0.7077 C   0  0  0  0  0  0  0  0  0  0  0  0
    5.1508   -0.4263   -0.0971 C   0  0  0  0  0  0  0  0  0  0  0  0
    3.5759   -1.0354   -0.2917 S   0  0  0  0  0  0  0  0  0  0  0  0
    6.2508   -1.1427    0.6064 C   0  0  0  0  0  0  0  0  0  0  0  0
    7.4038   -0.1678    0.9103 C   0  0  0  0  0  0  0  0  0  0  0  0
    7.7228    0.7462   -0.2870 C   0  0  0  0  0  0  0  0  0  0  0  0
    6.5151    1.6099   -0.6930 C   0  0  0  0  0  0  0  0  0  0  0  0
   -4.2988   -0.2284    0.9733 C   0  0  0  0  0  0  0  0  0  0  0  0
   -9.2758   -2.9288    1.1889 H   0  0  0  0  0  0  0  0  0  0  0  0
   -8.5343   -2.3093    2.6773 H   0  0  0  0  0  0  0  0  0  0  0  0
   -7.8258   -3.7305    1.8269 H   0  0  0  0  0  0  0  0  0  0  0  0
   -7.0707   -0.5057   -1.0010 H   0  0  0  0  0  0  0  0  0  0  0  0
   -5.7563    1.0484   -2.3800 H   0  0  0  0  0  0  0  0  0  0  0  0
   -3.5752    1.8272   -1.6633 H   0  0  0  0  0  0  0  0  0  0  0  0
   -0.2058    0.4134   -3.3210 H   0  0  0  0  0  0  0  0  0  0  0  0
   -1.2658   -0.3430   -2.1256 H   0  0  0  0  0  0  0  0  0  0  0  0
    1.8151    1.5140   -2.0877 H   0  0  0  0  0  0  0  0  0  0  0  0
    5.8970   -1.5937    1.5400 H   0  0  0  0  0  0  0  0  0  0  0  0
    6.6193   -1.9530   -0.0353 H   0  0  0  0  0  0  0  0  0  0  0  0
    8.2963   -0.7367    1.1946 H   0  0  0  0  0  0  0  0  0  0  0  0
    7.1360    0.4580    1.7723 H   0  0  0  0  0  0  0  0  0  0  0  0
    8.0288    0.1231   -1.1375 H   0  0  0  0  0  0  0  0  0  0  0  0
    8.5713    1.3964   -0.0455 H   0  0  0  0  0  0  0  0  0  0  0  0
    6.3954    2.4304    0.0243 H   0  0  0  0  0  0  0  0  0  0  0  0
    6.6936    2.0557   -1.6777 H   0  0  0  0  0  0  0  0  0  0  0  0
   -3.9120   -0.5999    1.9240 H   0  0  0  0  0  0  0  0  0  0  0  0
  1  2  1  0
  2  3  1  0
  3  4  2  0
  3  5  1  0
  5  6  2  0
  6  7  1  0
  7  8  2  0
  8  9  1  0
  9 10  1  0
 10 11  1  0
 11 12  2  0
 12 13  1  0
 13 14  2  0
 14 15  1  0
 15 16  1  0
 16 17  1  0
 17 18  2  0
 17 19  1  0
 19 20  1  0
 20 21  2  0
 21 22  1  0
 22 23  2  0
 23 24  1  0
 23 25  1  0
 25 26  1  0
 26 27  1  0
 27 28  1  0
  9 29  2  0
 29  5  1  0
 14 10  1  0
 24 20  1  0
 28 22  1  0
  1 30  1  0
  1 31  1  0
  1 32  1  0
  6 33  1  0
  7 34  1  0
  8 35  1  0
 16 36  1  0
 16 37  1  0
 19 38  1  0
 25 39  1  0
 25 40  1  0
 26 41  1  0
 26 42  1  0
 27 43  1  0
 27 44  1  0
 28 45  1  0
 28 46  1  0
 29 47  1  0
M  END
$$$$
