
     RDKit          3D

 53 56  0  0  0  0  0  0  0  0999 V2000
    8.3435    0.0924   -2.8051 C   0  0  0  0  0  0  0  0  0  0  0  0
    6.9440    0.6125   -3.0832 C   0  0  0  0  0  0  0  0  0  0  0  0
    6.3010    1.0062   -1.8718 O   0  0  0  0  0  0  0  0  0  0  0  0
    5.5568    0.0875   -1.1882 C   0  0  0  0  0  0  0  0  0  0  0  0
    5.4767   -1.2798   -1.4578 C   0  0  0  0  0  0  0  0  0  0  0  0
    4.6745   -2.1092   -0.6655 C   0  0  0  0  0  0  0  0  0  0  0  0
    3.9413   -1.5646    0.3898 C   0  0  0  0  0  0  0  0  0  0  0  0
    3.1277   -2.4713    1.2192 C   0  0  0  0  0  0  0  0  0  0  0  0
    1.9070   -2.3161    1.6377 N   0  0  0  0  0  0  0  0  0  0  0  0
    1.1859   -1.2501    1.1917 N   0  0  0  0  0  0  0  0  0  0  0  0
   -0.1027   -1.0208    1.6514 C   0  0  0  0  0  0  0  0  0  0  0  0
   -0.6715   -1.6673    2.5252 O   0  0  0  0  0  0  0  0  0  0  0  0
   -0.7311    0.1172    0.9841 C   0  0  0  0  0  0  0  0  0  0  0  0
   -0.0516    0.8959    0.0847 N   0  0  0  0  0  0  0  0  0  0  0  0
   -0.8689    1.8372   -0.3498 N   0  0  0  0  0  0  0  0  0  0  0  0
   -2.0818    1.7012    0.2670 N   0  0  0  0  0  0  0  0  0  0  0  0
   -3.1328    2.6237    0.0283 C   0  0  0  0  0  0  0  0  0  0  0  0
   -4.2691    2.5769    0.7241 N   0  0  0  0  0  0  0  0  0  0  0  0
   -5.0198    3.6389    0.2235 O   0  0  0  0  0  0  0  0  0  0  0  0
   -4.3197    4.3340   -0.7565 N   0  0  0  0  0  0  0  0  0  0  0  0
   -3.1552    3.6989   -0.8809 C   0  0  0  0  0  0  0  0  0  0  0  0
   -2.1853    4.0562   -1.7442 N   0  0  0  0  0  0  0  0  0  0  0  0
   -2.0268    0.5942    1.1098 C   0  0  0  0  0  0  0  0  0  0  0  0
   -3.1733    0.0788    1.8991 C   0  0  0  0  0  0  0  0  0  0  0  0
   -4.0749   -0.4759    0.9451 O   0  0  0  0  0  0  0  0  0  0  0  0
   -5.2649   -0.9562    1.4177 C   0  0  0  0  0  0  0  0  0  0  0  0
   -5.6226   -1.0874    2.7623 C   0  0  0  0  0  0  0  0  0  0  0  0
   -6.8779   -1.6001    3.1045 C   0  0  0  0  0  0  0  0  0  0  0  0
   -7.7652   -1.9793    2.1042 C   0  0  0  0  0  0  0  0  0  0  0  0
   -8.9663   -2.4692    2.4378 F   0  0  0  0  0  0  0  0  0  0  0  0
   -7.4220   -1.8587    0.7646 C   0  0  0  0  0  0  0  0  0  0  0  0
   -6.1691   -1.3476    0.4234 C   0  0  0  0  0  0  0  0  0  0  0  0
    4.0372   -0.2050    0.6865 C   0  0  0  0  0  0  0  0  0  0  0  0
    4.8405    0.6150   -0.1080 C   0  0  0  0  0  0  0  0  0  0  0  0
    8.3209   -0.8044   -2.1790 H   0  0  0  0  0  0  0  0  0  0  0  0
    8.8591   -0.1479   -3.7392 H   0  0  0  0  0  0  0  0  0  0  0  0
    8.9298    0.8420   -2.2631 H   0  0  0  0  0  0  0  0  0  0  0  0
    7.0274    1.5166   -3.6972 H   0  0  0  0  0  0  0  0  0  0  0  0
    6.3439   -0.0927   -3.6686 H   0  0  0  0  0  0  0  0  0  0  0  0
    6.0327   -1.7369   -2.2695 H   0  0  0  0  0  0  0  0  0  0  0  0
    4.6219   -3.1725   -0.8872 H   0  0  0  0  0  0  0  0  0  0  0  0
    3.6322   -3.4079    1.5159 H   0  0  0  0  0  0  0  0  0  0  0  0
    1.5273   -0.6915    0.4149 H   0  0  0  0  0  0  0  0  0  0  0  0
   -1.2437    3.6750   -1.6663 H   0  0  0  0  0  0  0  0  0  0  0  0
   -2.2370    4.9648   -2.1931 H   0  0  0  0  0  0  0  0  0  0  0  0
   -2.8523   -0.7004    2.5956 H   0  0  0  0  0  0  0  0  0  0  0  0
   -3.6387    0.8813    2.4819 H   0  0  0  0  0  0  0  0  0  0  0  0
   -4.9507   -0.8098    3.5677 H   0  0  0  0  0  0  0  0  0  0  0  0
   -7.1665   -1.7081    4.1453 H   0  0  0  0  0  0  0  0  0  0  0  0
   -8.1261   -2.1612   -0.0031 H   0  0  0  0  0  0  0  0  0  0  0  0
   -5.8944   -1.2507   -0.6242 H   0  0  0  0  0  0  0  0  0  0  0  0
    3.5137    0.2199    1.5394 H   0  0  0  0  0  0  0  0  0  0  0  0
    4.9171    1.6764    0.1192 H   0  0  0  0  0  0  0  0  0  0  0  0
  1  2  1  0
  2  3  1  0
  3  4  1  0
  4  5  2  0
  5  6  1  0
  6  7  2  0
  7  8  1  0
  8  9  2  3
  9 10  1  0
 10 11  1  0
 11 12  2  0
 11 13  1  0
 13 14  1  0
 14 15  2  0
 15 16  1  0
 16 17  1  0
 17 18  2  0
 18 19  1  0
 19 20  1  0
 20 21  2  0
 21 22  1  0
 16 23  1  0
 23 24  1  0
 24 25  1  0
 25 26  1  0
 26 27  2  0
 27 28  1  0
 28 29  2  0
 29 30  1  0
 29 31  1  0
 31 32  2  0
  7 33  1  0
 33 34  2  0
 34  4  1  0
 23 13  2  0
 32 26  1  0
 21 17  1  0
  1 35  1  0
  1 36  1  0
  1 37  1  0
  2 38  1  0
  2 39  1  0
  5 40  1  0
  6 41  1  0
  8 42  1  0
 10 43  1  0
 22 44  1  0
 22 45  1  0
 24 46  1  0
 24 47  1  0
 27 48  1  0
 28 49  1  0
 31 50  1  0
 32 51  1  0
 33 52  1  0
 34 53  1  0
M  END
$$$$
