
     RDKit          3D

 58 62  0  0  0  0  0  0  0  0999 V2000
    6.5966   -2.2408    2.4421 C   0  0  0  0  0  0  0  0  0  0  0  0
    6.2347   -0.8904    2.1929 O   0  0  0  0  0  0  0  0  0  0  0  0
    4.8968   -0.5881    2.1402 C   0  0  0  0  0  0  0  0  0  0  0  0
    3.8692   -1.5214    2.2965 C   0  0  0  0  0  0  0  0  0  0  0  0
    2.5326   -1.1178    2.2222 C   0  0  0  0  0  0  0  0  0  0  0  0
    2.1964    0.2217    1.9906 C   0  0  0  0  0  0  0  0  0  0  0  0
    0.7893    0.6017    1.9024 C   0  0  0  0  0  0  0  0  0  0  0  0
   -0.2850   -0.1584    1.9930 N   0  0  0  0  0  0  0  0  0  0  0  0
   -1.3414    0.7038    1.7814 C   0  0  0  0  0  0  0  0  0  0  0  0
   -2.7406    0.1965    1.7605 C   0  0  0  0  0  0  0  0  0  0  0  0
   -3.3186    0.3179    0.4313 N   0  0  0  0  0  0  0  0  0  0  0  0
   -3.0304   -0.4464   -0.6723 C   0  0  0  0  0  0  0  0  0  0  0  0
   -1.9693   -1.8126   -0.6378 S   0  0  0  0  0  0  0  0  0  0  0  0
   -0.8050   -1.3574   -1.9540 C   0  0  0  0  0  0  0  0  0  0  0  0
   -0.9583   -2.2222   -3.1786 C   0  0  0  0  0  0  0  0  0  0  0  0
   -0.1920   -3.3901   -3.3314 C   0  0  0  0  0  0  0  0  0  0  0  0
   -0.3360   -4.1930   -4.4654 C   0  0  0  0  0  0  0  0  0  0  0  0
   -1.2512   -3.8389   -5.4553 C   0  0  0  0  0  0  0  0  0  0  0  0
   -2.0162   -2.6881   -5.3024 C   0  0  0  0  0  0  0  0  0  0  0  0
   -2.8954   -2.3508   -6.2547 F   0  0  0  0  0  0  0  0  0  0  0  0
   -1.8813   -1.8817   -4.1781 C   0  0  0  0  0  0  0  0  0  0  0  0
   -3.6533   -0.0174   -1.7443 N   0  0  0  0  0  0  0  0  0  0  0  0
   -4.4267    1.0306   -1.3179 C   0  0  0  0  0  0  0  0  0  0  0  0
   -5.3054    1.8330   -2.0446 C   0  0  0  0  0  0  0  0  0  0  0  0
   -5.9519    2.8217   -1.3238 C   0  0  0  0  0  0  0  0  0  0  0  0
   -5.7861    3.0463    0.0010 N   0  0  0  0  0  0  0  0  0  0  0  0
   -4.9388    2.2631    0.7063 C   0  0  0  0  0  0  0  0  0  0  0  0
   -4.2514    1.2574    0.0434 C   0  0  0  0  0  0  0  0  0  0  0  0
   -0.8513    1.9827    1.6064 C   0  0  0  0  0  0  0  0  0  0  0  0
   -1.4464    3.3065    1.3524 C   0  0  0  0  0  0  0  0  0  0  0  0
    0.5124    1.9236    1.6764 O   0  0  0  0  0  0  0  0  0  0  0  0
    3.2312    1.1571    1.8362 C   0  0  0  0  0  0  0  0  0  0  0  0
    4.5748    0.7648    1.9113 C   0  0  0  0  0  0  0  0  0  0  0  0
    5.6401    1.6200    1.7659 O   0  0  0  0  0  0  0  0  0  0  0  0
    5.3620    3.0085    1.6480 C   0  0  0  0  0  0  0  0  0  0  0  0
    6.2405   -2.5707    3.4235 H   0  0  0  0  0  0  0  0  0  0  0  0
    6.2356   -2.9018    1.6471 H   0  0  0  0  0  0  0  0  0  0  0  0
    7.6889   -2.2972    2.4498 H   0  0  0  0  0  0  0  0  0  0  0  0
    4.0710   -2.5720    2.4752 H   0  0  0  0  0  0  0  0  0  0  0  0
    1.7473   -1.8633    2.3440 H   0  0  0  0  0  0  0  0  0  0  0  0
   -3.3575    0.7603    2.4677 H   0  0  0  0  0  0  0  0  0  0  0  0
   -2.7956   -0.8567    2.0567 H   0  0  0  0  0  0  0  0  0  0  0  0
   -0.8944   -0.2999   -2.2261 H   0  0  0  0  0  0  0  0  0  0  0  0
    0.2083   -1.4711   -1.5526 H   0  0  0  0  0  0  0  0  0  0  0  0
    0.5225   -3.6809   -2.5628 H   0  0  0  0  0  0  0  0  0  0  0  0
    0.2645   -5.0944   -4.5740 H   0  0  0  0  0  0  0  0  0  0  0  0
   -1.3750   -4.4515   -6.3410 H   0  0  0  0  0  0  0  0  0  0  0  0
   -2.5059   -0.9964   -4.0846 H   0  0  0  0  0  0  0  0  0  0  0  0
   -5.4697    1.6863   -3.1030 H   0  0  0  0  0  0  0  0  0  0  0  0
   -6.6552    3.4895   -1.8151 H   0  0  0  0  0  0  0  0  0  0  0  0
   -4.8440    2.4767    1.7629 H   0  0  0  0  0  0  0  0  0  0  0  0
   -2.3079    3.4746    2.0047 H   0  0  0  0  0  0  0  0  0  0  0  0
   -1.7761    3.3841    0.3128 H   0  0  0  0  0  0  0  0  0  0  0  0
   -0.7245    4.1068    1.5403 H   0  0  0  0  0  0  0  0  0  0  0  0
    2.9682    2.1932    1.6493 H   0  0  0  0  0  0  0  0  0  0  0  0
    4.8174    3.3801    2.5228 H   0  0  0  0  0  0  0  0  0  0  0  0
    6.3187    3.5386    1.6028 H   0  0  0  0  0  0  0  0  0  0  0  0
    4.8188    3.2242    0.7218 H   0  0  0  0  0  0  0  0  0  0  0  0
  1  2  1  0
  2  3  1  0
  3  4  2  0
  4  5  1  0
  5  6  2  0
  6  7  1  0
  7  8  2  0
  8  9  1  0
  9 10  1  0
 10 11  1  0
 11 12  1  0
 12 13  1  0
 13 14  1  0
 14 15  1  0
 15 16  2  0
 16 17  1  0
 17 18  2  0
 18 19  1  0
 19 20  1  0
 19 21  2  0
 12 22  2  0
 22 23  1  0
 23 24  2  0
 24 25  1  0
 25 26  2  0
 26 27  1  0
 27 28  2  0
  9 29  2  0
 29 30  1  0
 29 31  1  0
  6 32  1  0
 32 33  2  0
 33 34  1  0
 34 35  1  0
 33  3  1  0
 31  7  1  0
 28 11  1  0
 21 15  1  0
 28 23  1  0
  1 36  1  0
  1 37  1  0
  1 38  1  0
  4 39  1  0
  5 40  1  0
 10 41  1  0
 10 42  1  0
 14 43  1  0
 14 44  1  0
 16 45  1  0
 17 46  1  0
 18 47  1  0
 21 48  1  0
 24 49  1  0
 25 50  1  0
 27 51  1  0
 30 52  1  0
 30 53  1  0
 30 54  1  0
 32 55  1  0
 35 56  1  0
 35 57  1  0
 35 58  1  0
M  END
$$$$
