
     RDKit          3D

 50 53  0  0  0  0  0  0  0  0999 V2000
   -6.5175   -3.2199    3.6528 C   0  0  0  0  0  0  0  0  0  0  0  0
   -5.2822   -2.5727    3.1009 C   0  0  0  0  0  0  0  0  0  0  0  0
   -4.2470   -3.3540    2.5815 C   0  0  0  0  0  0  0  0  0  0  0  0
   -3.1075   -2.7513    2.0402 C   0  0  0  0  0  0  0  0  0  0  0  0
   -2.9926   -1.3521    1.9838 C   0  0  0  0  0  0  0  0  0  0  0  0
   -1.8069   -0.7805    1.4258 N   0  0  0  0  0  0  0  0  0  0  0  0
   -0.7084   -1.5715    1.2845 N   0  0  0  0  0  0  0  0  0  0  0  0
    0.2827   -0.7388    0.9631 C   0  0  0  0  0  0  0  0  0  0  0  0
    1.6833   -1.0953    0.7758 C   0  0  0  0  0  0  0  0  0  0  0  0
    2.1226   -2.2346    0.9074 O   0  0  0  0  0  0  0  0  0  0  0  0
    2.4806    0.0119    0.4212 N   0  0  0  0  0  0  0  0  0  0  0  0
    3.9079   -0.2020    0.1808 C   0  0  0  0  0  0  0  0  0  0  0  0
    4.2274   -0.4520   -1.2950 C   0  0  0  0  0  0  0  0  0  0  0  0
    5.3233   -0.8734   -1.6600 O   0  0  0  0  0  0  0  0  0  0  0  0
    3.2374   -0.0738   -2.1746 N   0  0  0  0  0  0  0  0  0  0  0  0
    3.4428   -0.0341   -3.6013 C   0  0  0  0  0  0  0  0  0  0  0  0
    3.8012    1.3678   -3.9810 C   0  0  0  0  0  0  0  0  0  0  0  0
    5.0563    1.9443   -4.0205 C   0  0  0  0  0  0  0  0  0  0  0  0
    5.0140    3.3089   -4.4259 C   0  0  0  0  0  0  0  0  0  0  0  0
    3.7284    3.7308   -4.6800 C   0  0  0  0  0  0  0  0  0  0  0  0
    2.5817    2.4879   -4.4255 S   0  0  0  0  0  0  0  0  0  0  0  0
    2.0055    1.3149    0.2114 N   0  0  0  0  0  0  0  0  0  0  0  0
    0.7472    1.6103    0.3906 C   0  0  0  0  0  0  0  0  0  0  0  0
    0.3104    3.0305    0.1707 C   0  0  0  0  0  0  0  0  0  0  0  0
   -0.1746    0.5699    0.7745 C   0  0  0  0  0  0  0  0  0  0  0  0
   -1.5448    0.5194    0.9727 C   0  0  0  0  0  0  0  0  0  0  0  0
   -2.5836    1.5508    0.7172 C   0  0  0  0  0  0  0  0  0  0  0  0
   -4.0251   -0.5724    2.5156 C   0  0  0  0  0  0  0  0  0  0  0  0
   -5.1649   -1.1799    3.0579 C   0  0  0  0  0  0  0  0  0  0  0  0
   -7.2321   -3.4100    2.8462 H   0  0  0  0  0  0  0  0  0  0  0  0
   -6.9944   -2.5800    4.4027 H   0  0  0  0  0  0  0  0  0  0  0  0
   -6.2742   -4.1683    4.1430 H   0  0  0  0  0  0  0  0  0  0  0  0
   -4.3140   -4.4398    2.5970 H   0  0  0  0  0  0  0  0  0  0  0  0
   -2.3184   -3.3942    1.6516 H   0  0  0  0  0  0  0  0  0  0  0  0
    4.4540    0.6889    0.5085 H   0  0  0  0  0  0  0  0  0  0  0  0
    4.2580   -1.0641    0.7572 H   0  0  0  0  0  0  0  0  0  0  0  0
    2.4990    0.5031   -1.7836 H   0  0  0  0  0  0  0  0  0  0  0  0
    4.2342   -0.7312   -3.8958 H   0  0  0  0  0  0  0  0  0  0  0  0
    2.5111   -0.3557   -4.0781 H   0  0  0  0  0  0  0  0  0  0  0  0
    5.9622    1.4059   -3.7632 H   0  0  0  0  0  0  0  0  0  0  0  0
    5.8832    3.9477   -4.5246 H   0  0  0  0  0  0  0  0  0  0  0  0
    3.4054    4.7112   -5.0021 H   0  0  0  0  0  0  0  0  0  0  0  0
   -0.3163    3.3676    1.0003 H   0  0  0  0  0  0  0  0  0  0  0  0
   -0.2480    3.0989   -0.7667 H   0  0  0  0  0  0  0  0  0  0  0  0
    1.1815    3.6894    0.1033 H   0  0  0  0  0  0  0  0  0  0  0  0
   -2.2878    2.2084   -0.1048 H   0  0  0  0  0  0  0  0  0  0  0  0
   -2.7402    2.1721    1.6037 H   0  0  0  0  0  0  0  0  0  0  0  0
   -3.5339    1.1070    0.4062 H   0  0  0  0  0  0  0  0  0  0  0  0
   -3.9691    0.5076    2.5721 H   0  0  0  0  0  0  0  0  0  0  0  0
   -5.9576   -0.5536    3.4627 H   0  0  0  0  0  0  0  0  0  0  0  0
  1  2  1  0
  2  3  2  0
  3  4  1  0
  4  5  2  0
  5  6  1  0
  6  7  1  0
  7  8  2  0
  8  9  1  0
  9 10  2  0
  9 11  1  0
 11 12  1  0
 12 13  1  0
 13 14  2  0
 13 15  1  0
 15 16  1  0
 16 17  1  0
 17 18  2  0
 18 19  1  0
 19 20  2  0
 20 21  1  0
 11 22  1  0
 22 23  2  0
 23 24  1  0
 23 25  1  0
 25 26  2  0
 26 27  1  0
  5 28  1  0
 28 29  2  0
 29  2  1  0
 26  6  1  0
 25  8  1  0
 21 17  1  0
  1 30  1  0
  1 31  1  0
  1 32  1  0
  3 33  1  0
  4 34  1  0
 12 35  1  0
 12 36  1  0
 15 37  1  0
 16 38  1  0
 16 39  1  0
 18 40  1  0
 19 41  1  0
 20 42  1  0
 24 43  1  0
 24 44  1  0
 24 45  1  0
 27 46  1  0
 27 47  1  0
 27 48  1  0
 28 49  1  0
 29 50  1  0
M  END
$$$$
