
     RDKit          3D

 34 36  0  0  0  0  0  0  0  0999 V2000
    0.1650   -1.3640   -1.8805 O   0  0  0  0  0  0  0  0  0  0  0  0
    0.4516   -0.7493   -0.8621 C   0  0  0  0  0  0  0  0  0  0  0  0
    1.8481   -0.7769   -0.3835 C   0  0  0  0  0  0  0  0  0  0  0  0
    2.4477   -2.0148   -0.1304 C   0  0  0  0  0  0  0  0  0  0  0  0
    3.7727   -2.0644    0.3077 C   0  0  0  0  0  0  0  0  0  0  0  0
    4.4922   -0.8802    0.4740 C   0  0  0  0  0  0  0  0  0  0  0  0
    6.1239   -0.9424    1.0152 Cl  0  0  0  0  0  0  0  0  0  0  0  0
    3.9026    0.3547    0.1975 C   0  0  0  0  0  0  0  0  0  0  0  0
    2.5774    0.4088   -0.2404 C   0  0  0  0  0  0  0  0  0  0  0  0
   -0.4801   -0.0532   -0.1364 N   0  0  0  0  0  0  0  0  0  0  0  0
   -0.3320    0.5549    1.1938 C   0  0  0  0  0  0  0  0  0  0  0  0
   -0.4865    2.0401    0.9786 C   0  0  0  0  0  0  0  0  0  0  0  0
   -1.7767    2.2808    0.6880 C   0  0  0  0  0  0  0  0  0  0  0  0
   -2.4684    0.9273    0.6385 C   0  0  0  0  0  0  0  0  0  0  0  0
   -1.7035    0.2909    1.8166 C   0  0  0  0  0  0  0  0  0  0  0  0
   -1.9282    0.0920   -0.5857 C   0  0  0  0  0  0  0  0  0  0  0  0
   -2.7246   -1.2071   -0.7283 C   0  0  0  0  0  0  0  0  0  0  0  0
   -4.0568   -0.9495   -0.7663 F   0  0  0  0  0  0  0  0  0  0  0  0
   -2.4380   -1.9324   -1.8239 F   0  0  0  0  0  0  0  0  0  0  0  0
   -2.5384   -2.0297    0.3345 F   0  0  0  0  0  0  0  0  0  0  0  0
   -2.1513    0.8227   -1.9094 C   0  0  0  0  0  0  0  0  0  0  0  0
   -3.4460    1.2127   -2.0290 F   0  0  0  0  0  0  0  0  0  0  0  0
   -1.4079    1.9542   -2.0033 F   0  0  0  0  0  0  0  0  0  0  0  0
   -1.8616    0.0930   -3.0036 F   0  0  0  0  0  0  0  0  0  0  0  0
    1.8877   -2.9357   -0.2795 H   0  0  0  0  0  0  0  0  0  0  0  0
    4.2391   -3.0257    0.5079 H   0  0  0  0  0  0  0  0  0  0  0  0
    4.4732    1.2733    0.3092 H   0  0  0  0  0  0  0  0  0  0  0  0
    2.1287    1.3674   -0.4871 H   0  0  0  0  0  0  0  0  0  0  0  0
    0.5266    0.2345    1.7830 H   0  0  0  0  0  0  0  0  0  0  0  0
    0.3047    2.7717    1.0437 H   0  0  0  0  0  0  0  0  0  0  0  0
   -2.2209    3.2371    0.4508 H   0  0  0  0  0  0  0  0  0  0  0  0
   -3.5513    0.9705    0.7663 H   0  0  0  0  0  0  0  0  0  0  0  0
   -1.9098   -0.7699    1.9710 H   0  0  0  0  0  0  0  0  0  0  0  0
   -1.8592    0.8085    2.7731 H   0  0  0  0  0  0  0  0  0  0  0  0
  1  2  2  0
  2  3  1  0
  3  4  2  0
  4  5  1  0
  5  6  2  0
  6  7  1  0
  6  8  1  0
  8  9  2  0
  2 10  1  0
 10 11  1  0
 11 12  1  0
 12 13  2  0
 13 14  1  0
 14 15  1  0
 14 16  1  0
 16 17  1  0
 17 18  1  0
 17 19  1  0
 17 20  1  0
 16 21  1  0
 21 22  1  0
 21 23  1  0
 21 24  1  0
  9  3  1  0
 16 10  1  0
 15 11  1  0
  4 25  1  0
  5 26  1  0
  8 27  1  0
  9 28  1  0
 11 29  1  0
 12 30  1  0
 13 31  1  0
 14 32  1  0
 15 33  1  0
 15 34  1  0
M  END
$$$$
