
     RDKit          3D

 37 39  0  0  0  0  0  0  0  0999 V2000
    2.9217    1.6709    4.5071 C   0  0  0  0  0  0  0  0  0  0  0  0
    2.1159    1.3970    3.3668 O   0  0  0  0  0  0  0  0  0  0  0  0
    2.0474    0.0914    2.9575 C   0  0  0  0  0  0  0  0  0  0  0  0
    2.7101   -0.9849    3.5424 C   0  0  0  0  0  0  0  0  0  0  0  0
    2.5578   -2.2850    3.0435 C   0  0  0  0  0  0  0  0  0  0  0  0
    1.7256   -2.4685    1.9336 C   0  0  0  0  0  0  0  0  0  0  0  0
    1.3901   -3.6229    1.2642 N   0  0  0  0  0  0  0  0  0  0  0  0
    0.5283   -3.3411    0.2369 C   0  0  0  0  0  0  0  0  0  0  0  0
    0.3213   -1.9787    0.2176 C   0  0  0  0  0  0  0  0  0  0  0  0
   -0.5199   -1.3419   -0.7456 C   0  0  0  0  0  0  0  0  0  0  0  0
   -0.3209   -0.1133   -1.2518 C   0  0  0  0  0  0  0  0  0  0  0  0
   -1.1984    0.5302   -2.2351 C   0  0  0  0  0  0  0  0  0  0  0  0
   -1.7544   -0.1624   -3.3092 C   0  0  0  0  0  0  0  0  0  0  0  0
   -2.5558    0.5120   -4.2238 C   0  0  0  0  0  0  0  0  0  0  0  0
   -2.7908    1.8362   -4.0894 N   0  0  0  0  0  4  0  0  0  0  0  0
   -3.6535    2.5263   -5.0632 C   0  0  0  0  0  0  0  0  0  0  0  0
   -2.2569    2.5304   -3.0600 C   0  0  0  0  0  0  0  0  0  0  0  0
   -1.4478    1.8971   -2.1237 C   0  0  0  0  0  0  0  0  0  0  0  0
    1.0579   -1.4145    1.3066 C   0  0  0  0  0  0  0  0  0  0  0  0
    1.2199   -0.1193    1.8456 C   0  0  0  0  0  0  0  0  0  0  0  0
    3.9716    1.4259    4.3160 H   0  0  0  0  0  0  0  0  0  0  0  0
    2.8620    2.7450    4.7076 H   0  0  0  0  0  0  0  0  0  0  0  0
    2.5461    1.1458    5.3916 H   0  0  0  0  0  0  0  0  0  0  0  0
    3.3579   -0.8533    4.4037 H   0  0  0  0  0  0  0  0  0  0  0  0
    3.0701   -3.1195    3.5127 H   0  0  0  0  0  0  0  0  0  0  0  0
    1.7264   -4.5445    1.5093 H   0  0  0  0  0  0  0  0  0  0  0  0
    0.1554   -4.1368   -0.3941 H   0  0  0  0  0  0  0  0  0  0  0  0
   -1.3690   -1.9315   -1.0847 H   0  0  0  0  0  0  0  0  0  0  0  0
    0.5375    0.4729   -0.9292 H   0  0  0  0  0  0  0  0  0  0  0  0
   -1.5623   -1.2243   -3.4499 H   0  0  0  0  0  0  0  0  0  0  0  0
   -3.0103    0.0008   -5.0679 H   0  0  0  0  0  0  0  0  0  0  0  0
   -4.6789    2.4690   -4.6898 H   0  0  0  0  0  0  0  0  0  0  0  0
   -3.5643    2.0329   -6.0345 H   0  0  0  0  0  0  0  0  0  0  0  0
   -3.3295    3.5662   -5.1552 H   0  0  0  0  0  0  0  0  0  0  0  0
   -2.4824    3.5911   -2.9935 H   0  0  0  0  0  0  0  0  0  0  0  0
   -1.0246    2.4743   -1.3029 H   0  0  0  0  0  0  0  0  0  0  0  0
    0.6967    0.7268    1.4135 H   0  0  0  0  0  0  0  0  0  0  0  0
  1  2  1  0
  2  3  1  0
  3  4  2  0
  4  5  1  0
  5  6  2  0
  6  7  1  0
  7  8  1  0
  8  9  2  0
  9 10  1  0
 10 11  2  3
 11 12  1  0
 12 13  2  0
 13 14  1  0
 14 15  2  0
 15 16  1  0
 15 17  1  0
 17 18  2  0
  9 19  1  0
 19 20  2  0
 20  3  1  0
 19  6  1  0
 18 12  1  0
  1 21  1  0
  1 22  1  0
  1 23  1  0
  4 24  1  0
  5 25  1  0
  7 26  1  0
  8 27  1  0
 10 28  1  0
 11 29  1  0
 13 30  1  0
 14 31  1  0
 16 32  1  0
 16 33  1  0
 16 34  1  0
 17 35  1  0
 18 36  1  0
 20 37  1  0
M  CHG  1  15   1
M  END
$$$$
