
     RDKit          3D

 57 61  0  0  0  0  0  0  0  0999 V2000
   -4.9111   -1.3407    1.3439 C   0  0  0  0  0  0  0  0  0  0  0  0
   -4.7744   -1.6369   -0.1451 C   0  0  0  0  0  0  0  0  0  0  0  0
   -4.1674   -3.0029   -0.4477 C   0  0  0  0  0  0  0  0  0  0  0  0
   -4.1406   -0.4999   -0.9542 C   0  0  0  0  0  0  0  0  0  0  0  0
   -4.8715    0.1344   -1.7250 O   0  0  0  0  0  0  0  0  0  0  0  0
   -2.7819   -0.2029   -0.8499 N   0  0  0  0  0  0  0  0  0  0  0  0
   -1.9758   -0.4982    0.3283 C   0  0  0  0  0  0  0  0  0  0  0  0
   -0.4798   -0.5659    0.0233 C   0  0  0  0  0  0  0  0  0  0  0  0
    0.0393    0.7033   -0.6938 C   0  0  0  0  0  0  0  0  0  0  0  0
   -0.8308    0.8613   -1.9674 C   0  0  0  0  0  0  0  0  0  0  0  0
   -2.3196    0.9347   -1.6432 C   0  0  0  0  0  0  0  0  0  0  0  0
   -0.2005    1.7984    0.2231 O   0  0  0  0  0  0  0  0  0  0  0  0
    0.3632    2.9963   -0.1170 C   0  0  0  0  0  0  0  0  0  0  0  0
   -0.1662    4.1243    0.5114 C   0  0  0  0  0  0  0  0  0  0  0  0
    0.3389    5.3899    0.2095 C   0  0  0  0  0  0  0  0  0  0  0  0
    1.3724    5.5170   -0.7138 C   0  0  0  0  0  0  0  0  0  0  0  0
    1.8525    6.7337   -0.9989 F   0  0  0  0  0  0  0  0  0  0  0  0
    1.9188    4.4024   -1.3365 C   0  0  0  0  0  0  0  0  0  0  0  0
    1.4139    3.1376   -1.0248 C   0  0  0  0  0  0  0  0  0  0  0  0
    1.9990    1.9282   -1.6349 C   0  0  0  0  0  0  0  0  0  0  0  0
    2.8234    2.0427   -2.5356 O   0  0  0  0  0  0  0  0  0  0  0  0
    1.5559    0.6033   -1.0241 C   0  0  0  0  0  0  0  0  0  0  0  0
    2.4762    0.3173    0.1577 C   0  0  0  0  0  0  0  0  0  0  0  0
    2.7542   -1.1228   -0.0976 C   0  0  0  0  0  0  0  0  0  0  0  0
    3.4171   -1.9847    0.9082 C   0  0  0  0  0  0  0  0  0  0  0  0
    3.5377   -3.3561    0.6514 C   0  0  0  0  0  0  0  0  0  0  0  0
    4.1510   -4.1951    1.5835 C   0  0  0  0  0  0  0  0  0  0  0  0
    4.6480   -3.6682    2.7741 C   0  0  0  0  0  0  0  0  0  0  0  0
    4.5354   -2.3029    3.0334 C   0  0  0  0  0  0  0  0  0  0  0  0
    3.9219   -1.4594    2.1032 C   0  0  0  0  0  0  0  0  0  0  0  0
    2.3697   -1.5514   -1.2565 N   0  0  0  0  0  0  0  0  0  0  0  0
    1.8032   -0.4579   -1.9512 O   0  0  0  0  0  0  0  0  0  0  0  0
   -4.0025   -1.5565    1.9100 H   0  0  0  0  0  0  0  0  0  0  0  0
   -5.7047   -1.9593    1.7780 H   0  0  0  0  0  0  0  0  0  0  0  0
   -5.1733   -0.2912    1.5140 H   0  0  0  0  0  0  0  0  0  0  0  0
   -5.8061   -1.6891   -0.5263 H   0  0  0  0  0  0  0  0  0  0  0  0
   -4.0757   -3.1541   -1.5288 H   0  0  0  0  0  0  0  0  0  0  0  0
   -3.1740   -3.1369   -0.0148 H   0  0  0  0  0  0  0  0  0  0  0  0
   -4.8059   -3.7993   -0.0501 H   0  0  0  0  0  0  0  0  0  0  0  0
   -2.1892    0.2770    1.0739 H   0  0  0  0  0  0  0  0  0  0  0  0
   -2.2629   -1.4493    0.7688 H   0  0  0  0  0  0  0  0  0  0  0  0
    0.0385   -0.7122    0.9777 H   0  0  0  0  0  0  0  0  0  0  0  0
   -0.2936   -1.4524   -0.5951 H   0  0  0  0  0  0  0  0  0  0  0  0
   -0.5686    1.7676   -2.5240 H   0  0  0  0  0  0  0  0  0  0  0  0
   -0.6575    0.0133   -2.6424 H   0  0  0  0  0  0  0  0  0  0  0  0
   -2.8742    0.9862   -2.5873 H   0  0  0  0  0  0  0  0  0  0  0  0
   -2.5556    1.8475   -1.0827 H   0  0  0  0  0  0  0  0  0  0  0  0
   -0.9801    4.0222    1.2255 H   0  0  0  0  0  0  0  0  0  0  0  0
   -0.0688    6.2778    0.6839 H   0  0  0  0  0  0  0  0  0  0  0  0
    2.7311    4.5271   -2.0472 H   0  0  0  0  0  0  0  0  0  0  0  0
    2.0082    0.4909    1.1293 H   0  0  0  0  0  0  0  0  0  0  0  0
    3.4226    0.8677    0.1106 H   0  0  0  0  0  0  0  0  0  0  0  0
    3.1578   -3.7805   -0.2762 H   0  0  0  0  0  0  0  0  0  0  0  0
    4.2430   -5.2587    1.3772 H   0  0  0  0  0  0  0  0  0  0  0  0
    5.1284   -4.3222    3.4980 H   0  0  0  0  0  0  0  0  0  0  0  0
    4.9310   -1.8946    3.9606 H   0  0  0  0  0  0  0  0  0  0  0  0
    3.8603   -0.3998    2.3314 H   0  0  0  0  0  0  0  0  0  0  0  0
  1  2  1  0
  2  3  1  0
  2  4  1  0
  4  5  2  0
  4  6  1  0
  6  7  1  0
  7  8  1  0
  8  9  1  0
  9 10  1  0
 10 11  1  0
  9 12  1  0
 12 13  1  0
 13 14  2  0
 14 15  1  0
 15 16  2  0
 16 17  1  0
 16 18  1  0
 18 19  2  0
 19 20  1  0
 20 21  2  0
 20 22  1  0
 22 23  1  0
 23 24  1  0
 24 25  1  0
 25 26  2  0
 26 27  1  0
 27 28  2  0
 28 29  1  0
 29 30  2  0
 24 31  2  0
 31 32  1  0
 11  6  1  0
 19 13  1  0
 32 22  1  0
 22  9  1  0
 30 25  1  0
  1 33  1  0
  1 34  1  0
  1 35  1  0
  2 36  1  0
  3 37  1  0
  3 38  1  0
  3 39  1  0
  7 40  1  0
  7 41  1  0
  8 42  1  0
  8 43  1  0
 10 44  1  0
 10 45  1  0
 11 46  1  0
 11 47  1  0
 14 48  1  0
 15 49  1  0
 18 50  1  0
 23 51  1  0
 23 52  1  0
 26 53  1  0
 27 54  1  0
 28 55  1  0
 29 56  1  0
 30 57  1  0
M  END
$$$$
