
     RDKit          3D

 39 40  0  0  0  0  0  0  0  0999 V2000
    5.9221   -2.0730    0.5178 C   0  0  0  0  0  0  0  0  0  0  0  0
    4.5643   -1.5234    0.8451 C   0  0  0  0  0  0  0  0  0  0  0  0
    4.3790   -0.1457    1.0120 C   0  0  0  0  0  0  0  0  0  0  0  0
    3.1227    0.3658    1.3505 C   0  0  0  0  0  0  0  0  0  0  0  0
    2.0370   -0.4992    1.5361 C   0  0  0  0  0  0  0  0  0  0  0  0
    0.6794   -0.0089    1.8947 C   0  0  0  0  0  0  0  0  0  0  0  0
   -0.3109   -0.7242    1.9432 O   0  0  0  0  0  0  0  0  0  0  0  0
    0.6993    1.3204    2.1530 O   0  0  0  0  0  0  0  0  0  0  0  0
   -0.5565    1.8923    2.5226 C   0  0  0  0  0  0  0  0  0  0  0  0
   -1.4817    2.1282    1.3278 C   0  0  0  0  0  0  0  0  0  0  0  0
   -1.5646    3.2157    0.7653 O   0  0  0  0  0  0  0  0  0  0  0  0
   -2.2034    1.0191    0.9424 N   0  0  0  0  0  0  0  0  0  0  0  0
   -3.0394    1.0246   -0.2438 C   0  0  0  0  0  0  0  0  0  0  0  0
   -2.2287    0.9147   -1.5405 C   0  0  0  0  0  0  0  0  0  0  0  0
   -3.0718    0.6804   -2.7008 N   0  0  0  0  0  0  0  0  0  0  0  0
   -3.5486   -0.5596   -3.0489 C   0  0  0  0  0  0  0  0  0  0  0  0
   -3.1998   -1.6379   -2.2913 O   0  0  0  0  0  0  0  0  0  0  0  0
   -4.3413   -0.5702   -4.1262 C   0  0  0  0  0  0  0  0  0  0  0  0
   -4.5413    1.0299   -4.7740 S   0  0  0  0  0  0  0  0  0  0  0  0
   -3.5143    1.7218   -3.5002 C   0  0  0  0  0  0  0  0  0  0  0  0
   -3.2850    2.9143   -3.3980 O   0  0  0  0  0  0  0  0  0  0  0  0
    2.2228   -1.8782    1.3791 C   0  0  0  0  0  0  0  0  0  0  0  0
    3.4798   -2.3867    1.0414 C   0  0  0  0  0  0  0  0  0  0  0  0
    6.5026   -1.3557   -0.0724 H   0  0  0  0  0  0  0  0  0  0  0  0
    5.8392   -2.9896   -0.0759 H   0  0  0  0  0  0  0  0  0  0  0  0
    6.4680   -2.2956    1.4398 H   0  0  0  0  0  0  0  0  0  0  0  0
    5.2129    0.5403    0.8780 H   0  0  0  0  0  0  0  0  0  0  0  0
    3.0086    1.4413    1.4639 H   0  0  0  0  0  0  0  0  0  0  0  0
   -0.3543    2.8621    2.9894 H   0  0  0  0  0  0  0  0  0  0  0  0
   -1.0610    1.2813    3.2813 H   0  0  0  0  0  0  0  0  0  0  0  0
   -1.8825    0.1157    1.2953 H   0  0  0  0  0  0  0  0  0  0  0  0
   -3.6378    1.9435   -0.2528 H   0  0  0  0  0  0  0  0  0  0  0  0
   -3.7298    0.1812   -0.1415 H   0  0  0  0  0  0  0  0  0  0  0  0
   -1.6616    1.8401   -1.6950 H   0  0  0  0  0  0  0  0  0  0  0  0
   -1.4905    0.1072   -1.4705 H   0  0  0  0  0  0  0  0  0  0  0  0
   -3.6115   -2.4298   -2.6788 H   0  0  0  0  0  0  0  0  0  0  0  0
   -4.8199   -1.4352   -4.5616 H   0  0  0  0  0  0  0  0  0  0  0  0
    1.3912   -2.5654    1.5235 H   0  0  0  0  0  0  0  0  0  0  0  0
    3.6075   -3.4616    0.9339 H   0  0  0  0  0  0  0  0  0  0  0  0
  1  2  1  0
  2  3  2  0
  3  4  1  0
  4  5  2  0
  5  6  1  0
  6  7  2  0
  6  8  1  0
  8  9  1  0
  9 10  1  0
 10 11  2  0
 10 12  1  0
 12 13  1  0
 13 14  1  0
 14 15  1  0
 15 16  1  0
 16 17  1  0
 16 18  2  0
 18 19  1  0
 19 20  1  0
 20 21  2  0
  5 22  1  0
 22 23  2  0
 23  2  1  0
 20 15  1  0
  1 24  1  0
  1 25  1  0
  1 26  1  0
  3 27  1  0
  4 28  1  0
  9 29  1  0
  9 30  1  0
 12 31  1  0
 13 32  1  0
 13 33  1  0
 14 34  1  0
 14 35  1  0
 17 36  1  0
 18 37  1  0
 22 38  1  0
 23 39  1  0
M  END
$$$$
