
     RDKit          3D

 44 46  0  0  0  0  0  0  0  0999 V2000
   -3.5810    1.5553    1.0958 C   0  0  0  0  0  0  0  0  0  0  0  0
   -2.6439    0.4050    0.8471 C   0  0  0  0  0  0  0  0  0  0  0  0
   -1.9501   -0.1626    1.9297 C   0  0  0  0  0  0  0  0  0  0  0  0
   -1.0788   -1.2546    1.7672 C   0  0  0  0  0  0  0  0  0  0  0  0
   -0.3993   -1.8076    2.9884 C   0  0  0  0  0  0  0  0  0  0  0  0
   -0.8952   -1.7685    0.4729 C   0  0  0  0  0  0  0  0  0  0  0  0
    0.1867   -3.1511    0.1324 S   0  0  0  0  0  6  0  0  0  0  0  0
    1.2125   -3.2426    1.1478 O   0  0  0  0  0  0  0  0  0  0  0  0
   -0.6721   -4.2786   -0.1663 O   0  0  0  0  0  0  0  0  0  0  0  0
    0.9334   -2.7596   -1.3135 N   0  0  0  0  0  0  0  0  0  0  0  0
    1.7946   -1.6481   -1.5327 C   0  0  0  0  0  0  0  0  0  0  0  0
    2.2078   -1.4241   -2.8504 C   0  0  0  0  0  0  0  0  0  0  0  0
    3.0419   -0.3486   -3.1657 C   0  0  0  0  0  0  0  0  0  0  0  0
    3.4674    0.5121   -2.1564 C   0  0  0  0  0  0  0  0  0  0  0  0
    4.2771    1.5705   -2.4685 O   0  0  0  0  0  0  0  0  0  0  0  0
    3.0715    0.3007   -0.8302 C   0  0  0  0  0  0  0  0  0  0  0  0
    3.5809    1.3939    0.4891 S   0  0  0  0  0  0  0  0  0  0  0  0
    2.1433    2.3602    0.7132 C   0  0  0  0  0  0  0  0  0  0  0  0
    1.0226    2.2766   -0.0741 N   0  0  0  0  0  0  0  0  0  0  0  0
    0.2130    3.1573    0.4625 C   0  0  0  0  0  0  0  0  0  0  0  0
    0.8248    3.7473    1.5205 N   0  0  0  0  0  0  0  0  0  0  0  0
    2.0587    3.2572    1.7044 N   0  0  0  0  0  0  0  0  0  0  0  0
    2.2474   -0.7953   -0.5256 C   0  0  0  0  0  0  0  0  0  0  0  0
   -1.5861   -1.2085   -0.6151 C   0  0  0  0  0  0  0  0  0  0  0  0
   -2.4519   -0.1184   -0.4434 C   0  0  0  0  0  0  0  0  0  0  0  0
   -3.1740    0.4440   -1.6370 C   0  0  0  0  0  0  0  0  0  0  0  0
   -3.2315    2.4509    0.5717 H   0  0  0  0  0  0  0  0  0  0  0  0
   -3.6442    1.7997    2.1622 H   0  0  0  0  0  0  0  0  0  0  0  0
   -4.5914    1.3037    0.7553 H   0  0  0  0  0  0  0  0  0  0  0  0
   -2.1045    0.2458    2.9288 H   0  0  0  0  0  0  0  0  0  0  0  0
   -0.5480   -2.8893    3.0585 H   0  0  0  0  0  0  0  0  0  0  0  0
   -0.8154   -1.3779    3.9062 H   0  0  0  0  0  0  0  0  0  0  0  0
    0.6676   -1.5672    2.9737 H   0  0  0  0  0  0  0  0  0  0  0  0
    0.6667   -3.3595   -2.0898 H   0  0  0  0  0  0  0  0  0  0  0  0
    1.8816   -2.0830   -3.6509 H   0  0  0  0  0  0  0  0  0  0  0  0
    3.3452   -0.1988   -4.1968 H   0  0  0  0  0  0  0  0  0  0  0  0
    4.3908    1.6173   -3.4310 H   0  0  0  0  0  0  0  0  0  0  0  0
   -0.7879    3.4005    0.1366 H   0  0  0  0  0  0  0  0  0  0  0  0
    0.4767    4.4655    2.1457 H   0  0  0  0  0  0  0  0  0  0  0  0
    1.9673   -0.9500    0.5114 H   0  0  0  0  0  0  0  0  0  0  0  0
   -1.4545   -1.6295   -1.6103 H   0  0  0  0  0  0  0  0  0  0  0  0
   -2.8147   -0.0024   -2.5705 H   0  0  0  0  0  0  0  0  0  0  0  0
   -3.0087    1.5232   -1.7126 H   0  0  0  0  0  0  0  0  0  0  0  0
   -4.2462    0.2393   -1.5602 H   0  0  0  0  0  0  0  0  0  0  0  0
  1  2  1  0
  2  3  2  0
  3  4  1  0
  4  5  1  0
  4  6  2  0
  6  7  1  0
  7  8  2  0
  7  9  2  0
  7 10  1  0
 10 11  1  0
 11 12  2  0
 12 13  1  0
 13 14  2  0
 14 15  1  0
 14 16  1  0
 16 17  1  0
 17 18  1  0
 18 19  1  0
 19 20  2  0
 20 21  1  0
 21 22  1  0
 16 23  2  0
  6 24  1  0
 24 25  2  0
 25 26  1  0
 25  2  1  0
 23 11  1  0
 22 18  2  0
  1 27  1  0
  1 28  1  0
  1 29  1  0
  3 30  1  0
  5 31  1  0
  5 32  1  0
  5 33  1  0
 10 34  1  0
 12 35  1  0
 13 36  1  0
 15 37  1  0
 20 38  1  0
 21 39  1  0
 23 40  1  0
 24 41  1  0
 26 42  1  0
 26 43  1  0
 26 44  1  0
M  END
$$$$
