
     RDKit          3D

 50 52  0  0  0  0  0  0  0  0999 V2000
   -4.0162   -2.3890   -1.8904 C   0  0  0  0  0  0  0  0  0  0  0  0
   -4.5987   -1.8259   -0.7221 O   0  0  0  0  0  0  0  0  0  0  0  0
   -3.8188   -0.9819    0.0221 C   0  0  0  0  0  0  0  0  0  0  0  0
   -2.4772   -0.6859   -0.2257 C   0  0  0  0  0  0  0  0  0  0  0  0
   -1.7817    0.1804    0.6319 C   0  0  0  0  0  0  0  0  0  0  0  0
   -0.3627    0.4729    0.3367 C   0  0  0  0  0  0  0  0  0  0  0  0
    0.3511    1.2316    1.1083 N   0  0  0  0  0  0  0  0  0  0  0  0
    1.6731    1.4137    0.7885 N   0  0  0  0  0  0  0  0  0  0  0  0
    2.5170    0.4256    0.2650 C   0  0  0  0  0  0  0  0  0  0  0  0
    2.1642   -0.6948   -0.0937 O   0  0  0  0  0  0  0  0  0  0  0  0
    3.9660    0.9192    0.1863 C   0  0  0  0  0  0  0  0  0  0  0  0
    4.8148   -0.0521   -0.4052 O   0  0  0  0  0  0  0  0  0  0  0  0
    6.1401    0.2619   -0.5200 C   0  0  0  0  0  0  0  0  0  0  0  0
    6.9281   -0.7427   -1.0850 C   0  0  0  0  0  0  0  0  0  0  0  0
    8.3012   -0.5582   -1.2630 C   0  0  0  0  0  0  0  0  0  0  0  0
    8.9090    0.6365   -0.8666 C   0  0  0  0  0  0  0  0  0  0  0  0
   10.3767    0.8530   -1.0863 C   0  0  0  0  0  0  0  0  0  0  0  0
    8.1154    1.6485   -0.3146 C   0  0  0  0  0  0  0  0  0  0  0  0
    6.7394    1.4615   -0.1370 C   0  0  0  0  0  0  0  0  0  0  0  0
   -2.4127    0.7485    1.7444 C   0  0  0  0  0  0  0  0  0  0  0  0
   -3.7511    0.4609    1.9991 C   0  0  0  0  0  0  0  0  0  0  0  0
   -4.4410   -0.3834    1.1286 C   0  0  0  0  0  0  0  0  0  0  0  0
   -5.7764   -0.6762    1.4286 O   0  0  0  0  0  0  0  0  0  0  0  0
   -6.6828    0.0129    0.6267 C   0  0  0  0  0  0  0  0  0  0  0  0
   -6.3894    0.8999   -0.1708 O   0  0  0  0  0  0  0  0  0  0  0  0
   -8.0465   -0.4313    0.8785 C   0  0  0  0  0  0  0  0  0  0  0  0
   -9.1916    0.0515    0.2668 C   0  0  0  0  0  0  0  0  0  0  0  0
  -10.3772   -0.5886    0.7293 C   0  0  0  0  0  0  0  0  0  0  0  0
  -10.1044   -1.5435    1.6816 C   0  0  0  0  0  0  0  0  0  0  0  0
   -8.4313   -1.6612    2.0099 S   0  0  0  0  0  0  0  0  0  0  0  0
   -3.7115   -1.6090   -2.5960 H   0  0  0  0  0  0  0  0  0  0  0  0
   -3.1760   -3.0429   -1.6350 H   0  0  0  0  0  0  0  0  0  0  0  0
   -4.7780   -3.0024   -2.3811 H   0  0  0  0  0  0  0  0  0  0  0  0
   -1.9508   -1.1218   -1.0682 H   0  0  0  0  0  0  0  0  0  0  0  0
    0.0330    0.0287   -0.5926 H   0  0  0  0  0  0  0  0  0  0  0  0
    2.1031    2.1635    1.3220 H   0  0  0  0  0  0  0  0  0  0  0  0
    4.2938    1.1305    1.2116 H   0  0  0  0  0  0  0  0  0  0  0  0
    3.9674    1.8353   -0.4169 H   0  0  0  0  0  0  0  0  0  0  0  0
    6.4669   -1.6788   -1.3918 H   0  0  0  0  0  0  0  0  0  0  0  0
    8.8895   -1.3550   -1.7119 H   0  0  0  0  0  0  0  0  0  0  0  0
   10.7913    1.5207   -0.3237 H   0  0  0  0  0  0  0  0  0  0  0  0
   10.9251   -0.0927   -1.0221 H   0  0  0  0  0  0  0  0  0  0  0  0
   10.5462    1.2942   -2.0732 H   0  0  0  0  0  0  0  0  0  0  0  0
    8.5652    2.5934   -0.0172 H   0  0  0  0  0  0  0  0  0  0  0  0
    6.1714    2.2756    0.2988 H   0  0  0  0  0  0  0  0  0  0  0  0
   -1.8674    1.4114    2.4116 H   0  0  0  0  0  0  0  0  0  0  0  0
   -4.2506    0.8926    2.8610 H   0  0  0  0  0  0  0  0  0  0  0  0
   -9.1707    0.8341   -0.4841 H   0  0  0  0  0  0  0  0  0  0  0  0
  -11.3771   -0.3606    0.3803 H   0  0  0  0  0  0  0  0  0  0  0  0
  -10.8068   -2.1805    2.2020 H   0  0  0  0  0  0  0  0  0  0  0  0
  1  2  1  0
  2  3  1  0
  3  4  2  0
  4  5  1  0
  5  6  1  0
  6  7  2  3
  7  8  1  0
  8  9  1  0
  9 10  2  0
  9 11  1  0
 11 12  1  0
 12 13  1  0
 13 14  2  0
 14 15  1  0
 15 16  2  0
 16 17  1  0
 16 18  1  0
 18 19  2  0
  5 20  2  0
 20 21  1  0
 21 22  2  0
 22 23  1  0
 23 24  1  0
 24 25  2  0
 24 26  1  0
 26 27  2  0
 27 28  1  0
 28 29  2  0
 29 30  1  0
 22  3  1  0
 30 26  1  0
 19 13  1  0
  1 31  1  0
  1 32  1  0
  1 33  1  0
  4 34  1  0
  6 35  1  0
  8 36  1  0
 11 37  1  0
 11 38  1  0
 14 39  1  0
 15 40  1  0
 17 41  1  0
 17 42  1  0
 17 43  1  0
 18 44  1  0
 19 45  1  0
 20 46  1  0
 21 47  1  0
 27 48  1  0
 28 49  1  0
 29 50  1  0
M  END
$$$$
