
     RDKit          3D

 39 41  0  0  0  0  0  0  0  0999 V2000
   -4.9421   -0.5771   -0.4373 C   0  0  0  0  0  0  0  0  0  0  0  0
   -3.7232   -1.4458   -0.1583 C   0  0  0  0  0  0  0  0  0  0  0  0
   -2.5712   -0.6465    0.2513 N   0  0  0  0  0  0  0  0  0  0  0  0
   -2.4352   -0.3760    1.6046 C   0  0  0  0  0  0  0  0  0  0  0  0
   -3.2270   -0.7589    2.4635 O   0  0  0  0  0  0  0  0  0  0  0  0
   -1.2695    0.4233    2.0067 C   0  0  0  0  0  0  0  0  0  0  0  0
   -1.0541    0.6804    3.3708 C   0  0  0  0  0  0  0  0  0  0  0  0
    0.0414    1.4359    3.7747 C   0  0  0  0  0  0  0  0  0  0  0  0
    0.9165    1.9334    2.8169 C   0  0  0  0  0  0  0  0  0  0  0  0
    0.6957    1.6763    1.4583 C   0  0  0  0  0  0  0  0  0  0  0  0
   -0.4032    0.9135    1.0306 C   0  0  0  0  0  0  0  0  0  0  0  0
   -0.6637    0.6355   -0.3416 N   0  0  0  0  0  0  0  0  0  0  0  0
    0.2143    1.1588   -1.3944 C   0  0  0  0  0  0  0  0  0  0  0  0
    1.5073    0.3802   -1.5625 C   0  0  0  0  0  0  0  0  0  0  0  0
    2.7343    1.0608   -1.6350 C   0  0  0  0  0  0  0  0  0  0  0  0
    3.9312    0.3602   -1.8091 C   0  0  0  0  0  0  0  0  0  0  0  0
    3.9041   -1.0345   -1.9267 C   0  0  0  0  0  0  0  0  0  0  0  0
    5.1590   -1.7742   -2.1088 N   0  0  0  0  0  4  0  0  0  0  0  0
    6.2125   -1.1218   -2.1410 O   0  0  0  0  0  0  0  0  0  0  0  0
    5.0926   -3.0069   -2.2176 O   0  0  0  0  0  1  0  0  0  0  0  0
    2.6896   -1.7274   -1.8790 C   0  0  0  0  0  0  0  0  0  0  0  0
    1.4985   -1.0175   -1.7042 C   0  0  0  0  0  0  0  0  0  0  0  0
   -1.7497   -0.1376   -0.7457 C   0  0  0  0  0  0  0  0  0  0  0  0
   -1.9706   -0.3662   -1.9380 O   0  0  0  0  0  0  0  0  0  0  0  0
   -5.7901   -1.1989   -0.7403 H   0  0  0  0  0  0  0  0  0  0  0  0
   -5.2344   -0.0099    0.4525 H   0  0  0  0  0  0  0  0  0  0  0  0
   -4.7407    0.1408   -1.2389 H   0  0  0  0  0  0  0  0  0  0  0  0
   -3.9658   -2.1709    0.6269 H   0  0  0  0  0  0  0  0  0  0  0  0
   -3.4725   -2.0225   -1.0559 H   0  0  0  0  0  0  0  0  0  0  0  0
   -1.7416    0.2901    4.1192 H   0  0  0  0  0  0  0  0  0  0  0  0
    0.2100    1.6341    4.8303 H   0  0  0  0  0  0  0  0  0  0  0  0
    1.7767    2.5245    3.1241 H   0  0  0  0  0  0  0  0  0  0  0  0
    1.4147    2.0923    0.7615 H   0  0  0  0  0  0  0  0  0  0  0  0
    0.4090    2.2189   -1.1908 H   0  0  0  0  0  0  0  0  0  0  0  0
   -0.2977    1.1522   -2.3645 H   0  0  0  0  0  0  0  0  0  0  0  0
    2.7687    2.1463   -1.5573 H   0  0  0  0  0  0  0  0  0  0  0  0
    4.8675    0.9128   -1.8555 H   0  0  0  0  0  0  0  0  0  0  0  0
    2.6499   -2.8101   -1.9811 H   0  0  0  0  0  0  0  0  0  0  0  0
    0.5587   -1.5675   -1.6879 H   0  0  0  0  0  0  0  0  0  0  0  0
  1  2  1  0
  2  3  1  0
  3  4  1  0
  4  5  2  0
  4  6  1  0
  6  7  2  0
  7  8  1  0
  8  9  2  0
  9 10  1  0
 10 11  2  0
 11 12  1  0
 12 13  1  0
 13 14  1  0
 14 15  2  0
 15 16  1  0
 16 17  2  0
 17 18  1  0
 18 19  2  0
 18 20  1  0
 17 21  1  0
 21 22  2  0
 12 23  1  0
 23 24  2  0
 23  3  1  0
 11  6  1  0
 22 14  1  0
  1 25  1  0
  1 26  1  0
  1 27  1  0
  2 28  1  0
  2 29  1  0
  7 30  1  0
  8 31  1  0
  9 32  1  0
 10 33  1  0
 13 34  1  0
 13 35  1  0
 15 36  1  0
 16 37  1  0
 21 38  1  0
 22 39  1  0
M  CHG  2  18   1  20  -1
M  END
$$$$
