
     RDKit          3D

 32 33  0  0  0  0  0  0  0  0999 V2000
    4.1031   -2.0144   -0.7097 C   0  0  0  0  0  0  0  0  0  0  0  0
    4.3558   -0.5287   -0.5190 C   0  0  0  0  0  0  0  0  0  0  0  0
    3.1715    0.2128    0.6430 S   0  0  0  0  0  0  0  0  0  0  0  0
    1.6970    0.2496   -0.2713 C   0  0  0  0  0  0  0  0  0  0  0  0
    1.4527    0.3855   -1.6168 C   0  0  0  0  0  0  0  0  0  0  0  0
    0.1094    0.3810   -1.8740 N   0  0  0  0  0  0  0  0  0  0  0  0
   -0.4873    0.2387   -0.7045 C   0  0  0  0  0  0  0  0  0  0  0  0
   -1.9359    0.1977   -0.5179 C   0  0  0  0  0  0  0  0  0  0  0  0
   -2.5804   -0.9870   -0.1402 C   0  0  0  0  0  0  0  0  0  0  0  0
   -3.9655   -1.0105    0.0362 C   0  0  0  0  0  0  0  0  0  0  0  0
   -4.7150    0.1465   -0.1739 C   0  0  0  0  0  0  0  0  0  0  0  0
   -4.0833    1.3250   -0.5690 C   0  0  0  0  0  0  0  0  0  0  0  0
   -2.6986    1.3491   -0.7460 C   0  0  0  0  0  0  0  0  0  0  0  0
    0.4524    0.1823    0.3140 N   0  0  0  0  0  0  0  0  0  0  0  0
    0.1541    0.1113    1.7346 C   0  0  0  0  0  0  0  0  0  0  0  0
    0.0102    1.4857    2.3668 C   0  0  0  0  0  0  0  0  0  0  0  0
    3.1257   -2.2093   -1.1621 H   0  0  0  0  0  0  0  0  0  0  0  0
    4.8627   -2.4367   -1.3761 H   0  0  0  0  0  0  0  0  0  0  0  0
    4.1604   -2.5559    0.2407 H   0  0  0  0  0  0  0  0  0  0  0  0
    5.3577   -0.3877   -0.1002 H   0  0  0  0  0  0  0  0  0  0  0  0
    4.3340   -0.0026   -1.4781 H   0  0  0  0  0  0  0  0  0  0  0  0
    2.1675    0.4953   -2.4208 H   0  0  0  0  0  0  0  0  0  0  0  0
   -2.0077   -1.8998    0.0056 H   0  0  0  0  0  0  0  0  0  0  0  0
   -4.4606   -1.9333    0.3271 H   0  0  0  0  0  0  0  0  0  0  0  0
   -5.7940    0.1267   -0.0427 H   0  0  0  0  0  0  0  0  0  0  0  0
   -4.6682    2.2233   -0.7487 H   0  0  0  0  0  0  0  0  0  0  0  0
   -2.2125    2.2671   -1.0696 H   0  0  0  0  0  0  0  0  0  0  0  0
    0.9438   -0.4618    2.2301 H   0  0  0  0  0  0  0  0  0  0  0  0
   -0.7646   -0.4653    1.8715 H   0  0  0  0  0  0  0  0  0  0  0  0
   -0.2115    1.3897    3.4342 H   0  0  0  0  0  0  0  0  0  0  0  0
    0.9289    2.0716    2.2615 H   0  0  0  0  0  0  0  0  0  0  0  0
   -0.8017    2.0538    1.9011 H   0  0  0  0  0  0  0  0  0  0  0  0
  1  2  1  0
  2  3  1  0
  3  4  1  0
  4  5  2  0
  5  6  1  0
  6  7  2  0
  7  8  1  0
  8  9  2  0
  9 10  1  0
 10 11  2  0
 11 12  1  0
 12 13  2  0
  7 14  1  0
 14 15  1  0
 15 16  1  0
 14  4  1  0
 13  8  1  0
  1 17  1  0
  1 18  1  0
  1 19  1  0
  2 20  1  0
  2 21  1  0
  5 22  1  0
  9 23  1  0
 10 24  1  0
 11 25  1  0
 12 26  1  0
 13 27  1  0
 15 28  1  0
 15 29  1  0
 16 30  1  0
 16 31  1  0
 16 32  1  0
M  END
$$$$
