
     RDKit          3D

 34 35  0  0  0  0  0  0  0  0999 V2000
    5.8830   -1.8389    1.0618 C   0  0  0  0  0  0  0  0  0  0  0  0
    4.9858   -0.8610    1.5720 O   0  0  0  0  0  0  0  0  0  0  0  0
    4.0414   -0.3781    0.7091 C   0  0  0  0  0  0  0  0  0  0  0  0
    3.8565   -0.7794   -0.6144 C   0  0  0  0  0  0  0  0  0  0  0  0
    2.8433   -0.2004   -1.3879 C   0  0  0  0  0  0  0  0  0  0  0  0
    2.0016    0.7729   -0.8472 C   0  0  0  0  0  0  0  0  0  0  0  0
    1.0080    1.3532   -1.6428 N   0  0  0  0  0  0  0  0  0  0  0  0
   -0.2317    0.9974   -1.4907 C   0  0  0  0  0  0  0  0  0  0  0  0
   -0.7948   -0.0424   -0.5609 C   0  0  0  0  0  0  0  0  0  0  0  0
   -1.7711    0.5584    0.4215 C   0  0  0  0  0  0  0  0  0  0  0  0
   -1.3782    1.1937    1.3991 O   0  0  0  0  0  0  0  0  0  0  0  0
   -3.2407    0.3972    0.2091 C   0  0  0  0  0  0  0  0  0  0  0  0
   -3.7961    0.0737   -1.0355 C   0  0  0  0  0  0  0  0  0  0  0  0
   -5.1833   -0.0572   -1.1718 C   0  0  0  0  0  0  0  0  0  0  0  0
   -6.0156    0.1399   -0.0709 C   0  0  0  0  0  0  0  0  0  0  0  0
   -7.7182   -0.0229   -0.2471 Cl  0  0  0  0  0  0  0  0  0  0  0  0
   -5.4749    0.4725    1.1681 C   0  0  0  0  0  0  0  0  0  0  0  0
   -4.0904    0.6041    1.3068 C   0  0  0  0  0  0  0  0  0  0  0  0
    2.2019    1.1876    0.4703 C   0  0  0  0  0  0  0  0  0  0  0  0
    3.2099    0.6083    1.2452 C   0  0  0  0  0  0  0  0  0  0  0  0
    6.4739   -1.4384    0.2313 H   0  0  0  0  0  0  0  0  0  0  0  0
    6.5767   -2.1073    1.8645 H   0  0  0  0  0  0  0  0  0  0  0  0
    5.3490   -2.7478    0.7657 H   0  0  0  0  0  0  0  0  0  0  0  0
    4.4832   -1.5331   -1.0782 H   0  0  0  0  0  0  0  0  0  0  0  0
    2.7126   -0.5051   -2.4225 H   0  0  0  0  0  0  0  0  0  0  0  0
   -0.9663    1.5072   -2.1382 H   0  0  0  0  0  0  0  0  0  0  0  0
   -0.0212   -0.5566    0.0148 H   0  0  0  0  0  0  0  0  0  0  0  0
   -1.2712   -0.8188   -1.1654 H   0  0  0  0  0  0  0  0  0  0  0  0
   -3.1837   -0.0666   -1.9208 H   0  0  0  0  0  0  0  0  0  0  0  0
   -5.6092   -0.3076   -2.1408 H   0  0  0  0  0  0  0  0  0  0  0  0
   -6.1202    0.6335    2.0281 H   0  0  0  0  0  0  0  0  0  0  0  0
   -3.6769    0.8694    2.2792 H   0  0  0  0  0  0  0  0  0  0  0  0
    1.5673    1.9591    0.8992 H   0  0  0  0  0  0  0  0  0  0  0  0
    3.3493    0.9335    2.2732 H   0  0  0  0  0  0  0  0  0  0  0  0
  1  2  1  0
  2  3  1  0
  3  4  2  0
  4  5  1  0
  5  6  2  0
  6  7  1  0
  7  8  2  3
  8  9  1  0
  9 10  1  0
 10 11  2  0
 10 12  1  0
 12 13  2  0
 13 14  1  0
 14 15  2  0
 15 16  1  0
 15 17  1  0
 17 18  2  0
  6 19  1  0
 19 20  2  0
 20  3  1  0
 18 12  1  0
  1 21  1  0
  1 22  1  0
  1 23  1  0
  4 24  1  0
  5 25  1  0
  8 26  1  0
  9 27  1  0
  9 28  1  0
 13 29  1  0
 14 30  1  0
 17 31  1  0
 18 32  1  0
 19 33  1  0
 20 34  1  0
M  END
$$$$
