
     RDKit          3D

 42 44  0  0  0  0  0  0  0  0999 V2000
   -4.9402   -3.0654    0.0406 C   0  0  0  0  0  0  0  0  0  0  0  0
   -4.3639   -1.7741   -0.1026 O   0  0  0  0  0  0  0  0  0  0  0  0
   -5.1768   -0.6871    0.1009 C   0  0  0  0  0  0  0  0  0  0  0  0
   -6.5233   -0.7706    0.4770 C   0  0  0  0  0  0  0  0  0  0  0  0
   -7.2888    0.3871    0.6409 C   0  0  0  0  0  0  0  0  0  0  0  0
   -6.7196    1.6382    0.4279 C   0  0  0  0  0  0  0  0  0  0  0  0
   -5.3795    1.7356    0.0559 C   0  0  0  0  0  0  0  0  0  0  0  0
   -4.5938    0.5825   -0.0993 C   0  0  0  0  0  0  0  0  0  0  0  0
   -3.1915    0.7766   -0.5059 C   0  0  0  0  0  0  0  0  0  0  0  0
   -2.1627    0.2614    0.1834 C   0  0  0  0  0  0  0  0  0  0  0  0
   -0.7634    0.4504   -0.2043 C   0  0  0  0  0  0  0  0  0  0  0  0
    0.2718   -0.0147    0.4121 N   0  0  0  0  0  0  0  0  0  0  0  0
    1.3095    0.4468   -0.3546 C   0  0  0  0  0  0  0  0  0  0  0  0
    2.6193    0.2482   -0.1600 C   0  0  0  0  0  0  0  0  0  0  0  0
    3.1669   -0.5229    0.9386 C   0  0  0  0  0  0  0  0  0  0  0  0
    4.4684   -0.7398    1.1880 C   0  0  0  0  0  0  0  0  0  0  0  0
    5.5916   -0.2202    0.4048 C   0  0  0  0  0  0  0  0  0  0  0  0
    5.9664    1.1247    0.4991 C   0  0  0  0  0  0  0  0  0  0  0  0
    7.0385    1.6095   -0.2523 C   0  0  0  0  0  0  0  0  0  0  0  0
    7.7415    0.7527   -1.0984 C   0  0  0  0  0  0  0  0  0  0  0  0
    7.3742   -0.5892   -1.1938 C   0  0  0  0  0  0  0  0  0  0  0  0
    6.3021   -1.0758   -0.4432 C   0  0  0  0  0  0  0  0  0  0  0  0
    0.7936    1.2438   -1.4977 C   0  0  0  0  0  0  0  0  0  0  0  0
    1.3987    1.8144   -2.3823 O   0  0  0  0  0  0  0  0  0  0  0  0
   -0.5538    1.1908   -1.3180 O   0  0  0  0  0  0  0  0  0  0  0  0
   -4.1626   -3.8038   -0.1773 H   0  0  0  0  0  0  0  0  0  0  0  0
   -5.7533   -3.2178   -0.6768 H   0  0  0  0  0  0  0  0  0  0  0  0
   -5.2793   -3.2339    1.0679 H   0  0  0  0  0  0  0  0  0  0  0  0
   -7.0118   -1.7241    0.6479 H   0  0  0  0  0  0  0  0  0  0  0  0
   -8.3337    0.3091    0.9318 H   0  0  0  0  0  0  0  0  0  0  0  0
   -7.3169    2.5380    0.5513 H   0  0  0  0  0  0  0  0  0  0  0  0
   -4.9480    2.7214   -0.1049 H   0  0  0  0  0  0  0  0  0  0  0  0
   -3.0424    1.3860   -1.3933 H   0  0  0  0  0  0  0  0  0  0  0  0
   -2.3174   -0.3366    1.0756 H   0  0  0  0  0  0  0  0  0  0  0  0
    3.3222    0.6833   -0.8683 H   0  0  0  0  0  0  0  0  0  0  0  0
    2.4407   -0.9749    1.6148 H   0  0  0  0  0  0  0  0  0  0  0  0
    4.7518   -1.3580    2.0370 H   0  0  0  0  0  0  0  0  0  0  0  0
    5.4247    1.8010    1.1561 H   0  0  0  0  0  0  0  0  0  0  0  0
    7.3237    2.6556   -0.1781 H   0  0  0  0  0  0  0  0  0  0  0  0
    8.5749    1.1311   -1.6846 H   0  0  0  0  0  0  0  0  0  0  0  0
    7.9209   -1.2567   -1.8547 H   0  0  0  0  0  0  0  0  0  0  0  0
    6.0213   -2.1226   -0.5292 H   0  0  0  0  0  0  0  0  0  0  0  0
  1  2  1  0
  2  3  1  0
  3  4  2  0
  4  5  1  0
  5  6  2  0
  6  7  1  0
  7  8  2  0
  8  9  1  0
  9 10  2  3
 10 11  1  0
 11 12  2  0
 12 13  1  0
 13 14  2  3
 14 15  1  0
 15 16  2  3
 16 17  1  0
 17 18  2  0
 18 19  1  0
 19 20  2  0
 20 21  1  0
 21 22  2  0
 13 23  1  0
 23 24  2  0
 23 25  1  0
  8  3  1  0
 25 11  1  0
 22 17  1  0
  1 26  1  0
  1 27  1  0
  1 28  1  0
  4 29  1  0
  5 30  1  0
  6 31  1  0
  7 32  1  0
  9 33  1  0
 10 34  1  0
 14 35  1  0
 15 36  1  0
 16 37  1  0
 18 38  1  0
 19 39  1  0
 20 40  1  0
 21 41  1  0
 22 42  1  0
M  END
$$$$
