
     RDKit          3D

 51 54  0  0  0  0  0  0  0  0999 V2000
    5.2967   -0.6027   -0.1025 O   0  0  0  0  0  0  0  0  0  0  0  0
    4.0786   -0.7087    0.0164 C   0  0  0  0  0  0  0  0  0  0  0  0
    3.4185   -2.0962    0.0228 C   0  0  0  0  0  0  0  0  0  0  0  0
    1.9913   -2.0939   -0.2536 N   0  0  0  0  0  0  0  0  0  0  0  0
    1.0404   -2.1499    0.7382 C   0  0  0  0  0  0  0  0  0  0  0  0
    1.2747   -2.1822    1.9333 O   0  0  0  0  0  0  0  0  0  0  0  0
   -0.3887   -2.1006    0.2026 C   0  0  0  0  0  0  0  0  0  0  0  0
   -0.5806   -1.2672   -0.7789 N   0  0  0  0  0  0  0  0  0  0  0  0
   -1.8442   -1.1590   -1.3187 N   0  0  0  0  0  0  0  0  0  0  0  0
   -2.0295   -0.1381   -2.3480 C   0  0  0  0  0  0  0  0  0  0  0  0
   -2.3585    1.2127   -1.7563 C   0  0  0  0  0  0  0  0  0  0  0  0
   -3.6922    1.5988   -1.5592 C   0  0  0  0  0  0  0  0  0  0  0  0
   -3.9949    2.8374   -0.9913 C   0  0  0  0  0  0  0  0  0  0  0  0
   -2.9688    3.6989   -0.6074 C   0  0  0  0  0  0  0  0  0  0  0  0
   -1.6395    3.3217   -0.7875 C   0  0  0  0  0  0  0  0  0  0  0  0
   -1.3354    2.0844   -1.3575 C   0  0  0  0  0  0  0  0  0  0  0  0
   -2.9453   -1.8948   -0.8875 C   0  0  0  0  0  0  0  0  0  0  0  0
   -4.0712   -1.8022   -1.3708 O   0  0  0  0  0  0  0  0  0  0  0  0
   -2.7078   -2.8507    0.2107 C   0  0  0  0  0  0  0  0  0  0  0  0
   -3.7605   -3.6452    0.6864 C   0  0  0  0  0  0  0  0  0  0  0  0
   -3.5340   -4.5613    1.7126 C   0  0  0  0  0  0  0  0  0  0  0  0
   -2.2591   -4.6869    2.2603 C   0  0  0  0  0  0  0  0  0  0  0  0
   -1.2089   -3.8949    1.7871 C   0  0  0  0  0  0  0  0  0  0  0  0
   -1.4361   -2.9669    0.7631 C   0  0  0  0  0  0  0  0  0  0  0  0
    3.1991    0.3333    0.2311 N   0  0  0  0  0  0  0  0  0  0  0  0
    3.4826    1.7133    0.2973 C   0  0  0  0  0  0  0  0  0  0  0  0
    4.7495    2.2691    0.0981 C   0  0  0  0  0  0  0  0  0  0  0  0
    4.9308    3.6561    0.1752 C   0  0  0  0  0  0  0  0  0  0  0  0
    3.8465    4.4846    0.4475 C   0  0  0  0  0  0  0  0  0  0  0  0
    4.0327    5.8096    0.5140 F   0  0  0  0  0  0  0  0  0  0  0  0
    2.5850    3.9462    0.6461 C   0  0  0  0  0  0  0  0  0  0  0  0
    1.5400    4.7466    0.9006 F   0  0  0  0  0  0  0  0  0  0  0  0
    2.4081    2.5706    0.5740 C   0  0  0  0  0  0  0  0  0  0  0  0
    1.1864    2.0475    0.7658 F   0  0  0  0  0  0  0  0  0  0  0  0
    3.6093   -2.5595    0.9960 H   0  0  0  0  0  0  0  0  0  0  0  0
    3.8875   -2.6968   -0.7630 H   0  0  0  0  0  0  0  0  0  0  0  0
    1.6653   -1.9217   -1.2010 H   0  0  0  0  0  0  0  0  0  0  0  0
   -2.8254   -0.4473   -3.0361 H   0  0  0  0  0  0  0  0  0  0  0  0
   -1.1122   -0.0756   -2.9469 H   0  0  0  0  0  0  0  0  0  0  0  0
   -4.5037    0.9288   -1.8392 H   0  0  0  0  0  0  0  0  0  0  0  0
   -5.0319    3.1259   -0.8415 H   0  0  0  0  0  0  0  0  0  0  0  0
   -3.2045    4.6606   -0.1591 H   0  0  0  0  0  0  0  0  0  0  0  0
   -0.8391    3.9872   -0.4738 H   0  0  0  0  0  0  0  0  0  0  0  0
   -0.2939    1.7959   -1.4770 H   0  0  0  0  0  0  0  0  0  0  0  0
   -4.7567   -3.5515    0.2581 H   0  0  0  0  0  0  0  0  0  0  0  0
   -4.3512   -5.1757    2.0837 H   0  0  0  0  0  0  0  0  0  0  0  0
   -2.0811   -5.4014    3.0617 H   0  0  0  0  0  0  0  0  0  0  0  0
   -0.2299   -4.0218    2.2417 H   0  0  0  0  0  0  0  0  0  0  0  0
    2.2294    0.0783    0.4007 H   0  0  0  0  0  0  0  0  0  0  0  0
    5.6178    1.6539   -0.1199 H   0  0  0  0  0  0  0  0  0  0  0  0
    5.9146    4.0911    0.0217 H   0  0  0  0  0  0  0  0  0  0  0  0
  1  2  2  0
  2  3  1  0
  3  4  1  0
  4  5  1  0
  5  6  2  0
  5  7  1  0
  7  8  2  0
  8  9  1  0
  9 10  1  0
 10 11  1  0
 11 12  2  0
 12 13  1  0
 13 14  2  0
 14 15  1  0
 15 16  2  0
  9 17  1  0
 17 18  2  0
 17 19  1  0
 19 20  2  0
 20 21  1  0
 21 22  2  0
 22 23  1  0
 23 24  2  0
  2 25  1  0
 25 26  1  0
 26 27  2  0
 27 28  1  0
 28 29  2  0
 29 30  1  0
 29 31  1  0
 31 32  1  0
 31 33  2  0
 33 34  1  0
 24  7  1  0
 33 26  1  0
 16 11  1  0
 24 19  1  0
  3 35  1  0
  3 36  1  0
  4 37  1  0
 10 38  1  0
 10 39  1  0
 12 40  1  0
 13 41  1  0
 14 42  1  0
 15 43  1  0
 16 44  1  0
 20 45  1  0
 21 46  1  0
 22 47  1  0
 23 48  1  0
 25 49  1  0
 27 50  1  0
 28 51  1  0
M  END
$$$$
