
     RDKit          3D

 49 52  0  0  0  0  0  0  0  0999 V2000
    2.3606    0.6099    2.1767 C   0  0  0  0  0  0  0  0  0  0  0  0
    3.4658   -0.1043    1.4456 C   0  0  0  0  0  0  0  0  0  0  0  0
    4.3085   -0.9477    2.1961 C   0  0  0  0  0  0  0  0  0  0  0  0
    5.3331   -1.6605    1.5794 C   0  0  0  0  0  0  0  0  0  0  0  0
    6.3556   -2.6795    2.5158 Cl  0  0  0  0  0  0  0  0  0  0  0  0
    5.5315   -1.5482    0.2107 C   0  0  0  0  0  0  0  0  0  0  0  0
    4.6954   -0.7217   -0.5477 C   0  0  0  0  0  0  0  0  0  0  0  0
    3.6516    0.0018    0.0483 C   0  0  0  0  0  0  0  0  0  0  0  0
    2.8038    0.8531   -0.7016 N   0  0  0  0  0  0  0  0  0  0  0  0
    2.7292    0.9639   -2.0819 C   0  0  0  0  0  0  0  0  0  0  0  0
    3.2896    0.2300   -2.8944 O   0  0  0  0  0  0  0  0  0  0  0  0
    1.8462    2.1099   -2.5578 C   0  0  0  0  0  0  0  0  0  0  0  0
    0.1508    1.5291   -2.8553 S   0  0  0  0  0  0  0  0  0  0  0  0
   -0.4209    1.3876   -1.2325 C   0  0  0  0  0  0  0  0  0  0  0  0
    0.1305    1.9537   -0.1855 N   0  0  0  0  0  0  0  0  0  0  0  0
   -0.5815    1.5663    0.9173 N   0  0  0  0  0  0  0  0  0  0  0  0
   -1.5434    0.7500    0.5293 C   0  0  0  0  0  0  0  0  0  0  0  0
   -2.5229    0.0679    1.4332 C   0  0  0  0  0  0  0  0  0  0  0  0
   -3.7859    0.8598    1.6333 C   0  0  0  0  0  0  0  0  0  0  0  0
   -5.0382    0.6457    1.0827 C   0  0  0  0  0  0  0  0  0  0  0  0
   -5.9978    1.6057    1.5232 C   0  0  0  0  0  0  0  0  0  0  0  0
   -5.4530    2.5072    2.4107 C   0  0  0  0  0  0  0  0  0  0  0  0
   -3.7967    2.2047    2.7002 S   0  0  0  0  0  0  0  0  0  0  0  0
   -1.4871    0.6256   -0.8448 N   0  0  0  0  0  0  0  0  0  0  0  0
   -2.3851   -0.1365   -1.6924 C   0  0  0  0  0  0  0  0  0  0  0  0
   -1.9979   -1.5693   -1.7098 C   0  0  0  0  0  0  0  0  0  0  0  0
   -0.8977   -2.2566   -2.1805 C   0  0  0  0  0  0  0  0  0  0  0  0
   -1.1183   -3.6197   -1.8733 C   0  0  0  0  0  0  0  0  0  0  0  0
   -2.3348   -3.6780   -1.2363 C   0  0  0  0  0  0  0  0  0  0  0  0
   -2.8818   -2.4400   -1.1414 O   0  0  0  0  0  0  0  0  0  0  0  0
    1.4027    0.1428    1.9327 H   0  0  0  0  0  0  0  0  0  0  0  0
    2.3446    1.6759    1.9239 H   0  0  0  0  0  0  0  0  0  0  0  0
    2.4918    0.5480    3.2627 H   0  0  0  0  0  0  0  0  0  0  0  0
    4.1630   -1.0449    3.2698 H   0  0  0  0  0  0  0  0  0  0  0  0
    6.3336   -2.0941   -0.2792 H   0  0  0  0  0  0  0  0  0  0  0  0
    4.9006   -0.6554   -1.6114 H   0  0  0  0  0  0  0  0  0  0  0  0
    2.0980    1.3702   -0.1790 H   0  0  0  0  0  0  0  0  0  0  0  0
    2.2579    2.4830   -3.5028 H   0  0  0  0  0  0  0  0  0  0  0  0
    1.8710    2.9481   -1.8523 H   0  0  0  0  0  0  0  0  0  0  0  0
   -2.0413   -0.1058    2.4040 H   0  0  0  0  0  0  0  0  0  0  0  0
   -2.7725   -0.9291    1.0529 H   0  0  0  0  0  0  0  0  0  0  0  0
   -5.2652   -0.1649    0.3955 H   0  0  0  0  0  0  0  0  0  0  0  0
   -7.0374    1.6254    1.2153 H   0  0  0  0  0  0  0  0  0  0  0  0
   -5.9472    3.3313    2.9100 H   0  0  0  0  0  0  0  0  0  0  0  0
   -2.3750    0.2808   -2.7028 H   0  0  0  0  0  0  0  0  0  0  0  0
   -3.4026   -0.0003   -1.3122 H   0  0  0  0  0  0  0  0  0  0  0  0
   -0.0362   -1.8314   -2.6797 H   0  0  0  0  0  0  0  0  0  0  0  0
   -0.4702   -4.4586   -2.0941 H   0  0  0  0  0  0  0  0  0  0  0  0
   -2.9245   -4.4833   -0.8205 H   0  0  0  0  0  0  0  0  0  0  0  0
  1  2  1  0
  2  3  2  0
  3  4  1  0
  4  5  1  0
  4  6  2  0
  6  7  1  0
  7  8  2  0
  8  9  1  0
  9 10  1  0
 10 11  2  0
 10 12  1  0
 12 13  1  0
 13 14  1  0
 14 15  2  0
 15 16  1  0
 16 17  2  0
 17 18  1  0
 18 19  1  0
 19 20  2  0
 20 21  1  0
 21 22  2  0
 22 23  1  0
 17 24  1  0
 24 25  1  0
 25 26  1  0
 26 27  2  0
 27 28  1  0
 28 29  2  0
 29 30  1  0
  8  2  1  0
 24 14  1  0
 30 26  1  0
 23 19  1  0
  1 31  1  0
  1 32  1  0
  1 33  1  0
  3 34  1  0
  6 35  1  0
  7 36  1  0
  9 37  1  0
 12 38  1  0
 12 39  1  0
 18 40  1  0
 18 41  1  0
 20 42  1  0
 21 43  1  0
 22 44  1  0
 25 45  1  0
 25 46  1  0
 27 47  1  0
 28 48  1  0
 29 49  1  0
M  END
$$$$
