
     RDKit          3D

 39 41  0  0  0  0  0  0  0  0999 V2000
   -1.5608   -1.5286   -0.0917 O   0  0  0  0  0  0  0  0  0  0  0  0
   -1.7601   -0.4308    0.4161 C   0  0  0  0  0  0  0  0  0  0  0  0
   -3.0998    0.3086    0.2852 C   0  0  0  0  0  0  0  0  0  0  0  0
   -4.0441   -0.4501   -0.4520 O   0  0  0  0  0  0  0  0  0  0  0  0
   -5.2808    0.1006   -0.6404 C   0  0  0  0  0  0  0  0  0  0  0  0
   -5.7081    1.3462   -0.1777 C   0  0  0  0  0  0  0  0  0  0  0  0
   -7.0089    1.7854   -0.4457 C   0  0  0  0  0  0  0  0  0  0  0  0
   -7.8856    0.9840   -1.1752 C   0  0  0  0  0  0  0  0  0  0  0  0
   -7.4637   -0.2593   -1.6390 C   0  0  0  0  0  0  0  0  0  0  0  0
   -6.1657   -0.6968   -1.3712 C   0  0  0  0  0  0  0  0  0  0  0  0
   -0.8559    0.2992    1.1651 N   0  0  0  0  0  0  0  0  0  0  0  0
    0.4365   -0.0495    1.4682 C   0  0  0  0  0  0  0  0  0  0  0  0
    1.1967    0.7114    2.2246 N   0  0  0  0  0  0  0  0  0  0  0  0
    2.4572    0.1789    2.4002 N   0  0  0  0  0  0  0  0  0  0  0  0
    2.6057   -0.9600    1.7514 C   0  0  0  0  0  0  0  0  0  0  0  0
    3.8527   -1.7811    1.7464 C   0  0  0  0  0  0  0  0  0  0  0  0
    4.3670   -1.8723    0.4144 O   0  0  0  0  0  0  0  0  0  0  0  0
    5.2392   -0.9128   -0.0189 C   0  0  0  0  0  0  0  0  0  0  0  0
    5.8708   -1.2106   -1.2301 C   0  0  0  0  0  0  0  0  0  0  0  0
    6.7836   -0.3195   -1.7969 C   0  0  0  0  0  0  0  0  0  0  0  0
    7.0664    0.8835   -1.1560 C   0  0  0  0  0  0  0  0  0  0  0  0
    6.4328    1.1928    0.0460 C   0  0  0  0  0  0  0  0  0  0  0  0
    5.5189    0.2986    0.6138 C   0  0  0  0  0  0  0  0  0  0  0  0
    1.1937   -1.4681    0.9130 S   0  0  0  0  0  0  0  0  0  0  0  0
   -2.8981    1.2578   -0.2264 H   0  0  0  0  0  0  0  0  0  0  0  0
   -3.4745    0.4887    1.3005 H   0  0  0  0  0  0  0  0  0  0  0  0
   -5.0605    2.0023    0.3925 H   0  0  0  0  0  0  0  0  0  0  0  0
   -7.3391    2.7562   -0.0843 H   0  0  0  0  0  0  0  0  0  0  0  0
   -8.8957    1.3278   -1.3821 H   0  0  0  0  0  0  0  0  0  0  0  0
   -8.1414   -0.8894   -2.2087 H   0  0  0  0  0  0  0  0  0  0  0  0
   -5.8388   -1.6683   -1.7351 H   0  0  0  0  0  0  0  0  0  0  0  0
   -1.1297    1.1846    1.5680 H   0  0  0  0  0  0  0  0  0  0  0  0
    3.6143   -2.8018    2.0682 H   0  0  0  0  0  0  0  0  0  0  0  0
    4.6011   -1.4088    2.4554 H   0  0  0  0  0  0  0  0  0  0  0  0
    5.6505   -2.1470   -1.7371 H   0  0  0  0  0  0  0  0  0  0  0  0
    7.2690   -0.5647   -2.7377 H   0  0  0  0  0  0  0  0  0  0  0  0
    7.7741    1.5819   -1.5948 H   0  0  0  0  0  0  0  0  0  0  0  0
    6.6439    2.1367    0.5426 H   0  0  0  0  0  0  0  0  0  0  0  0
    5.0371    0.5942    1.5401 H   0  0  0  0  0  0  0  0  0  0  0  0
  1  2  2  0
  2  3  1  0
  3  4  1  0
  4  5  1  0
  5  6  2  0
  6  7  1  0
  7  8  2  0
  8  9  1  0
  9 10  2  0
  2 11  1  0
 11 12  1  0
 12 13  2  0
 13 14  1  0
 14 15  2  0
 15 16  1  0
 16 17  1  0
 17 18  1  0
 18 19  2  0
 19 20  1  0
 20 21  2  0
 21 22  1  0
 22 23  2  0
 15 24  1  0
 10  5  1  0
 24 12  1  0
 23 18  1  0
  3 25  1  0
  3 26  1  0
  6 27  1  0
  7 28  1  0
  8 29  1  0
  9 30  1  0
 10 31  1  0
 11 32  1  0
 16 33  1  0
 16 34  1  0
 19 35  1  0
 20 36  1  0
 21 37  1  0
 22 38  1  0
 23 39  1  0
M  END
$$$$
