
     RDKit          3D

 47 49  0  0  0  0  0  0  0  0999 V2000
   -3.4030   -2.4326    2.4488 C   0  0  0  0  0  0  0  0  0  0  0  0
   -2.4540   -1.5510    1.6530 C   0  0  0  0  0  0  0  0  0  0  0  0
   -3.1110   -0.9825    0.4677 N   0  0  0  0  0  4  0  0  0  0  0  0
   -3.0692   -1.5538   -0.7292 C   0  0  0  0  0  0  0  0  0  0  0  0
   -2.3956   -2.7419   -1.1025 C   0  0  0  0  0  0  0  0  0  0  0  0
   -1.0645   -2.8263   -1.2616 C   0  0  0  0  0  0  0  0  0  0  0  0
   -0.0938   -1.7630   -1.0977 C   0  0  0  0  0  0  0  0  0  0  0  0
    1.2291   -1.9809   -1.1664 C   0  0  0  0  0  0  0  0  0  0  0  0
    2.2334   -0.9249   -0.9839 C   0  0  0  0  0  0  0  0  0  0  0  0
    2.0998    0.3447   -1.5443 C   0  0  0  0  0  0  0  0  0  0  0  0
    3.0988    1.3154   -1.3639 C   0  0  0  0  0  0  0  0  0  0  0  0
    4.2679    1.0663   -0.6248 C   0  0  0  0  0  0  0  0  0  0  0  0
    5.2630    2.0316   -0.4644 N   0  0  0  0  0  0  0  0  0  0  0  0
    4.9545    3.4363   -0.7248 C   0  0  0  0  0  0  0  0  0  0  0  0
    6.3840    1.7810    0.4398 C   0  0  0  0  0  0  0  0  0  0  0  0
    4.3900   -0.2314   -0.1002 C   0  0  0  0  0  0  0  0  0  0  0  0
    3.3982   -1.2099   -0.2734 C   0  0  0  0  0  0  0  0  0  0  0  0
   -4.0122   -0.6805   -1.8639 S   0  0  0  0  0  0  0  0  0  0  0  0
   -4.4330    0.5131   -0.7010 C   0  0  0  0  0  0  0  0  0  0  0  0
   -5.2300    1.6565   -0.8678 C   0  0  0  0  0  0  0  0  0  0  0  0
   -5.4430    2.4784    0.2413 C   0  0  0  0  0  0  0  0  0  0  0  0
   -4.8804    2.1718    1.4758 C   0  0  0  0  0  0  0  0  0  0  0  0
   -4.0845    1.0306    1.6365 C   0  0  0  0  0  0  0  0  0  0  0  0
   -3.8574    0.1909    0.5262 C   0  0  0  0  0  0  0  0  0  0  0  0
   -2.8968   -2.8400    3.3292 H   0  0  0  0  0  0  0  0  0  0  0  0
   -3.7605   -3.2689    1.8394 H   0  0  0  0  0  0  0  0  0  0  0  0
   -4.2786   -1.8687    2.7864 H   0  0  0  0  0  0  0  0  0  0  0  0
   -2.0712   -0.7387    2.2801 H   0  0  0  0  0  0  0  0  0  0  0  0
   -1.5740   -2.1330    1.3679 H   0  0  0  0  0  0  0  0  0  0  0  0
   -3.0035   -3.6196   -1.3172 H   0  0  0  0  0  0  0  0  0  0  0  0
   -0.6584   -3.7935   -1.5675 H   0  0  0  0  0  0  0  0  0  0  0  0
   -0.4512   -0.7532   -0.9132 H   0  0  0  0  0  0  0  0  0  0  0  0
    1.6300   -2.9783   -1.3371 H   0  0  0  0  0  0  0  0  0  0  0  0
    1.2368    0.5997   -2.1539 H   0  0  0  0  0  0  0  0  0  0  0  0
    2.9406    2.2768   -1.8436 H   0  0  0  0  0  0  0  0  0  0  0  0
    4.6903    3.5948   -1.7758 H   0  0  0  0  0  0  0  0  0  0  0  0
    4.1355    3.7826   -0.0845 H   0  0  0  0  0  0  0  0  0  0  0  0
    5.8192    4.0809   -0.5302 H   0  0  0  0  0  0  0  0  0  0  0  0
    6.9446    0.8894    0.1378 H   0  0  0  0  0  0  0  0  0  0  0  0
    7.1029    2.6076    0.4237 H   0  0  0  0  0  0  0  0  0  0  0  0
    6.0362    1.6651    1.4722 H   0  0  0  0  0  0  0  0  0  0  0  0
    5.2728   -0.5248    0.4605 H   0  0  0  0  0  0  0  0  0  0  0  0
    3.5610   -2.1953    0.1572 H   0  0  0  0  0  0  0  0  0  0  0  0
   -5.6743    1.9014   -1.8300 H   0  0  0  0  0  0  0  0  0  0  0  0
   -6.0595    3.3716    0.1357 H   0  0  0  0  0  0  0  0  0  0  0  0
   -5.0630    2.8301    2.3254 H   0  0  0  0  0  0  0  0  0  0  0  0
   -3.6662    0.8287    2.6184 H   0  0  0  0  0  0  0  0  0  0  0  0
  1  2  1  0
  2  3  1  0
  3  4  2  0
  4  5  1  0
  5  6  2  3
  6  7  1  0
  7  8  2  3
  8  9  1  0
  9 10  2  0
 10 11  1  0
 11 12  2  0
 12 13  1  0
 13 14  1  0
 13 15  1  0
 12 16  1  0
 16 17  2  0
  4 18  1  0
 18 19  1  0
 19 20  2  0
 20 21  1  0
 21 22  2  0
 22 23  1  0
 23 24  2  0
 24  3  1  0
 17  9  1  0
 24 19  1  0
  1 25  1  0
  1 26  1  0
  1 27  1  0
  2 28  1  0
  2 29  1  0
  5 30  1  0
  6 31  1  0
  7 32  1  0
  8 33  1  0
 10 34  1  0
 11 35  1  0
 14 36  1  0
 14 37  1  0
 14 38  1  0
 15 39  1  0
 15 40  1  0
 15 41  1  0
 16 42  1  0
 17 43  1  0
 20 44  1  0
 21 45  1  0
 22 46  1  0
 23 47  1  0
M  CHG  1   3   1
M  END
$$$$
