
     RDKit          3D

 54 58  0  0  0  0  0  0  0  0999 V2000
    0.8355    1.4291    2.6365 O   0  0  0  0  0  0  0  0  0  0  0  0
    1.4521    0.4798    2.1606 C   0  0  0  0  0  0  0  0  0  0  0  0
    0.8925   -0.9288    2.1904 C   0  0  0  0  0  0  0  0  0  0  0  0
    0.6216   -1.5978    0.5234 S   0  0  0  0  0  0  0  0  0  0  0  0
   -0.3584   -0.2934   -0.1344 C   0  0  0  0  0  0  0  0  0  0  0  0
    0.3173    0.6289   -0.7490 N   0  0  0  0  0  0  0  0  0  0  0  0
   -0.4546    1.6758   -1.2637 C   0  0  0  0  0  0  0  0  0  0  0  0
   -1.8107    1.6965   -1.1556 C   0  0  0  0  0  0  0  0  0  0  0  0
   -2.4924    3.0732   -1.8592 S   0  0  0  0  0  0  0  0  0  0  0  0
   -0.9399    3.6748   -2.3327 C   0  0  0  0  0  0  0  0  0  0  0  0
   -0.6677    4.8733   -3.0207 C   0  0  0  0  0  0  0  0  0  0  0  0
    0.6584    5.1916   -3.3247 C   0  0  0  0  0  0  0  0  0  0  0  0
    1.6929    4.3410   -2.9586 C   0  0  0  0  0  0  0  0  0  0  0  0
    1.4191    3.1527   -2.2759 C   0  0  0  0  0  0  0  0  0  0  0  0
    0.0871    2.8032   -1.9474 C   0  0  0  0  0  0  0  0  0  0  0  0
   -2.5558    0.6518   -0.5204 C   0  0  0  0  0  0  0  0  0  0  0  0
   -3.7842    0.6090   -0.4760 O   0  0  0  0  0  0  0  0  0  0  0  0
   -1.7416   -0.3500    0.0294 N   0  0  0  0  0  0  0  0  0  0  0  0
   -2.4535   -1.4732    0.6537 C   0  0  0  0  0  0  0  0  0  0  0  0
   -2.8204   -2.5525   -0.3724 C   0  0  0  0  0  0  0  0  0  0  0  0
   -3.5011   -3.7262    0.2840 C   0  0  0  0  0  0  0  0  0  0  0  0
   -4.8859   -3.7122    0.4969 C   0  0  0  0  0  0  0  0  0  0  0  0
   -5.5136   -4.7869    1.1278 C   0  0  0  0  0  0  0  0  0  0  0  0
   -4.7637   -5.8813    1.5541 C   0  0  0  0  0  0  0  0  0  0  0  0
   -3.3852   -5.9024    1.3506 C   0  0  0  0  0  0  0  0  0  0  0  0
   -2.7546   -4.8289    0.7199 C   0  0  0  0  0  0  0  0  0  0  0  0
    2.7019    0.5884    1.5968 N   0  0  0  0  0  0  0  0  0  0  0  0
    3.2911    1.8928    1.4032 C   0  0  0  0  0  0  0  0  0  0  0  0
    4.6588    1.7214    0.8595 C   0  0  0  0  0  0  0  0  0  0  0  0
    5.1805    1.7369   -0.4183 C   0  0  0  0  0  0  0  0  0  0  0  0
    6.5700    1.4995   -0.2866 C   0  0  0  0  0  0  0  0  0  0  0  0
    6.8075    1.3537    1.0597 C   0  0  0  0  0  0  0  0  0  0  0  0
    5.6538    1.4839    1.7631 O   0  0  0  0  0  0  0  0  0  0  0  0
    1.5901   -1.5771    2.7302 H   0  0  0  0  0  0  0  0  0  0  0  0
   -0.0524   -0.9227    2.7426 H   0  0  0  0  0  0  0  0  0  0  0  0
   -1.4744    5.5406   -3.3113 H   0  0  0  0  0  0  0  0  0  0  0  0
    0.8792    6.1152   -3.8554 H   0  0  0  0  0  0  0  0  0  0  0  0
    2.7205    4.5986   -3.2037 H   0  0  0  0  0  0  0  0  0  0  0  0
    2.2295    2.4866   -1.9946 H   0  0  0  0  0  0  0  0  0  0  0  0
   -3.3648   -1.0961    1.1355 H   0  0  0  0  0  0  0  0  0  0  0  0
   -1.8574   -1.9016    1.4644 H   0  0  0  0  0  0  0  0  0  0  0  0
   -3.4763   -2.1366   -1.1478 H   0  0  0  0  0  0  0  0  0  0  0  0
   -1.9258   -2.8987   -0.9048 H   0  0  0  0  0  0  0  0  0  0  0  0
   -5.4849   -2.8635    0.1718 H   0  0  0  0  0  0  0  0  0  0  0  0
   -6.5888   -4.7697    1.2866 H   0  0  0  0  0  0  0  0  0  0  0  0
   -5.2541   -6.7181    2.0447 H   0  0  0  0  0  0  0  0  0  0  0  0
   -2.8011   -6.7566    1.6831 H   0  0  0  0  0  0  0  0  0  0  0  0
   -1.6778   -4.8614    0.5696 H   0  0  0  0  0  0  0  0  0  0  0  0
    2.9877   -0.1490    0.9634 H   0  0  0  0  0  0  0  0  0  0  0  0
    3.3055    2.4258    2.3599 H   0  0  0  0  0  0  0  0  0  0  0  0
    2.6597    2.4578    0.7096 H   0  0  0  0  0  0  0  0  0  0  0  0
    4.6260    1.8979   -1.3318 H   0  0  0  0  0  0  0  0  0  0  0  0
    7.3085    1.4420   -1.0739 H   0  0  0  0  0  0  0  0  0  0  0  0
    7.6941    1.1628    1.6479 H   0  0  0  0  0  0  0  0  0  0  0  0
  1  2  2  0
  2  3  1  0
  3  4  1  0
  4  5  1  0
  5  6  2  0
  6  7  1  0
  7  8  2  0
  8  9  1  0
  9 10  1  0
 10 11  2  0
 11 12  1  0
 12 13  2  0
 13 14  1  0
 14 15  2  0
  8 16  1  0
 16 17  2  0
 16 18  1  0
 18 19  1  0
 19 20  1  0
 20 21  1  0
 21 22  2  0
 22 23  1  0
 23 24  2  0
 24 25  1  0
 25 26  2  0
  2 27  1  0
 27 28  1  0
 28 29  1  0
 29 30  2  0
 30 31  1  0
 31 32  2  0
 32 33  1  0
 18  5  1  0
 26 21  1  0
 33 29  1  0
 15  7  1  0
 15 10  1  0
  3 34  1  0
  3 35  1  0
 11 36  1  0
 12 37  1  0
 13 38  1  0
 14 39  1  0
 19 40  1  0
 19 41  1  0
 20 42  1  0
 20 43  1  0
 22 44  1  0
 23 45  1  0
 24 46  1  0
 25 47  1  0
 26 48  1  0
 27 49  1  0
 28 50  1  0
 28 51  1  0
 30 52  1  0
 31 53  1  0
 32 54  1  0
M  END
$$$$
