
     RDKit          3D

 52 55  0  0  0  0  0  0  0  0999 V2000
    6.1722   -0.6075    0.0699 C   0  0  0  0  0  0  0  0  0  0  0  0
    5.4003    0.5075   -0.4681 N   0  0  0  0  0  0  0  0  0  0  0  0
    4.4060    0.0652   -1.4659 C   0  0  0  0  0  0  0  0  0  0  0  0
    2.9680   -0.0552   -0.9128 C   0  0  0  0  0  0  0  0  0  0  0  0
    2.4355    1.2182   -0.3800 N   0  0  0  0  0  0  0  0  0  0  0  0
    1.3667    1.0148    0.6057 C   0  0  0  0  0  0  0  0  0  0  0  0
    0.1469    0.2876    0.0253 C   0  0  0  0  0  0  0  0  0  0  0  0
   -0.9889    0.2384    1.0578 C   0  0  0  0  0  0  0  0  0  0  0  0
   -2.1537   -0.5298    0.5600 N   0  0  0  0  0  0  0  0  0  0  0  0
   -2.2001   -1.9185    0.8836 C   0  0  0  0  0  0  0  0  0  0  0  0
   -1.0575   -2.6310    1.3165 C   0  0  0  0  0  0  0  0  0  0  0  0
   -1.0895   -3.9969    1.6240 C   0  0  0  0  0  0  0  0  0  0  0  0
   -2.2726   -4.7051    1.5051 C   0  0  0  0  0  0  0  0  0  0  0  0
   -3.4162   -4.0423    1.0762 C   0  0  0  0  0  0  0  0  0  0  0  0
   -3.3880   -2.6681    0.7636 C   0  0  0  0  0  0  0  0  0  0  0  0
   -4.9423   -1.9715    0.2601 S   0  0  0  0  0  0  0  0  0  0  0  0
   -4.4681   -0.3541   -0.3000 C   0  0  0  0  0  0  0  0  0  0  0  0
   -5.4798    0.3765   -0.9534 C   0  0  0  0  0  0  0  0  0  0  0  0
   -5.2491    1.6647   -1.4241 C   0  0  0  0  0  0  0  0  0  0  0  0
   -3.9958    2.2446   -1.2512 C   0  0  0  0  0  0  0  0  0  0  0  0
   -3.7011    3.6386   -1.7474 C   0  0  0  0  0  0  0  0  0  0  0  0
   -4.7268    4.1975   -2.4483 F   0  0  0  0  0  0  0  0  0  0  0  0
   -3.4300    4.5024   -0.7292 F   0  0  0  0  0  0  0  0  0  0  0  0
   -2.6178    3.6821   -2.5719 F   0  0  0  0  0  0  0  0  0  0  0  0
   -2.9901    1.5084   -0.5914 C   0  0  0  0  0  0  0  0  0  0  0  0
   -3.1896    0.2001   -0.0921 C   0  0  0  0  0  0  0  0  0  0  0  0
    3.5240    2.0684    0.1528 C   0  0  0  0  0  0  0  0  0  0  0  0
    4.7685    1.2812    0.6189 C   0  0  0  0  0  0  0  0  0  0  0  0
    6.9196   -0.2483    0.7860 H   0  0  0  0  0  0  0  0  0  0  0  0
    5.5375   -1.3459    0.5727 H   0  0  0  0  0  0  0  0  0  0  0  0
    6.7230   -1.1146   -0.7300 H   0  0  0  0  0  0  0  0  0  0  0  0
    4.7020   -0.8832   -1.9310 H   0  0  0  0  0  0  0  0  0  0  0  0
    4.4040    0.8015   -2.2802 H   0  0  0  0  0  0  0  0  0  0  0  0
    2.9678   -0.8322   -0.1360 H   0  0  0  0  0  0  0  0  0  0  0  0
    2.3129   -0.4018   -1.7205 H   0  0  0  0  0  0  0  0  0  0  0  0
    1.0277    1.9962    0.9622 H   0  0  0  0  0  0  0  0  0  0  0  0
    1.7456    0.4691    1.4796 H   0  0  0  0  0  0  0  0  0  0  0  0
   -0.1856    0.7972   -0.8860 H   0  0  0  0  0  0  0  0  0  0  0  0
    0.4200   -0.7278   -0.2803 H   0  0  0  0  0  0  0  0  0  0  0  0
   -0.6237   -0.1759    2.0068 H   0  0  0  0  0  0  0  0  0  0  0  0
   -1.2827    1.2555    1.3486 H   0  0  0  0  0  0  0  0  0  0  0  0
   -0.0902   -2.1499    1.4138 H   0  0  0  0  0  0  0  0  0  0  0  0
   -0.1835   -4.5009    1.9512 H   0  0  0  0  0  0  0  0  0  0  0  0
   -2.3088   -5.7648    1.7408 H   0  0  0  0  0  0  0  0  0  0  0  0
   -4.3429   -4.6059    0.9857 H   0  0  0  0  0  0  0  0  0  0  0  0
   -6.4656   -0.0631   -1.0977 H   0  0  0  0  0  0  0  0  0  0  0  0
   -6.0506    2.2044   -1.9254 H   0  0  0  0  0  0  0  0  0  0  0  0
   -2.0251    1.9999   -0.4994 H   0  0  0  0  0  0  0  0  0  0  0  0
    3.8258    2.7584   -0.6462 H   0  0  0  0  0  0  0  0  0  0  0  0
    3.1697    2.7082    0.9704 H   0  0  0  0  0  0  0  0  0  0  0  0
    5.5072    1.9836    1.0222 H   0  0  0  0  0  0  0  0  0  0  0  0
    4.4650    0.6238    1.4452 H   0  0  0  0  0  0  0  0  0  0  0  0
  1  2  1  0
  2  3  1  0
  3  4  1  0
  4  5  1  0
  5  6  1  0
  6  7  1  0
  7  8  1  0
  8  9  1  0
  9 10  1  0
 10 11  2  0
 11 12  1  0
 12 13  2  0
 13 14  1  0
 14 15  2  0
 15 16  1  0
 16 17  1  0
 17 18  2  0
 18 19  1  0
 19 20  2  0
 20 21  1  0
 21 22  1  0
 21 23  1  0
 21 24  1  0
 20 25  1  0
 25 26  2  0
  5 27  1  0
 27 28  1  0
 28  2  1  0
 26  9  1  0
 15 10  1  0
 26 17  1  0
  1 29  1  0
  1 30  1  0
  1 31  1  0
  3 32  1  0
  3 33  1  0
  4 34  1  0
  4 35  1  0
  6 36  1  0
  6 37  1  0
  7 38  1  0
  7 39  1  0
  8 40  1  0
  8 41  1  0
 11 42  1  0
 12 43  1  0
 13 44  1  0
 14 45  1  0
 18 46  1  0
 19 47  1  0
 25 48  1  0
 27 49  1  0
 27 50  1  0
 28 51  1  0
 28 52  1  0
M  END
$$$$
