
     RDKit          3D

 41 42  0  0  0  0  0  0  0  0999 V2000
    6.9369   -0.9281    0.1134 C   0  0  0  0  0  0  0  0  0  0  0  0
    5.6126   -0.4274    0.3008 O   0  0  0  0  0  0  0  0  0  0  0  0
    4.9307   -0.2158   -0.8581 C   0  0  0  0  0  0  0  0  0  0  0  0
    5.3841   -0.4366   -1.9741 O   0  0  0  0  0  0  0  0  0  0  0  0
    3.5815    0.2541   -0.5935 C   0  0  0  0  0  0  0  0  0  0  0  0
    2.5514    0.2678   -1.5228 C   0  0  0  0  0  0  0  0  0  0  0  0
    1.3807    0.7196   -0.8855 C   0  0  0  0  0  0  0  0  0  0  0  0
    1.6880    0.9907    0.4386 C   0  0  0  0  0  0  0  0  0  0  0  0
    0.6481    1.5353    1.7813 S   0  0  0  0  0  6  0  0  0  0  0  0
    0.9893    0.6719    2.8873 O   0  0  0  0  0  0  0  0  0  0  0  0
    0.8444    2.9648    1.8072 O   0  0  0  0  0  0  0  0  0  0  0  0
   -0.9355    1.2437    1.3266 N   0  0  0  0  0  0  0  0  0  0  0  0
   -1.3612   -0.1584    1.3049 C   0  0  0  0  0  0  0  0  0  0  0  0
   -2.7014   -0.3015    0.6255 C   0  0  0  0  0  0  0  0  0  0  0  0
   -2.8150   -0.9383   -0.6174 C   0  0  0  0  0  0  0  0  0  0  0  0
   -4.0588   -1.0540   -1.2497 C   0  0  0  0  0  0  0  0  0  0  0  0
   -5.2038   -0.5308   -0.6492 C   0  0  0  0  0  0  0  0  0  0  0  0
   -6.4722   -0.5750   -1.1580 O   0  0  0  0  0  0  0  0  0  0  0  0
   -6.6421   -1.2295   -2.4087 C   0  0  0  0  0  0  0  0  0  0  0  0
   -5.0928    0.1090    0.5868 C   0  0  0  0  0  0  0  0  0  0  0  0
   -3.8540    0.2254    1.2211 C   0  0  0  0  0  0  0  0  0  0  0  0
    3.0547    0.7871    0.5766 N   0  0  0  0  0  0  0  0  0  0  0  0
    3.8225    1.1283    1.7608 C   0  0  0  0  0  0  0  0  0  0  0  0
    6.9119   -1.9026   -0.3842 H   0  0  0  0  0  0  0  0  0  0  0  0
    7.3926   -1.0552    1.0993 H   0  0  0  0  0  0  0  0  0  0  0  0
    7.5402   -0.2147   -0.4568 H   0  0  0  0  0  0  0  0  0  0  0  0
    2.6474   -0.0508   -2.5550 H   0  0  0  0  0  0  0  0  0  0  0  0
    0.4021    0.8212   -1.3363 H   0  0  0  0  0  0  0  0  0  0  0  0
   -1.2115    1.7957    0.5162 H   0  0  0  0  0  0  0  0  0  0  0  0
   -1.4389   -0.5404    2.3293 H   0  0  0  0  0  0  0  0  0  0  0  0
   -0.6241   -0.7754    0.7799 H   0  0  0  0  0  0  0  0  0  0  0  0
   -1.9370   -1.3551   -1.1068 H   0  0  0  0  0  0  0  0  0  0  0  0
   -4.0979   -1.5583   -2.2096 H   0  0  0  0  0  0  0  0  0  0  0  0
   -7.7042   -1.1841   -2.6683 H   0  0  0  0  0  0  0  0  0  0  0  0
   -6.3602   -2.2856   -2.3434 H   0  0  0  0  0  0  0  0  0  0  0  0
   -6.0838   -0.7189   -3.2002 H   0  0  0  0  0  0  0  0  0  0  0  0
   -5.9803    0.5223    1.0605 H   0  0  0  0  0  0  0  0  0  0  0  0
   -3.7921    0.7340    2.1815 H   0  0  0  0  0  0  0  0  0  0  0  0
    4.7824    1.5514    1.4544 H   0  0  0  0  0  0  0  0  0  0  0  0
    3.9574    0.2213    2.3543 H   0  0  0  0  0  0  0  0  0  0  0  0
    3.3074    1.8930    2.3435 H   0  0  0  0  0  0  0  0  0  0  0  0
  1  2  1  0
  2  3  1  0
  3  4  2  0
  3  5  1  0
  5  6  2  0
  6  7  1  0
  7  8  2  0
  8  9  1  0
  9 10  2  0
  9 11  2  0
  9 12  1  0
 12 13  1  0
 13 14  1  0
 14 15  2  0
 15 16  1  0
 16 17  2  0
 17 18  1  0
 18 19  1  0
 17 20  1  0
 20 21  2  0
  8 22  1  0
 22 23  1  0
 22  5  1  0
 21 14  1  0
  1 24  1  0
  1 25  1  0
  1 26  1  0
  6 27  1  0
  7 28  1  0
 12 29  1  0
 13 30  1  0
 13 31  1  0
 15 32  1  0
 16 33  1  0
 19 34  1  0
 19 35  1  0
 19 36  1  0
 20 37  1  0
 21 38  1  0
 23 39  1  0
 23 40  1  0
 23 41  1  0
M  END
$$$$
