
     RDKit          3D

 53 56  0  0  0  0  0  0  0  0999 V2000
    5.7171   -1.5991   -3.0949 C   0  0  0  0  0  0  0  0  0  0  0  0
    5.1175   -2.1697   -1.9410 O   0  0  0  0  0  0  0  0  0  0  0  0
    4.4662   -1.3126   -1.0969 C   0  0  0  0  0  0  0  0  0  0  0  0
    4.4129    0.0737   -1.2161 C   0  0  0  0  0  0  0  0  0  0  0  0
    3.7006    0.8395   -0.2812 C   0  0  0  0  0  0  0  0  0  0  0  0
    3.0406    0.2299    0.7861 C   0  0  0  0  0  0  0  0  0  0  0  0
    2.2940    0.9245    1.7557 N   0  0  0  0  0  0  0  0  0  0  0  0
    2.0359    2.2859    1.8231 C   0  0  0  0  0  0  0  0  0  0  0  0
    2.5130    3.1434    1.0867 O   0  0  0  0  0  0  0  0  0  0  0  0
    1.1460    2.6778    2.9977 C   0  0  0  0  0  0  0  0  0  0  0  0
   -0.2389    1.5143    3.2202 S   0  0  0  0  0  0  0  0  0  0  0  0
   -1.3108    2.0516    1.9637 C   0  0  0  0  0  0  0  0  0  0  0  0
   -1.5486    3.3107    1.6857 N   0  0  0  0  0  0  0  0  0  0  0  0
   -2.5784    3.3562    0.7859 N   0  0  0  0  0  0  0  0  0  0  0  0
   -2.9467    2.1156    0.5134 C   0  0  0  0  0  0  0  0  0  0  0  0
   -3.9445    1.7406   -0.5325 C   0  0  0  0  0  0  0  0  0  0  0  0
   -3.3160    1.6294   -1.8942 C   0  0  0  0  0  0  0  0  0  0  0  0
   -3.1319    2.6351   -2.8249 C   0  0  0  0  0  0  0  0  0  0  0  0
   -2.4994    2.1628   -4.0121 C   0  0  0  0  0  0  0  0  0  0  0  0
   -2.2214    0.8149   -3.9505 C   0  0  0  0  0  0  0  0  0  0  0  0
   -2.7245    0.1250   -2.4671 S   0  0  0  0  0  0  0  0  0  0  0  0
   -2.1740    1.2339    1.2579 N   0  0  0  0  0  0  0  0  0  0  0  0
   -2.2500   -0.1789    1.2757 C   0  0  0  0  0  0  0  0  0  0  0  0
   -1.0996   -0.9396    1.0420 C   0  0  0  0  0  0  0  0  0  0  0  0
   -1.1772   -2.3346    1.0521 C   0  0  0  0  0  0  0  0  0  0  0  0
   -2.3981   -2.9775    1.2948 C   0  0  0  0  0  0  0  0  0  0  0  0
   -2.4697   -4.4778    1.3380 C   0  0  0  0  0  0  0  0  0  0  0  0
   -3.5399   -2.2044    1.5454 C   0  0  0  0  0  0  0  0  0  0  0  0
   -3.4726   -0.8090    1.5273 C   0  0  0  0  0  0  0  0  0  0  0  0
    3.1040   -1.1617    0.9088 C   0  0  0  0  0  0  0  0  0  0  0  0
    3.8117   -1.9245   -0.0266 C   0  0  0  0  0  0  0  0  0  0  0  0
    6.5338   -0.9261   -2.8174 H   0  0  0  0  0  0  0  0  0  0  0  0
    6.1420   -2.4135   -3.6900 H   0  0  0  0  0  0  0  0  0  0  0  0
    4.9752   -1.0848   -3.7163 H   0  0  0  0  0  0  0  0  0  0  0  0
    4.9142    0.5992   -2.0234 H   0  0  0  0  0  0  0  0  0  0  0  0
    3.6855    1.9143   -0.4212 H   0  0  0  0  0  0  0  0  0  0  0  0
    1.8294    0.3571    2.4559 H   0  0  0  0  0  0  0  0  0  0  0  0
    0.7763    3.6980    2.8567 H   0  0  0  0  0  0  0  0  0  0  0  0
    1.7617    2.6642    3.9030 H   0  0  0  0  0  0  0  0  0  0  0  0
   -4.4930    0.8251   -0.2845 H   0  0  0  0  0  0  0  0  0  0  0  0
   -4.7112    2.5282   -0.5680 H   0  0  0  0  0  0  0  0  0  0  0  0
   -3.4299    3.6639   -2.6618 H   0  0  0  0  0  0  0  0  0  0  0  0
   -2.2557    2.7823   -4.8683 H   0  0  0  0  0  0  0  0  0  0  0  0
   -1.7441    0.1998   -4.7033 H   0  0  0  0  0  0  0  0  0  0  0  0
   -0.1513   -0.4679    0.8009 H   0  0  0  0  0  0  0  0  0  0  0  0
   -0.2817   -2.9184    0.8529 H   0  0  0  0  0  0  0  0  0  0  0  0
   -2.1988   -4.8348    2.3371 H   0  0  0  0  0  0  0  0  0  0  0  0
   -3.4780   -4.8314    1.0994 H   0  0  0  0  0  0  0  0  0  0  0  0
   -1.7860   -4.9202    0.6042 H   0  0  0  0  0  0  0  0  0  0  0  0
   -4.4926   -2.6891    1.7609 H   0  0  0  0  0  0  0  0  0  0  0  0
   -4.3714   -0.2411    1.7538 H   0  0  0  0  0  0  0  0  0  0  0  0
    2.6094   -1.6743    1.7290 H   0  0  0  0  0  0  0  0  0  0  0  0
    3.8490   -3.0057    0.0788 H   0  0  0  0  0  0  0  0  0  0  0  0
  1  2  1  0
  2  3  1  0
  3  4  2  0
  4  5  1  0
  5  6  2  0
  6  7  1  0
  7  8  1  0
  8  9  2  0
  8 10  1  0
 10 11  1  0
 11 12  1  0
 12 13  2  0
 13 14  1  0
 14 15  2  0
 15 16  1  0
 16 17  1  0
 17 18  2  0
 18 19  1  0
 19 20  2  0
 20 21  1  0
 15 22  1  0
 22 23  1  0
 23 24  2  0
 24 25  1  0
 25 26  2  0
 26 27  1  0
 26 28  1  0
 28 29  2  0
  6 30  1  0
 30 31  2  0
 31  3  1  0
 22 12  1  0
 29 23  1  0
 21 17  1  0
  1 32  1  0
  1 33  1  0
  1 34  1  0
  4 35  1  0
  5 36  1  0
  7 37  1  0
 10 38  1  0
 10 39  1  0
 16 40  1  0
 16 41  1  0
 18 42  1  0
 19 43  1  0
 20 44  1  0
 24 45  1  0
 25 46  1  0
 27 47  1  0
 27 48  1  0
 27 49  1  0
 28 50  1  0
 29 51  1  0
 30 52  1  0
 31 53  1  0
M  END
$$$$
