
     RDKit          3D

 42 45  0  0  0  0  0  0  0  0999 V2000
    4.1107   -2.0653   -0.9494 O   0  0  0  0  0  0  0  0  0  0  0  0
    3.4452   -1.1358   -0.5005 C   0  0  0  0  0  0  0  0  0  0  0  0
    3.9994   -0.3825    0.6451 C   0  0  0  0  0  0  0  0  0  0  0  0
    4.1666    1.0075    0.5766 C   0  0  0  0  0  0  0  0  0  0  0  0
    4.7128    1.6953    1.6622 C   0  0  0  0  0  0  0  0  0  0  0  0
    5.1012    0.9920    2.8028 C   0  0  0  0  0  0  0  0  0  0  0  0
    4.9517   -0.3919    2.8465 C   0  0  0  0  0  0  0  0  0  0  0  0
    5.3367   -1.0592    3.9420 F   0  0  0  0  0  0  0  0  0  0  0  0
    4.4112   -1.0908    1.7754 C   0  0  0  0  0  0  0  0  0  0  0  0
    2.2083   -0.7648   -1.0173 N   0  0  0  0  0  0  0  0  0  0  0  0
    1.2421    0.1088   -0.3375 C   0  0  0  0  0  0  0  0  0  0  0  0
   -0.2176   -0.2931   -0.6087 C   0  0  0  0  0  0  0  0  0  0  0  0
   -0.5179   -0.4127   -2.0412 N   0  0  0  0  0  0  0  0  0  0  0  0
   -1.7365   -0.0540   -2.6273 C   0  0  0  0  0  0  0  0  0  0  0  0
   -1.8373    0.1079   -3.8432 O   0  0  0  0  0  0  0  0  0  0  0  0
   -2.9012    0.0949   -1.7373 C   0  0  0  0  0  0  0  0  0  0  0  0
   -3.3669   -0.8287   -0.7683 C   0  0  0  0  0  0  0  0  0  0  0  0
   -4.4877   -0.2585   -0.2167 C   0  0  0  0  0  0  0  0  0  0  0  0
   -5.3409   -0.6901    0.7608 N   0  0  0  0  0  0  0  0  0  0  0  0
   -6.3408    0.1019    1.0228 C   0  0  0  0  0  0  0  0  0  0  0  0
   -6.6222    1.4153    0.3652 C   0  0  0  0  0  0  0  0  0  0  0  0
   -8.0983    2.3995    0.8815 Br  0  0  0  0  0  0  0  0  0  0  0  0
   -5.7416    1.7808   -0.5748 C   0  0  0  0  0  0  0  0  0  0  0  0
   -4.6659    0.9573   -0.8808 N   0  0  0  0  0  0  0  0  0  0  0  0
   -3.6907    1.1821   -1.7882 N   0  0  0  0  0  0  0  0  0  0  0  0
    0.6115   -0.6939   -2.9305 C   0  0  0  0  0  0  0  0  0  0  0  0
    1.7403   -1.4504   -2.2251 C   0  0  0  0  0  0  0  0  0  0  0  0
    3.8914    1.5513   -0.3238 H   0  0  0  0  0  0  0  0  0  0  0  0
    4.8469    2.7733    1.6152 H   0  0  0  0  0  0  0  0  0  0  0  0
    5.5319    1.5104    3.6543 H   0  0  0  0  0  0  0  0  0  0  0  0
    4.3184   -2.1713    1.8238 H   0  0  0  0  0  0  0  0  0  0  0  0
    1.4164    1.1225   -0.7165 H   0  0  0  0  0  0  0  0  0  0  0  0
    1.4229    0.1095    0.7415 H   0  0  0  0  0  0  0  0  0  0  0  0
   -0.8826    0.4367   -0.1376 H   0  0  0  0  0  0  0  0  0  0  0  0
   -0.4133   -1.2764   -0.1654 H   0  0  0  0  0  0  0  0  0  0  0  0
   -2.9509   -1.7926   -0.5144 H   0  0  0  0  0  0  0  0  0  0  0  0
   -7.0581   -0.2063    1.8023 H   0  0  0  0  0  0  0  0  0  0  0  0
   -5.8056    2.7017   -1.1384 H   0  0  0  0  0  0  0  0  0  0  0  0
    0.2596   -1.2641   -3.7974 H   0  0  0  0  0  0  0  0  0  0  0  0
    0.9785    0.2734   -3.2953 H   0  0  0  0  0  0  0  0  0  0  0  0
    1.3895   -2.4415   -1.9116 H   0  0  0  0  0  0  0  0  0  0  0  0
    2.5829   -1.5981   -2.9098 H   0  0  0  0  0  0  0  0  0  0  0  0
  1  2  2  0
  2  3  1  0
  3  4  2  0
  4  5  1  0
  5  6  2  0
  6  7  1  0
  7  8  1  0
  7  9  2  0
  2 10  1  0
 10 11  1  0
 11 12  1  0
 12 13  1  0
 13 14  1  0
 14 15  2  0
 14 16  1  0
 16 17  1  0
 17 18  2  0
 18 19  1  0
 19 20  2  0
 20 21  1  0
 21 22  1  0
 21 23  2  0
 23 24  1  0
 24 25  1  0
 13 26  1  0
 26 27  1  0
  9  3  1  0
 27 10  1  0
 25 16  2  0
 24 18  1  0
  4 28  1  0
  5 29  1  0
  6 30  1  0
  9 31  1  0
 11 32  1  0
 11 33  1  0
 12 34  1  0
 12 35  1  0
 17 36  1  0
 20 37  1  0
 23 38  1  0
 26 39  1  0
 26 40  1  0
 27 41  1  0
 27 42  1  0
M  END
$$$$
