
     RDKit          3D

 37 39  0  0  0  0  0  0  0  0999 V2000
   -5.5571    4.4319   -0.0683 C   0  0  0  0  0  0  0  0  0  0  0  0
   -5.6012    3.3363    0.8378 O   0  0  0  0  0  0  0  0  0  0  0  0
   -4.6387    2.3770    0.6915 C   0  0  0  0  0  0  0  0  0  0  0  0
   -4.7169    1.3254    1.6055 C   0  0  0  0  0  0  0  0  0  0  0  0
   -3.7941    0.2720    1.5725 C   0  0  0  0  0  0  0  0  0  0  0  0
   -2.7673    0.2491    0.6183 C   0  0  0  0  0  0  0  0  0  0  0  0
   -1.7644   -0.8222    0.5232 C   0  0  0  0  0  0  0  0  0  0  0  0
   -0.8200   -0.8989   -0.3939 N   0  0  0  0  0  0  0  0  0  0  0  0
   -0.0506   -2.0211   -0.1797 C   0  0  0  0  0  0  0  0  0  0  0  0
    1.0094   -2.3404   -0.9865 N   0  0  0  0  0  0  0  0  0  0  0  0
    1.4677   -1.5950   -2.0449 C   0  0  0  0  0  0  0  0  0  0  0  0
    0.9574   -0.5603   -2.4719 O   0  0  0  0  0  0  0  0  0  0  0  0
    2.6527   -2.2021   -2.7875 C   0  0  0  0  0  0  0  0  0  0  0  0
    3.6813   -3.3251   -1.7937 S   0  0  0  0  0  0  0  0  0  0  0  0
    4.4994   -2.1938   -0.7416 C   0  0  0  0  0  0  0  0  0  0  0  0
    4.2933   -0.8978   -0.7890 N   0  0  0  0  0  0  0  0  0  0  0  0
    5.0480   -0.2163    0.1447 N   0  0  0  0  0  0  0  0  0  0  0  0
    5.7935   -1.0270    0.8654 C   0  0  0  0  0  0  0  0  0  0  0  0
    6.7119   -0.6005    1.9502 C   0  0  0  0  0  0  0  0  0  0  0  0
    5.6274   -2.6864    0.4510 S   0  0  0  0  0  0  0  0  0  0  0  0
   -0.3499   -2.8261    0.8405 N   0  0  0  0  0  0  0  0  0  0  0  0
   -1.6659   -2.1515    1.6101 S   0  0  0  0  0  0  0  0  0  0  0  0
   -2.7023    1.3145   -0.2966 C   0  0  0  0  0  0  0  0  0  0  0  0
   -3.6255    2.3681   -0.2628 C   0  0  0  0  0  0  0  0  0  0  0  0
   -6.3832    5.1049    0.1809 H   0  0  0  0  0  0  0  0  0  0  0  0
   -5.7009    4.0964   -1.1007 H   0  0  0  0  0  0  0  0  0  0  0  0
   -4.6245    4.9957    0.0389 H   0  0  0  0  0  0  0  0  0  0  0  0
   -5.5064    1.3247    2.3539 H   0  0  0  0  0  0  0  0  0  0  0  0
   -3.9076   -0.5188    2.3088 H   0  0  0  0  0  0  0  0  0  0  0  0
    1.4966   -3.1796   -0.7098 H   0  0  0  0  0  0  0  0  0  0  0  0
    2.2490   -2.7745   -3.6292 H   0  0  0  0  0  0  0  0  0  0  0  0
    3.2729   -1.3972   -3.1950 H   0  0  0  0  0  0  0  0  0  0  0  0
    6.4249   -1.0535    2.9044 H   0  0  0  0  0  0  0  0  0  0  0  0
    7.7436   -0.8858    1.7217 H   0  0  0  0  0  0  0  0  0  0  0  0
    6.6825    0.4870    2.0716 H   0  0  0  0  0  0  0  0  0  0  0  0
   -1.9172    1.3313   -1.0543 H   0  0  0  0  0  0  0  0  0  0  0  0
   -3.5181    3.1594   -0.9972 H   0  0  0  0  0  0  0  0  0  0  0  0
  1  2  1  0
  2  3  1  0
  3  4  2  0
  4  5  1  0
  5  6  2  0
  6  7  1  0
  7  8  2  0
  8  9  1  0
  9 10  1  0
 10 11  1  0
 11 12  2  0
 11 13  1  0
 13 14  1  0
 14 15  1  0
 15 16  2  0
 16 17  1  0
 17 18  2  0
 18 19  1  0
 18 20  1  0
  9 21  2  0
 21 22  1  0
  6 23  1  0
 23 24  2  0
 24  3  1  0
 22  7  1  0
 20 15  1  0
  1 25  1  0
  1 26  1  0
  1 27  1  0
  4 28  1  0
  5 29  1  0
 10 30  1  0
 13 31  1  0
 13 32  1  0
 19 33  1  0
 19 34  1  0
 19 35  1  0
 23 36  1  0
 24 37  1  0
M  END
$$$$
