
     RDKit          3D

 51 55  0  0  0  0  0  0  0  0999 V2000
   -6.9090    1.4665   -3.1304 C   0  0  0  0  0  0  0  0  0  0  0  0
   -6.3989    1.8170   -1.7606 C   0  0  0  0  0  0  0  0  0  0  0  0
   -7.0127    2.8296   -1.0124 C   0  0  0  0  0  0  0  0  0  0  0  0
   -6.5376    3.1622    0.2605 C   0  0  0  0  0  0  0  0  0  0  0  0
   -5.4551    2.4708    0.8052 C   0  0  0  0  0  0  0  0  0  0  0  0
   -4.8565    1.4311    0.0845 C   0  0  0  0  0  0  0  0  0  0  0  0
   -3.7073    0.7136    0.7042 C   0  0  0  0  0  0  0  0  0  0  0  0
   -2.9581    1.3380    1.4434 O   0  0  0  0  0  0  0  0  0  0  0  0
   -3.6375   -0.6288    0.4095 N   0  0  0  0  0  0  0  0  0  0  0  0
   -2.6384   -1.4184    0.9052 C   0  0  0  0  0  0  0  0  0  0  0  0
   -1.5702   -1.1079    1.5994 N   0  0  0  0  0  0  0  0  0  0  0  0
   -0.8193   -2.2251    1.9067 N   0  0  0  0  0  0  0  0  0  0  0  0
   -1.3617   -3.3301    1.4390 C   0  0  0  0  0  0  0  0  0  0  0  0
   -0.6486   -4.9050    1.6917 S   0  0  0  0  0  0  0  0  0  0  0  0
    0.7784   -4.4806    2.7269 C   0  0  0  0  0  0  0  0  0  0  0  0
    1.9421   -4.0035    1.8706 C   0  0  0  0  0  0  0  0  0  0  0  0
    2.7527   -4.8090    1.4154 O   0  0  0  0  0  0  0  0  0  0  0  0
    1.9633   -2.6324    1.6822 N   0  0  0  0  0  0  0  0  0  0  0  0
    2.9710   -1.8680    1.0532 C   0  0  0  0  0  0  0  0  0  0  0  0
    4.2240   -2.3852    0.7055 C   0  0  0  0  0  0  0  0  0  0  0  0
    5.2164   -1.5812    0.1191 C   0  0  0  0  0  0  0  0  0  0  0  0
    4.9356   -0.2262   -0.1235 C   0  0  0  0  0  0  0  0  0  0  0  0
    3.6795    0.2566    0.2244 C   0  0  0  0  0  0  0  0  0  0  0  0
    2.6784   -0.5168    0.8126 C   0  0  0  0  0  0  0  0  0  0  0  0
    3.5742    1.5790   -0.0856 O   0  0  0  0  0  0  0  0  0  0  0  0
    4.7676    1.9590   -0.6212 C   0  0  0  0  0  0  0  0  0  0  0  0
    5.0811    3.2439   -1.0617 C   0  0  0  0  0  0  0  0  0  0  0  0
    6.3722    3.4336   -1.5672 C   0  0  0  0  0  0  0  0  0  0  0  0
    7.2867    2.3786   -1.6315 C   0  0  0  0  0  0  0  0  0  0  0  0
    6.9398    1.0942   -1.1870 C   0  0  0  0  0  0  0  0  0  0  0  0
    5.6475    0.8825   -0.6676 C   0  0  0  0  0  0  0  0  0  0  0  0
   -2.8126   -3.0825    0.5585 S   0  0  0  0  0  0  0  0  0  0  0  0
   -5.3231    1.1115   -1.2036 C   0  0  0  0  0  0  0  0  0  0  0  0
   -7.4089    2.3225   -3.5966 H   0  0  0  0  0  0  0  0  0  0  0  0
   -6.0843    1.1743   -3.7874 H   0  0  0  0  0  0  0  0  0  0  0  0
   -7.6199    0.6403   -3.0635 H   0  0  0  0  0  0  0  0  0  0  0  0
   -7.8566    3.3795   -1.4225 H   0  0  0  0  0  0  0  0  0  0  0  0
   -7.0067    3.9657    0.8252 H   0  0  0  0  0  0  0  0  0  0  0  0
   -5.0799    2.7415    1.7873 H   0  0  0  0  0  0  0  0  0  0  0  0
   -4.3786   -1.0913   -0.0926 H   0  0  0  0  0  0  0  0  0  0  0  0
    1.1018   -5.3841    3.2576 H   0  0  0  0  0  0  0  0  0  0  0  0
    0.5272   -3.7427    3.4968 H   0  0  0  0  0  0  0  0  0  0  0  0
    1.1211   -2.1209    1.9441 H   0  0  0  0  0  0  0  0  0  0  0  0
    4.4777   -3.4239    0.8957 H   0  0  0  0  0  0  0  0  0  0  0  0
    6.1839   -2.0057   -0.1341 H   0  0  0  0  0  0  0  0  0  0  0  0
    1.7225   -0.0713    1.0636 H   0  0  0  0  0  0  0  0  0  0  0  0
    4.3595    4.0498   -1.0052 H   0  0  0  0  0  0  0  0  0  0  0  0
    6.6678    4.4211   -1.9171 H   0  0  0  0  0  0  0  0  0  0  0  0
    8.2845    2.5547   -2.0300 H   0  0  0  0  0  0  0  0  0  0  0  0
    7.6592    0.2811   -1.2367 H   0  0  0  0  0  0  0  0  0  0  0  0
   -4.8344    0.3422   -1.7966 H   0  0  0  0  0  0  0  0  0  0  0  0
  1  2  1  0
  2  3  2  0
  3  4  1  0
  4  5  2  0
  5  6  1  0
  6  7  1  0
  7  8  2  0
  7  9  1  0
  9 10  1  0
 10 11  2  0
 11 12  1  0
 12 13  2  0
 13 14  1  0
 14 15  1  0
 15 16  1  0
 16 17  2  0
 16 18  1  0
 18 19  1  0
 19 20  2  0
 20 21  1  0
 21 22  2  0
 22 23  1  0
 23 24  2  0
 23 25  1  0
 25 26  1  0
 26 27  2  0
 27 28  1  0
 28 29  2  0
 29 30  1  0
 30 31  2  0
 13 32  1  0
  6 33  2  0
 33  2  1  0
 32 10  1  0
 24 19  1  0
 31 26  1  0
 31 22  1  0
  1 34  1  0
  1 35  1  0
  1 36  1  0
  3 37  1  0
  4 38  1  0
  5 39  1  0
  9 40  1  0
 15 41  1  0
 15 42  1  0
 18 43  1  0
 20 44  1  0
 21 45  1  0
 24 46  1  0
 27 47  1  0
 28 48  1  0
 29 49  1  0
 30 50  1  0
 33 51  1  0
M  END
$$$$
