
     RDKit          3D

 63 65  0  0  0  0  0  0  0  0999 V2000
    0.7852    4.8092    4.0996 C   0  0  0  0  0  0  0  0  0  0  0  0
    1.5022    3.7845    3.4235 O   0  0  0  0  0  0  0  0  0  0  0  0
    0.9183    3.2580    2.3050 C   0  0  0  0  0  0  0  0  0  0  0  0
   -0.2877    3.6649    1.7373 C   0  0  0  0  0  0  0  0  0  0  0  0
   -0.7689    3.0313    0.5888 C   0  0  0  0  0  0  0  0  0  0  0  0
   -0.0490    1.9904    0.0023 C   0  0  0  0  0  0  0  0  0  0  0  0
    1.1613    1.5663    0.5625 C   0  0  0  0  0  0  0  0  0  0  0  0
    1.9345    0.4250   -0.0500 C   0  0  0  0  0  0  0  0  0  0  0  0
    1.2953   -0.8855    0.1029 N   0  0  0  0  0  0  0  0  0  0  0  0
    0.8928   -1.2922    1.4524 C   0  0  0  0  0  0  0  0  0  0  0  0
   -0.5694   -0.9214    1.7533 C   0  0  0  0  0  0  0  0  0  0  0  0
   -1.4426   -0.8259    0.8934 O   0  0  0  0  0  0  0  0  0  0  0  0
   -0.8278   -0.7500    3.1000 N   0  0  0  0  0  0  0  0  0  0  0  0
   -2.1080   -0.2299    3.5469 C   0  0  0  0  0  0  0  0  0  0  0  0
   -2.3307   -0.5340    5.0260 C   0  0  0  0  0  0  0  0  0  0  0  0
   -3.6342    0.0247    5.5675 C   0  0  0  0  0  0  0  0  0  0  0  0
   -3.3264    0.1188    7.0414 C   0  0  0  0  0  0  0  0  0  0  0  0
   -1.8775    0.5620    7.0370 C   0  0  0  0  0  0  0  0  0  0  0  0
   -1.2858    0.0655    5.8254 O   0  0  0  0  0  0  0  0  0  0  0  0
    1.0827   -1.7926   -0.9251 C   0  0  0  0  0  0  0  0  0  0  0  0
    0.6809   -2.9381   -0.7134 O   0  0  0  0  0  0  0  0  0  0  0  0
    1.3813   -1.3299   -2.3384 C   0  0  0  0  0  0  0  0  0  0  0  0
    1.0172   -2.4017   -3.3602 C   0  0  0  0  0  0  0  0  0  0  0  0
    1.2584   -1.9344   -4.7805 C   0  0  0  0  0  0  0  0  0  0  0  0
    1.7984   -0.8636   -5.0378 O   0  0  0  0  0  0  0  0  0  0  0  0
    0.8152   -2.8567   -5.7012 N   0  0  0  0  0  0  0  0  0  0  0  0
    0.8745   -2.7112   -7.0688 C   0  0  0  0  0  0  0  0  0  0  0  0
    1.3922   -1.6468   -7.8388 C   0  0  0  0  0  0  0  0  0  0  0  0
    1.1756   -2.0251   -9.1404 C   0  0  0  0  0  0  0  0  0  0  0  0
    1.4576   -1.4138  -10.4499 C   0  0  0  0  0  0  0  0  0  0  0  0
    0.5658   -3.2386   -9.1538 O   0  0  0  0  0  0  0  0  0  0  0  0
    0.3835   -3.6761   -7.8550 N   0  0  0  0  0  0  0  0  0  0  0  0
    1.6369    2.2149    1.7127 C   0  0  0  0  0  0  0  0  0  0  0  0
   -0.1806    4.4416    4.4629 H   0  0  0  0  0  0  0  0  0  0  0  0
    0.6588    5.6906    3.4618 H   0  0  0  0  0  0  0  0  0  0  0  0
    1.3771    5.1115    4.9680 H   0  0  0  0  0  0  0  0  0  0  0  0
   -0.8800    4.4669    2.1632 H   0  0  0  0  0  0  0  0  0  0  0  0
   -1.7157    3.3417    0.1536 H   0  0  0  0  0  0  0  0  0  0  0  0
   -0.4540    1.4907   -0.8760 H   0  0  0  0  0  0  0  0  0  0  0  0
    2.9204    0.3407    0.4269 H   0  0  0  0  0  0  0  0  0  0  0  0
    2.1351    0.6648   -1.0979 H   0  0  0  0  0  0  0  0  0  0  0  0
    1.5689   -0.8304    2.1800 H   0  0  0  0  0  0  0  0  0  0  0  0
    0.9807   -2.3781    1.5668 H   0  0  0  0  0  0  0  0  0  0  0  0
   -0.0475   -0.5502    3.7150 H   0  0  0  0  0  0  0  0  0  0  0  0
   -2.0780    0.8521    3.3731 H   0  0  0  0  0  0  0  0  0  0  0  0
   -2.9114   -0.6568    2.9369 H   0  0  0  0  0  0  0  0  0  0  0  0
   -2.2781   -1.6168    5.1993 H   0  0  0  0  0  0  0  0  0  0  0  0
   -4.4970   -0.6093    5.3433 H   0  0  0  0  0  0  0  0  0  0  0  0
   -3.8280    1.0282    5.1678 H   0  0  0  0  0  0  0  0  0  0  0  0
   -3.4136   -0.8724    7.5030 H   0  0  0  0  0  0  0  0  0  0  0  0
   -3.9812    0.8050    7.5845 H   0  0  0  0  0  0  0  0  0  0  0  0
   -1.3222    0.1801    7.8992 H   0  0  0  0  0  0  0  0  0  0  0  0
   -1.7947    1.6543    7.0230 H   0  0  0  0  0  0  0  0  0  0  0  0
    2.4489   -1.0981   -2.4168 H   0  0  0  0  0  0  0  0  0  0  0  0
    0.8015   -0.4225   -2.5413 H   0  0  0  0  0  0  0  0  0  0  0  0
   -0.0393   -2.6752   -3.2578 H   0  0  0  0  0  0  0  0  0  0  0  0
    1.6178   -3.3026   -3.1908 H   0  0  0  0  0  0  0  0  0  0  0  0
    0.3820   -3.7191   -5.3984 H   0  0  0  0  0  0  0  0  0  0  0  0
    1.8543   -0.7317   -7.4997 H   0  0  0  0  0  0  0  0  0  0  0  0
    0.6459   -1.6112  -11.1568 H   0  0  0  0  0  0  0  0  0  0  0  0
    2.3848   -1.8177  -10.8686 H   0  0  0  0  0  0  0  0  0  0  0  0
    1.5673   -0.3286  -10.3575 H   0  0  0  0  0  0  0  0  0  0  0  0
    2.5756    1.9045    2.1688 H   0  0  0  0  0  0  0  0  0  0  0  0
  1  2  1  0
  2  3  1  0
  3  4  2  0
  4  5  1  0
  5  6  2  0
  6  7  1  0
  7  8  1  0
  8  9  1  0
  9 10  1  0
 10 11  1  0
 11 12  2  0
 11 13  1  0
 13 14  1  0
 14 15  1  0
 15 16  1  0
 16 17  1  0
 17 18  1  0
 18 19  1  0
  9 20  1  0
 20 21  2  0
 20 22  1  0
 22 23  1  0
 23 24  1  0
 24 25  2  0
 24 26  1  0
 26 27  1  0
 27 28  1  0
 28 29  2  0
 29 30  1  0
 29 31  1  0
 31 32  1  0
  7 33  2  0
 33  3  1  0
 19 15  1  0
 32 27  2  0
  1 34  1  0
  1 35  1  0
  1 36  1  0
  4 37  1  0
  5 38  1  0
  6 39  1  0
  8 40  1  0
  8 41  1  0
 10 42  1  0
 10 43  1  0
 13 44  1  0
 14 45  1  0
 14 46  1  0
 15 47  1  0
 16 48  1  0
 16 49  1  0
 17 50  1  0
 17 51  1  0
 18 52  1  0
 18 53  1  0
 22 54  1  0
 22 55  1  0
 23 56  1  0
 23 57  1  0
 26 58  1  0
 28 59  1  0
 30 60  1  0
 30 61  1  0
 30 62  1  0
 33 63  1  0
M  END
$$$$
