
     RDKit          3D

 49 53  0  0  0  0  0  0  0  0999 V2000
    7.1097    0.7075    1.5606 C   0  0  0  0  0  0  0  0  0  0  0  0
    5.8432    0.2911    0.8793 C   0  0  0  0  0  0  0  0  0  0  0  0
    5.8965   -0.1136   -0.7799 S   0  0  0  0  0  0  0  0  0  0  0  0
    4.2370   -0.4678   -0.8228 C   0  0  0  0  0  0  0  0  0  0  0  0
    3.6815   -0.8856   -1.9749 N   0  0  0  0  0  0  0  0  0  0  0  0
    2.3800   -1.1290   -1.8578 C   0  0  0  0  0  0  0  0  0  0  0  0
    1.6251   -0.9826   -0.7621 N   0  0  0  0  0  0  0  0  0  0  0  0
    2.2182   -0.5661    0.3772 C   0  0  0  0  0  0  0  0  0  0  0  0
    1.2308   -0.4327    1.8398 S   0  0  0  0  0  0  0  0  0  0  0  0
   -0.3797    0.1843    1.1949 C   0  0  0  0  0  0  0  0  0  0  0  0
   -0.2108    1.4294    0.3280 C   0  0  0  0  0  0  0  0  0  0  0  0
   -1.2200   -0.9473    0.5555 C   0  0  0  0  0  0  0  0  0  0  0  0
   -0.9688   -2.1464    0.6768 O   0  0  0  0  0  0  0  0  0  0  0  0
   -2.3887   -0.4791   -0.0725 N   0  0  0  0  0  0  0  0  0  0  0  0
   -2.5102   -0.5530   -1.5017 C   0  0  0  0  0  0  0  0  0  0  0  0
   -1.5582   -1.2816   -2.2443 C   0  0  0  0  0  0  0  0  0  0  0  0
   -1.6086   -1.3617   -3.6403 C   0  0  0  0  0  0  0  0  0  0  0  0
   -2.6136   -0.7044   -4.3325 C   0  0  0  0  0  0  0  0  0  0  0  0
   -3.5631    0.0266   -3.6249 C   0  0  0  0  0  0  0  0  0  0  0  0
   -3.5204    0.1046   -2.2206 C   0  0  0  0  0  0  0  0  0  0  0  0
   -4.7521    1.1295   -1.4661 S   0  0  0  0  0  0  0  0  0  0  0  0
   -4.6083    0.6373    0.2263 C   0  0  0  0  0  0  0  0  0  0  0  0
   -5.6564    1.0283    1.0790 C   0  0  0  0  0  0  0  0  0  0  0  0
   -5.6420    0.7070    2.4337 C   0  0  0  0  0  0  0  0  0  0  0  0
   -4.5803   -0.0174    2.9482 C   0  0  0  0  0  0  0  0  0  0  0  0
   -3.5303   -0.4028    2.1083 C   0  0  0  0  0  0  0  0  0  0  0  0
   -3.5093   -0.0694    0.7350 C   0  0  0  0  0  0  0  0  0  0  0  0
    3.6002   -0.2769    0.3986 C   0  0  0  0  0  0  0  0  0  0  0  0
    4.5581    0.1895    1.4058 C   0  0  0  0  0  0  0  0  0  0  0  0
    4.2164    0.5169    2.8346 C   0  0  0  0  0  0  0  0  0  0  0  0
    7.1861    1.7992    1.5784 H   0  0  0  0  0  0  0  0  0  0  0  0
    7.9947    0.3087    1.0539 H   0  0  0  0  0  0  0  0  0  0  0  0
    7.1401    0.3422    2.5927 H   0  0  0  0  0  0  0  0  0  0  0  0
    1.8745   -1.4815   -2.7534 H   0  0  0  0  0  0  0  0  0  0  0  0
   -0.9122    0.4942    2.1001 H   0  0  0  0  0  0  0  0  0  0  0  0
    0.1773    1.1977   -0.6674 H   0  0  0  0  0  0  0  0  0  0  0  0
    0.4536    2.1617    0.8001 H   0  0  0  0  0  0  0  0  0  0  0  0
   -1.1722    1.9304    0.1760 H   0  0  0  0  0  0  0  0  0  0  0  0
   -0.7651   -1.8380   -1.7491 H   0  0  0  0  0  0  0  0  0  0  0  0
   -0.8667   -1.9479   -4.1781 H   0  0  0  0  0  0  0  0  0  0  0  0
   -2.6619   -0.7575   -5.4147 H   0  0  0  0  0  0  0  0  0  0  0  0
   -4.3411    0.5459   -4.1820 H   0  0  0  0  0  0  0  0  0  0  0  0
   -6.5038    1.5878    0.6859 H   0  0  0  0  0  0  0  0  0  0  0  0
   -6.4612    1.0118    3.0785 H   0  0  0  0  0  0  0  0  0  0  0  0
   -4.5656   -0.2955    3.9999 H   0  0  0  0  0  0  0  0  0  0  0  0
   -2.7444   -1.0096    2.5559 H   0  0  0  0  0  0  0  0  0  0  0  0
    5.0663    0.9458    3.3777 H   0  0  0  0  0  0  0  0  0  0  0  0
    3.9122   -0.3922    3.3711 H   0  0  0  0  0  0  0  0  0  0  0  0
    3.4134    1.2622    2.8782 H   0  0  0  0  0  0  0  0  0  0  0  0
  1  2  1  0
  2  3  1  0
  3  4  1  0
  4  5  2  0
  5  6  1  0
  6  7  2  0
  7  8  1  0
  8  9  1  0
  9 10  1  0
 10 11  1  0
 10 12  1  0
 12 13  2  0
 12 14  1  0
 14 15  1  0
 15 16  2  0
 16 17  1  0
 17 18  2  0
 18 19  1  0
 19 20  2  0
 20 21  1  0
 21 22  1  0
 22 23  2  0
 23 24  1  0
 24 25  2  0
 25 26  1  0
 26 27  2  0
  8 28  2  0
 28 29  1  0
 29 30  1  0
 29  2  2  0
 28  4  1  0
 27 14  1  0
 20 15  1  0
 27 22  1  0
  1 31  1  0
  1 32  1  0
  1 33  1  0
  6 34  1  0
 10 35  1  0
 11 36  1  0
 11 37  1  0
 11 38  1  0
 16 39  1  0
 17 40  1  0
 18 41  1  0
 19 42  1  0
 23 43  1  0
 24 44  1  0
 25 45  1  0
 26 46  1  0
 30 47  1  0
 30 48  1  0
 30 49  1  0
M  END
$$$$
