
     RDKit          3D

 61 66  0  0  0  0  0  0  0  0999 V2000
   -9.5657   -0.3133   -0.9628 F   0  0  0  0  0  0  0  0  0  0  0  0
   -8.2783   -0.6258   -1.1629 C   0  0  0  0  0  0  0  0  0  0  0  0
   -7.8166   -0.8240   -2.4579 C   0  0  0  0  0  0  0  0  0  0  0  0
   -6.4774   -1.1464   -2.6642 C   0  0  0  0  0  0  0  0  0  0  0  0
   -5.6129   -1.2694   -1.5726 C   0  0  0  0  0  0  0  0  0  0  0  0
   -6.0768   -1.0716   -0.2636 C   0  0  0  0  0  0  0  0  0  0  0  0
   -5.1417   -1.1974    0.9171 C   0  0  0  0  0  0  0  0  0  0  0  0
   -4.2301    0.0299    1.1204 C   0  0  0  0  0  0  0  0  0  0  0  0
   -3.1072    0.1313    0.1685 N   0  0  0  0  0  0  0  0  0  0  0  0
   -2.4256    1.4441    0.2676 C   0  0  0  0  0  0  0  0  0  0  0  0
   -1.1769    1.4654    1.1748 C   0  0  0  0  0  0  0  0  0  0  0  0
   -0.1530    0.4840    0.7414 N   0  0  0  0  0  0  0  0  0  0  0  0
    1.0673    0.9585    0.3342 C   0  0  0  0  0  0  0  0  0  0  0  0
    1.3532    2.0549   -0.4581 C   0  0  0  0  0  0  0  0  0  0  0  0
    2.7375    2.0515   -0.7291 C   0  0  0  0  0  0  0  0  0  0  0  0
    3.2822    0.9479   -0.1013 C   0  0  0  0  0  0  0  0  0  0  0  0
    4.6299    0.4215   -0.0640 C   0  0  0  0  0  0  0  0  0  0  0  0
    5.6923    0.9838   -0.9380 C   0  0  0  0  0  0  0  0  0  0  0  0
    6.9451    1.2654   -0.3807 C   0  0  0  0  0  0  0  0  0  0  0  0
    7.9648    1.7798   -1.1826 C   0  0  0  0  0  0  0  0  0  0  0  0
    7.7388    2.0004   -2.5417 C   0  0  0  0  0  0  0  0  0  0  0  0
    6.4977    1.6995   -3.1042 C   0  0  0  0  0  0  0  0  0  0  0  0
    5.4745    1.1851   -2.3057 C   0  0  0  0  0  0  0  0  0  0  0  0
    4.9421   -0.5530    0.7380 N   0  0  0  0  0  0  0  0  0  0  0  0
    3.9482   -1.1081    1.5674 C   0  0  0  0  0  0  0  0  0  0  0  0
    4.3332   -2.1252    2.4460 C   0  0  0  0  0  0  0  0  0  0  0  0
    3.4091   -2.7083    3.3139 C   0  0  0  0  0  0  0  0  0  0  0  0
    2.0873   -2.2690    3.3163 C   0  0  0  0  0  0  0  0  0  0  0  0
    1.6828   -1.2559    2.4441 C   0  0  0  0  0  0  0  0  0  0  0  0
    2.6057   -0.6905    1.5585 C   0  0  0  0  0  0  0  0  0  0  0  0
    2.2820    0.3469    0.6479 N   0  0  0  0  0  0  0  0  0  0  0  0
   -0.6976   -0.6231   -0.0906 C   0  0  0  0  0  0  0  0  0  0  0  0
   -2.1367   -0.9781    0.3421 C   0  0  0  0  0  0  0  0  0  0  0  0
   -7.4258   -0.7447   -0.0691 C   0  0  0  0  0  0  0  0  0  0  0  0
   -8.4999   -0.7234   -3.2945 H   0  0  0  0  0  0  0  0  0  0  0  0
   -6.1021   -1.2979   -3.6726 H   0  0  0  0  0  0  0  0  0  0  0  0
   -4.5672   -1.5115   -1.7506 H   0  0  0  0  0  0  0  0  0  0  0  0
   -5.7429   -1.3259    1.8272 H   0  0  0  0  0  0  0  0  0  0  0  0
   -4.5628   -2.1242    0.8279 H   0  0  0  0  0  0  0  0  0  0  0  0
   -4.8581    0.9272    1.0402 H   0  0  0  0  0  0  0  0  0  0  0  0
   -3.8409    0.0139    2.1471 H   0  0  0  0  0  0  0  0  0  0  0  0
   -2.1165    1.7231   -0.7484 H   0  0  0  0  0  0  0  0  0  0  0  0
   -3.1224    2.2299    0.5834 H   0  0  0  0  0  0  0  0  0  0  0  0
   -0.7739    2.4845    1.2180 H   0  0  0  0  0  0  0  0  0  0  0  0
   -1.4706    1.2107    2.2007 H   0  0  0  0  0  0  0  0  0  0  0  0
    0.6273    2.7553   -0.8486 H   0  0  0  0  0  0  0  0  0  0  0  0
    3.2682    2.7694   -1.3408 H   0  0  0  0  0  0  0  0  0  0  0  0
    7.1259    1.0844    0.6765 H   0  0  0  0  0  0  0  0  0  0  0  0
    8.9363    2.0023   -0.7484 H   0  0  0  0  0  0  0  0  0  0  0  0
    8.5358    2.3973   -3.1659 H   0  0  0  0  0  0  0  0  0  0  0  0
    6.3311    1.8566   -4.1670 H   0  0  0  0  0  0  0  0  0  0  0  0
    4.5218    0.9268   -2.7600 H   0  0  0  0  0  0  0  0  0  0  0  0
    5.3679   -2.4582    2.4525 H   0  0  0  0  0  0  0  0  0  0  0  0
    3.7254   -3.4952    3.9932 H   0  0  0  0  0  0  0  0  0  0  0  0
    1.3701   -2.7090    4.0047 H   0  0  0  0  0  0  0  0  0  0  0  0
    0.6550   -0.9163    2.4953 H   0  0  0  0  0  0  0  0  0  0  0  0
   -0.6919   -0.3413   -1.1522 H   0  0  0  0  0  0  0  0  0  0  0  0
   -0.0655   -1.5122    0.0161 H   0  0  0  0  0  0  0  0  0  0  0  0
   -2.0980   -1.2949    1.3931 H   0  0  0  0  0  0  0  0  0  0  0  0
   -2.4760   -1.8379   -0.2457 H   0  0  0  0  0  0  0  0  0  0  0  0
   -7.8274   -0.5795    0.9259 H   0  0  0  0  0  0  0  0  0  0  0  0
  1  2  1  0
  2  3  2  0
  3  4  1  0
  4  5  2  0
  5  6  1  0
  6  7  1  0
  7  8  1  0
  8  9  1  0
  9 10  1  0
 10 11  1  0
 11 12  1  0
 12 13  1  0
 13 14  2  0
 14 15  1  0
 15 16  2  0
 16 17  1  0
 17 18  1  0
 18 19  2  0
 19 20  1  0
 20 21  2  0
 21 22  1  0
 22 23  2  0
 17 24  2  0
 24 25  1  0
 25 26  2  0
 26 27  1  0
 27 28  2  0
 28 29  1  0
 29 30  2  0
 30 31  1  0
 12 32  1  0
 32 33  1  0
  6 34  2  0
 34  2  1  0
 33  9  1  0
 31 13  1  0
 31 16  1  0
 23 18  1  0
 30 25  1  0
  3 35  1  0
  4 36  1  0
  5 37  1  0
  7 38  1  0
  7 39  1  0
  8 40  1  0
  8 41  1  0
 10 42  1  0
 10 43  1  0
 11 44  1  0
 11 45  1  0
 14 46  1  0
 15 47  1  0
 19 48  1  0
 20 49  1  0
 21 50  1  0
 22 51  1  0
 23 52  1  0
 26 53  1  0
 27 54  1  0
 28 55  1  0
 29 56  1  0
 32 57  1  0
 32 58  1  0
 33 59  1  0
 33 60  1  0
 34 61  1  0
M  END
$$$$
