
     RDKit          3D

 38 40  0  0  0  0  0  0  0  0999 V2000
   -0.0359    2.6946    2.1732 S   0  0  0  0  0  0  0  0  0  0  0  0
    0.0800    1.3437    1.1804 C   0  0  0  0  0  0  0  0  0  0  0  0
    1.2780    0.8907    0.6656 N   0  0  0  0  0  0  0  0  0  0  0  0
    2.5814    1.5066    0.8633 C   0  0  0  0  0  0  0  0  0  0  0  0
    3.6590    0.6604    0.2377 C   0  0  0  0  0  0  0  0  0  0  0  0
    4.1838    0.9854   -1.0209 C   0  0  0  0  0  0  0  0  0  0  0  0
    5.1638    0.1823   -1.6067 C   0  0  0  0  0  0  0  0  0  0  0  0
    5.6226   -0.9552   -0.9446 C   0  0  0  0  0  0  0  0  0  0  0  0
    5.1008   -1.2933    0.3027 C   0  0  0  0  0  0  0  0  0  0  0  0
    4.1211   -0.4917    0.8902 C   0  0  0  0  0  0  0  0  0  0  0  0
   -1.0111    0.5576    0.7792 N   0  0  0  0  0  0  0  0  0  0  0  0
   -0.8861   -0.8933    0.5813 C   0  0  0  0  0  0  0  0  0  0  0  0
   -1.6666   -1.3424   -0.6503 C   0  0  0  0  0  0  0  0  0  0  0  0
   -3.0902   -0.8506   -0.6071 C   0  0  0  0  0  0  0  0  0  0  0  0
   -4.0752   -1.4872   -1.3746 C   0  0  0  0  0  0  0  0  0  0  0  0
   -5.3904   -1.0247   -1.3580 C   0  0  0  0  0  0  0  0  0  0  0  0
   -5.7304    0.0803   -0.5820 C   0  0  0  0  0  0  0  0  0  0  0  0
   -4.7538    0.7285    0.1744 C   0  0  0  0  0  0  0  0  0  0  0  0
   -3.4244    0.2783    0.1631 C   0  0  0  0  0  0  0  0  0  0  0  0
   -2.3946    1.0053    1.0030 C   0  0  0  0  0  0  0  0  0  0  0  0
    1.1852    0.3999   -0.2124 H   0  0  0  0  0  0  0  0  0  0  0  0
    2.7724    1.6265    1.9358 H   0  0  0  0  0  0  0  0  0  0  0  0
    2.5648    2.5069    0.4152 H   0  0  0  0  0  0  0  0  0  0  0  0
    3.8334    1.8678   -1.5522 H   0  0  0  0  0  0  0  0  0  0  0  0
    5.5698    0.4442   -2.5805 H   0  0  0  0  0  0  0  0  0  0  0  0
    6.3866   -1.5790   -1.4012 H   0  0  0  0  0  0  0  0  0  0  0  0
    5.4562   -2.1817    0.8181 H   0  0  0  0  0  0  0  0  0  0  0  0
    3.7150   -0.7684    1.8612 H   0  0  0  0  0  0  0  0  0  0  0  0
    0.1544   -1.2182    0.4992 H   0  0  0  0  0  0  0  0  0  0  0  0
   -1.2823   -1.3727    1.4865 H   0  0  0  0  0  0  0  0  0  0  0  0
   -1.1927   -0.9448   -1.5560 H   0  0  0  0  0  0  0  0  0  0  0  0
   -1.6458   -2.4368   -0.7066 H   0  0  0  0  0  0  0  0  0  0  0  0
   -3.8221   -2.3481   -1.9892 H   0  0  0  0  0  0  0  0  0  0  0  0
   -6.1501   -1.5257   -1.9522 H   0  0  0  0  0  0  0  0  0  0  0  0
   -6.7558    0.4404   -0.5685 H   0  0  0  0  0  0  0  0  0  0  0  0
   -5.0336    1.5933    0.7727 H   0  0  0  0  0  0  0  0  0  0  0  0
   -2.4609    2.0761    0.7804 H   0  0  0  0  0  0  0  0  0  0  0  0
   -2.6263    0.8450    2.0633 H   0  0  0  0  0  0  0  0  0  0  0  0
  1  2  2  0
  2  3  1  0
  3  4  1  0
  4  5  1  0
  5  6  2  0
  6  7  1  0
  7  8  2  0
  8  9  1  0
  9 10  2  0
  2 11  1  0
 11 12  1  0
 12 13  1  0
 13 14  1  0
 14 15  2  0
 15 16  1  0
 16 17  2  0
 17 18  1  0
 18 19  2  0
 19 20  1  0
 10  5  1  0
 20 11  1  0
 19 14  1  0
  3 21  1  0
  4 22  1  0
  4 23  1  0
  6 24  1  0
  7 25  1  0
  8 26  1  0
  9 27  1  0
 10 28  1  0
 12 29  1  0
 12 30  1  0
 13 31  1  0
 13 32  1  0
 15 33  1  0
 16 34  1  0
 17 35  1  0
 18 36  1  0
 20 37  1  0
 20 38  1  0
M  END
$$$$
