
     RDKit          3D

 36 38  0  0  0  0  0  0  0  0999 V2000
    6.2445   -0.0303    1.0124 C   0  0  0  0  0  0  0  0  0  0  0  0
    5.5068    0.2738   -0.2760 C   0  0  0  0  0  0  0  0  0  0  0  0
    4.0529    0.3593   -0.0022 N   0  0  0  0  0  4  0  0  0  0  0  0
    3.2873   -0.7526   -0.0901 C   0  0  0  0  0  0  0  0  0  0  0  0
    1.9202   -0.6939    0.1546 C   0  0  0  0  0  0  0  0  0  0  0  0
    1.3288    0.5243    0.4856 C   0  0  0  0  0  0  0  0  0  0  0  0
   -0.1029    0.6409    0.7817 C   0  0  0  0  0  0  0  0  0  0  0  0
   -1.0648    0.0550    0.0477 C   0  0  0  0  0  0  0  0  0  0  0  0
   -2.4732    0.1375    0.2870 C   0  0  0  0  0  0  0  0  0  0  0  0
   -3.0853    0.7553    1.3568 C   0  0  0  0  0  0  0  0  0  0  0  0
   -4.4409    0.6034    1.2155 N   0  0  0  0  0  0  0  0  0  0  0  0
   -4.7251   -0.1049    0.0713 C   0  0  0  0  0  0  0  0  0  0  0  0
   -5.9611   -0.4901   -0.4621 C   0  0  0  0  0  0  0  0  0  0  0  0
   -5.9551   -1.2141   -1.6570 C   0  0  0  0  0  0  0  0  0  0  0  0
   -4.7596   -1.5385   -2.2917 C   0  0  0  0  0  0  0  0  0  0  0  0
   -3.5320   -1.1458   -1.7447 C   0  0  0  0  0  0  0  0  0  0  0  0
   -3.5067   -0.4136   -0.5372 C   0  0  0  0  0  0  0  0  0  0  0  0
    2.1393    1.6529    0.5871 C   0  0  0  0  0  0  0  0  0  0  0  0
    3.5018    1.5491    0.3313 C   0  0  0  0  0  0  0  0  0  0  0  0
    5.9109   -0.9800    1.4428 H   0  0  0  0  0  0  0  0  0  0  0  0
    7.3208   -0.0970    0.8279 H   0  0  0  0  0  0  0  0  0  0  0  0
    6.0724    0.7516    1.7590 H   0  0  0  0  0  0  0  0  0  0  0  0
    5.8289    1.2273   -0.7080 H   0  0  0  0  0  0  0  0  0  0  0  0
    5.6671   -0.5088   -1.0251 H   0  0  0  0  0  0  0  0  0  0  0  0
    3.7797   -1.6858   -0.3493 H   0  0  0  0  0  0  0  0  0  0  0  0
    1.3272   -1.6049    0.0960 H   0  0  0  0  0  0  0  0  0  0  0  0
   -0.3635    1.2613    1.6362 H   0  0  0  0  0  0  0  0  0  0  0  0
   -0.7759   -0.5304   -0.8224 H   0  0  0  0  0  0  0  0  0  0  0  0
   -2.6926    1.2880    2.2117 H   0  0  0  0  0  0  0  0  0  0  0  0
   -5.1391    0.9559    1.8562 H   0  0  0  0  0  0  0  0  0  0  0  0
   -6.8961   -0.2390    0.0289 H   0  0  0  0  0  0  0  0  0  0  0  0
   -6.8997   -1.5275   -2.0967 H   0  0  0  0  0  0  0  0  0  0  0  0
   -4.7796   -2.1018   -3.2217 H   0  0  0  0  0  0  0  0  0  0  0  0
   -2.6111   -1.4067   -2.2557 H   0  0  0  0  0  0  0  0  0  0  0  0
    1.7152    2.6194    0.8545 H   0  0  0  0  0  0  0  0  0  0  0  0
    4.1605    2.4108    0.3950 H   0  0  0  0  0  0  0  0  0  0  0  0
  1  2  1  0
  2  3  1  0
  3  4  2  0
  4  5  1  0
  5  6  2  0
  6  7  1  0
  7  8  2  3
  8  9  1  0
  9 10  2  0
 10 11  1  0
 11 12  1  0
 12 13  2  0
 13 14  1  0
 14 15  2  0
 15 16  1  0
 16 17  2  0
  6 18  1  0
 18 19  2  0
 19  3  1  0
 17  9  1  0
 17 12  1  0
  1 20  1  0
  1 21  1  0
  1 22  1  0
  2 23  1  0
  2 24  1  0
  4 25  1  0
  5 26  1  0
  7 27  1  0
  8 28  1  0
 10 29  1  0
 11 30  1  0
 13 31  1  0
 14 32  1  0
 15 33  1  0
 16 34  1  0
 18 35  1  0
 19 36  1  0
M  CHG  1   3   1
M  END
$$$$
