
     RDKit          3D

 71 75  0  0  0  0  0  0  0  0999 V2000
   -3.1389    1.3382   -2.6266 C   0  0  0  0  0  0  0  0  0  0  0  0
   -3.5293    1.2126   -1.1835 C   0  0  0  0  0  0  0  0  0  0  0  0
   -4.8636    0.9983   -0.8391 C   0  0  0  0  0  0  0  0  0  0  0  0
   -5.2388    0.8874    0.5006 C   0  0  0  0  0  0  0  0  0  0  0  0
   -4.2899    0.9891    1.5306 C   0  0  0  0  0  0  0  0  0  0  0  0
   -4.7607    0.8588    2.9549 C   0  0  0  0  0  0  0  0  0  0  0  0
   -2.9320    1.1750    1.1959 C   0  0  0  0  0  0  0  0  0  0  0  0
   -1.8347    1.2785    2.2362 C   0  0  0  0  0  0  0  0  0  0  0  0
   -1.6242    0.0478    2.9745 N   0  0  0  0  0  0  0  0  0  0  0  0
   -1.6986    0.0433    4.3304 N   0  0  0  0  0  0  0  0  0  0  0  0
   -1.4143   -1.1878    4.7512 N   0  0  0  0  0  0  0  0  0  0  0  0
   -1.1498   -1.9399    3.6497 C   0  0  0  0  0  0  0  0  0  0  0  0
   -0.7958   -3.3272    3.5237 C   0  0  0  0  0  0  0  0  0  0  0  0
   -0.6455   -4.1202    4.4459 O   0  0  0  0  0  0  0  0  0  0  0  0
   -0.6369   -3.7072    2.1979 N   0  0  0  0  0  0  0  0  0  0  0  0
   -0.8062   -2.8499    1.1140 C   0  0  0  0  0  0  0  0  0  0  0  0
   -0.5632   -3.4886   -0.2452 C   0  0  0  0  0  0  0  0  0  0  0  0
   -1.4818   -2.9013   -1.3251 C   0  0  0  0  0  0  0  0  0  0  0  0
   -0.8337   -1.7247   -2.0415 C   0  0  0  0  0  0  0  0  0  0  0  0
    0.4203   -2.1445   -2.7093 N   0  0  0  0  0  0  0  0  0  0  0  0
    1.3126   -0.9310   -3.4943 S   0  0  0  0  0  6  0  0  0  0  0  0
    2.4167   -1.5471   -4.1975 O   0  0  0  0  0  0  0  0  0  0  0  0
    0.3814   -0.0579   -4.1773 O   0  0  0  0  0  0  0  0  0  0  0  0
    2.0038   -0.0005   -2.1366 C   0  0  0  0  0  0  0  0  0  0  0  0
    3.1991   -0.4225   -1.5441 C   0  0  0  0  0  0  0  0  0  0  0  0
    3.7220    0.2927   -0.4667 C   0  0  0  0  0  0  0  0  0  0  0  0
    3.0675    1.4461   -0.0188 C   0  0  0  0  0  0  0  0  0  0  0  0
    3.6964    2.3185    1.4054 S   0  0  0  0  0  6  0  0  0  0  0  0
    4.4466    1.3593    2.1869 O   0  0  0  0  0  0  0  0  0  0  0  0
    2.5823    3.0440    1.9796 O   0  0  0  0  0  0  0  0  0  0  0  0
    4.7823    3.4368    0.7303 N   0  0  0  0  0  0  0  0  0  0  0  0
    4.2082    4.5455   -0.0486 C   0  0  0  0  0  0  0  0  0  0  0  0
    6.0235    2.8965    0.1473 C   0  0  0  0  0  0  0  0  0  0  0  0
    1.8843    1.8816   -0.6262 C   0  0  0  0  0  0  0  0  0  0  0  0
    1.3597    1.1633   -1.7001 C   0  0  0  0  0  0  0  0  0  0  0  0
    1.1476   -3.2777   -2.0999 C   0  0  0  0  0  0  0  0  0  0  0  0
    0.9233   -3.3383   -0.5966 C   0  0  0  0  0  0  0  0  0  0  0  0
   -1.0903   -1.5816    1.2212 N   0  0  0  0  0  0  0  0  0  0  0  0
   -1.2656   -1.1863    2.5063 C   0  0  0  0  0  0  0  0  0  0  0  0
   -2.5748    1.2921   -0.1634 C   0  0  0  0  0  0  0  0  0  0  0  0
   -3.3057    0.3893   -3.1460 H   0  0  0  0  0  0  0  0  0  0  0  0
   -2.0823    1.6042   -2.7347 H   0  0  0  0  0  0  0  0  0  0  0  0
   -3.7282    2.1224   -3.1119 H   0  0  0  0  0  0  0  0  0  0  0  0
   -5.6247    0.9224   -1.6135 H   0  0  0  0  0  0  0  0  0  0  0  0
   -6.2889    0.7254    0.7375 H   0  0  0  0  0  0  0  0  0  0  0  0
   -5.8466    0.9825    3.0234 H   0  0  0  0  0  0  0  0  0  0  0  0
   -4.3180    1.6335    3.5855 H   0  0  0  0  0  0  0  0  0  0  0  0
   -4.5114   -0.1314    3.3464 H   0  0  0  0  0  0  0  0  0  0  0  0
   -2.0685    2.0808    2.9458 H   0  0  0  0  0  0  0  0  0  0  0  0
   -0.8703    1.5300    1.7790 H   0  0  0  0  0  0  0  0  0  0  0  0
   -0.4021   -4.6800    2.0666 H   0  0  0  0  0  0  0  0  0  0  0  0
   -0.7991   -4.5580   -0.1592 H   0  0  0  0  0  0  0  0  0  0  0  0
   -1.7034   -3.6841   -2.0621 H   0  0  0  0  0  0  0  0  0  0  0  0
   -2.4457   -2.5975   -0.9013 H   0  0  0  0  0  0  0  0  0  0  0  0
   -0.6362   -0.9143   -1.3366 H   0  0  0  0  0  0  0  0  0  0  0  0
   -1.5274   -1.3555   -2.8031 H   0  0  0  0  0  0  0  0  0  0  0  0
    3.7165   -1.3081   -1.9052 H   0  0  0  0  0  0  0  0  0  0  0  0
    4.6320   -0.0534    0.0211 H   0  0  0  0  0  0  0  0  0  0  0  0
    3.8897    4.2088   -1.0385 H   0  0  0  0  0  0  0  0  0  0  0  0
    4.9581    5.3328   -0.1762 H   0  0  0  0  0  0  0  0  0  0  0  0
    3.3607    4.9990    0.4746 H   0  0  0  0  0  0  0  0  0  0  0  0
    6.7477    3.7064   -0.0019 H   0  0  0  0  0  0  0  0  0  0  0  0
    5.8306    2.4263   -0.8219 H   0  0  0  0  0  0  0  0  0  0  0  0
    6.4917    2.1714    0.8184 H   0  0  0  0  0  0  0  0  0  0  0  0
    1.3684    2.7693   -0.2667 H   0  0  0  0  0  0  0  0  0  0  0  0
    0.4463    1.5055   -2.1828 H   0  0  0  0  0  0  0  0  0  0  0  0
    0.7947   -4.2014   -2.5741 H   0  0  0  0  0  0  0  0  0  0  0  0
    2.2208   -3.2241   -2.3020 H   0  0  0  0  0  0  0  0  0  0  0  0
    1.3416   -2.4371   -0.1305 H   0  0  0  0  0  0  0  0  0  0  0  0
    1.4821   -4.1818   -0.1735 H   0  0  0  0  0  0  0  0  0  0  0  0
   -1.5313    1.4455   -0.4287 H   0  0  0  0  0  0  0  0  0  0  0  0
  1  2  1  0
  2  3  2  0
  3  4  1  0
  4  5  2  0
  5  6  1  0
  5  7  1  0
  7  8  1  0
  8  9  1  0
  9 10  1  0
 10 11  2  0
 11 12  1  0
 12 13  1  0
 13 14  2  0
 13 15  1  0
 15 16  1  0
 16 17  1  0
 17 18  1  0
 18 19  1  0
 19 20  1  0
 20 21  1  0
 21 22  2  0
 21 23  2  0
 21 24  1  0
 24 25  2  0
 25 26  1  0
 26 27  2  0
 27 28  1  0
 28 29  2  0
 28 30  2  0
 28 31  1  0
 31 32  1  0
 31 33  1  0
 27 34  1  0
 34 35  2  0
 20 36  1  0
 36 37  1  0
 16 38  2  0
 38 39  1  0
  7 40  2  0
 40  2  1  0
 39  9  1  0
 39 12  2  0
 37 17  1  0
 35 24  1  0
  1 41  1  0
  1 42  1  0
  1 43  1  0
  3 44  1  0
  4 45  1  0
  6 46  1  0
  6 47  1  0
  6 48  1  0
  8 49  1  0
  8 50  1  0
 15 51  1  0
 17 52  1  0
 18 53  1  0
 18 54  1  0
 19 55  1  0
 19 56  1  0
 25 57  1  0
 26 58  1  0
 32 59  1  0
 32 60  1  0
 32 61  1  0
 33 62  1  0
 33 63  1  0
 33 64  1  0
 34 65  1  0
 35 66  1  0
 36 67  1  0
 36 68  1  0
 37 69  1  0
 37 70  1  0
 40 71  1  0
M  END
$$$$
