
     RDKit          3D

 36 35  0  0  0  0  0  0  0  0999 V2000
    2.8104   -1.7836   -3.0578 C   0  0  0  0  0  0  0  0  0  0  0  0
    2.1609   -0.5654   -2.4143 C   0  0  0  0  0  0  0  0  0  0  0  0
    1.8737   -0.7496   -0.9779 N   0  0  0  0  0  0  0  0  0  0  0  0
    2.8603   -0.1545   -0.0573 C   0  0  0  0  0  0  0  0  0  0  0  0
    4.1079   -1.0034    0.1294 C   0  0  0  0  0  0  0  0  0  0  0  0
    0.8128   -1.5503   -0.4982 C   0  0  0  0  0  0  0  0  0  0  0  0
    0.6523   -2.1059    1.0881 S   0  0  0  0  0  0  0  0  0  0  0  0
   -0.4406   -2.0191   -1.6638 S   0  0  0  0  0  0  0  0  0  0  0  0
   -1.5745   -0.2927   -1.7736 S   0  0  0  0  0  0  0  0  0  0  0  0
   -2.6086   -0.4473   -0.3362 C   0  0  0  0  0  0  0  0  0  0  0  0
   -3.9302   -1.4960   -0.4125 S   0  0  0  0  0  0  0  0  0  0  0  0
   -2.2656    0.3527    0.7757 N   0  0  0  0  0  0  0  0  0  0  0  0
   -1.3045    1.4698    0.7094 C   0  0  0  0  0  0  0  0  0  0  0  0
   -1.8882    2.7210    0.0667 C   0  0  0  0  0  0  0  0  0  0  0  0
   -2.9183    0.1603    2.0844 C   0  0  0  0  0  0  0  0  0  0  0  0
   -4.0962    1.0942    2.3135 C   0  0  0  0  0  0  0  0  0  0  0  0
    3.7744   -2.0149   -2.5977 H   0  0  0  0  0  0  0  0  0  0  0  0
    2.1847   -2.6761   -2.9708 H   0  0  0  0  0  0  0  0  0  0  0  0
    2.9845   -1.5963   -4.1222 H   0  0  0  0  0  0  0  0  0  0  0  0
    1.2412   -0.3163   -2.9492 H   0  0  0  0  0  0  0  0  0  0  0  0
    2.8182    0.3032   -2.5361 H   0  0  0  0  0  0  0  0  0  0  0  0
    2.3977    0.0295    0.9171 H   0  0  0  0  0  0  0  0  0  0  0  0
    3.1350    0.8355   -0.4400 H   0  0  0  0  0  0  0  0  0  0  0  0
    3.8621   -2.0293    0.4184 H   0  0  0  0  0  0  0  0  0  0  0  0
    4.6983   -1.0439   -0.7902 H   0  0  0  0  0  0  0  0  0  0  0  0
    4.7439   -0.5703    0.9080 H   0  0  0  0  0  0  0  0  0  0  0  0
   -0.9624    1.7078    1.7230 H   0  0  0  0  0  0  0  0  0  0  0  0
   -0.4113    1.1605    0.1604 H   0  0  0  0  0  0  0  0  0  0  0  0
   -1.1296    3.5089    0.0240 H   0  0  0  0  0  0  0  0  0  0  0  0
   -2.7377    3.1054    0.6371 H   0  0  0  0  0  0  0  0  0  0  0  0
   -2.2372    2.5330   -0.9525 H   0  0  0  0  0  0  0  0  0  0  0  0
   -3.2518   -0.8764    2.1893 H   0  0  0  0  0  0  0  0  0  0  0  0
   -2.1676    0.3047    2.8703 H   0  0  0  0  0  0  0  0  0  0  0  0
   -4.8232    1.0372    1.4981 H   0  0  0  0  0  0  0  0  0  0  0  0
   -3.7652    2.1329    2.3983 H   0  0  0  0  0  0  0  0  0  0  0  0
   -4.6058    0.8346    3.2468 H   0  0  0  0  0  0  0  0  0  0  0  0
  1  2  1  0
  2  3  1  0
  3  4  1  0
  4  5  1  0
  3  6  1  0
  6  7  2  0
  6  8  1  0
  8  9  1  0
  9 10  1  0
 10 11  2  0
 10 12  1  0
 12 13  1  0
 13 14  1  0
 12 15  1  0
 15 16  1  0
  1 17  1  0
  1 18  1  0
  1 19  1  0
  2 20  1  0
  2 21  1  0
  4 22  1  0
  4 23  1  0
  5 24  1  0
  5 25  1  0
  5 26  1  0
 13 27  1  0
 13 28  1  0
 14 29  1  0
 14 30  1  0
 14 31  1  0
 15 32  1  0
 15 33  1  0
 16 34  1  0
 16 35  1  0
 16 36  1  0
M  END
$$$$
