
     RDKit          3D

 44 46  0  0  0  0  0  0  0  0999 V2000
    8.3867   -1.0536    1.3350 C   0  0  0  0  0  0  0  0  0  0  0  0
    6.9358   -1.3185    1.0585 C   0  0  0  0  0  0  0  0  0  0  0  0
    6.5363   -1.8472   -0.1746 C   0  0  0  0  0  0  0  0  0  0  0  0
    5.1899   -2.1259   -0.4218 C   0  0  0  0  0  0  0  0  0  0  0  0
    4.2266   -1.8798    0.5627 C   0  0  0  0  0  0  0  0  0  0  0  0
    2.8029   -2.1926    0.2565 C   0  0  0  0  0  0  0  0  0  0  0  0
    2.5172   -3.0147   -0.6066 O   0  0  0  0  0  0  0  0  0  0  0  0
    1.8530   -1.4799    0.9607 N   0  0  0  0  0  0  0  0  0  0  0  0
    0.4506   -1.5777    0.5822 C   0  0  0  0  0  0  0  0  0  0  0  0
    0.1138   -0.5538   -0.4940 C   0  0  0  0  0  0  0  0  0  0  0  0
    0.7442    0.4794   -0.6922 O   0  0  0  0  0  0  0  0  0  0  0  0
   -1.0202   -0.9201   -1.1485 O   0  0  0  0  0  0  0  0  0  0  0  0
   -1.4617   -0.0038   -2.1627 C   0  0  0  0  0  0  0  0  0  0  0  0
   -2.3007    1.0999   -1.6003 C   0  0  0  0  0  0  0  0  0  0  0  0
   -1.8757    2.3746   -1.2849 C   0  0  0  0  0  0  0  0  0  0  0  0
   -3.1754    3.2915   -0.6619 S   0  0  0  0  0  0  0  0  0  0  0  0
   -4.2314    1.9389   -0.8470 C   0  0  0  0  0  0  0  0  0  0  0  0
   -5.6606    1.9943   -0.4703 C   0  0  0  0  0  0  0  0  0  0  0  0
   -6.2985    3.1554   -0.0021 C   0  0  0  0  0  0  0  0  0  0  0  0
   -7.6561    3.1456    0.3388 C   0  0  0  0  0  0  0  0  0  0  0  0
   -8.4009    1.9758    0.2174 C   0  0  0  0  0  0  0  0  0  0  0  0
   -7.7911    0.8142   -0.2453 C   0  0  0  0  0  0  0  0  0  0  0  0
   -6.4353    0.8257   -0.5854 C   0  0  0  0  0  0  0  0  0  0  0  0
   -3.6443    0.8640   -1.3438 N   0  0  0  0  0  0  0  0  0  0  0  0
    4.6248   -1.3789    1.8079 C   0  0  0  0  0  0  0  0  0  0  0  0
    5.9733   -1.1021    2.0525 C   0  0  0  0  0  0  0  0  0  0  0  0
    8.9107   -0.7590    0.4196 H   0  0  0  0  0  0  0  0  0  0  0  0
    8.5046   -0.2359    2.0537 H   0  0  0  0  0  0  0  0  0  0  0  0
    8.8603   -1.9527    1.7410 H   0  0  0  0  0  0  0  0  0  0  0  0
    7.2707   -2.0483   -0.9518 H   0  0  0  0  0  0  0  0  0  0  0  0
    4.8940   -2.5356   -1.3856 H   0  0  0  0  0  0  0  0  0  0  0  0
    2.1451   -0.5966    1.3606 H   0  0  0  0  0  0  0  0  0  0  0  0
    0.2347   -2.5866    0.2178 H   0  0  0  0  0  0  0  0  0  0  0  0
   -0.1510   -1.3627    1.4694 H   0  0  0  0  0  0  0  0  0  0  0  0
   -2.0652   -0.5847   -2.8695 H   0  0  0  0  0  0  0  0  0  0  0  0
   -0.6125    0.3875   -2.7366 H   0  0  0  0  0  0  0  0  0  0  0  0
   -0.8828    2.7920   -1.3820 H   0  0  0  0  0  0  0  0  0  0  0  0
   -5.7586    4.0924    0.1064 H   0  0  0  0  0  0  0  0  0  0  0  0
   -8.1303    4.0554    0.6988 H   0  0  0  0  0  0  0  0  0  0  0  0
   -9.4550    1.9699    0.4820 H   0  0  0  0  0  0  0  0  0  0  0  0
   -8.3662   -0.1028   -0.3439 H   0  0  0  0  0  0  0  0  0  0  0  0
   -5.9781   -0.0951   -0.9461 H   0  0  0  0  0  0  0  0  0  0  0  0
    3.9060   -1.2251    2.6074 H   0  0  0  0  0  0  0  0  0  0  0  0
    6.2702   -0.7229    3.0283 H   0  0  0  0  0  0  0  0  0  0  0  0
  1  2  1  0
  2  3  2  0
  3  4  1  0
  4  5  2  0
  5  6  1  0
  6  7  2  0
  6  8  1  0
  8  9  1  0
  9 10  1  0
 10 11  2  0
 10 12  1  0
 12 13  1  0
 13 14  1  0
 14 15  2  0
 15 16  1  0
 16 17  1  0
 17 18  1  0
 18 19  2  0
 19 20  1  0
 20 21  2  0
 21 22  1  0
 22 23  2  0
 17 24  2  0
  5 25  1  0
 25 26  2  0
 26  2  1  0
 24 14  1  0
 23 18  1  0
  1 27  1  0
  1 28  1  0
  1 29  1  0
  3 30  1  0
  4 31  1  0
  8 32  1  0
  9 33  1  0
  9 34  1  0
 13 35  1  0
 13 36  1  0
 15 37  1  0
 19 38  1  0
 20 39  1  0
 21 40  1  0
 22 41  1  0
 23 42  1  0
 25 43  1  0
 26 44  1  0
M  END
$$$$
