
     RDKit          3D

 59 62  0  0  0  0  0  0  0  0999 V2000
    7.9798   -0.3622    4.2119 C   0  0  0  0  0  0  0  0  0  0  0  0
    6.8743    0.5040    4.4269 O   0  0  0  0  0  0  0  0  0  0  0  0
    6.1124    0.8218    3.3363 C   0  0  0  0  0  0  0  0  0  0  0  0
    6.3474    0.4075    2.0219 C   0  0  0  0  0  0  0  0  0  0  0  0
    5.4861    0.8019    0.9869 C   0  0  0  0  0  0  0  0  0  0  0  0
    4.3772    1.6149    1.2586 C   0  0  0  0  0  0  0  0  0  0  0  0
    3.4213    2.0613    0.1963 C   0  0  0  0  0  0  0  0  0  0  0  0
    2.4901    2.8126    0.4844 O   0  0  0  0  0  0  0  0  0  0  0  0
    3.5991    1.6079   -1.2357 C   0  0  0  0  0  0  0  0  0  0  0  0
    3.0429   -0.0882   -1.5482 S   0  0  0  0  0  0  0  0  0  0  0  0
    1.7491   -0.2613   -0.4210 C   0  0  0  0  0  0  0  0  0  0  0  0
    1.8740   -0.7812    0.7729 N   0  0  0  0  0  0  0  0  0  0  0  0
    0.6477   -0.7198    1.3843 N   0  0  0  0  0  0  0  0  0  0  0  0
   -0.2013   -0.1598    0.5470 C   0  0  0  0  0  0  0  0  0  0  0  0
   -1.6400    0.1348    0.8192 C   0  0  0  0  0  0  0  0  0  0  0  0
   -2.5553   -0.5484   -0.0898 N   0  0  0  0  0  0  0  0  0  0  0  0
   -3.9427   -0.4052    0.0557 C   0  0  0  0  0  0  0  0  0  0  0  0
   -4.5209    0.6216    0.8073 C   0  0  0  0  0  0  0  0  0  0  0  0
   -5.9092    0.7727    0.8991 C   0  0  0  0  0  0  0  0  0  0  0  0
   -6.7631   -0.0785    0.2046 C   0  0  0  0  0  0  0  0  0  0  0  0
   -8.2509    0.0630    0.3350 C   0  0  0  0  0  0  0  0  0  0  0  0
   -6.2036   -1.0890   -0.5803 C   0  0  0  0  0  0  0  0  0  0  0  0
   -4.8087   -1.2465   -0.6786 C   0  0  0  0  0  0  0  0  0  0  0  0
   -4.2750   -2.3370   -1.5717 C   0  0  0  0  0  0  0  0  0  0  0  0
    0.4521    0.1128   -0.6346 N   0  0  0  0  0  0  0  0  0  0  0  0
   -0.1258    0.6765   -1.8381 C   0  0  0  0  0  0  0  0  0  0  0  0
   -0.4365   -0.3660   -2.8548 C   0  0  0  0  0  0  0  0  0  0  0  0
   -0.3367   -1.7435   -2.9062 C   0  0  0  0  0  0  0  0  0  0  0  0
   -0.8060   -2.1374   -4.1825 C   0  0  0  0  0  0  0  0  0  0  0  0
   -1.1615   -0.9799   -4.8327 C   0  0  0  0  0  0  0  0  0  0  0  0
   -0.9384    0.0984   -4.0381 O   0  0  0  0  0  0  0  0  0  0  0  0
    4.1455    2.0307    2.5789 C   0  0  0  0  0  0  0  0  0  0  0  0
    5.0087    1.6356    3.6065 C   0  0  0  0  0  0  0  0  0  0  0  0
    8.7193    0.1026    3.5577 H   0  0  0  0  0  0  0  0  0  0  0  0
    8.4612   -0.5443    5.1751 H   0  0  0  0  0  0  0  0  0  0  0  0
    7.6526   -1.3259    3.8164 H   0  0  0  0  0  0  0  0  0  0  0  0
    7.1897   -0.2296    1.7659 H   0  0  0  0  0  0  0  0  0  0  0  0
    5.7079    0.4419   -0.0161 H   0  0  0  0  0  0  0  0  0  0  0  0
    4.6368    1.7332   -1.5514 H   0  0  0  0  0  0  0  0  0  0  0  0
    3.0125    2.2817   -1.8703 H   0  0  0  0  0  0  0  0  0  0  0  0
   -1.7721    1.2199    0.7482 H   0  0  0  0  0  0  0  0  0  0  0  0
   -1.8627   -0.1595    1.8507 H   0  0  0  0  0  0  0  0  0  0  0  0
   -2.3119   -1.5308   -0.1786 H   0  0  0  0  0  0  0  0  0  0  0  0
   -3.9107    1.3272    1.3597 H   0  0  0  0  0  0  0  0  0  0  0  0
   -6.3149    1.5654    1.5198 H   0  0  0  0  0  0  0  0  0  0  0  0
   -8.5368    1.1172    0.4304 H   0  0  0  0  0  0  0  0  0  0  0  0
   -8.6012   -0.4782    1.2185 H   0  0  0  0  0  0  0  0  0  0  0  0
   -8.7643   -0.3313   -0.5494 H   0  0  0  0  0  0  0  0  0  0  0  0
   -6.8605   -1.7611   -1.1276 H   0  0  0  0  0  0  0  0  0  0  0  0
   -5.0755   -2.8150   -2.1452 H   0  0  0  0  0  0  0  0  0  0  0  0
   -3.5604   -1.9313   -2.2937 H   0  0  0  0  0  0  0  0  0  0  0  0
   -3.7847   -3.1120   -0.9697 H   0  0  0  0  0  0  0  0  0  0  0  0
   -1.0274    1.2323   -1.5718 H   0  0  0  0  0  0  0  0  0  0  0  0
    0.5817    1.4058   -2.2422 H   0  0  0  0  0  0  0  0  0  0  0  0
    0.0338   -2.3898   -2.1182 H   0  0  0  0  0  0  0  0  0  0  0  0
   -0.8753   -3.1407   -4.5814 H   0  0  0  0  0  0  0  0  0  0  0  0
   -1.5688   -0.7657   -5.8126 H   0  0  0  0  0  0  0  0  0  0  0  0
    3.2863    2.6547    2.8226 H   0  0  0  0  0  0  0  0  0  0  0  0
    4.8133    1.9593    4.6299 H   0  0  0  0  0  0  0  0  0  0  0  0
  1  2  1  0
  2  3  1  0
  3  4  2  0
  4  5  1  0
  5  6  2  0
  6  7  1  0
  7  8  2  0
  7  9  1  0
  9 10  1  0
 10 11  1  0
 11 12  2  0
 12 13  1  0
 13 14  2  0
 14 15  1  0
 15 16  1  0
 16 17  1  0
 17 18  2  0
 18 19  1  0
 19 20  2  0
 20 21  1  0
 20 22  1  0
 22 23  2  0
 23 24  1  0
 14 25  1  0
 25 26  1  0
 26 27  1  0
 27 28  2  0
 28 29  1  0
 29 30  2  0
 30 31  1  0
  6 32  1  0
 32 33  2  0
 33  3  1  0
 25 11  1  0
 31 27  1  0
 23 17  1  0
  1 34  1  0
  1 35  1  0
  1 36  1  0
  4 37  1  0
  5 38  1  0
  9 39  1  0
  9 40  1  0
 15 41  1  0
 15 42  1  0
 16 43  1  0
 18 44  1  0
 19 45  1  0
 21 46  1  0
 21 47  1  0
 21 48  1  0
 22 49  1  0
 24 50  1  0
 24 51  1  0
 24 52  1  0
 26 53  1  0
 26 54  1  0
 28 55  1  0
 29 56  1  0
 30 57  1  0
 32 58  1  0
 33 59  1  0
M  END
$$$$
