
     RDKit          3D

 71 77  0  0  0  0  0  0  0  0999 V2000
    6.8505   -0.4693   -1.6640 C   0  0  0  0  0  0  0  0  0  0  0  0
    6.1700    0.5444   -0.9401 O   0  0  0  0  0  0  0  0  0  0  0  0
    4.7521    0.3695   -0.9295 C   0  0  0  0  0  0  0  0  0  0  0  0
    4.2362   -0.7755    0.0052 C   0  0  0  0  0  0  0  0  0  0  0  0
    5.0217   -1.4062    0.7239 O   0  0  0  0  0  0  0  0  0  0  0  0
    2.8842   -1.1159   -0.0215 N   0  0  0  0  0  0  0  0  0  0  0  0
    2.4257   -2.1615    0.8973 C   0  0  0  0  0  0  0  0  0  0  0  0
    0.9197   -2.0873    1.2056 C   0  0  0  0  0  0  0  0  0  0  0  0
    0.1238   -2.1836   -0.0182 N   0  0  0  0  0  0  0  0  0  0  0  0
    0.5515   -1.1515   -1.0387 C   0  0  2  0  0  0  0  0  0  0  0  0
    1.8402   -0.3517   -0.7174 C   0  0  0  0  0  0  0  0  0  0  0  0
   -0.6384   -0.2716   -1.1128 C   0  0  0  0  0  0  0  0  0  0  0  0
   -1.7390   -0.8105   -0.4519 C   0  0  0  0  0  0  0  0  0  0  0  0
   -2.7812    0.0780   -0.5512 C   0  0  0  0  0  0  0  0  0  0  0  0
   -3.9992    0.0283   -0.0243 O   0  0  0  0  0  0  0  0  0  0  0  0
   -2.2990    1.2099   -1.2389 N   0  0  0  0  0  0  0  0  0  0  0  0
   -2.9833    2.4541   -1.4078 C   0  0  0  0  0  0  0  0  0  0  0  0
   -2.2631    3.6613   -1.4279 C   0  0  0  0  0  0  0  0  0  0  0  0
   -2.9299    4.8820   -1.5764 C   0  0  0  0  0  0  0  0  0  0  0  0
   -4.3173    4.9078   -1.6949 C   0  0  0  0  0  0  0  0  0  0  0  0
   -5.0400    3.7133   -1.6731 C   0  0  0  0  0  0  0  0  0  0  0  0
   -4.3788    2.4908   -1.5274 C   0  0  0  0  0  0  0  0  0  0  0  0
   -0.9898    0.9257   -1.6669 C   0  0  0  0  0  0  0  0  0  0  0  0
   -0.2614    1.6953   -2.4752 O   0  0  0  0  0  0  0  0  0  0  0  0
   -1.3721   -2.1128    0.1442 C   0  0  1  0  0  0  0  0  0  0  0  0
   -2.0054   -3.3310   -0.5979 C   0  0  0  0  0  0  0  0  0  0  0  0
   -1.8988   -3.6628   -1.7693 O   0  0  0  0  0  0  0  0  0  0  0  0
   -2.7567   -4.0314    0.3470 N   0  0  0  0  0  0  0  0  0  0  0  0
   -2.7627   -3.3977    1.5830 C   0  0  0  0  0  0  0  0  0  0  0  0
   -1.9913   -2.2261    1.5164 C   0  0  0  0  0  0  0  0  0  0  0  0
   -1.9340   -1.3691    2.6058 C   0  0  0  0  0  0  0  0  0  0  0  0
   -2.6354   -1.7185    3.7592 C   0  0  0  0  0  0  0  0  0  0  0  0
   -3.3843   -2.9135    3.8191 C   0  0  0  0  0  0  0  0  0  0  0  0
   -4.2434   -3.2274    5.2848 Cl  0  0  0  0  0  0  0  0  0  0  0  0
   -3.4506   -3.7942    2.7261 C   0  0  0  0  0  0  0  0  0  0  0  0
   -4.2725   -5.0464    2.7618 C   0  0  0  0  0  0  0  0  0  0  0  0
    4.1864    1.7381   -0.5822 C   0  0  0  0  0  0  0  0  0  0  0  0
    3.7981    2.6119   -1.6144 C   0  0  0  0  0  0  0  0  0  0  0  0
    3.2745    3.8727   -1.3219 C   0  0  0  0  0  0  0  0  0  0  0  0
    3.1409    4.2848    0.0035 C   0  0  0  0  0  0  0  0  0  0  0  0
    3.5424    3.4373    1.0374 C   0  0  0  0  0  0  0  0  0  0  0  0
    4.0733    2.1774    0.7477 C   0  0  0  0  0  0  0  0  0  0  0  0
    6.7292   -1.4465   -1.1921 H   0  0  0  0  0  0  0  0  0  0  0  0
    7.9165   -0.2224   -1.6696 H   0  0  0  0  0  0  0  0  0  0  0  0
    6.4968   -0.5037   -2.6998 H   0  0  0  0  0  0  0  0  0  0  0  0
    4.4296    0.1009   -1.9460 H   0  0  0  0  0  0  0  0  0  0  0  0
    2.6731   -3.1234    0.4316 H   0  0  0  0  0  0  0  0  0  0  0  0
    2.9854   -2.0933    1.8371 H   0  0  0  0  0  0  0  0  0  0  0  0
    0.7224   -1.1464    1.7345 H   0  0  0  0  0  0  0  0  0  0  0  0
    0.6758   -2.9157    1.8804 H   0  0  0  0  0  0  0  0  0  0  0  0
    0.6827   -1.6850   -1.9887 H   0  0  0  0  0  0  0  0  0  0  0  0
    1.6058    0.4968   -0.0623 H   0  0  0  0  0  0  0  0  0  0  0  0
    2.2388    0.0553   -1.6513 H   0  0  0  0  0  0  0  0  0  0  0  0
   -4.0901   -0.8123    0.4566 H   0  0  0  0  0  0  0  0  0  0  0  0
   -1.1862    3.6840   -1.2682 H   0  0  0  0  0  0  0  0  0  0  0  0
   -2.3662    5.8142   -1.5691 H   0  0  0  0  0  0  0  0  0  0  0  0
   -4.8397    5.8565   -1.8052 H   0  0  0  0  0  0  0  0  0  0  0  0
   -6.1222    3.7372   -1.7578 H   0  0  0  0  0  0  0  0  0  0  0  0
   -4.9705    1.5793   -1.5346 H   0  0  0  0  0  0  0  0  0  0  0  0
   -0.8663    2.2594   -2.9934 H   0  0  0  0  0  0  0  0  0  0  0  0
   -3.2257   -4.8950    0.0940 H   0  0  0  0  0  0  0  0  0  0  0  0
   -1.3751   -0.4403    2.5625 H   0  0  0  0  0  0  0  0  0  0  0  0
   -2.6073   -1.0495    4.6191 H   0  0  0  0  0  0  0  0  0  0  0  0
   -5.3327   -4.8057    2.6198 H   0  0  0  0  0  0  0  0  0  0  0  0
   -3.9731   -5.7557    1.9848 H   0  0  0  0  0  0  0  0  0  0  0  0
   -4.1411   -5.5746    3.7103 H   0  0  0  0  0  0  0  0  0  0  0  0
    3.9073    2.3143   -2.6573 H   0  0  0  0  0  0  0  0  0  0  0  0
    2.9829    4.5400   -2.1309 H   0  0  0  0  0  0  0  0  0  0  0  0
    2.7364    5.2669    0.2285 H   0  0  0  0  0  0  0  0  0  0  0  0
    3.4492    3.7602    2.0740 H   0  0  0  0  0  0  0  0  0  0  0  0
    4.4007    1.5374    1.5690 H   0  0  0  0  0  0  0  0  0  0  0  0
  1  2  1  0
  2  3  1  0
  3  4  1  0
  4  5  2  0
  4  6  1  0
  6  7  1  0
  7  8  1  0
  8  9  1  0
  9 10  1  0
 10 11  1  0
 10 12  1  0
 12 13  1  0
 13 14  2  0
 14 15  1  0
 14 16  1  0
 16 17  1  0
 17 18  2  0
 18 19  1  0
 19 20  2  0
 20 21  1  0
 21 22  2  0
 16 23  1  0
 23 24  1  0
 13 25  1  0
 25 26  1  0
 26 27  2  0
 26 28  1  0
 28 29  1  0
 29 30  2  0
 30 31  1  0
 31 32  2  0
 32 33  1  0
 33 34  1  0
 33 35  2  0
 35 36  1  0
  3 37  1  0
 37 38  2  0
 38 39  1  0
 39 40  2  0
 40 41  1  0
 41 42  2  0
 11  6  1  0
 23 12  2  0
 30 25  1  0
 42 37  1  0
 25  9  1  1
 35 29  1  0
 22 17  1  0
  1 43  1  0
  1 44  1  0
  1 45  1  0
  3 46  1  0
  7 47  1  0
  7 48  1  0
  8 49  1  0
  8 50  1  0
 10 51  1  6
 11 52  1  0
 11 53  1  0
 15 54  1  0
 18 55  1  0
 19 56  1  0
 20 57  1  0
 21 58  1  0
 22 59  1  0
 24 60  1  0
 28 61  1  0
 31 62  1  0
 32 63  1  0
 36 64  1  0
 36 65  1  0
 36 66  1  0
 38 67  1  0
 39 68  1  0
 40 69  1  0
 41 70  1  0
 42 71  1  0
M  END
$$$$
