
     RDKit          3D

 35 37  0  0  0  0  0  0  0  0999 V2000
   -2.6727    1.2403   -1.2528 C   0  0  0  0  0  0  0  0  0  0  0  0
   -3.7168    0.5154   -0.4494 C   0  0  0  0  0  0  0  0  0  0  0  0
   -5.0759    0.7474   -0.7101 C   0  0  0  0  0  0  0  0  0  0  0  0
   -6.0603    0.0866    0.0221 C   0  0  0  0  0  0  0  0  0  0  0  0
   -5.6957   -0.8111    1.0206 C   0  0  0  0  0  0  0  0  0  0  0  0
   -4.3461   -1.0514    1.2906 C   0  0  0  0  0  0  0  0  0  0  0  0
   -3.3509   -0.3932    0.5612 C   0  0  0  0  0  0  0  0  0  0  0  0
   -2.0035   -0.5587    0.7480 O   0  0  0  0  0  0  0  0  0  0  0  0
   -1.5891   -1.4715    1.7631 C   0  0  0  0  0  0  0  0  0  0  0  0
   -0.0622   -1.5377    1.8399 C   0  0  0  0  0  0  0  0  0  0  0  0
    0.4911   -2.2699    2.6545 O   0  0  0  0  0  0  0  0  0  0  0  0
    0.5521   -0.7136    0.9259 N   0  0  0  0  0  0  0  0  0  0  0  0
    1.9075   -0.6110    0.8148 C   0  0  0  0  0  0  0  0  0  0  0  0
    2.8624   -1.2097    1.4820 N   0  0  0  0  0  0  0  0  0  0  0  0
    4.1148   -0.8134    1.0445 N   0  0  0  0  0  0  0  0  0  0  0  0
    4.0409    0.0673    0.0660 C   0  0  0  0  0  0  0  0  0  0  0  0
    5.1970    0.6361   -0.5632 C   0  0  0  0  0  0  0  0  0  0  0  0
    6.5328    0.3870   -0.2836 C   0  0  0  0  0  0  0  0  0  0  0  0
    7.3064    1.1809   -1.1637 C   0  0  0  0  0  0  0  0  0  0  0  0
    6.4070    1.8735   -1.9352 C   0  0  0  0  0  0  0  0  0  0  0  0
    5.1360    1.5553   -1.5845 O   0  0  0  0  0  0  0  0  0  0  0  0
    2.4355    0.4751   -0.3905 S   0  0  0  0  0  0  0  0  0  0  0  0
   -2.0461    1.8520   -0.5956 H   0  0  0  0  0  0  0  0  0  0  0  0
   -3.1254    1.9068   -1.9945 H   0  0  0  0  0  0  0  0  0  0  0  0
   -2.0436    0.5237   -1.7908 H   0  0  0  0  0  0  0  0  0  0  0  0
   -5.3763    1.4464   -1.4876 H   0  0  0  0  0  0  0  0  0  0  0  0
   -7.1108    0.2725   -0.1867 H   0  0  0  0  0  0  0  0  0  0  0  0
   -6.4634   -1.3268    1.5922 H   0  0  0  0  0  0  0  0  0  0  0  0
   -4.1116   -1.7598    2.0784 H   0  0  0  0  0  0  0  0  0  0  0  0
   -1.9441   -2.4822    1.5316 H   0  0  0  0  0  0  0  0  0  0  0  0
   -1.9466   -1.1359    2.7433 H   0  0  0  0  0  0  0  0  0  0  0  0
   -0.0268   -0.1588    0.3083 H   0  0  0  0  0  0  0  0  0  0  0  0
    6.8954   -0.2950    0.4748 H   0  0  0  0  0  0  0  0  0  0  0  0
    8.3840    1.2395   -1.2265 H   0  0  0  0  0  0  0  0  0  0  0  0
    6.5050    2.5942   -2.7354 H   0  0  0  0  0  0  0  0  0  0  0  0
  1  2  1  0
  2  3  2  0
  3  4  1  0
  4  5  2  0
  5  6  1  0
  6  7  2  0
  7  8  1  0
  8  9  1  0
  9 10  1  0
 10 11  2  0
 10 12  1  0
 12 13  1  0
 13 14  2  0
 14 15  1  0
 15 16  2  0
 16 17  1  0
 17 18  2  0
 18 19  1  0
 19 20  2  0
 20 21  1  0
 16 22  1  0
  7  2  1  0
 22 13  1  0
 21 17  1  0
  1 23  1  0
  1 24  1  0
  1 25  1  0
  3 26  1  0
  4 27  1  0
  5 28  1  0
  6 29  1  0
  9 30  1  0
  9 31  1  0
 12 32  1  0
 18 33  1  0
 19 34  1  0
 20 35  1  0
M  END
$$$$
