
     RDKit          3D

 49 52  0  0  0  0  0  0  0  0999 V2000
   -2.0780    4.7650   -3.1256 C   0  0  0  0  0  0  0  0  0  0  0  0
   -1.9804    3.5314   -2.2785 C   0  0  0  0  0  0  0  0  0  0  0  0
   -2.7020    2.3808   -2.6150 C   0  0  0  0  0  0  0  0  0  0  0  0
   -2.6319    1.2407   -1.8119 C   0  0  0  0  0  0  0  0  0  0  0  0
   -1.8448    1.2446   -0.6552 C   0  0  0  0  0  0  0  0  0  0  0  0
   -1.7816    0.0846    0.1593 N   0  0  0  0  0  0  0  0  0  0  0  0
   -2.8438   -0.7081    0.5866 C   0  0  0  0  0  0  0  0  0  0  0  0
   -4.2983   -0.4041    0.4100 C   0  0  0  0  0  0  0  0  0  0  0  0
   -4.9634   -1.2246   -0.6627 C   0  0  0  0  0  0  0  0  0  0  0  0
   -4.7786   -2.5558   -0.9853 C   0  0  0  0  0  0  0  0  0  0  0  0
   -5.6283   -2.9851   -2.0446 C   0  0  0  0  0  0  0  0  0  0  0  0
   -6.4314   -1.9673   -2.5052 C   0  0  0  0  0  0  0  0  0  0  0  0
   -6.1726   -0.5097   -1.6510 S   0  0  0  0  0  0  0  0  0  0  0  0
   -2.3802   -1.7063    1.3186 N   0  0  0  0  0  0  0  0  0  0  0  0
   -1.0244   -1.5868    1.4017 N   0  0  0  0  0  0  0  0  0  0  0  0
   -0.6707   -0.5205    0.7230 C   0  0  0  0  0  0  0  0  0  0  0  0
    0.9796   -0.0496    0.4677 S   0  0  0  0  0  0  0  0  0  0  0  0
    1.7917   -1.6682    0.5880 C   0  0  0  0  0  0  0  0  0  0  0  0
    3.2984   -1.4731    0.5472 C   0  0  0  0  0  0  0  0  0  0  0  0
    3.9162   -1.5279   -0.5129 O   0  0  0  0  0  0  0  0  0  0  0  0
    3.8420   -1.2335    1.8025 N   0  0  0  0  0  0  0  0  0  0  0  0
    5.2011   -1.0424    2.1289 C   0  0  0  0  0  0  0  0  0  0  0  0
    6.2396   -1.0462    1.1906 C   0  0  0  0  0  0  0  0  0  0  0  0
    7.5680   -0.8636    1.5944 C   0  0  0  0  0  0  0  0  0  0  0  0
    7.8587   -0.6793    2.9396 C   0  0  0  0  0  0  0  0  0  0  0  0
    9.1308   -0.5080    3.3242 F   0  0  0  0  0  0  0  0  0  0  0  0
    6.8357   -0.6702    3.8763 C   0  0  0  0  0  0  0  0  0  0  0  0
    7.1122   -0.4927    5.1766 F   0  0  0  0  0  0  0  0  0  0  0  0
    5.5114   -0.8492    3.4814 C   0  0  0  0  0  0  0  0  0  0  0  0
   -1.1269    2.3945   -0.3088 C   0  0  0  0  0  0  0  0  0  0  0  0
   -1.2033    3.5330   -1.1144 C   0  0  0  0  0  0  0  0  0  0  0  0
   -2.8635    5.4213   -2.7404 H   0  0  0  0  0  0  0  0  0  0  0  0
   -2.3097    4.5100   -4.1648 H   0  0  0  0  0  0  0  0  0  0  0  0
   -1.1285    5.3100   -3.1299 H   0  0  0  0  0  0  0  0  0  0  0  0
   -3.3136    2.3583   -3.5157 H   0  0  0  0  0  0  0  0  0  0  0  0
   -3.1602    0.3500   -2.1410 H   0  0  0  0  0  0  0  0  0  0  0  0
   -4.4515    0.6697    0.2475 H   0  0  0  0  0  0  0  0  0  0  0  0
   -4.8052   -0.6297    1.3590 H   0  0  0  0  0  0  0  0  0  0  0  0
   -4.0705   -3.2014   -0.4783 H   0  0  0  0  0  0  0  0  0  0  0  0
   -5.6502   -3.9924   -2.4455 H   0  0  0  0  0  0  0  0  0  0  0  0
   -7.1713   -2.0073   -3.2927 H   0  0  0  0  0  0  0  0  0  0  0  0
    1.4957   -2.3044   -0.2521 H   0  0  0  0  0  0  0  0  0  0  0  0
    1.5153   -2.1810    1.5169 H   0  0  0  0  0  0  0  0  0  0  0  0
    3.1865   -1.1848    2.5754 H   0  0  0  0  0  0  0  0  0  0  0  0
    6.0512   -1.1809    0.1298 H   0  0  0  0  0  0  0  0  0  0  0  0
    8.3713   -0.8730    0.8649 H   0  0  0  0  0  0  0  0  0  0  0  0
    4.7422   -0.8406    4.2474 H   0  0  0  0  0  0  0  0  0  0  0  0
   -0.5321    2.4481    0.6000 H   0  0  0  0  0  0  0  0  0  0  0  0
   -0.6506    4.4257   -0.8263 H   0  0  0  0  0  0  0  0  0  0  0  0
  1  2  1  0
  2  3  2  0
  3  4  1  0
  4  5  2  0
  5  6  1  0
  6  7  1  0
  7  8  1  0
  8  9  1  0
  9 10  2  0
 10 11  1  0
 11 12  2  0
 12 13  1  0
  7 14  2  0
 14 15  1  0
 15 16  2  0
 16 17  1  0
 17 18  1  0
 18 19  1  0
 19 20  2  0
 19 21  1  0
 21 22  1  0
 22 23  2  0
 23 24  1  0
 24 25  2  0
 25 26  1  0
 25 27  1  0
 27 28  1  0
 27 29  2  0
  5 30  1  0
 30 31  2  0
 31  2  1  0
 16  6  1  0
 29 22  1  0
 13  9  1  0
  1 32  1  0
  1 33  1  0
  1 34  1  0
  3 35  1  0
  4 36  1  0
  8 37  1  0
  8 38  1  0
 10 39  1  0
 11 40  1  0
 12 41  1  0
 18 42  1  0
 18 43  1  0
 21 44  1  0
 23 45  1  0
 24 46  1  0
 29 47  1  0
 30 48  1  0
 31 49  1  0
M  END
$$$$
