
     RDKit          3D

 36 36  0  0  0  0  0  0  0  0999 V2000
    1.8914   -5.8516    2.9696 C   0  0  0  0  0  0  0  0  0  0  0  0
    0.8432   -4.8261    3.3627 C   0  0  0  0  0  0  0  0  0  0  0  0
    1.0474   -3.5821    2.6957 O   0  0  0  0  0  0  0  0  0  0  0  0
    0.5957   -3.5811    1.3428 C   0  0  0  0  0  0  0  0  0  0  0  0
    0.7544   -2.1695    0.7930 C   0  0  0  0  0  0  0  0  0  0  0  0
    0.3553   -2.0968   -0.6749 C   0  0  0  0  0  0  0  0  0  0  0  0
    0.4813   -0.7467   -1.1943 N   0  0  0  0  0  0  0  0  0  0  0  0
   -0.5404    0.1701   -1.0651 C   0  0  0  0  0  0  0  0  0  0  0  0
   -1.6229   -0.1250   -0.5647 O   0  0  0  0  0  0  0  0  0  0  0  0
   -0.2628    1.5575   -1.5701 C   0  0  0  0  0  0  0  0  0  0  0  0
    0.9718    1.8288   -2.2123 C   0  0  0  0  0  0  0  0  0  0  0  0
    1.9917    2.0125   -2.7350 N   0  0  0  0  0  0  0  0  0  0  0  0
   -1.2246    2.4753   -1.3538 C   0  0  0  0  0  0  0  0  0  0  0  0
   -1.1934    3.8503   -1.7321 C   0  0  0  0  0  0  0  0  0  0  0  0
   -0.4926    4.5498   -2.7163 C   0  0  0  0  0  0  0  0  0  0  0  0
   -0.8653    5.9182   -2.6506 C   0  0  0  0  0  0  0  0  0  0  0  0
   -1.7855    5.9851   -1.6400 C   0  0  0  0  0  0  0  0  0  0  0  0
   -2.5295    7.0778   -1.0991 N   0  0  0  0  0  4  0  0  0  0  0  0
   -3.3075    6.8444   -0.1658 O   0  0  0  0  0  0  0  0  0  0  0  0
   -2.3303    8.1847   -1.6184 O   0  0  0  0  0  1  0  0  0  0  0  0
   -2.0031    4.7681   -1.0860 O   0  0  0  0  0  0  0  0  0  0  0  0
    1.7960   -6.7534    3.5814 H   0  0  0  0  0  0  0  0  0  0  0  0
    2.8988   -5.4421    3.0964 H   0  0  0  0  0  0  0  0  0  0  0  0
    1.7911   -6.1410    1.9194 H   0  0  0  0  0  0  0  0  0  0  0  0
    0.9288   -4.6274    4.4361 H   0  0  0  0  0  0  0  0  0  0  0  0
   -0.1701   -5.2009    3.1801 H   0  0  0  0  0  0  0  0  0  0  0  0
    1.1940   -4.2819    0.7517 H   0  0  0  0  0  0  0  0  0  0  0  0
   -0.4567   -3.8843    1.3022 H   0  0  0  0  0  0  0  0  0  0  0  0
    0.1521   -1.4752    1.3927 H   0  0  0  0  0  0  0  0  0  0  0  0
    1.7928   -1.8372    0.9192 H   0  0  0  0  0  0  0  0  0  0  0  0
    1.0074   -2.7342   -1.2815 H   0  0  0  0  0  0  0  0  0  0  0  0
   -0.6763   -2.4399   -0.8112 H   0  0  0  0  0  0  0  0  0  0  0  0
    1.3936   -0.4783   -1.5445 H   0  0  0  0  0  0  0  0  0  0  0  0
   -2.1219    2.1832   -0.8078 H   0  0  0  0  0  0  0  0  0  0  0  0
    0.2098    4.1323   -3.4261 H   0  0  0  0  0  0  0  0  0  0  0  0
   -0.5141    6.7366   -3.2644 H   0  0  0  0  0  0  0  0  0  0  0  0
  1  2  1  0
  2  3  1  0
  3  4  1  0
  4  5  1  0
  5  6  1  0
  6  7  1  0
  7  8  1  0
  8  9  2  0
  8 10  1  0
 10 11  1  0
 11 12  3  0
 10 13  2  3
 13 14  1  0
 14 15  2  0
 15 16  1  0
 16 17  2  0
 17 18  1  0
 18 19  2  0
 18 20  1  0
 17 21  1  0
 21 14  1  0
  1 22  1  0
  1 23  1  0
  1 24  1  0
  2 25  1  0
  2 26  1  0
  4 27  1  0
  4 28  1  0
  5 29  1  0
  5 30  1  0
  6 31  1  0
  6 32  1  0
  7 33  1  0
 13 34  1  0
 15 35  1  0
 16 36  1  0
M  CHG  2  18   1  20  -1
M  END
$$$$
