
     RDKit          3D

 29 30  0  0  0  0  0  0  0  0999 V2000
    2.3042    2.9585   -0.4551 C   0  0  0  0  0  0  0  0  0  0  0  0
    2.4324    1.4781   -0.4319 C   0  0  0  0  0  0  0  0  0  0  0  0
    3.6280    0.9104   -0.6395 N   0  0  0  0  0  0  0  0  0  0  0  0
    3.3855   -0.4035   -0.5517 N   0  0  0  0  0  0  0  0  0  0  0  0
    4.4725   -1.3362   -0.7271 C   0  0  0  0  0  0  0  0  0  0  0  0
    2.0788   -0.7008   -0.2954 C   0  0  0  0  0  0  0  0  0  0  0  0
    1.4078    0.5087   -0.2074 C   0  0  0  0  0  0  0  0  0  0  0  0
   -0.0104    0.7666    0.0521 C   0  0  0  0  0  0  0  0  0  0  0  0
   -0.4381    1.9142    0.0961 O   0  0  0  0  0  0  0  0  0  0  0  0
   -0.7704   -0.3730    0.2321 N   0  0  0  0  0  0  0  0  0  0  0  0
   -2.1565   -0.4766    0.4972 C   0  0  0  0  0  0  0  0  0  0  0  0
   -3.0002    0.6306    0.6211 C   0  0  0  0  0  0  0  0  0  0  0  0
   -4.3648    0.4630    0.8841 C   0  0  0  0  0  0  0  0  0  0  0  0
   -4.9044   -0.8126    1.0268 C   0  0  0  0  0  0  0  0  0  0  0  0
   -4.0802   -1.9284    0.9069 C   0  0  0  0  0  0  0  0  0  0  0  0
   -2.7170   -1.7606    0.6441 C   0  0  0  0  0  0  0  0  0  0  0  0
   -1.6489   -3.3303    0.4926 Br  0  0  0  0  0  0  0  0  0  0  0  0
    1.9370    3.3263    0.5082 H   0  0  0  0  0  0  0  0  0  0  0  0
    1.6070    3.2703   -1.2392 H   0  0  0  0  0  0  0  0  0  0  0  0
    3.2672    3.4414   -0.6524 H   0  0  0  0  0  0  0  0  0  0  0  0
    5.2254   -1.1361    0.0395 H   0  0  0  0  0  0  0  0  0  0  0  0
    4.0966   -2.3569   -0.6234 H   0  0  0  0  0  0  0  0  0  0  0  0
    4.8920   -1.1927   -1.7260 H   0  0  0  0  0  0  0  0  0  0  0  0
    1.7574   -1.7277   -0.2018 H   0  0  0  0  0  0  0  0  0  0  0  0
   -0.2915   -1.2606    0.1700 H   0  0  0  0  0  0  0  0  0  0  0  0
   -2.6323    1.6469    0.5191 H   0  0  0  0  0  0  0  0  0  0  0  0
   -5.0048    1.3379    0.9770 H   0  0  0  0  0  0  0  0  0  0  0  0
   -5.9651   -0.9356    1.2310 H   0  0  0  0  0  0  0  0  0  0  0  0
   -4.5075   -2.9214    1.0193 H   0  0  0  0  0  0  0  0  0  0  0  0
  1  2  1  0
  2  3  2  0
  3  4  1  0
  4  5  1  0
  4  6  1  0
  6  7  2  0
  7  8  1  0
  8  9  2  0
  8 10  1  0
 10 11  1  0
 11 12  2  0
 12 13  1  0
 13 14  2  0
 14 15  1  0
 15 16  2  0
 16 17  1  0
  7  2  1  0
 16 11  1  0
  1 18  1  0
  1 19  1  0
  1 20  1  0
  5 21  1  0
  5 22  1  0
  5 23  1  0
  6 24  1  0
 10 25  1  0
 12 26  1  0
 13 27  1  0
 14 28  1  0
 15 29  1  0
M  END
$$$$
