
     RDKit          3D

 54 57  0  0  0  0  0  0  0  0999 V2000
   -6.7832   -2.5290   -1.2145 C   0  0  0  0  0  0  0  0  0  0  0  0
   -6.0055   -2.7684   -0.0480 O   0  0  0  0  0  0  0  0  0  0  0  0
   -4.9667   -1.9115    0.1906 C   0  0  0  0  0  0  0  0  0  0  0  0
   -4.2683   -2.1613    1.3775 C   0  0  0  0  0  0  0  0  0  0  0  0
   -3.1819   -1.3662    1.7464 C   0  0  0  0  0  0  0  0  0  0  0  0
   -2.7794   -0.3269    0.9066 C   0  0  0  0  0  0  0  0  0  0  0  0
   -1.6462    0.5460    1.2877 C   0  0  0  0  0  0  0  0  0  0  0  0
   -1.9328    1.7674    1.6108 N   0  0  0  0  0  0  0  0  0  0  0  0
   -0.8964    2.6248    1.9888 C   0  0  0  0  0  0  0  0  0  0  0  0
   -1.2011    3.9499    2.3106 C   0  0  0  0  0  0  0  0  0  0  0  0
   -0.1952    4.8390    2.6999 C   0  0  0  0  0  0  0  0  0  0  0  0
    1.1286    4.4071    2.7711 C   0  0  0  0  0  0  0  0  0  0  0  0
    1.4439    3.0867    2.4533 C   0  0  0  0  0  0  0  0  0  0  0  0
    0.4269    2.2053    2.0648 C   0  0  0  0  0  0  0  0  0  0  0  0
    0.7241    0.8073    1.7152 C   0  0  0  0  0  0  0  0  0  0  0  0
    1.8765    0.3974    1.8351 O   0  0  0  0  0  0  0  0  0  0  0  0
   -0.3522    0.0273    1.2845 N   0  0  0  0  0  0  0  0  0  0  0  0
   -0.0115   -1.3005    0.7432 C   0  0  0  0  0  0  0  0  0  0  0  0
    0.0389   -1.3203   -0.7923 C   0  0  0  0  0  0  0  0  0  0  0  0
    0.9662   -0.3742   -1.3203 O   0  0  0  0  0  0  0  0  0  0  0  0
    2.2880   -0.7081   -1.4370 C   0  0  0  0  0  0  0  0  0  0  0  0
    2.8392   -1.9540   -1.1322 C   0  0  0  0  0  0  0  0  0  0  0  0
    4.2089   -2.1848   -1.2988 C   0  0  0  0  0  0  0  0  0  0  0  0
    5.0514   -1.1712   -1.7608 C   0  0  0  0  0  0  0  0  0  0  0  0
    6.5141   -1.4301   -1.9653 C   0  0  0  0  0  0  0  0  0  0  0  0
    4.4992    0.0743   -2.0765 C   0  0  0  0  0  0  0  0  0  0  0  0
    3.1256    0.3171   -1.9128 C   0  0  0  0  0  0  0  0  0  0  0  0
    2.5665    1.6758   -2.2361 C   0  0  0  0  0  0  0  0  0  0  0  0
   -3.4872   -0.0485   -0.2650 C   0  0  0  0  0  0  0  0  0  0  0  0
   -4.5755   -0.8485   -0.6272 C   0  0  0  0  0  0  0  0  0  0  0  0
   -6.1787   -2.6394   -2.1207 H   0  0  0  0  0  0  0  0  0  0  0  0
   -7.5751   -3.2834   -1.2488 H   0  0  0  0  0  0  0  0  0  0  0  0
   -7.2621   -1.5450   -1.1752 H   0  0  0  0  0  0  0  0  0  0  0  0
   -4.5845   -2.9765    2.0247 H   0  0  0  0  0  0  0  0  0  0  0  0
   -2.6661   -1.5533    2.6843 H   0  0  0  0  0  0  0  0  0  0  0  0
   -2.2330    4.2875    2.2575 H   0  0  0  0  0  0  0  0  0  0  0  0
   -0.4476    5.8671    2.9473 H   0  0  0  0  0  0  0  0  0  0  0  0
    1.9131    5.0965    3.0730 H   0  0  0  0  0  0  0  0  0  0  0  0
    2.4752    2.7449    2.5045 H   0  0  0  0  0  0  0  0  0  0  0  0
   -0.7410   -2.0373    1.0866 H   0  0  0  0  0  0  0  0  0  0  0  0
    0.9555   -1.6207    1.1441 H   0  0  0  0  0  0  0  0  0  0  0  0
    0.2157   -2.3303   -1.1777 H   0  0  0  0  0  0  0  0  0  0  0  0
   -0.9371   -1.0315   -1.1935 H   0  0  0  0  0  0  0  0  0  0  0  0
    2.2401   -2.7746   -0.7569 H   0  0  0  0  0  0  0  0  0  0  0  0
    4.6140   -3.1650   -1.0575 H   0  0  0  0  0  0  0  0  0  0  0  0
    7.0969   -0.5135   -1.8258 H   0  0  0  0  0  0  0  0  0  0  0  0
    6.6890   -1.8102   -2.9765 H   0  0  0  0  0  0  0  0  0  0  0  0
    6.8857   -2.1635   -1.2419 H   0  0  0  0  0  0  0  0  0  0  0  0
    5.1449    0.8678   -2.4474 H   0  0  0  0  0  0  0  0  0  0  0  0
    2.1247    2.1261   -1.3410 H   0  0  0  0  0  0  0  0  0  0  0  0
    3.3446    2.3553   -2.5997 H   0  0  0  0  0  0  0  0  0  0  0  0
    1.8047    1.5966   -3.0184 H   0  0  0  0  0  0  0  0  0  0  0  0
   -3.1948    0.7900   -0.8932 H   0  0  0  0  0  0  0  0  0  0  0  0
   -5.0992   -0.6100   -1.5471 H   0  0  0  0  0  0  0  0  0  0  0  0
  1  2  1  0
  2  3  1  0
  3  4  2  0
  4  5  1  0
  5  6  2  0
  6  7  1  0
  7  8  2  0
  8  9  1  0
  9 10  2  0
 10 11  1  0
 11 12  2  0
 12 13  1  0
 13 14  2  0
 14 15  1  0
 15 16  2  0
 15 17  1  0
 17 18  1  0
 18 19  1  0
 19 20  1  0
 20 21  1  0
 21 22  2  0
 22 23  1  0
 23 24  2  0
 24 25  1  0
 24 26  1  0
 26 27  2  0
 27 28  1  0
  6 29  1  0
 29 30  2  0
 30  3  1  0
 17  7  1  0
 27 21  1  0
 14  9  1  0
  1 31  1  0
  1 32  1  0
  1 33  1  0
  4 34  1  0
  5 35  1  0
 10 36  1  0
 11 37  1  0
 12 38  1  0
 13 39  1  0
 18 40  1  0
 18 41  1  0
 19 42  1  0
 19 43  1  0
 22 44  1  0
 23 45  1  0
 25 46  1  0
 25 47  1  0
 25 48  1  0
 26 49  1  0
 28 50  1  0
 28 51  1  0
 28 52  1  0
 29 53  1  0
 30 54  1  0
M  END
$$$$
