
     RDKit          3D

 42 41  0  0  0  0  0  0  0  0999 V2000
   -3.7833   -1.2378    2.9652 C   0  0  0  0  0  0  0  0  0  0  0  0
   -4.6240   -0.4412    2.0057 C   0  0  0  0  0  0  0  0  0  0  0  0
   -5.9327    0.0371    2.5787 C   0  0  0  0  0  0  0  0  0  0  0  0
   -4.2789   -0.1423    0.7381 C   0  0  0  0  0  0  0  0  0  0  0  0
   -3.0357   -0.5630   -0.0000 C   0  0  0  0  0  0  0  0  0  0  0  0
   -2.0332    0.5915   -0.1102 C   0  0  0  0  0  0  0  0  0  0  0  0
   -0.7586    0.1915   -0.8328 C   0  0  0  0  0  0  0  0  0  0  0  0
   -0.9007   -0.0284   -2.3152 C   0  0  0  0  0  0  0  0  0  0  0  0
    0.4030    0.0894   -0.1561 C   0  0  0  0  0  0  0  0  0  0  0  0
    1.7472   -0.3184   -0.6976 C   0  0  0  0  0  0  0  0  0  0  0  0
    2.6615    0.8951   -0.8943 C   0  0  0  0  0  0  0  0  0  0  0  0
    4.0255    0.5033   -1.4245 C   0  0  0  0  0  0  0  0  0  0  0  0
    4.1169    0.3970   -2.9254 C   0  0  0  0  0  0  0  0  0  0  0  0
    5.1051    0.2649   -0.6521 C   0  0  0  0  0  0  0  0  0  0  0  0
    5.1923    0.3124    0.8416 C   0  0  0  0  0  0  0  0  0  0  0  0
    5.4893   -0.9869    1.3311 O   0  0  0  0  0  0  0  0  0  0  0  0
   -2.7838   -1.4605    2.5852 H   0  0  0  0  0  0  0  0  0  0  0  0
   -3.6496   -0.6810    3.8991 H   0  0  0  0  0  0  0  0  0  0  0  0
   -4.2758   -2.1874    3.1981 H   0  0  0  0  0  0  0  0  0  0  0  0
   -5.7545    0.6850    3.4431 H   0  0  0  0  0  0  0  0  0  0  0  0
   -6.5216    0.6067    1.8521 H   0  0  0  0  0  0  0  0  0  0  0  0
   -6.5386   -0.8160    2.9013 H   0  0  0  0  0  0  0  0  0  0  0  0
   -4.9648    0.4599    0.1420 H   0  0  0  0  0  0  0  0  0  0  0  0
   -3.3408   -0.8953   -1.0002 H   0  0  0  0  0  0  0  0  0  0  0  0
   -2.5627   -1.4325    0.4680 H   0  0  0  0  0  0  0  0  0  0  0  0
   -2.4891    1.4405   -0.6364 H   0  0  0  0  0  0  0  0  0  0  0  0
   -1.7972    0.9591    0.8976 H   0  0  0  0  0  0  0  0  0  0  0  0
   -1.4212   -0.9703   -2.5135 H   0  0  0  0  0  0  0  0  0  0  0  0
    0.0589   -0.0552   -2.8379 H   0  0  0  0  0  0  0  0  0  0  0  0
   -1.4772    0.7869   -2.7654 H   0  0  0  0  0  0  0  0  0  0  0  0
    0.4020    0.2948    0.9147 H   0  0  0  0  0  0  0  0  0  0  0  0
    1.6462   -0.8816   -1.6312 H   0  0  0  0  0  0  0  0  0  0  0  0
    2.2018   -1.0151    0.0186 H   0  0  0  0  0  0  0  0  0  0  0  0
    2.1972    1.6036   -1.5935 H   0  0  0  0  0  0  0  0  0  0  0  0
    2.7553    1.4508    0.0459 H   0  0  0  0  0  0  0  0  0  0  0  0
    5.1185    0.1079   -3.2607 H   0  0  0  0  0  0  0  0  0  0  0  0
    3.8779    1.3598   -3.3889 H   0  0  0  0  0  0  0  0  0  0  0  0
    3.4138   -0.3538   -3.2997 H   0  0  0  0  0  0  0  0  0  0  0  0
    6.0408    0.0061   -1.1452 H   0  0  0  0  0  0  0  0  0  0  0  0
    5.9959    0.9902    1.1462 H   0  0  0  0  0  0  0  0  0  0  0  0
    4.2725    0.6462    1.3247 H   0  0  0  0  0  0  0  0  0  0  0  0
    6.2025   -1.3536    0.7839 H   0  0  0  0  0  0  0  0  0  0  0  0
  1  2  1  0
  2  3  1  0
  2  4  2  3
  4  5  1  0
  5  6  1  0
  6  7  1  0
  7  8  1  0
  7  9  2  3
  9 10  1  0
 10 11  1  0
 11 12  1  0
 12 13  1  0
 12 14  2  3
 14 15  1  0
 15 16  1  0
  1 17  1  0
  1 18  1  0
  1 19  1  0
  3 20  1  0
  3 21  1  0
  3 22  1  0
  4 23  1  0
  5 24  1  0
  5 25  1  0
  6 26  1  0
  6 27  1  0
  8 28  1  0
  8 29  1  0
  8 30  1  0
  9 31  1  0
 10 32  1  0
 10 33  1  0
 11 34  1  0
 11 35  1  0
 13 36  1  0
 13 37  1  0
 13 38  1  0
 14 39  1  0
 15 40  1  0
 15 41  1  0
 16 42  1  0
M  END
$$$$
