
     RDKit          3D

 57 60  0  0  0  0  0  0  0  0999 V2000
   -2.1815   -0.2204    3.9597 C   0  0  0  0  0  0  0  0  0  0  0  0
   -1.5371   -0.8233    2.7157 C   0  0  0  0  0  0  0  0  0  0  0  0
   -0.7019    0.2055    1.9398 C   0  0  0  0  0  0  0  0  0  0  0  0
   -0.2468   -0.4906    0.2948 S   0  0  0  0  0  0  0  0  0  0  0  0
   -1.7895   -0.2894   -0.5204 C   0  0  0  0  0  0  0  0  0  0  0  0
   -2.2334    0.9328   -0.5438 N   0  0  0  0  0  0  0  0  0  0  0  0
   -3.4648    1.0913   -1.1734 C   0  0  0  0  0  0  0  0  0  0  0  0
   -4.1115    2.3343   -1.3406 C   0  0  0  0  0  0  0  0  0  0  0  0
   -5.3196    2.1740   -1.9910 C   0  0  0  0  0  0  0  0  0  0  0  0
   -5.6366    0.5250   -2.3720 S   0  0  0  0  0  0  0  0  0  0  0  0
   -4.1669    0.0407   -1.6809 C   0  0  0  0  0  0  0  0  0  0  0  0
   -3.6889   -1.3089   -1.6281 C   0  0  0  0  0  0  0  0  0  0  0  0
   -4.3329   -2.2771   -2.0282 O   0  0  0  0  0  0  0  0  0  0  0  0
   -2.4130   -1.4187   -1.0545 N   0  0  0  0  0  0  0  0  0  0  0  0
   -1.8243   -2.7641   -1.0552 C   0  0  0  0  0  0  0  0  0  0  0  0
   -0.9910   -3.0342   -2.2952 C   0  0  0  0  0  0  0  0  0  0  0  0
    0.4102   -2.9968   -2.2451 C   0  0  0  0  0  0  0  0  0  0  0  0
    1.1723   -3.2309   -3.3942 C   0  0  0  0  0  0  0  0  0  0  0  0
    0.5450   -3.5117   -4.6115 C   0  0  0  0  0  0  0  0  0  0  0  0
    1.3927   -3.7544   -5.8033 C   0  0  0  0  0  0  0  0  0  0  0  0
    2.6081   -3.7099   -5.8361 O   0  0  0  0  0  0  0  0  0  0  0  0
    0.6759   -4.0496   -6.9018 O   0  0  0  0  0  0  0  0  0  0  0  0
   -0.8507   -3.5610   -4.6700 C   0  0  0  0  0  0  0  0  0  0  0  0
   -1.6105   -3.3265   -3.5205 C   0  0  0  0  0  0  0  0  0  0  0  0
    0.6079    0.5778    2.6565 C   0  0  0  0  0  0  0  0  0  0  0  0
    1.0049   -0.0293    3.6460 O   0  0  0  0  0  0  0  0  0  0  0  0
    1.2407    1.6613    2.0588 N   0  0  0  0  0  0  0  0  0  0  0  0
    2.4250    2.3052    2.4710 C   0  0  0  0  0  0  0  0  0  0  0  0
    3.1411    1.9656    3.6181 C   0  0  0  0  0  0  0  0  0  0  0  0
    4.3094    2.6573    3.9592 C   0  0  0  0  0  0  0  0  0  0  0  0
    4.7854    3.7057    3.1604 C   0  0  0  0  0  0  0  0  0  0  0  0
    6.0421    4.4291    3.5548 C   0  0  0  0  0  0  0  0  0  0  0  0
    4.0568    4.0492    2.0146 C   0  0  0  0  0  0  0  0  0  0  0  0
    4.5578    5.3387    0.9809 Cl  0  0  0  0  0  0  0  0  0  0  0  0
    2.8915    3.3546    1.6721 C   0  0  0  0  0  0  0  0  0  0  0  0
   -1.4313    0.1251    4.6773 H   0  0  0  0  0  0  0  0  0  0  0  0
   -2.8228    0.6276    3.6966 H   0  0  0  0  0  0  0  0  0  0  0  0
   -2.8034   -0.9701    4.4602 H   0  0  0  0  0  0  0  0  0  0  0  0
   -0.9241   -1.6829    3.0140 H   0  0  0  0  0  0  0  0  0  0  0  0
   -2.3488   -1.2110    2.0885 H   0  0  0  0  0  0  0  0  0  0  0  0
   -1.2765    1.1297    1.8098 H   0  0  0  0  0  0  0  0  0  0  0  0
   -3.7251    3.2910   -1.0118 H   0  0  0  0  0  0  0  0  0  0  0  0
   -6.0341    2.9380   -2.2628 H   0  0  0  0  0  0  0  0  0  0  0  0
   -2.6159   -3.5222   -0.9969 H   0  0  0  0  0  0  0  0  0  0  0  0
   -1.2236   -2.9249   -0.1547 H   0  0  0  0  0  0  0  0  0  0  0  0
    0.9299   -2.7921   -1.3111 H   0  0  0  0  0  0  0  0  0  0  0  0
    2.2587   -3.1937   -3.3344 H   0  0  0  0  0  0  0  0  0  0  0  0
    1.3544   -4.1943   -7.5948 H   0  0  0  0  0  0  0  0  0  0  0  0
   -1.3604   -3.7820   -5.6049 H   0  0  0  0  0  0  0  0  0  0  0  0
   -2.6960   -3.3823   -3.5952 H   0  0  0  0  0  0  0  0  0  0  0  0
    0.8302    1.9911    1.1915 H   0  0  0  0  0  0  0  0  0  0  0  0
    2.8225    1.1620    4.2765 H   0  0  0  0  0  0  0  0  0  0  0  0
    4.8445    2.3627    4.8607 H   0  0  0  0  0  0  0  0  0  0  0  0
    6.4920    3.9860    4.4513 H   0  0  0  0  0  0  0  0  0  0  0  0
    5.8236    5.4804    3.7782 H   0  0  0  0  0  0  0  0  0  0  0  0
    6.7878    4.3674    2.7515 H   0  0  0  0  0  0  0  0  0  0  0  0
    2.3523    3.6431    0.7739 H   0  0  0  0  0  0  0  0  0  0  0  0
  1  2  1  0
  2  3  1  0
  3  4  1  0
  4  5  1  0
  5  6  2  0
  6  7  1  0
  7  8  1  0
  8  9  2  0
  9 10  1  0
 10 11  1  0
 11 12  1  0
 12 13  2  0
 12 14  1  0
 14 15  1  0
 15 16  1  0
 16 17  2  0
 17 18  1  0
 18 19  2  0
 19 20  1  0
 20 21  2  0
 20 22  1  0
 19 23  1  0
 23 24  2  0
  3 25  1  0
 25 26  2  0
 25 27  1  0
 27 28  1  0
 28 29  2  0
 29 30  1  0
 30 31  2  0
 31 32  1  0
 31 33  1  0
 33 34  1  0
 33 35  2  0
 14  5  1  0
 24 16  1  0
 35 28  1  0
 11  7  2  0
  1 36  1  0
  1 37  1  0
  1 38  1  0
  2 39  1  0
  2 40  1  0
  3 41  1  0
  8 42  1  0
  9 43  1  0
 15 44  1  0
 15 45  1  0
 17 46  1  0
 18 47  1  0
 22 48  1  0
 23 49  1  0
 24 50  1  0
 27 51  1  0
 29 52  1  0
 30 53  1  0
 32 54  1  0
 32 55  1  0
 32 56  1  0
 35 57  1  0
M  END
$$$$
