
     RDKit          3D

 69 74  0  0  0  0  0  0  0  0999 V2000
    3.2683   -1.0277    2.5520 O   0  0  0  0  0  0  0  0  0  0  0  0
    2.2784   -0.5867    1.6035 C   0  0  0  0  0  0  0  0  0  0  0  0
    2.7253   -0.9927    0.1935 C   0  0  0  0  0  0  0  0  0  0  0  0
    3.9374   -0.2709   -0.0721 O   0  0  0  0  0  0  0  0  0  0  0  0
    4.6800   -0.6014   -1.1680 C   0  0  0  0  0  0  0  0  0  0  0  0
    4.2206   -1.4756   -2.1625 C   0  0  0  0  0  0  0  0  0  0  0  0
    5.0290   -1.8136   -3.2505 C   0  0  0  0  0  0  0  0  0  0  0  0
    6.3104   -1.2802   -3.3599 C   0  0  0  0  0  0  0  0  0  0  0  0
    6.7955   -0.3940   -2.3972 C   0  0  0  0  0  0  0  0  0  0  0  0
    8.1108    0.0945   -2.5829 N   0  0  0  0  0  0  0  0  0  0  0  0
    8.5924    0.9205   -1.7094 C   0  0  0  0  0  0  0  0  0  0  0  0
    7.8258    1.3528   -0.5817 C   0  0  0  0  0  0  0  0  0  0  0  0
    8.1459    2.2177    0.4431 C   0  0  0  0  0  0  0  0  0  0  0  0
    7.0076    2.3127    1.2733 C   0  0  0  0  0  0  0  0  0  0  0  0
    6.0337    1.5010    0.7292 C   0  0  0  0  0  0  0  0  0  0  0  0
    6.5393    0.8883   -0.3966 N   0  0  0  0  0  0  0  0  0  0  0  0
    5.9660   -0.0420   -1.3042 C   0  0  0  0  0  0  0  0  0  0  0  0
    0.9240   -1.1956    2.0054 C   0  0  0  0  0  0  0  0  0  0  0  0
   -0.2204   -0.8535    1.1445 N   0  0  0  0  0  0  0  0  0  0  0  0
   -1.4216   -1.6086    1.5741 C   0  0  0  0  0  0  0  0  0  0  0  0
   -2.7835   -0.8902    1.3703 C   0  0  0  0  0  0  0  0  0  0  0  0
   -2.7865   -0.0709    0.1629 N   0  0  0  0  0  0  0  0  0  0  0  0
   -4.0984    0.4428   -0.2941 C   0  0  0  0  0  0  0  0  0  0  0  0
   -4.9818   -0.6383   -0.9551 C   0  0  0  0  0  0  0  0  0  0  0  0
   -6.3624   -0.4357   -1.1477 C   0  0  0  0  0  0  0  0  0  0  0  0
   -7.1462   -1.3844   -1.8103 C   0  0  0  0  0  0  0  0  0  0  0  0
   -6.5688   -2.5516   -2.3026 C   0  0  0  0  0  0  0  0  0  0  0  0
   -5.2030   -2.7637   -2.1486 C   0  0  0  0  0  0  0  0  0  0  0  0
   -4.4172   -1.8115   -1.4937 C   0  0  0  0  0  0  0  0  0  0  0  0
   -4.8173    1.3168    0.7461 C   0  0  0  0  0  0  0  0  0  0  0  0
   -4.8018    2.7173    0.6140 C   0  0  0  0  0  0  0  0  0  0  0  0
   -5.4412    3.5325    1.5502 C   0  0  0  0  0  0  0  0  0  0  0  0
   -6.1060    2.9631    2.6345 C   0  0  0  0  0  0  0  0  0  0  0  0
   -6.1367    1.5779    2.7809 C   0  0  0  0  0  0  0  0  0  0  0  0
   -5.5035    0.7614    1.8419 C   0  0  0  0  0  0  0  0  0  0  0  0
   -1.7220    0.9434    0.2001 C   0  0  0  0  0  0  0  0  0  0  0  0
   -0.5123    0.5877    1.1093 C   0  0  0  0  0  0  0  0  0  0  0  0
    4.1181   -0.6724    2.2332 H   0  0  0  0  0  0  0  0  0  0  0  0
    2.2521    0.5056    1.6884 H   0  0  0  0  0  0  0  0  0  0  0  0
    1.9706   -0.7158   -0.5499 H   0  0  0  0  0  0  0  0  0  0  0  0
    2.9242   -2.0708    0.1710 H   0  0  0  0  0  0  0  0  0  0  0  0
    3.2278   -1.9156   -2.1238 H   0  0  0  0  0  0  0  0  0  0  0  0
    4.6607   -2.4978   -4.0113 H   0  0  0  0  0  0  0  0  0  0  0  0
    6.9426   -1.5489   -4.2036 H   0  0  0  0  0  0  0  0  0  0  0  0
    9.6171    1.3070   -1.8396 H   0  0  0  0  0  0  0  0  0  0  0  0
    9.0889    2.7332    0.5728 H   0  0  0  0  0  0  0  0  0  0  0  0
    6.8978    2.9163    2.1658 H   0  0  0  0  0  0  0  0  0  0  0  0
    5.0230    1.3395    1.0676 H   0  0  0  0  0  0  0  0  0  0  0  0
    0.7162   -0.9126    3.0477 H   0  0  0  0  0  0  0  0  0  0  0  0
    1.0448   -2.2880    2.0194 H   0  0  0  0  0  0  0  0  0  0  0  0
   -1.4300   -2.5501    1.0110 H   0  0  0  0  0  0  0  0  0  0  0  0
   -1.3606   -1.8755    2.6377 H   0  0  0  0  0  0  0  0  0  0  0  0
   -3.5652   -1.6585    1.3394 H   0  0  0  0  0  0  0  0  0  0  0  0
   -2.9723   -0.2691    2.2558 H   0  0  0  0  0  0  0  0  0  0  0  0
   -3.8815    1.0978   -1.1527 H   0  0  0  0  0  0  0  0  0  0  0  0
   -6.8439    0.4758   -0.7983 H   0  0  0  0  0  0  0  0  0  0  0  0
   -8.2054   -1.2015   -1.9555 H   0  0  0  0  0  0  0  0  0  0  0  0
   -7.1788   -3.2852   -2.8212 H   0  0  0  0  0  0  0  0  0  0  0  0
   -4.7394   -3.6624   -2.5462 H   0  0  0  0  0  0  0  0  0  0  0  0
   -3.3450   -1.9894   -1.4217 H   0  0  0  0  0  0  0  0  0  0  0  0
   -4.2828    3.1837   -0.2206 H   0  0  0  0  0  0  0  0  0  0  0  0
   -5.4170    4.6138    1.4345 H   0  0  0  0  0  0  0  0  0  0  0  0
   -6.5999    3.5975    3.3652 H   0  0  0  0  0  0  0  0  0  0  0  0
   -6.6536    1.1306    3.6266 H   0  0  0  0  0  0  0  0  0  0  0  0
   -5.5530   -0.3180    1.9672 H   0  0  0  0  0  0  0  0  0  0  0  0
   -2.0943    1.9146    0.5387 H   0  0  0  0  0  0  0  0  0  0  0  0
   -1.3591    1.0764   -0.8263 H   0  0  0  0  0  0  0  0  0  0  0  0
    0.3492    1.1483    0.7304 H   0  0  0  0  0  0  0  0  0  0  0  0
   -0.7115    0.9497    2.1266 H   0  0  0  0  0  0  0  0  0  0  0  0
  1  2  1  0
  2  3  1  0
  3  4  1  0
  4  5  1  0
  5  6  2  0
  6  7  1  0
  7  8  2  0
  8  9  1  0
  9 10  1  0
 10 11  2  0
 11 12  1  0
 12 13  2  0
 13 14  1  0
 14 15  2  0
 15 16  1  0
 16 17  1  0
  2 18  1  0
 18 19  1  0
 19 20  1  0
 20 21  1  0
 21 22  1  0
 22 23  1  0
 23 24  1  0
 24 25  2  0
 25 26  1  0
 26 27  2  0
 27 28  1  0
 28 29  2  0
 23 30  1  0
 30 31  2  0
 31 32  1  0
 32 33  2  0
 33 34  1  0
 34 35  2  0
 22 36  1  0
 36 37  1  0
 17  5  1  0
 37 19  1  0
 17  9  2  0
 29 24  1  0
 35 30  1  0
 16 12  1  0
  1 38  1  0
  2 39  1  0
  3 40  1  0
  3 41  1  0
  6 42  1  0
  7 43  1  0
  8 44  1  0
 11 45  1  0
 13 46  1  0
 14 47  1  0
 15 48  1  0
 18 49  1  0
 18 50  1  0
 20 51  1  0
 20 52  1  0
 21 53  1  0
 21 54  1  0
 23 55  1  0
 25 56  1  0
 26 57  1  0
 27 58  1  0
 28 59  1  0
 29 60  1  0
 31 61  1  0
 32 62  1  0
 33 63  1  0
 34 64  1  0
 35 65  1  0
 36 66  1  0
 36 67  1  0
 37 68  1  0
 37 69  1  0
M  END
$$$$
