
     RDKit          3D

 47 50  0  0  0  0  0  0  0  0999 V2000
   -1.2891   -2.2014    2.1927 C   0  0  0  0  0  0  0  0  0  0  0  0
   -0.9414   -1.5069    0.9069 C   0  0  0  0  0  0  0  0  0  0  0  0
    0.1400   -1.8753    0.2780 N   0  0  0  0  0  0  0  0  0  0  0  0
    0.5243   -1.2493   -0.9137 N   0  0  0  0  0  0  0  0  0  0  0  0
    1.7911   -1.6689   -1.4877 C   0  0  0  0  0  0  0  0  0  0  0  0
    2.9235   -0.7223   -1.0815 C   0  0  0  0  0  0  0  0  0  0  0  0
    2.8324    0.1201   -0.1918 O   0  0  0  0  0  0  0  0  0  0  0  0
    4.0881   -0.9291   -1.7980 N   0  0  0  0  0  0  0  0  0  0  0  0
    5.3066   -0.2168   -1.4889 C   0  0  0  0  0  0  0  0  0  0  0  0
    6.1442   -1.0877   -0.6076 C   0  0  0  0  0  0  0  0  0  0  0  0
    6.0739   -1.2251    0.7657 C   0  0  0  0  0  0  0  0  0  0  0  0
    7.0318   -2.1512    1.2685 C   0  0  0  0  0  0  0  0  0  0  0  0
    7.8013   -2.6921    0.2631 C   0  0  0  0  0  0  0  0  0  0  0  0
    7.3661   -2.0867   -1.2759 S   0  0  0  0  0  0  0  0  0  0  0  0
   -0.1791   -0.2113   -1.5547 C   0  0  0  0  0  0  0  0  0  0  0  0
    0.1894    0.3036   -2.6093 O   0  0  0  0  0  0  0  0  0  0  0  0
   -1.3926    0.1657   -0.8434 C   0  0  0  0  0  0  0  0  0  0  0  0
   -2.2882    1.0768   -1.2299 N   0  0  0  0  0  0  0  0  0  0  0  0
   -3.1861    1.1438   -0.2094 N   0  0  0  0  0  0  0  0  0  0  0  0
   -4.1493    2.2006   -0.2155 C   0  0  0  0  0  0  0  0  0  0  0  0
   -4.8475    2.5868    0.9349 C   0  0  0  0  0  0  0  0  0  0  0  0
   -5.7753    3.6332    0.8805 C   0  0  0  0  0  0  0  0  0  0  0  0
   -6.0043    4.3102   -0.3151 C   0  0  0  0  0  0  0  0  0  0  0  0
   -5.2968    3.9530   -1.4590 C   0  0  0  0  0  0  0  0  0  0  0  0
   -4.3689    2.9102   -1.4095 C   0  0  0  0  0  0  0  0  0  0  0  0
   -2.9813    0.1014    0.7039 C   0  0  0  0  0  0  0  0  0  0  0  0
   -3.9441   -0.2975    1.7626 C   0  0  0  0  0  0  0  0  0  0  0  0
   -1.7662   -0.4619    0.3499 C   0  0  0  0  0  0  0  0  0  0  0  0
   -2.1297   -2.8798    2.0247 H   0  0  0  0  0  0  0  0  0  0  0  0
   -0.4371   -2.7875    2.5500 H   0  0  0  0  0  0  0  0  0  0  0  0
   -1.5528   -1.4695    2.9606 H   0  0  0  0  0  0  0  0  0  0  0  0
    1.7093   -1.6840   -2.5801 H   0  0  0  0  0  0  0  0  0  0  0  0
    2.0310   -2.6786   -1.1373 H   0  0  0  0  0  0  0  0  0  0  0  0
    4.1627   -1.7302   -2.4098 H   0  0  0  0  0  0  0  0  0  0  0  0
    5.0836    0.7339   -0.9929 H   0  0  0  0  0  0  0  0  0  0  0  0
    5.8074    0.0057   -2.4367 H   0  0  0  0  0  0  0  0  0  0  0  0
    5.3595   -0.6842    1.3773 H   0  0  0  0  0  0  0  0  0  0  0  0
    7.1489   -2.4073    2.3143 H   0  0  0  0  0  0  0  0  0  0  0  0
    8.5992   -3.4161    0.3569 H   0  0  0  0  0  0  0  0  0  0  0  0
   -4.6664    2.1365    1.9031 H   0  0  0  0  0  0  0  0  0  0  0  0
   -6.3098    3.9311    1.7794 H   0  0  0  0  0  0  0  0  0  0  0  0
   -6.7224    5.1253   -0.3522 H   0  0  0  0  0  0  0  0  0  0  0  0
   -5.4607    4.4866   -2.3919 H   0  0  0  0  0  0  0  0  0  0  0  0
   -3.8278    2.6543   -2.3199 H   0  0  0  0  0  0  0  0  0  0  0  0
   -4.9795   -0.0977    1.4720 H   0  0  0  0  0  0  0  0  0  0  0  0
   -3.7211    0.2141    2.7034 H   0  0  0  0  0  0  0  0  0  0  0  0
   -3.8969   -1.3743    1.9474 H   0  0  0  0  0  0  0  0  0  0  0  0
  1  2  1  0
  2  3  2  0
  3  4  1  0
  4  5  1  0
  5  6  1  0
  6  7  2  0
  6  8  1  0
  8  9  1  0
  9 10  1  0
 10 11  2  0
 11 12  1  0
 12 13  2  0
 13 14  1  0
  4 15  1  0
 15 16  2  0
 15 17  1  0
 17 18  2  0
 18 19  1  0
 19 20  1  0
 20 21  2  0
 21 22  1  0
 22 23  2  0
 23 24  1  0
 24 25  2  0
 19 26  1  0
 26 27  1  0
 26 28  2  0
 28  2  1  0
 14 10  1  0
 28 17  1  0
 25 20  1  0
  1 29  1  0
  1 30  1  0
  1 31  1  0
  5 32  1  0
  5 33  1  0
  8 34  1  0
  9 35  1  0
  9 36  1  0
 11 37  1  0
 12 38  1  0
 13 39  1  0
 21 40  1  0
 22 41  1  0
 23 42  1  0
 24 43  1  0
 25 44  1  0
 27 45  1  0
 27 46  1  0
 27 47  1  0
M  END
$$$$
