
     RDKit          3D

 54 58  0  0  0  0  0  0  0  0999 V2000
    4.1621    0.8235    1.8184 F   0  0  0  0  0  0  0  0  0  0  0  0
    4.7729    1.6107    0.8893 C   0  0  0  0  0  0  0  0  0  0  0  0
    5.7197    2.3142    1.5738 F   0  0  0  0  0  0  0  0  0  0  0  0
    3.8415    2.5268    0.5055 F   0  0  0  0  0  0  0  0  0  0  0  0
    5.3266    0.8198   -0.2763 C   0  0  0  0  0  0  0  0  0  0  0  0
    6.6874    0.9616   -0.6114 C   0  0  0  0  0  0  0  0  0  0  0  0
    7.2435    0.2579   -1.6793 C   0  0  0  0  0  0  0  0  0  0  0  0
    6.4505   -0.6003   -2.4311 C   0  0  0  0  0  0  0  0  0  0  0  0
    5.1006   -0.7534   -2.1191 C   0  0  0  0  0  0  0  0  0  0  0  0
    4.5203   -0.0483   -1.0485 C   0  0  0  0  0  0  0  0  0  0  0  0
    3.0489   -0.2740   -0.7559 C   0  0  0  0  0  0  0  0  0  0  0  0
    2.8144   -1.5749    0.0368 C   0  0  0  0  0  0  0  0  0  0  0  0
    1.4479   -1.8145    0.5124 N   0  0  0  0  0  0  0  0  0  0  0  0
    0.4532   -1.9792   -0.5573 C   0  0  0  0  0  0  0  0  0  0  0  0
   -0.9932   -2.0320   -0.0159 C   0  0  0  0  0  0  0  0  0  0  0  0
   -1.3503   -0.8058    0.7113 N   0  0  0  0  0  0  0  0  0  0  0  0
   -2.6001   -0.2075    0.5816 C   0  0  0  0  0  0  0  0  0  0  0  0
   -2.6519    1.1029    0.5965 N   0  0  0  0  0  0  0  0  0  0  0  0
   -3.8732    1.7828    0.4362 C   0  0  0  0  0  0  0  0  0  0  0  0
   -3.8616    3.1792    0.4534 C   0  0  0  0  0  0  0  0  0  0  0  0
   -5.0445    3.9047    0.2859 C   0  0  0  0  0  0  0  0  0  0  0  0
   -6.2548    3.2369    0.0982 C   0  0  0  0  0  0  0  0  0  0  0  0
   -6.2897    1.8417    0.0808 C   0  0  0  0  0  0  0  0  0  0  0  0
   -5.0975    1.1297    0.2489 C   0  0  0  0  0  0  0  0  0  0  0  0
   -5.0430   -0.2732    0.2596 N   0  0  0  0  0  0  0  0  0  0  0  0
   -6.0631   -1.1839    0.1212 C   0  0  0  0  0  0  0  0  0  0  0  0
   -5.5377   -2.4463    0.2843 C   0  0  0  0  0  0  0  0  0  0  0  0
   -4.1494   -2.2948    0.5088 C   0  0  0  0  0  0  0  0  0  0  0  0
   -3.8508   -0.9441    0.4413 C   0  0  0  0  0  0  0  0  0  0  0  0
   -0.2102    0.0064    1.1725 C   0  0  0  0  0  0  0  0  0  0  0  0
    0.9971   -0.8744    1.5563 C   0  0  0  0  0  0  0  0  0  0  0  0
    7.3273    1.6275   -0.0344 H   0  0  0  0  0  0  0  0  0  0  0  0
    8.2958    0.3814   -1.9233 H   0  0  0  0  0  0  0  0  0  0  0  0
    6.8823   -1.1516   -3.2627 H   0  0  0  0  0  0  0  0  0  0  0  0
    4.4977   -1.4313   -2.7208 H   0  0  0  0  0  0  0  0  0  0  0  0
    2.5142   -0.3115   -1.7132 H   0  0  0  0  0  0  0  0  0  0  0  0
    2.6302    0.5859   -0.2266 H   0  0  0  0  0  0  0  0  0  0  0  0
    3.1176   -2.4313   -0.5807 H   0  0  0  0  0  0  0  0  0  0  0  0
    3.4893   -1.6048    0.9036 H   0  0  0  0  0  0  0  0  0  0  0  0
    0.5107   -1.1581   -1.2824 H   0  0  0  0  0  0  0  0  0  0  0  0
    0.6602   -2.9088   -1.1000 H   0  0  0  0  0  0  0  0  0  0  0  0
   -1.1000   -2.8902    0.6574 H   0  0  0  0  0  0  0  0  0  0  0  0
   -1.6607   -2.1845   -0.8714 H   0  0  0  0  0  0  0  0  0  0  0  0
   -2.9194    3.7016    0.5969 H   0  0  0  0  0  0  0  0  0  0  0  0
   -5.0185    4.9914    0.3012 H   0  0  0  0  0  0  0  0  0  0  0  0
   -7.1732    3.8052   -0.0298 H   0  0  0  0  0  0  0  0  0  0  0  0
   -7.2439    1.3434   -0.0569 H   0  0  0  0  0  0  0  0  0  0  0  0
   -7.0818   -0.8755   -0.0603 H   0  0  0  0  0  0  0  0  0  0  0  0
   -6.0967   -3.3728    0.2556 H   0  0  0  0  0  0  0  0  0  0  0  0
   -3.4491   -3.0953    0.6994 H   0  0  0  0  0  0  0  0  0  0  0  0
   -0.5022    0.5878    2.0553 H   0  0  0  0  0  0  0  0  0  0  0  0
    0.0815    0.7135    0.3861 H   0  0  0  0  0  0  0  0  0  0  0  0
    0.7097   -1.4829    2.4233 H   0  0  0  0  0  0  0  0  0  0  0  0
    1.8131   -0.2310    1.9051 H   0  0  0  0  0  0  0  0  0  0  0  0
  1  2  1  0
  2  3  1  0
  2  4  1  0
  2  5  1  0
  5  6  2  0
  6  7  1  0
  7  8  2  0
  8  9  1  0
  9 10  2  0
 10 11  1  0
 11 12  1  0
 12 13  1  0
 13 14  1  0
 14 15  1  0
 15 16  1  0
 16 17  1  0
 17 18  2  0
 18 19  1  0
 19 20  2  0
 20 21  1  0
 21 22  2  0
 22 23  1  0
 23 24  2  0
 24 25  1  0
 25 26  1  0
 26 27  2  0
 27 28  1  0
 28 29  2  0
 16 30  1  0
 30 31  1  0
 10  5  1  0
 31 13  1  0
 29 17  1  0
 24 19  1  0
 29 25  1  0
  6 32  1  0
  7 33  1  0
  8 34  1  0
  9 35  1  0
 11 36  1  0
 11 37  1  0
 12 38  1  0
 12 39  1  0
 14 40  1  0
 14 41  1  0
 15 42  1  0
 15 43  1  0
 20 44  1  0
 21 45  1  0
 22 46  1  0
 23 47  1  0
 26 48  1  0
 27 49  1  0
 28 50  1  0
 30 51  1  0
 30 52  1  0
 31 53  1  0
 31 54  1  0
M  END
$$$$
