
     RDKit          3D

 58 63  0  0  0  0  0  0  0  0999 V2000
    6.9431   -3.0474    2.2076 C   0  0  0  0  0  0  0  0  0  0  0  0
    6.0489   -2.0081    1.6241 C   0  0  0  0  0  0  0  0  0  0  0  0
    5.6047   -0.8354    2.1975 C   0  0  0  0  0  0  0  0  0  0  0  0
    4.7636   -0.0922    1.3188 C   0  0  0  0  0  0  0  0  0  0  0  0
    4.5744   -0.7289    0.1066 C   0  0  0  0  0  0  0  0  0  0  0  0
    3.8018   -0.3059   -1.0529 C   0  0  0  0  0  0  0  0  0  0  0  0
    4.2697   -0.3287   -2.1919 O   0  0  0  0  0  0  0  0  0  0  0  0
    2.4962    0.1605   -0.8294 N   0  0  0  0  0  0  0  0  0  0  0  0
    1.7562    0.7019   -1.9637 C   0  0  0  0  0  0  0  0  0  0  0  0
    0.6960    1.6921   -1.4963 C   0  0  0  0  0  0  0  0  0  0  0  0
   -0.3432    1.0620   -0.5159 C   0  0  0  0  0  0  0  0  0  0  0  0
    0.2379   -0.2454    0.0893 C   0  0  0  0  0  0  0  0  0  0  0  0
    1.7310   -0.1172    0.3846 C   0  0  0  0  0  0  0  0  0  0  0  0
   -0.4980    1.9456    0.6289 O   0  0  0  0  0  0  0  0  0  0  0  0
   -1.2112    3.0903    0.4125 C   0  0  0  0  0  0  0  0  0  0  0  0
   -1.0347    4.1095    1.3479 C   0  0  0  0  0  0  0  0  0  0  0  0
   -1.7108    5.3223    1.1960 C   0  0  0  0  0  0  0  0  0  0  0  0
   -2.5668    5.5097    0.1107 C   0  0  0  0  0  0  0  0  0  0  0  0
   -3.3962    7.0049   -0.0712 Cl  0  0  0  0  0  0  0  0  0  0  0  0
   -2.7608    4.4918   -0.8195 C   0  0  0  0  0  0  0  0  0  0  0  0
   -2.0850    3.2779   -0.6562 C   0  0  0  0  0  0  0  0  0  0  0  0
   -2.3108    2.1662   -1.5980 C   0  0  0  0  0  0  0  0  0  0  0  0
   -2.9782    2.3576   -2.6093 O   0  0  0  0  0  0  0  0  0  0  0  0
   -1.7251    0.8186   -1.1870 C   0  0  0  0  0  0  0  0  0  0  0  0
   -2.7682    0.1090   -0.3318 C   0  0  0  0  0  0  0  0  0  0  0  0
   -2.7352   -1.2342   -0.9725 C   0  0  0  0  0  0  0  0  0  0  0  0
   -3.4185   -2.4049   -0.3752 C   0  0  0  0  0  0  0  0  0  0  0  0
   -4.2225   -2.2806    0.7637 C   0  0  0  0  0  0  0  0  0  0  0  0
   -4.8476   -3.4077    1.3044 C   0  0  0  0  0  0  0  0  0  0  0  0
   -4.6743   -4.6576    0.7113 C   0  0  0  0  0  0  0  0  0  0  0  0
   -3.8780   -4.7854   -0.4251 C   0  0  0  0  0  0  0  0  0  0  0  0
   -3.2517   -3.6624   -0.9686 C   0  0  0  0  0  0  0  0  0  0  0  0
   -2.0663   -1.2924   -2.0788 N   0  0  0  0  0  0  0  0  0  0  0  0
   -1.5702    0.0019   -2.3524 O   0  0  0  0  0  0  0  0  0  0  0  0
    5.4556   -2.1945    0.0302 S   0  0  0  0  0  0  0  0  0  0  0  0
    7.2359   -2.7825    3.2289 H   0  0  0  0  0  0  0  0  0  0  0  0
    7.8569   -3.1518    1.6138 H   0  0  0  0  0  0  0  0  0  0  0  0
    6.4374   -4.0176    2.2457 H   0  0  0  0  0  0  0  0  0  0  0  0
    5.8791   -0.5171    3.1962 H   0  0  0  0  0  0  0  0  0  0  0  0
    4.3295    0.8698    1.5612 H   0  0  0  0  0  0  0  0  0  0  0  0
    1.3071   -0.1364   -2.5089 H   0  0  0  0  0  0  0  0  0  0  0  0
    2.4477    1.2036   -2.6500 H   0  0  0  0  0  0  0  0  0  0  0  0
    1.2057    2.5324   -1.0053 H   0  0  0  0  0  0  0  0  0  0  0  0
    0.2050    2.1146   -2.3802 H   0  0  0  0  0  0  0  0  0  0  0  0
    0.1053   -1.0904   -0.5948 H   0  0  0  0  0  0  0  0  0  0  0  0
   -0.2746   -0.4962    1.0257 H   0  0  0  0  0  0  0  0  0  0  0  0
    1.9119    0.7044    1.0861 H   0  0  0  0  0  0  0  0  0  0  0  0
    2.0847   -1.0452    0.8449 H   0  0  0  0  0  0  0  0  0  0  0  0
   -0.3614    3.9680    2.1901 H   0  0  0  0  0  0  0  0  0  0  0  0
   -1.5631    6.1169    1.9236 H   0  0  0  0  0  0  0  0  0  0  0  0
   -3.4373    4.6362   -1.6593 H   0  0  0  0  0  0  0  0  0  0  0  0
   -2.5137    0.0731    0.7295 H   0  0  0  0  0  0  0  0  0  0  0  0
   -3.7754    0.5252   -0.4451 H   0  0  0  0  0  0  0  0  0  0  0  0
   -4.3870   -1.3210    1.2437 H   0  0  0  0  0  0  0  0  0  0  0  0
   -5.4750   -3.3112    2.1874 H   0  0  0  0  0  0  0  0  0  0  0  0
   -5.1636   -5.5329    1.1320 H   0  0  0  0  0  0  0  0  0  0  0  0
   -3.7458   -5.7586   -0.8921 H   0  0  0  0  0  0  0  0  0  0  0  0
   -2.6355   -3.7767   -1.8586 H   0  0  0  0  0  0  0  0  0  0  0  0
  1  2  1  0
  2  3  2  0
  3  4  1  0
  4  5  2  0
  5  6  1  0
  6  7  2  0
  6  8  1  0
  8  9  1  0
  9 10  1  0
 10 11  1  0
 11 12  1  0
 12 13  1  0
 11 14  1  0
 14 15  1  0
 15 16  2  0
 16 17  1  0
 17 18  2  0
 18 19  1  0
 18 20  1  0
 20 21  2  0
 21 22  1  0
 22 23  2  0
 22 24  1  0
 24 25  1  0
 25 26  1  0
 26 27  1  0
 27 28  2  0
 28 29  1  0
 29 30  2  0
 30 31  1  0
 31 32  2  0
 26 33  2  0
 33 34  1  0
  5 35  1  0
 35  2  1  0
 13  8  1  0
 21 15  1  0
 34 24  1  0
 24 11  1  0
 32 27  1  0
  1 36  1  0
  1 37  1  0
  1 38  1  0
  3 39  1  0
  4 40  1  0
  9 41  1  0
  9 42  1  0
 10 43  1  0
 10 44  1  0
 12 45  1  0
 12 46  1  0
 13 47  1  0
 13 48  1  0
 16 49  1  0
 17 50  1  0
 20 51  1  0
 25 52  1  0
 25 53  1  0
 28 54  1  0
 29 55  1  0
 30 56  1  0
 31 57  1  0
 32 58  1  0
M  END
$$$$
