
     RDKit          3D

 51 55  0  0  0  0  0  0  0  0999 V2000
    6.8423   -1.6863   -1.8667 C   0  0  0  0  0  0  0  0  0  0  0  0
    5.4370   -1.1871   -2.1526 C   0  0  0  0  0  0  0  0  0  0  0  0
    4.9469   -0.5495   -0.9741 O   0  0  0  0  0  0  0  0  0  0  0  0
    3.6926   -0.0092   -1.0314 C   0  0  0  0  0  0  0  0  0  0  0  0
    3.2848    0.6349    0.1415 C   0  0  0  0  0  0  0  0  0  0  0  0
    2.0259    1.2306    0.2281 C   0  0  0  0  0  0  0  0  0  0  0  0
    1.1622    1.1640   -0.8674 C   0  0  0  0  0  0  0  0  0  0  0  0
   -0.4462    1.9185   -0.7735 S   0  0  0  0  0  6  0  0  0  0  0  0
   -0.4674    2.7599    0.4066 O   0  0  0  0  0  0  0  0  0  0  0  0
   -0.7087    2.4982   -2.0748 O   0  0  0  0  0  0  0  0  0  0  0  0
   -1.5101    0.6186   -0.5274 N   0  0  0  0  0  0  0  0  0  0  0  0
   -1.9382   -0.1352   -1.6547 C   0  0  0  0  0  0  0  0  0  0  0  0
   -1.4582   -1.2301   -1.9274 O   0  0  0  0  0  0  0  0  0  0  0  0
   -3.0265    0.4789   -2.3954 C   0  0  0  0  0  0  0  0  0  0  0  0
   -3.7554    1.6466   -2.2342 C   0  0  0  0  0  0  0  0  0  0  0  0
   -4.7063    1.6917   -3.2831 C   0  0  0  0  0  0  0  0  0  0  0  0
   -4.5122    0.5512   -4.0219 C   0  0  0  0  0  0  0  0  0  0  0  0
   -3.5049   -0.1888   -3.4956 O   0  0  0  0  0  0  0  0  0  0  0  0
   -1.3416   -0.1275    0.7060 C   0  0  0  0  0  0  0  0  0  0  0  0
   -0.4085   -1.1747    0.7847 C   0  0  0  0  0  0  0  0  0  0  0  0
   -0.2383   -1.8388    1.9840 C   0  0  0  0  0  0  0  0  0  0  0  0
    0.8608   -3.1582    2.3331 S   0  0  0  0  0  0  0  0  0  0  0  0
    0.2506   -3.1675    3.9899 C   0  0  0  0  0  0  0  0  0  0  0  0
    0.6679   -3.9530    4.8296 O   0  0  0  0  0  0  0  0  0  0  0  0
   -0.7321   -2.2228    4.2719 O   0  0  0  0  0  0  0  0  0  0  0  0
   -0.9768   -1.4883    3.1053 C   0  0  0  0  0  0  0  0  0  0  0  0
   -1.9177   -0.4522    3.0762 C   0  0  0  0  0  0  0  0  0  0  0  0
   -2.6678   -0.0986    4.2159 C   0  0  0  0  0  0  0  0  0  0  0  0
   -3.5970    0.9379    4.1716 C   0  0  0  0  0  0  0  0  0  0  0  0
   -3.7904    1.6369    2.9891 C   0  0  0  0  0  0  0  0  0  0  0  0
   -3.0567    1.2977    1.8500 C   0  0  0  0  0  0  0  0  0  0  0  0
   -2.1047    0.2516    1.8564 C   0  0  0  0  0  0  0  0  0  0  0  0
    1.5652    0.5433   -2.0534 C   0  0  0  0  0  0  0  0  0  0  0  0
    2.8296   -0.0497   -2.1292 C   0  0  0  0  0  0  0  0  0  0  0  0
    6.8350   -2.4040   -1.0400 H   0  0  0  0  0  0  0  0  0  0  0  0
    7.4934   -0.8584   -1.5661 H   0  0  0  0  0  0  0  0  0  0  0  0
    7.2712   -2.1704   -2.7489 H   0  0  0  0  0  0  0  0  0  0  0  0
    4.8011   -2.0406   -2.4166 H   0  0  0  0  0  0  0  0  0  0  0  0
    5.4740   -0.4730   -2.9841 H   0  0  0  0  0  0  0  0  0  0  0  0
    3.9605    0.6757    0.9937 H   0  0  0  0  0  0  0  0  0  0  0  0
    1.7338    1.7340    1.1474 H   0  0  0  0  0  0  0  0  0  0  0  0
   -3.6127    2.3897   -1.4622 H   0  0  0  0  0  0  0  0  0  0  0  0
   -5.4390    2.4625   -3.4792 H   0  0  0  0  0  0  0  0  0  0  0  0
   -4.9812    0.1419   -4.9065 H   0  0  0  0  0  0  0  0  0  0  0  0
    0.1808   -1.4791   -0.0765 H   0  0  0  0  0  0  0  0  0  0  0  0
   -2.5304   -0.6313    5.1557 H   0  0  0  0  0  0  0  0  0  0  0  0
   -4.1641    1.2004    5.0611 H   0  0  0  0  0  0  0  0  0  0  0  0
   -4.5084    2.4527    2.9501 H   0  0  0  0  0  0  0  0  0  0  0  0
   -3.2336    1.8798    0.9495 H   0  0  0  0  0  0  0  0  0  0  0  0
    0.9086    0.5103   -2.9208 H   0  0  0  0  0  0  0  0  0  0  0  0
    3.1110   -0.5333   -3.0597 H   0  0  0  0  0  0  0  0  0  0  0  0
  1  2  1  0
  2  3  1  0
  3  4  1  0
  4  5  2  0
  5  6  1  0
  6  7  2  0
  7  8  1  0
  8  9  2  0
  8 10  2  0
  8 11  1  0
 11 12  1  0
 12 13  2  0
 12 14  1  0
 14 15  2  0
 15 16  1  0
 16 17  2  0
 17 18  1  0
 11 19  1  0
 19 20  2  0
 20 21  1  0
 21 22  1  0
 22 23  1  0
 23 24  2  0
 23 25  1  0
 25 26  1  0
 26 27  1  0
 27 28  2  0
 28 29  1  0
 29 30  2  0
 30 31  1  0
 31 32  2  0
  7 33  1  0
 33 34  2  0
 34  4  1  0
 18 14  1  0
 32 19  1  0
 26 21  2  0
 32 27  1  0
  1 35  1  0
  1 36  1  0
  1 37  1  0
  2 38  1  0
  2 39  1  0
  5 40  1  0
  6 41  1  0
 15 42  1  0
 16 43  1  0
 17 44  1  0
 20 45  1  0
 28 46  1  0
 29 47  1  0
 30 48  1  0
 31 49  1  0
 33 50  1  0
 34 51  1  0
M  END
$$$$
