
     RDKit          3D

 40 42  0  0  0  0  0  0  0  0999 V2000
    2.9735   -2.3666    0.3944 N   0  0  0  0  0  0  0  0  0  0  0  0
    3.5863   -1.2772   -0.3527 C   0  0  0  0  0  0  0  0  0  0  0  0
    3.3165    0.0811    0.2984 C   0  0  0  0  0  0  0  0  0  0  0  0
    1.8411    0.3994    0.5729 C   0  0  0  0  0  0  0  0  0  0  0  0
    0.9595    0.3376   -0.6835 C   0  0  0  0  0  0  0  0  0  0  0  0
   -0.4438    0.7108   -0.3835 N   0  0  0  0  0  0  0  0  0  0  0  0
   -0.8085    2.0776   -0.5581 C   0  0  0  0  0  0  0  0  0  0  0  0
    0.1543    3.1081   -0.6626 C   0  0  0  0  0  0  0  0  0  0  0  0
   -0.1938    4.4551   -0.8232 C   0  0  0  0  0  0  0  0  0  0  0  0
   -1.5267    4.8229   -0.8813 C   0  0  0  0  0  0  0  0  0  0  0  0
   -2.5035    3.8403   -0.7743 C   0  0  0  0  0  0  0  0  0  0  0  0
   -2.1576    2.4837   -0.6100 C   0  0  0  0  0  0  0  0  0  0  0  0
   -3.5278    1.3566   -0.5142 S   0  0  0  0  0  0  0  0  0  0  0  0
   -2.7357   -0.1642   -0.0507 C   0  0  0  0  0  0  0  0  0  0  0  0
   -3.6067   -1.2165    0.2941 C   0  0  0  0  0  0  0  0  0  0  0  0
   -3.1185   -2.4683    0.6550 C   0  0  0  0  0  0  0  0  0  0  0  0
   -1.7444   -2.6898    0.6765 C   0  0  0  0  0  0  0  0  0  0  0  0
   -1.1684   -4.0272    1.0711 C   0  0  0  0  0  0  0  0  0  0  0  0
   -0.4012   -3.9568    2.1942 F   0  0  0  0  0  0  0  0  0  0  0  0
   -2.1169   -4.9716    1.3302 F   0  0  0  0  0  0  0  0  0  0  0  0
   -0.3713   -4.5615    0.1043 F   0  0  0  0  0  0  0  0  0  0  0  0
   -0.8809   -1.6316    0.3290 C   0  0  0  0  0  0  0  0  0  0  0  0
   -1.3392   -0.3472   -0.0486 C   0  0  0  0  0  0  0  0  0  0  0  0
    3.3591   -2.3964    1.3390 H   0  0  0  0  0  0  0  0  0  0  0  0
    3.2248   -3.2577   -0.0355 H   0  0  0  0  0  0  0  0  0  0  0  0
    4.6684   -1.4402   -0.4093 H   0  0  0  0  0  0  0  0  0  0  0  0
    3.2098   -1.2875   -1.3806 H   0  0  0  0  0  0  0  0  0  0  0  0
    3.7372    0.8647   -0.3439 H   0  0  0  0  0  0  0  0  0  0  0  0
    3.8612    0.1371    1.2497 H   0  0  0  0  0  0  0  0  0  0  0  0
    1.7890    1.3987    1.0208 H   0  0  0  0  0  0  0  0  0  0  0  0
    1.4596   -0.2756    1.3468 H   0  0  0  0  0  0  0  0  0  0  0  0
    1.3794    0.9774   -1.4704 H   0  0  0  0  0  0  0  0  0  0  0  0
    0.9992   -0.6542   -1.1488 H   0  0  0  0  0  0  0  0  0  0  0  0
    1.2174    2.9002   -0.6037 H   0  0  0  0  0  0  0  0  0  0  0  0
    0.5841    5.2109   -0.8964 H   0  0  0  0  0  0  0  0  0  0  0  0
   -1.8078    5.8647   -1.0055 H   0  0  0  0  0  0  0  0  0  0  0  0
   -3.5496    4.1371   -0.8204 H   0  0  0  0  0  0  0  0  0  0  0  0
   -4.6844   -1.0607    0.2807 H   0  0  0  0  0  0  0  0  0  0  0  0
   -3.8164   -3.2609    0.9182 H   0  0  0  0  0  0  0  0  0  0  0  0
    0.1829   -1.8522    0.3820 H   0  0  0  0  0  0  0  0  0  0  0  0
  1  2  1  0
  2  3  1  0
  3  4  1  0
  4  5  1  0
  5  6  1  0
  6  7  1  0
  7  8  2  0
  8  9  1  0
  9 10  2  0
 10 11  1  0
 11 12  2  0
 12 13  1  0
 13 14  1  0
 14 15  2  0
 15 16  1  0
 16 17  2  0
 17 18  1  0
 18 19  1  0
 18 20  1  0
 18 21  1  0
 17 22  1  0
 22 23  2  0
 23  6  1  0
 12  7  1  0
 23 14  1  0
  1 24  1  0
  1 25  1  0
  2 26  1  0
  2 27  1  0
  3 28  1  0
  3 29  1  0
  4 30  1  0
  4 31  1  0
  5 32  1  0
  5 33  1  0
  8 34  1  0
  9 35  1  0
 10 36  1  0
 11 37  1  0
 15 38  1  0
 16 39  1  0
 22 40  1  0
M  END
$$$$
