
     RDKit          3D

 57 62  0  0  0  0  0  0  0  0999 V2000
    7.2793    0.2827    1.9659 C   0  0  0  0  0  0  0  0  0  0  0  0
    6.4183   -0.0008    0.7849 C   0  0  0  0  0  0  0  0  0  0  0  0
    6.6241    0.3608   -0.5313 C   0  0  0  0  0  0  0  0  0  0  0  0
    5.5805   -0.0985   -1.3882 C   0  0  0  0  0  0  0  0  0  0  0  0
    4.5936   -0.7633   -0.6901 C   0  0  0  0  0  0  0  0  0  0  0  0
    3.3850   -1.3717   -1.2129 C   0  0  0  0  0  0  0  0  0  0  0  0
    3.4348   -2.3078   -2.0112 O   0  0  0  0  0  0  0  0  0  0  0  0
    2.1517   -0.8391   -0.7855 N   0  0  0  0  0  0  0  0  0  0  0  0
    0.9510   -1.4607   -1.3264 C   0  0  0  0  0  0  0  0  0  0  0  0
   -0.2708   -1.2229   -0.4402 C   0  0  0  0  0  0  0  0  0  0  0  0
   -0.5044    0.2819   -0.1513 C   0  0  0  0  0  0  0  0  0  0  0  0
    0.8123    0.8162    0.4757 C   0  0  0  0  0  0  0  0  0  0  0  0
    2.0200    0.5690   -0.4217 C   0  0  0  0  0  0  0  0  0  0  0  0
   -0.7347    0.8967   -1.4424 O   0  0  0  0  0  0  0  0  0  0  0  0
   -1.1634    2.1932   -1.4202 C   0  0  0  0  0  0  0  0  0  0  0  0
   -1.0053    2.9118   -2.6041 C   0  0  0  0  0  0  0  0  0  0  0  0
   -1.3970    4.2516   -2.6649 C   0  0  0  0  0  0  0  0  0  0  0  0
   -1.9535    4.8656   -1.5418 C   0  0  0  0  0  0  0  0  0  0  0  0
   -2.4336    6.5151   -1.6230 Cl  0  0  0  0  0  0  0  0  0  0  0  0
   -2.1303    4.1509   -0.3602 C   0  0  0  0  0  0  0  0  0  0  0  0
   -1.7402    2.8084   -0.3094 C   0  0  0  0  0  0  0  0  0  0  0  0
   -1.9519    2.0145    0.9163 C   0  0  0  0  0  0  0  0  0  0  0  0
   -2.3334    2.5731    1.9404 O   0  0  0  0  0  0  0  0  0  0  0  0
   -1.7310    0.5117    0.7769 C   0  0  0  0  0  0  0  0  0  0  0  0
   -3.0466   -0.1009    0.3064 C   0  0  0  0  0  0  0  0  0  0  0  0
   -3.1139   -1.2649    1.2332 C   0  0  0  0  0  0  0  0  0  0  0  0
   -4.0981   -2.3507    1.0595 C   0  0  0  0  0  0  0  0  0  0  0  0
   -4.0507   -3.4771    1.8804 C   0  0  0  0  0  0  0  0  0  0  0  0
   -4.9919   -4.4905    1.7118 C   0  0  0  0  0  0  0  0  0  0  0  0
   -5.9516   -4.3386    0.7254 C   0  0  0  0  0  0  0  0  0  0  0  0
   -6.0247   -3.2640   -0.0883 N   0  0  0  0  0  0  0  0  0  0  0  0
   -5.0993   -2.2914    0.0996 C   0  0  0  0  0  0  0  0  0  0  0  0
   -2.2490   -1.2441    2.1952 N   0  0  0  0  0  0  0  0  0  0  0  0
   -1.4990   -0.0545    2.0707 O   0  0  0  0  0  0  0  0  0  0  0  0
    4.9804   -0.9122    0.9712 S   0  0  0  0  0  0  0  0  0  0  0  0
    6.6848    0.4494    2.8703 H   0  0  0  0  0  0  0  0  0  0  0  0
    7.9580   -0.5585    2.1517 H   0  0  0  0  0  0  0  0  0  0  0  0
    7.8867    1.1797    1.7965 H   0  0  0  0  0  0  0  0  0  0  0  0
    7.4875    0.9257   -0.8689 H   0  0  0  0  0  0  0  0  0  0  0  0
    5.5469    0.0592   -2.4609 H   0  0  0  0  0  0  0  0  0  0  0  0
    0.7920   -1.0591   -2.3351 H   0  0  0  0  0  0  0  0  0  0  0  0
    1.1082   -2.5408   -1.4309 H   0  0  0  0  0  0  0  0  0  0  0  0
   -0.1294   -1.7693    0.5000 H   0  0  0  0  0  0  0  0  0  0  0  0
   -1.1343   -1.6604   -0.9519 H   0  0  0  0  0  0  0  0  0  0  0  0
    0.9863    0.3299    1.4440 H   0  0  0  0  0  0  0  0  0  0  0  0
    0.7581    1.8929    0.6667 H   0  0  0  0  0  0  0  0  0  0  0  0
    2.9139    0.9406    0.0836 H   0  0  0  0  0  0  0  0  0  0  0  0
    1.9361    1.1382   -1.3559 H   0  0  0  0  0  0  0  0  0  0  0  0
   -0.5670    2.4350   -3.4785 H   0  0  0  0  0  0  0  0  0  0  0  0
   -1.2628    4.8110   -3.5876 H   0  0  0  0  0  0  0  0  0  0  0  0
   -2.5735    4.6283    0.5124 H   0  0  0  0  0  0  0  0  0  0  0  0
   -3.0404   -0.4002   -0.7447 H   0  0  0  0  0  0  0  0  0  0  0  0
   -3.9152    0.5437    0.4888 H   0  0  0  0  0  0  0  0  0  0  0  0
   -3.2892   -3.5732    2.6516 H   0  0  0  0  0  0  0  0  0  0  0  0
   -4.9781   -5.3765    2.3414 H   0  0  0  0  0  0  0  0  0  0  0  0
   -6.7115   -5.0993    0.5617 H   0  0  0  0  0  0  0  0  0  0  0  0
   -5.2140   -1.4456   -0.5710 H   0  0  0  0  0  0  0  0  0  0  0  0
  1  2  1  0
  2  3  2  0
  3  4  1  0
  4  5  2  0
  5  6  1  0
  6  7  2  0
  6  8  1  0
  8  9  1  0
  9 10  1  0
 10 11  1  0
 11 12  1  0
 12 13  1  0
 11 14  1  0
 14 15  1  0
 15 16  2  0
 16 17  1  0
 17 18  2  0
 18 19  1  0
 18 20  1  0
 20 21  2  0
 21 22  1  0
 22 23  2  0
 22 24  1  0
 24 25  1  0
 25 26  1  0
 26 27  1  0
 27 28  2  0
 28 29  1  0
 29 30  2  0
 30 31  1  0
 31 32  2  0
 26 33  2  0
 33 34  1  0
  5 35  1  0
 35  2  1  0
 13  8  1  0
 21 15  1  0
 34 24  1  0
 24 11  1  0
 32 27  1  0
  1 36  1  0
  1 37  1  0
  1 38  1  0
  3 39  1  0
  4 40  1  0
  9 41  1  0
  9 42  1  0
 10 43  1  0
 10 44  1  0
 12 45  1  0
 12 46  1  0
 13 47  1  0
 13 48  1  0
 16 49  1  0
 17 50  1  0
 20 51  1  0
 25 52  1  0
 25 53  1  0
 28 54  1  0
 29 55  1  0
 30 56  1  0
 32 57  1  0
M  END
$$$$
