
     RDKit          3D

 31 33  0  0  0  0  0  0  0  0999 V2000
   -3.2214    0.9170    1.1566 C   0  0  0  0  0  0  0  0  0  0  0  0
   -3.2116   -0.0812    0.0426 C   0  0  0  0  0  0  0  0  0  0  0  0
   -4.4131   -0.5322   -0.6015 C   0  0  0  0  0  0  0  0  0  0  0  0
   -4.1774   -1.4500   -1.5960 C   0  0  0  0  0  0  0  0  0  0  0  0
   -2.5190   -1.7852   -1.7701 S   0  0  0  0  0  0  0  0  0  0  0  0
   -2.0865   -0.6940   -0.5068 C   0  0  0  0  0  0  0  0  0  0  0  0
   -0.6099   -0.5566   -0.1677 C   0  0  0  0  0  0  0  0  0  0  0  0
   -0.3416   -0.7404    1.3100 C   0  0  0  0  0  0  0  0  0  0  0  0
    0.9614   -1.4329    1.5423 C   0  0  0  0  0  0  0  0  0  0  0  0
    1.0151   -2.3937    2.3187 O   0  0  0  0  0  0  0  0  0  0  0  0
    2.1252   -1.0341    0.9811 N   0  0  0  0  0  0  0  0  0  0  0  0
    2.5285   -0.0115    0.0995 C   0  0  0  0  0  0  0  0  0  0  0  0
    3.9316    0.0399   -0.0736 C   0  0  0  0  0  0  0  0  0  0  0  0
    4.5491    0.9935   -0.8827 C   0  0  0  0  0  0  0  0  0  0  0  0
    3.7731    1.9263   -1.5448 C   0  0  0  0  0  0  0  0  0  0  0  0
    2.3875    1.8881   -1.3987 C   0  0  0  0  0  0  0  0  0  0  0  0
    1.7394    0.9226   -0.5924 C   0  0  0  0  0  0  0  0  0  0  0  0
   -0.0336    1.1016   -0.6404 S   0  0  0  0  0  0  0  0  0  0  0  0
   -2.8907    0.4531    2.0907 H   0  0  0  0  0  0  0  0  0  0  0  0
   -2.5709    1.7666    0.9321 H   0  0  0  0  0  0  0  0  0  0  0  0
   -4.2296    1.3116    1.3223 H   0  0  0  0  0  0  0  0  0  0  0  0
   -5.4093   -0.1930   -0.3426 H   0  0  0  0  0  0  0  0  0  0  0  0
   -4.9039   -1.9402   -2.2293 H   0  0  0  0  0  0  0  0  0  0  0  0
   -0.0454   -1.2875   -0.7610 H   0  0  0  0  0  0  0  0  0  0  0  0
   -1.1080   -1.3935    1.7505 H   0  0  0  0  0  0  0  0  0  0  0  0
   -0.3571    0.1867    1.8956 H   0  0  0  0  0  0  0  0  0  0  0  0
    2.8710   -1.6264    1.3328 H   0  0  0  0  0  0  0  0  0  0  0  0
    4.5785   -0.6710    0.4391 H   0  0  0  0  0  0  0  0  0  0  0  0
    5.6309    1.0053   -0.9872 H   0  0  0  0  0  0  0  0  0  0  0  0
    4.2351    2.6798   -2.1772 H   0  0  0  0  0  0  0  0  0  0  0  0
    1.8026    2.6312   -1.9416 H   0  0  0  0  0  0  0  0  0  0  0  0
  1  2  1  0
  2  3  1  0
  3  4  2  0
  4  5  1  0
  5  6  1  0
  6  7  1  0
  7  8  1  0
  8  9  1  0
  9 10  2  0
  9 11  1  0
 11 12  1  0
 12 13  2  0
 13 14  1  0
 14 15  2  0
 15 16  1  0
 16 17  2  0
 17 18  1  0
  6  2  2  0
 18  7  1  0
 17 12  1  0
  1 19  1  0
  1 20  1  0
  1 21  1  0
  3 22  1  0
  4 23  1  0
  7 24  1  0
  8 25  1  0
  8 26  1  0
 11 27  1  0
 13 28  1  0
 14 29  1  0
 15 30  1  0
 16 31  1  0
M  END
$$$$
