
     RDKit          3D

 57 61  0  0  0  0  0  0  0  0999 V2000
   -6.3895   -1.1434   -0.2452 C   0  0  0  0  0  0  0  0  0  0  0  0
   -4.9227   -1.4015   -0.5947 C   0  0  0  0  0  0  0  0  0  0  0  0
   -4.6935   -2.8970   -0.8074 C   0  0  0  0  0  0  0  0  0  0  0  0
   -4.0070   -0.8937    0.5219 C   0  0  0  0  0  0  0  0  0  0  0  0
   -4.4025   -0.8641    1.6895 O   0  0  0  0  0  0  0  0  0  0  0  0
   -2.7082   -0.5183    0.1842 N   0  0  0  0  0  0  0  0  0  0  0  0
   -1.8345   -0.0223    1.2439 C   0  0  0  0  0  0  0  0  0  0  0  0
   -0.9899    1.1592    0.7780 C   0  0  0  0  0  0  0  0  0  0  0  0
   -0.1301    0.8419   -0.4767 C   0  0  0  0  0  0  0  0  0  0  0  0
   -0.6650   -0.4165   -1.2105 C   0  0  0  0  0  0  0  0  0  0  0  0
   -2.1892   -0.4665   -1.1827 C   0  0  0  0  0  0  0  0  0  0  0  0
   -0.3696    1.9030   -1.4470 O   0  0  0  0  0  0  0  0  0  0  0  0
    0.3393    3.0591   -1.3177 C   0  0  0  0  0  0  0  0  0  0  0  0
   -0.1082    4.1397   -2.0806 C   0  0  0  0  0  0  0  0  0  0  0  0
    0.5432    5.3716   -1.9979 C   0  0  0  0  0  0  0  0  0  0  0  0
    1.6404    5.5131   -1.1547 C   0  0  0  0  0  0  0  0  0  0  0  0
    2.2601    6.6972   -1.0745 F   0  0  0  0  0  0  0  0  0  0  0  0
    2.1040    4.4448   -0.3988 C   0  0  0  0  0  0  0  0  0  0  0  0
    1.4508    3.2131   -0.4958 C   0  0  0  0  0  0  0  0  0  0  0  0
    1.9268    2.0559    0.2712 C   0  0  0  0  0  0  0  0  0  0  0  0
    2.7061    2.2265    1.2053 O   0  0  0  0  0  0  0  0  0  0  0  0
    1.3856    0.6959   -0.1585 C   0  0  0  0  0  0  0  0  0  0  0  0
    1.7361   -0.3752    0.8654 C   0  0  0  0  0  0  0  0  0  0  0  0
    2.9718   -0.9112    0.2254 C   0  0  0  0  0  0  0  0  0  0  0  0
    3.8973   -1.8213    0.9408 C   0  0  0  0  0  0  0  0  0  0  0  0
    5.0728   -2.2327    0.2997 C   0  0  0  0  0  0  0  0  0  0  0  0
    5.9629   -3.0934    0.9447 C   0  0  0  0  0  0  0  0  0  0  0  0
    5.6829   -3.5483    2.2318 C   0  0  0  0  0  0  0  0  0  0  0  0
    4.5138   -3.1441    2.8750 C   0  0  0  0  0  0  0  0  0  0  0  0
    3.6201   -2.2825    2.2328 C   0  0  0  0  0  0  0  0  0  0  0  0
    3.1457   -0.5494   -1.0061 N   0  0  0  0  0  0  0  0  0  0  0  0
    2.0880    0.3171   -1.3539 O   0  0  0  0  0  0  0  0  0  0  0  0
   -6.5602   -0.0781   -0.0550 H   0  0  0  0  0  0  0  0  0  0  0  0
   -6.6956   -1.6934    0.6517 H   0  0  0  0  0  0  0  0  0  0  0  0
   -7.0438   -1.4494   -1.0683 H   0  0  0  0  0  0  0  0  0  0  0  0
   -4.7129   -0.8559   -1.5201 H   0  0  0  0  0  0  0  0  0  0  0  0
   -3.6467   -3.1234   -1.0300 H   0  0  0  0  0  0  0  0  0  0  0  0
   -4.9596   -3.4671    0.0901 H   0  0  0  0  0  0  0  0  0  0  0  0
   -5.3032   -3.2685   -1.6376 H   0  0  0  0  0  0  0  0  0  0  0  0
   -2.4169    0.2789    2.1210 H   0  0  0  0  0  0  0  0  0  0  0  0
   -1.1998   -0.8582    1.5571 H   0  0  0  0  0  0  0  0  0  0  0  0
   -0.3621    1.4912    1.6129 H   0  0  0  0  0  0  0  0  0  0  0  0
   -1.6672    1.9968    0.5627 H   0  0  0  0  0  0  0  0  0  0  0  0
   -0.3381   -0.4130   -2.2581 H   0  0  0  0  0  0  0  0  0  0  0  0
   -0.2842   -1.3393   -0.7608 H   0  0  0  0  0  0  0  0  0  0  0  0
   -2.5282   -1.3404   -1.7437 H   0  0  0  0  0  0  0  0  0  0  0  0
   -2.6202    0.4193   -1.6640 H   0  0  0  0  0  0  0  0  0  0  0  0
   -0.9688    4.0255   -2.7354 H   0  0  0  0  0  0  0  0  0  0  0  0
    0.2022    6.2202   -2.5831 H   0  0  0  0  0  0  0  0  0  0  0  0
    2.9686    4.5758    0.2453 H   0  0  0  0  0  0  0  0  0  0  0  0
    1.0110   -1.1899    0.9200 H   0  0  0  0  0  0  0  0  0  0  0  0
    1.9131    0.0091    1.8725 H   0  0  0  0  0  0  0  0  0  0  0  0
    5.3053   -1.8837   -0.7046 H   0  0  0  0  0  0  0  0  0  0  0  0
    6.8746   -3.4063    0.4418 H   0  0  0  0  0  0  0  0  0  0  0  0
    6.3774   -4.2174    2.7342 H   0  0  0  0  0  0  0  0  0  0  0  0
    4.2989   -3.5002    3.8799 H   0  0  0  0  0  0  0  0  0  0  0  0
    2.7188   -1.9895    2.7620 H   0  0  0  0  0  0  0  0  0  0  0  0
  1  2  1  0
  2  3  1  0
  2  4  1  0
  4  5  2  0
  4  6  1  0
  6  7  1  0
  7  8  1  0
  8  9  1  0
  9 10  1  0
 10 11  1  0
  9 12  1  0
 12 13  1  0
 13 14  2  0
 14 15  1  0
 15 16  2  0
 16 17  1  0
 16 18  1  0
 18 19  2  0
 19 20  1  0
 20 21  2  0
 20 22  1  0
 22 23  1  0
 23 24  1  0
 24 25  1  0
 25 26  2  0
 26 27  1  0
 27 28  2  0
 28 29  1  0
 29 30  2  0
 24 31  2  0
 31 32  1  0
 11  6  1  0
 19 13  1  0
 32 22  1  0
 22  9  1  0
 30 25  1  0
  1 33  1  0
  1 34  1  0
  1 35  1  0
  2 36  1  0
  3 37  1  0
  3 38  1  0
  3 39  1  0
  7 40  1  0
  7 41  1  0
  8 42  1  0
  8 43  1  0
 10 44  1  0
 10 45  1  0
 11 46  1  0
 11 47  1  0
 14 48  1  0
 15 49  1  0
 18 50  1  0
 23 51  1  0
 23 52  1  0
 26 53  1  0
 27 54  1  0
 28 55  1  0
 29 56  1  0
 30 57  1  0
M  END
$$$$
