
     RDKit          3D

 38 39  0  0  0  0  0  0  0  0999 V2000
    0.9690   -1.5455   -2.0981 C   0  0  0  0  0  0  0  0  0  0  0  0
    0.7532   -0.7239   -0.8435 C   0  0  0  0  0  0  0  0  0  0  0  0
    1.9299   -0.2336   -0.0662 C   0  0  0  0  0  0  0  0  0  0  0  0
    3.1942   -0.2312   -0.5134 C   0  0  0  0  0  0  0  0  0  0  0  0
    4.3307    0.2682    0.2754 C   0  0  0  0  0  0  0  0  0  0  0  0
    5.5655   -0.3862    0.1717 C   0  0  0  0  0  0  0  0  0  0  0  0
    6.6771    0.0739    0.8823 C   0  0  0  0  0  0  0  0  0  0  0  0
    6.5683    1.2000    1.6950 C   0  0  0  0  0  0  0  0  0  0  0  0
    5.3503    1.8689    1.7942 C   0  0  0  0  0  0  0  0  0  0  0  0
    4.2382    1.4089    1.0841 C   0  0  0  0  0  0  0  0  0  0  0  0
   -0.4228   -0.3944   -0.3858 N   0  0  0  0  0  0  0  0  0  0  0  0
   -1.5103   -0.7900   -1.1074 N   0  0  0  0  0  0  0  0  0  0  0  0
   -2.7898   -0.4510   -0.6282 C   0  0  0  0  0  0  0  0  0  0  0  0
   -3.7411   -0.3137   -1.5703 N   0  0  0  0  0  0  0  0  0  0  0  0
   -4.9851    0.0036   -1.1580 C   0  0  0  0  0  0  0  0  0  0  0  0
   -6.0407    0.1565   -2.2110 C   0  0  0  0  0  0  0  0  0  0  0  0
   -5.3001    0.1852    0.1723 C   0  0  0  0  0  0  0  0  0  0  0  0
   -4.2695    0.0235    1.0733 C   0  0  0  0  0  0  0  0  0  0  0  0
   -4.5100    0.1987    2.5417 C   0  0  0  0  0  0  0  0  0  0  0  0
   -3.0201   -0.2945    0.6872 N   0  0  0  0  0  0  0  0  0  0  0  0
    0.1861   -2.3017   -2.2056 H   0  0  0  0  0  0  0  0  0  0  0  0
    1.9197   -2.0825   -2.0697 H   0  0  0  0  0  0  0  0  0  0  0  0
    0.9511   -0.8830   -2.9679 H   0  0  0  0  0  0  0  0  0  0  0  0
    1.6731    0.1499    0.9179 H   0  0  0  0  0  0  0  0  0  0  0  0
    3.4521   -0.6079   -1.4981 H   0  0  0  0  0  0  0  0  0  0  0  0
    5.6719   -1.2678   -0.4563 H   0  0  0  0  0  0  0  0  0  0  0  0
    7.6273   -0.4474    0.8003 H   0  0  0  0  0  0  0  0  0  0  0  0
    7.4327    1.5585    2.2478 H   0  0  0  0  0  0  0  0  0  0  0  0
    5.2647    2.7528    2.4211 H   0  0  0  0  0  0  0  0  0  0  0  0
    3.3037    1.9594    1.1644 H   0  0  0  0  0  0  0  0  0  0  0  0
   -1.5318   -0.6088   -2.1070 H   0  0  0  0  0  0  0  0  0  0  0  0
   -5.6253   -0.0200   -3.2084 H   0  0  0  0  0  0  0  0  0  0  0  0
   -6.8474   -0.5644   -2.0457 H   0  0  0  0  0  0  0  0  0  0  0  0
   -6.4535    1.1699   -2.1887 H   0  0  0  0  0  0  0  0  0  0  0  0
   -6.3019    0.4402    0.4927 H   0  0  0  0  0  0  0  0  0  0  0  0
   -3.5888    0.0363    3.1106 H   0  0  0  0  0  0  0  0  0  0  0  0
   -5.2572   -0.5206    2.8912 H   0  0  0  0  0  0  0  0  0  0  0  0
   -4.8633    1.2137    2.7488 H   0  0  0  0  0  0  0  0  0  0  0  0
  1  2  1  0
  2  3  1  0
  3  4  2  3
  4  5  1  0
  5  6  2  0
  6  7  1  0
  7  8  2  0
  8  9  1  0
  9 10  2  0
  2 11  2  3
 11 12  1  0
 12 13  1  0
 13 14  2  0
 14 15  1  0
 15 16  1  0
 15 17  2  0
 17 18  1  0
 18 19  1  0
 18 20  2  0
 10  5  1  0
 20 13  1  0
  1 21  1  0
  1 22  1  0
  1 23  1  0
  3 24  1  0
  4 25  1  0
  6 26  1  0
  7 27  1  0
  8 28  1  0
  9 29  1  0
 10 30  1  0
 12 31  1  0
 16 32  1  0
 16 33  1  0
 16 34  1  0
 17 35  1  0
 19 36  1  0
 19 37  1  0
 19 38  1  0
M  END
$$$$
