
     RDKit          3D

 24 24  0  0  0  0  0  0  0  0999 V2000
   -4.7154   -0.9914   -0.1406 C   0  0  0  0  0  0  0  0  0  0  0  0
   -3.4692   -0.2553   -0.2490 N   0  0  0  0  0  0  0  0  0  0  0  0
   -2.1963   -0.8161   -0.1619 C   0  0  0  0  0  0  0  0  0  0  0  0
   -1.9148   -2.4584   -0.0291 S   0  0  0  0  0  0  0  0  0  0  0  0
   -1.2542    0.1992   -0.2740 N   0  0  0  0  0  0  0  0  0  0  0  0
    0.1298    0.2245    0.0059 C   0  0  0  0  0  0  0  0  0  0  0  0
    0.7716   -0.6476    0.8838 C   0  0  0  0  0  0  0  0  0  0  0  0
    2.1458   -0.5314    1.1276 C   0  0  0  0  0  0  0  0  0  0  0  0
    2.9009    0.4638    0.5005 C   0  0  0  0  0  0  0  0  0  0  0  0
    4.3658    0.6032    0.7880 C   0  0  0  0  0  0  0  0  0  0  0  0
    2.2529    1.3645   -0.3479 C   0  0  0  0  0  0  0  0  0  0  0  0
    0.8802    1.2466   -0.5893 C   0  0  0  0  0  0  0  0  0  0  0  0
   -4.8160   -1.3803    0.8762 H   0  0  0  0  0  0  0  0  0  0  0  0
   -5.5373   -0.3033   -0.3533 H   0  0  0  0  0  0  0  0  0  0  0  0
   -4.7333   -1.8130   -0.8610 H   0  0  0  0  0  0  0  0  0  0  0  0
   -3.5189    0.7118    0.0417 H   0  0  0  0  0  0  0  0  0  0  0  0
   -1.5894    0.9850   -0.8154 H   0  0  0  0  0  0  0  0  0  0  0  0
    0.2284   -1.4119    1.4280 H   0  0  0  0  0  0  0  0  0  0  0  0
    2.6178   -1.2253    1.8199 H   0  0  0  0  0  0  0  0  0  0  0  0
    4.8949    1.0227   -0.0741 H   0  0  0  0  0  0  0  0  0  0  0  0
    4.5173    1.2601    1.6501 H   0  0  0  0  0  0  0  0  0  0  0  0
    4.8163   -0.3717    1.0020 H   0  0  0  0  0  0  0  0  0  0  0  0
    2.8112    2.1639   -0.8297 H   0  0  0  0  0  0  0  0  0  0  0  0
    0.4118    1.9604   -1.2617 H   0  0  0  0  0  0  0  0  0  0  0  0
  1  2  1  0
  2  3  1  0
  3  4  2  0
  3  5  1  0
  5  6  1  0
  6  7  2  0
  7  8  1  0
  8  9  2  0
  9 10  1  0
  9 11  1  0
 11 12  2  0
 12  6  1  0
  1 13  1  0
  1 14  1  0
  1 15  1  0
  2 16  1  0
  5 17  1  0
  7 18  1  0
  8 19  1  0
 10 20  1  0
 10 21  1  0
 10 22  1  0
 11 23  1  0
 12 24  1  0
M  END
$$$$
