
     RDKit          3D

 34 36  0  0  0  0  0  0  0  0999 V2000
    3.0235   -2.0927    0.9020 C   0  0  0  0  0  0  0  0  0  0  0  0
    3.8165   -0.9043    0.6762 N   0  0  0  0  0  0  0  0  0  0  0  0
    5.1268   -1.0506    0.3880 N   0  0  0  0  0  0  0  0  0  0  0  0
    5.5821    0.2040    0.3596 C   0  0  0  0  0  0  0  0  0  0  0  0
    4.5653    1.1448    0.5924 C   0  0  0  0  0  0  0  0  0  0  0  0
    4.7726    2.8265    0.6067 Cl  0  0  0  0  0  0  0  0  0  0  0  0
    3.4101    0.4070    0.7567 C   0  0  0  0  0  0  0  0  0  0  0  0
    2.0702    0.8756    1.0221 C   0  0  0  0  0  0  0  0  0  0  0  0
    1.8486    1.6933    1.9048 O   0  0  0  0  0  0  0  0  0  0  0  0
    1.1386    0.3177    0.1685 N   0  0  0  0  0  0  0  0  0  0  0  0
   -0.2393    0.4854    0.1767 C   0  0  0  0  0  0  0  0  0  0  0  0
   -1.0214    1.4136    1.3832 S   0  0  0  0  0  0  0  0  0  0  0  0
   -2.5097    1.0859    0.7124 C   0  0  0  0  0  0  0  0  0  0  0  0
   -2.4621    0.2938   -0.4016 C   0  0  0  0  0  0  0  0  0  0  0  0
   -1.1283   -0.0733   -0.7500 C   0  0  0  0  0  0  0  0  0  0  0  0
   -0.6611   -0.9089   -1.8535 C   0  0  0  0  0  0  0  0  0  0  0  0
   -1.5565   -1.1785   -2.8461 N   0  0  0  0  0  0  0  0  0  0  0  0
    0.4905   -1.3331   -1.9245 O   0  0  0  0  0  0  0  0  0  0  0  0
   -3.8369    0.0325   -0.9069 C   0  0  0  0  0  0  0  0  0  0  0  0
   -4.7331    0.5017    0.2810 C   0  0  0  0  0  0  0  0  0  0  0  0
   -3.8739    1.4872    1.1258 C   0  0  0  0  0  0  0  0  0  0  0  0
    2.5864   -2.3956   -0.0521 H   0  0  0  0  0  0  0  0  0  0  0  0
    3.6708   -2.8844    1.2892 H   0  0  0  0  0  0  0  0  0  0  0  0
    2.2446   -1.8758    1.6365 H   0  0  0  0  0  0  0  0  0  0  0  0
    6.6324    0.3792    0.1665 H   0  0  0  0  0  0  0  0  0  0  0  0
    1.4807   -0.2571   -0.6002 H   0  0  0  0  0  0  0  0  0  0  0  0
   -2.3984   -0.6353   -2.9565 H   0  0  0  0  0  0  0  0  0  0  0  0
   -1.1866   -1.6393   -3.6669 H   0  0  0  0  0  0  0  0  0  0  0  0
   -4.0129   -1.0222   -1.1354 H   0  0  0  0  0  0  0  0  0  0  0  0
   -4.0390    0.6387   -1.7963 H   0  0  0  0  0  0  0  0  0  0  0  0
   -4.9890   -0.3692    0.8991 H   0  0  0  0  0  0  0  0  0  0  0  0
   -5.6716    0.9511   -0.0578 H   0  0  0  0  0  0  0  0  0  0  0  0
   -4.0795    2.5228    0.8362 H   0  0  0  0  0  0  0  0  0  0  0  0
   -4.0604    1.3596    2.1955 H   0  0  0  0  0  0  0  0  0  0  0  0
  1  2  1  0
  2  3  1  0
  3  4  2  0
  4  5  1  0
  5  6  1  0
  5  7  2  0
  7  8  1  0
  8  9  2  0
  8 10  1  0
 10 11  1  0
 11 12  1  0
 12 13  1  0
 13 14  2  0
 14 15  1  0
 15 16  1  0
 16 17  1  0
 16 18  2  0
 14 19  1  0
 19 20  1  0
 20 21  1  0
  7  2  1  0
 15 11  2  0
 21 13  1  0
  1 22  1  0
  1 23  1  0
  1 24  1  0
  4 25  1  0
 10 26  1  0
 17 27  1  0
 17 28  1  0
 19 29  1  0
 19 30  1  0
 20 31  1  0
 20 32  1  0
 21 33  1  0
 21 34  1  0
M  END
$$$$
