
     RDKit          3D

 56 59  0  0  0  0  0  0  0  0999 V2000
    4.6682   -0.5142    4.6888 C   0  0  0  0  0  0  0  0  0  0  0  0
    5.5467   -0.4759    3.5709 O   0  0  0  0  0  0  0  0  0  0  0  0
    5.0120   -0.7915    2.3524 C   0  0  0  0  0  0  0  0  0  0  0  0
    3.6789   -1.1240    2.1024 C   0  0  0  0  0  0  0  0  0  0  0  0
    3.2612   -1.4254    0.8020 C   0  0  0  0  0  0  0  0  0  0  0  0
    4.1778   -1.3736   -0.2526 C   0  0  0  0  0  0  0  0  0  0  0  0
    3.6528   -1.7949   -1.8999 S   0  0  0  0  0  6  0  0  0  0  0  0
    2.4726   -2.6228   -1.7834 O   0  0  0  0  0  0  0  0  0  0  0  0
    4.8184   -2.2648   -2.6194 O   0  0  0  0  0  0  0  0  0  0  0  0
    3.1959   -0.3370   -2.5872 N   0  0  0  0  0  0  0  0  0  0  0  0
    4.2133    0.6585   -2.9135 C   0  0  0  0  0  0  0  0  0  0  0  0
    3.3535    1.8478   -3.2733 C   0  0  0  0  0  0  0  0  0  0  0  0
    2.2569    1.7861   -2.3542 O   0  0  0  0  0  0  0  0  0  0  0  0
    2.0483    0.3894   -2.0254 C   0  0  0  0  0  0  0  0  0  0  0  0
    0.7149   -0.0787   -2.6461 C   0  0  0  0  0  0  0  0  0  0  0  0
   -0.4423    0.6365   -2.1347 N   0  0  0  0  0  0  0  0  0  0  0  0
   -0.8538    0.5191   -0.8286 C   0  0  0  0  0  0  0  0  0  0  0  0
   -0.3555   -0.2137    0.0151 O   0  0  0  0  0  0  0  0  0  0  0  0
   -2.0421    1.4385   -0.4638 C   0  0  0  0  0  0  0  0  0  0  0  0
   -2.4910    2.2176   -1.2925 O   0  0  0  0  0  0  0  0  0  0  0  0
   -2.4942    1.2634    0.8222 N   0  0  0  0  0  0  0  0  0  0  0  0
   -3.6983    1.8866    1.3056 C   0  0  0  0  0  0  0  0  0  0  0  0
   -4.8643    0.9357    1.2163 C   0  0  0  0  0  0  0  0  0  0  0  0
   -5.2202    0.1326    2.3248 C   0  0  0  0  0  0  0  0  0  0  0  0
   -6.2835   -0.7728    2.2454 C   0  0  0  0  0  0  0  0  0  0  0  0
   -6.9639   -0.8599    1.0508 C   0  0  0  0  0  0  0  0  0  0  0  0
   -6.6212   -0.0902   -0.0351 C   0  0  0  0  0  0  0  0  0  0  0  0
   -5.5795    0.8118    0.0128 C   0  0  0  0  0  0  0  0  0  0  0  0
   -7.4127   -0.3331   -1.1137 O   0  0  0  0  0  0  0  0  0  0  0  0
   -8.2898   -1.3479   -0.5832 C   0  0  0  0  0  0  0  0  0  0  0  0
   -8.0148   -1.6832    0.7931 O   0  0  0  0  0  0  0  0  0  0  0  0
    5.5181   -1.0699   -0.0080 C   0  0  0  0  0  0  0  0  0  0  0  0
    5.9259   -0.7707    1.2933 C   0  0  0  0  0  0  0  0  0  0  0  0
    3.8650    0.2226    4.5843 H   0  0  0  0  0  0  0  0  0  0  0  0
    5.2478   -0.2506    5.5786 H   0  0  0  0  0  0  0  0  0  0  0  0
    4.2651   -1.5211    4.8402 H   0  0  0  0  0  0  0  0  0  0  0  0
    2.9392   -1.1640    2.8956 H   0  0  0  0  0  0  0  0  0  0  0  0
    2.2210   -1.6967    0.6253 H   0  0  0  0  0  0  0  0  0  0  0  0
    4.8248    0.8923   -2.0372 H   0  0  0  0  0  0  0  0  0  0  0  0
    4.8514    0.3530   -3.7457 H   0  0  0  0  0  0  0  0  0  0  0  0
    2.9527    1.7657   -4.2900 H   0  0  0  0  0  0  0  0  0  0  0  0
    3.8777    2.8017   -3.1717 H   0  0  0  0  0  0  0  0  0  0  0  0
    2.0226    0.3411   -0.9356 H   0  0  0  0  0  0  0  0  0  0  0  0
    0.7214    0.0805   -3.7301 H   0  0  0  0  0  0  0  0  0  0  0  0
    0.5484   -1.1431   -2.4585 H   0  0  0  0  0  0  0  0  0  0  0  0
   -0.8661    1.3809   -2.6829 H   0  0  0  0  0  0  0  0  0  0  0  0
   -2.0828    0.4951    1.3434 H   0  0  0  0  0  0  0  0  0  0  0  0
   -3.5228    2.1788    2.3468 H   0  0  0  0  0  0  0  0  0  0  0  0
   -3.9106    2.8022    0.7417 H   0  0  0  0  0  0  0  0  0  0  0  0
   -4.6651    0.2119    3.2574 H   0  0  0  0  0  0  0  0  0  0  0  0
   -6.5629   -1.3893    3.0922 H   0  0  0  0  0  0  0  0  0  0  0  0
   -5.3219    1.4018   -0.8618 H   0  0  0  0  0  0  0  0  0  0  0  0
   -9.3236   -0.9914   -0.6571 H   0  0  0  0  0  0  0  0  0  0  0  0
   -8.1862   -2.2537   -1.1919 H   0  0  0  0  0  0  0  0  0  0  0  0
    6.2488   -1.0696   -0.8134 H   0  0  0  0  0  0  0  0  0  0  0  0
    6.9682   -0.5281    1.4893 H   0  0  0  0  0  0  0  0  0  0  0  0
  1  2  1  0
  2  3  1  0
  3  4  2  0
  4  5  1  0
  5  6  2  0
  6  7  1  0
  7  8  2  0
  7  9  2  0
  7 10  1  0
 10 11  1  0
 11 12  1  0
 12 13  1  0
 13 14  1  0
 14 15  1  0
 15 16  1  0
 16 17  1  0
 17 18  2  0
 17 19  1  0
 19 20  2  0
 19 21  1  0
 21 22  1  0
 22 23  1  0
 23 24  2  0
 24 25  1  0
 25 26  2  0
 26 27  1  0
 27 28  2  0
 27 29  1  0
 29 30  1  0
 30 31  1  0
  6 32  1  0
 32 33  2  0
 33  3  1  0
 14 10  1  0
 28 23  1  0
 31 26  1  0
  1 34  1  0
  1 35  1  0
  1 36  1  0
  4 37  1  0
  5 38  1  0
 11 39  1  0
 11 40  1  0
 12 41  1  0
 12 42  1  0
 14 43  1  0
 15 44  1  0
 15 45  1  0
 16 46  1  0
 21 47  1  0
 22 48  1  0
 22 49  1  0
 24 50  1  0
 25 51  1  0
 28 52  1  0
 30 53  1  0
 30 54  1  0
 32 55  1  0
 33 56  1  0
M  END
$$$$
