
     RDKit          3D

 34 34  0  0  0  0  0  0  0  0999 V2000
    4.7004    0.0933   -1.9065 C   0  0  0  0  0  0  0  0  0  0  0  0
    4.0547    1.0605   -0.9268 C   0  0  0  0  0  0  0  0  0  0  0  0
    4.1915    0.6286    0.5362 C   0  0  0  0  0  0  0  0  0  0  0  0
    3.5135   -0.6995    0.8705 C   0  0  0  0  0  0  0  0  0  0  0  0
    2.1361   -0.6962    0.4672 O   0  0  0  0  0  0  0  0  0  0  0  0
    1.2628   -0.1569    1.3539 C   0  0  0  0  0  0  0  0  0  0  0  0
    1.5448    0.3082    2.4463 O   0  0  0  0  0  0  0  0  0  0  0  0
   -0.1222   -0.2002    0.8101 C   0  0  0  0  0  0  0  0  0  0  0  0
   -1.1632    0.2940    1.6036 C   0  0  0  0  0  0  0  0  0  0  0  0
   -2.4844    0.2781    1.1378 C   0  0  0  0  0  0  0  0  0  0  0  0
   -2.7843   -0.2311   -0.1265 C   0  0  0  0  0  0  0  0  0  0  0  0
   -4.0845   -0.2824   -0.6694 N   0  0  0  0  0  0  0  0  0  0  0  0
   -5.2627    0.1314   -0.0738 C   0  0  0  0  0  0  0  0  0  0  0  0
   -6.4597   -0.0858   -0.9660 C   0  0  0  0  0  0  0  0  0  0  0  0
   -5.3964    0.6021    1.0497 O   0  0  0  0  0  0  0  0  0  0  0  0
   -1.7404   -0.7240   -0.9205 C   0  0  0  0  0  0  0  0  0  0  0  0
   -0.4186   -0.7101   -0.4588 C   0  0  0  0  0  0  0  0  0  0  0  0
    4.1838   -0.8709   -1.9167 H   0  0  0  0  0  0  0  0  0  0  0  0
    5.7516   -0.0785   -1.6543 H   0  0  0  0  0  0  0  0  0  0  0  0
    4.6578    0.5023   -2.9211 H   0  0  0  0  0  0  0  0  0  0  0  0
    2.9980    1.1908   -1.1866 H   0  0  0  0  0  0  0  0  0  0  0  0
    4.5282    2.0429   -1.0426 H   0  0  0  0  0  0  0  0  0  0  0  0
    5.2522    0.5677    0.8065 H   0  0  0  0  0  0  0  0  0  0  0  0
    3.7510    1.4191    1.1557 H   0  0  0  0  0  0  0  0  0  0  0  0
    3.6075   -0.9261    1.9395 H   0  0  0  0  0  0  0  0  0  0  0  0
    4.0018   -1.5228    0.3391 H   0  0  0  0  0  0  0  0  0  0  0  0
   -0.9562    0.6972    2.5938 H   0  0  0  0  0  0  0  0  0  0  0  0
   -3.2545    0.6742    1.7931 H   0  0  0  0  0  0  0  0  0  0  0  0
   -4.1613   -0.6755   -1.5989 H   0  0  0  0  0  0  0  0  0  0  0  0
   -7.2634    0.5935   -0.6672 H   0  0  0  0  0  0  0  0  0  0  0  0
   -6.2119    0.1222   -2.0109 H   0  0  0  0  0  0  0  0  0  0  0  0
   -6.8020   -1.1192   -0.8674 H   0  0  0  0  0  0  0  0  0  0  0  0
   -1.9368   -1.1271   -1.9110 H   0  0  0  0  0  0  0  0  0  0  0  0
    0.3666   -1.0999   -1.1019 H   0  0  0  0  0  0  0  0  0  0  0  0
  1  2  1  0
  2  3  1  0
  3  4  1  0
  4  5  1  0
  5  6  1  0
  6  7  2  0
  6  8  1  0
  8  9  2  0
  9 10  1  0
 10 11  2  0
 11 12  1  0
 12 13  1  0
 13 14  1  0
 13 15  2  0
 11 16  1  0
 16 17  2  0
 17  8  1  0
  1 18  1  0
  1 19  1  0
  1 20  1  0
  2 21  1  0
  2 22  1  0
  3 23  1  0
  3 24  1  0
  4 25  1  0
  4 26  1  0
  9 27  1  0
 10 28  1  0
 12 29  1  0
 14 30  1  0
 14 31  1  0
 14 32  1  0
 16 33  1  0
 17 34  1  0
M  END
$$$$
