
     RDKit          3D

 36 35  0  0  0  0  0  0  0  0999 V2000
    1.7109   -3.0121   -2.4341 C   0  0  0  0  0  0  0  0  0  0  0  0
    2.2700   -1.6255   -2.7172 C   0  0  0  0  0  0  0  0  0  0  0  0
    2.1505   -0.7439   -1.5417 N   0  0  0  0  0  0  0  0  0  0  0  0
    3.3373   -0.7336   -0.6677 C   0  0  0  0  0  0  0  0  0  0  0  0
    4.3264    0.3468   -1.0809 C   0  0  0  0  0  0  0  0  0  0  0  0
    1.0046    0.0503   -1.3303 C   0  0  0  0  0  0  0  0  0  0  0  0
   -0.2603    0.2516   -2.4306 S   0  0  0  0  0  0  0  0  0  0  0  0
    0.9050    0.9670    0.1856 S   0  0  0  0  0  0  0  0  0  0  0  0
    0.3725   -0.4929    1.5471 S   0  0  0  0  0  0  0  0  0  0  0  0
   -1.3687   -0.6800    1.2619 C   0  0  0  0  0  0  0  0  0  0  0  0
   -1.8638   -2.1234    0.5356 S   0  0  0  0  0  0  0  0  0  0  0  0
   -2.2301    0.3495    1.7010 N   0  0  0  0  0  0  0  0  0  0  0  0
   -1.8175    1.4410    2.6055 C   0  0  0  0  0  0  0  0  0  0  0  0
   -1.9152    2.8227    1.9760 C   0  0  0  0  0  0  0  0  0  0  0  0
   -3.6662    0.3360    1.3592 C   0  0  0  0  0  0  0  0  0  0  0  0
   -3.9424    0.8445   -0.0497 C   0  0  0  0  0  0  0  0  0  0  0  0
    2.2366   -3.4852   -1.5983 H   0  0  0  0  0  0  0  0  0  0  0  0
    0.6485   -2.9691   -2.1755 H   0  0  0  0  0  0  0  0  0  0  0  0
    1.8225   -3.6530   -3.3140 H   0  0  0  0  0  0  0  0  0  0  0  0
    1.7617   -1.1930   -3.5829 H   0  0  0  0  0  0  0  0  0  0  0  0
    3.3273   -1.7013   -2.9969 H   0  0  0  0  0  0  0  0  0  0  0  0
    3.8177   -1.7179   -0.7175 H   0  0  0  0  0  0  0  0  0  0  0  0
    3.0631   -0.5894    0.3777 H   0  0  0  0  0  0  0  0  0  0  0  0
    4.6688    0.1958   -2.1097 H   0  0  0  0  0  0  0  0  0  0  0  0
    3.8759    1.3426   -1.0242 H   0  0  0  0  0  0  0  0  0  0  0  0
    5.2021    0.3300   -0.4249 H   0  0  0  0  0  0  0  0  0  0  0  0
   -2.4691    1.3935    3.4869 H   0  0  0  0  0  0  0  0  0  0  0  0
   -0.8067    1.2939    2.9881 H   0  0  0  0  0  0  0  0  0  0  0  0
   -2.9555    3.0944    1.7729 H   0  0  0  0  0  0  0  0  0  0  0  0
   -1.3648    2.8765    1.0332 H   0  0  0  0  0  0  0  0  0  0  0  0
   -1.5065    3.5761    2.6569 H   0  0  0  0  0  0  0  0  0  0  0  0
   -4.2105    0.9552    2.0820 H   0  0  0  0  0  0  0  0  0  0  0  0
   -4.0661   -0.6762    1.4740 H   0  0  0  0  0  0  0  0  0  0  0  0
   -5.0196    0.8466   -0.2435 H   0  0  0  0  0  0  0  0  0  0  0  0
   -3.4665    0.2181   -0.8089 H   0  0  0  0  0  0  0  0  0  0  0  0
   -3.5719    1.8642   -0.1875 H   0  0  0  0  0  0  0  0  0  0  0  0
  1  2  1  0
  2  3  1  0
  3  4  1  0
  4  5  1  0
  3  6  1  0
  6  7  2  0
  6  8  1  0
  8  9  1  0
  9 10  1  0
 10 11  2  0
 10 12  1  0
 12 13  1  0
 13 14  1  0
 12 15  1  0
 15 16  1  0
  1 17  1  0
  1 18  1  0
  1 19  1  0
  2 20  1  0
  2 21  1  0
  4 22  1  0
  4 23  1  0
  5 24  1  0
  5 25  1  0
  5 26  1  0
 13 27  1  0
 13 28  1  0
 14 29  1  0
 14 30  1  0
 14 31  1  0
 15 32  1  0
 15 33  1  0
 16 34  1  0
 16 35  1  0
 16 36  1  0
M  END
$$$$
