
     RDKit          3D

 43 45  0  0  0  0  0  0  0  0999 V2000
   -6.2883   -1.6542    1.0218 C   0  0  0  0  0  0  0  0  0  0  0  0
   -5.1497   -0.8097    1.3815 N   0  0  0  0  0  0  0  0  0  0  0  0
   -5.3218    0.0075    2.5800 C   0  0  0  0  0  0  0  0  0  0  0  0
   -4.3043   -0.3619    0.3591 C   0  0  0  0  0  0  0  0  0  0  0  0
   -4.1854   -1.0537   -0.8602 C   0  0  0  0  0  0  0  0  0  0  0  0
   -3.3320   -0.6247   -1.8879 C   0  0  0  0  0  0  0  0  0  0  0  0
   -2.5496    0.5146   -1.7236 C   0  0  0  0  0  0  0  0  0  0  0  0
   -1.6799    0.9663   -2.8124 C   0  0  0  0  0  0  0  0  0  0  0  0
   -0.3375    1.0170   -2.8023 C   0  0  0  0  0  0  0  0  0  0  0  0
    0.5318    0.5983   -1.7171 C   0  0  0  0  0  0  0  0  0  0  0  0
    1.8685    0.7067   -1.6788 C   0  0  0  0  0  0  0  0  0  0  0  0
    2.9015    1.3618   -2.8754 S   0  0  0  0  0  0  0  0  0  0  0  0
    4.3432    1.1682   -1.8765 C   0  0  0  0  0  0  0  0  0  0  0  0
    5.7861    1.8522   -2.3832 S   0  0  0  0  0  0  0  0  0  0  0  0
    4.0204    0.4991   -0.7000 N   0  0  0  0  0  0  0  0  0  0  0  0
    4.9719    0.0977    0.2980 C   0  0  0  0  0  0  0  0  0  0  0  0
    4.6670    0.2049    1.6651 C   0  0  0  0  0  0  0  0  0  0  0  0
    5.5840   -0.1877    2.6457 C   0  0  0  0  0  0  0  0  0  0  0  0
    6.8210   -0.7046    2.2773 C   0  0  0  0  0  0  0  0  0  0  0  0
    7.1366   -0.8382    0.9294 C   0  0  0  0  0  0  0  0  0  0  0  0
    6.2177   -0.4461   -0.0506 C   0  0  0  0  0  0  0  0  0  0  0  0
    2.6621    0.2382   -0.5073 C   0  0  0  0  0  0  0  0  0  0  0  0
    2.1302   -0.3179    0.4465 O   0  0  0  0  0  0  0  0  0  0  0  0
   -2.6382    1.2185   -0.5250 C   0  0  0  0  0  0  0  0  0  0  0  0
   -3.4927    0.7780    0.4970 C   0  0  0  0  0  0  0  0  0  0  0  0
   -6.9212   -1.8635    1.8917 H   0  0  0  0  0  0  0  0  0  0  0  0
   -6.9176   -1.1678    0.2683 H   0  0  0  0  0  0  0  0  0  0  0  0
   -5.9562   -2.6294    0.6503 H   0  0  0  0  0  0  0  0  0  0  0  0
   -5.9550   -0.5009    3.3161 H   0  0  0  0  0  0  0  0  0  0  0  0
   -5.7949    0.9659    2.3394 H   0  0  0  0  0  0  0  0  0  0  0  0
   -4.3631    0.1833    3.0805 H   0  0  0  0  0  0  0  0  0  0  0  0
   -4.7500   -1.9633   -1.0412 H   0  0  0  0  0  0  0  0  0  0  0  0
   -3.2827   -1.2005   -2.8089 H   0  0  0  0  0  0  0  0  0  0  0  0
   -2.2110    1.2828   -3.7084 H   0  0  0  0  0  0  0  0  0  0  0  0
    0.1427    1.3933   -3.7045 H   0  0  0  0  0  0  0  0  0  0  0  0
    0.0363    0.1448   -0.8577 H   0  0  0  0  0  0  0  0  0  0  0  0
    3.7178    0.6182    1.9990 H   0  0  0  0  0  0  0  0  0  0  0  0
    5.3267   -0.0878    3.6974 H   0  0  0  0  0  0  0  0  0  0  0  0
    7.5335   -1.0115    3.0387 H   0  0  0  0  0  0  0  0  0  0  0  0
    8.0953   -1.2586    0.6351 H   0  0  0  0  0  0  0  0  0  0  0  0
    6.4903   -0.6210   -1.0879 H   0  0  0  0  0  0  0  0  0  0  0  0
   -2.0462    2.1169   -0.3683 H   0  0  0  0  0  0  0  0  0  0  0  0
   -3.5071    1.3687    1.4076 H   0  0  0  0  0  0  0  0  0  0  0  0
  1  2  1  0
  2  3  1  0
  2  4  1  0
  4  5  2  0
  5  6  1  0
  6  7  2  0
  7  8  1  0
  8  9  2  3
  9 10  1  0
 10 11  2  3
 11 12  1  0
 12 13  1  0
 13 14  2  0
 13 15  1  0
 15 16  1  0
 16 17  2  0
 17 18  1  0
 18 19  2  0
 19 20  1  0
 20 21  2  0
 15 22  1  0
 22 23  2  0
  7 24  1  0
 24 25  2  0
 25  4  1  0
 22 11  1  0
 21 16  1  0
  1 26  1  0
  1 27  1  0
  1 28  1  0
  3 29  1  0
  3 30  1  0
  3 31  1  0
  5 32  1  0
  6 33  1  0
  8 34  1  0
  9 35  1  0
 10 36  1  0
 17 37  1  0
 18 38  1  0
 19 39  1  0
 20 40  1  0
 21 41  1  0
 24 42  1  0
 25 43  1  0
M  END
$$$$
