
     RDKit          3D

 55 58  0  0  0  0  0  0  0  0999 V2000
    7.3442    1.3064   -0.5770 C   0  0  0  0  0  0  0  0  0  0  0  0
    6.7640    0.8827    0.7637 C   0  0  0  0  0  0  0  0  0  0  0  0
    5.9440   -0.3293    0.6342 N   0  0  0  0  0  0  0  0  0  0  0  0
    6.6523   -1.6133    0.7309 C   0  0  0  0  0  0  0  0  0  0  0  0
    6.7264   -2.3200   -0.6161 C   0  0  0  0  0  0  0  0  0  0  0  0
    4.5641   -0.2564    0.4679 C   0  0  0  0  0  0  0  0  0  0  0  0
    3.7248   -1.3673    0.6547 C   0  0  0  0  0  0  0  0  0  0  0  0
    2.3313   -1.2983    0.4912 C   0  0  0  0  0  0  0  0  0  0  0  0
    1.7128   -0.1000    0.1404 C   0  0  0  0  0  0  0  0  0  0  0  0
    0.2563   -0.0722   -0.0524 C   0  0  0  0  0  0  0  0  0  0  0  0
   -0.5195    0.9721    0.2834 C   0  0  0  0  0  0  0  0  0  0  0  0
   -1.9741    1.0541    0.1030 C   0  0  0  0  0  0  0  0  0  0  0  0
   -2.8038   -0.0546    0.0726 C   0  0  0  0  0  0  0  0  0  0  0  0
   -4.1849    0.1248   -0.0787 C   0  0  0  0  0  0  0  0  0  0  0  0
   -5.0459   -1.0662   -0.1141 C   0  0  0  0  0  0  0  0  0  0  0  0
   -5.3342   -1.7050   -1.3298 C   0  0  0  0  0  0  0  0  0  0  0  0
   -6.1497   -2.8381   -1.3629 C   0  0  0  0  0  0  0  0  0  0  0  0
   -6.6849   -3.3469   -0.1811 C   0  0  0  0  0  0  0  0  0  0  0  0
   -6.4054   -2.7248    1.0342 C   0  0  0  0  0  0  0  0  0  0  0  0
   -5.5899   -1.5918    1.0679 C   0  0  0  0  0  0  0  0  0  0  0  0
   -4.6975    1.4418   -0.1870 C   0  0  0  0  0  0  0  0  0  0  0  0
   -6.0726    1.7456   -0.3450 C   0  0  0  0  0  0  0  0  0  0  0  0
   -6.5155    3.0636   -0.4420 C   0  0  0  0  0  0  0  0  0  0  0  0
   -5.5945    4.0988   -0.3825 C   0  0  0  0  0  0  0  0  0  0  0  0
   -4.2375    3.8078   -0.2269 C   0  0  0  0  0  0  0  0  0  0  0  0
   -3.7702    2.5037   -0.1287 C   0  0  0  0  0  0  0  0  0  0  0  0
   -2.4494    2.3148    0.0187 N   0  0  0  0  0  0  0  0  0  0  0  0
    2.5218    1.0146   -0.0705 C   0  0  0  0  0  0  0  0  0  0  0  0
    3.9142    0.9327    0.0962 C   0  0  0  0  0  0  0  0  0  0  0  0
    6.5620    1.4741   -1.3235 H   0  0  0  0  0  0  0  0  0  0  0  0
    8.0237    0.5440   -0.9704 H   0  0  0  0  0  0  0  0  0  0  0  0
    7.9131    2.2347   -0.4649 H   0  0  0  0  0  0  0  0  0  0  0  0
    7.5907    0.6981    1.4614 H   0  0  0  0  0  0  0  0  0  0  0  0
    6.2024    1.7074    1.2176 H   0  0  0  0  0  0  0  0  0  0  0  0
    6.1984   -2.2612    1.4889 H   0  0  0  0  0  0  0  0  0  0  0  0
    7.6805   -1.4512    1.0780 H   0  0  0  0  0  0  0  0  0  0  0  0
    7.2221   -1.6944   -1.3647 H   0  0  0  0  0  0  0  0  0  0  0  0
    7.2970   -3.2493   -0.5213 H   0  0  0  0  0  0  0  0  0  0  0  0
    5.7348   -2.5747   -1.0013 H   0  0  0  0  0  0  0  0  0  0  0  0
    4.1309   -2.3302    0.9473 H   0  0  0  0  0  0  0  0  0  0  0  0
    1.7419   -2.1972    0.6556 H   0  0  0  0  0  0  0  0  0  0  0  0
   -0.1676   -0.9712   -0.4910 H   0  0  0  0  0  0  0  0  0  0  0  0
   -0.0851    1.8706    0.7153 H   0  0  0  0  0  0  0  0  0  0  0  0
   -2.3996   -1.0564    0.1755 H   0  0  0  0  0  0  0  0  0  0  0  0
   -4.9239   -1.3174   -2.2602 H   0  0  0  0  0  0  0  0  0  0  0  0
   -6.3666   -3.3228   -2.3114 H   0  0  0  0  0  0  0  0  0  0  0  0
   -7.3195   -4.2290   -0.2071 H   0  0  0  0  0  0  0  0  0  0  0  0
   -6.8217   -3.1211    1.9568 H   0  0  0  0  0  0  0  0  0  0  0  0
   -5.3804   -1.1152    2.0236 H   0  0  0  0  0  0  0  0  0  0  0  0
   -6.8123    0.9486   -0.3933 H   0  0  0  0  0  0  0  0  0  0  0  0
   -7.5744    3.2766   -0.5629 H   0  0  0  0  0  0  0  0  0  0  0  0
   -5.9231    5.1319   -0.4564 H   0  0  0  0  0  0  0  0  0  0  0  0
   -3.5204    4.6246   -0.1813 H   0  0  0  0  0  0  0  0  0  0  0  0
    2.0913    1.9632   -0.3824 H   0  0  0  0  0  0  0  0  0  0  0  0
    4.4790    1.8384   -0.1018 H   0  0  0  0  0  0  0  0  0  0  0  0
  1  2  1  0
  2  3  1  0
  3  4  1  0
  4  5  1  0
  3  6  1  0
  6  7  2  0
  7  8  1  0
  8  9  2  0
  9 10  1  0
 10 11  2  3
 11 12  1  0
 12 13  2  0
 13 14  1  0
 14 15  1  0
 15 16  2  0
 16 17  1  0
 17 18  2  0
 18 19  1  0
 19 20  2  0
 14 21  2  0
 21 22  1  0
 22 23  2  0
 23 24  1  0
 24 25  2  0
 25 26  1  0
 26 27  2  0
  9 28  1  0
 28 29  2  0
 29  6  1  0
 27 12  1  0
 20 15  1  0
 26 21  1  0
  1 30  1  0
  1 31  1  0
  1 32  1  0
  2 33  1  0
  2 34  1  0
  4 35  1  0
  4 36  1  0
  5 37  1  0
  5 38  1  0
  5 39  1  0
  7 40  1  0
  8 41  1  0
 10 42  1  0
 11 43  1  0
 13 44  1  0
 16 45  1  0
 17 46  1  0
 18 47  1  0
 19 48  1  0
 20 49  1  0
 22 50  1  0
 23 51  1  0
 24 52  1  0
 25 53  1  0
 28 54  1  0
 29 55  1  0
M  END
$$$$
