
     RDKit          3D

 37 40  0  0  0  0  0  0  0  0999 V2000
   -1.3953   -2.9638    0.6811 C   0  0  0  0  0  0  0  0  0  0  0  0
   -0.5789   -1.7545    0.3201 C   0  0  0  0  0  0  0  0  0  0  0  0
    0.8244   -1.8410    0.3010 C   0  0  0  0  0  0  0  0  0  0  0  0
    1.6026   -0.7136   -0.0394 C   0  0  0  0  0  0  0  0  0  0  0  0
    0.9512    0.4800   -0.3564 C   0  0  0  0  0  0  0  0  0  0  0  0
    1.9363    1.3982   -0.6457 N   0  0  0  0  0  0  0  0  0  0  0  0
    3.1887    0.8448   -0.5277 C   0  0  0  0  0  0  0  0  0  0  0  0
    4.4512    1.4159   -0.7271 C   0  0  0  0  0  0  0  0  0  0  0  0
    5.5687    0.5991   -0.5309 C   0  0  0  0  0  0  0  0  0  0  0  0
    5.4259   -0.7333   -0.1509 C   0  0  0  0  0  0  0  0  0  0  0  0
    4.1551   -1.2866    0.0439 C   0  0  0  0  0  0  0  0  0  0  0  0
    3.0117   -0.4833   -0.1476 C   0  0  0  0  0  0  0  0  0  0  0  0
   -0.4493    0.5905   -0.3442 C   0  0  0  0  0  0  0  0  0  0  0  0
   -1.2013   -0.5399    0.0017 C   0  0  0  0  0  0  0  0  0  0  0  0
   -2.5715   -0.5283    0.0292 O   0  0  0  0  0  0  0  0  0  0  0  0
   -3.2695    0.7213   -0.1412 C   0  0  0  0  0  0  0  0  0  0  0  0
   -3.9249    1.0494    1.2055 C   0  0  0  0  0  0  0  0  0  0  0  0
   -4.3551    0.4562   -1.1915 C   0  0  0  0  0  0  0  0  0  0  0  0
   -2.4247    1.8934   -0.5880 C   0  0  0  0  0  0  0  0  0  0  0  0
   -1.0937    1.8427   -0.6907 C   0  0  0  0  0  0  0  0  0  0  0  0
   -0.7589   -3.8252    0.9096 H   0  0  0  0  0  0  0  0  0  0  0  0
   -2.0466   -3.2442   -0.1531 H   0  0  0  0  0  0  0  0  0  0  0  0
   -2.0058   -2.7586    1.5666 H   0  0  0  0  0  0  0  0  0  0  0  0
    1.3211   -2.7756    0.5470 H   0  0  0  0  0  0  0  0  0  0  0  0
    1.7645    2.3562   -0.9092 H   0  0  0  0  0  0  0  0  0  0  0  0
    4.5665    2.4534   -1.0233 H   0  0  0  0  0  0  0  0  0  0  0  0
    6.5645    1.0113   -0.6776 H   0  0  0  0  0  0  0  0  0  0  0  0
    6.3081   -1.3513   -0.0037 H   0  0  0  0  0  0  0  0  0  0  0  0
    4.0528   -2.3262    0.3401 H   0  0  0  0  0  0  0  0  0  0  0  0
   -4.5544    0.2189    1.5459 H   0  0  0  0  0  0  0  0  0  0  0  0
   -4.5441    1.9516    1.1518 H   0  0  0  0  0  0  0  0  0  0  0  0
   -3.1664    1.1990    1.9833 H   0  0  0  0  0  0  0  0  0  0  0  0
   -4.9899   -0.3865   -0.8930 H   0  0  0  0  0  0  0  0  0  0  0  0
   -3.9074    0.1784   -2.1535 H   0  0  0  0  0  0  0  0  0  0  0  0
   -4.9965    1.3300   -1.3502 H   0  0  0  0  0  0  0  0  0  0  0  0
   -2.9397    2.8207   -0.8248 H   0  0  0  0  0  0  0  0  0  0  0  0
   -0.5195    2.7012   -1.0112 H   0  0  0  0  0  0  0  0  0  0  0  0
  1  2  1  0
  2  3  2  0
  3  4  1  0
  4  5  2  0
  5  6  1  0
  6  7  1  0
  7  8  2  0
  8  9  1  0
  9 10  2  0
 10 11  1  0
 11 12  2  0
  5 13  1  0
 13 14  2  0
 14 15  1  0
 15 16  1  0
 16 17  1  0
 16 18  1  0
 16 19  1  0
 19 20  2  0
 14  2  1  0
 12  4  1  0
 20 13  1  0
 12  7  1  0
  1 21  1  0
  1 22  1  0
  1 23  1  0
  3 24  1  0
  6 25  1  0
  8 26  1  0
  9 27  1  0
 10 28  1  0
 11 29  1  0
 17 30  1  0
 17 31  1  0
 17 32  1  0
 18 33  1  0
 18 34  1  0
 18 35  1  0
 19 36  1  0
 20 37  1  0
M  END
$$$$
