
     RDKit          3D

 55 58  0  0  0  0  0  0  0  0999 V2000
    8.3159    1.2519   -1.0732 C   0  0  0  0  0  0  0  0  0  0  0  0
    7.3380    1.3447   -0.0483 O   0  0  0  0  0  0  0  0  0  0  0  0
    6.1183    0.7563   -0.2714 C   0  0  0  0  0  0  0  0  0  0  0  0
    5.7761    0.0641   -1.4376 C   0  0  0  0  0  0  0  0  0  0  0  0
    4.5062   -0.5044   -1.5787 C   0  0  0  0  0  0  0  0  0  0  0  0
    3.5705   -0.3925   -0.5476 C   0  0  0  0  0  0  0  0  0  0  0  0
    2.2018   -0.9749   -0.6585 C   0  0  0  0  0  0  0  0  0  0  0  0
    2.0747   -2.2743   -1.3929 C   0  0  0  0  0  0  0  0  0  0  0  0
    0.8324   -2.7858   -1.5002 C   0  0  0  0  0  0  0  0  0  0  0  0
    0.5237   -4.0565   -2.1953 C   0  0  0  0  0  0  0  0  0  0  0  0
   -0.3113   -3.8880   -3.2511 F   0  0  0  0  0  0  0  0  0  0  0  0
    1.6552   -4.6216   -2.7093 F   0  0  0  0  0  0  0  0  0  0  0  0
   -0.0168   -4.9928   -1.3783 F   0  0  0  0  0  0  0  0  0  0  0  0
   -0.2402   -2.1117   -0.9293 N   0  0  0  0  0  0  0  0  0  0  0  0
   -1.5509   -2.4507   -0.9377 N   0  0  0  0  0  0  0  0  0  0  0  0
   -2.1727   -1.4953   -0.2279 C   0  0  0  0  0  0  0  0  0  0  0  0
   -3.6206   -1.5294    0.0216 C   0  0  0  0  0  0  0  0  0  0  0  0
   -4.1031   -2.3605    0.7908 O   0  0  0  0  0  0  0  0  0  0  0  0
   -4.3987   -0.5561   -0.6172 N   0  0  0  0  0  0  0  0  0  0  0  0
   -3.8669    0.4295   -1.5482 C   0  0  0  0  0  0  0  0  0  0  0  0
   -5.7786   -0.3845   -0.1787 C   0  0  0  0  0  0  0  0  0  0  0  0
   -5.9219    0.7477    0.8115 C   0  0  0  0  0  0  0  0  0  0  0  0
   -5.5605    0.5631    2.1537 C   0  0  0  0  0  0  0  0  0  0  0  0
   -5.6725    1.6108    3.0685 C   0  0  0  0  0  0  0  0  0  0  0  0
   -6.1445    2.8533    2.6513 C   0  0  0  0  0  0  0  0  0  0  0  0
   -6.5039    3.0502    1.3197 C   0  0  0  0  0  0  0  0  0  0  0  0
   -6.3921    2.0037    0.4028 C   0  0  0  0  0  0  0  0  0  0  0  0
   -1.2616   -0.5155    0.2251 C   0  0  0  0  0  0  0  0  0  0  0  0
   -0.0321   -0.9144   -0.2375 C   0  0  0  0  0  0  0  0  0  0  0  0
    1.2018   -0.3481   -0.1058 N   0  0  0  0  0  0  0  0  0  0  0  0
    3.9017    0.3136    0.6171 C   0  0  0  0  0  0  0  0  0  0  0  0
    5.1694    0.8874    0.7639 C   0  0  0  0  0  0  0  0  0  0  0  0
    5.5789    1.5869    1.8727 O   0  0  0  0  0  0  0  0  0  0  0  0
    4.6176    1.8319    2.8903 C   0  0  0  0  0  0  0  0  0  0  0  0
    9.2095    1.7820   -0.7301 H   0  0  0  0  0  0  0  0  0  0  0  0
    7.9735    1.7386   -1.9923 H   0  0  0  0  0  0  0  0  0  0  0  0
    8.5968    0.2091   -1.2580 H   0  0  0  0  0  0  0  0  0  0  0  0
    6.4741   -0.0423   -2.2611 H   0  0  0  0  0  0  0  0  0  0  0  0
    4.2648   -1.0045   -2.5117 H   0  0  0  0  0  0  0  0  0  0  0  0
    2.9496   -2.7741   -1.7889 H   0  0  0  0  0  0  0  0  0  0  0  0
   -3.0048    0.0383   -2.0934 H   0  0  0  0  0  0  0  0  0  0  0  0
   -4.6365    0.6936   -2.2801 H   0  0  0  0  0  0  0  0  0  0  0  0
   -3.5680    1.3219   -0.9908 H   0  0  0  0  0  0  0  0  0  0  0  0
   -6.4020   -0.2073   -1.0633 H   0  0  0  0  0  0  0  0  0  0  0  0
   -6.1612   -1.3052    0.2764 H   0  0  0  0  0  0  0  0  0  0  0  0
   -5.1914   -0.4036    2.4927 H   0  0  0  0  0  0  0  0  0  0  0  0
   -5.3925    1.4552    4.1069 H   0  0  0  0  0  0  0  0  0  0  0  0
   -6.2333    3.6680    3.3650 H   0  0  0  0  0  0  0  0  0  0  0  0
   -6.8728    4.0198    0.9961 H   0  0  0  0  0  0  0  0  0  0  0  0
   -6.6752    2.1757   -0.6326 H   0  0  0  0  0  0  0  0  0  0  0  0
   -1.4722    0.3631    0.8167 H   0  0  0  0  0  0  0  0  0  0  0  0
    3.1533    0.3980    1.3994 H   0  0  0  0  0  0  0  0  0  0  0  0
    4.2917    0.8961    3.3558 H   0  0  0  0  0  0  0  0  0  0  0  0
    3.7659    2.4012    2.5030 H   0  0  0  0  0  0  0  0  0  0  0  0
    5.0977    2.4382    3.6650 H   0  0  0  0  0  0  0  0  0  0  0  0
  1  2  1  0
  2  3  1  0
  3  4  2  0
  4  5  1  0
  5  6  2  0
  6  7  1  0
  7  8  1  0
  8  9  2  0
  9 10  1  0
 10 11  1  0
 10 12  1  0
 10 13  1  0
  9 14  1  0
 14 15  1  0
 15 16  2  0
 16 17  1  0
 17 18  2  0
 17 19  1  0
 19 20  1  0
 19 21  1  0
 21 22  1  0
 22 23  2  0
 23 24  1  0
 24 25  2  0
 25 26  1  0
 26 27  2  0
 16 28  1  0
 28 29  2  0
 29 30  1  0
  6 31  1  0
 31 32  2  0
 32 33  1  0
 33 34  1  0
 32  3  1  0
 30  7  2  0
 29 14  1  0
 27 22  1  0
  1 35  1  0
  1 36  1  0
  1 37  1  0
  4 38  1  0
  5 39  1  0
  8 40  1  0
 20 41  1  0
 20 42  1  0
 20 43  1  0
 21 44  1  0
 21 45  1  0
 23 46  1  0
 24 47  1  0
 25 48  1  0
 26 49  1  0
 27 50  1  0
 28 51  1  0
 31 52  1  0
 34 53  1  0
 34 54  1  0
 34 55  1  0
M  END
$$$$
