
     RDKit          3D

 54 57  0  0  0  0  0  0  0  0999 V2000
   -5.0650    2.8718   -2.3316 C   0  0  0  0  0  0  0  0  0  0  0  0
   -4.4611    3.1521   -1.0753 O   0  0  0  0  0  0  0  0  0  0  0  0
   -3.4094    2.3610   -0.7038 C   0  0  0  0  0  0  0  0  0  0  0  0
   -2.8221    2.7066    0.5164 C   0  0  0  0  0  0  0  0  0  0  0  0
   -1.7332    1.9884    1.0166 C   0  0  0  0  0  0  0  0  0  0  0  0
   -1.2337    0.9017    0.2938 C   0  0  0  0  0  0  0  0  0  0  0  0
   -0.1252    0.1714    0.7859 N   0  0  0  0  0  0  0  0  0  0  0  0
    0.0014   -1.2075    0.9041 C   0  0  0  0  0  0  0  0  0  0  0  0
   -1.0817   -2.2114    0.6819 C   0  0  0  0  0  0  0  0  0  0  0  0
   -2.1689   -2.1273    1.7139 C   0  0  0  0  0  0  0  0  0  0  0  0
   -3.4814   -1.7096    1.5670 C   0  0  0  0  0  0  0  0  0  0  0  0
   -4.1110   -1.7944    2.8290 C   0  0  0  0  0  0  0  0  0  0  0  0
   -3.1753   -2.2680    3.7190 C   0  0  0  0  0  0  0  0  0  0  0  0
   -2.0004   -2.4734    3.0394 N   0  0  0  0  0  0  0  0  0  0  0  0
   -0.7845   -2.9552    3.6608 C   0  0  0  0  0  0  0  0  0  0  0  0
    1.1927   -1.4995    1.3957 N   0  0  0  0  0  0  0  0  0  0  0  0
    1.8589   -0.3305    1.6337 N   0  0  0  0  0  0  0  0  0  0  0  0
    1.0774    0.6577    1.2666 C   0  0  0  0  0  0  0  0  0  0  0  0
    1.6198    2.3069    1.2187 S   0  0  0  0  0  0  0  0  0  0  0  0
    1.6495    2.6386   -0.5660 C   0  0  0  0  0  0  0  0  0  0  0  0
    2.2330    1.4911   -1.3756 C   0  0  0  0  0  0  0  0  0  0  0  0
    1.5541    0.9362   -2.2367 O   0  0  0  0  0  0  0  0  0  0  0  0
    3.5441    1.2016   -1.0549 N   0  0  0  0  0  0  0  0  0  0  0  0
    4.3761    0.2156   -1.6273 C   0  0  0  0  0  0  0  0  0  0  0  0
    4.0324   -0.5640   -2.7320 C   0  0  0  0  0  0  0  0  0  0  0  0
    4.9309   -1.5176   -3.2282 C   0  0  0  0  0  0  0  0  0  0  0  0
    6.1778   -1.6982   -2.6268 C   0  0  0  0  0  0  0  0  0  0  0  0
    6.5322   -0.9222   -1.5266 C   0  0  0  0  0  0  0  0  0  0  0  0
    5.6345    0.0242   -1.0404 C   0  0  0  0  0  0  0  0  0  0  0  0
    5.9926    0.7754    0.0138 F   0  0  0  0  0  0  0  0  0  0  0  0
   -1.8144    0.5499   -0.9288 C   0  0  0  0  0  0  0  0  0  0  0  0
   -2.8991    1.2819   -1.4255 C   0  0  0  0  0  0  0  0  0  0  0  0
   -5.8751    3.5920   -2.4820 H   0  0  0  0  0  0  0  0  0  0  0  0
   -5.5043    1.8697   -2.3434 H   0  0  0  0  0  0  0  0  0  0  0  0
   -4.3497    3.0003   -3.1492 H   0  0  0  0  0  0  0  0  0  0  0  0
   -3.2221    3.5423    1.0863 H   0  0  0  0  0  0  0  0  0  0  0  0
   -1.3227    2.2700    1.9837 H   0  0  0  0  0  0  0  0  0  0  0  0
   -0.6454   -3.2180    0.7081 H   0  0  0  0  0  0  0  0  0  0  0  0
   -1.5053   -2.1157   -0.3222 H   0  0  0  0  0  0  0  0  0  0  0  0
   -3.9370   -1.3665    0.6464 H   0  0  0  0  0  0  0  0  0  0  0  0
   -5.1347   -1.5346    3.0662 H   0  0  0  0  0  0  0  0  0  0  0  0
   -3.2523   -2.4701    4.7796 H   0  0  0  0  0  0  0  0  0  0  0  0
   -1.0336   -3.4429    4.6069 H   0  0  0  0  0  0  0  0  0  0  0  0
   -0.1334   -2.0980    3.8458 H   0  0  0  0  0  0  0  0  0  0  0  0
   -0.3045   -3.6804    3.0009 H   0  0  0  0  0  0  0  0  0  0  0  0
    0.6342    2.8440   -0.9186 H   0  0  0  0  0  0  0  0  0  0  0  0
    2.2456    3.5380   -0.7522 H   0  0  0  0  0  0  0  0  0  0  0  0
    3.9274    1.6459   -0.2236 H   0  0  0  0  0  0  0  0  0  0  0  0
    3.0752   -0.4561   -3.2324 H   0  0  0  0  0  0  0  0  0  0  0  0
    4.6515   -2.1221   -4.0889 H   0  0  0  0  0  0  0  0  0  0  0  0
    6.8680   -2.4426   -3.0164 H   0  0  0  0  0  0  0  0  0  0  0  0
    7.4969   -1.0461   -1.0456 H   0  0  0  0  0  0  0  0  0  0  0  0
   -1.4063   -0.2511   -1.5415 H   0  0  0  0  0  0  0  0  0  0  0  0
   -3.3135    0.9888   -2.3848 H   0  0  0  0  0  0  0  0  0  0  0  0
  1  2  1  0
  2  3  1  0
  3  4  2  0
  4  5  1  0
  5  6  2  0
  6  7  1  0
  7  8  1  0
  8  9  1  0
  9 10  1  0
 10 11  2  0
 11 12  1  0
 12 13  2  0
 13 14  1  0
 14 15  1  0
  8 16  2  0
 16 17  1  0
 17 18  2  0
 18 19  1  0
 19 20  1  0
 20 21  1  0
 21 22  2  0
 21 23  1  0
 23 24  1  0
 24 25  2  0
 25 26  1  0
 26 27  2  0
 27 28  1  0
 28 29  2  0
 29 30  1  0
  6 31  1  0
 31 32  2  0
 32  3  1  0
 18  7  1  0
 29 24  1  0
 14 10  1  0
  1 33  1  0
  1 34  1  0
  1 35  1  0
  4 36  1  0
  5 37  1  0
  9 38  1  0
  9 39  1  0
 11 40  1  0
 12 41  1  0
 13 42  1  0
 15 43  1  0
 15 44  1  0
 15 45  1  0
 20 46  1  0
 20 47  1  0
 23 48  1  0
 25 49  1  0
 26 50  1  0
 27 51  1  0
 28 52  1  0
 31 53  1  0
 32 54  1  0
M  END
$$$$
