
     RDKit          3D

 54 57  0  0  0  0  0  0  0  0999 V2000
    5.6667    1.2224    3.3650 C   0  0  0  0  0  0  0  0  0  0  0  0
    4.4649    1.3003    2.4370 C   0  0  0  0  0  0  0  0  0  0  0  0
    3.4096    0.2569    2.7682 C   0  0  0  0  0  0  0  0  0  0  0  0
    3.6099   -0.6152    3.6132 O   0  0  0  0  0  0  0  0  0  0  0  0
    2.2067    0.3451    2.0747 N   0  0  0  0  0  0  0  0  0  0  0  0
    2.0655    1.0001    0.7662 C   0  0  0  0  0  0  0  0  0  0  0  0
    2.1715   -0.0442   -0.3689 C   0  0  0  0  0  0  0  0  0  0  0  0
    1.1726   -1.1279   -0.1496 N   0  0  0  0  0  0  0  0  0  0  0  0
    1.1765   -2.0522   -1.2315 C   0  0  0  0  0  0  0  0  0  0  0  0
    2.2096   -2.9755   -1.4408 C   0  0  0  0  0  0  0  0  0  0  0  0
    2.1695   -3.8413   -2.5355 C   0  0  0  0  0  0  0  0  0  0  0  0
    1.0992   -3.7864   -3.4274 C   0  0  0  0  0  0  0  0  0  0  0  0
    1.0646   -4.8625   -4.7715 Cl  0  0  0  0  0  0  0  0  0  0  0  0
    0.0612   -2.8744   -3.2431 C   0  0  0  0  0  0  0  0  0  0  0  0
    0.0969   -2.0077   -2.1514 C   0  0  0  0  0  0  0  0  0  0  0  0
   -0.9045   -1.0579   -1.8597 N   0  0  0  0  0  0  0  0  0  0  0  0
   -2.0160   -0.7277   -2.6010 C   0  0  0  0  0  0  0  0  0  0  0  0
   -2.3052   -1.1612   -3.7099 O   0  0  0  0  0  0  0  0  0  0  0  0
   -2.9033    0.2986   -1.9805 C   0  0  0  0  0  0  0  0  0  0  0  0
   -3.6180    1.1609   -2.8248 C   0  0  0  0  0  0  0  0  0  0  0  0
   -4.4589    2.1374   -2.2863 C   0  0  0  0  0  0  0  0  0  0  0  0
   -4.5968    2.2464   -0.9045 C   0  0  0  0  0  0  0  0  0  0  0  0
   -3.8765    1.3962   -0.0582 C   0  0  0  0  0  0  0  0  0  0  0  0
   -3.0481    0.4092   -0.5909 C   0  0  0  0  0  0  0  0  0  0  0  0
   -3.9429    1.4656    1.3104 O   0  0  0  0  0  0  0  0  0  0  0  0
   -4.5434    2.6922    1.7444 C   0  0  0  0  0  0  0  0  0  0  0  0
   -5.7901    2.9990    0.9316 C   0  0  0  0  0  0  0  0  0  0  0  0
   -5.4556    3.2112   -0.4447 O   0  0  0  0  0  0  0  0  0  0  0  0
    1.3180   -1.7816    1.1831 C   0  0  0  0  0  0  0  0  0  0  0  0
    1.2105   -0.7132    2.2915 C   0  0  0  0  0  0  0  0  0  0  0  0
    6.1610    0.2483    3.2869 H   0  0  0  0  0  0  0  0  0  0  0  0
    5.3670    1.3649    4.4084 H   0  0  0  0  0  0  0  0  0  0  0  0
    6.3963    1.9965    3.1093 H   0  0  0  0  0  0  0  0  0  0  0  0
    4.0160    2.2959    2.5194 H   0  0  0  0  0  0  0  0  0  0  0  0
    4.8077    1.1421    1.4094 H   0  0  0  0  0  0  0  0  0  0  0  0
    1.0767    1.4736    0.7468 H   0  0  0  0  0  0  0  0  0  0  0  0
    2.8096    1.7859    0.6220 H   0  0  0  0  0  0  0  0  0  0  0  0
    1.9842    0.4551   -1.3271 H   0  0  0  0  0  0  0  0  0  0  0  0
    3.1882   -0.4578   -0.3872 H   0  0  0  0  0  0  0  0  0  0  0  0
    3.0585   -3.0259   -0.7653 H   0  0  0  0  0  0  0  0  0  0  0  0
    2.9755   -4.5540   -2.6888 H   0  0  0  0  0  0  0  0  0  0  0  0
   -0.7616   -2.8600   -3.9498 H   0  0  0  0  0  0  0  0  0  0  0  0
   -0.6940   -0.5434   -1.0090 H   0  0  0  0  0  0  0  0  0  0  0  0
   -3.5212    1.0711   -3.9058 H   0  0  0  0  0  0  0  0  0  0  0  0
   -5.0162    2.7990   -2.9442 H   0  0  0  0  0  0  0  0  0  0  0  0
   -2.5398   -0.2696    0.0874 H   0  0  0  0  0  0  0  0  0  0  0  0
   -3.7996    3.4937    1.6558 H   0  0  0  0  0  0  0  0  0  0  0  0
   -4.7989    2.5796    2.8026 H   0  0  0  0  0  0  0  0  0  0  0  0
   -6.2679    3.9116    1.3012 H   0  0  0  0  0  0  0  0  0  0  0  0
   -6.5199    2.1819    0.9916 H   0  0  0  0  0  0  0  0  0  0  0  0
    2.2870   -2.2879    1.2677 H   0  0  0  0  0  0  0  0  0  0  0  0
    0.5234   -2.5237    1.3216 H   0  0  0  0  0  0  0  0  0  0  0  0
    1.3326   -1.1750    3.2761 H   0  0  0  0  0  0  0  0  0  0  0  0
    0.2213   -0.2406    2.2659 H   0  0  0  0  0  0  0  0  0  0  0  0
  1  2  1  0
  2  3  1  0
  3  4  2  0
  3  5  1  0
  5  6  1  0
  6  7  1  0
  7  8  1  0
  8  9  1  0
  9 10  2  0
 10 11  1  0
 11 12  2  0
 12 13  1  0
 12 14  1  0
 14 15  2  0
 15 16  1  0
 16 17  1  0
 17 18  2  0
 17 19  1  0
 19 20  2  0
 20 21  1  0
 21 22  2  0
 22 23  1  0
 23 24  2  0
 23 25  1  0
 25 26  1  0
 26 27  1  0
 27 28  1  0
  8 29  1  0
 29 30  1  0
 30  5  1  0
 15  9  1  0
 24 19  1  0
 28 22  1  0
  1 31  1  0
  1 32  1  0
  1 33  1  0
  2 34  1  0
  2 35  1  0
  6 36  1  0
  6 37  1  0
  7 38  1  0
  7 39  1  0
 10 40  1  0
 11 41  1  0
 14 42  1  0
 16 43  1  0
 20 44  1  0
 21 45  1  0
 24 46  1  0
 26 47  1  0
 26 48  1  0
 27 49  1  0
 27 50  1  0
 29 51  1  0
 29 52  1  0
 30 53  1  0
 30 54  1  0
M  END
$$$$
