
     RDKit          3D

 40 42  0  0  0  0  0  0  0  0999 V2000
    4.7201   -0.6640    0.2631 N   0  0  0  0  0  0  0  0  0  0  0  0
    3.7076    0.1626    0.9106 C   0  0  0  0  0  0  0  0  0  0  0  0
    2.5429    0.4914   -0.0259 C   0  0  0  0  0  0  0  0  0  0  0  0
    1.7388   -0.7395   -0.4536 C   0  0  0  0  0  0  0  0  0  0  0  0
    0.5418   -0.4266   -1.3691 C   0  0  0  0  0  0  0  0  0  0  0  0
   -0.5630    0.2719   -0.6640 N   0  0  0  0  0  0  0  0  0  0  0  0
   -0.6878    1.6841   -0.8533 C   0  0  0  0  0  0  0  0  0  0  0  0
    0.2367    2.4434   -1.6099 C   0  0  0  0  0  0  0  0  0  0  0  0
    0.1183    3.8276   -1.8004 C   0  0  0  0  0  0  0  0  0  0  0  0
   -0.9375    4.5163   -1.2350 C   0  0  0  0  0  0  0  0  0  0  0  0
   -1.8646    3.8140   -0.4780 C   0  0  0  0  0  0  0  0  0  0  0  0
   -1.7477    2.4204   -0.2831 C   0  0  0  0  0  0  0  0  0  0  0  0
   -3.0248    1.7111    0.7224 S   0  0  0  0  0  0  0  0  0  0  0  0
   -2.5792   -0.0033    0.7607 C   0  0  0  0  0  0  0  0  0  0  0  0
   -3.4511   -0.8195    1.5115 C   0  0  0  0  0  0  0  0  0  0  0  0
   -3.2378   -2.1872    1.6328 C   0  0  0  0  0  0  0  0  0  0  0  0
   -2.1393   -2.7641    1.0060 C   0  0  0  0  0  0  0  0  0  0  0  0
   -1.8821   -4.2478    1.0990 C   0  0  0  0  0  0  0  0  0  0  0  0
   -0.5565   -4.5475    1.2012 F   0  0  0  0  0  0  0  0  0  0  0  0
   -2.3326   -4.9205    0.0048 F   0  0  0  0  0  0  0  0  0  0  0  0
   -2.4787   -4.8348    2.1734 F   0  0  0  0  0  0  0  0  0  0  0  0
   -1.2781   -1.9418    0.2486 C   0  0  0  0  0  0  0  0  0  0  0  0
   -1.4580   -0.5437    0.1011 C   0  0  0  0  0  0  0  0  0  0  0  0
    5.5119   -0.7760    0.8965 H   0  0  0  0  0  0  0  0  0  0  0  0
    4.3547   -1.6034    0.1142 H   0  0  0  0  0  0  0  0  0  0  0  0
    3.3418   -0.3418    1.8118 H   0  0  0  0  0  0  0  0  0  0  0  0
    4.1768    1.0997    1.2301 H   0  0  0  0  0  0  0  0  0  0  0  0
    1.8866    1.1933    0.5004 H   0  0  0  0  0  0  0  0  0  0  0  0
    2.9270    1.0086   -0.9132 H   0  0  0  0  0  0  0  0  0  0  0  0
    2.3951   -1.4254   -1.0024 H   0  0  0  0  0  0  0  0  0  0  0  0
    1.4133   -1.2732    0.4456 H   0  0  0  0  0  0  0  0  0  0  0  0
    0.1696   -1.3594   -1.8119 H   0  0  0  0  0  0  0  0  0  0  0  0
    0.8871    0.0950   -2.2658 H   0  0  0  0  0  0  0  0  0  0  0  0
    1.1068    1.9988   -2.0777 H   0  0  0  0  0  0  0  0  0  0  0  0
    0.8615    4.3577   -2.3911 H   0  0  0  0  0  0  0  0  0  0  0  0
   -1.0395    5.5883   -1.3755 H   0  0  0  0  0  0  0  0  0  0  0  0
   -2.6919    4.3625   -0.0310 H   0  0  0  0  0  0  0  0  0  0  0  0
   -4.3151   -0.3822    2.0107 H   0  0  0  0  0  0  0  0  0  0  0  0
   -3.9300   -2.7908    2.2168 H   0  0  0  0  0  0  0  0  0  0  0  0
   -0.4428   -2.4543   -0.2205 H   0  0  0  0  0  0  0  0  0  0  0  0
  1  2  1  0
  2  3  1  0
  3  4  1  0
  4  5  1  0
  5  6  1  0
  6  7  1  0
  7  8  2  0
  8  9  1  0
  9 10  2  0
 10 11  1  0
 11 12  2  0
 12 13  1  0
 13 14  1  0
 14 15  2  0
 15 16  1  0
 16 17  2  0
 17 18  1  0
 18 19  1  0
 18 20  1  0
 18 21  1  0
 17 22  1  0
 22 23  2  0
 23  6  1  0
 12  7  1  0
 23 14  1  0
  1 24  1  0
  1 25  1  0
  2 26  1  0
  2 27  1  0
  3 28  1  0
  3 29  1  0
  4 30  1  0
  4 31  1  0
  5 32  1  0
  5 33  1  0
  8 34  1  0
  9 35  1  0
 10 36  1  0
 11 37  1  0
 15 38  1  0
 16 39  1  0
 22 40  1  0
M  END
$$$$
