
     RDKit          3D

 67 72  0  0  0  0  0  0  0  0999 V2000
    2.3306   -2.9804    1.9606 O   0  0  0  0  0  0  0  0  0  0  0  0
    2.1435   -1.7614    1.9342 C   0  0  0  0  0  0  0  0  0  0  0  0
    3.3118   -0.8049    2.2029 C   0  0  0  0  0  0  0  0  0  0  0  0
    4.0971   -0.5887    0.8966 C   0  0  0  0  0  0  0  0  0  0  0  0
    5.4980   -0.0781    1.1391 C   0  0  0  0  0  0  0  0  0  0  0  0
    5.7684    1.2964    1.1433 C   0  0  0  0  0  0  0  0  0  0  0  0
    7.0607    1.7594    1.3906 C   0  0  0  0  0  0  0  0  0  0  0  0
    8.0924    0.8557    1.6354 C   0  0  0  0  0  0  0  0  0  0  0  0
    7.8336   -0.5125    1.6345 C   0  0  0  0  0  0  0  0  0  0  0  0
    6.5427   -0.9793    1.3880 C   0  0  0  0  0  0  0  0  0  0  0  0
    2.8538    0.4495    2.7957 N   0  0  0  0  0  0  0  0  0  0  0  0
    1.7516    1.0326    2.1793 C   0  0  0  0  0  0  0  0  0  0  0  0
    1.7223    2.3717    2.2510 N   0  0  0  0  0  0  0  0  0  0  0  0
    0.6341    2.9581    1.7541 C   0  0  0  0  0  0  0  0  0  0  0  0
   -0.4025    2.3347    1.1877 N   0  0  0  0  0  0  0  0  0  0  0  0
   -0.3454    0.9854    1.0995 C   0  0  0  0  0  0  0  0  0  0  0  0
   -1.4447    0.3627    0.4721 N   0  0  0  0  0  0  0  0  0  0  0  0
   -1.5197    0.7599   -0.9578 C   0  0  0  0  0  0  0  0  0  0  0  0
   -2.8770    0.3642   -1.5801 C   0  0  0  0  0  0  0  0  0  0  0  0
   -4.0024    1.0180   -0.8764 N   0  0  0  0  0  0  0  0  0  0  0  0
   -5.1481    1.3789   -1.5705 C   0  0  0  0  0  0  0  0  0  0  0  0
   -5.9794    2.4312   -1.1572 C   0  0  0  0  0  0  0  0  0  0  0  0
   -7.1437    2.7760   -1.8549 C   0  0  0  0  0  0  0  0  0  0  0  0
   -7.5105    2.0738   -2.9953 C   0  0  0  0  0  0  0  0  0  0  0  0
   -6.7144    1.0244   -3.4298 C   0  0  0  0  0  0  0  0  0  0  0  0
   -5.5550    0.6836   -2.7223 C   0  0  0  0  0  0  0  0  0  0  0  0
   -3.6993    1.5507    0.4648 C   0  0  0  0  0  0  0  0  0  0  0  0
   -2.7075    0.6344    1.2174 C   0  0  0  0  0  0  0  0  0  0  0  0
    0.7451    0.2499    1.5949 C   0  0  0  0  0  0  0  0  0  0  0  0
    0.9228   -1.1839    1.5600 N   0  0  0  0  0  0  0  0  0  0  0  0
   -0.1447   -2.1018    1.1857 C   0  0  0  0  0  0  0  0  0  0  0  0
   -0.1374   -2.5694   -0.2599 C   0  0  0  0  0  0  0  0  0  0  0  0
    0.7667   -2.0957   -1.2231 C   0  0  0  0  0  0  0  0  0  0  0  0
    0.7515   -2.5985   -2.5281 C   0  0  0  0  0  0  0  0  0  0  0  0
   -0.1650   -3.5855   -2.8808 C   0  0  0  0  0  0  0  0  0  0  0  0
   -0.1619   -4.2829   -4.6391 Br  0  0  0  0  0  0  0  0  0  0  0  0
   -1.0769   -4.0649   -1.9465 C   0  0  0  0  0  0  0  0  0  0  0  0
   -1.0640   -3.5563   -0.6444 C   0  0  0  0  0  0  0  0  0  0  0  0
    3.9467   -1.2994    2.9498 H   0  0  0  0  0  0  0  0  0  0  0  0
    3.5763    0.1034    0.2253 H   0  0  0  0  0  0  0  0  0  0  0  0
    4.1645   -1.5291    0.3358 H   0  0  0  0  0  0  0  0  0  0  0  0
    4.9750    2.0177    0.9536 H   0  0  0  0  0  0  0  0  0  0  0  0
    7.2632    2.8266    1.3935 H   0  0  0  0  0  0  0  0  0  0  0  0
    9.0983    1.2183    1.8260 H   0  0  0  0  0  0  0  0  0  0  0  0
    8.6401   -1.2132    1.8271 H   0  0  0  0  0  0  0  0  0  0  0  0
    6.3571   -2.0515    1.3889 H   0  0  0  0  0  0  0  0  0  0  0  0
    3.5621    1.1476    3.0009 H   0  0  0  0  0  0  0  0  0  0  0  0
    0.5830    4.0400    1.8169 H   0  0  0  0  0  0  0  0  0  0  0  0
   -1.3871    1.8437   -1.0861 H   0  0  0  0  0  0  0  0  0  0  0  0
   -0.7165    0.2705   -1.5178 H   0  0  0  0  0  0  0  0  0  0  0  0
   -3.0102   -0.7240   -1.5290 H   0  0  0  0  0  0  0  0  0  0  0  0
   -2.8481    0.6585   -2.6361 H   0  0  0  0  0  0  0  0  0  0  0  0
   -5.7306    3.0269   -0.2850 H   0  0  0  0  0  0  0  0  0  0  0  0
   -7.7589    3.5999   -1.5061 H   0  0  0  0  0  0  0  0  0  0  0  0
   -8.4077    2.3515   -3.5421 H   0  0  0  0  0  0  0  0  0  0  0  0
   -6.9923    0.4601   -4.3155 H   0  0  0  0  0  0  0  0  0  0  0  0
   -4.9804   -0.1646   -3.0832 H   0  0  0  0  0  0  0  0  0  0  0  0
   -3.2863    2.5623    0.3753 H   0  0  0  0  0  0  0  0  0  0  0  0
   -4.6114    1.6058    1.0709 H   0  0  0  0  0  0  0  0  0  0  0  0
   -2.5218    1.0399    2.2195 H   0  0  0  0  0  0  0  0  0  0  0  0
   -3.1916   -0.3370    1.3739 H   0  0  0  0  0  0  0  0  0  0  0  0
   -1.1202   -1.7143    1.4788 H   0  0  0  0  0  0  0  0  0  0  0  0
   -0.0292   -3.0051    1.8016 H   0  0  0  0  0  0  0  0  0  0  0  0
    1.4956   -1.3292   -0.9751 H   0  0  0  0  0  0  0  0  0  0  0  0
    1.4680   -2.2233   -3.2526 H   0  0  0  0  0  0  0  0  0  0  0  0
   -1.7895   -4.8418   -2.2130 H   0  0  0  0  0  0  0  0  0  0  0  0
   -1.7753   -3.9472    0.0824 H   0  0  0  0  0  0  0  0  0  0  0  0
  1  2  2  0
  2  3  1  0
  3  4  1  0
  4  5  1  0
  5  6  2  0
  6  7  1  0
  7  8  2  0
  8  9  1  0
  9 10  2  0
  3 11  1  0
 11 12  1  0
 12 13  2  0
 13 14  1  0
 14 15  2  0
 15 16  1  0
 16 17  1  0
 17 18  1  0
 18 19  1  0
 19 20  1  0
 20 21  1  0
 21 22  2  0
 22 23  1  0
 23 24  2  0
 24 25  1  0
 25 26  2  0
 20 27  1  0
 27 28  1  0
 16 29  2  0
 29 30  1  0
 30 31  1  0
 31 32  1  0
 32 33  2  0
 33 34  1  0
 34 35  2  0
 35 36  1  0
 35 37  1  0
 37 38  2  0
 30  2  1  0
 38 32  1  0
 10  5  1  0
 29 12  1  0
 28 17  1  0
 26 21  1  0
  3 39  1  0
  4 40  1  0
  4 41  1  0
  6 42  1  0
  7 43  1  0
  8 44  1  0
  9 45  1  0
 10 46  1  0
 11 47  1  0
 14 48  1  0
 18 49  1  0
 18 50  1  0
 19 51  1  0
 19 52  1  0
 22 53  1  0
 23 54  1  0
 24 55  1  0
 25 56  1  0
 26 57  1  0
 27 58  1  0
 27 59  1  0
 28 60  1  0
 28 61  1  0
 31 62  1  0
 31 63  1  0
 33 64  1  0
 34 65  1  0
 37 66  1  0
 38 67  1  0
M  END
$$$$
