
     RDKit          3D

 36 38  0  0  0  0  0  0  0  0999 V2000
   -5.7459    0.4541    0.0497 C   0  0  0  0  0  0  0  0  0  0  0  0
   -4.2711    0.6893   -0.1174 C   0  0  0  0  0  0  0  0  0  0  0  0
   -3.7979    1.9710   -0.4504 C   0  0  0  0  0  0  0  0  0  0  0  0
   -2.4311    2.2143   -0.5820 C   0  0  0  0  0  0  0  0  0  0  0  0
   -1.5508    1.1654   -0.3640 C   0  0  0  0  0  0  0  0  0  0  0  0
   -1.9922   -0.1280   -0.0130 C   0  0  0  0  0  0  0  0  0  0  0  0
   -3.3596   -0.3571    0.1127 C   0  0  0  0  0  0  0  0  0  0  0  0
   -0.9451   -1.0577    0.1796 N   0  0  0  0  0  0  0  0  0  0  0  0
   -1.2800   -2.4622    0.3443 C   0  0  0  0  0  0  0  0  0  0  0  0
    0.3032   -0.4928   -0.0899 C   0  0  0  0  0  0  0  0  0  0  0  0
    1.4931   -1.1219   -0.0500 C   0  0  0  0  0  0  0  0  0  0  0  0
    2.7909   -0.5037   -0.3369 C   0  0  0  0  0  0  0  0  0  0  0  0
    3.3069   -0.5640   -1.6371 C   0  0  0  0  0  0  0  0  0  0  0  0
    4.5264    0.0319   -1.9292 C   0  0  0  0  0  0  0  0  0  0  0  0
    5.2164    0.6854   -0.9209 C   0  0  0  0  0  0  0  0  0  0  0  0
    4.6779    0.7263    0.3590 C   0  0  0  0  0  0  0  0  0  0  0  0
    3.4936    0.1321    0.6412 N   0  0  0  0  0  4  0  0  0  0  0  0
    2.9727    0.2143    2.0213 C   0  0  0  0  0  0  0  0  0  0  0  0
    0.2289    1.2494   -0.4969 S   0  0  0  0  0  0  0  0  0  0  0  0
   -6.0091   -0.5752   -0.2154 H   0  0  0  0  0  0  0  0  0  0  0  0
   -6.0380    0.6390    1.0879 H   0  0  0  0  0  0  0  0  0  0  0  0
   -6.3237    1.1153   -0.6046 H   0  0  0  0  0  0  0  0  0  0  0  0
   -4.5007    2.7868   -0.6132 H   0  0  0  0  0  0  0  0  0  0  0  0
   -2.0734    3.2029   -0.8508 H   0  0  0  0  0  0  0  0  0  0  0  0
   -3.7419   -1.3349    0.3878 H   0  0  0  0  0  0  0  0  0  0  0  0
   -1.7212   -2.8652   -0.5740 H   0  0  0  0  0  0  0  0  0  0  0  0
   -1.9834   -2.6067    1.1718 H   0  0  0  0  0  0  0  0  0  0  0  0
   -0.4022   -3.0696    0.5837 H   0  0  0  0  0  0  0  0  0  0  0  0
    1.5515   -2.1778    0.1921 H   0  0  0  0  0  0  0  0  0  0  0  0
    2.7517   -1.0644   -2.4293 H   0  0  0  0  0  0  0  0  0  0  0  0
    4.9293   -0.0056   -2.9403 H   0  0  0  0  0  0  0  0  0  0  0  0
    6.1691    1.1670   -1.1319 H   0  0  0  0  0  0  0  0  0  0  0  0
    5.1929    1.2388    1.1672 H   0  0  0  0  0  0  0  0  0  0  0  0
    3.7621    0.5607    2.6937 H   0  0  0  0  0  0  0  0  0  0  0  0
    2.1437    0.9249    2.0317 H   0  0  0  0  0  0  0  0  0  0  0  0
    2.6570   -0.7822    2.3403 H   0  0  0  0  0  0  0  0  0  0  0  0
  1  2  1  0
  2  3  2  0
  3  4  1  0
  4  5  2  0
  5  6  1  0
  6  7  2  0
  6  8  1  0
  8  9  1  0
  8 10  1  0
 10 11  2  3
 11 12  1  0
 12 13  2  0
 13 14  1  0
 14 15  2  0
 15 16  1  0
 16 17  2  0
 17 18  1  0
 10 19  1  0
  7  2  1  0
 17 12  1  0
 19  5  1  0
  1 20  1  0
  1 21  1  0
  1 22  1  0
  3 23  1  0
  4 24  1  0
  7 25  1  0
  9 26  1  0
  9 27  1  0
  9 28  1  0
 11 29  1  0
 13 30  1  0
 14 31  1  0
 15 32  1  0
 16 33  1  0
 18 34  1  0
 18 35  1  0
 18 36  1  0
M  CHG  1  17   1
M  END
$$$$
