
     RDKit          3D

 36 37  0  0  0  0  0  0  0  0999 V2000
   -1.1083    0.7008   -0.6646 O   0  0  0  0  0  0  0  0  0  0  0  0
   -1.0712   -0.5144   -0.7837 C   0  0  0  0  0  0  0  0  0  0  0  0
   -2.2237   -1.3366   -1.2417 C   0  0  0  0  0  0  0  0  0  0  0  0
   -3.5061   -0.9423   -1.2974 C   0  0  0  0  0  0  0  0  0  0  0  0
   -4.0649    0.3531   -0.8814 C   0  0  0  0  0  0  0  0  0  0  0  0
   -4.0221    0.7169    0.4734 C   0  0  0  0  0  0  0  0  0  0  0  0
   -4.5729    1.9261    0.9059 C   0  0  0  0  0  0  0  0  0  0  0  0
   -5.1813    2.7833   -0.0079 C   0  0  0  0  0  0  0  0  0  0  0  0
   -5.2407    2.4318   -1.3561 C   0  0  0  0  0  0  0  0  0  0  0  0
   -4.6890    1.2224   -1.7921 C   0  0  0  0  0  0  0  0  0  0  0  0
   -4.8112    0.8454   -3.4777 Cl  0  0  0  0  0  0  0  0  0  0  0  0
    0.0373   -1.2823   -0.5048 N   0  0  0  0  0  0  0  0  0  0  0  0
    1.2184   -0.6896    0.0997 C   0  0  0  0  0  0  0  0  0  0  0  0
    2.4724   -1.5125   -0.1928 C   0  0  0  0  0  0  0  0  0  0  0  0
    3.6965   -0.9336    0.4693 C   0  0  0  0  0  0  0  0  0  0  0  0
    4.4106    0.1039   -0.1454 C   0  0  0  0  0  0  0  0  0  0  0  0
    5.5337    0.6533    0.4747 C   0  0  0  0  0  0  0  0  0  0  0  0
    5.9510    0.1741    1.7148 C   0  0  0  0  0  0  0  0  0  0  0  0
    5.2448   -0.8536    2.3371 C   0  0  0  0  0  0  0  0  0  0  0  0
    4.1209   -1.4044    1.7190 C   0  0  0  0  0  0  0  0  0  0  0  0
   -1.9808   -2.3313   -1.5997 H   0  0  0  0  0  0  0  0  0  0  0  0
   -4.2442   -1.6311   -1.7044 H   0  0  0  0  0  0  0  0  0  0  0  0
   -3.5447    0.0661    1.2024 H   0  0  0  0  0  0  0  0  0  0  0  0
   -4.5176    2.2004    1.9564 H   0  0  0  0  0  0  0  0  0  0  0  0
   -5.6038    3.7267    0.3281 H   0  0  0  0  0  0  0  0  0  0  0  0
   -5.7150    3.1057   -2.0647 H   0  0  0  0  0  0  0  0  0  0  0  0
   -0.0711   -2.2851   -0.4440 H   0  0  0  0  0  0  0  0  0  0  0  0
    1.0318   -0.6334    1.1786 H   0  0  0  0  0  0  0  0  0  0  0  0
    1.3356    0.3376   -0.2649 H   0  0  0  0  0  0  0  0  0  0  0  0
    2.6377   -1.5748   -1.2763 H   0  0  0  0  0  0  0  0  0  0  0  0
    2.3286   -2.5487    0.1400 H   0  0  0  0  0  0  0  0  0  0  0  0
    4.0945    0.4928   -1.1112 H   0  0  0  0  0  0  0  0  0  0  0  0
    6.0814    1.4577   -0.0095 H   0  0  0  0  0  0  0  0  0  0  0  0
    6.8250    0.6036    2.1973 H   0  0  0  0  0  0  0  0  0  0  0  0
    5.5688   -1.2250    3.3057 H   0  0  0  0  0  0  0  0  0  0  0  0
    3.5797   -2.2030    2.2209 H   0  0  0  0  0  0  0  0  0  0  0  0
  1  2  2  0
  2  3  1  0
  3  4  2  3
  4  5  1  0
  5  6  2  0
  6  7  1  0
  7  8  2  0
  8  9  1  0
  9 10  2  0
 10 11  1  0
  2 12  1  0
 12 13  1  0
 13 14  1  0
 14 15  1  0
 15 16  2  0
 16 17  1  0
 17 18  2  0
 18 19  1  0
 19 20  2  0
 10  5  1  0
 20 15  1  0
  3 21  1  0
  4 22  1  0
  6 23  1  0
  7 24  1  0
  8 25  1  0
  9 26  1  0
 12 27  1  0
 13 28  1  0
 13 29  1  0
 14 30  1  0
 14 31  1  0
 16 32  1  0
 17 33  1  0
 18 34  1  0
 19 35  1  0
 20 36  1  0
M  END
$$$$
