
     RDKit          3D

 43 45  0  0  0  0  0  0  0  0999 V2000
    6.2370    0.5519   -2.8598 C   0  0  0  0  0  0  0  0  0  0  0  0
    6.0753    0.0055   -1.5565 O   0  0  0  0  0  0  0  0  0  0  0  0
    4.8301    0.0926   -0.9968 C   0  0  0  0  0  0  0  0  0  0  0  0
    3.7051    0.6599   -1.5890 C   0  0  0  0  0  0  0  0  0  0  0  0
    2.4841    0.6838   -0.9042 C   0  0  0  0  0  0  0  0  0  0  0  0
    2.3684    0.1486    0.3845 C   0  0  0  0  0  0  0  0  0  0  0  0
    1.1458    0.0909    1.1016 N   0  0  0  0  0  0  0  0  0  0  0  0
   -0.0919    0.5261    0.7287 C   0  0  0  0  0  0  0  0  0  0  0  0
   -0.8201    1.1954    1.5713 N   0  0  0  0  0  0  0  0  0  0  0  0
   -2.0577    1.5553    1.0807 C   0  0  0  0  0  0  0  0  0  0  0  0
   -2.8036    2.3195    1.6843 O   0  0  0  0  0  0  0  0  0  0  0  0
   -2.5491    1.0313   -0.2691 C   0  0  0  0  0  0  0  0  0  0  0  0
   -3.9718    1.3203   -0.6644 C   0  0  0  0  0  0  0  0  0  0  0  0
   -4.9341    0.3094   -0.0925 C   0  0  0  0  0  0  0  0  0  0  0  0
   -5.1207   -0.9281   -0.7244 C   0  0  0  0  0  0  0  0  0  0  0  0
   -5.9936   -1.8734   -0.1841 C   0  0  0  0  0  0  0  0  0  0  0  0
   -6.6827   -1.5939    0.9944 C   0  0  0  0  0  0  0  0  0  0  0  0
   -6.4977   -0.3703    1.6350 C   0  0  0  0  0  0  0  0  0  0  0  0
   -5.6259    0.5770    1.0962 C   0  0  0  0  0  0  0  0  0  0  0  0
   -1.7616    0.3331   -1.0400 N   0  0  0  0  0  0  0  0  0  0  0  0
   -0.5118    0.1430   -0.5253 N   0  0  0  0  0  0  0  0  0  0  0  0
    3.5154   -0.4256    0.9801 C   0  0  0  0  0  0  0  0  0  0  0  0
    3.3261   -0.9193    2.2507 O   0  0  0  0  0  0  0  0  0  0  0  0
    4.4361   -1.5569    2.8712 C   0  0  0  0  0  0  0  0  0  0  0  0
    4.7308   -0.4471    0.2885 C   0  0  0  0  0  0  0  0  0  0  0  0
    6.0387    1.6288   -2.8636 H   0  0  0  0  0  0  0  0  0  0  0  0
    7.2798    0.4044   -3.1570 H   0  0  0  0  0  0  0  0  0  0  0  0
    5.6063    0.0303   -3.5872 H   0  0  0  0  0  0  0  0  0  0  0  0
    3.7398    1.0992   -2.5808 H   0  0  0  0  0  0  0  0  0  0  0  0
    1.6406    1.1632   -1.3933 H   0  0  0  0  0  0  0  0  0  0  0  0
    1.3328    0.2022    2.0968 H   0  0  0  0  0  0  0  0  0  0  0  0
   -4.0430    1.3074   -1.7594 H   0  0  0  0  0  0  0  0  0  0  0  0
   -4.2485    2.3363   -0.3617 H   0  0  0  0  0  0  0  0  0  0  0  0
   -4.5831   -1.1643   -1.6407 H   0  0  0  0  0  0  0  0  0  0  0  0
   -6.1334   -2.8297   -0.6812 H   0  0  0  0  0  0  0  0  0  0  0  0
   -7.3609   -2.3309    1.4161 H   0  0  0  0  0  0  0  0  0  0  0  0
   -7.0294   -0.1534    2.5579 H   0  0  0  0  0  0  0  0  0  0  0  0
   -5.4863    1.5240    1.6156 H   0  0  0  0  0  0  0  0  0  0  0  0
    0.0548   -0.5793   -0.9678 H   0  0  0  0  0  0  0  0  0  0  0  0
    4.7676   -2.4258    2.2930 H   0  0  0  0  0  0  0  0  0  0  0  0
    4.1090   -1.9156    3.8519 H   0  0  0  0  0  0  0  0  0  0  0  0
    5.2563   -0.8499    3.0327 H   0  0  0  0  0  0  0  0  0  0  0  0
    5.6270   -0.8762    0.7246 H   0  0  0  0  0  0  0  0  0  0  0  0
  1  2  1  0
  2  3  1  0
  3  4  2  0
  4  5  1  0
  5  6  2  0
  6  7  1  0
  7  8  1  0
  8  9  2  0
  9 10  1  0
 10 11  2  0
 10 12  1  0
 12 13  1  0
 13 14  1  0
 14 15  2  0
 15 16  1  0
 16 17  2  0
 17 18  1  0
 18 19  2  0
 12 20  2  0
 20 21  1  0
  6 22  1  0
 22 23  1  0
 23 24  1  0
 22 25  2  0
 25  3  1  0
 21  8  1  0
 19 14  1  0
  1 26  1  0
  1 27  1  0
  1 28  1  0
  4 29  1  0
  5 30  1  0
  7 31  1  0
 13 32  1  0
 13 33  1  0
 15 34  1  0
 16 35  1  0
 17 36  1  0
 18 37  1  0
 19 38  1  0
 21 39  1  0
 24 40  1  0
 24 41  1  0
 24 42  1  0
 25 43  1  0
M  END
$$$$
