
     RDKit          3D

 39 41  0  0  0  0  0  0  0  0999 V2000
   -4.7313    1.3576   -2.3434 C   0  0  0  0  0  0  0  0  0  0  0  0
   -4.2025    1.0928   -0.9637 C   0  0  0  0  0  0  0  0  0  0  0  0
   -5.0456    1.2071    0.1453 C   0  0  0  0  0  0  0  0  0  0  0  0
   -4.5885    0.9384    1.4394 C   0  0  0  0  0  0  0  0  0  0  0  0
   -3.2567    0.5372    1.5881 C   0  0  0  0  0  0  0  0  0  0  0  0
   -2.5550    0.2122    2.7238 N   0  0  0  0  0  0  0  0  0  0  0  0
   -1.2641   -0.1542    2.4165 C   0  0  0  0  0  0  0  0  0  0  0  0
   -0.3385   -0.6004    3.4905 C   0  0  0  0  0  0  0  0  0  0  0  0
   -1.1240   -0.0274    1.0443 C   0  0  0  0  0  0  0  0  0  0  0  0
    0.0447   -0.2999    0.2648 C   0  0  0  0  0  0  0  0  0  0  0  0
    1.3130   -0.0647    0.6406 C   0  0  0  0  0  0  0  0  0  0  0  0
    2.4798   -0.3425   -0.2032 C   0  0  0  0  0  0  0  0  0  0  0  0
    3.6251   -0.8838    0.3773 C   0  0  0  0  0  0  0  0  0  0  0  0
    4.7467   -1.1284   -0.4073 C   0  0  0  0  0  0  0  0  0  0  0  0
    4.7398   -0.8387   -1.7275 N   0  0  0  0  0  4  0  0  0  0  0  0
    5.9432   -1.0962   -2.5365 C   0  0  0  0  0  0  0  0  0  0  0  0
    3.6496   -0.2894   -2.3075 C   0  0  0  0  0  0  0  0  0  0  0  0
    2.5053   -0.0303   -1.5617 C   0  0  0  0  0  0  0  0  0  0  0  0
   -2.3852    0.3934    0.5114 C   0  0  0  0  0  0  0  0  0  0  0  0
   -2.8727    0.6738   -0.7852 C   0  0  0  0  0  0  0  0  0  0  0  0
   -3.9368    1.7223   -3.0029 H   0  0  0  0  0  0  0  0  0  0  0  0
   -5.1485    0.4386   -2.7665 H   0  0  0  0  0  0  0  0  0  0  0  0
   -5.5123    2.1249   -2.3220 H   0  0  0  0  0  0  0  0  0  0  0  0
   -6.0821    1.5127    0.0112 H   0  0  0  0  0  0  0  0  0  0  0  0
   -5.2523    1.0366    2.2925 H   0  0  0  0  0  0  0  0  0  0  0  0
   -2.9515    0.2209    3.6536 H   0  0  0  0  0  0  0  0  0  0  0  0
    0.3237    0.2189    3.7868 H   0  0  0  0  0  0  0  0  0  0  0  0
   -0.8875   -0.9294    4.3792 H   0  0  0  0  0  0  0  0  0  0  0  0
    0.2745   -1.4424    3.1542 H   0  0  0  0  0  0  0  0  0  0  0  0
   -0.1502   -0.7095   -0.7241 H   0  0  0  0  0  0  0  0  0  0  0  0
    1.5222    0.3583    1.6202 H   0  0  0  0  0  0  0  0  0  0  0  0
    3.6490   -1.1260    1.4385 H   0  0  0  0  0  0  0  0  0  0  0  0
    5.6544   -1.5527    0.0127 H   0  0  0  0  0  0  0  0  0  0  0  0
    5.6430   -1.3219   -3.5630 H   0  0  0  0  0  0  0  0  0  0  0  0
    6.5609   -0.1955   -2.4999 H   0  0  0  0  0  0  0  0  0  0  0  0
    6.4785   -1.9533   -2.1200 H   0  0  0  0  0  0  0  0  0  0  0  0
    3.7043   -0.0547   -3.3669 H   0  0  0  0  0  0  0  0  0  0  0  0
    1.6447    0.4273   -2.0461 H   0  0  0  0  0  0  0  0  0  0  0  0
   -2.2173    0.5685   -1.6440 H   0  0  0  0  0  0  0  0  0  0  0  0
  1  2  1  0
  2  3  2  0
  3  4  1  0
  4  5  2  0
  5  6  1  0
  6  7  1  0
  7  8  1  0
  7  9  2  0
  9 10  1  0
 10 11  2  3
 11 12  1  0
 12 13  2  0
 13 14  1  0
 14 15  2  0
 15 16  1  0
 15 17  1  0
 17 18  2  0
  9 19  1  0
 19 20  2  0
 20  2  1  0
 19  5  1  0
 18 12  1  0
  1 21  1  0
  1 22  1  0
  1 23  1  0
  3 24  1  0
  4 25  1  0
  6 26  1  0
  8 27  1  0
  8 28  1  0
  8 29  1  0
 10 30  1  0
 11 31  1  0
 13 32  1  0
 14 33  1  0
 16 34  1  0
 16 35  1  0
 16 36  1  0
 17 37  1  0
 18 38  1  0
 20 39  1  0
M  CHG  1  15   1
M  END
$$$$
