
     RDKit          3D

 32 34  0  0  0  0  0  0  0  0999 V2000
   -0.7077    2.8487    1.0166 O   0  0  0  0  0  0  0  0  0  0  0  0
   -0.9705    1.6814    1.2846 C   0  0  0  0  0  0  0  0  0  0  0  0
   -2.3380    1.2997    1.8562 C   0  0  0  0  0  0  0  0  0  0  0  0
   -2.7465   -0.0236    1.5301 O   0  0  0  0  0  0  0  0  0  0  0  0
   -3.2640   -0.2551    0.2836 C   0  0  0  0  0  0  0  0  0  0  0  0
   -3.3834    0.6834   -0.7435 C   0  0  0  0  0  0  0  0  0  0  0  0
   -3.9236    0.3052   -1.9795 C   0  0  0  0  0  0  0  0  0  0  0  0
   -4.3424   -1.0086   -2.1901 C   0  0  0  0  0  0  0  0  0  0  0  0
   -5.0682   -1.5063   -3.8620 Br  0  0  0  0  0  0  0  0  0  0  0  0
   -4.2249   -1.9544   -1.1789 C   0  0  0  0  0  0  0  0  0  0  0  0
   -3.6862   -1.5694    0.0447 C   0  0  0  0  0  0  0  0  0  0  0  0
   -3.5631   -2.4944    1.0092 F   0  0  0  0  0  0  0  0  0  0  0  0
   -0.1372    0.5926    1.1582 N   0  0  0  0  0  0  0  0  0  0  0  0
    1.1278    0.6934    0.6556 C   0  0  0  0  0  0  0  0  0  0  0  0
    1.8032    1.7432    0.2572 N   0  0  0  0  0  0  0  0  0  0  0  0
    3.0674    1.3972   -0.1908 N   0  0  0  0  0  0  0  0  0  0  0  0
    3.2754    0.1030   -0.0966 C   0  0  0  0  0  0  0  0  0  0  0  0
    4.6160   -0.5582   -0.5409 C   0  0  0  0  0  0  0  0  0  0  0  0
    5.9168    0.1295   -0.2121 C   0  0  0  0  0  0  0  0  0  0  0  0
    5.5389   -1.1346    0.5029 C   0  0  0  0  0  0  0  0  0  0  0  0
    1.9567   -0.7949    0.5231 S   0  0  0  0  0  0  0  0  0  0  0  0
   -3.0960    2.0384    1.5721 H   0  0  0  0  0  0  0  0  0  0  0  0
   -2.2461    1.3477    2.9474 H   0  0  0  0  0  0  0  0  0  0  0  0
   -3.0663    1.7164   -0.6312 H   0  0  0  0  0  0  0  0  0  0  0  0
   -4.0104    1.0463   -2.7718 H   0  0  0  0  0  0  0  0  0  0  0  0
   -4.5408   -2.9825   -1.3219 H   0  0  0  0  0  0  0  0  0  0  0  0
   -0.4869   -0.3309    1.3777 H   0  0  0  0  0  0  0  0  0  0  0  0
    4.5600   -1.0645   -1.4986 H   0  0  0  0  0  0  0  0  0  0  0  0
    6.7111    0.0849   -0.9482 H   0  0  0  0  0  0  0  0  0  0  0  0
    5.8826    1.0613    0.3426 H   0  0  0  0  0  0  0  0  0  0  0  0
    5.2649   -1.0554    1.5489 H   0  0  0  0  0  0  0  0  0  0  0  0
    6.0815   -2.0395    0.2547 H   0  0  0  0  0  0  0  0  0  0  0  0
  1  2  2  0
  2  3  1  0
  3  4  1  0
  4  5  1  0
  5  6  2  0
  6  7  1  0
  7  8  2  0
  8  9  1  0
  8 10  1  0
 10 11  2  0
 11 12  1  0
  2 13  1  0
 13 14  1  0
 14 15  2  0
 15 16  1  0
 16 17  2  0
 17 18  1  0
 18 19  1  0
 19 20  1  0
 17 21  1  0
 11  5  1  0
 21 14  1  0
 20 18  1  0
  3 22  1  0
  3 23  1  0
  6 24  1  0
  7 25  1  0
 10 26  1  0
 13 27  1  0
 18 28  1  0
 19 29  1  0
 19 30  1  0
 20 31  1  0
 20 32  1  0
M  END
$$$$
