
     RDKit          3D

 19 19  0  0  0  0  0  0  0  0999 V2000
   -2.9532    0.3456   -1.6835 C   0  0  0  0  0  0  0  0  0  0  0  0
   -2.0861    0.2670   -0.4352 C   0  0  0  0  0  0  0  0  0  0  0  0
   -1.5574   -1.1503   -0.2232 C   0  0  0  0  0  0  0  0  0  0  0  0
   -0.5518   -1.2702    1.2873 S   0  0  0  0  0  0  0  0  0  0  0  0
    0.9703   -0.5912    0.7556 C   0  0  0  0  0  0  0  0  0  0  0  0
    1.2113   -0.2494   -0.4905 N   0  0  0  0  0  0  0  0  0  0  0  0
    2.4865    0.2582   -0.6493 N   0  0  0  0  0  0  0  0  0  0  0  0
    3.1616    0.2777    0.4778 C   0  0  0  0  0  0  0  0  0  0  0  0
    4.4244    0.7298    0.6039 N   0  0  0  0  0  0  0  0  0  0  0  0
    2.2793   -0.3162    1.8265 S   0  0  0  0  0  0  0  0  0  0  0  0
   -3.8145   -0.3255   -1.6061 H   0  0  0  0  0  0  0  0  0  0  0  0
   -3.3281    1.3648   -1.8207 H   0  0  0  0  0  0  0  0  0  0  0  0
   -2.3814    0.0709   -2.5757 H   0  0  0  0  0  0  0  0  0  0  0  0
   -1.2612    0.9810   -0.5386 H   0  0  0  0  0  0  0  0  0  0  0  0
   -2.6841    0.5818    0.4286 H   0  0  0  0  0  0  0  0  0  0  0  0
   -0.9875   -1.4996   -1.0907 H   0  0  0  0  0  0  0  0  0  0  0  0
   -2.4018   -1.8380   -0.1019 H   0  0  0  0  0  0  0  0  0  0  0  0
    4.7552    1.3130   -0.1579 H   0  0  0  0  0  0  0  0  0  0  0  0
    4.7185    1.0503    1.5189 H   0  0  0  0  0  0  0  0  0  0  0  0
  1  2  1  0
  2  3  1  0
  3  4  1  0
  4  5  1  0
  5  6  2  0
  6  7  1  0
  7  8  2  0
  8  9  1  0
  8 10  1  0
 10  5  1  0
  1 11  1  0
  1 12  1  0
  1 13  1  0
  2 14  1  0
  2 15  1  0
  3 16  1  0
  3 17  1  0
  9 18  1  0
  9 19  1  0
M  END
$$$$
