
     RDKit          3D

 57 60  0  0  0  0  0  0  0  0999 V2000
   -6.0438   -0.8326   -0.1482 C   0  0  0  0  0  0  0  0  0  0  0  0
   -5.0705   -1.9076    0.3303 C   0  0  0  0  0  0  0  0  0  0  0  0
   -5.7563   -3.2766    0.2879 C   0  0  0  0  0  0  0  0  0  0  0  0
   -3.8098   -1.9075   -0.5411 C   0  0  0  0  0  0  0  0  0  0  0  0
   -3.6288   -2.7891   -1.3849 O   0  0  0  0  0  0  0  0  0  0  0  0
   -2.9026   -0.8691   -0.3917 N   0  0  0  0  0  0  0  0  0  0  0  0
   -2.9043    0.1325    0.6845 C   0  0  0  0  0  0  0  0  0  0  0  0
   -1.4923    0.6330    1.0423 C   0  0  0  0  0  0  0  0  0  0  0  0
   -0.7271    1.1181   -0.1330 N   0  0  0  0  0  0  0  0  0  0  0  0
   -0.5103    2.5209   -0.1403 C   0  0  0  0  0  0  0  0  0  0  0  0
   -1.5625    3.4480   -0.1514 C   0  0  0  0  0  0  0  0  0  0  0  0
   -1.2991    4.8186   -0.1582 C   0  0  0  0  0  0  0  0  0  0  0  0
    0.0170    5.2767   -0.1534 C   0  0  0  0  0  0  0  0  0  0  0  0
    1.0786    4.3695   -0.1443 C   0  0  0  0  0  0  0  0  0  0  0  0
    0.8237    2.9983   -0.1411 C   0  0  0  0  0  0  0  0  0  0  0  0
    1.8249    2.0053   -0.1285 N   0  0  0  0  0  0  0  0  0  0  0  0
    3.1920    2.1640   -0.1517 C   0  0  0  0  0  0  0  0  0  0  0  0
    3.8027    3.2233   -0.2260 O   0  0  0  0  0  0  0  0  0  0  0  0
    3.9771    0.8957   -0.1075 C   0  0  0  0  0  0  0  0  0  0  0  0
    5.2291    0.8657   -0.7400 C   0  0  0  0  0  0  0  0  0  0  0  0
    6.0052   -0.2959   -0.7155 C   0  0  0  0  0  0  0  0  0  0  0  0
    5.5364   -1.4272   -0.0506 C   0  0  0  0  0  0  0  0  0  0  0  0
    4.2828   -1.4062    0.5705 C   0  0  0  0  0  0  0  0  0  0  0  0
    3.5112   -0.2437    0.5631 C   0  0  0  0  0  0  0  0  0  0  0  0
    3.7502   -2.4914    1.2206 O   0  0  0  0  0  0  0  0  0  0  0  0
    4.4473   -3.6964    0.8796 C   0  0  0  0  0  0  0  0  0  0  0  0
    5.9498   -3.4808    0.9384 C   0  0  0  0  0  0  0  0  0  0  0  0
    6.3596   -2.5243   -0.0457 O   0  0  0  0  0  0  0  0  0  0  0  0
   -1.2032    0.6239   -1.4486 C   0  0  0  0  0  0  0  0  0  0  0  0
   -1.7720   -0.7987   -1.3288 C   0  0  0  0  0  0  0  0  0  0  0  0
   -6.3042   -0.9818   -1.2009 H   0  0  0  0  0  0  0  0  0  0  0  0
   -5.6211    0.1700   -0.0592 H   0  0  0  0  0  0  0  0  0  0  0  0
   -6.9691   -0.8539    0.4372 H   0  0  0  0  0  0  0  0  0  0  0  0
   -4.7956   -1.7276    1.3726 H   0  0  0  0  0  0  0  0  0  0  0  0
   -5.0699   -4.0637    0.6169 H   0  0  0  0  0  0  0  0  0  0  0  0
   -6.0915   -3.5296   -0.7236 H   0  0  0  0  0  0  0  0  0  0  0  0
   -6.6299   -3.2952    0.9477 H   0  0  0  0  0  0  0  0  0  0  0  0
   -3.3729   -0.2732    1.5833 H   0  0  0  0  0  0  0  0  0  0  0  0
   -3.5183    0.9693    0.3359 H   0  0  0  0  0  0  0  0  0  0  0  0
   -1.5513    1.3871    1.8381 H   0  0  0  0  0  0  0  0  0  0  0  0
   -0.9239   -0.2068    1.4617 H   0  0  0  0  0  0  0  0  0  0  0  0
   -2.5950    3.1151   -0.1639 H   0  0  0  0  0  0  0  0  0  0  0  0
   -2.1207    5.5309   -0.1700 H   0  0  0  0  0  0  0  0  0  0  0  0
    0.2231    6.3443   -0.1583 H   0  0  0  0  0  0  0  0  0  0  0  0
    2.0914    4.7586   -0.1393 H   0  0  0  0  0  0  0  0  0  0  0  0
    1.4219    1.0732   -0.1455 H   0  0  0  0  0  0  0  0  0  0  0  0
    5.6042    1.7523   -1.2510 H   0  0  0  0  0  0  0  0  0  0  0  0
    6.9768   -0.3117   -1.2022 H   0  0  0  0  0  0  0  0  0  0  0  0
    2.5658   -0.2407    1.0969 H   0  0  0  0  0  0  0  0  0  0  0  0
    4.1265   -4.0115   -0.1212 H   0  0  0  0  0  0  0  0  0  0  0  0
    4.1468   -4.4682    1.5937 H   0  0  0  0  0  0  0  0  0  0  0  0
    6.4763   -4.4177    0.7297 H   0  0  0  0  0  0  0  0  0  0  0  0
    6.2665   -3.1228    1.9250 H   0  0  0  0  0  0  0  0  0  0  0  0
   -0.3648    0.6214   -2.1553 H   0  0  0  0  0  0  0  0  0  0  0  0
   -1.9856    1.2773   -1.8565 H   0  0  0  0  0  0  0  0  0  0  0  0
   -1.0038   -1.4873   -0.9553 H   0  0  0  0  0  0  0  0  0  0  0  0
   -2.0866   -1.1539   -2.3165 H   0  0  0  0  0  0  0  0  0  0  0  0
  1  2  1  0
  2  3  1  0
  2  4  1  0
  4  5  2  0
  4  6  1  0
  6  7  1  0
  7  8  1  0
  8  9  1  0
  9 10  1  0
 10 11  2  0
 11 12  1  0
 12 13  2  0
 13 14  1  0
 14 15  2  0
 15 16  1  0
 16 17  1  0
 17 18  2  0
 17 19  1  0
 19 20  2  0
 20 21  1  0
 21 22  2  0
 22 23  1  0
 23 24  2  0
 23 25  1  0
 25 26  1  0
 26 27  1  0
 27 28  1  0
  9 29  1  0
 29 30  1  0
 30  6  1  0
 15 10  1  0
 24 19  1  0
 28 22  1  0
  1 31  1  0
  1 32  1  0
  1 33  1  0
  2 34  1  0
  3 35  1  0
  3 36  1  0
  3 37  1  0
  7 38  1  0
  7 39  1  0
  8 40  1  0
  8 41  1  0
 11 42  1  0
 12 43  1  0
 13 44  1  0
 14 45  1  0
 16 46  1  0
 20 47  1  0
 21 48  1  0
 24 49  1  0
 26 50  1  0
 26 51  1  0
 27 52  1  0
 27 53  1  0
 29 54  1  0
 29 55  1  0
 30 56  1  0
 30 57  1  0
M  END
$$$$
