
     RDKit          3D

 37 38  0  0  0  0  0  0  0  0999 V2000
   -6.3120   -1.0320    1.3748 C   0  0  0  0  0  0  0  0  0  0  0  0
   -5.0240   -1.1156    0.5937 C   0  0  0  0  0  0  0  0  0  0  0  0
   -4.7373   -2.1274   -0.0359 O   0  0  0  0  0  0  0  0  0  0  0  0
   -4.2607    0.0317    0.7170 N   0  0  0  0  0  0  0  0  0  0  0  0
   -3.0072    0.2953    0.1282 C   0  0  0  0  0  0  0  0  0  0  0  0
   -2.3377   -0.5933   -0.7153 C   0  0  0  0  0  0  0  0  0  0  0  0
   -1.0916   -0.2586   -1.2625 C   0  0  0  0  0  0  0  0  0  0  0  0
   -0.4991    0.9744   -0.9702 C   0  0  0  0  0  0  0  0  0  0  0  0
    0.8243    1.3776   -1.5157 C   0  0  0  0  0  0  0  0  0  0  0  0
    1.3379    2.4639   -1.3071 O   0  0  0  0  0  0  0  0  0  0  0  0
    1.3742    0.3692   -2.2367 O   0  0  0  0  0  0  0  0  0  0  0  0
    2.6611    0.6538   -2.7792 C   0  0  0  0  0  0  0  0  0  0  0  0
    3.8260    0.7930   -1.7977 C   0  0  0  0  0  0  0  0  0  0  0  0
    4.8115    1.4820   -2.0619 O   0  0  0  0  0  0  0  0  0  0  0  0
    3.8024    0.0399   -0.5136 C   0  0  0  0  0  0  0  0  0  0  0  0
    4.4798    0.5854    0.5871 C   0  0  0  0  0  0  0  0  0  0  0  0
    4.4849   -0.0866    1.8105 C   0  0  0  0  0  0  0  0  0  0  0  0
    3.8218   -1.3026    1.9257 C   0  0  0  0  0  0  0  0  0  0  0  0
    3.8257   -1.9481    3.0989 F   0  0  0  0  0  0  0  0  0  0  0  0
    3.1585   -1.8631    0.8388 C   0  0  0  0  0  0  0  0  0  0  0  0
    3.1515   -1.1948   -0.3882 C   0  0  0  0  0  0  0  0  0  0  0  0
   -1.1687    1.8688   -0.1282 C   0  0  0  0  0  0  0  0  0  0  0  0
   -2.4127    1.5304    0.4156 C   0  0  0  0  0  0  0  0  0  0  0  0
   -6.7286   -0.0213    1.3366 H   0  0  0  0  0  0  0  0  0  0  0  0
   -6.1238   -1.3135    2.4141 H   0  0  0  0  0  0  0  0  0  0  0  0
   -7.0455   -1.7168    0.9394 H   0  0  0  0  0  0  0  0  0  0  0  0
   -4.6366    0.7646    1.3057 H   0  0  0  0  0  0  0  0  0  0  0  0
   -2.7579   -1.5611   -0.9728 H   0  0  0  0  0  0  0  0  0  0  0  0
   -0.6041   -0.9769   -1.9168 H   0  0  0  0  0  0  0  0  0  0  0  0
    2.6003    1.5698   -3.3801 H   0  0  0  0  0  0  0  0  0  0  0  0
    2.9131   -0.1622   -3.4656 H   0  0  0  0  0  0  0  0  0  0  0  0
    4.9995    1.5377    0.4932 H   0  0  0  0  0  0  0  0  0  0  0  0
    5.0019    0.3299    2.6694 H   0  0  0  0  0  0  0  0  0  0  0  0
    2.6565   -2.8191    0.9538 H   0  0  0  0  0  0  0  0  0  0  0  0
    2.6462   -1.6576   -1.2314 H   0  0  0  0  0  0  0  0  0  0  0  0
   -0.7254    2.8341    0.1111 H   0  0  0  0  0  0  0  0  0  0  0  0
   -2.9043    2.2490    1.0669 H   0  0  0  0  0  0  0  0  0  0  0  0
  1  2  1  0
  2  3  2  0
  2  4  1  0
  4  5  1  0
  5  6  2  0
  6  7  1  0
  7  8  2  0
  8  9  1  0
  9 10  2  0
  9 11  1  0
 11 12  1  0
 12 13  1  0
 13 14  2  0
 13 15  1  0
 15 16  2  0
 16 17  1  0
 17 18  2  0
 18 19  1  0
 18 20  1  0
 20 21  2  0
  8 22  1  0
 22 23  2  0
 23  5  1  0
 21 15  1  0
  1 24  1  0
  1 25  1  0
  1 26  1  0
  4 27  1  0
  6 28  1  0
  7 29  1  0
 12 30  1  0
 12 31  1  0
 16 32  1  0
 17 33  1  0
 20 34  1  0
 21 35  1  0
 22 36  1  0
 23 37  1  0
M  END
$$$$
