
     RDKit          3D

 39 41  0  0  0  0  0  0  0  0999 V2000
    2.5974   -2.2935   -0.9972 O   0  0  0  0  0  0  0  0  0  0  0  0
    2.8256   -1.0952   -0.9381 C   0  0  0  0  0  0  0  0  0  0  0  0
    2.1898   -0.1237   -1.6342 O   0  0  0  0  0  0  0  0  0  0  0  0
    1.1218   -0.5623   -2.4814 C   0  0  0  0  0  0  0  0  0  0  0  0
   -0.1912   -0.3836   -1.7652 C   0  0  0  0  0  0  0  0  0  0  0  0
   -0.8178    0.8670   -1.7259 C   0  0  0  0  0  0  0  0  0  0  0  0
   -2.0269    1.0335   -1.0426 C   0  0  0  0  0  0  0  0  0  0  0  0
   -2.6362   -0.0397   -0.3733 C   0  0  0  0  0  0  0  0  0  0  0  0
   -3.9075    0.1388    0.3477 C   0  0  0  0  0  0  0  0  0  0  0  0
   -4.0334   -0.2333    1.6967 C   0  0  0  0  0  0  0  0  0  0  0  0
   -5.2395   -0.0637    2.3822 C   0  0  0  0  0  0  0  0  0  0  0  0
   -6.3420    0.4808    1.7289 C   0  0  0  0  0  0  0  0  0  0  0  0
   -6.2394    0.8560    0.3918 C   0  0  0  0  0  0  0  0  0  0  0  0
   -5.0321    0.6866   -0.2917 C   0  0  0  0  0  0  0  0  0  0  0  0
   -1.9918   -1.2863   -0.4076 C   0  0  0  0  0  0  0  0  0  0  0  0
   -0.7837   -1.4570   -1.0909 C   0  0  0  0  0  0  0  0  0  0  0  0
    3.8784   -0.5087   -0.0655 C   0  0  0  0  0  0  0  0  0  0  0  0
    4.6675   -1.3821    0.6981 C   0  0  0  0  0  0  0  0  0  0  0  0
    5.6693   -0.8819    1.5335 C   0  0  0  0  0  0  0  0  0  0  0  0
    5.8893    0.4930    1.6125 C   0  0  0  0  0  0  0  0  0  0  0  0
    5.1033    1.3562    0.8544 C   0  0  0  0  0  0  0  0  0  0  0  0
    5.2861    2.7068    0.9036 O   0  0  0  0  0  0  0  0  0  0  0  0
    4.1021    0.8708    0.0186 C   0  0  0  0  0  0  0  0  0  0  0  0
    1.1385    0.0635   -3.3815 H   0  0  0  0  0  0  0  0  0  0  0  0
    1.2544   -1.5935   -2.8312 H   0  0  0  0  0  0  0  0  0  0  0  0
   -0.3650    1.7234   -2.2205 H   0  0  0  0  0  0  0  0  0  0  0  0
   -2.4859    2.0200   -1.0213 H   0  0  0  0  0  0  0  0  0  0  0  0
   -3.1806   -0.6502    2.2289 H   0  0  0  0  0  0  0  0  0  0  0  0
   -5.3145   -0.3551    3.4265 H   0  0  0  0  0  0  0  0  0  0  0  0
   -7.2803    0.6124    2.2611 H   0  0  0  0  0  0  0  0  0  0  0  0
   -7.0986    1.2783   -0.1225 H   0  0  0  0  0  0  0  0  0  0  0  0
   -4.9766    0.9756   -1.3393 H   0  0  0  0  0  0  0  0  0  0  0  0
   -2.4336   -2.1436    0.0966 H   0  0  0  0  0  0  0  0  0  0  0  0
   -0.3044   -2.4348   -1.0884 H   0  0  0  0  0  0  0  0  0  0  0  0
    4.5032   -2.4571    0.6447 H   0  0  0  0  0  0  0  0  0  0  0  0
    6.2757   -1.5665    2.1217 H   0  0  0  0  0  0  0  0  0  0  0  0
    6.6709    0.8693    2.2654 H   0  0  0  0  0  0  0  0  0  0  0  0
    6.0010    2.9042    1.5311 H   0  0  0  0  0  0  0  0  0  0  0  0
    3.5065    1.5757   -0.5546 H   0  0  0  0  0  0  0  0  0  0  0  0
  1  2  2  0
  2  3  1  0
  3  4  1  0
  4  5  1  0
  5  6  2  0
  6  7  1  0
  7  8  2  0
  8  9  1  0
  9 10  2  0
 10 11  1  0
 11 12  2  0
 12 13  1  0
 13 14  2  0
  8 15  1  0
 15 16  2  0
  2 17  1  0
 17 18  2  0
 18 19  1  0
 19 20  2  0
 20 21  1  0
 21 22  1  0
 21 23  2  0
 16  5  1  0
 23 17  1  0
 14  9  1  0
  4 24  1  0
  4 25  1  0
  6 26  1  0
  7 27  1  0
 10 28  1  0
 11 29  1  0
 12 30  1  0
 13 31  1  0
 14 32  1  0
 15 33  1  0
 16 34  1  0
 18 35  1  0
 19 36  1  0
 20 37  1  0
 22 38  1  0
 23 39  1  0
M  END
$$$$
