
     RDKit          3D

 62 65  0  0  0  0  0  0  0  0999 V2000
   -4.1705   -2.9979   -0.2241 C   0  0  0  0  0  0  0  0  0  0  0  0
   -4.2392   -1.6871   -0.9931 C   0  0  0  0  0  0  0  0  0  0  0  0
   -3.8325   -0.5670   -0.1521 N   0  0  0  0  0  0  0  0  0  0  0  0
   -2.5348   -0.0707    0.0840 C   0  0  0  0  0  0  0  0  0  0  0  0
   -1.4176   -0.5407   -0.5109 C   0  0  0  0  0  0  0  0  0  0  0  0
   -0.0494   -0.0912   -0.3449 C   0  0  0  0  0  0  0  0  0  0  0  0
    0.9738   -0.6608   -0.9981 C   0  0  0  0  0  0  0  0  0  0  0  0
    2.4054   -0.2687   -0.8895 C   0  0  0  0  0  0  0  0  0  0  0  0
    3.3591   -0.8045   -1.6012 N   0  0  0  0  0  4  0  0  0  0  0  0
    3.2935   -1.8190   -2.6752 C   0  0  0  0  0  0  0  0  0  0  0  0
    3.4730   -3.2060   -2.0872 C   0  0  0  0  0  0  0  0  0  0  0  0
    4.6602   -0.2310   -1.2153 C   0  0  0  0  0  0  0  0  0  0  0  0
    5.9229   -0.5355   -1.6955 C   0  0  0  0  0  0  0  0  0  0  0  0
    7.0084    0.1547   -1.1498 C   0  0  0  0  0  0  0  0  0  0  0  0
    6.8124    1.1183   -0.1484 C   0  0  0  0  0  0  0  0  0  0  0  0
    5.5306    1.4060    0.3250 C   0  0  0  0  0  0  0  0  0  0  0  0
    4.4584    0.7165   -0.2220 C   0  0  0  0  0  0  0  0  0  0  0  0
    2.9829    0.8080    0.0871 C   0  0  0  0  0  0  0  0  0  0  0  0
    2.7446    0.4403    1.5550 C   0  0  0  0  0  0  0  0  0  0  0  0
    2.4877    2.2188   -0.2498 C   0  0  0  0  0  0  0  0  0  0  0  0
   -2.6456    1.0850    1.1386 C   0  0  0  0  0  0  0  0  0  0  0  0
   -1.8885    0.7763    2.4393 C   0  0  0  0  0  0  0  0  0  0  0  0
   -2.2523    2.4507    0.5571 C   0  0  0  0  0  0  0  0  0  0  0  0
   -4.1427    1.0823    1.4306 C   0  0  0  0  0  0  0  0  0  0  0  0
   -4.8628    1.8837    2.3104 C   0  0  0  0  0  0  0  0  0  0  0  0
   -6.2379    1.6832    2.4161 C   0  0  0  0  0  0  0  0  0  0  0  0
   -6.8692    0.6947    1.6510 C   0  0  0  0  0  0  0  0  0  0  0  0
   -6.1342   -0.1045    0.7678 C   0  0  0  0  0  0  0  0  0  0  0  0
   -4.7666    0.0926    0.6553 C   0  0  0  0  0  0  0  0  0  0  0  0
   -4.4639   -3.8313   -0.8699 H   0  0  0  0  0  0  0  0  0  0  0  0
   -4.8400   -2.9876    0.6421 H   0  0  0  0  0  0  0  0  0  0  0  0
   -3.1561   -3.1910    0.1399 H   0  0  0  0  0  0  0  0  0  0  0  0
   -5.2482   -1.5415   -1.3957 H   0  0  0  0  0  0  0  0  0  0  0  0
   -3.5948   -1.7525   -1.8774 H   0  0  0  0  0  0  0  0  0  0  0  0
   -1.5426   -1.3627   -1.2127 H   0  0  0  0  0  0  0  0  0  0  0  0
    0.1036    0.7346    0.3322 H   0  0  0  0  0  0  0  0  0  0  0  0
    0.7487   -1.4920   -1.6624 H   0  0  0  0  0  0  0  0  0  0  0  0
    4.0551   -1.5970   -3.4293 H   0  0  0  0  0  0  0  0  0  0  0  0
    2.3249   -1.7340   -3.1772 H   0  0  0  0  0  0  0  0  0  0  0  0
    2.6984   -3.4314   -1.3459 H   0  0  0  0  0  0  0  0  0  0  0  0
    4.4459   -3.3159   -1.5963 H   0  0  0  0  0  0  0  0  0  0  0  0
    3.4101   -3.9600   -2.8783 H   0  0  0  0  0  0  0  0  0  0  0  0
    6.1045   -1.2796   -2.4633 H   0  0  0  0  0  0  0  0  0  0  0  0
    8.0196   -0.0531   -1.4990 H   0  0  0  0  0  0  0  0  0  0  0  0
    7.6723    1.6458    0.2650 H   0  0  0  0  0  0  0  0  0  0  0  0
    5.3940    2.1534    1.1031 H   0  0  0  0  0  0  0  0  0  0  0  0
    1.6914    0.5173    1.8354 H   0  0  0  0  0  0  0  0  0  0  0  0
    3.3029    1.0987    2.2307 H   0  0  0  0  0  0  0  0  0  0  0  0
    3.0588   -0.5895    1.7640 H   0  0  0  0  0  0  0  0  0  0  0  0
    1.4333    2.3608   -0.0027 H   0  0  0  0  0  0  0  0  0  0  0  0
    3.0470    2.9838    0.3014 H   0  0  0  0  0  0  0  0  0  0  0  0
    2.5995    2.4359   -1.3190 H   0  0  0  0  0  0  0  0  0  0  0  0
   -0.8047    0.7789    2.3011 H   0  0  0  0  0  0  0  0  0  0  0  0
   -2.1074    1.5192    3.2155 H   0  0  0  0  0  0  0  0  0  0  0  0
   -2.1672   -0.2051    2.8424 H   0  0  0  0  0  0  0  0  0  0  0  0
   -1.1849    2.5122    0.3291 H   0  0  0  0  0  0  0  0  0  0  0  0
   -2.4737    3.2628    1.2599 H   0  0  0  0  0  0  0  0  0  0  0  0
   -2.7997    2.6656   -0.3689 H   0  0  0  0  0  0  0  0  0  0  0  0
   -4.3756    2.6481    2.9066 H   0  0  0  0  0  0  0  0  0  0  0  0
   -6.8254    2.2951    3.0967 H   0  0  0  0  0  0  0  0  0  0  0  0
   -7.9428    0.5472    1.7446 H   0  0  0  0  0  0  0  0  0  0  0  0
   -6.6527   -0.8618    0.1917 H   0  0  0  0  0  0  0  0  0  0  0  0
  1  2  1  0
  2  3  1  0
  3  4  1  0
  4  5  2  3
  5  6  1  0
  6  7  2  3
  7  8  1  0
  8  9  2  0
  9 10  1  0
 10 11  1  0
  9 12  1  0
 12 13  2  0
 13 14  1  0
 14 15  2  0
 15 16  1  0
 16 17  2  0
 17 18  1  0
 18 19  1  0
 18 20  1  0
  4 21  1  0
 21 22  1  0
 21 23  1  0
 21 24  1  0
 24 25  2  0
 25 26  1  0
 26 27  2  0
 27 28  1  0
 28 29  2  0
 29  3  1  0
 18  8  1  0
 29 24  1  0
 17 12  1  0
  1 30  1  0
  1 31  1  0
  1 32  1  0
  2 33  1  0
  2 34  1  0
  5 35  1  0
  6 36  1  0
  7 37  1  0
 10 38  1  0
 10 39  1  0
 11 40  1  0
 11 41  1  0
 11 42  1  0
 13 43  1  0
 14 44  1  0
 15 45  1  0
 16 46  1  0
 19 47  1  0
 19 48  1  0
 19 49  1  0
 20 50  1  0
 20 51  1  0
 20 52  1  0
 22 53  1  0
 22 54  1  0
 22 55  1  0
 23 56  1  0
 23 57  1  0
 23 58  1  0
 25 59  1  0
 26 60  1  0
 27 61  1  0
 28 62  1  0
M  CHG  1   9   1
M  END
$$$$
