
     RDKit          3D

 40 42  0  0  0  0  0  0  0  0999 V2000
    2.5348    5.2642    0.0918 C   0  0  0  0  0  0  0  0  0  0  0  0
    2.0866    3.8158    0.1826 C   0  0  0  0  0  0  0  0  0  0  0  0
    0.3675    3.6642   -0.4031 S   0  0  0  0  0  0  0  0  0  0  0  0
    0.0946    1.9110   -0.1811 C   0  0  0  0  0  0  0  0  0  0  0  0
   -1.1461    1.3959   -0.4856 C   0  0  0  0  0  0  0  0  0  0  0  0
   -1.3299    0.0385   -0.3121 C   0  0  0  0  0  0  0  0  0  0  0  0
   -2.5864   -0.5377   -0.5921 N   0  0  0  0  0  0  0  0  0  0  0  0
   -2.6911   -1.9493   -0.1544 C   0  0  0  0  0  0  0  0  0  0  0  0
   -4.1133   -2.4684   -0.4154 C   0  0  0  0  0  0  0  0  0  0  0  0
   -4.4704   -2.3423   -1.8020 O   0  0  0  0  0  0  0  0  0  0  0  0
   -4.4100   -0.9648   -2.2029 C   0  0  0  0  0  0  0  0  0  0  0  0
   -3.0029   -0.3758   -2.0043 C   0  0  0  0  0  0  0  0  0  0  0  0
   -0.3362   -0.7289    0.1641 N   0  0  0  0  0  0  0  0  0  0  0  0
    0.8479   -0.1483    0.4351 C   0  0  0  0  0  0  0  0  0  0  0  0
    1.9367   -1.0084    0.9445 C   0  0  0  0  0  0  0  0  0  0  0  0
    1.7551   -2.3932    1.1308 C   0  0  0  0  0  0  0  0  0  0  0  0
    2.7841   -3.2095    1.6123 C   0  0  0  0  0  0  0  0  0  0  0  0
    4.0239   -2.6585    1.9203 C   0  0  0  0  0  0  0  0  0  0  0  0
    4.2350   -1.2943    1.7473 C   0  0  0  0  0  0  0  0  0  0  0  0
    3.2034   -0.4815    1.2654 C   0  0  0  0  0  0  0  0  0  0  0  0
    1.1059    1.1581    0.2714 N   0  0  0  0  0  0  0  0  0  0  0  0
    2.5028    5.6315   -0.9396 H   0  0  0  0  0  0  0  0  0  0  0  0
    1.9140    5.9175    0.7145 H   0  0  0  0  0  0  0  0  0  0  0  0
    3.5677    5.3565    0.4436 H   0  0  0  0  0  0  0  0  0  0  0  0
    2.7422    3.1920   -0.4334 H   0  0  0  0  0  0  0  0  0  0  0  0
    2.1529    3.4780    1.2219 H   0  0  0  0  0  0  0  0  0  0  0  0
   -1.9507    2.0356   -0.8218 H   0  0  0  0  0  0  0  0  0  0  0  0
   -2.4773   -2.0405    0.9173 H   0  0  0  0  0  0  0  0  0  0  0  0
   -1.9803   -2.5703   -0.7158 H   0  0  0  0  0  0  0  0  0  0  0  0
   -4.1760   -3.5291   -0.1527 H   0  0  0  0  0  0  0  0  0  0  0  0
   -4.8491   -1.9283    0.1924 H   0  0  0  0  0  0  0  0  0  0  0  0
   -5.1570   -0.3965   -1.6357 H   0  0  0  0  0  0  0  0  0  0  0  0
   -4.6862   -0.9155   -3.2609 H   0  0  0  0  0  0  0  0  0  0  0  0
   -3.0289    0.6779   -2.3020 H   0  0  0  0  0  0  0  0  0  0  0  0
   -2.2941   -0.9033   -2.6560 H   0  0  0  0  0  0  0  0  0  0  0  0
    0.7952   -2.8513    0.8974 H   0  0  0  0  0  0  0  0  0  0  0  0
    2.6128   -4.2746    1.7450 H   0  0  0  0  0  0  0  0  0  0  0  0
    4.8242   -3.2913    2.2945 H   0  0  0  0  0  0  0  0  0  0  0  0
    5.2014   -0.8579    1.9862 H   0  0  0  0  0  0  0  0  0  0  0  0
    3.3973    0.5826    1.1402 H   0  0  0  0  0  0  0  0  0  0  0  0
  1  2  1  0
  2  3  1  0
  3  4  1  0
  4  5  2  0
  5  6  1  0
  6  7  1  0
  7  8  1  0
  8  9  1  0
  9 10  1  0
 10 11  1  0
 11 12  1  0
  6 13  2  0
 13 14  1  0
 14 15  1  0
 15 16  2  0
 16 17  1  0
 17 18  2  0
 18 19  1  0
 19 20  2  0
 14 21  2  0
 21  4  1  0
 12  7  1  0
 20 15  1  0
  1 22  1  0
  1 23  1  0
  1 24  1  0
  2 25  1  0
  2 26  1  0
  5 27  1  0
  8 28  1  0
  8 29  1  0
  9 30  1  0
  9 31  1  0
 11 32  1  0
 11 33  1  0
 12 34  1  0
 12 35  1  0
 16 36  1  0
 17 37  1  0
 18 38  1  0
 19 39  1  0
 20 40  1  0
M  END
$$$$
