
     RDKit          3D

 54 57  0  0  0  0  0  0  0  0999 V2000
   -3.5603   -2.2094   -3.7550 C   0  0  0  0  0  0  0  0  0  0  0  0
   -3.0695   -2.5011   -2.4527 O   0  0  0  0  0  0  0  0  0  0  0  0
   -2.7082   -1.4371   -1.6728 C   0  0  0  0  0  0  0  0  0  0  0  0
   -2.8356   -0.0881   -2.0159 C   0  0  0  0  0  0  0  0  0  0  0  0
   -2.4142    0.9055   -1.1262 C   0  0  0  0  0  0  0  0  0  0  0  0
   -1.8498    0.5427    0.0993 C   0  0  0  0  0  0  0  0  0  0  0  0
   -1.4090    1.5857    1.0499 C   0  0  0  0  0  0  0  0  0  0  0  0
   -2.1651    1.8053    2.0788 N   0  0  0  0  0  0  0  0  0  0  0  0
   -1.7877    2.7918    2.9940 C   0  0  0  0  0  0  0  0  0  0  0  0
   -2.6157    3.0469    4.0895 C   0  0  0  0  0  0  0  0  0  0  0  0
   -2.2756    4.0258    5.0272 C   0  0  0  0  0  0  0  0  0  0  0  0
   -1.1002    4.7606    4.8746 C   0  0  0  0  0  0  0  0  0  0  0  0
   -0.2652    4.5147    3.7848 C   0  0  0  0  0  0  0  0  0  0  0  0
   -0.6171    3.5309    2.8526 C   0  0  0  0  0  0  0  0  0  0  0  0
    0.2453    3.2321    1.6986 C   0  0  0  0  0  0  0  0  0  0  0  0
    1.3213    3.8147    1.5815 O   0  0  0  0  0  0  0  0  0  0  0  0
   -0.2191    2.2673    0.8042 N   0  0  0  0  0  0  0  0  0  0  0  0
    0.6880    1.9306   -0.2998 C   0  0  0  0  0  0  0  0  0  0  0  0
    1.7408    0.8967    0.1078 C   0  0  0  0  0  0  0  0  0  0  0  0
    2.4829    0.5061   -1.0590 O   0  0  0  0  0  0  0  0  0  0  0  0
    2.4325   -0.8507   -1.2391 C   0  0  0  0  0  0  0  0  0  0  0  0
    1.3149   -1.4127   -1.8560 C   0  0  0  0  0  0  0  0  0  0  0  0
    1.2496   -2.7919   -2.0511 C   0  0  0  0  0  0  0  0  0  0  0  0
    2.3049   -3.6137   -1.6388 C   0  0  0  0  0  0  0  0  0  0  0  0
    2.2456   -5.0927   -1.8795 C   0  0  0  0  0  0  0  0  0  0  0  0
    3.4413   -3.0314   -1.0571 C   0  0  0  0  0  0  0  0  0  0  0  0
    3.5205   -1.6446   -0.8578 C   0  0  0  0  0  0  0  0  0  0  0  0
    4.7382   -1.0368   -0.2265 C   0  0  0  0  0  0  0  0  0  0  0  0
   -1.7460   -0.7992    0.4648 C   0  0  0  0  0  0  0  0  0  0  0  0
   -2.1725   -1.7842   -0.4270 C   0  0  0  0  0  0  0  0  0  0  0  0
   -2.8065   -1.6855   -4.3523 H   0  0  0  0  0  0  0  0  0  0  0  0
   -3.7762   -3.1602   -4.2522 H   0  0  0  0  0  0  0  0  0  0  0  0
   -4.4946   -1.6393   -3.7069 H   0  0  0  0  0  0  0  0  0  0  0  0
   -3.2655    0.2235   -2.9624 H   0  0  0  0  0  0  0  0  0  0  0  0
   -2.5294    1.9539   -1.3895 H   0  0  0  0  0  0  0  0  0  0  0  0
   -3.5338    2.4748    4.2107 H   0  0  0  0  0  0  0  0  0  0  0  0
   -2.9303    4.2129    5.8748 H   0  0  0  0  0  0  0  0  0  0  0  0
   -0.8342    5.5227    5.6029 H   0  0  0  0  0  0  0  0  0  0  0  0
    0.6534    5.0839    3.6630 H   0  0  0  0  0  0  0  0  0  0  0  0
    1.1939    2.8402   -0.6484 H   0  0  0  0  0  0  0  0  0  0  0  0
    0.1306    1.5687   -1.1668 H   0  0  0  0  0  0  0  0  0  0  0  0
    2.4498    1.3390    0.8167 H   0  0  0  0  0  0  0  0  0  0  0  0
    1.2718    0.0460    0.6197 H   0  0  0  0  0  0  0  0  0  0  0  0
    0.4951   -0.7834   -2.1879 H   0  0  0  0  0  0  0  0  0  0  0  0
    0.3707   -3.2196   -2.5288 H   0  0  0  0  0  0  0  0  0  0  0  0
    2.5779   -5.3204   -2.8961 H   0  0  0  0  0  0  0  0  0  0  0  0
    2.8833   -5.6325   -1.1716 H   0  0  0  0  0  0  0  0  0  0  0  0
    1.2242   -5.4659   -1.7460 H   0  0  0  0  0  0  0  0  0  0  0  0
    4.2753   -3.6656   -0.7603 H   0  0  0  0  0  0  0  0  0  0  0  0
    5.1185   -0.2136   -0.8420 H   0  0  0  0  0  0  0  0  0  0  0  0
    5.5465   -1.7701   -0.1265 H   0  0  0  0  0  0  0  0  0  0  0  0
    4.4964   -0.6609    0.7732 H   0  0  0  0  0  0  0  0  0  0  0  0
   -1.3445   -1.0796    1.4343 H   0  0  0  0  0  0  0  0  0  0  0  0
   -2.0874   -2.8328   -0.1509 H   0  0  0  0  0  0  0  0  0  0  0  0
  1  2  1  0
  2  3  1  0
  3  4  2  0
  4  5  1  0
  5  6  2  0
  6  7  1  0
  7  8  2  0
  8  9  1  0
  9 10  2  0
 10 11  1  0
 11 12  2  0
 12 13  1  0
 13 14  2  0
 14 15  1  0
 15 16  2  0
 15 17  1  0
 17 18  1  0
 18 19  1  0
 19 20  1  0
 20 21  1  0
 21 22  2  0
 22 23  1  0
 23 24  2  0
 24 25  1  0
 24 26  1  0
 26 27  2  0
 27 28  1  0
  6 29  1  0
 29 30  2  0
 30  3  1  0
 17  7  1  0
 27 21  1  0
 14  9  1  0
  1 31  1  0
  1 32  1  0
  1 33  1  0
  4 34  1  0
  5 35  1  0
 10 36  1  0
 11 37  1  0
 12 38  1  0
 13 39  1  0
 18 40  1  0
 18 41  1  0
 19 42  1  0
 19 43  1  0
 22 44  1  0
 23 45  1  0
 25 46  1  0
 25 47  1  0
 25 48  1  0
 26 49  1  0
 28 50  1  0
 28 51  1  0
 28 52  1  0
 29 53  1  0
 30 54  1  0
M  END
$$$$
