
     RDKit          3D

 54 57  0  0  0  0  0  0  0  0999 V2000
   -3.4930   -2.1698   -3.7453 C   0  0  0  0  0  0  0  0  0  0  0  0
   -3.4937   -0.7503   -3.6585 O   0  0  0  0  0  0  0  0  0  0  0  0
   -3.0209   -0.2002   -2.4986 C   0  0  0  0  0  0  0  0  0  0  0  0
   -3.0738    1.1985   -2.4544 C   0  0  0  0  0  0  0  0  0  0  0  0
   -2.6214    1.8938   -1.3319 C   0  0  0  0  0  0  0  0  0  0  0  0
   -2.1001    1.1786   -0.2543 C   0  0  0  0  0  0  0  0  0  0  0  0
   -1.6111    1.9113    0.9311 C   0  0  0  0  0  0  0  0  0  0  0  0
   -2.4864    2.2647    1.8170 N   0  0  0  0  0  0  0  0  0  0  0  0
   -2.0530    2.9613    2.9493 C   0  0  0  0  0  0  0  0  0  0  0  0
   -2.9976    3.3609    3.8978 C   0  0  0  0  0  0  0  0  0  0  0  0
   -2.6055    4.0545    5.0465 C   0  0  0  0  0  0  0  0  0  0  0  0
   -1.2597    4.3545    5.2563 C   0  0  0  0  0  0  0  0  0  0  0  0
   -0.3076    3.9599    4.3174 C   0  0  0  0  0  0  0  0  0  0  0  0
   -0.7134    3.2665    3.1703 C   0  0  0  0  0  0  0  0  0  0  0  0
    0.2631    2.8311    2.1590 C   0  0  0  0  0  0  0  0  0  0  0  0
    1.4614    3.0315    2.3457 O   0  0  0  0  0  0  0  0  0  0  0  0
   -0.2497    2.1860    1.0347 N   0  0  0  0  0  0  0  0  0  0  0  0
    0.7317    1.7721    0.0241 C   0  0  0  0  0  0  0  0  0  0  0  0
    1.4625    0.4836    0.4150 C   0  0  0  0  0  0  0  0  0  0  0  0
    2.0995   -0.0353   -0.7546 O   0  0  0  0  0  0  0  0  0  0  0  0
    2.5652   -1.3225   -0.6853 C   0  0  0  0  0  0  0  0  0  0  0  0
    2.8162   -2.0093    0.5050 C   0  0  0  0  0  0  0  0  0  0  0  0
    3.2914   -3.3235    0.4772 C   0  0  0  0  0  0  0  0  0  0  0  0
    3.5393   -3.9633   -0.7395 C   0  0  0  0  0  0  0  0  0  0  0  0
    4.0162   -5.3842   -0.7720 C   0  0  0  0  0  0  0  0  0  0  0  0
    3.2890   -3.2739   -1.9322 C   0  0  0  0  0  0  0  0  0  0  0  0
    2.8153   -1.9524   -1.9167 C   0  0  0  0  0  0  0  0  0  0  0  0
    2.5568   -1.2361   -3.2139 C   0  0  0  0  0  0  0  0  0  0  0  0
   -2.0603   -0.2172   -0.2742 C   0  0  0  0  0  0  0  0  0  0  0  0
   -2.5156   -0.9056   -1.4032 C   0  0  0  0  0  0  0  0  0  0  0  0
   -2.4745   -2.5682   -3.6931 H   0  0  0  0  0  0  0  0  0  0  0  0
   -3.9083   -2.4449   -4.7194 H   0  0  0  0  0  0  0  0  0  0  0  0
   -4.1318   -2.6131   -2.9739 H   0  0  0  0  0  0  0  0  0  0  0  0
   -3.4766    1.7479   -3.3027 H   0  0  0  0  0  0  0  0  0  0  0  0
   -2.6774    2.9778   -1.3020 H   0  0  0  0  0  0  0  0  0  0  0  0
   -4.0473    3.1269    3.7370 H   0  0  0  0  0  0  0  0  0  0  0  0
   -3.3520    4.3589    5.7766 H   0  0  0  0  0  0  0  0  0  0  0  0
   -0.9537    4.8940    6.1495 H   0  0  0  0  0  0  0  0  0  0  0  0
    0.7429    4.1916    4.4774 H   0  0  0  0  0  0  0  0  0  0  0  0
    0.2570    1.6540   -0.9545 H   0  0  0  0  0  0  0  0  0  0  0  0
    1.4695    2.5740   -0.1091 H   0  0  0  0  0  0  0  0  0  0  0  0
    2.2133    0.6999    1.1844 H   0  0  0  0  0  0  0  0  0  0  0  0
    0.7420   -0.2435    0.8092 H   0  0  0  0  0  0  0  0  0  0  0  0
    2.6645   -1.5448    1.4744 H   0  0  0  0  0  0  0  0  0  0  0  0
    3.4744   -3.8403    1.4174 H   0  0  0  0  0  0  0  0  0  0  0  0
    4.7101   -5.5404   -1.6042 H   0  0  0  0  0  0  0  0  0  0  0  0
    4.5492   -5.6428    0.1493 H   0  0  0  0  0  0  0  0  0  0  0  0
    3.1649   -6.0611   -0.8862 H   0  0  0  0  0  0  0  0  0  0  0  0
    3.4674   -3.7703   -2.8845 H   0  0  0  0  0  0  0  0  0  0  0  0
    2.8779   -1.8327   -4.0743 H   0  0  0  0  0  0  0  0  0  0  0  0
    1.4866   -1.0362   -3.3258 H   0  0  0  0  0  0  0  0  0  0  0  0
    3.1083   -0.2906   -3.2446 H   0  0  0  0  0  0  0  0  0  0  0  0
   -1.6840   -0.7714    0.5810 H   0  0  0  0  0  0  0  0  0  0  0  0
   -2.4672   -1.9898   -1.3936 H   0  0  0  0  0  0  0  0  0  0  0  0
  1  2  1  0
  2  3  1  0
  3  4  2  0
  4  5  1  0
  5  6  2  0
  6  7  1  0
  7  8  2  0
  8  9  1  0
  9 10  2  0
 10 11  1  0
 11 12  2  0
 12 13  1  0
 13 14  2  0
 14 15  1  0
 15 16  2  0
 15 17  1  0
 17 18  1  0
 18 19  1  0
 19 20  1  0
 20 21  1  0
 21 22  2  0
 22 23  1  0
 23 24  2  0
 24 25  1  0
 24 26  1  0
 26 27  2  0
 27 28  1  0
  6 29  1  0
 29 30  2  0
 30  3  1  0
 17  7  1  0
 27 21  1  0
 14  9  1  0
  1 31  1  0
  1 32  1  0
  1 33  1  0
  4 34  1  0
  5 35  1  0
 10 36  1  0
 11 37  1  0
 12 38  1  0
 13 39  1  0
 18 40  1  0
 18 41  1  0
 19 42  1  0
 19 43  1  0
 22 44  1  0
 23 45  1  0
 25 46  1  0
 25 47  1  0
 25 48  1  0
 26 49  1  0
 28 50  1  0
 28 51  1  0
 28 52  1  0
 29 53  1  0
 30 54  1  0
M  END
$$$$
