
     RDKit          3D

 46 49  0  0  0  0  0  0  0  0999 V2000
   -3.7808   -2.5320   -3.0486 C   0  0  0  0  0  0  0  0  0  0  0  0
   -3.2936   -1.2926   -2.5488 O   0  0  0  0  0  0  0  0  0  0  0  0
   -2.6775   -1.3162   -1.3285 C   0  0  0  0  0  0  0  0  0  0  0  0
   -2.4394   -2.4487   -0.5501 C   0  0  0  0  0  0  0  0  0  0  0  0
   -1.7886   -2.3305    0.6811 C   0  0  0  0  0  0  0  0  0  0  0  0
   -1.3709   -1.0813    1.1395 C   0  0  0  0  0  0  0  0  0  0  0  0
   -1.6078    0.0602    0.3683 C   0  0  0  0  0  0  0  0  0  0  0  0
   -1.1334    1.3623    0.8193 C   0  0  0  0  0  0  0  0  0  0  0  0
    0.1477    1.9090    0.8170 C   0  0  0  0  0  0  0  0  0  0  0  0
    1.4258    1.3571    0.3558 C   0  0  0  0  0  0  0  0  0  0  0  0
    2.4969    1.8440    0.7142 O   0  0  0  0  0  0  0  0  0  0  0  0
    1.3363    0.2605   -0.5090 N   0  0  0  0  0  0  0  0  0  0  0  0
    2.4272   -0.1625   -1.2305 N   0  0  0  0  0  0  0  0  0  0  0  0
    3.4720   -0.6394   -0.6106 C   0  0  0  0  0  0  0  0  0  0  0  0
    3.5300   -0.9279    0.8791 C   0  0  0  0  0  0  0  0  0  0  0  0
    4.6732   -0.9499   -1.3862 C   0  0  0  0  0  0  0  0  0  0  0  0
    5.9443   -1.2724   -0.9333 C   0  0  0  0  0  0  0  0  0  0  0  0
    6.8658   -1.5141   -1.9973 C   0  0  0  0  0  0  0  0  0  0  0  0
    6.2595   -1.3645   -3.2155 C   0  0  0  0  0  0  0  0  0  0  0  0
    6.9935   -1.5617   -4.7550 Cl  0  0  0  0  0  0  0  0  0  0  0  0
    4.6282   -0.9430   -3.1090 S   0  0  0  0  0  0  0  0  0  0  0  0
    0.0968    3.1575    1.3812 N   0  0  0  0  0  0  0  0  0  0  0  0
   -1.1520    3.4221    1.7149 N   0  0  0  0  0  0  0  0  0  0  0  0
   -1.9309    2.3451    1.4206 N   0  0  0  0  0  0  0  0  0  0  0  0
   -3.3111    2.3251    1.7478 C   0  0  0  0  0  0  0  0  0  0  0  0
   -4.0576    1.2396    1.5425 N   0  0  0  0  0  0  0  0  0  0  0  0
   -5.3214    1.6032    2.0031 O   0  0  0  0  0  0  0  0  0  0  0  0
   -5.3251    2.9051    2.4922 N   0  0  0  0  0  0  0  0  0  0  0  0
   -4.0811    3.3522    2.3260 C   0  0  0  0  0  0  0  0  0  0  0  0
   -3.6666    4.5876    2.6642 N   0  0  0  0  0  0  0  0  0  0  0  0
   -2.2586   -0.0654   -0.8656 C   0  0  0  0  0  0  0  0  0  0  0  0
   -4.5357   -2.9587   -2.3799 H   0  0  0  0  0  0  0  0  0  0  0  0
   -2.9606   -3.2366   -3.2209 H   0  0  0  0  0  0  0  0  0  0  0  0
   -4.2611   -2.3381   -4.0124 H   0  0  0  0  0  0  0  0  0  0  0  0
   -2.7473   -3.4386   -0.8712 H   0  0  0  0  0  0  0  0  0  0  0  0
   -1.6082   -3.2175    1.2842 H   0  0  0  0  0  0  0  0  0  0  0  0
   -0.8647   -1.0115    2.0999 H   0  0  0  0  0  0  0  0  0  0  0  0
    0.4781    0.2039   -1.0496 H   0  0  0  0  0  0  0  0  0  0  0  0
    2.5363   -0.9734    1.3296 H   0  0  0  0  0  0  0  0  0  0  0  0
    4.0029   -1.8998    1.0529 H   0  0  0  0  0  0  0  0  0  0  0  0
    4.1216   -0.1560    1.3792 H   0  0  0  0  0  0  0  0  0  0  0  0
    6.2158   -1.3259    0.1144 H   0  0  0  0  0  0  0  0  0  0  0  0
    7.9081   -1.7769   -1.8674 H   0  0  0  0  0  0  0  0  0  0  0  0
   -2.6757    4.8240    2.6986 H   0  0  0  0  0  0  0  0  0  0  0  0
   -4.2587    5.1660    3.2508 H   0  0  0  0  0  0  0  0  0  0  0  0
   -2.4517    0.8107   -1.4821 H   0  0  0  0  0  0  0  0  0  0  0  0
  1  2  1  0
  2  3  1  0
  3  4  2  0
  4  5  1  0
  5  6  2  0
  6  7  1  0
  7  8  1  0
  8  9  2  0
  9 10  1  0
 10 11  2  0
 10 12  1  0
 12 13  1  0
 13 14  2  3
 14 15  1  0
 14 16  1  0
 16 17  2  0
 17 18  1  0
 18 19  2  0
 19 20  1  0
 19 21  1  0
  9 22  1  0
 22 23  2  0
 23 24  1  0
 24 25  1  0
 25 26  2  0
 26 27  1  0
 27 28  1  0
 28 29  2  0
 29 30  1  0
  7 31  2  0
 31  3  1  0
 24  8  1  0
 29 25  1  0
 21 16  1  0
  1 32  1  0
  1 33  1  0
  1 34  1  0
  4 35  1  0
  5 36  1  0
  6 37  1  0
 12 38  1  0
 15 39  1  0
 15 40  1  0
 15 41  1  0
 17 42  1  0
 18 43  1  0
 30 44  1  0
 30 45  1  0
 31 46  1  0
M  END
$$$$
