
     RDKit          3D

 47 50  0  0  0  0  0  0  0  0999 V2000
   -4.6146    2.3910    1.3343 C   0  0  0  0  0  0  0  0  0  0  0  0
   -3.2422    1.8965    0.8669 C   0  0  0  0  0  0  0  0  0  0  0  0
   -3.1865    1.8248   -0.6543 C   0  0  0  0  0  0  0  0  0  0  0  0
   -1.9444    1.1347   -1.1584 C   0  0  0  0  0  0  0  0  0  0  0  0
   -0.9502    1.7892   -1.4677 O   0  0  0  0  0  0  0  0  0  0  0  0
   -2.0128   -0.2435   -1.3184 N   0  0  0  0  0  0  0  0  0  0  0  0
   -0.8743   -0.8882   -1.9657 C   0  0  0  0  0  0  0  0  0  0  0  0
    0.2253   -1.1939   -0.9446 C   0  0  0  0  0  0  0  0  0  0  0  0
    0.1603   -2.1873   -0.2257 O   0  0  0  0  0  0  0  0  0  0  0  0
    1.2165   -0.2299   -0.9290 N   0  0  0  0  0  0  0  0  0  0  0  0
    2.4328   -0.2583   -0.2160 C   0  0  0  0  0  0  0  0  0  0  0  0
    2.7738   -1.2601    0.6985 C   0  0  0  0  0  0  0  0  0  0  0  0
    4.0157   -1.2395    1.3452 C   0  0  0  0  0  0  0  0  0  0  0  0
    4.9335   -0.2272    1.0647 C   0  0  0  0  0  0  0  0  0  0  0  0
    4.6123    0.7664    0.1319 C   0  0  0  0  0  0  0  0  0  0  0  0
    3.3559    0.7714   -0.4785 C   0  0  0  0  0  0  0  0  0  0  0  0
    5.4970    1.7723   -0.2425 O   0  0  0  0  0  0  0  0  0  0  0  0
    6.8367    1.4068    0.1053 C   0  0  0  0  0  0  0  0  0  0  0  0
    6.8927    0.9410    1.5530 C   0  0  0  0  0  0  0  0  0  0  0  0
    6.1339   -0.2731    1.7294 O   0  0  0  0  0  0  0  0  0  0  0  0
   -3.0181   -1.0743   -0.7276 C   0  0  0  0  0  0  0  0  0  0  0  0
   -3.5433   -2.1392   -1.4806 C   0  0  0  0  0  0  0  0  0  0  0  0
   -4.5209   -2.9885   -0.9597 C   0  0  0  0  0  0  0  0  0  0  0  0
   -4.9925   -2.7885    0.3338 C   0  0  0  0  0  0  0  0  0  0  0  0
   -4.4688   -1.7518    1.1033 C   0  0  0  0  0  0  0  0  0  0  0  0
   -3.5004   -0.8761    0.5851 C   0  0  0  0  0  0  0  0  0  0  0  0
   -2.8406    0.3383    1.7300 S   0  0  0  0  0  0  0  0  0  0  0  0
   -4.6680    2.4671    2.4285 H   0  0  0  0  0  0  0  0  0  0  0  0
   -4.8030    3.3943    0.9353 H   0  0  0  0  0  0  0  0  0  0  0  0
   -5.4230    1.7299    0.9961 H   0  0  0  0  0  0  0  0  0  0  0  0
   -2.4919    2.6225    1.2057 H   0  0  0  0  0  0  0  0  0  0  0  0
   -4.0757    1.3463   -1.0847 H   0  0  0  0  0  0  0  0  0  0  0  0
   -3.1892    2.8427   -1.0651 H   0  0  0  0  0  0  0  0  0  0  0  0
   -1.1442   -1.8264   -2.4576 H   0  0  0  0  0  0  0  0  0  0  0  0
   -0.4853   -0.2397   -2.7545 H   0  0  0  0  0  0  0  0  0  0  0  0
    1.0286    0.6347   -1.4583 H   0  0  0  0  0  0  0  0  0  0  0  0
    2.0859   -2.0602    0.9517 H   0  0  0  0  0  0  0  0  0  0  0  0
    4.2604   -2.0132    2.0673 H   0  0  0  0  0  0  0  0  0  0  0  0
    3.1259    1.5665   -1.1865 H   0  0  0  0  0  0  0  0  0  0  0  0
    7.1723    0.6185   -0.5864 H   0  0  0  0  0  0  0  0  0  0  0  0
    7.4730    2.2820   -0.0467 H   0  0  0  0  0  0  0  0  0  0  0  0
    7.9304    0.7314    1.8404 H   0  0  0  0  0  0  0  0  0  0  0  0
    6.4921    1.7111    2.2374 H   0  0  0  0  0  0  0  0  0  0  0  0
   -3.2179   -2.3147   -2.5030 H   0  0  0  0  0  0  0  0  0  0  0  0
   -4.8942   -3.8143   -1.5593 H   0  0  0  0  0  0  0  0  0  0  0  0
   -5.7378   -3.4571    0.7449 H   0  0  0  0  0  0  0  0  0  0  0  0
   -4.8152   -1.6342    2.1279 H   0  0  0  0  0  0  0  0  0  0  0  0
  1  2  1  0
  2  3  1  0
  3  4  1  0
  4  5  2  0
  4  6  1  0
  6  7  1  0
  7  8  1  0
  8  9  2  0
  8 10  1  0
 10 11  1  0
 11 12  2  0
 12 13  1  0
 13 14  2  0
 14 15  1  0
 15 16  2  0
 15 17  1  0
 17 18  1  0
 18 19  1  0
 19 20  1  0
  6 21  1  0
 21 22  2  0
 22 23  1  0
 23 24  2  0
 24 25  1  0
 25 26  2  0
 26 27  1  0
 27  2  1  0
 16 11  1  0
 26 21  1  0
 20 14  1  0
  1 28  1  0
  1 29  1  0
  1 30  1  0
  2 31  1  0
  3 32  1  0
  3 33  1  0
  7 34  1  0
  7 35  1  0
 10 36  1  0
 12 37  1  0
 13 38  1  0
 16 39  1  0
 18 40  1  0
 18 41  1  0
 19 42  1  0
 19 43  1  0
 22 44  1  0
 23 45  1  0
 24 46  1  0
 25 47  1  0
M  END
$$$$
