
     RDKit          3D

 29 30  0  0  0  0  0  0  0  0999 V2000
    1.9189    0.0674    1.9594 C   0  0  0  0  0  0  0  0  0  0  0  0
    2.2680    0.0482    0.5155 C   0  0  0  0  0  0  0  0  0  0  0  0
    3.5374    0.2848    0.1563 N   0  0  0  0  0  0  0  0  0  0  0  0
    3.5402    0.1148   -1.1750 N   0  0  0  0  0  0  0  0  0  0  0  0
    4.7737    0.2634   -1.9080 C   0  0  0  0  0  0  0  0  0  0  0  0
    2.3182   -0.1958   -1.6814 C   0  0  0  0  0  0  0  0  0  0  0  0
    1.4387   -0.2214   -0.6136 C   0  0  0  0  0  0  0  0  0  0  0  0
    0.0139   -0.5160   -0.7291 C   0  0  0  0  0  0  0  0  0  0  0  0
   -0.4035   -1.2233   -1.6388 O   0  0  0  0  0  0  0  0  0  0  0  0
   -0.7637    0.1114    0.2227 N   0  0  0  0  0  0  0  0  0  0  0  0
   -2.1611    0.0073    0.4195 C   0  0  0  0  0  0  0  0  0  0  0  0
   -2.9689   -0.8846   -0.2920 C   0  0  0  0  0  0  0  0  0  0  0  0
   -4.3459   -0.9503   -0.0504 C   0  0  0  0  0  0  0  0  0  0  0  0
   -4.9336   -0.1284    0.9075 C   0  0  0  0  0  0  0  0  0  0  0  0
   -4.1449    0.7628    1.6304 C   0  0  0  0  0  0  0  0  0  0  0  0
   -2.7689    0.8283    1.3887 C   0  0  0  0  0  0  0  0  0  0  0  0
   -1.7533    2.0682    2.4160 Br  0  0  0  0  0  0  0  0  0  0  0  0
    2.7916   -0.1611    2.5806 H   0  0  0  0  0  0  0  0  0  0  0  0
    1.1505   -0.6771    2.1890 H   0  0  0  0  0  0  0  0  0  0  0  0
    1.5486    1.0559    2.2471 H   0  0  0  0  0  0  0  0  0  0  0  0
    5.1460    1.2793   -1.7539 H   0  0  0  0  0  0  0  0  0  0  0  0
    5.4898   -0.4706   -1.5301 H   0  0  0  0  0  0  0  0  0  0  0  0
    4.5885    0.0911   -2.9711 H   0  0  0  0  0  0  0  0  0  0  0  0
    2.1567   -0.3688   -2.7369 H   0  0  0  0  0  0  0  0  0  0  0  0
   -0.3058    0.8010    0.8053 H   0  0  0  0  0  0  0  0  0  0  0  0
   -2.5603   -1.5530   -1.0439 H   0  0  0  0  0  0  0  0  0  0  0  0
   -4.9574   -1.6501   -0.6160 H   0  0  0  0  0  0  0  0  0  0  0  0
   -6.0038   -0.1839    1.0904 H   0  0  0  0  0  0  0  0  0  0  0  0
   -4.6096    1.4006    2.3779 H   0  0  0  0  0  0  0  0  0  0  0  0
  1  2  1  0
  2  3  2  0
  3  4  1  0
  4  5  1  0
  4  6  1  0
  6  7  2  0
  7  8  1  0
  8  9  2  0
  8 10  1  0
 10 11  1  0
 11 12  2  0
 12 13  1  0
 13 14  2  0
 14 15  1  0
 15 16  2  0
 16 17  1  0
  7  2  1  0
 16 11  1  0
  1 18  1  0
  1 19  1  0
  1 20  1  0
  5 21  1  0
  5 22  1  0
  5 23  1  0
  6 24  1  0
 10 25  1  0
 12 26  1  0
 13 27  1  0
 14 28  1  0
 15 29  1  0
M  END
$$$$
