
     RDKit          3D

 41 43  0  0  0  0  0  0  0  0999 V2000
   -5.8416   -1.2288    2.6472 C   0  0  0  0  0  0  0  0  0  0  0  0
   -4.9074   -0.7690    1.5665 C   0  0  0  0  0  0  0  0  0  0  0  0
   -5.3786   -0.5677    0.2672 C   0  0  0  0  0  0  0  0  0  0  0  0
   -4.5108   -0.1576   -0.7502 C   0  0  0  0  0  0  0  0  0  0  0  0
   -3.1438    0.0475   -0.5008 C   0  0  0  0  0  0  0  0  0  0  0  0
   -2.2721    0.5168   -1.6336 C   0  0  0  0  0  0  0  0  0  0  0  0
   -2.6695   -0.1735    0.8076 C   0  0  0  0  0  0  0  0  0  0  0  0
   -0.9490    0.0538    1.2390 S   0  0  0  0  0  6  0  0  0  0  0  0
   -0.4859    1.2837    0.6350 O   0  0  0  0  0  0  0  0  0  0  0  0
   -0.8065   -0.1875    2.6614 O   0  0  0  0  0  0  0  0  0  0  0  0
   -0.2424   -1.2967    0.4640 N   0  0  0  0  0  0  0  0  0  0  0  0
    1.1852   -1.2130    0.3503 C   0  0  0  0  0  0  0  0  0  0  0  0
    2.0013   -1.6408    1.3974 C   0  0  0  0  0  0  0  0  0  0  0  0
    3.3853   -1.5206    1.2847 C   0  0  0  0  0  0  0  0  0  0  0  0
    3.9442   -0.9544    0.1393 C   0  0  0  0  0  0  0  0  0  0  0  0
    5.3089   -0.8711    0.1195 O   0  0  0  0  0  0  0  0  0  0  0  0
    3.1342   -0.5062   -0.9161 C   0  0  0  0  0  0  0  0  0  0  0  0
    3.7669    0.1239   -2.4621 S   0  0  0  0  0  0  0  0  0  0  0  0
    4.5774    1.5844   -1.9802 C   0  0  0  0  0  0  0  0  0  0  0  0
    5.5268    1.6120   -0.9880 N   0  0  0  0  0  0  0  0  0  0  0  0
    5.8994    2.8714   -0.9773 C   0  0  0  0  0  0  0  0  0  0  0  0
    5.2130    3.5573   -1.9283 N   0  0  0  0  0  0  0  0  0  0  0  0
    4.3755    2.7507   -2.5972 N   0  0  0  0  0  0  0  0  0  0  0  0
    1.7439   -0.6378   -0.7921 C   0  0  0  0  0  0  0  0  0  0  0  0
   -3.5468   -0.5781    1.8303 C   0  0  0  0  0  0  0  0  0  0  0  0
   -6.8073   -0.7190    2.5645 H   0  0  0  0  0  0  0  0  0  0  0  0
   -5.4390   -1.0067    3.6413 H   0  0  0  0  0  0  0  0  0  0  0  0
   -6.0001   -2.3079    2.5687 H   0  0  0  0  0  0  0  0  0  0  0  0
   -6.4313   -0.7205    0.0358 H   0  0  0  0  0  0  0  0  0  0  0  0
   -4.9169    0.0038   -1.7488 H   0  0  0  0  0  0  0  0  0  0  0  0
   -1.4002   -0.1295   -1.7532 H   0  0  0  0  0  0  0  0  0  0  0  0
   -2.8093    0.4908   -2.5880 H   0  0  0  0  0  0  0  0  0  0  0  0
   -1.9543    1.5511   -1.4668 H   0  0  0  0  0  0  0  0  0  0  0  0
   -0.5139   -2.1180    1.0085 H   0  0  0  0  0  0  0  0  0  0  0  0
    1.5765   -2.0612    2.3043 H   0  0  0  0  0  0  0  0  0  0  0  0
    4.0323   -1.8551    2.0923 H   0  0  0  0  0  0  0  0  0  0  0  0
    5.5421   -0.0560   -0.3750 H   0  0  0  0  0  0  0  0  0  0  0  0
    6.6353    3.3280   -0.3296 H   0  0  0  0  0  0  0  0  0  0  0  0
    5.2644    4.5398   -2.1751 H   0  0  0  0  0  0  0  0  0  0  0  0
    1.0888   -0.3004   -1.5912 H   0  0  0  0  0  0  0  0  0  0  0  0
   -3.1745   -0.7377    2.8433 H   0  0  0  0  0  0  0  0  0  0  0  0
  1  2  1  0
  2  3  2  0
  3  4  1  0
  4  5  2  0
  5  6  1  0
  5  7  1  0
  7  8  1  0
  8  9  2  0
  8 10  2  0
  8 11  1  0
 11 12  1  0
 12 13  2  0
 13 14  1  0
 14 15  2  0
 15 16  1  0
 15 17  1  0
 17 18  1  0
 18 19  1  0
 19 20  1  0
 20 21  2  0
 21 22  1  0
 22 23  1  0
 17 24  2  0
  7 25  2  0
 25  2  1  0
 24 12  1  0
 23 19  2  0
  1 26  1  0
  1 27  1  0
  1 28  1  0
  3 29  1  0
  4 30  1  0
  6 31  1  0
  6 32  1  0
  6 33  1  0
 11 34  1  0
 13 35  1  0
 14 36  1  0
 16 37  1  0
 21 38  1  0
 22 39  1  0
 24 40  1  0
 25 41  1  0
M  END
$$$$
