
     RDKit          3D

 33 34  0  0  0  0  0  0  0  0999 V2000
   -2.6218    0.2222    2.1821 C   0  0  0  0  0  0  0  0  0  0  0  0
   -1.4369    1.0409    1.6874 C   0  0  0  0  0  0  0  0  0  0  0  0
   -1.2855    0.9095    0.2272 N   0  0  0  0  0  0  0  0  0  0  0  0
   -2.1604    1.7595   -0.5900 C   0  0  0  0  0  0  0  0  0  0  0  0
   -2.5846    1.0503   -1.8685 C   0  0  0  0  0  0  0  0  0  0  0  0
    0.0140    0.5522   -0.2085 C   0  0  0  0  0  0  0  0  0  0  0  0
    0.7156    1.3978   -1.0927 C   0  0  0  0  0  0  0  0  0  0  0  0
    1.9884    1.0802   -1.5435 C   0  0  0  0  0  0  0  0  0  0  0  0
    2.5721   -0.1073   -1.1108 C   0  0  0  0  0  0  0  0  0  0  0  0
    3.9005   -0.3961   -1.6183 N   0  0  0  0  0  4  0  0  0  0  0  0
    4.0338   -1.4019   -2.3277 O   0  0  0  0  0  0  0  0  0  0  0  0
    4.7999    0.4010   -1.3204 O   0  0  0  0  0  1  0  0  0  0  0  0
    1.9283   -0.9992   -0.2219 C   0  0  0  0  0  0  0  0  0  0  0  0
    2.5030   -2.2074    0.2509 C   0  0  0  0  0  0  0  0  0  0  0  0
    1.8069   -3.0411    1.1123 C   0  0  0  0  0  0  0  0  0  0  0  0
    0.5475   -2.6481    1.4895 C   0  0  0  0  0  0  0  0  0  0  0  0
   -0.0283   -1.5025    1.0737 N   0  0  0  0  0  0  0  0  0  0  0  0
    0.6285   -0.6648    0.2333 C   0  0  0  0  0  0  0  0  0  0  0  0
   -2.7081    0.3037    3.2702 H   0  0  0  0  0  0  0  0  0  0  0  0
   -3.5620    0.5721    1.7446 H   0  0  0  0  0  0  0  0  0  0  0  0
   -2.5131   -0.8361    1.9267 H   0  0  0  0  0  0  0  0  0  0  0  0
   -0.5375    0.7419    2.2389 H   0  0  0  0  0  0  0  0  0  0  0  0
   -1.5954    2.0970    1.9410 H   0  0  0  0  0  0  0  0  0  0  0  0
   -1.7009    2.7298   -0.8056 H   0  0  0  0  0  0  0  0  0  0  0  0
   -3.0758    1.9899   -0.0313 H   0  0  0  0  0  0  0  0  0  0  0  0
   -3.3007    1.6665   -2.4213 H   0  0  0  0  0  0  0  0  0  0  0  0
   -1.7350    0.8524   -2.5288 H   0  0  0  0  0  0  0  0  0  0  0  0
   -3.0634    0.0916   -1.6421 H   0  0  0  0  0  0  0  0  0  0  0  0
    0.2841    2.3352   -1.4295 H   0  0  0  0  0  0  0  0  0  0  0  0
    2.5094    1.7545   -2.2194 H   0  0  0  0  0  0  0  0  0  0  0  0
    3.5003   -2.5197   -0.0538 H   0  0  0  0  0  0  0  0  0  0  0  0
    2.2355   -3.9698    1.4706 H   0  0  0  0  0  0  0  0  0  0  0  0
   -0.0584   -3.2544    2.1563 H   0  0  0  0  0  0  0  0  0  0  0  0
  1  2  1  0
  2  3  1  0
  3  4  1  0
  4  5  1  0
  3  6  1  0
  6  7  2  0
  7  8  1  0
  8  9  2  0
  9 10  1  0
 10 11  2  0
 10 12  1  0
  9 13  1  0
 13 14  2  0
 14 15  1  0
 15 16  2  0
 16 17  1  0
 17 18  2  0
 18  6  1  0
 18 13  1  0
  1 19  1  0
  1 20  1  0
  1 21  1  0
  2 22  1  0
  2 23  1  0
  4 24  1  0
  4 25  1  0
  5 26  1  0
  5 27  1  0
  5 28  1  0
  7 29  1  0
  8 30  1  0
 14 31  1  0
 15 32  1  0
 16 33  1  0
M  CHG  2  10   1  12  -1
M  END
$$$$
