
     RDKit          3D

 56 59  0  0  0  0  0  0  0  0999 V2000
   -4.5727   -2.5894    1.8955 C   0  0  0  0  0  0  0  0  0  0  0  0
   -3.4796   -1.5434    2.0659 C   0  0  0  0  0  0  0  0  0  0  0  0
   -2.4368   -1.5561    0.9346 C   0  0  0  0  0  0  0  0  0  0  0  0
   -3.0404   -1.0088   -0.3821 C   0  0  0  0  0  0  0  0  0  0  0  0
   -3.0515    0.1903   -0.6510 O   0  0  0  0  0  0  0  0  0  0  0  0
   -3.5934   -2.0041   -1.1751 N   0  0  0  0  0  0  0  0  0  0  0  0
   -4.2543   -1.8545   -2.4147 C   0  0  0  0  0  0  0  0  0  0  0  0
   -4.4888   -0.6344   -3.0470 C   0  0  0  0  0  0  0  0  0  0  0  0
   -5.1562   -0.6104   -4.2721 C   0  0  0  0  0  0  0  0  0  0  0  0
   -5.3802    0.5642   -4.8754 F   0  0  0  0  0  0  0  0  0  0  0  0
   -5.5986   -1.7802   -4.8840 C   0  0  0  0  0  0  0  0  0  0  0  0
   -5.3713   -3.0034   -4.2611 C   0  0  0  0  0  0  0  0  0  0  0  0
   -4.7047   -3.0290   -3.0382 C   0  0  0  0  0  0  0  0  0  0  0  0
   -4.4950   -4.2128   -2.4399 F   0  0  0  0  0  0  0  0  0  0  0  0
   -1.2370   -0.7645    1.2393 N   0  0  0  0  0  0  0  0  0  0  0  0
   -1.3691    0.2969    2.1455 N   0  0  0  0  0  0  0  0  0  0  0  0
   -0.3766    1.1069    2.3862 C   0  0  0  0  0  0  0  0  0  0  0  0
   -0.5956    2.2330    3.3556 C   0  0  0  0  0  0  0  0  0  0  0  0
    0.8887    0.8935    1.7277 C   0  0  0  0  0  0  0  0  0  0  0  0
    2.1345    1.4929    1.8113 C   0  0  0  0  0  0  0  0  0  0  0  0
    2.6317    2.5275    2.7543 C   0  0  0  0  0  0  0  0  0  0  0  0
    2.9122    0.8704    0.8260 N   0  0  0  0  0  0  0  0  0  0  0  0
    4.2010    1.2068    0.3056 C   0  0  0  0  0  0  0  0  0  0  0  0
    4.7660    2.4769    0.4608 C   0  0  0  0  0  0  0  0  0  0  0  0
    6.0287    2.7611   -0.0750 C   0  0  0  0  0  0  0  0  0  0  0  0
    6.7357    1.7931   -0.7949 C   0  0  0  0  0  0  0  0  0  0  0  0
    8.0993    2.0966   -1.3404 C   0  0  0  0  0  0  0  0  0  0  0  0
    6.1692    0.5270   -0.9602 C   0  0  0  0  0  0  0  0  0  0  0  0
    4.9092    0.2396   -0.4273 C   0  0  0  0  0  0  0  0  0  0  0  0
    2.2750   -0.2247    0.3271 N   0  0  0  0  0  0  0  0  0  0  0  0
    1.0349   -0.1556    0.8149 C   0  0  0  0  0  0  0  0  0  0  0  0
   -0.0664   -1.0558    0.5062 C   0  0  0  0  0  0  0  0  0  0  0  0
    0.0054   -1.9821   -0.3007 O   0  0  0  0  0  0  0  0  0  0  0  0
   -5.2227   -2.5976    2.7764 H   0  0  0  0  0  0  0  0  0  0  0  0
   -4.1467   -3.5909    1.7799 H   0  0  0  0  0  0  0  0  0  0  0  0
   -5.2016   -2.3752    1.0266 H   0  0  0  0  0  0  0  0  0  0  0  0
   -2.9769   -1.7350    3.0224 H   0  0  0  0  0  0  0  0  0  0  0  0
   -3.9487   -0.5549    2.1444 H   0  0  0  0  0  0  0  0  0  0  0  0
   -2.1066   -2.5898    0.7692 H   0  0  0  0  0  0  0  0  0  0  0  0
   -3.4752   -2.9678   -0.8761 H   0  0  0  0  0  0  0  0  0  0  0  0
   -4.1700    0.3125   -2.6267 H   0  0  0  0  0  0  0  0  0  0  0  0
   -6.1150   -1.7261   -5.8373 H   0  0  0  0  0  0  0  0  0  0  0  0
   -5.7054   -3.9310   -4.7144 H   0  0  0  0  0  0  0  0  0  0  0  0
   -0.0813    2.0105    4.2941 H   0  0  0  0  0  0  0  0  0  0  0  0
   -1.6628    2.3511    3.5656 H   0  0  0  0  0  0  0  0  0  0  0  0
   -0.2177    3.1706    2.9401 H   0  0  0  0  0  0  0  0  0  0  0  0
    2.4638    3.5315    2.3535 H   0  0  0  0  0  0  0  0  0  0  0  0
    3.6930    2.3962    2.9846 H   0  0  0  0  0  0  0  0  0  0  0  0
    2.1153    2.4604    3.7159 H   0  0  0  0  0  0  0  0  0  0  0  0
    4.2429    3.2906    0.9476 H   0  0  0  0  0  0  0  0  0  0  0  0
    6.4501    3.7555    0.0596 H   0  0  0  0  0  0  0  0  0  0  0  0
    8.1632    3.1395   -1.6682 H   0  0  0  0  0  0  0  0  0  0  0  0
    8.3239    1.4692   -2.2095 H   0  0  0  0  0  0  0  0  0  0  0  0
    8.8579    1.9181   -0.5721 H   0  0  0  0  0  0  0  0  0  0  0  0
    6.7000   -0.2484   -1.5090 H   0  0  0  0  0  0  0  0  0  0  0  0
    4.4965   -0.7564   -0.5839 H   0  0  0  0  0  0  0  0  0  0  0  0
  1  2  1  0
  2  3  1  0
  3  4  1  0
  4  5  2  0
  4  6  1  0
  6  7  1  0
  7  8  2  0
  8  9  1  0
  9 10  1  0
  9 11  2  0
 11 12  1  0
 12 13  2  0
 13 14  1  0
  3 15  1  0
 15 16  1  0
 16 17  2  0
 17 18  1  0
 17 19  1  0
 19 20  2  0
 20 21  1  0
 20 22  1  0
 22 23  1  0
 23 24  2  0
 24 25  1  0
 25 26  2  0
 26 27  1  0
 26 28  1  0
 28 29  2  0
 22 30  1  0
 30 31  2  0
 31 32  1  0
 32 33  2  0
 13  7  1  0
 32 15  1  0
 31 19  1  0
 29 23  1  0
  1 34  1  0
  1 35  1  0
  1 36  1  0
  2 37  1  0
  2 38  1  0
  3 39  1  0
  6 40  1  0
  8 41  1  0
 11 42  1  0
 12 43  1  0
 18 44  1  0
 18 45  1  0
 18 46  1  0
 21 47  1  0
 21 48  1  0
 21 49  1  0
 24 50  1  0
 25 51  1  0
 27 52  1  0
 27 53  1  0
 27 54  1  0
 28 55  1  0
 29 56  1  0
M  END
$$$$
