
     RDKit          3D

 68 70  0  0  0  0  0  0  0  0999 V2000
   -4.9195    5.5861   -0.6356 C   0  0  0  0  0  0  0  0  0  0  0  0
   -4.7267    4.6348    0.4034 O   0  0  0  0  0  0  0  0  0  0  0  0
   -3.9724    3.5339    0.1059 C   0  0  0  0  0  0  0  0  0  0  0  0
   -3.8327    2.6210    1.1525 C   0  0  0  0  0  0  0  0  0  0  0  0
   -3.0856    1.4519    0.9889 C   0  0  0  0  0  0  0  0  0  0  0  0
   -2.4597    1.1747   -0.2353 C   0  0  0  0  0  0  0  0  0  0  0  0
   -1.6101   -0.0802   -0.4472 C   0  0  0  0  0  0  0  0  0  0  0  0
   -2.2238   -1.3598    0.2067 C   0  0  0  0  0  0  0  0  0  0  0  0
   -1.6048   -2.0875    0.9804 O   0  0  0  0  0  0  0  0  0  0  0  0
   -3.5292   -1.6283   -0.1860 N   0  0  0  0  0  0  0  0  0  0  0  0
   -4.3440   -2.7453    0.3162 C   0  0  0  0  0  0  0  0  0  0  0  0
   -5.7104   -2.6916   -0.3920 C   0  0  0  0  0  0  0  0  0  0  0  0
   -3.6917   -4.1001   -0.0048 C   0  0  0  0  0  0  0  0  0  0  0  0
   -4.5760   -2.6125    1.8302 C   0  0  0  0  0  0  0  0  0  0  0  0
   -0.1775    0.0948   -0.1119 N   0  0  0  0  0  0  0  0  0  0  0  0
    0.7337   -0.6870   -0.8272 C   0  0  0  0  0  0  0  0  0  0  0  0
    0.3923   -1.3794   -1.7892 O   0  0  0  0  0  0  0  0  0  0  0  0
    2.1923   -0.6187   -0.3998 C   0  0  0  0  0  0  0  0  0  0  0  0
    3.1166   -1.2017   -1.4660 C   0  0  0  0  0  0  0  0  0  0  0  0
    4.5731   -1.0172   -1.0891 C   0  0  0  0  0  0  0  0  0  0  0  0
    4.9190   -0.6913    0.0426 O   0  0  0  0  0  0  0  0  0  0  0  0
    5.4181   -1.2703   -2.1464 N   0  0  0  0  0  0  0  0  0  0  0  0
    6.7888   -1.1398   -2.1106 C   0  0  0  0  0  0  0  0  0  0  0  0
    7.6280   -0.7891   -1.0303 C   0  0  0  0  0  0  0  0  0  0  0  0
    8.8944   -0.7954   -1.5595 C   0  0  0  0  0  0  0  0  0  0  0  0
   10.2368   -0.5215   -1.0198 C   0  0  0  0  0  0  0  0  0  0  0  0
    8.8245   -1.1286   -2.8763 O   0  0  0  0  0  0  0  0  0  0  0  0
    7.5032   -1.3452   -3.2247 N   0  0  0  0  0  0  0  0  0  0  0  0
    0.1639    0.7030    1.1258 C   0  0  0  0  0  0  0  0  0  0  0  0
    0.4214   -0.0692    2.2648 C   0  0  0  0  0  0  0  0  0  0  0  0
    0.7771    0.5465    3.4670 C   0  0  0  0  0  0  0  0  0  0  0  0
    0.8838    1.9337    3.5323 C   0  0  0  0  0  0  0  0  0  0  0  0
    0.6352    2.6935    2.3955 C   0  0  0  0  0  0  0  0  0  0  0  0
    0.7521    4.0259    2.4569 F   0  0  0  0  0  0  0  0  0  0  0  0
    0.2776    2.0937    1.1936 C   0  0  0  0  0  0  0  0  0  0  0  0
   -2.5950    2.1035   -1.2809 C   0  0  0  0  0  0  0  0  0  0  0  0
   -3.3501    3.2703   -1.1132 C   0  0  0  0  0  0  0  0  0  0  0  0
   -5.5294    6.4005   -0.2324 H   0  0  0  0  0  0  0  0  0  0  0  0
   -5.4664    5.1453   -1.4755 H   0  0  0  0  0  0  0  0  0  0  0  0
   -3.9687    6.0165   -0.9634 H   0  0  0  0  0  0  0  0  0  0  0  0
   -4.3042    2.8269    2.1114 H   0  0  0  0  0  0  0  0  0  0  0  0
   -2.9848    0.7742    1.8361 H   0  0  0  0  0  0  0  0  0  0  0  0
   -1.6619   -0.2967   -1.5245 H   0  0  0  0  0  0  0  0  0  0  0  0
   -4.0110   -0.9044   -0.7069 H   0  0  0  0  0  0  0  0  0  0  0  0
   -5.5961   -2.7595   -1.4802 H   0  0  0  0  0  0  0  0  0  0  0  0
   -6.3610   -3.5114   -0.0671 H   0  0  0  0  0  0  0  0  0  0  0  0
   -6.2268   -1.7486   -0.1788 H   0  0  0  0  0  0  0  0  0  0  0  0
   -2.7450   -4.2412    0.5275 H   0  0  0  0  0  0  0  0  0  0  0  0
   -3.4789   -4.1895   -1.0766 H   0  0  0  0  0  0  0  0  0  0  0  0
   -4.3481   -4.9303    0.2794 H   0  0  0  0  0  0  0  0  0  0  0  0
   -3.6416   -2.6861    2.3972 H   0  0  0  0  0  0  0  0  0  0  0  0
   -5.0270   -1.6421    2.0728 H   0  0  0  0  0  0  0  0  0  0  0  0
   -5.2451   -3.3978    2.2011 H   0  0  0  0  0  0  0  0  0  0  0  0
    2.3125   -1.1848    0.5307 H   0  0  0  0  0  0  0  0  0  0  0  0
    2.4698    0.4259   -0.2177 H   0  0  0  0  0  0  0  0  0  0  0  0
    2.9340   -0.7120   -2.4299 H   0  0  0  0  0  0  0  0  0  0  0  0
    2.9284   -2.2740   -1.5905 H   0  0  0  0  0  0  0  0  0  0  0  0
    5.0508   -1.5203   -3.0567 H   0  0  0  0  0  0  0  0  0  0  0  0
    7.3553   -0.5673   -0.0079 H   0  0  0  0  0  0  0  0  0  0  0  0
   10.1928   -0.3084    0.0534 H   0  0  0  0  0  0  0  0  0  0  0  0
   10.6807    0.3453   -1.5202 H   0  0  0  0  0  0  0  0  0  0  0  0
   10.8958   -1.3819   -1.1704 H   0  0  0  0  0  0  0  0  0  0  0  0
    0.3420   -1.1536    2.2309 H   0  0  0  0  0  0  0  0  0  0  0  0
    0.9725   -0.0589    4.3484 H   0  0  0  0  0  0  0  0  0  0  0  0
    1.1648    2.4250    4.4581 H   0  0  0  0  0  0  0  0  0  0  0  0
    0.1008    2.7177    0.3240 H   0  0  0  0  0  0  0  0  0  0  0  0
   -2.1038    1.9289   -2.2374 H   0  0  0  0  0  0  0  0  0  0  0  0
   -3.4232    3.9554   -1.9518 H   0  0  0  0  0  0  0  0  0  0  0  0
  1  2  1  0
  2  3  1  0
  3  4  2  0
  4  5  1  0
  5  6  2  0
  6  7  1  0
  7  8  1  0
  8  9  2  0
  8 10  1  0
 10 11  1  0
 11 12  1  0
 11 13  1  0
 11 14  1  0
  7 15  1  0
 15 16  1  0
 16 17  2  0
 16 18  1  0
 18 19  1  0
 19 20  1  0
 20 21  2  0
 20 22  1  0
 22 23  1  0
 23 24  1  0
 24 25  2  0
 25 26  1  0
 25 27  1  0
 27 28  1  0
 15 29  1  0
 29 30  2  0
 30 31  1  0
 31 32  2  0
 32 33  1  0
 33 34  1  0
 33 35  2  0
  6 36  1  0
 36 37  2  0
 37  3  1  0
 28 23  2  0
 35 29  1  0
  1 38  1  0
  1 39  1  0
  1 40  1  0
  4 41  1  0
  5 42  1  0
  7 43  1  0
 10 44  1  0
 12 45  1  0
 12 46  1  0
 12 47  1  0
 13 48  1  0
 13 49  1  0
 13 50  1  0
 14 51  1  0
 14 52  1  0
 14 53  1  0
 18 54  1  0
 18 55  1  0
 19 56  1  0
 19 57  1  0
 22 58  1  0
 24 59  1  0
 26 60  1  0
 26 61  1  0
 26 62  1  0
 30 63  1  0
 31 64  1  0
 32 65  1  0
 35 66  1  0
 36 67  1  0
 37 68  1  0
M  END
$$$$
