
     RDKit          3D

 56 61  0  0  0  0  0  0  0  0999 V2000
    9.9000    1.3160   -0.8699 C   0  0  0  0  0  0  0  0  0  0  0  0
    9.5941    0.5602    0.2963 O   0  0  0  0  0  0  0  0  0  0  0  0
    8.2954    0.1600    0.4514 C   0  0  0  0  0  0  0  0  0  0  0  0
    8.0533   -0.5957    1.5958 C   0  0  0  0  0  0  0  0  0  0  0  0
    6.7705   -1.0644    1.8696 C   0  0  0  0  0  0  0  0  0  0  0  0
    5.7140   -0.7767    0.9942 C   0  0  0  0  0  0  0  0  0  0  0  0
    4.4155   -1.2412    1.2572 C   0  0  0  0  0  0  0  0  0  0  0  0
    3.4101   -0.9133    0.3393 C   0  0  0  0  0  0  0  0  0  0  0  0
    2.0207   -1.1605    0.2089 C   0  0  0  0  0  0  0  0  0  0  0  0
    1.6124   -0.5345   -0.9566 C   0  0  0  0  0  0  0  0  0  0  0  0
    0.3311   -0.4541   -1.6302 C   0  0  0  0  0  0  0  0  0  0  0  0
    0.2107   -0.7889   -2.8086 O   0  0  0  0  0  0  0  0  0  0  0  0
   -0.7759    0.0021   -0.8997 N   0  0  0  0  0  0  0  0  0  0  0  0
   -0.7377    0.4091    0.5088 C   0  0  0  0  0  0  0  0  0  0  0  0
   -1.8235    1.4420    0.8721 C   0  0  0  0  0  0  0  0  0  0  0  0
   -3.1845    1.1061    0.4132 N   0  0  0  0  0  0  0  0  0  0  0  0
   -3.7531   -0.0130    1.1800 C   0  0  0  0  0  0  0  0  0  0  0  0
   -5.2275   -0.2337    0.9091 C   0  0  0  0  0  0  0  0  0  0  0  0
   -5.6851   -1.4750    0.4074 C   0  0  0  0  0  0  0  0  0  0  0  0
   -7.0443   -1.6940    0.1597 C   0  0  0  0  0  0  0  0  0  0  0  0
   -7.9188   -0.6625    0.4230 C   0  0  0  0  0  0  0  0  0  0  0  0
   -7.4863    0.5468    0.9124 C   0  0  0  0  0  0  0  0  0  0  0  0
   -6.1538    0.7926    1.1660 C   0  0  0  0  0  0  0  0  0  0  0  0
   -8.5072    1.4248    1.1028 O   0  0  0  0  0  0  0  0  0  0  0  0
   -9.6310    0.6308    0.6704 C   0  0  0  0  0  0  0  0  0  0  0  0
   -9.2662   -0.6983    0.2433 O   0  0  0  0  0  0  0  0  0  0  0  0
   -3.1349    0.8487   -1.0420 C   0  0  0  0  0  0  0  0  0  0  0  0
   -2.1067   -0.2106   -1.4776 C   0  0  0  0  0  0  0  0  0  0  0  0
    2.6889    0.0599   -1.5572 O   0  0  0  0  0  0  0  0  0  0  0  0
    3.7750   -0.1579   -0.7681 C   0  0  0  0  0  0  0  0  0  0  0  0
    4.9975    0.3108   -1.0604 N   0  0  0  0  0  0  0  0  0  0  0  0
    5.9473   -0.0088   -0.1730 C   0  0  0  0  0  0  0  0  0  0  0  0
    7.2382    0.4431   -0.4168 C   0  0  0  0  0  0  0  0  0  0  0  0
   10.9698    1.5446   -0.8485 H   0  0  0  0  0  0  0  0  0  0  0  0
    9.7010    0.7377   -1.7783 H   0  0  0  0  0  0  0  0  0  0  0  0
    9.3563    2.2665   -0.8776 H   0  0  0  0  0  0  0  0  0  0  0  0
    8.8703   -0.8212    2.2773 H   0  0  0  0  0  0  0  0  0  0  0  0
    6.6059   -1.6537    2.7686 H   0  0  0  0  0  0  0  0  0  0  0  0
    4.1916   -1.8344    2.1379 H   0  0  0  0  0  0  0  0  0  0  0  0
    1.3930   -1.7381    0.8721 H   0  0  0  0  0  0  0  0  0  0  0  0
    0.2380    0.8422    0.7477 H   0  0  0  0  0  0  0  0  0  0  0  0
   -0.8602   -0.4986    1.1106 H   0  0  0  0  0  0  0  0  0  0  0  0
   -1.5478    2.4047    0.4211 H   0  0  0  0  0  0  0  0  0  0  0  0
   -1.8187    1.6163    1.9551 H   0  0  0  0  0  0  0  0  0  0  0  0
   -3.6677    0.1991    2.2545 H   0  0  0  0  0  0  0  0  0  0  0  0
   -3.1984   -0.9441    1.0146 H   0  0  0  0  0  0  0  0  0  0  0  0
   -4.9789   -2.2776    0.2050 H   0  0  0  0  0  0  0  0  0  0  0  0
   -7.4009   -2.6420   -0.2266 H   0  0  0  0  0  0  0  0  0  0  0  0
   -5.8318    1.7575    1.5444 H   0  0  0  0  0  0  0  0  0  0  0  0
  -10.3420    0.5489    1.5005 H   0  0  0  0  0  0  0  0  0  0  0  0
  -10.1229    1.1443   -0.1638 H   0  0  0  0  0  0  0  0  0  0  0  0
   -4.1247    0.5829   -1.4299 H   0  0  0  0  0  0  0  0  0  0  0  0
   -2.8806    1.7965   -1.5355 H   0  0  0  0  0  0  0  0  0  0  0  0
   -2.0516   -0.2206   -2.5714 H   0  0  0  0  0  0  0  0  0  0  0  0
   -2.4311   -1.2104   -1.1661 H   0  0  0  0  0  0  0  0  0  0  0  0
    7.3929    1.0300   -1.3171 H   0  0  0  0  0  0  0  0  0  0  0  0
  1  2  1  0
  2  3  1  0
  3  4  2  0
  4  5  1  0
  5  6  2  0
  6  7  1  0
  7  8  2  0
  8  9  1  0
  9 10  2  0
 10 11  1  0
 11 12  2  0
 11 13  1  0
 13 14  1  0
 14 15  1  0
 15 16  1  0
 16 17  1  0
 17 18  1  0
 18 19  2  0
 19 20  1  0
 20 21  2  0
 21 22  1  0
 22 23  2  0
 22 24  1  0
 24 25  1  0
 25 26  1  0
 16 27  1  0
 27 28  1  0
 10 29  1  0
 29 30  1  0
 30 31  2  0
 31 32  1  0
 32 33  2  0
 33  3  1  0
 32  6  1  0
 30  8  1  0
 28 13  1  0
 23 18  1  0
 26 21  1  0
  1 34  1  0
  1 35  1  0
  1 36  1  0
  4 37  1  0
  5 38  1  0
  7 39  1  0
  9 40  1  0
 14 41  1  0
 14 42  1  0
 15 43  1  0
 15 44  1  0
 17 45  1  0
 17 46  1  0
 19 47  1  0
 20 48  1  0
 23 49  1  0
 25 50  1  0
 25 51  1  0
 27 52  1  0
 27 53  1  0
 28 54  1  0
 28 55  1  0
 33 56  1  0
M  END
$$$$
