
     RDKit          3D

 61 67  0  0  0  0  0  0  0  0999 V2000
    2.8784    2.1571   -1.5328 O   0  0  0  0  0  0  0  0  0  0  0  0
    2.8638    1.5107   -0.4885 C   0  0  0  0  0  0  0  0  0  0  0  0
    4.1507    0.9712    0.0027 C   0  0  0  0  0  0  0  0  0  0  0  0
    4.5861    1.2575    1.3150 C   0  0  0  0  0  0  0  0  0  0  0  0
    5.8113    0.7646    1.7725 C   0  0  0  0  0  0  0  0  0  0  0  0
    6.5649    0.0116    0.8957 C   0  0  0  0  0  0  0  0  0  0  0  0
    6.1459   -0.2481   -0.3903 C   0  0  0  0  0  0  0  0  0  0  0  0
    4.9460    0.2250   -0.8747 C   0  0  0  0  0  0  0  0  0  0  0  0
    7.0412   -1.0016   -1.0841 O   0  0  0  0  0  0  0  0  0  0  0  0
    8.0752   -1.1789   -0.0933 C   0  0  0  0  0  0  0  0  0  0  0  0
    7.7752   -0.5455    1.1684 O   0  0  0  0  0  0  0  0  0  0  0  0
    1.7077    1.2741    0.2598 N   0  0  0  0  0  0  0  0  0  0  0  0
    1.5145    0.0824    1.0787 C   0  0  0  0  0  0  0  0  0  0  0  0
    0.7908   -0.9834    0.2576 C   0  0  0  0  0  0  0  0  0  0  0  0
   -0.5617   -0.5050   -0.3625 C   0  0  0  0  0  0  0  0  0  0  0  0
   -0.3162    0.8721   -1.0499 C   0  0  0  0  0  0  0  0  0  0  0  0
    0.4652    1.8724   -0.2029 C   0  0  0  0  0  0  0  0  0  0  0  0
   -0.8913   -1.3927   -1.4731 O   0  0  0  0  0  0  0  0  0  0  0  0
   -1.3295   -2.6431   -1.1409 C   0  0  0  0  0  0  0  0  0  0  0  0
   -1.2631   -3.6082   -2.1464 C   0  0  0  0  0  0  0  0  0  0  0  0
   -1.6784   -4.9150   -1.8844 C   0  0  0  0  0  0  0  0  0  0  0  0
   -2.1613   -5.2437   -0.6210 C   0  0  0  0  0  0  0  0  0  0  0  0
   -2.5579   -6.4989   -0.3752 F   0  0  0  0  0  0  0  0  0  0  0  0
   -2.2468   -4.2902    0.3853 C   0  0  0  0  0  0  0  0  0  0  0  0
   -1.8374   -2.9828    0.1129 C   0  0  0  0  0  0  0  0  0  0  0  0
   -1.9543   -1.9299    1.1386 C   0  0  0  0  0  0  0  0  0  0  0  0
   -2.2357   -2.2380    2.2922 O   0  0  0  0  0  0  0  0  0  0  0  0
   -1.7547   -0.4996    0.6408 C   0  0  0  0  0  0  0  0  0  0  0  0
   -3.0935   -0.0358    0.0718 C   0  0  0  0  0  0  0  0  0  0  0  0
   -3.2093    1.2797    0.7551 C   0  0  0  0  0  0  0  0  0  0  0  0
   -4.2560    2.2639    0.3928 C   0  0  0  0  0  0  0  0  0  0  0  0
   -4.2613    3.5130    1.0267 C   0  0  0  0  0  0  0  0  0  0  0  0
   -5.2307    4.4632    0.7010 C   0  0  0  0  0  0  0  0  0  0  0  0
   -6.1981    4.1708   -0.2585 C   0  0  0  0  0  0  0  0  0  0  0  0
   -6.1989    2.9287   -0.8923 C   0  0  0  0  0  0  0  0  0  0  0  0
   -5.2320    1.9736   -0.5675 C   0  0  0  0  0  0  0  0  0  0  0  0
   -2.3323    1.4876    1.6825 N   0  0  0  0  0  0  0  0  0  0  0  0
   -1.5055    0.3447    1.7637 O   0  0  0  0  0  0  0  0  0  0  0  0
    3.9705    1.8695    1.9708 H   0  0  0  0  0  0  0  0  0  0  0  0
    6.1629    0.9709    2.7776 H   0  0  0  0  0  0  0  0  0  0  0  0
    4.6329    0.0289   -1.8943 H   0  0  0  0  0  0  0  0  0  0  0  0
    8.2147   -2.2524    0.0791 H   0  0  0  0  0  0  0  0  0  0  0  0
    9.0106   -0.7606   -0.4830 H   0  0  0  0  0  0  0  0  0  0  0  0
    0.9501    0.3664    1.9715 H   0  0  0  0  0  0  0  0  0  0  0  0
    2.4652   -0.3310    1.4210 H   0  0  0  0  0  0  0  0  0  0  0  0
    1.4510   -1.3011   -0.5624 H   0  0  0  0  0  0  0  0  0  0  0  0
    0.6578   -1.8773    0.8761 H   0  0  0  0  0  0  0  0  0  0  0  0
   -1.2548    1.3240   -1.3867 H   0  0  0  0  0  0  0  0  0  0  0  0
    0.2510    0.6947   -1.9757 H   0  0  0  0  0  0  0  0  0  0  0  0
    0.6716    2.7724   -0.7932 H   0  0  0  0  0  0  0  0  0  0  0  0
   -0.0946    2.2006    0.6751 H   0  0  0  0  0  0  0  0  0  0  0  0
   -0.8774   -3.3470   -3.1295 H   0  0  0  0  0  0  0  0  0  0  0  0
   -1.6258   -5.6786   -2.6548 H   0  0  0  0  0  0  0  0  0  0  0  0
   -2.6361   -4.5689    1.3602 H   0  0  0  0  0  0  0  0  0  0  0  0
   -3.1006    0.0581   -1.0165 H   0  0  0  0  0  0  0  0  0  0  0  0
   -3.9368   -0.6637    0.3806 H   0  0  0  0  0  0  0  0  0  0  0  0
   -3.5141    3.7540    1.7805 H   0  0  0  0  0  0  0  0  0  0  0  0
   -5.2319    5.4293    1.2002 H   0  0  0  0  0  0  0  0  0  0  0  0
   -6.9529    4.9115   -0.5114 H   0  0  0  0  0  0  0  0  0  0  0  0
   -6.9573    2.7032   -1.6386 H   0  0  0  0  0  0  0  0  0  0  0  0
   -5.2671    1.0137   -1.0744 H   0  0  0  0  0  0  0  0  0  0  0  0
  1  2  2  0
  2  3  1  0
  3  4  2  0
  4  5  1  0
  5  6  2  0
  6  7  1  0
  7  8  2  0
  7  9  1  0
  9 10  1  0
 10 11  1  0
  2 12  1  0
 12 13  1  0
 13 14  1  0
 14 15  1  0
 15 16  1  0
 16 17  1  0
 15 18  1  0
 18 19  1  0
 19 20  2  0
 20 21  1  0
 21 22  2  0
 22 23  1  0
 22 24  1  0
 24 25  2  0
 25 26  1  0
 26 27  2  0
 26 28  1  0
 28 29  1  0
 29 30  1  0
 30 31  1  0
 31 32  2  0
 32 33  1  0
 33 34  2  0
 34 35  1  0
 35 36  2  0
 30 37  2  0
 37 38  1  0
  8  3  1  0
 17 12  1  0
 25 19  1  0
 38 28  1  0
 11  6  1  0
 28 15  1  0
 36 31  1  0
  4 39  1  0
  5 40  1  0
  8 41  1  0
 10 42  1  0
 10 43  1  0
 13 44  1  0
 13 45  1  0
 14 46  1  0
 14 47  1  0
 16 48  1  0
 16 49  1  0
 17 50  1  0
 17 51  1  0
 20 52  1  0
 21 53  1  0
 24 54  1  0
 29 55  1  0
 29 56  1  0
 32 57  1  0
 33 58  1  0
 34 59  1  0
 35 60  1  0
 36 61  1  0
M  END
$$$$
