
     RDKit          3D

 33 34  0  0  0  0  0  0  0  0999 V2000
   -2.4135   -1.5695   -0.2260 C   0  0  0  0  0  0  0  0  0  0  0  0
   -2.4690   -0.1593   -0.7986 C   0  0  0  0  0  0  0  0  0  0  0  0
   -1.4895    0.7713   -0.2037 N   0  0  0  0  0  0  0  0  0  0  0  0
   -1.7172    1.1999    1.1860 C   0  0  0  0  0  0  0  0  0  0  0  0
   -2.8719    2.1925    1.2552 C   0  0  0  0  0  0  0  0  0  0  0  0
   -0.1435    0.4751   -0.5608 C   0  0  0  0  0  0  0  0  0  0  0  0
    0.2358    0.8760   -1.8598 C   0  0  0  0  0  0  0  0  0  0  0  0
    1.5199    0.6632   -2.3306 C   0  0  0  0  0  0  0  0  0  0  0  0
    2.4371    0.0381   -1.4879 C   0  0  0  0  0  0  0  0  0  0  0  0
    3.7741   -0.1533   -2.0191 N   0  0  0  0  0  4  0  0  0  0  0  0
    4.7049    0.4221   -1.4402 O   0  0  0  0  0  0  0  0  0  0  0  0
    3.8812   -0.8653   -3.0264 O   0  0  0  0  0  1  0  0  0  0  0  0
    2.1095   -0.4063   -0.1818 C   0  0  0  0  0  0  0  0  0  0  0  0
    3.0104   -1.0809    0.6818 C   0  0  0  0  0  0  0  0  0  0  0  0
    2.6136   -1.5039    1.9414 C   0  0  0  0  0  0  0  0  0  0  0  0
    1.3176   -1.2492    2.3145 C   0  0  0  0  0  0  0  0  0  0  0  0
    0.4282   -0.6146    1.5245 N   0  0  0  0  0  0  0  0  0  0  0  0
    0.7927   -0.1826    0.2911 C   0  0  0  0  0  0  0  0  0  0  0  0
   -2.5818   -1.5767    0.8547 H   0  0  0  0  0  0  0  0  0  0  0  0
   -3.1903   -2.1882   -0.6872 H   0  0  0  0  0  0  0  0  0  0  0  0
   -1.4505   -2.0496   -0.4240 H   0  0  0  0  0  0  0  0  0  0  0  0
   -3.4794    0.2387   -0.6545 H   0  0  0  0  0  0  0  0  0  0  0  0
   -2.3325   -0.2081   -1.8863 H   0  0  0  0  0  0  0  0  0  0  0  0
   -1.9295    0.3520    1.8452 H   0  0  0  0  0  0  0  0  0  0  0  0
   -0.8346    1.7220    1.5774 H   0  0  0  0  0  0  0  0  0  0  0  0
   -3.8247    1.7239    0.9917 H   0  0  0  0  0  0  0  0  0  0  0  0
   -2.7084    3.0337    0.5733 H   0  0  0  0  0  0  0  0  0  0  0  0
   -2.9674    2.5889    2.2712 H   0  0  0  0  0  0  0  0  0  0  0  0
   -0.4896    1.3831   -2.4936 H   0  0  0  0  0  0  0  0  0  0  0  0
    1.7945    0.9878   -3.3312 H   0  0  0  0  0  0  0  0  0  0  0  0
    4.0365   -1.2877    0.3826 H   0  0  0  0  0  0  0  0  0  0  0  0
    3.2980   -2.0179    2.6064 H   0  0  0  0  0  0  0  0  0  0  0  0
    0.9394   -1.5552    3.2854 H   0  0  0  0  0  0  0  0  0  0  0  0
  1  2  1  0
  2  3  1  0
  3  4  1  0
  4  5  1  0
  3  6  1  0
  6  7  2  0
  7  8  1  0
  8  9  2  0
  9 10  1  0
 10 11  2  0
 10 12  1  0
  9 13  1  0
 13 14  2  0
 14 15  1  0
 15 16  2  0
 16 17  1  0
 17 18  2  0
 18  6  1  0
 18 13  1  0
  1 19  1  0
  1 20  1  0
  1 21  1  0
  2 22  1  0
  2 23  1  0
  4 24  1  0
  4 25  1  0
  5 26  1  0
  5 27  1  0
  5 28  1  0
  7 29  1  0
  8 30  1  0
 14 31  1  0
 15 32  1  0
 16 33  1  0
M  CHG  2  10   1  12  -1
M  END
$$$$
