
     RDKit          3D

 56 59  0  0  0  0  0  0  0  0999 V2000
   -5.4033    1.5897    2.2353 C   0  0  0  0  0  0  0  0  0  0  0  0
   -3.9836    1.6713    1.6859 C   0  0  0  0  0  0  0  0  0  0  0  0
   -3.4502    0.3035    1.2335 C   0  0  0  0  0  0  0  0  0  0  0  0
   -3.9291   -0.1222   -0.1745 C   0  0  0  0  0  0  0  0  0  0  0  0
   -4.9343    0.3461   -0.7006 O   0  0  0  0  0  0  0  0  0  0  0  0
   -3.1994   -1.1937   -0.6694 N   0  0  0  0  0  0  0  0  0  0  0  0
   -3.3459   -1.8613   -1.9001 C   0  0  0  0  0  0  0  0  0  0  0  0
   -4.2940   -1.5315   -2.8670 C   0  0  0  0  0  0  0  0  0  0  0  0
   -4.3461   -2.2605   -4.0549 C   0  0  0  0  0  0  0  0  0  0  0  0
   -5.2592   -1.9426   -4.9820 F   0  0  0  0  0  0  0  0  0  0  0  0
   -3.4696   -3.3139   -4.3020 C   0  0  0  0  0  0  0  0  0  0  0  0
   -2.5175   -3.6491   -3.3437 C   0  0  0  0  0  0  0  0  0  0  0  0
   -2.4633   -2.9221   -2.1570 C   0  0  0  0  0  0  0  0  0  0  0  0
   -1.5391   -3.2491   -1.2385 F   0  0  0  0  0  0  0  0  0  0  0  0
   -1.9764    0.1888    1.3002 N   0  0  0  0  0  0  0  0  0  0  0  0
   -1.4946   -0.9808    1.9142 N   0  0  0  0  0  0  0  0  0  0  0  0
   -0.2150   -1.2152    2.0166 C   0  0  0  0  0  0  0  0  0  0  0  0
    0.2271   -2.4813    2.6932 C   0  0  0  0  0  0  0  0  0  0  0  0
    0.7221   -0.2644    1.4751 C   0  0  0  0  0  0  0  0  0  0  0  0
    2.1035   -0.1647    1.4753 C   0  0  0  0  0  0  0  0  0  0  0  0
    3.1165   -0.9763    2.1987 C   0  0  0  0  0  0  0  0  0  0  0  0
    2.3955    0.9454    0.6721 N   0  0  0  0  0  0  0  0  0  0  0  0
    3.6378    1.4083    0.1375 C   0  0  0  0  0  0  0  0  0  0  0  0
    3.7152    2.7211   -0.3570 C   0  0  0  0  0  0  0  0  0  0  0  0
    4.9082    3.2138   -0.8941 C   0  0  0  0  0  0  0  0  0  0  0  0
    6.0454    2.4044   -0.9533 C   0  0  0  0  0  0  0  0  0  0  0  0
    7.3144    2.9209   -1.5635 C   0  0  0  0  0  0  0  0  0  0  0  0
    5.9595    1.0843   -0.4998 C   0  0  0  0  0  0  0  0  0  0  0  0
    4.7664    0.5875    0.0402 C   0  0  0  0  0  0  0  0  0  0  0  0
    1.2637    1.6452    0.3870 N   0  0  0  0  0  0  0  0  0  0  0  0
    0.2604    0.8778    0.8150 C   0  0  0  0  0  0  0  0  0  0  0  0
   -1.1623    1.1563    0.6680 C   0  0  0  0  0  0  0  0  0  0  0  0
   -1.6036    2.1205    0.0504 O   0  0  0  0  0  0  0  0  0  0  0  0
   -6.1075    1.2266    1.4814 H   0  0  0  0  0  0  0  0  0  0  0  0
   -5.4506    0.9197    3.0998 H   0  0  0  0  0  0  0  0  0  0  0  0
   -5.7383    2.5804    2.5590 H   0  0  0  0  0  0  0  0  0  0  0  0
   -3.9727    2.3895    0.8584 H   0  0  0  0  0  0  0  0  0  0  0  0
   -3.3407    2.0782    2.4762 H   0  0  0  0  0  0  0  0  0  0  0  0
   -3.8449   -0.4573    1.9219 H   0  0  0  0  0  0  0  0  0  0  0  0
   -2.4506   -1.5301   -0.0645 H   0  0  0  0  0  0  0  0  0  0  0  0
   -5.0016   -0.7202   -2.7366 H   0  0  0  0  0  0  0  0  0  0  0  0
   -3.5371   -3.8603   -5.2374 H   0  0  0  0  0  0  0  0  0  0  0  0
   -1.8213   -4.4640   -3.5111 H   0  0  0  0  0  0  0  0  0  0  0  0
    0.9936   -2.9831    2.0971 H   0  0  0  0  0  0  0  0  0  0  0  0
    0.6249   -2.2456    3.6837 H   0  0  0  0  0  0  0  0  0  0  0  0
   -0.6203   -3.1630    2.8133 H   0  0  0  0  0  0  0  0  0  0  0  0
    2.7086   -1.3603    3.1383 H   0  0  0  0  0  0  0  0  0  0  0  0
    3.9910   -0.3836    2.4823 H   0  0  0  0  0  0  0  0  0  0  0  0
    3.4323   -1.8325    1.5951 H   0  0  0  0  0  0  0  0  0  0  0  0
    2.8507    3.3837   -0.3250 H   0  0  0  0  0  0  0  0  0  0  0  0
    4.9375    4.2352   -1.2681 H   0  0  0  0  0  0  0  0  0  0  0  0
    8.1883    2.4318   -1.1203 H   0  0  0  0  0  0  0  0  0  0  0  0
    7.3140    2.7350   -2.6419 H   0  0  0  0  0  0  0  0  0  0  0  0
    7.4217    3.9966   -1.3892 H   0  0  0  0  0  0  0  0  0  0  0  0
    6.8220    0.4250   -0.5768 H   0  0  0  0  0  0  0  0  0  0  0  0
    4.7515   -0.4578    0.3234 H   0  0  0  0  0  0  0  0  0  0  0  0
  1  2  1  0
  2  3  1  0
  3  4  1  0
  4  5  2  0
  4  6  1  0
  6  7  1  0
  7  8  2  0
  8  9  1  0
  9 10  1  0
  9 11  2  0
 11 12  1  0
 12 13  2  0
 13 14  1  0
  3 15  1  0
 15 16  1  0
 16 17  2  0
 17 18  1  0
 17 19  1  0
 19 20  2  0
 20 21  1  0
 20 22  1  0
 22 23  1  0
 23 24  2  0
 24 25  1  0
 25 26  2  0
 26 27  1  0
 26 28  1  0
 28 29  2  0
 22 30  1  0
 30 31  2  0
 31 32  1  0
 32 33  2  0
 13  7  1  0
 32 15  1  0
 31 19  1  0
 29 23  1  0
  1 34  1  0
  1 35  1  0
  1 36  1  0
  2 37  1  0
  2 38  1  0
  3 39  1  0
  6 40  1  0
  8 41  1  0
 11 42  1  0
 12 43  1  0
 18 44  1  0
 18 45  1  0
 18 46  1  0
 21 47  1  0
 21 48  1  0
 21 49  1  0
 24 50  1  0
 25 51  1  0
 27 52  1  0
 27 53  1  0
 27 54  1  0
 28 55  1  0
 29 56  1  0
M  END
$$$$
