
     RDKit          3D

 63 66  0  0  0  0  0  0  0  0999 V2000
    2.7530   -0.4039   -2.8597 C   0  0  0  0  0  0  0  0  0  0  0  0
    2.8426   -0.0043   -1.4145 C   0  0  0  0  0  0  0  0  0  0  0  0
    2.0159   -0.5536   -0.5689 N   0  0  0  0  0  0  0  0  0  0  0  0
    2.0614   -0.2386    0.7933 N   0  0  0  0  0  0  0  0  0  0  0  0
    1.0638   -0.9021    1.6290 C   0  0  0  0  0  0  0  0  0  0  0  0
   -0.1897   -0.0505    1.7756 C   0  0  0  0  0  0  0  0  0  0  0  0
   -1.2380   -0.7595    2.6003 C   0  0  0  0  0  0  0  0  0  0  0  0
   -1.0947   -1.8889    3.0541 O   0  0  0  0  0  0  0  0  0  0  0  0
   -2.3738   -0.0009    2.7838 N   0  0  0  0  0  0  0  0  0  0  0  0
   -3.5486   -0.5341    3.4350 C   0  0  0  0  0  0  0  0  0  0  0  0
   -4.5513   -1.0095    2.4159 C   0  0  0  0  0  0  0  0  0  0  0  0
   -5.5883   -0.1758    1.9837 C   0  0  0  0  0  0  0  0  0  0  0  0
   -6.4932   -0.6221    1.0169 C   0  0  0  0  0  0  0  0  0  0  0  0
   -6.3815   -1.9011    0.4661 C   0  0  0  0  0  0  0  0  0  0  0  0
   -7.3321   -2.1990   -0.4686 O   0  0  0  0  0  0  0  0  0  0  0  0
   -7.4432   -3.5455   -0.9414 C   0  0  0  0  0  0  0  0  0  0  0  0
   -6.5730   -3.7318   -2.1811 C   0  0  0  0  0  0  0  0  0  0  0  0
   -8.9121   -3.7657   -1.2982 C   0  0  0  0  0  0  0  0  0  0  0  0
   -5.3405   -2.7288    0.8815 C   0  0  0  0  0  0  0  0  0  0  0  0
   -4.4314   -2.2852    1.8485 C   0  0  0  0  0  0  0  0  0  0  0  0
    2.9257    0.7107    1.3793 C   0  0  0  0  0  0  0  0  0  0  0  0
    2.8953    1.0121    2.5708 O   0  0  0  0  0  0  0  0  0  0  0  0
    3.8412    1.3061    0.4147 C   0  0  0  0  0  0  0  0  0  0  0  0
    4.7621    2.2383    0.6676 N   0  0  0  0  0  0  0  0  0  0  0  0
    5.4152    2.4216   -0.5124 N   0  0  0  0  0  0  0  0  0  0  0  0
    6.6091    3.2090   -0.5156 C   0  0  0  0  0  0  0  0  0  0  0  0
    7.5420    3.1583   -1.5585 C   0  0  0  0  0  0  0  0  0  0  0  0
    8.6983    3.9462   -1.5117 C   0  0  0  0  0  0  0  0  0  0  0  0
    8.9407    4.7783   -0.4209 C   0  0  0  0  0  0  0  0  0  0  0  0
    8.0347    4.8168    0.6343 C   0  0  0  0  0  0  0  0  0  0  0  0
    6.8795    4.0321    0.5925 C   0  0  0  0  0  0  0  0  0  0  0  0
    4.7508    1.7648   -1.5566 C   0  0  0  0  0  0  0  0  0  0  0  0
    5.0203    1.9838   -3.0013 C   0  0  0  0  0  0  0  0  0  0  0  0
    3.8009    0.9652   -0.9414 C   0  0  0  0  0  0  0  0  0  0  0  0
    3.7470   -0.6340   -3.2515 H   0  0  0  0  0  0  0  0  0  0  0  0
    2.3081    0.4113   -3.4368 H   0  0  0  0  0  0  0  0  0  0  0  0
    2.1223   -1.2912   -2.9704 H   0  0  0  0  0  0  0  0  0  0  0  0
    1.5042   -1.1025    2.6131 H   0  0  0  0  0  0  0  0  0  0  0  0
    0.8283   -1.8743    1.1782 H   0  0  0  0  0  0  0  0  0  0  0  0
    0.0504    0.9045    2.2580 H   0  0  0  0  0  0  0  0  0  0  0  0
   -0.6139    0.1687    0.7881 H   0  0  0  0  0  0  0  0  0  0  0  0
   -2.4872    0.8444    2.2408 H   0  0  0  0  0  0  0  0  0  0  0  0
   -3.9757    0.2697    4.0451 H   0  0  0  0  0  0  0  0  0  0  0  0
   -3.2796   -1.3502    4.1153 H   0  0  0  0  0  0  0  0  0  0  0  0
   -5.7027    0.8248    2.3938 H   0  0  0  0  0  0  0  0  0  0  0  0
   -7.2967    0.0335    0.6902 H   0  0  0  0  0  0  0  0  0  0  0  0
   -7.1867   -4.2744   -0.1641 H   0  0  0  0  0  0  0  0  0  0  0  0
   -6.6719   -4.7449   -2.5845 H   0  0  0  0  0  0  0  0  0  0  0  0
   -5.5168   -3.5526   -1.9561 H   0  0  0  0  0  0  0  0  0  0  0  0
   -6.8495   -3.0151   -2.9639 H   0  0  0  0  0  0  0  0  0  0  0  0
   -9.0825   -4.7789   -1.6758 H   0  0  0  0  0  0  0  0  0  0  0  0
   -9.2461   -3.0472   -2.0553 H   0  0  0  0  0  0  0  0  0  0  0  0
   -9.5445   -3.6108   -0.4171 H   0  0  0  0  0  0  0  0  0  0  0  0
   -5.1927   -3.7205    0.4686 H   0  0  0  0  0  0  0  0  0  0  0  0
   -3.6168   -2.9409    2.1549 H   0  0  0  0  0  0  0  0  0  0  0  0
    7.4363    2.4871   -2.4023 H   0  0  0  0  0  0  0  0  0  0  0  0
    9.4203    3.8989   -2.3235 H   0  0  0  0  0  0  0  0  0  0  0  0
    9.8417    5.3859   -0.3869 H   0  0  0  0  0  0  0  0  0  0  0  0
    8.2243    5.4539    1.4948 H   0  0  0  0  0  0  0  0  0  0  0  0
    6.1896    4.0821    1.4342 H   0  0  0  0  0  0  0  0  0  0  0  0
    5.3606    3.0031   -3.2046 H   0  0  0  0  0  0  0  0  0  0  0  0
    5.7598    1.2678   -3.3711 H   0  0  0  0  0  0  0  0  0  0  0  0
    4.1091    1.8594   -3.5925 H   0  0  0  0  0  0  0  0  0  0  0  0
  1  2  1  0
  2  3  2  0
  3  4  1  0
  4  5  1  0
  5  6  1  0
  6  7  1  0
  7  8  2  0
  7  9  1  0
  9 10  1  0
 10 11  1  0
 11 12  2  0
 12 13  1  0
 13 14  2  0
 14 15  1  0
 15 16  1  0
 16 17  1  0
 16 18  1  0
 14 19  1  0
 19 20  2  0
  4 21  1  0
 21 22  2  0
 21 23  1  0
 23 24  2  0
 24 25  1  0
 25 26  1  0
 26 27  2  0
 27 28  1  0
 28 29  2  0
 29 30  1  0
 30 31  2  0
 25 32  1  0
 32 33  1  0
 32 34  2  0
 34  2  1  0
 20 11  1  0
 34 23  1  0
 31 26  1  0
  1 35  1  0
  1 36  1  0
  1 37  1  0
  5 38  1  0
  5 39  1  0
  6 40  1  0
  6 41  1  0
  9 42  1  0
 10 43  1  0
 10 44  1  0
 12 45  1  0
 13 46  1  0
 16 47  1  0
 17 48  1  0
 17 49  1  0
 17 50  1  0
 18 51  1  0
 18 52  1  0
 18 53  1  0
 19 54  1  0
 20 55  1  0
 27 56  1  0
 28 57  1  0
 29 58  1  0
 30 59  1  0
 31 60  1  0
 33 61  1  0
 33 62  1  0
 33 63  1  0
M  END
$$$$
