
     RDKit          3D

 56 58  0  0  0  0  0  0  0  0999 V2000
    9.1679    2.3707   -0.0369 C   0  0  0  0  0  0  0  0  0  0  0  0
    8.5117    1.8869   -1.2047 O   0  0  0  0  0  0  0  0  0  0  0  0
    7.6483    0.8398   -1.0363 C   0  0  0  0  0  0  0  0  0  0  0  0
    6.8989    0.5121   -2.1691 C   0  0  0  0  0  0  0  0  0  0  0  0
    5.9768   -0.5369   -2.1356 C   0  0  0  0  0  0  0  0  0  0  0  0
    5.8006   -1.2863   -0.9657 C   0  0  0  0  0  0  0  0  0  0  0  0
    4.7852   -2.3983   -0.9163 C   0  0  0  0  0  0  0  0  0  0  0  0
    3.5384   -1.9291   -0.3722 N   0  0  0  0  0  0  0  0  0  0  0  0
    2.5428   -1.4097   -1.1647 C   0  0  0  0  0  0  0  0  0  0  0  0
    2.5000   -1.4262   -2.3873 O   0  0  0  0  0  0  0  0  0  0  0  0
    1.4053   -0.7416   -0.3584 C   0  0  0  0  0  0  0  0  0  0  0  0
    1.4232   -0.7729    0.8645 O   0  0  0  0  0  0  0  0  0  0  0  0
    0.4452   -0.1502   -1.1486 N   0  0  0  0  0  0  0  0  0  0  0  0
   -0.8075    0.3435   -0.5992 C   0  0  0  0  0  0  0  0  0  0  0  0
   -1.9282   -0.7331   -0.5802 C   0  0  0  0  0  0  0  0  0  0  0  0
   -1.4849   -1.9125    0.1204 O   0  0  0  0  0  0  0  0  0  0  0  0
   -1.8283   -1.6990    1.4919 C   0  0  0  0  0  0  0  0  0  0  0  0
   -3.1502   -0.9601    1.4446 C   0  0  0  0  0  0  0  0  0  0  0  0
   -3.1700   -0.3437    0.1084 N   0  0  0  0  0  0  0  0  0  0  0  0
   -3.7242    1.2235   -0.0651 S   0  0  0  0  0  6  0  0  0  0  0  0
   -3.7242    1.5389   -1.4776 O   0  0  0  0  0  0  0  0  0  0  0  0
   -3.0055    2.0460    0.8855 O   0  0  0  0  0  0  0  0  0  0  0  0
   -5.4129    1.0888    0.4598 C   0  0  0  0  0  0  0  0  0  0  0  0
   -5.8220    1.6558    1.6685 C   0  0  0  0  0  0  0  0  0  0  0  0
   -7.1550    1.5377    2.0653 C   0  0  0  0  0  0  0  0  0  0  0  0
   -8.0811    0.8681    1.2533 C   0  0  0  0  0  0  0  0  0  0  0  0
   -9.5093    0.7155    1.6904 C   0  0  0  0  0  0  0  0  0  0  0  0
   -7.6537    0.3012    0.0439 C   0  0  0  0  0  0  0  0  0  0  0  0
   -6.3233    0.4175   -0.3590 C   0  0  0  0  0  0  0  0  0  0  0  0
    6.5523   -0.9529    0.1704 C   0  0  0  0  0  0  0  0  0  0  0  0
    7.4731    0.1013    0.1349 C   0  0  0  0  0  0  0  0  0  0  0  0
    9.7625    3.2419   -0.3274 H   0  0  0  0  0  0  0  0  0  0  0  0
    8.4419    2.6987    0.7175 H   0  0  0  0  0  0  0  0  0  0  0  0
    9.8540    1.6184    0.3707 H   0  0  0  0  0  0  0  0  0  0  0  0
    7.0270    1.0862   -3.0853 H   0  0  0  0  0  0  0  0  0  0  0  0
    5.3939   -0.7650   -3.0261 H   0  0  0  0  0  0  0  0  0  0  0  0
    5.1456   -3.2082   -0.2718 H   0  0  0  0  0  0  0  0  0  0  0  0
    4.6243   -2.8215   -1.9148 H   0  0  0  0  0  0  0  0  0  0  0  0
    3.4770   -1.7029    0.6157 H   0  0  0  0  0  0  0  0  0  0  0  0
    0.5364   -0.3046   -2.1498 H   0  0  0  0  0  0  0  0  0  0  0  0
   -0.6112    0.7134    0.4132 H   0  0  0  0  0  0  0  0  0  0  0  0
   -1.0981    1.1955   -1.2213 H   0  0  0  0  0  0  0  0  0  0  0  0
   -2.1579   -1.0427   -1.6059 H   0  0  0  0  0  0  0  0  0  0  0  0
   -1.0488   -1.0966    1.9694 H   0  0  0  0  0  0  0  0  0  0  0  0
   -1.8981   -2.6573    2.0135 H   0  0  0  0  0  0  0  0  0  0  0  0
   -3.2325   -0.2485    2.2707 H   0  0  0  0  0  0  0  0  0  0  0  0
   -3.9876   -1.6641    1.5077 H   0  0  0  0  0  0  0  0  0  0  0  0
   -5.1180    2.1869    2.3043 H   0  0  0  0  0  0  0  0  0  0  0  0
   -7.4700    1.9770    3.0113 H   0  0  0  0  0  0  0  0  0  0  0  0
  -10.1871    0.8290    0.8376 H   0  0  0  0  0  0  0  0  0  0  0  0
   -9.6599   -0.2720    2.1383 H   0  0  0  0  0  0  0  0  0  0  0  0
   -9.7816    1.4789    2.4269 H   0  0  0  0  0  0  0  0  0  0  0  0
   -8.3587   -0.2300   -0.5927 H   0  0  0  0  0  0  0  0  0  0  0  0
   -6.0023   -0.0147   -1.3040 H   0  0  0  0  0  0  0  0  0  0  0  0
    6.4244   -1.5101    1.0955 H   0  0  0  0  0  0  0  0  0  0  0  0
    8.0355    0.3173    1.0371 H   0  0  0  0  0  0  0  0  0  0  0  0
  1  2  1  0
  2  3  1  0
  3  4  2  0
  4  5  1  0
  5  6  2  0
  6  7  1  0
  7  8  1  0
  8  9  1  0
  9 10  2  0
  9 11  1  0
 11 12  2  0
 11 13  1  0
 13 14  1  0
 14 15  1  0
 15 16  1  0
 16 17  1  0
 17 18  1  0
 18 19  1  0
 19 20  1  0
 20 21  2  0
 20 22  2  0
 20 23  1  0
 23 24  2  0
 24 25  1  0
 25 26  2  0
 26 27  1  0
 26 28  1  0
 28 29  2  0
  6 30  1  0
 30 31  2  0
 31  3  1  0
 19 15  1  0
 29 23  1  0
  1 32  1  0
  1 33  1  0
  1 34  1  0
  4 35  1  0
  5 36  1  0
  7 37  1  0
  7 38  1  0
  8 39  1  0
 13 40  1  0
 14 41  1  0
 14 42  1  0
 15 43  1  0
 17 44  1  0
 17 45  1  0
 18 46  1  0
 18 47  1  0
 24 48  1  0
 25 49  1  0
 27 50  1  0
 27 51  1  0
 27 52  1  0
 28 53  1  0
 29 54  1  0
 30 55  1  0
 31 56  1  0
M  END
$$$$
