
     RDKit          3D

 59 62  0  0  0  0  0  0  0  0999 V2000
    7.2782    1.7490    3.0374 C   0  0  0  0  0  0  0  0  0  0  0  0
    7.1256    0.5300    2.3212 O   0  0  0  0  0  0  0  0  0  0  0  0
    5.8559    0.1805    1.9517 C   0  0  0  0  0  0  0  0  0  0  0  0
    5.7727   -1.0021    1.2089 C   0  0  0  0  0  0  0  0  0  0  0  0
    4.5388   -1.4834    0.7628 C   0  0  0  0  0  0  0  0  0  0  0  0
    3.3720   -0.7798    1.0610 C   0  0  0  0  0  0  0  0  0  0  0  0
    2.0594   -1.2450    0.6134 C   0  0  0  0  0  0  0  0  0  0  0  0
    0.9380   -0.5470    0.8760 C   0  0  0  0  0  0  0  0  0  0  0  0
   -0.4470   -0.9664    0.4622 C   0  0  0  0  0  0  0  0  0  0  0  0
   -0.7201   -0.8757   -1.0019 N   0  0  0  0  0  0  0  0  0  0  0  0
   -0.0824   -1.9463   -1.8186 C   0  0  0  0  0  0  0  0  0  0  0  0
   -1.0247   -2.5449   -2.8680 C   0  0  0  0  0  0  0  0  0  0  0  0
   -2.3600   -3.0182   -2.3154 C   0  0  0  0  0  0  0  0  0  0  0  0
   -2.7607   -4.0513   -3.3383 C   0  0  0  0  0  0  0  0  0  0  0  0
   -1.4353   -4.7053   -3.6639 C   0  0  0  0  0  0  0  0  0  0  0  0
   -0.4123   -3.7221   -3.4428 O   0  0  0  0  0  0  0  0  0  0  0  0
   -0.7551    0.6708   -1.7143 S   0  0  0  0  0  6  0  0  0  0  0  0
    0.4858    1.3456   -1.4030 O   0  0  0  0  0  0  0  0  0  0  0  0
   -1.1908    0.5258   -3.0869 O   0  0  0  0  0  0  0  0  0  0  0  0
   -2.0824    1.4851   -0.8586 C   0  0  0  0  0  0  0  0  0  0  0  0
   -3.3848    1.0039   -1.0138 C   0  0  0  0  0  0  0  0  0  0  0  0
   -4.4361    1.6380   -0.3484 C   0  0  0  0  0  0  0  0  0  0  0  0
   -4.1931    2.7564    0.4640 C   0  0  0  0  0  0  0  0  0  0  0  0
   -5.3507    3.3920    1.1615 C   0  0  0  0  0  0  0  0  0  0  0  0
   -5.1150    4.6253    1.9933 C   0  0  0  0  0  0  0  0  0  0  0  0
   -6.4737    2.9036    1.0518 O   0  0  0  0  0  0  0  0  0  0  0  0
   -2.8845    3.2396    0.5972 C   0  0  0  0  0  0  0  0  0  0  0  0
   -1.8295    2.6082   -0.0698 C   0  0  0  0  0  0  0  0  0  0  0  0
    1.0345    0.6891    1.7162 C   0  0  0  0  0  0  0  0  0  0  0  0
    0.0364    1.3133    2.0660 O   0  0  0  0  0  0  0  0  0  0  0  0
    2.2814    1.0934    2.1105 N   0  0  0  0  0  0  0  0  0  0  0  0
    3.4573    0.4004    1.8049 C   0  0  0  0  0  0  0  0  0  0  0  0
    4.6895    0.8854    2.2521 C   0  0  0  0  0  0  0  0  0  0  0  0
    6.9344    2.6021    2.4430 H   0  0  0  0  0  0  0  0  0  0  0  0
    6.7629    1.7060    4.0027 H   0  0  0  0  0  0  0  0  0  0  0  0
    8.3453    1.8893    3.2356 H   0  0  0  0  0  0  0  0  0  0  0  0
    6.6811   -1.5522    0.9727 H   0  0  0  0  0  0  0  0  0  0  0  0
    4.5064   -2.4022    0.1832 H   0  0  0  0  0  0  0  0  0  0  0  0
    2.0353   -2.1708    0.0520 H   0  0  0  0  0  0  0  0  0  0  0  0
   -1.2273   -0.4167    0.9984 H   0  0  0  0  0  0  0  0  0  0  0  0
   -0.6066   -2.0074    0.7757 H   0  0  0  0  0  0  0  0  0  0  0  0
    0.2497   -2.7676   -1.1720 H   0  0  0  0  0  0  0  0  0  0  0  0
    0.8306   -1.5716   -2.2973 H   0  0  0  0  0  0  0  0  0  0  0  0
   -1.1877   -1.8473   -3.6955 H   0  0  0  0  0  0  0  0  0  0  0  0
   -3.0908   -2.2123   -2.2124 H   0  0  0  0  0  0  0  0  0  0  0  0
   -2.2328   -3.4986   -1.3378 H   0  0  0  0  0  0  0  0  0  0  0  0
   -3.5096   -4.7612   -2.9776 H   0  0  0  0  0  0  0  0  0  0  0  0
   -3.1621   -3.5555   -4.2302 H   0  0  0  0  0  0  0  0  0  0  0  0
   -1.3862   -5.0618   -4.6965 H   0  0  0  0  0  0  0  0  0  0  0  0
   -1.2342   -5.5479   -2.9940 H   0  0  0  0  0  0  0  0  0  0  0  0
   -3.5867    0.1454   -1.6493 H   0  0  0  0  0  0  0  0  0  0  0  0
   -5.4497    1.2574   -0.4677 H   0  0  0  0  0  0  0  0  0  0  0  0
   -6.0717    4.9788    2.3904 H   0  0  0  0  0  0  0  0  0  0  0  0
   -4.6912    5.4231    1.3781 H   0  0  0  0  0  0  0  0  0  0  0  0
   -4.4612    4.3928    2.8376 H   0  0  0  0  0  0  0  0  0  0  0  0
   -2.6528    4.0992    1.2196 H   0  0  0  0  0  0  0  0  0  0  0  0
   -0.8162    2.9879    0.0483 H   0  0  0  0  0  0  0  0  0  0  0  0
    2.3157    1.9397    2.6609 H   0  0  0  0  0  0  0  0  0  0  0  0
    4.7180    1.8036    2.8267 H   0  0  0  0  0  0  0  0  0  0  0  0
  1  2  1  0
  2  3  1  0
  3  4  2  0
  4  5  1  0
  5  6  2  0
  6  7  1  0
  7  8  2  0
  8  9  1  0
  9 10  1  0
 10 11  1  0
 11 12  1  0
 12 13  1  0
 13 14  1  0
 14 15  1  0
 15 16  1  0
 10 17  1  0
 17 18  2  0
 17 19  2  0
 17 20  1  0
 20 21  2  0
 21 22  1  0
 22 23  2  0
 23 24  1  0
 24 25  1  0
 24 26  2  0
 23 27  1  0
 27 28  2  0
  8 29  1  0
 29 30  2  0
 29 31  1  0
 31 32  1  0
 32 33  2  0
 33  3  1  0
 32  6  1  0
 16 12  1  0
 28 20  1  0
  1 34  1  0
  1 35  1  0
  1 36  1  0
  4 37  1  0
  5 38  1  0
  7 39  1  0
  9 40  1  0
  9 41  1  0
 11 42  1  0
 11 43  1  0
 12 44  1  0
 13 45  1  0
 13 46  1  0
 14 47  1  0
 14 48  1  0
 15 49  1  0
 15 50  1  0
 21 51  1  0
 22 52  1  0
 25 53  1  0
 25 54  1  0
 25 55  1  0
 27 56  1  0
 28 57  1  0
 31 58  1  0
 33 59  1  0
M  END
$$$$
