
     RDKit          3D

 32 34  0  0  0  0  0  0  0  0999 V2000
   -0.5890    1.0709    0.1496 O   0  0  0  0  0  0  0  0  0  0  0  0
   -0.6928    0.2469    1.0512 C   0  0  0  0  0  0  0  0  0  0  0  0
   -2.0600   -0.2510    1.5512 C   0  0  0  0  0  0  0  0  0  0  0  0
   -3.1896    0.4823    1.1110 O   0  0  0  0  0  0  0  0  0  0  0  0
   -3.7926    0.0944   -0.0530 C   0  0  0  0  0  0  0  0  0  0  0  0
   -3.1759   -0.6130   -1.0867 C   0  0  0  0  0  0  0  0  0  0  0  0
   -3.8966   -0.9382   -2.2425 C   0  0  0  0  0  0  0  0  0  0  0  0
   -5.2306   -0.5502   -2.3678 C   0  0  0  0  0  0  0  0  0  0  0  0
   -6.1941   -0.9946   -3.9316 Br  0  0  0  0  0  0  0  0  0  0  0  0
   -5.8534    0.1661   -1.3526 C   0  0  0  0  0  0  0  0  0  0  0  0
   -5.1279    0.4858   -0.2088 C   0  0  0  0  0  0  0  0  0  0  0  0
   -5.7430    1.1726    0.7664 F   0  0  0  0  0  0  0  0  0  0  0  0
    0.3462   -0.3676    1.7224 N   0  0  0  0  0  0  0  0  0  0  0  0
    1.6898   -0.1683    1.5227 C   0  0  0  0  0  0  0  0  0  0  0  0
    2.5952   -0.8090    2.2303 N   0  0  0  0  0  0  0  0  0  0  0  0
    3.8818   -0.4601    1.8662 N   0  0  0  0  0  0  0  0  0  0  0  0
    3.8812    0.4246    0.8941 C   0  0  0  0  0  0  0  0  0  0  0  0
    5.1983    1.0042    0.2936 C   0  0  0  0  0  0  0  0  0  0  0  0
    6.3738    0.0858    0.0751 C   0  0  0  0  0  0  0  0  0  0  0  0
    5.6083    0.6123   -1.1034 C   0  0  0  0  0  0  0  0  0  0  0  0
    2.3301    0.9023    0.3625 S   0  0  0  0  0  0  0  0  0  0  0  0
   -2.1612   -1.3220    1.3326 H   0  0  0  0  0  0  0  0  0  0  0  0
   -2.0510   -0.1589    2.6443 H   0  0  0  0  0  0  0  0  0  0  0  0
   -2.1306   -0.8998   -1.0417 H   0  0  0  0  0  0  0  0  0  0  0  0
   -3.4023   -1.4833   -3.0436 H   0  0  0  0  0  0  0  0  0  0  0  0
   -6.8877    0.4835   -1.4310 H   0  0  0  0  0  0  0  0  0  0  0  0
    0.1527   -1.0308    2.4610 H   0  0  0  0  0  0  0  0  0  0  0  0
    5.4202    2.0159    0.6162 H   0  0  0  0  0  0  0  0  0  0  0  0
    7.3652    0.4826    0.2604 H   0  0  0  0  0  0  0  0  0  0  0  0
    6.2647   -0.9634    0.3277 H   0  0  0  0  0  0  0  0  0  0  0  0
    4.9897   -0.0868   -1.6550 H   0  0  0  0  0  0  0  0  0  0  0  0
    6.0810    1.3669   -1.7215 H   0  0  0  0  0  0  0  0  0  0  0  0
  1  2  2  0
  2  3  1  0
  3  4  1  0
  4  5  1  0
  5  6  2  0
  6  7  1  0
  7  8  2  0
  8  9  1  0
  8 10  1  0
 10 11  2  0
 11 12  1  0
  2 13  1  0
 13 14  1  0
 14 15  2  0
 15 16  1  0
 16 17  2  0
 17 18  1  0
 18 19  1  0
 19 20  1  0
 17 21  1  0
 11  5  1  0
 21 14  1  0
 20 18  1  0
  3 22  1  0
  3 23  1  0
  6 24  1  0
  7 25  1  0
 10 26  1  0
 13 27  1  0
 18 28  1  0
 19 29  1  0
 19 30  1  0
 20 31  1  0
 20 32  1  0
M  END
$$$$
