
     RDKit          3D

 41 43  0  0  0  0  0  0  0  0999 V2000
   -1.7922   -0.6603   -2.6530 O   0  0  0  0  0  0  0  0  0  0  0  0
   -1.5667   -0.4200   -1.4722 C   0  0  0  0  0  0  0  0  0  0  0  0
   -2.5068   -0.2537   -0.4742 N   0  0  0  0  0  0  0  0  0  0  0  0
   -3.9223   -0.2510   -0.5858 C   0  0  0  0  0  0  0  0  0  0  0  0
   -4.5711   -0.3630   -1.8230 C   0  0  0  0  0  0  0  0  0  0  0  0
   -5.9672   -0.3576   -1.9103 C   0  0  0  0  0  0  0  0  0  0  0  0
   -6.7264   -0.2365   -0.7559 C   0  0  0  0  0  0  0  0  0  0  0  0
   -8.0882   -0.2269   -0.7988 O   0  0  0  0  0  0  0  0  0  0  0  0
   -6.1163   -0.1181    0.4850 C   0  0  0  0  0  0  0  0  0  0  0  0
   -4.7151   -0.1223    0.5815 C   0  0  0  0  0  0  0  0  0  0  0  0
   -4.0727    0.0150    1.9171 C   0  0  0  0  0  0  0  0  0  0  0  0
   -2.8704    0.0548    2.1207 O   0  0  0  0  0  0  0  0  0  0  0  0
   -4.9491    0.0953    2.9330 O   0  0  0  0  0  0  0  0  0  0  0  0
   -0.1415   -0.3293   -1.0322 C   0  0  0  0  0  0  0  0  0  0  0  0
    0.8228   -1.0400   -1.7548 C   0  0  0  0  0  0  0  0  0  0  0  0
    2.1706   -0.9811   -1.3846 C   0  0  0  0  0  0  0  0  0  0  0  0
    2.5806   -0.2060   -0.2921 C   0  0  0  0  0  0  0  0  0  0  0  0
    3.9590   -0.2051    0.0096 N   0  0  0  0  0  0  0  0  0  0  0  0
    4.6082    0.4646    1.0402 C   0  0  0  0  0  0  0  0  0  0  0  0
    4.0382    1.1692    1.8680 O   0  0  0  0  0  0  0  0  0  0  0  0
    6.0527    0.2573    1.0647 C   0  0  0  0  0  0  0  0  0  0  0  0
    6.9381   -0.4474    0.2627 C   0  0  0  0  0  0  0  0  0  0  0  0
    8.2333   -0.2615    0.8091 C   0  0  0  0  0  0  0  0  0  0  0  0
    8.0702    0.5429    1.9090 C   0  0  0  0  0  0  0  0  0  0  0  0
    6.7634    0.8614    2.0723 O   0  0  0  0  0  0  0  0  0  0  0  0
    1.6176    0.5147    0.4169 C   0  0  0  0  0  0  0  0  0  0  0  0
    0.2654    0.4595    0.0491 C   0  0  0  0  0  0  0  0  0  0  0  0
   -2.1583   -0.1781    0.4821 H   0  0  0  0  0  0  0  0  0  0  0  0
   -4.0150   -0.4541   -2.7512 H   0  0  0  0  0  0  0  0  0  0  0  0
   -6.4330   -0.4478   -2.8873 H   0  0  0  0  0  0  0  0  0  0  0  0
   -8.3742   -0.3176   -1.7232 H   0  0  0  0  0  0  0  0  0  0  0  0
   -6.7412   -0.0213    1.3691 H   0  0  0  0  0  0  0  0  0  0  0  0
   -4.3948    0.1802    3.7368 H   0  0  0  0  0  0  0  0  0  0  0  0
    0.5269   -1.6451   -2.6101 H   0  0  0  0  0  0  0  0  0  0  0  0
    2.8891   -1.5508   -1.9687 H   0  0  0  0  0  0  0  0  0  0  0  0
    4.5349   -0.7677   -0.5982 H   0  0  0  0  0  0  0  0  0  0  0  0
    6.6985   -1.0290   -0.6154 H   0  0  0  0  0  0  0  0  0  0  0  0
    9.1693   -0.6626    0.4461 H   0  0  0  0  0  0  0  0  0  0  0  0
    8.7467    0.9586    2.6432 H   0  0  0  0  0  0  0  0  0  0  0  0
    1.8796    1.1434    1.2629 H   0  0  0  0  0  0  0  0  0  0  0  0
   -0.4427    1.0623    0.6121 H   0  0  0  0  0  0  0  0  0  0  0  0
  1  2  2  0
  2  3  1  0
  3  4  1  0
  4  5  2  0
  5  6  1  0
  6  7  2  0
  7  8  1  0
  7  9  1  0
  9 10  2  0
 10 11  1  0
 11 12  2  0
 11 13  1  0
  2 14  1  0
 14 15  2  0
 15 16  1  0
 16 17  2  0
 17 18  1  0
 18 19  1  0
 19 20  2  0
 19 21  1  0
 21 22  2  0
 22 23  1  0
 23 24  2  0
 24 25  1  0
 17 26  1  0
 26 27  2  0
 10  4  1  0
 27 14  1  0
 25 21  1  0
  3 28  1  0
  5 29  1  0
  6 30  1  0
  8 31  1  0
  9 32  1  0
 13 33  1  0
 15 34  1  0
 16 35  1  0
 18 36  1  0
 22 37  1  0
 23 38  1  0
 24 39  1  0
 26 40  1  0
 27 41  1  0
M  END
$$$$
