
     RDKit          3D

 44 45  0  0  0  0  0  0  0  0999 V2000
   -6.5782   -1.8300    1.8490 C   0  0  0  0  0  0  0  0  0  0  0  0
   -7.3096   -0.5678    1.4174 C   0  0  0  0  0  0  0  0  0  0  0  0
   -6.4637    0.6908    1.5824 C   0  0  0  0  0  0  0  0  0  0  0  0
   -5.3491    0.6570    0.6769 O   0  0  0  0  0  0  0  0  0  0  0  0
   -4.1228    0.4764    1.2280 C   0  0  0  0  0  0  0  0  0  0  0  0
   -3.8837    0.3365    2.4160 O   0  0  0  0  0  0  0  0  0  0  0  0
   -3.0758    0.4665    0.1678 C   0  0  0  0  0  0  0  0  0  0  0  0
   -3.3965    0.5251   -1.1948 C   0  0  0  0  0  0  0  0  0  0  0  0
   -2.3829    0.5067   -2.1509 C   0  0  0  0  0  0  0  0  0  0  0  0
   -1.0483    0.4299   -1.7499 C   0  0  0  0  0  0  0  0  0  0  0  0
   -0.7096    0.3708   -0.3919 C   0  0  0  0  0  0  0  0  0  0  0  0
    0.6609    0.2956   -0.0817 N   0  0  0  0  0  0  0  0  0  0  0  0
    1.2570    0.2402    1.1646 C   0  0  0  0  0  0  0  0  0  0  0  0
    0.6857    0.2521    2.2508 O   0  0  0  0  0  0  0  0  0  0  0  0
    2.7858    0.1599    1.0949 C   0  0  0  0  0  0  0  0  0  0  0  0
    3.2493    0.1567   -0.2549 O   0  0  0  0  0  0  0  0  0  0  0  0
    4.6009    0.0719   -0.4460 C   0  0  0  0  0  0  0  0  0  0  0  0
    4.9977    0.0463   -1.7879 C   0  0  0  0  0  0  0  0  0  0  0  0
    6.3492   -0.0397   -2.1335 C   0  0  0  0  0  0  0  0  0  0  0  0
    7.3127   -0.0993   -1.1211 C   0  0  0  0  0  0  0  0  0  0  0  0
    8.7355   -0.1900   -1.4721 N   0  0  0  0  0  4  0  0  0  0  0  0
    9.0304   -0.2360   -2.6750 O   0  0  0  0  0  0  0  0  0  0  0  0
    9.5568   -0.2153   -0.5445 O   0  0  0  0  0  1  0  0  0  0  0  0
    6.9276   -0.0728    0.2253 C   0  0  0  0  0  0  0  0  0  0  0  0
    5.5700    0.0128    0.5589 C   0  0  0  0  0  0  0  0  0  0  0  0
   -1.7294    0.3882    0.5626 C   0  0  0  0  0  0  0  0  0  0  0  0
   -7.2424   -2.6963    1.7676 H   0  0  0  0  0  0  0  0  0  0  0  0
   -6.2456   -1.7545    2.8891 H   0  0  0  0  0  0  0  0  0  0  0  0
   -5.7039   -2.0197    1.2189 H   0  0  0  0  0  0  0  0  0  0  0  0
   -8.2264   -0.4650    2.0086 H   0  0  0  0  0  0  0  0  0  0  0  0
   -7.6019   -0.6786    0.3667 H   0  0  0  0  0  0  0  0  0  0  0  0
   -6.1599    0.8276    2.6263 H   0  0  0  0  0  0  0  0  0  0  0  0
   -7.0638    1.5654    1.3086 H   0  0  0  0  0  0  0  0  0  0  0  0
   -4.4306    0.5823   -1.5254 H   0  0  0  0  0  0  0  0  0  0  0  0
   -2.6322    0.5517   -3.2083 H   0  0  0  0  0  0  0  0  0  0  0  0
   -0.2767    0.4172   -2.5161 H   0  0  0  0  0  0  0  0  0  0  0  0
    1.3129    0.2831   -0.8610 H   0  0  0  0  0  0  0  0  0  0  0  0
    3.0795   -0.7696    1.5963 H   0  0  0  0  0  0  0  0  0  0  0  0
    3.1759    1.0367    1.6244 H   0  0  0  0  0  0  0  0  0  0  0  0
    4.2479    0.0921   -2.5752 H   0  0  0  0  0  0  0  0  0  0  0  0
    6.6284   -0.0585   -3.1851 H   0  0  0  0  0  0  0  0  0  0  0  0
    7.6658   -0.1189    1.0240 H   0  0  0  0  0  0  0  0  0  0  0  0
    5.3087    0.0311    1.6130 H   0  0  0  0  0  0  0  0  0  0  0  0
   -1.5060    0.3414    1.6251 H   0  0  0  0  0  0  0  0  0  0  0  0
  1  2  1  0
  2  3  1  0
  3  4  1  0
  4  5  1  0
  5  6  2  0
  5  7  1  0
  7  8  2  0
  8  9  1  0
  9 10  2  0
 10 11  1  0
 11 12  1  0
 12 13  1  0
 13 14  2  0
 13 15  1  0
 15 16  1  0
 16 17  1  0
 17 18  2  0
 18 19  1  0
 19 20  2  0
 20 21  1  0
 21 22  2  0
 21 23  1  0
 20 24  1  0
 24 25  2  0
 11 26  2  0
 26  7  1  0
 25 17  1  0
  1 27  1  0
  1 28  1  0
  1 29  1  0
  2 30  1  0
  2 31  1  0
  3 32  1  0
  3 33  1  0
  8 34  1  0
  9 35  1  0
 10 36  1  0
 12 37  1  0
 15 38  1  0
 15 39  1  0
 18 40  1  0
 19 41  1  0
 24 42  1  0
 25 43  1  0
 26 44  1  0
M  CHG  2  21   1  23  -1
M  END
$$$$
