
     RDKit          3D

 34 37  0  0  0  0  0  0  0  0999 V2000
   -2.5067   -2.1295    1.5781 C   0  0  0  0  0  0  0  0  0  0  0  0
   -2.5968   -0.7099    1.5016 O   0  0  0  0  0  0  0  0  0  0  0  0
   -3.3663   -0.2171    0.4760 C   0  0  0  0  0  0  0  0  0  0  0  0
   -4.4507   -0.9033   -0.0811 C   0  0  0  0  0  0  0  0  0  0  0  0
   -5.2020   -0.3211   -1.1058 C   0  0  0  0  0  0  0  0  0  0  0  0
   -4.8766    0.9516   -1.5672 C   0  0  0  0  0  0  0  0  0  0  0  0
   -5.8996    1.7375   -2.9492 Br  0  0  0  0  0  0  0  0  0  0  0  0
   -3.8076    1.6537   -1.0141 C   0  0  0  0  0  0  0  0  0  0  0  0
   -3.0452    1.0729    0.0083 C   0  0  0  0  0  0  0  0  0  0  0  0
   -1.9313    1.8488    0.5703 C   0  0  0  0  0  0  0  0  0  0  0  0
   -0.6314    1.5475    0.4354 C   0  0  0  0  0  0  0  0  0  0  0  0
    0.6223    2.5145    1.2144 S   0  0  0  0  0  0  0  0  0  0  0  0
    1.8147    1.4442    0.6097 C   0  0  0  0  0  0  0  0  0  0  0  0
    3.1109    1.3624    0.6947 N   0  0  0  0  0  0  0  0  0  0  0  0
    3.3640    0.2332   -0.0729 C   0  0  0  0  0  0  0  0  0  0  0  0
    4.8138   -0.3094   -0.2936 C   0  0  0  0  0  0  0  0  0  0  0  0
    5.9646    0.2499    0.2286 C   0  0  0  0  0  0  0  0  0  0  0  0
    7.0451   -0.5506   -0.2152 C   0  0  0  0  0  0  0  0  0  0  0  0
    6.4895   -1.5484   -0.9800 C   0  0  0  0  0  0  0  0  0  0  0  0
    5.1402   -1.4121   -1.0337 O   0  0  0  0  0  0  0  0  0  0  0  0
    2.2749   -0.3536   -0.6090 N   0  0  0  0  0  0  0  0  0  0  0  0
    1.3043    0.4518   -0.1450 N   0  0  0  0  0  0  0  0  0  0  0  0
   -0.0594    0.3974   -0.3442 C   0  0  0  0  0  0  0  0  0  0  0  0
   -0.5984   -0.4386   -1.0447 O   0  0  0  0  0  0  0  0  0  0  0  0
   -2.2881   -2.5754    0.6016 H   0  0  0  0  0  0  0  0  0  0  0  0
   -1.6775   -2.3741    2.2490 H   0  0  0  0  0  0  0  0  0  0  0  0
   -3.4194   -2.5520    2.0098 H   0  0  0  0  0  0  0  0  0  0  0  0
   -4.7411   -1.8880    0.2706 H   0  0  0  0  0  0  0  0  0  0  0  0
   -6.0393   -0.8679   -1.5320 H   0  0  0  0  0  0  0  0  0  0  0  0
   -3.5647    2.6477   -1.3815 H   0  0  0  0  0  0  0  0  0  0  0  0
   -2.2419    2.7131    1.1536 H   0  0  0  0  0  0  0  0  0  0  0  0
    6.0082    1.1311    0.8541 H   0  0  0  0  0  0  0  0  0  0  0  0
    8.0969   -0.4175   -0.0047 H   0  0  0  0  0  0  0  0  0  0  0  0
    6.8946   -2.3884   -1.5271 H   0  0  0  0  0  0  0  0  0  0  0  0
  1  2  1  0
  2  3  1  0
  3  4  2  0
  4  5  1  0
  5  6  2  0
  6  7  1  0
  6  8  1  0
  8  9  2  0
  9 10  1  0
 10 11  2  3
 11 12  1  0
 12 13  1  0
 13 14  2  0
 14 15  1  0
 15 16  1  0
 16 17  2  0
 17 18  1  0
 18 19  2  0
 19 20  1  0
 15 21  2  0
 21 22  1  0
 22 23  1  0
 23 24  2  0
  9  3  1  0
 23 11  1  0
 22 13  1  0
 20 16  1  0
  1 25  1  0
  1 26  1  0
  1 27  1  0
  4 28  1  0
  5 29  1  0
  8 30  1  0
 10 31  1  0
 17 32  1  0
 18 33  1  0
 19 34  1  0
M  END
$$$$
