
     RDKit          3D

 51 55  0  0  0  0  0  0  0  0999 V2000
    8.0401   -0.3626   -0.2129 C   0  0  0  0  0  0  0  0  0  0  0  0
    7.4087    0.3980    0.7693 C   0  0  0  0  0  0  0  0  0  0  0  0
    6.0166    0.3953    0.8688 C   0  0  0  0  0  0  0  0  0  0  0  0
    5.2438   -0.3730   -0.0124 C   0  0  0  0  0  0  0  0  0  0  0  0
    3.7355   -0.3611    0.0818 C   0  0  0  0  0  0  0  0  0  0  0  0
    3.1253    0.7539   -0.7873 C   0  0  0  0  0  0  0  0  0  0  0  0
    1.6605    0.8829   -0.7940 N   0  0  0  0  0  0  0  0  0  0  0  0
    0.9695   -0.2989   -1.3413 C   0  0  0  0  0  0  0  0  0  0  0  0
   -0.5593   -0.0924   -1.4189 C   0  0  0  0  0  0  0  0  0  0  0  0
   -1.1069    0.2515   -0.0893 N   0  0  0  0  0  0  0  0  0  0  0  0
   -2.4868    0.1549    0.0806 C   0  0  0  0  0  0  0  0  0  0  0  0
   -3.1801    1.2373    0.3300 N   0  0  0  0  0  0  0  0  0  0  0  0
   -4.5801    1.1739    0.4760 C   0  0  0  0  0  0  0  0  0  0  0  0
   -5.2750    2.3593    0.7235 C   0  0  0  0  0  0  0  0  0  0  0  0
   -6.6651    2.3551    0.8676 C   0  0  0  0  0  0  0  0  0  0  0  0
   -7.3764    1.1589    0.7646 C   0  0  0  0  0  0  0  0  0  0  0  0
   -6.7031   -0.0381    0.5179 C   0  0  0  0  0  0  0  0  0  0  0  0
   -5.3125   -0.0179    0.3754 C   0  0  0  0  0  0  0  0  0  0  0  0
   -4.5554   -1.1762    0.1373 N   0  0  0  0  0  0  0  0  0  0  0  0
   -4.9659   -2.4827    0.0138 C   0  0  0  0  0  0  0  0  0  0  0  0
   -3.8475   -3.2719   -0.1488 C   0  0  0  0  0  0  0  0  0  0  0  0
   -2.7238   -2.4135   -0.1367 C   0  0  0  0  0  0  0  0  0  0  0  0
   -3.1864   -1.1175    0.0065 C   0  0  0  0  0  0  0  0  0  0  0  0
   -0.4317    1.4438    0.4688 C   0  0  0  0  0  0  0  0  0  0  0  0
    1.0967    1.2266    0.5257 C   0  0  0  0  0  0  0  0  0  0  0  0
    5.8882   -1.1300   -1.0002 C   0  0  0  0  0  0  0  0  0  0  0  0
    7.2804   -1.1257   -1.0977 C   0  0  0  0  0  0  0  0  0  0  0  0
    9.1241   -0.3595   -0.2898 H   0  0  0  0  0  0  0  0  0  0  0  0
    8.0008    0.9950    1.4579 H   0  0  0  0  0  0  0  0  0  0  0  0
    5.5386    0.9971    1.6385 H   0  0  0  0  0  0  0  0  0  0  0  0
    3.3577   -1.3441   -0.2224 H   0  0  0  0  0  0  0  0  0  0  0  0
    3.4510   -0.2367    1.1331 H   0  0  0  0  0  0  0  0  0  0  0  0
    3.4580    0.6223   -1.8258 H   0  0  0  0  0  0  0  0  0  0  0  0
    3.5489    1.7202   -0.4813 H   0  0  0  0  0  0  0  0  0  0  0  0
    1.3395   -0.5070   -2.3521 H   0  0  0  0  0  0  0  0  0  0  0  0
    1.1676   -1.1848   -0.7256 H   0  0  0  0  0  0  0  0  0  0  0  0
   -1.0114   -1.0082   -1.8116 H   0  0  0  0  0  0  0  0  0  0  0  0
   -0.7939    0.7114   -2.1289 H   0  0  0  0  0  0  0  0  0  0  0  0
   -4.7239    3.2926    0.8022 H   0  0  0  0  0  0  0  0  0  0  0  0
   -7.1907    3.2869    1.0597 H   0  0  0  0  0  0  0  0  0  0  0  0
   -8.4578    1.1608    0.8780 H   0  0  0  0  0  0  0  0  0  0  0  0
   -7.2768   -0.9558    0.4442 H   0  0  0  0  0  0  0  0  0  0  0  0
   -6.0086   -2.7596    0.0666 H   0  0  0  0  0  0  0  0  0  0  0  0
   -3.8435   -4.3492   -0.2532 H   0  0  0  0  0  0  0  0  0  0  0  0
   -1.6858   -2.7066   -0.2206 H   0  0  0  0  0  0  0  0  0  0  0  0
   -0.6627    2.3271   -0.1403 H   0  0  0  0  0  0  0  0  0  0  0  0
   -0.7887    1.6327    1.4885 H   0  0  0  0  0  0  0  0  0  0  0  0
    1.5610    2.1476    0.8973 H   0  0  0  0  0  0  0  0  0  0  0  0
    1.3051    0.4327    1.2534 H   0  0  0  0  0  0  0  0  0  0  0  0
    5.3093   -1.7279   -1.7004 H   0  0  0  0  0  0  0  0  0  0  0  0
    7.7727   -1.7170   -1.8653 H   0  0  0  0  0  0  0  0  0  0  0  0
  1  2  2  0
  2  3  1  0
  3  4  2  0
  4  5  1  0
  5  6  1  0
  6  7  1  0
  7  8  1  0
  8  9  1  0
  9 10  1  0
 10 11  1  0
 11 12  2  0
 12 13  1  0
 13 14  2  0
 14 15  1  0
 15 16  2  0
 16 17  1  0
 17 18  2  0
 18 19  1  0
 19 20  1  0
 20 21  2  0
 21 22  1  0
 22 23  2  0
 10 24  1  0
 24 25  1  0
  4 26  1  0
 26 27  2  0
 27  1  1  0
 25  7  1  0
 23 11  1  0
 18 13  1  0
 23 19  1  0
  1 28  1  0
  2 29  1  0
  3 30  1  0
  5 31  1  0
  5 32  1  0
  6 33  1  0
  6 34  1  0
  8 35  1  0
  8 36  1  0
  9 37  1  0
  9 38  1  0
 14 39  1  0
 15 40  1  0
 16 41  1  0
 17 42  1  0
 20 43  1  0
 21 44  1  0
 22 45  1  0
 24 46  1  0
 24 47  1  0
 25 48  1  0
 25 49  1  0
 26 50  1  0
 27 51  1  0
M  END
$$$$
