
     RDKit          3D

 36 38  0  0  0  0  0  0  0  0999 V2000
    6.0493   -0.5713    0.0049 C   0  0  0  0  0  0  0  0  0  0  0  0
    5.4364    0.7777    0.3227 C   0  0  0  0  0  0  0  0  0  0  0  0
    3.9590    0.6656    0.2929 N   0  0  0  0  0  4  0  0  0  0  0  0
    3.2872    0.3491    1.4236 C   0  0  0  0  0  0  0  0  0  0  0  0
    1.9011    0.2414    1.4192 C   0  0  0  0  0  0  0  0  0  0  0  0
    1.1943    0.4537    0.2367 C   0  0  0  0  0  0  0  0  0  0  0  0
   -0.2696    0.3846    0.1737 C   0  0  0  0  0  0  0  0  0  0  0  0
   -1.0092   -0.5431    0.8041 C   0  0  0  0  0  0  0  0  0  0  0  0
   -2.4348   -0.6259    0.7660 C   0  0  0  0  0  0  0  0  0  0  0  0
   -3.1767   -1.0712    1.8389 C   0  0  0  0  0  0  0  0  0  0  0  0
   -4.5002   -1.0141    1.4903 N   0  0  0  0  0  0  0  0  0  0  0  0
   -4.6327   -0.5660    0.1962 C   0  0  0  0  0  0  0  0  0  0  0  0
   -5.7901   -0.3691   -0.5674 C   0  0  0  0  0  0  0  0  0  0  0  0
   -5.6342    0.0793   -1.8809 C   0  0  0  0  0  0  0  0  0  0  0  0
   -4.3693    0.3144   -2.4102 C   0  0  0  0  0  0  0  0  0  0  0  0
   -3.2221    0.1141   -1.6325 C   0  0  0  0  0  0  0  0  0  0  0  0
   -3.3466   -0.3236   -0.2950 C   0  0  0  0  0  0  0  0  0  0  0  0
    1.9062    0.7967   -0.9112 C   0  0  0  0  0  0  0  0  0  0  0  0
    3.2923    0.8914   -0.8623 C   0  0  0  0  0  0  0  0  0  0  0  0
    5.7386   -1.3268    0.7337 H   0  0  0  0  0  0  0  0  0  0  0  0
    5.7424   -0.9198   -0.9865 H   0  0  0  0  0  0  0  0  0  0  0  0
    7.1414   -0.5068    0.0226 H   0  0  0  0  0  0  0  0  0  0  0  0
    5.7319    1.1290    1.3171 H   0  0  0  0  0  0  0  0  0  0  0  0
    5.7357    1.5370   -0.4075 H   0  0  0  0  0  0  0  0  0  0  0  0
    3.8679    0.1855    2.3272 H   0  0  0  0  0  0  0  0  0  0  0  0
    1.3824    0.0030    2.3458 H   0  0  0  0  0  0  0  0  0  0  0  0
   -0.7561    1.1496   -0.4280 H   0  0  0  0  0  0  0  0  0  0  0  0
   -0.5171   -1.2931    1.4198 H   0  0  0  0  0  0  0  0  0  0  0  0
   -2.8885   -1.4094    2.8252 H   0  0  0  0  0  0  0  0  0  0  0  0
   -5.2745   -1.2735    2.0866 H   0  0  0  0  0  0  0  0  0  0  0  0
   -6.7784   -0.5619   -0.1618 H   0  0  0  0  0  0  0  0  0  0  0  0
   -6.5150    0.2384   -2.4995 H   0  0  0  0  0  0  0  0  0  0  0  0
   -4.2711    0.6516   -3.4392 H   0  0  0  0  0  0  0  0  0  0  0  0
   -2.2462    0.2862   -2.0727 H   0  0  0  0  0  0  0  0  0  0  0  0
    1.3892    0.9819   -1.8513 H   0  0  0  0  0  0  0  0  0  0  0  0
    3.8772    1.1453   -1.7420 H   0  0  0  0  0  0  0  0  0  0  0  0
  1  2  1  0
  2  3  1  0
  3  4  2  0
  4  5  1  0
  5  6  2  0
  6  7  1  0
  7  8  2  3
  8  9  1  0
  9 10  2  0
 10 11  1  0
 11 12  1  0
 12 13  2  0
 13 14  1  0
 14 15  2  0
 15 16  1  0
 16 17  2  0
  6 18  1  0
 18 19  2  0
 19  3  1  0
 17  9  1  0
 17 12  1  0
  1 20  1  0
  1 21  1  0
  1 22  1  0
  2 23  1  0
  2 24  1  0
  4 25  1  0
  5 26  1  0
  7 27  1  0
  8 28  1  0
 10 29  1  0
 11 30  1  0
 13 31  1  0
 14 32  1  0
 15 33  1  0
 16 34  1  0
 18 35  1  0
 19 36  1  0
M  CHG  1   3   1
M  END
$$$$
