
     RDKit          3D

 51 55  0  0  0  0  0  0  0  0999 V2000
    5.7905   -2.8204   -1.2172 C   0  0  0  0  0  0  0  0  0  0  0  0
    4.5567   -2.5040   -0.3910 C   0  0  0  0  0  0  0  0  0  0  0  0
    4.3260   -1.0979   -0.4667 O   0  0  0  0  0  0  0  0  0  0  0  0
    3.2352   -0.6082    0.1968 C   0  0  0  0  0  0  0  0  0  0  0  0
    3.0471    0.7718    0.0640 C   0  0  0  0  0  0  0  0  0  0  0  0
    1.9677    1.4075    0.6791 C   0  0  0  0  0  0  0  0  0  0  0  0
    1.0627    0.6491    1.4227 C   0  0  0  0  0  0  0  0  0  0  0  0
   -0.3278    1.4517    2.1945 S   0  0  0  0  0  6  0  0  0  0  0  0
    0.0690    2.8155    2.4768 O   0  0  0  0  0  0  0  0  0  0  0  0
   -0.7671    0.5931    3.2771 O   0  0  0  0  0  0  0  0  0  0  0  0
   -1.4801    1.4307    0.9488 N   0  0  0  0  0  0  0  0  0  0  0  0
   -2.3647    2.5352    0.8176 C   0  0  0  0  0  0  0  0  0  0  0  0
   -3.5639    2.4591    1.0660 O   0  0  0  0  0  0  0  0  0  0  0  0
   -1.7484    3.7238    0.2584 C   0  0  0  0  0  0  0  0  0  0  0  0
   -2.2294    5.0156    0.1349 C   0  0  0  0  0  0  0  0  0  0  0  0
   -1.2227    5.7684   -0.5154 C   0  0  0  0  0  0  0  0  0  0  0  0
   -0.1921    4.8940   -0.7632 C   0  0  0  0  0  0  0  0  0  0  0  0
   -0.5015    3.6519   -0.3113 O   0  0  0  0  0  0  0  0  0  0  0  0
   -2.0621    0.1456    0.6290 C   0  0  0  0  0  0  0  0  0  0  0  0
   -2.9556   -0.4638    1.5239 C   0  0  0  0  0  0  0  0  0  0  0  0
   -3.4920   -1.6942    1.2000 C   0  0  0  0  0  0  0  0  0  0  0  0
   -4.6099   -2.6619    2.1404 S   0  0  0  0  0  0  0  0  0  0  0  0
   -4.5671   -3.8759    0.8592 C   0  0  0  0  0  0  0  0  0  0  0  0
   -5.2084   -4.9154    0.9295 O   0  0  0  0  0  0  0  0  0  0  0  0
   -3.7535   -3.5717   -0.2287 O   0  0  0  0  0  0  0  0  0  0  0  0
   -3.1629   -2.3236    0.0059 C   0  0  0  0  0  0  0  0  0  0  0  0
   -2.2874   -1.7439   -0.9220 C   0  0  0  0  0  0  0  0  0  0  0  0
   -1.9555   -2.3803   -2.1351 C   0  0  0  0  0  0  0  0  0  0  0  0
   -1.0844   -1.7842   -3.0443 C   0  0  0  0  0  0  0  0  0  0  0  0
   -0.5350   -0.5421   -2.7593 C   0  0  0  0  0  0  0  0  0  0  0  0
   -0.8555    0.1041   -1.5638 C   0  0  0  0  0  0  0  0  0  0  0  0
   -1.7278   -0.4766   -0.6136 C   0  0  0  0  0  0  0  0  0  0  0  0
    1.2546   -0.7256    1.5878 C   0  0  0  0  0  0  0  0  0  0  0  0
    2.3392   -1.3532    0.9667 C   0  0  0  0  0  0  0  0  0  0  0  0
    5.6477   -2.5098   -2.2579 H   0  0  0  0  0  0  0  0  0  0  0  0
    6.6596   -2.2724   -0.8376 H   0  0  0  0  0  0  0  0  0  0  0  0
    6.0106   -3.8915   -1.1951 H   0  0  0  0  0  0  0  0  0  0  0  0
    4.7346   -2.8042    0.6480 H   0  0  0  0  0  0  0  0  0  0  0  0
    3.7017   -3.0534   -0.8010 H   0  0  0  0  0  0  0  0  0  0  0  0
    3.7518    1.3549   -0.5252 H   0  0  0  0  0  0  0  0  0  0  0  0
    1.8407    2.4819    0.5685 H   0  0  0  0  0  0  0  0  0  0  0  0
   -3.1939    5.3634    0.4813 H   0  0  0  0  0  0  0  0  0  0  0  0
   -1.2458    6.8182   -0.7731 H   0  0  0  0  0  0  0  0  0  0  0  0
    0.7782    4.9951   -1.2299 H   0  0  0  0  0  0  0  0  0  0  0  0
   -3.2271    0.0198    2.4593 H   0  0  0  0  0  0  0  0  0  0  0  0
   -2.3782   -3.3530   -2.3821 H   0  0  0  0  0  0  0  0  0  0  0  0
   -0.8383   -2.2897   -3.9749 H   0  0  0  0  0  0  0  0  0  0  0  0
    0.1456   -0.0716   -3.4653 H   0  0  0  0  0  0  0  0  0  0  0  0
   -0.4046    1.0781   -1.3834 H   0  0  0  0  0  0  0  0  0  0  0  0
    0.5668   -1.3170    2.1885 H   0  0  0  0  0  0  0  0  0  0  0  0
    2.4571   -2.4228    1.1060 H   0  0  0  0  0  0  0  0  0  0  0  0
  1  2  1  0
  2  3  1  0
  3  4  1  0
  4  5  2  0
  5  6  1  0
  6  7  2  0
  7  8  1  0
  8  9  2  0
  8 10  2  0
  8 11  1  0
 11 12  1  0
 12 13  2  0
 12 14  1  0
 14 15  2  0
 15 16  1  0
 16 17  2  0
 17 18  1  0
 11 19  1  0
 19 20  2  0
 20 21  1  0
 21 22  1  0
 22 23  1  0
 23 24  2  0
 23 25  1  0
 25 26  1  0
 26 27  1  0
 27 28  2  0
 28 29  1  0
 29 30  2  0
 30 31  1  0
 31 32  2  0
  7 33  1  0
 33 34  2  0
 34  4  1  0
 18 14  1  0
 32 19  1  0
 26 21  2  0
 32 27  1  0
  1 35  1  0
  1 36  1  0
  1 37  1  0
  2 38  1  0
  2 39  1  0
  5 40  1  0
  6 41  1  0
 15 42  1  0
 16 43  1  0
 17 44  1  0
 20 45  1  0
 28 46  1  0
 29 47  1  0
 30 48  1  0
 31 49  1  0
 33 50  1  0
 34 51  1  0
M  END
$$$$
