
     RDKit          3D

 50 52  0  0  0  0  0  0  0  0999 V2000
    7.9895    2.2739   -1.2258 C   0  0  0  0  0  0  0  0  0  0  0  0
    7.0044    2.3830   -0.2064 O   0  0  0  0  0  0  0  0  0  0  0  0
    5.7719    1.8586   -0.4780 C   0  0  0  0  0  0  0  0  0  0  0  0
    5.3892    1.2260   -1.6582 C   0  0  0  0  0  0  0  0  0  0  0  0
    4.0853    0.7333   -1.8007 C   0  0  0  0  0  0  0  0  0  0  0  0
    3.1483    0.8635   -0.7681 C   0  0  0  0  0  0  0  0  0  0  0  0
    1.8608    0.3405   -0.9990 N   0  0  0  0  0  0  0  0  0  0  0  0
    0.7921    0.2925   -0.1138 C   0  0  0  0  0  0  0  0  0  0  0  0
    0.7958    0.6851    1.0534 O   0  0  0  0  0  0  0  0  0  0  0  0
   -0.4790   -0.3448   -0.7357 C   0  0  0  0  0  0  0  0  0  0  0  0
   -1.5959   -0.1629    0.1779 N   0  0  0  0  0  0  0  0  0  0  0  0
   -2.8600    0.1250   -0.2773 C   0  0  0  0  0  0  0  0  0  0  0  0
   -3.1409    0.2063   -1.4685 O   0  0  0  0  0  0  0  0  0  0  0  0
   -3.8962    0.3811    0.7614 C   0  0  0  0  0  0  0  0  0  0  0  0
   -3.8116   -0.1656    2.0474 C   0  0  0  0  0  0  0  0  0  0  0  0
   -4.8104    0.1007    2.9890 C   0  0  0  0  0  0  0  0  0  0  0  0
   -5.9006    0.9156    2.6594 C   0  0  0  0  0  0  0  0  0  0  0  0
   -6.9878    1.1712    3.6614 C   0  0  0  0  0  0  0  0  0  0  0  0
   -5.9963    1.4354    1.3633 C   0  0  0  0  0  0  0  0  0  0  0  0
   -5.0003    1.1706    0.4200 C   0  0  0  0  0  0  0  0  0  0  0  0
   -0.2995   -1.8187   -1.0591 C   0  0  0  0  0  0  0  0  0  0  0  0
    0.3742   -2.6913   -0.1889 C   0  0  0  0  0  0  0  0  0  0  0  0
    0.5201   -4.0421   -0.5106 C   0  0  0  0  0  0  0  0  0  0  0  0
   -0.0179   -4.5408   -1.6950 C   0  0  0  0  0  0  0  0  0  0  0  0
   -0.7105   -3.6924   -2.5557 C   0  0  0  0  0  0  0  0  0  0  0  0
   -0.8555   -2.3412   -2.2380 C   0  0  0  0  0  0  0  0  0  0  0  0
    3.5356    1.4993    0.4096 C   0  0  0  0  0  0  0  0  0  0  0  0
    4.8387    1.9914    0.5507 C   0  0  0  0  0  0  0  0  0  0  0  0
    8.2126    1.2253   -1.4486 H   0  0  0  0  0  0  0  0  0  0  0  0
    7.6851    2.8142   -2.1283 H   0  0  0  0  0  0  0  0  0  0  0  0
    8.9082    2.7379   -0.8541 H   0  0  0  0  0  0  0  0  0  0  0  0
    6.0766    1.0980   -2.4875 H   0  0  0  0  0  0  0  0  0  0  0  0
    3.8189    0.2438   -2.7343 H   0  0  0  0  0  0  0  0  0  0  0  0
    1.7163   -0.0993   -1.9013 H   0  0  0  0  0  0  0  0  0  0  0  0
   -0.6814    0.2163   -1.6577 H   0  0  0  0  0  0  0  0  0  0  0  0
   -1.3469    0.0142    1.1443 H   0  0  0  0  0  0  0  0  0  0  0  0
   -2.9932   -0.8227    2.3270 H   0  0  0  0  0  0  0  0  0  0  0  0
   -4.7356   -0.3388    3.9817 H   0  0  0  0  0  0  0  0  0  0  0  0
   -7.7561    0.3956    3.5858 H   0  0  0  0  0  0  0  0  0  0  0  0
   -7.4527    2.1482    3.4924 H   0  0  0  0  0  0  0  0  0  0  0  0
   -6.5867    1.1747    4.6803 H   0  0  0  0  0  0  0  0  0  0  0  0
   -6.8479    2.0490    1.0773 H   0  0  0  0  0  0  0  0  0  0  0  0
   -5.0880    1.5823   -0.5834 H   0  0  0  0  0  0  0  0  0  0  0  0
    0.7892   -2.3301    0.7507 H   0  0  0  0  0  0  0  0  0  0  0  0
    1.0471   -4.7076    0.1687 H   0  0  0  0  0  0  0  0  0  0  0  0
    0.0899   -5.5941   -1.9403 H   0  0  0  0  0  0  0  0  0  0  0  0
   -1.1502   -4.0845   -3.4693 H   0  0  0  0  0  0  0  0  0  0  0  0
   -1.4254   -1.6976   -2.9077 H   0  0  0  0  0  0  0  0  0  0  0  0
    2.8524    1.6364    1.2413 H   0  0  0  0  0  0  0  0  0  0  0  0
    5.1246    2.4852    1.4767 H   0  0  0  0  0  0  0  0  0  0  0  0
  1  2  1  0
  2  3  1  0
  3  4  2  0
  4  5  1  0
  5  6  2  0
  6  7  1  0
  7  8  1  0
  8  9  2  0
  8 10  1  0
 10 11  1  0
 11 12  1  0
 12 13  2  0
 12 14  1  0
 14 15  2  0
 15 16  1  0
 16 17  2  0
 17 18  1  0
 17 19  1  0
 19 20  2  0
 10 21  1  0
 21 22  2  0
 22 23  1  0
 23 24  2  0
 24 25  1  0
 25 26  2  0
  6 27  1  0
 27 28  2  0
 28  3  1  0
 20 14  1  0
 26 21  1  0
  1 29  1  0
  1 30  1  0
  1 31  1  0
  4 32  1  0
  5 33  1  0
  7 34  1  0
 10 35  1  0
 11 36  1  0
 15 37  1  0
 16 38  1  0
 18 39  1  0
 18 40  1  0
 18 41  1  0
 19 42  1  0
 20 43  1  0
 22 44  1  0
 23 45  1  0
 24 46  1  0
 25 47  1  0
 26 48  1  0
 27 49  1  0
 28 50  1  0
M  END
$$$$
