
     RDKit          3D

 46 49  0  0  0  0  0  0  0  0999 V2000
   -4.2660   -3.4668   -1.8539 C   0  0  0  0  0  0  0  0  0  0  0  0
   -3.0228   -2.7949   -1.6937 O   0  0  0  0  0  0  0  0  0  0  0  0
   -3.0537   -1.5656   -1.0979 C   0  0  0  0  0  0  0  0  0  0  0  0
   -4.1862   -0.9031   -0.6414 C   0  0  0  0  0  0  0  0  0  0  0  0
   -4.0705    0.3568   -0.0432 C   0  0  0  0  0  0  0  0  0  0  0  0
   -2.8202    0.9744    0.1035 C   0  0  0  0  0  0  0  0  0  0  0  0
   -2.6426    2.1908    0.7150 O   0  0  0  0  0  0  0  0  0  0  0  0
   -3.7891    2.8553    1.2295 C   0  0  0  0  0  0  0  0  0  0  0  0
   -1.6588    0.3231   -0.3680 C   0  0  0  0  0  0  0  0  0  0  0  0
   -0.3119    0.9095   -0.2656 C   0  0  0  0  0  0  0  0  0  0  0  0
   -0.1620    2.2188   -0.5628 N   0  0  0  0  0  0  0  0  0  0  0  0
    1.0945    2.7179   -0.4800 C   0  0  0  0  0  0  0  0  0  0  0  0
    1.2618    4.1650   -0.7867 C   0  0  0  0  0  0  0  0  0  0  0  0
    0.1091    4.8367   -1.0927 N   0  0  0  0  0  0  0  0  0  0  0  0
    2.3527    4.7209   -0.7647 O   0  0  0  0  0  0  0  0  0  0  0  0
    2.1586    1.9402   -0.1359 C   0  0  0  0  0  0  0  0  0  0  0  0
    3.5116    2.2050   -0.0027 N   0  0  0  0  0  0  0  0  0  0  0  0
    4.1658    1.0204    0.3594 C   0  0  0  0  0  0  0  0  0  0  0  0
    5.3693    0.9561    0.5486 O   0  0  0  0  0  0  0  0  0  0  0  0
    3.1583    0.0100    0.4516 N   0  0  0  0  0  0  0  0  0  0  0  0
    3.3470   -1.3601    0.7846 C   0  0  0  0  0  0  0  0  0  0  0  0
    2.2787   -2.2484    1.0043 C   0  0  0  0  0  0  0  0  0  0  0  0
    2.4950   -3.5947    1.3298 C   0  0  0  0  0  0  0  0  0  0  0  0
    3.7881   -4.0753    1.4442 C   0  0  0  0  0  0  0  0  0  0  0  0
    3.9953   -5.3608    1.7555 F   0  0  0  0  0  0  0  0  0  0  0  0
    4.8672   -3.2333    1.2407 C   0  0  0  0  0  0  0  0  0  0  0  0
    4.6456   -1.8886    0.9153 C   0  0  0  0  0  0  0  0  0  0  0  0
    1.9142    0.6160    0.1355 C   0  0  0  0  0  0  0  0  0  0  0  0
    0.6960    0.0706    0.0674 N   0  0  0  0  0  0  0  0  0  0  0  0
   -1.8074   -0.9522   -0.9570 C   0  0  0  0  0  0  0  0  0  0  0  0
   -4.7314   -3.6719   -0.8842 H   0  0  0  0  0  0  0  0  0  0  0  0
   -4.9399   -2.8995   -2.5043 H   0  0  0  0  0  0  0  0  0  0  0  0
   -4.0668   -4.4278   -2.3377 H   0  0  0  0  0  0  0  0  0  0  0  0
   -5.1770   -1.3369   -0.7288 H   0  0  0  0  0  0  0  0  0  0  0  0
   -4.9843    0.8280    0.3047 H   0  0  0  0  0  0  0  0  0  0  0  0
   -3.4552    3.7944    1.6811 H   0  0  0  0  0  0  0  0  0  0  0  0
   -4.2708    2.2625    2.0139 H   0  0  0  0  0  0  0  0  0  0  0  0
   -4.4932    3.1040    0.4288 H   0  0  0  0  0  0  0  0  0  0  0  0
    0.1434    5.8249   -1.2974 H   0  0  0  0  0  0  0  0  0  0  0  0
   -0.7804    4.3475   -1.0787 H   0  0  0  0  0  0  0  0  0  0  0  0
    3.9587    3.1026   -0.1498 H   0  0  0  0  0  0  0  0  0  0  0  0
    1.2432   -1.9324    0.9511 H   0  0  0  0  0  0  0  0  0  0  0  0
    1.6555   -4.2623    1.4969 H   0  0  0  0  0  0  0  0  0  0  0  0
    5.8780   -3.6183    1.3323 H   0  0  0  0  0  0  0  0  0  0  0  0
    5.5295   -1.2775    0.7566 H   0  0  0  0  0  0  0  0  0  0  0  0
   -0.9272   -1.4808   -1.3232 H   0  0  0  0  0  0  0  0  0  0  0  0
  1  2  1  0
  2  3  1  0
  3  4  2  0
  4  5  1  0
  5  6  2  0
  6  7  1  0
  7  8  1  0
  6  9  1  0
  9 10  1  0
 10 11  2  0
 11 12  1  0
 12 13  1  0
 13 14  1  0
 13 15  2  0
 12 16  2  0
 16 17  1  0
 17 18  1  0
 18 19  2  0
 18 20  1  0
 20 21  1  0
 21 22  2  0
 22 23  1  0
 23 24  2  0
 24 25  1  0
 24 26  1  0
 26 27  2  0
 20 28  1  0
 28 29  2  0
  9 30  2  0
 30  3  1  0
 29 10  1  0
 28 16  1  0
 27 21  1  0
  1 31  1  0
  1 32  1  0
  1 33  1  0
  4 34  1  0
  5 35  1  0
  8 36  1  0
  8 37  1  0
  8 38  1  0
 14 39  1  0
 14 40  1  0
 17 41  1  0
 22 42  1  0
 23 43  1  0
 26 44  1  0
 27 45  1  0
 30 46  1  0
M  END
$$$$
