
     RDKit          3D

 43 45  0  0  0  0  0  0  0  0999 V2000
   -6.8648   -1.4293   -0.2663 C   0  0  0  0  0  0  0  0  0  0  0  0
   -6.0139   -0.3032   -0.6481 N   0  0  0  0  0  0  0  0  0  0  0  0
   -6.7069    0.8486   -1.2214 C   0  0  0  0  0  0  0  0  0  0  0  0
   -4.8078   -0.1086    0.0354 C   0  0  0  0  0  0  0  0  0  0  0  0
   -4.1848   -1.1455    0.7544 C   0  0  0  0  0  0  0  0  0  0  0  0
   -2.9672   -0.9672    1.4277 C   0  0  0  0  0  0  0  0  0  0  0  0
   -2.3215    0.2649    1.3947 C   0  0  0  0  0  0  0  0  0  0  0  0
   -1.0416    0.4490    2.0791 C   0  0  0  0  0  0  0  0  0  0  0  0
    0.1733    0.3334    1.5171 C   0  0  0  0  0  0  0  0  0  0  0  0
    0.4396   -0.0014    0.1313 C   0  0  0  0  0  0  0  0  0  0  0  0
    1.6342   -0.1160   -0.4711 C   0  0  0  0  0  0  0  0  0  0  0  0
    1.7671   -0.5202   -2.1402 S   0  0  0  0  0  0  0  0  0  0  0  0
    3.5272   -0.5739   -2.0977 C   0  0  0  0  0  0  0  0  0  0  0  0
    4.3631   -1.1534   -3.4296 S   0  0  0  0  0  0  0  0  0  0  0  0
    3.9829   -0.1713   -0.8478 N   0  0  0  0  0  0  0  0  0  0  0  0
    5.3674   -0.0134   -0.5002 C   0  0  0  0  0  0  0  0  0  0  0  0
    5.8437   -0.4277    0.7542 C   0  0  0  0  0  0  0  0  0  0  0  0
    7.1886   -0.2730    1.1055 C   0  0  0  0  0  0  0  0  0  0  0  0
    8.0807    0.3105    0.2123 C   0  0  0  0  0  0  0  0  0  0  0  0
    7.6264    0.7460   -1.0280 C   0  0  0  0  0  0  0  0  0  0  0  0
    6.2809    0.5897   -1.3787 C   0  0  0  0  0  0  0  0  0  0  0  0
    2.9963    0.0742    0.1125 C   0  0  0  0  0  0  0  0  0  0  0  0
    3.1701    0.4318    1.2718 O   0  0  0  0  0  0  0  0  0  0  0  0
   -2.9020    1.3093    0.6809 C   0  0  0  0  0  0  0  0  0  0  0  0
   -4.1198    1.1183    0.0111 C   0  0  0  0  0  0  0  0  0  0  0  0
   -7.1263   -1.3837    0.7967 H   0  0  0  0  0  0  0  0  0  0  0  0
   -7.8018   -1.4323   -0.8347 H   0  0  0  0  0  0  0  0  0  0  0  0
   -6.3773   -2.3851   -0.4856 H   0  0  0  0  0  0  0  0  0  0  0  0
   -6.0815    1.3594   -1.9621 H   0  0  0  0  0  0  0  0  0  0  0  0
   -7.0074    1.5573   -0.4417 H   0  0  0  0  0  0  0  0  0  0  0  0
   -7.6122    0.5404   -1.7567 H   0  0  0  0  0  0  0  0  0  0  0  0
   -4.6277   -2.1353    0.8021 H   0  0  0  0  0  0  0  0  0  0  0  0
   -2.5294   -1.8052    1.9643 H   0  0  0  0  0  0  0  0  0  0  0  0
   -1.1206    0.7003    3.1343 H   0  0  0  0  0  0  0  0  0  0  0  0
    1.0276    0.5063    2.1685 H   0  0  0  0  0  0  0  0  0  0  0  0
   -0.4485   -0.1798   -0.4764 H   0  0  0  0  0  0  0  0  0  0  0  0
    5.1831   -0.9001    1.4779 H   0  0  0  0  0  0  0  0  0  0  0  0
    7.5352   -0.6096    2.0796 H   0  0  0  0  0  0  0  0  0  0  0  0
    9.1254    0.4337    0.4857 H   0  0  0  0  0  0  0  0  0  0  0  0
    8.3156    1.2190   -1.7232 H   0  0  0  0  0  0  0  0  0  0  0  0
    5.9642    0.9930   -2.3370 H   0  0  0  0  0  0  0  0  0  0  0  0
   -2.4151    2.2798    0.6312 H   0  0  0  0  0  0  0  0  0  0  0  0
   -4.5142    1.9705   -0.5333 H   0  0  0  0  0  0  0  0  0  0  0  0
  1  2  1  0
  2  3  1  0
  2  4  1  0
  4  5  2  0
  5  6  1  0
  6  7  2  0
  7  8  1  0
  8  9  2  3
  9 10  1  0
 10 11  2  3
 11 12  1  0
 12 13  1  0
 13 14  2  0
 13 15  1  0
 15 16  1  0
 16 17  2  0
 17 18  1  0
 18 19  2  0
 19 20  1  0
 20 21  2  0
 15 22  1  0
 22 23  2  0
  7 24  1  0
 24 25  2  0
 25  4  1  0
 22 11  1  0
 21 16  1  0
  1 26  1  0
  1 27  1  0
  1 28  1  0
  3 29  1  0
  3 30  1  0
  3 31  1  0
  5 32  1  0
  6 33  1  0
  8 34  1  0
  9 35  1  0
 10 36  1  0
 17 37  1  0
 18 38  1  0
 19 39  1  0
 20 40  1  0
 21 41  1  0
 24 42  1  0
 25 43  1  0
M  END
$$$$
