
     RDKit          3D

126129  0  0  0  0  0  0  0  0999 V2000
   -0.8606    7.3914    2.5744 C   0  0  0  0  0  0  0  0  0  0  0  0
   -0.4699    7.1580    1.3148 C   0  0  0  0  0  0  0  0  0  0  0  0
    0.3043    5.9461    0.8754 C   0  0  0  0  0  0  0  0  0  0  0  0
   -0.4362    5.0106   -0.0528 C   0  0  0  0  0  0  0  0  0  0  0  0
   -1.7295    5.0889   -0.4273 C   0  0  0  0  0  0  0  0  0  0  0  0
   -2.4684    4.2026   -1.4090 C   0  0  0  0  0  0  0  0  0  0  0  0
   -3.2422    5.0897   -2.3881 C   0  0  0  0  0  0  0  0  0  0  0  0
   -3.3714    3.2126   -0.6386 C   0  0  0  0  0  0  0  0  0  0  0  0
   -4.0954    2.1955   -1.5449 C   0  0  0  0  0  0  0  0  0  0  0  0
   -5.5442    2.6150   -1.8169 C   0  0  0  0  0  0  0  0  0  0  0  0
   -4.0243    0.7344   -1.0213 C   0  0  0  0  0  0  0  0  0  0  0  0
   -4.7748    0.4144    0.2866 C   0  0  0  0  0  0  0  0  0  0  0  0
   -4.0318    1.0449    1.3473 O   0  0  0  0  0  0  0  0  0  0  0  0
   -4.8169    1.3651    2.4838 C   0  0  0  0  0  0  0  0  0  0  0  0
   -4.9235   -1.1253    0.5574 C   0  0  0  0  0  0  0  0  0  0  0  0
   -3.6363   -1.7524    0.6231 O   0  0  0  0  0  0  0  0  0  0  0  0
   -3.4484   -2.9855   -0.0911 C   0  0  0  0  0  0  0  0  0  0  0  0
   -4.2649   -3.9889    0.5057 O   0  0  0  0  0  0  0  0  0  0  0  0
   -1.9153   -3.2555    0.0978 C   0  0  0  0  0  0  0  0  0  0  0  0
   -1.1134   -2.4775    0.6096 O   0  0  0  0  0  0  0  0  0  0  0  0
   -1.4286   -4.6280   -0.3657 C   0  0  0  0  0  0  0  0  0  0  0  0
   -2.2709   -5.5261   -0.3968 O   0  0  0  0  0  0  0  0  0  0  0  0
   -0.1020   -4.7840   -0.7891 N   0  0  0  0  0  0  0  0  0  0  0  0
    0.2199   -5.9725   -1.5637 C   0  0  0  0  0  0  0  0  0  0  0  0
    0.8944   -7.0157   -0.6835 C   0  0  0  0  0  0  0  0  0  0  0  0
    2.1203   -6.4555    0.0391 C   0  0  0  0  0  0  0  0  0  0  0  0
    2.3258   -4.9565   -0.1948 C   0  0  0  0  0  0  0  0  0  0  0  0
    1.0244   -4.1414   -0.0699 C   0  0  0  0  0  0  0  0  0  0  0  0
    1.3413   -2.7046   -0.5205 C   0  0  0  0  0  0  0  0  0  0  0  0
    1.0530   -2.2168   -1.6046 O   0  0  0  0  0  0  0  0  0  0  0  0
    2.0286   -2.0855    0.4799 O   0  0  0  0  0  0  0  0  0  0  0  0
    2.3816   -0.6934    0.3199 C   0  0  0  0  0  0  0  0  0  0  0  0
    3.5723   -0.4497    1.2531 C   0  0  0  0  0  0  0  0  0  0  0  0
    3.4483   -0.9552    2.6695 C   0  0  0  0  0  0  0  0  0  0  0  0
    4.6882    0.1686    0.8057 C   0  0  0  0  0  0  0  0  0  0  0  0
    5.9143    0.5103    1.6322 C   0  0  0  0  0  0  0  0  0  0  0  0
    6.2323    2.0145    1.5799 C   0  0  0  0  0  0  0  0  0  0  0  0
    6.8866    2.4551    0.2736 C   0  0  0  0  0  0  0  0  0  0  0  0
    8.1016    1.6032   -0.0599 C   0  0  0  0  0  0  0  0  0  0  0  0
    8.6203    2.0162   -1.3263 O   0  0  0  0  0  0  0  0  0  0  0  0
    7.7454    0.1075   -0.1135 C   0  0  0  0  0  0  0  0  0  0  0  0
    8.9718   -0.6052   -0.3551 O   0  0  0  0  0  0  0  0  0  0  0  0
    8.7633   -1.8872   -0.9386 C   0  0  0  0  0  0  0  0  0  0  0  0
    7.1212   -0.3367    1.2131 C   0  0  0  0  0  0  0  0  0  0  0  0
    1.1307    0.2158    0.5293 C   0  0  0  0  0  0  0  0  0  0  0  0
    0.4689    0.0428    1.9059 C   0  0  0  0  0  0  0  0  0  0  0  0
    1.4313    1.6982    0.1935 C   0  0  0  0  0  0  0  0  0  0  0  0
    2.1782    2.3013    1.2521 O   0  0  0  0  0  0  0  0  0  0  0  0
    0.1414    2.5030   -0.0037 C   0  0  0  0  0  0  0  0  0  0  0  0
    0.4311    3.8901   -0.5400 C   0  0  0  0  0  0  0  0  0  0  0  0
    1.3687    4.1329   -1.3000 O   0  0  0  0  0  0  0  0  0  0  0  0
   -3.8573   -2.7526   -1.5623 C   0  0  0  0  0  0  0  0  0  0  0  0
   -3.6225   -3.9206   -2.5271 C   0  0  0  0  0  0  0  0  0  0  0  0
   -5.3441   -2.3528   -1.6620 C   0  0  0  0  0  0  0  0  0  0  0  0
   -5.9470   -1.8372   -0.3546 C   0  0  0  0  0  0  0  0  0  0  0  0
   -7.0799   -1.0234   -0.6824 O   0  0  0  0  0  0  0  0  0  0  0  0
   -8.0615   -0.9965    0.3485 C   0  0  0  0  0  0  0  0  0  0  0  0
   -0.6441    6.6964    3.3798 H   0  0  0  0  0  0  0  0  0  0  0  0
   -1.4151    8.2911    2.8272 H   0  0  0  0  0  0  0  0  0  0  0  0
   -0.7053    7.8918    0.5466 H   0  0  0  0  0  0  0  0  0  0  0  0
    0.6362    5.3752    1.7532 H   0  0  0  0  0  0  0  0  0  0  0  0
    1.2136    6.3069    0.3757 H   0  0  0  0  0  0  0  0  0  0  0  0
   -2.3358    5.8881   -0.0079 H   0  0  0  0  0  0  0  0  0  0  0  0
   -1.7474    3.6274   -2.0024 H   0  0  0  0  0  0  0  0  0  0  0  0
   -3.6489    4.5021   -3.2184 H   0  0  0  0  0  0  0  0  0  0  0  0
   -2.5898    5.8544   -2.8271 H   0  0  0  0  0  0  0  0  0  0  0  0
   -4.0744    5.6031   -1.8926 H   0  0  0  0  0  0  0  0  0  0  0  0
   -4.0954    3.7624   -0.0208 H   0  0  0  0  0  0  0  0  0  0  0  0
   -2.7260    2.6731    0.0657 H   0  0  0  0  0  0  0  0  0  0  0  0
   -3.5817    2.1751   -2.5148 H   0  0  0  0  0  0  0  0  0  0  0  0
   -6.0400    1.8930   -2.4751 H   0  0  0  0  0  0  0  0  0  0  0  0
   -6.1281    2.7032   -0.8964 H   0  0  0  0  0  0  0  0  0  0  0  0
   -5.5898    3.5883   -2.3140 H   0  0  0  0  0  0  0  0  0  0  0  0
   -2.9644    0.4669   -0.9075 H   0  0  0  0  0  0  0  0  0  0  0  0
   -4.4170    0.1155   -1.8296 H   0  0  0  0  0  0  0  0  0  0  0  0
   -5.7728    0.8634    0.2491 H   0  0  0  0  0  0  0  0  0  0  0  0
   -5.6323    2.0441    2.2113 H   0  0  0  0  0  0  0  0  0  0  0  0
   -4.1781    1.8777    3.2085 H   0  0  0  0  0  0  0  0  0  0  0  0
   -5.2206    0.4676    2.9608 H   0  0  0  0  0  0  0  0  0  0  0  0
   -5.3166   -1.2169    1.5759 H   0  0  0  0  0  0  0  0  0  0  0  0
   -3.8027   -4.8438    0.3941 H   0  0  0  0  0  0  0  0  0  0  0  0
    0.8819   -5.6680   -2.3798 H   0  0  0  0  0  0  0  0  0  0  0  0
   -0.6832   -6.3944   -2.0158 H   0  0  0  0  0  0  0  0  0  0  0  0
    0.1785   -7.3751    0.0649 H   0  0  0  0  0  0  0  0  0  0  0  0
    1.1789   -7.8856   -1.2879 H   0  0  0  0  0  0  0  0  0  0  0  0
    2.0290   -6.6486    1.1187 H   0  0  0  0  0  0  0  0  0  0  0  0
    3.0172   -6.9935   -0.2952 H   0  0  0  0  0  0  0  0  0  0  0  0
    2.7797   -4.8057   -1.1825 H   0  0  0  0  0  0  0  0  0  0  0  0
    3.0643   -4.5871    0.5243 H   0  0  0  0  0  0  0  0  0  0  0  0
    0.7314   -4.1092    0.9897 H   0  0  0  0  0  0  0  0  0  0  0  0
    2.7265   -0.5621   -0.7151 H   0  0  0  0  0  0  0  0  0  0  0  0
    4.3939   -1.3633    3.0356 H   0  0  0  0  0  0  0  0  0  0  0  0
    3.1323   -0.1496    3.3392 H   0  0  0  0  0  0  0  0  0  0  0  0
    2.7277   -1.7747    2.7593 H   0  0  0  0  0  0  0  0  0  0  0  0
    4.7129    0.4909   -0.2338 H   0  0  0  0  0  0  0  0  0  0  0  0
    5.7131    0.2854    2.6853 H   0  0  0  0  0  0  0  0  0  0  0  0
    6.9117    2.2576    2.4101 H   0  0  0  0  0  0  0  0  0  0  0  0
    5.3204    2.6037    1.7480 H   0  0  0  0  0  0  0  0  0  0  0  0
    7.1839    3.5092    0.3433 H   0  0  0  0  0  0  0  0  0  0  0  0
    6.1624    2.4122   -0.5478 H   0  0  0  0  0  0  0  0  0  0  0  0
    8.8971    1.7714    0.6800 H   0  0  0  0  0  0  0  0  0  0  0  0
    9.3153    1.3683   -1.5449 H   0  0  0  0  0  0  0  0  0  0  0  0
    7.0630   -0.0669   -0.9555 H   0  0  0  0  0  0  0  0  0  0  0  0
    8.3446   -1.7761   -1.9436 H   0  0  0  0  0  0  0  0  0  0  0  0
    8.1015   -2.5135   -0.3263 H   0  0  0  0  0  0  0  0  0  0  0  0
    9.7354   -2.3881   -1.0210 H   0  0  0  0  0  0  0  0  0  0  0  0
    6.8442   -1.3974    1.1654 H   0  0  0  0  0  0  0  0  0  0  0  0
    7.8915   -0.2778    1.9944 H   0  0  0  0  0  0  0  0  0  0  0  0
    0.3829   -0.1322   -0.2001 H   0  0  0  0  0  0  0  0  0  0  0  0
   -0.5412    0.4636    1.9020 H   0  0  0  0  0  0  0  0  0  0  0  0
    1.0269    0.5445    2.6985 H   0  0  0  0  0  0  0  0  0  0  0  0
    0.3732   -1.0117    2.1770 H   0  0  0  0  0  0  0  0  0  0  0  0
    2.0436    1.7367   -0.7188 H   0  0  0  0  0  0  0  0  0  0  0  0
    2.7028    3.0212    0.8496 H   0  0  0  0  0  0  0  0  0  0  0  0
   -0.3856    2.6110    0.9540 H   0  0  0  0  0  0  0  0  0  0  0  0
   -0.5125    1.9983   -0.7238 H   0  0  0  0  0  0  0  0  0  0  0  0
   -3.2622   -1.9102   -1.9408 H   0  0  0  0  0  0  0  0  0  0  0  0
   -4.1021   -4.8379   -2.1725 H   0  0  0  0  0  0  0  0  0  0  0  0
   -2.5568   -4.1102   -2.6739 H   0  0  0  0  0  0  0  0  0  0  0  0
   -4.0345   -3.6922   -3.5154 H   0  0  0  0  0  0  0  0  0  0  0  0
   -5.4805   -1.6251   -2.4730 H   0  0  0  0  0  0  0  0  0  0  0  0
   -5.9553   -3.2112   -1.9782 H   0  0  0  0  0  0  0  0  0  0  0  0
   -6.3173   -2.7216    0.1808 H   0  0  0  0  0  0  0  0  0  0  0  0
   -8.8534   -0.3029    0.0469 H   0  0  0  0  0  0  0  0  0  0  0  0
   -7.6330   -0.6454    1.2919 H   0  0  0  0  0  0  0  0  0  0  0  0
   -8.5018   -1.9897    0.4786 H   0  0  0  0  0  0  0  0  0  0  0  0
  1  2  2  0
  2  3  1  0
  3  4  1  0
  4  5  2  3
  5  6  1  0
  6  7  1  0
  6  8  1  0
  8  9  1  0
  9 10  1  0
  9 11  1  0
 11 12  1  0
 12 13  1  0
 13 14  1  0
 12 15  1  0
 15 16  1  0
 16 17  1  0
 17 18  1  0
 17 19  1  0
 19 20  2  0
 19 21  1  0
 21 22  2  0
 21 23  1  0
 23 24  1  0
 24 25  1  0
 25 26  1  0
 26 27  1  0
 27 28  1  0
 28 29  1  0
 29 30  2  0
 29 31  1  0
 31 32  1  0
 32 33  1  0
 33 34  1  0
 33 35  2  3
 35 36  1  0
 36 37  1  0
 37 38  1  0
 38 39  1  0
 39 40  1  0
 39 41  1  0
 41 42  1  0
 42 43  1  0
 41 44  1  0
 32 45  1  0
 45 46  1  0
 45 47  1  0
 47 48  1  0
 47 49  1  0
 49 50  1  0
 50 51  2  0
 17 52  1  0
 52 53  1  0
 52 54  1  0
 54 55  1  0
 55 56  1  0
 56 57  1  0
 50  4  1  0
 55 15  1  0
 28 23  1  0
 44 36  1  0
  1 58  1  0
  1 59  1  0
  2 60  1  0
  3 61  1  0
  3 62  1  0
  5 63  1  0
  6 64  1  0
  7 65  1  0
  7 66  1  0
  7 67  1  0
  8 68  1  0
  8 69  1  0
  9 70  1  0
 10 71  1  0
 10 72  1  0
 10 73  1  0
 11 74  1  0
 11 75  1  0
 12 76  1  0
 14 77  1  0
 14 78  1  0
 14 79  1  0
 15 80  1  0
 18 81  1  0
 24 82  1  0
 24 83  1  0
 25 84  1  0
 25 85  1  0
 26 86  1  0
 26 87  1  0
 27 88  1  0
 27 89  1  0
 28 90  1  0
 32 91  1  0
 34 92  1  0
 34 93  1  0
 34 94  1  0
 35 95  1  0
 36 96  1  0
 37 97  1  0
 37 98  1  0
 38 99  1  0
 38100  1  0
 39101  1  0
 40102  1  0
 41103  1  0
 43104  1  0
 43105  1  0
 43106  1  0
 44107  1  0
 44108  1  0
 45109  1  0
 46110  1  0
 46111  1  0
 46112  1  0
 47113  1  0
 48114  1  0
 49115  1  0
 49116  1  0
 52117  1  0
 53118  1  0
 53119  1  0
 53120  1  0
 54121  1  0
 54122  1  0
 55123  1  0
 57124  1  0
 57125  1  0
 57126  1  0
M  END
$$$$
