
     RDKit          3D

 85 88  0  0  0  0  0  0  0  0999 V2000
    8.5724   -6.3614   -0.2075 C   0  0  0  0  0  0  0  0  0  0  0  0
    7.7026   -6.0078    0.8614 O   0  0  0  0  0  0  0  0  0  0  0  0
    6.9463   -4.8832    0.6849 C   0  0  0  0  0  0  0  0  0  0  0  0
    6.6926   -4.2502   -0.5292 C   0  0  0  0  0  0  0  0  0  0  0  0
    5.8778   -3.1104   -0.5680 C   0  0  0  0  0  0  0  0  0  0  0  0
    5.3144   -2.5869    0.6021 C   0  0  0  0  0  0  0  0  0  0  0  0
    4.4804   -1.4587    0.4702 N   0  0  0  0  0  0  0  0  0  0  0  0
    3.9265   -0.6948    1.4879 C   0  0  0  0  0  0  0  0  0  0  0  0
    4.2236   -0.7785    2.6775 O   0  0  0  0  0  0  0  0  0  0  0  0
    2.9725    0.1643    0.9660 N   0  0  0  0  0  0  0  0  0  0  0  0
    2.1979    1.1336    1.6443 C   0  0  0  0  0  0  0  0  0  0  0  0
    2.4872    1.5466    2.9473 C   0  0  0  0  0  0  0  0  0  0  0  0
    1.7014    2.5106    3.5582 C   0  0  0  0  0  0  0  0  0  0  0  0
    0.6390    3.0741    2.8566 C   0  0  0  0  0  0  0  0  0  0  0  0
    0.3315    2.6959    1.5300 C   0  0  0  0  0  0  0  0  0  0  0  0
    1.1073    1.6995    0.9202 C   0  0  0  0  0  0  0  0  0  0  0  0
    1.0050    1.1423   -0.3284 O   0  0  0  0  0  0  0  0  0  0  0  0
   -0.0925    1.3798   -1.2196 C   0  0  0  0  0  0  0  0  0  0  0  0
   -0.2107    0.0920   -2.0735 C   0  0  0  0  0  0  0  0  0  0  0  0
   -0.8870   -1.0062   -1.3710 N   0  0  0  0  0  0  0  0  0  0  0  0
   -0.0763   -1.8384   -0.4923 C   0  0  0  0  0  0  0  0  0  0  0  0
   -2.2765   -0.9651   -1.3573 C   0  0  0  0  0  0  0  0  0  0  0  0
   -2.9082   -0.1109   -1.9751 O   0  0  0  0  0  0  0  0  0  0  0  0
   -2.8930   -1.9520   -0.6310 N   0  0  0  0  0  0  0  0  0  0  0  0
   -4.3394   -1.9521   -0.4522 C   0  0  0  0  0  0  0  0  0  0  0  0
   -4.7349   -1.0868    0.7472 C   0  0  0  0  0  0  0  0  0  0  0  0
   -6.2501   -0.9959    0.9105 C   0  0  0  0  0  0  0  0  0  0  0  0
   -7.0075   -2.1826    0.3164 C   0  0  0  0  0  0  0  0  0  0  0  0
   -6.2074   -3.4711    0.4317 C   0  0  0  0  0  0  0  0  0  0  0  0
   -4.8667   -3.3880   -0.3000 C   0  0  0  0  0  0  0  0  0  0  0  0
    0.2678    2.6196   -2.0790 C   0  0  0  0  0  0  0  0  0  0  0  0
   -0.6771    2.8626   -3.2616 C   0  0  0  0  0  0  0  0  0  0  0  0
    0.3726    3.8799   -1.1989 C   0  0  0  0  0  0  0  0  0  0  0  0
   -0.7706    4.0249   -0.3024 N   0  0  0  0  0  0  0  0  0  0  0  0
   -1.8996    4.8670   -0.7721 C   0  0  0  0  0  0  0  0  0  0  0  0
   -3.2541    4.1368   -0.7698 C   0  0  0  0  0  0  0  0  0  0  0  0
   -1.9874    6.1945    0.0058 C   0  0  0  0  0  0  0  0  0  0  0  0
   -2.7938    7.1371   -0.7031 O   0  0  0  0  0  0  0  0  0  0  0  0
   -0.8216    3.4577    0.9722 C   0  0  0  0  0  0  0  0  0  0  0  0
   -1.7788    3.6368    1.7294 O   0  0  0  0  0  0  0  0  0  0  0  0
    5.5636   -3.2318    1.8139 C   0  0  0  0  0  0  0  0  0  0  0  0
    6.3744   -4.3728    1.8506 C   0  0  0  0  0  0  0  0  0  0  0  0
    8.0041   -6.7396   -1.0640 H   0  0  0  0  0  0  0  0  0  0  0  0
    9.2178   -5.5226   -0.4956 H   0  0  0  0  0  0  0  0  0  0  0  0
    9.2180   -7.1718    0.1434 H   0  0  0  0  0  0  0  0  0  0  0  0
    7.0984   -4.6226   -1.4636 H   0  0  0  0  0  0  0  0  0  0  0  0
    5.7000   -2.6328   -1.5298 H   0  0  0  0  0  0  0  0  0  0  0  0
    4.3737   -1.0877   -0.4619 H   0  0  0  0  0  0  0  0  0  0  0  0
    2.6373   -0.0306    0.0302 H   0  0  0  0  0  0  0  0  0  0  0  0
    3.3237    1.1371    3.5058 H   0  0  0  0  0  0  0  0  0  0  0  0
    1.9147    2.8277    4.5770 H   0  0  0  0  0  0  0  0  0  0  0  0
    0.0358    3.8307    3.3577 H   0  0  0  0  0  0  0  0  0  0  0  0
   -1.0303    1.5072   -0.6697 H   0  0  0  0  0  0  0  0  0  0  0  0
    0.7796   -0.2612   -2.3890 H   0  0  0  0  0  0  0  0  0  0  0  0
   -0.7873    0.2791   -2.9847 H   0  0  0  0  0  0  0  0  0  0  0  0
   -0.0861   -1.4090    0.5150 H   0  0  0  0  0  0  0  0  0  0  0  0
   -0.4717   -2.8558   -0.4550 H   0  0  0  0  0  0  0  0  0  0  0  0
    0.9500   -1.8908   -0.8652 H   0  0  0  0  0  0  0  0  0  0  0  0
   -2.3580   -2.3745    0.1100 H   0  0  0  0  0  0  0  0  0  0  0  0
   -4.7929   -1.5141   -1.3517 H   0  0  0  0  0  0  0  0  0  0  0  0
   -4.2975   -1.5170    1.6594 H   0  0  0  0  0  0  0  0  0  0  0  0
   -4.3127   -0.0786    0.6628 H   0  0  0  0  0  0  0  0  0  0  0  0
   -6.4818   -0.9161    1.9817 H   0  0  0  0  0  0  0  0  0  0  0  0
   -6.6206   -0.0699    0.4480 H   0  0  0  0  0  0  0  0  0  0  0  0
   -7.9741   -2.2850    0.8199 H   0  0  0  0  0  0  0  0  0  0  0  0
   -7.2285   -1.9826   -0.7407 H   0  0  0  0  0  0  0  0  0  0  0  0
   -6.7882   -4.3136    0.0367 H   0  0  0  0  0  0  0  0  0  0  0  0
   -6.0253   -3.6869    1.4936 H   0  0  0  0  0  0  0  0  0  0  0  0
   -4.9685   -3.8243   -1.3042 H   0  0  0  0  0  0  0  0  0  0  0  0
   -4.1401   -4.0216    0.2276 H   0  0  0  0  0  0  0  0  0  0  0  0
    1.2738    2.4641   -2.5006 H   0  0  0  0  0  0  0  0  0  0  0  0
   -1.7251    2.8338   -2.9575 H   0  0  0  0  0  0  0  0  0  0  0  0
   -0.4791    3.8351   -3.7273 H   0  0  0  0  0  0  0  0  0  0  0  0
   -0.5276    2.1099   -4.0418 H   0  0  0  0  0  0  0  0  0  0  0  0
    1.2896    3.8418   -0.6021 H   0  0  0  0  0  0  0  0  0  0  0  0
    0.4765    4.7892   -1.8046 H   0  0  0  0  0  0  0  0  0  0  0  0
   -1.7032    5.1191   -1.8245 H   0  0  0  0  0  0  0  0  0  0  0  0
   -3.9950    4.7001   -1.3489 H   0  0  0  0  0  0  0  0  0  0  0  0
   -3.1756    3.1388   -1.2128 H   0  0  0  0  0  0  0  0  0  0  0  0
   -3.6596    4.0180    0.2409 H   0  0  0  0  0  0  0  0  0  0  0  0
   -0.9896    6.6372    0.1159 H   0  0  0  0  0  0  0  0  0  0  0  0
   -2.4096    6.0528    1.0041 H   0  0  0  0  0  0  0  0  0  0  0  0
   -2.9966    7.8569   -0.0819 H   0  0  0  0  0  0  0  0  0  0  0  0
    5.1470   -2.8762    2.7516 H   0  0  0  0  0  0  0  0  0  0  0  0
    6.5607   -4.8640    2.8036 H   0  0  0  0  0  0  0  0  0  0  0  0
  1  2  1  0
  2  3  1  0
  3  4  2  0
  4  5  1  0
  5  6  2  0
  6  7  1  0
  7  8  1  0
  8  9  2  0
  8 10  1  0
 10 11  1  0
 11 12  2  0
 12 13  1  0
 13 14  2  0
 14 15  1  0
 15 16  2  0
 16 17  1  0
 17 18  1  0
 18 19  1  0
 19 20  1  0
 20 21  1  0
 20 22  1  0
 22 23  2  0
 22 24  1  0
 24 25  1  0
 25 26  1  0
 26 27  1  0
 27 28  1  0
 28 29  1  0
 29 30  1  0
 18 31  1  0
 31 32  1  0
 31 33  1  0
 33 34  1  0
 34 35  1  0
 35 36  1  0
 35 37  1  0
 37 38  1  0
 34 39  1  0
 39 40  2  0
  6 41  1  0
 41 42  2  0
 42  3  1  0
 16 11  1  0
 30 25  1  0
 39 15  1  0
  1 43  1  0
  1 44  1  0
  1 45  1  0
  4 46  1  0
  5 47  1  0
  7 48  1  0
 10 49  1  0
 12 50  1  0
 13 51  1  0
 14 52  1  0
 18 53  1  0
 19 54  1  0
 19 55  1  0
 21 56  1  0
 21 57  1  0
 21 58  1  0
 24 59  1  0
 25 60  1  0
 26 61  1  0
 26 62  1  0
 27 63  1  0
 27 64  1  0
 28 65  1  0
 28 66  1  0
 29 67  1  0
 29 68  1  0
 30 69  1  0
 30 70  1  0
 31 71  1  0
 32 72  1  0
 32 73  1  0
 32 74  1  0
 33 75  1  0
 33 76  1  0
 35 77  1  0
 36 78  1  0
 36 79  1  0
 36 80  1  0
 37 81  1  0
 37 82  1  0
 38 83  1  0
 41 84  1  0
 42 85  1  0
M  END
$$$$
