
     RDKit          3D

 42 43  0  0  0  0  0  0  0  0999 V2000
   -4.2488    1.0798    1.9964 C   0  0  0  0  0  0  0  0  0  0  0  0
   -4.7319    0.3027    0.8135 C   0  0  0  0  0  0  0  0  0  0  0  0
   -4.1628    0.1964   -0.4051 C   0  0  0  0  0  0  0  0  0  0  0  0
   -4.8131   -0.6536   -1.4703 C   0  0  0  0  0  0  0  0  0  0  0  0
   -2.8944    0.9010   -0.8455 C   0  0  0  0  0  0  0  0  0  0  0  0
   -1.8118   -0.0303   -1.1911 N   0  0  0  0  0  0  0  0  0  0  0  0
   -0.6792    0.6690   -1.8360 C   0  0  0  0  0  0  0  0  0  0  0  0
    0.4991    1.0465   -0.9072 C   0  0  0  0  0  0  0  0  0  0  0  0
    1.0280   -0.1368   -0.2104 N   0  0  0  0  0  0  0  0  0  0  0  0
    2.3529   -0.2108    0.1852 C   0  0  0  0  0  0  0  0  0  0  0  0
    3.1292    0.9413    0.3881 C   0  0  0  0  0  0  0  0  0  0  0  0
    4.4697    0.8773    0.7938 C   0  0  0  0  0  0  0  0  0  0  0  0
    5.0820   -0.3541    1.0230 C   0  0  0  0  0  0  0  0  0  0  0  0
    6.5240   -0.4308    1.4229 C   0  0  0  0  0  0  0  0  0  0  0  0
    4.3366   -1.5141    0.8161 C   0  0  0  0  0  0  0  0  0  0  0  0
    2.9961   -1.4373    0.4119 C   0  0  0  0  0  0  0  0  0  0  0  0
    0.1093   -1.2790   -0.0769 C   0  0  0  0  0  0  0  0  0  0  0  0
   -1.3554   -0.7884   -0.0013 C   0  0  0  0  0  0  0  0  0  0  0  0
   -4.9718    1.8631    2.2437 H   0  0  0  0  0  0  0  0  0  0  0  0
   -3.2753    1.5499    1.8484 H   0  0  0  0  0  0  0  0  0  0  0  0
   -4.1624    0.4125    2.8600 H   0  0  0  0  0  0  0  0  0  0  0  0
   -5.6567   -0.2432    0.9998 H   0  0  0  0  0  0  0  0  0  0  0  0
   -5.7609   -1.0869   -1.1333 H   0  0  0  0  0  0  0  0  0  0  0  0
   -4.1580   -1.4818   -1.7586 H   0  0  0  0  0  0  0  0  0  0  0  0
   -5.0263   -0.0507   -2.3592 H   0  0  0  0  0  0  0  0  0  0  0  0
   -3.1631    1.4874   -1.7352 H   0  0  0  0  0  0  0  0  0  0  0  0
   -2.5480    1.6355   -0.1111 H   0  0  0  0  0  0  0  0  0  0  0  0
   -0.2920   -0.0086   -2.6090 H   0  0  0  0  0  0  0  0  0  0  0  0
   -1.0166    1.5607   -2.3787 H   0  0  0  0  0  0  0  0  0  0  0  0
    1.2712    1.5075   -1.5352 H   0  0  0  0  0  0  0  0  0  0  0  0
    0.1708    1.7884   -0.1696 H   0  0  0  0  0  0  0  0  0  0  0  0
    2.6948    1.9278    0.2538 H   0  0  0  0  0  0  0  0  0  0  0  0
    5.0240    1.8022    0.9336 H   0  0  0  0  0  0  0  0  0  0  0  0
    6.8110    0.4417    2.0193 H   0  0  0  0  0  0  0  0  0  0  0  0
    7.1580   -0.4743    0.5320 H   0  0  0  0  0  0  0  0  0  0  0  0
    6.7129   -1.3186    2.0355 H   0  0  0  0  0  0  0  0  0  0  0  0
    4.7882   -2.4922    0.9632 H   0  0  0  0  0  0  0  0  0  0  0  0
    2.4699   -2.3739    0.2522 H   0  0  0  0  0  0  0  0  0  0  0  0
    0.3137   -1.8360    0.8455 H   0  0  0  0  0  0  0  0  0  0  0  0
    0.2374   -1.9624   -0.9251 H   0  0  0  0  0  0  0  0  0  0  0  0
   -1.4412   -0.1693    0.9025 H   0  0  0  0  0  0  0  0  0  0  0  0
   -2.0089   -1.6576    0.1365 H   0  0  0  0  0  0  0  0  0  0  0  0
  1  2  1  0
  2  3  2  3
  3  4  1  0
  3  5  1  0
  5  6  1  0
  6  7  1  0
  7  8  1  0
  8  9  1  0
  9 10  1  0
 10 11  2  0
 11 12  1  0
 12 13  2  0
 13 14  1  0
 13 15  1  0
 15 16  2  0
  9 17  1  0
 17 18  1  0
 18  6  1  0
 16 10  1  0
  1 19  1  0
  1 20  1  0
  1 21  1  0
  2 22  1  0
  4 23  1  0
  4 24  1  0
  4 25  1  0
  5 26  1  0
  5 27  1  0
  7 28  1  0
  7 29  1  0
  8 30  1  0
  8 31  1  0
 11 32  1  0
 12 33  1  0
 14 34  1  0
 14 35  1  0
 14 36  1  0
 15 37  1  0
 16 38  1  0
 17 39  1  0
 17 40  1  0
 18 41  1  0
 18 42  1  0
M  END
$$$$
