
     RDKit          3D

 32 34  0  0  0  0  0  0  0  0999 V2000
    0.0157    3.0162   -0.8990 O   0  0  0  0  0  0  0  0  0  0  0  0
   -0.3908    1.8986   -0.5968 C   0  0  0  0  0  0  0  0  0  0  0  0
   -1.8891    1.5870   -0.6185 C   0  0  0  0  0  0  0  0  0  0  0  0
   -2.1394    0.2316   -0.2474 O   0  0  0  0  0  0  0  0  0  0  0  0
   -3.4458   -0.1737   -0.2327 C   0  0  0  0  0  0  0  0  0  0  0  0
   -3.6363   -1.5124    0.1299 C   0  0  0  0  0  0  0  0  0  0  0  0
   -4.9205   -2.0565    0.1856 C   0  0  0  0  0  0  0  0  0  0  0  0
   -6.0126   -1.2568   -0.1225 C   0  0  0  0  0  0  0  0  0  0  0  0
   -7.2466   -1.7740   -0.0706 F   0  0  0  0  0  0  0  0  0  0  0  0
   -5.8415    0.0739   -0.4845 C   0  0  0  0  0  0  0  0  0  0  0  0
   -4.5550    0.6193   -0.5403 C   0  0  0  0  0  0  0  0  0  0  0  0
    0.3729    0.8204   -0.2155 N   0  0  0  0  0  0  0  0  0  0  0  0
    1.7333    0.8731   -0.1278 C   0  0  0  0  0  0  0  0  0  0  0  0
    2.5634    1.8604   -0.3587 N   0  0  0  0  0  0  0  0  0  0  0  0
    3.8790    1.4827   -0.1454 N   0  0  0  0  0  0  0  0  0  0  0  0
    3.9657    0.2258    0.2280 C   0  0  0  0  0  0  0  0  0  0  0  0
    5.3326   -0.4551    0.5440 C   0  0  0  0  0  0  0  0  0  0  0  0
    6.5169   -0.1680   -0.3438 C   0  0  0  0  0  0  0  0  0  0  0  0
    5.8628   -1.5180   -0.3846 C   0  0  0  0  0  0  0  0  0  0  0  0
    2.4673   -0.5897    0.3649 S   0  0  0  0  0  0  0  0  0  0  0  0
   -2.2397    1.7691   -1.6410 H   0  0  0  0  0  0  0  0  0  0  0  0
   -2.3686    2.2680    0.0941 H   0  0  0  0  0  0  0  0  0  0  0  0
   -2.7807   -2.1383    0.3709 H   0  0  0  0  0  0  0  0  0  0  0  0
   -5.0739   -3.0934    0.4661 H   0  0  0  0  0  0  0  0  0  0  0  0
   -6.7108    0.6799   -0.7209 H   0  0  0  0  0  0  0  0  0  0  0  0
   -4.4595    1.6619   -0.8264 H   0  0  0  0  0  0  0  0  0  0  0  0
   -0.0903   -0.0506    0.0077 H   0  0  0  0  0  0  0  0  0  0  0  0
    5.5332   -0.5667    1.6042 H   0  0  0  0  0  0  0  0  0  0  0  0
    7.4900   -0.0828    0.1257 H   0  0  0  0  0  0  0  0  0  0  0  0
    6.3779    0.4940   -1.1921 H   0  0  0  0  0  0  0  0  0  0  0  0
    6.3959   -2.3536    0.0541 H   0  0  0  0  0  0  0  0  0  0  0  0
    5.2945   -1.7723   -1.2723 H   0  0  0  0  0  0  0  0  0  0  0  0
  1  2  2  0
  2  3  1  0
  3  4  1  0
  4  5  1  0
  5  6  2  0
  6  7  1  0
  7  8  2  0
  8  9  1  0
  8 10  1  0
 10 11  2  0
  2 12  1  0
 12 13  1  0
 13 14  2  0
 14 15  1  0
 15 16  2  0
 16 17  1  0
 17 18  1  0
 18 19  1  0
 16 20  1  0
 11  5  1  0
 20 13  1  0
 19 17  1  0
  3 21  1  0
  3 22  1  0
  6 23  1  0
  7 24  1  0
 10 25  1  0
 11 26  1  0
 12 27  1  0
 17 28  1  0
 18 29  1  0
 18 30  1  0
 19 31  1  0
 19 32  1  0
M  END
$$$$
