
     RDKit          3D

 35 35  0  0  0  0  0  0  0  0999 V2000
   -3.6901   -0.8536    0.7260 C   0  0  0  0  0  0  0  0  0  0  0  0
   -3.2456    0.3789   -0.0722 C   0  0  0  0  0  0  0  0  0  0  0  0
   -4.4740    1.0926   -0.6552 C   0  0  0  0  0  0  0  0  0  0  0  0
   -2.2469    0.1260   -1.1331 N   0  0  0  0  0  0  0  0  0  0  0  0
   -2.6333   -0.9387   -2.0636 C   0  0  0  0  0  0  0  0  0  0  0  0
   -0.8886   -0.1363   -0.6165 C   0  0  0  0  0  0  0  0  0  0  0  0
   -0.1786    1.1045   -0.0480 C   0  0  0  0  0  0  0  0  0  0  0  0
    1.0983    0.7416    0.5120 O   0  0  0  0  0  0  0  0  0  0  0  0
    2.1121    0.6248   -0.3780 C   0  0  0  0  0  0  0  0  0  0  0  0
    2.0738    0.8078   -1.5804 O   0  0  0  0  0  0  0  0  0  0  0  0
    3.3124    0.2106    0.3617 C   0  0  0  0  0  0  0  0  0  0  0  0
    3.9124    1.1396    1.2234 C   0  0  0  0  0  0  0  0  0  0  0  0
    5.0644    0.7896    1.9277 C   0  0  0  0  0  0  0  0  0  0  0  0
    5.6151   -0.4824    1.7724 C   0  0  0  0  0  0  0  0  0  0  0  0
    5.0153   -1.4085    0.9151 C   0  0  0  0  0  0  0  0  0  0  0  0
    3.8608   -1.0647    0.2052 C   0  0  0  0  0  0  0  0  0  0  0  0
    3.0798   -2.3863   -0.9096 Br  0  0  0  0  0  0  0  0  0  0  0  0
   -2.8407   -1.3671    1.1867 H   0  0  0  0  0  0  0  0  0  0  0  0
   -4.2313   -1.5732    0.1035 H   0  0  0  0  0  0  0  0  0  0  0  0
   -4.3647   -0.5547    1.5368 H   0  0  0  0  0  0  0  0  0  0  0  0
   -2.8216    1.0902    0.6448 H   0  0  0  0  0  0  0  0  0  0  0  0
   -4.1777    1.9735   -1.2353 H   0  0  0  0  0  0  0  0  0  0  0  0
   -5.0671    0.4391   -1.3025 H   0  0  0  0  0  0  0  0  0  0  0  0
   -5.1310    1.4383    0.1511 H   0  0  0  0  0  0  0  0  0  0  0  0
   -1.9404   -0.9669   -2.9127 H   0  0  0  0  0  0  0  0  0  0  0  0
   -2.6274   -1.9280   -1.5933 H   0  0  0  0  0  0  0  0  0  0  0  0
   -3.6232   -0.7633   -2.4947 H   0  0  0  0  0  0  0  0  0  0  0  0
   -0.8885   -0.9403    0.1294 H   0  0  0  0  0  0  0  0  0  0  0  0
   -0.2580   -0.5120   -1.4327 H   0  0  0  0  0  0  0  0  0  0  0  0
   -0.7471    1.5450    0.7753 H   0  0  0  0  0  0  0  0  0  0  0  0
   -0.0599    1.8843   -0.8103 H   0  0  0  0  0  0  0  0  0  0  0  0
    3.4878    2.1339    1.3413 H   0  0  0  0  0  0  0  0  0  0  0  0
    5.5342    1.5087    2.5949 H   0  0  0  0  0  0  0  0  0  0  0  0
    6.5137   -0.7554    2.3210 H   0  0  0  0  0  0  0  0  0  0  0  0
    5.4557   -2.3974    0.8098 H   0  0  0  0  0  0  0  0  0  0  0  0
  1  2  1  0
  2  3  1  0
  2  4  1  0
  4  5  1  0
  4  6  1  0
  6  7  1  0
  7  8  1  0
  8  9  1  0
  9 10  2  0
  9 11  1  0
 11 12  2  0
 12 13  1  0
 13 14  2  0
 14 15  1  0
 15 16  2  0
 16 17  1  0
 16 11  1  0
  1 18  1  0
  1 19  1  0
  1 20  1  0
  2 21  1  0
  3 22  1  0
  3 23  1  0
  3 24  1  0
  5 25  1  0
  5 26  1  0
  5 27  1  0
  6 28  1  0
  6 29  1  0
  7 30  1  0
  7 31  1  0
 12 32  1  0
 13 33  1  0
 14 34  1  0
 15 35  1  0
M  END
$$$$
