
     RDKit          3D

 36 36  0  0  0  0  0  0  0  0999 V2000
    1.4226   -4.6679    3.1918 C   0  0  0  0  0  0  0  0  0  0  0  0
    2.0305   -3.3603    2.7171 C   0  0  0  0  0  0  0  0  0  0  0  0
    1.1211   -2.6333    1.8933 O   0  0  0  0  0  0  0  0  0  0  0  0
    1.1030   -3.0781    0.5403 C   0  0  0  0  0  0  0  0  0  0  0  0
    0.0763   -2.2708   -0.2469 C   0  0  0  0  0  0  0  0  0  0  0  0
    0.3470   -0.7702   -0.1726 C   0  0  0  0  0  0  0  0  0  0  0  0
   -0.4860   -0.0258   -1.1006 N   0  0  0  0  0  0  0  0  0  0  0  0
   -1.7982    0.2784   -0.8178 C   0  0  0  0  0  0  0  0  0  0  0  0
   -2.3802   -0.0247    0.2149 O   0  0  0  0  0  0  0  0  0  0  0  0
   -2.4907    1.0231   -1.8954 C   0  0  0  0  0  0  0  0  0  0  0  0
   -3.5127    0.3215   -2.5914 C   0  0  0  0  0  0  0  0  0  0  0  0
   -4.3319   -0.2253   -3.2053 N   0  0  0  0  0  0  0  0  0  0  0  0
   -2.1917    2.2927   -2.2237 C   0  0  0  0  0  0  0  0  0  0  0  0
   -1.2360    3.1168   -1.5651 C   0  0  0  0  0  0  0  0  0  0  0  0
   -0.8458    3.1996   -0.2277 C   0  0  0  0  0  0  0  0  0  0  0  0
    0.1355    4.2168   -0.1092 C   0  0  0  0  0  0  0  0  0  0  0  0
    0.2834    4.7136   -1.3767 C   0  0  0  0  0  0  0  0  0  0  0  0
    1.1150    5.7482   -1.9042 N   0  0  0  0  0  4  0  0  0  0  0  0
    1.8458    6.3308   -1.0918 O   0  0  0  0  0  0  0  0  0  0  0  0
    1.0504    5.9792   -3.1182 O   0  0  0  0  0  1  0  0  0  0  0  0
   -0.5295    4.0800   -2.2581 O   0  0  0  0  0  0  0  0  0  0  0  0
    1.2529   -5.3550    2.3577 H   0  0  0  0  0  0  0  0  0  0  0  0
    0.4514   -4.4918    3.6654 H   0  0  0  0  0  0  0  0  0  0  0  0
    2.0829   -5.1608    3.9113 H   0  0  0  0  0  0  0  0  0  0  0  0
    2.9800   -3.5264    2.1957 H   0  0  0  0  0  0  0  0  0  0  0  0
    2.2413   -2.7319    3.5887 H   0  0  0  0  0  0  0  0  0  0  0  0
    0.8369   -4.1388    0.4919 H   0  0  0  0  0  0  0  0  0  0  0  0
    2.0985   -2.9463    0.1008 H   0  0  0  0  0  0  0  0  0  0  0  0
   -0.9262   -2.4711    0.1507 H   0  0  0  0  0  0  0  0  0  0  0  0
    0.0799   -2.6052   -1.2912 H   0  0  0  0  0  0  0  0  0  0  0  0
    0.1648   -0.3919    0.8393 H   0  0  0  0  0  0  0  0  0  0  0  0
    1.3865   -0.5513   -0.4388 H   0  0  0  0  0  0  0  0  0  0  0  0
   -0.0892    0.2261   -1.9975 H   0  0  0  0  0  0  0  0  0  0  0  0
   -2.7043    2.7570   -3.0651 H   0  0  0  0  0  0  0  0  0  0  0  0
   -1.2361    2.5977    0.5851 H   0  0  0  0  0  0  0  0  0  0  0  0
    0.6527    4.5454    0.7821 H   0  0  0  0  0  0  0  0  0  0  0  0
  1  2  1  0
  2  3  1  0
  3  4  1  0
  4  5  1  0
  5  6  1  0
  6  7  1  0
  7  8  1  0
  8  9  2  0
  8 10  1  0
 10 11  1  0
 11 12  3  0
 10 13  2  3
 13 14  1  0
 14 15  2  0
 15 16  1  0
 16 17  2  0
 17 18  1  0
 18 19  2  0
 18 20  1  0
 17 21  1  0
 21 14  1  0
  1 22  1  0
  1 23  1  0
  1 24  1  0
  2 25  1  0
  2 26  1  0
  4 27  1  0
  4 28  1  0
  5 29  1  0
  5 30  1  0
  6 31  1  0
  6 32  1  0
  7 33  1  0
 13 34  1  0
 15 35  1  0
 16 36  1  0
M  CHG  2  18   1  20  -1
M  END
$$$$
