
     RDKit          3D

 53 58  0  0  0  0  0  0  0  0999 V2000
   -0.3872   -0.2520   -1.8634 O   0  0  0  0  0  0  0  0  0  0  0  0
   -1.0962    0.4344   -1.1198 C   0  0  0  0  0  0  0  0  0  0  0  0
   -0.3892    1.3397   -0.0873 C   0  0  0  0  0  0  0  0  0  0  0  0
    0.8660    0.7093    0.3736 N   0  0  0  0  0  4  0  0  0  0  0  0
    2.1579    1.2153    0.2499 C   0  0  0  0  0  0  0  0  0  0  0  0
    3.0620    0.2666    0.7171 C   0  0  0  0  0  0  0  0  0  0  0  0
    4.6313    0.3906    0.7218 C   0  0  0  0  0  0  0  0  0  0  0  0
    5.4307   -0.6690    1.1554 C   0  0  0  0  0  0  0  0  0  0  0  0
    6.8262   -0.5504    1.1454 C   0  0  0  0  0  0  0  0  0  0  0  0
    7.4344    0.6255    0.6968 C   0  0  0  0  0  0  0  0  0  0  0  0
    9.1592    0.7000    0.7133 Cl  0  0  0  0  0  0  0  0  0  0  0  0
    6.6375    1.6865    0.2592 C   0  0  0  0  0  0  0  0  0  0  0  0
    7.3050    3.1725   -0.3156 Cl  0  0  0  0  0  0  0  0  0  0  0  0
    5.2399    1.5691    0.2702 C   0  0  0  0  0  0  0  0  0  0  0  0
    2.2464   -0.7689    1.1393 N   0  0  0  0  0  0  0  0  0  0  0  0
    0.9662   -0.5120    0.8866 C   0  0  0  0  0  0  0  0  0  0  0  0
    0.0602   -1.6236    1.2570 C   0  0  0  0  0  0  0  0  0  0  0  0
    0.9823   -2.5186    2.1089 C   0  0  0  0  0  0  0  0  0  0  0  0
    2.4253   -2.0892    1.7307 C   0  0  0  0  0  0  0  0  0  0  0  0
   -2.4936    0.3405   -0.9990 N   0  0  0  0  0  0  0  0  0  0  0  0
   -3.2975    1.4280   -0.5047 C   0  0  0  0  0  0  0  0  0  0  0  0
   -2.9592    2.7513   -0.8516 C   0  0  0  0  0  0  0  0  0  0  0  0
   -3.7132    3.8353   -0.3935 C   0  0  0  0  0  0  0  0  0  0  0  0
   -4.8276    3.6156    0.4090 C   0  0  0  0  0  0  0  0  0  0  0  0
   -5.1970    2.3135    0.7383 C   0  0  0  0  0  0  0  0  0  0  0  0
   -4.4519    1.2220    0.2689 C   0  0  0  0  0  0  0  0  0  0  0  0
   -4.9884   -0.4077    0.7126 S   0  0  0  0  0  0  0  0  0  0  0  0
   -4.3625   -1.2802   -0.7067 C   0  0  0  0  0  0  0  0  0  0  0  0
   -5.0285   -2.4587   -1.0802 C   0  0  0  0  0  0  0  0  0  0  0  0
   -4.5590   -3.2318   -2.1381 C   0  0  0  0  0  0  0  0  0  0  0  0
   -3.4187   -2.8324   -2.8230 C   0  0  0  0  0  0  0  0  0  0  0  0
   -2.7481   -1.6618   -2.4497 C   0  0  0  0  0  0  0  0  0  0  0  0
   -3.2009   -0.8587   -1.3869 C   0  0  0  0  0  0  0  0  0  0  0  0
   -0.9973    1.4988    0.8067 H   0  0  0  0  0  0  0  0  0  0  0  0
   -0.1457    2.2963   -0.5557 H   0  0  0  0  0  0  0  0  0  0  0  0
    2.2750    2.1931   -0.1848 H   0  0  0  0  0  0  0  0  0  0  0  0
    5.0106   -1.6067    1.5024 H   0  0  0  0  0  0  0  0  0  0  0  0
    7.4394   -1.3848    1.4855 H   0  0  0  0  0  0  0  0  0  0  0  0
    4.6529    2.4158   -0.0777 H   0  0  0  0  0  0  0  0  0  0  0  0
   -0.7917   -1.2223    1.8055 H   0  0  0  0  0  0  0  0  0  0  0  0
   -0.2424   -2.1082    0.3267 H   0  0  0  0  0  0  0  0  0  0  0  0
    0.8116   -2.3056    3.1690 H   0  0  0  0  0  0  0  0  0  0  0  0
    0.8049   -3.5845    1.9490 H   0  0  0  0  0  0  0  0  0  0  0  0
    3.0650   -2.0368    2.6150 H   0  0  0  0  0  0  0  0  0  0  0  0
    2.8529   -2.7595    0.9792 H   0  0  0  0  0  0  0  0  0  0  0  0
   -2.1445    2.9676   -1.5400 H   0  0  0  0  0  0  0  0  0  0  0  0
   -3.4490    4.8518   -0.6834 H   0  0  0  0  0  0  0  0  0  0  0  0
   -5.4237    4.4559    0.7606 H   0  0  0  0  0  0  0  0  0  0  0  0
   -6.0840    2.1558    1.3515 H   0  0  0  0  0  0  0  0  0  0  0  0
   -5.9187   -2.7842   -0.5444 H   0  0  0  0  0  0  0  0  0  0  0  0
   -5.0830   -4.1394   -2.4294 H   0  0  0  0  0  0  0  0  0  0  0  0
   -3.0528   -3.4240   -3.6608 H   0  0  0  0  0  0  0  0  0  0  0  0
   -1.8910   -1.3798   -3.0562 H   0  0  0  0  0  0  0  0  0  0  0  0
  1  2  2  0
  2  3  1  0
  3  4  1  0
  4  5  1  0
  5  6  2  0
  6  7  1  0
  7  8  2  0
  8  9  1  0
  9 10  2  0
 10 11  1  0
 10 12  1  0
 12 13  1  0
 12 14  2  0
  6 15  1  0
 15 16  1  0
 16 17  1  0
 17 18  1  0
 18 19  1  0
  2 20  1  0
 20 21  1  0
 21 22  2  0
 22 23  1  0
 23 24  2  0
 24 25  1  0
 25 26  2  0
 26 27  1  0
 27 28  1  0
 28 29  2  0
 29 30  1  0
 30 31  2  0
 31 32  1  0
 32 33  2  0
 16  4  2  0
 33 20  1  0
 14  7  1  0
 19 15  1  0
 26 21  1  0
 33 28  1  0
  3 34  1  0
  3 35  1  0
  5 36  1  0
  8 37  1  0
  9 38  1  0
 14 39  1  0
 17 40  1  0
 17 41  1  0
 18 42  1  0
 18 43  1  0
 19 44  1  0
 19 45  1  0
 22 46  1  0
 23 47  1  0
 24 48  1  0
 25 49  1  0
 29 50  1  0
 30 51  1  0
 31 52  1  0
 32 53  1  0
M  CHG  1   4   1
M  END
$$$$
