
     RDKit          3D

 56 60  0  0  0  0  0  0  0  0999 V2000
   -5.8007   -1.8794   -0.0413 C   0  0  0  0  0  0  0  0  0  0  0  0
   -4.6338   -1.3959   -0.7343 N   0  0  0  0  0  0  0  0  0  0  0  0
   -3.5578   -2.1372   -1.1458 C   0  0  0  0  0  0  0  0  0  0  0  0
   -3.4323   -3.8527   -0.9826 S   0  0  0  0  0  0  0  0  0  0  0  0
   -1.9419   -4.2027   -1.9621 C   0  0  0  0  0  0  0  0  0  0  0  0
   -0.6786   -3.9631   -1.1461 C   0  0  0  0  0  0  0  0  0  0  0  0
   -0.1341   -4.8843   -0.5415 O   0  0  0  0  0  0  0  0  0  0  0  0
   -0.2567   -2.6445   -1.1525 N   0  0  0  0  0  0  0  0  0  0  0  0
    0.9018   -2.1203   -0.5473 C   0  0  0  0  0  0  0  0  0  0  0  0
    0.9420   -0.7378   -0.3490 C   0  0  0  0  0  0  0  0  0  0  0  0
    2.0423   -0.1310    0.2687 C   0  0  0  0  0  0  0  0  0  0  0  0
    3.1418   -0.9177    0.6641 C   0  0  0  0  0  0  0  0  0  0  0  0
    4.2883   -0.4544    1.2946 N   0  0  0  0  0  0  0  0  0  0  0  0
    5.1149   -1.4581    1.4863 C   0  0  0  0  0  0  0  0  0  0  0  0
    6.6626   -1.2283    2.2579 S   0  0  0  0  0  0  0  0  0  0  0  0
    6.2665    0.0833    3.4404 C   0  0  0  0  0  0  0  0  0  0  0  0
    6.5244    1.4586    2.8528 C   0  0  0  0  0  0  0  0  0  0  0  0
    7.5366    2.1030    3.1252 O   0  0  0  0  0  0  0  0  0  0  0  0
    5.5075    1.9272    2.0464 N   0  0  0  0  0  0  0  0  0  0  0  0
    5.5669    3.1931    1.4023 C   0  0  0  0  0  0  0  0  0  0  0  0
    5.6714    3.2896   -0.0907 C   0  0  0  0  0  0  0  0  0  0  0  0
    4.3989    3.6875    0.5930 C   0  0  0  0  0  0  0  0  0  0  0  0
    4.5894   -2.9891    0.9426 S   0  0  0  0  0  0  0  0  0  0  0  0
    3.1049   -2.2913    0.4207 C   0  0  0  0  0  0  0  0  0  0  0  0
    1.9920   -2.9151   -0.1701 C   0  0  0  0  0  0  0  0  0  0  0  0
   -2.6436   -1.3487   -1.6542 N   0  0  0  0  0  0  0  0  0  0  0  0
   -3.1128   -0.0683   -1.5784 N   0  0  0  0  0  0  0  0  0  0  0  0
   -4.3419   -0.0939   -1.0835 C   0  0  0  0  0  0  0  0  0  0  0  0
   -5.2079    1.0720   -0.9339 C   0  0  0  0  0  0  0  0  0  0  0  0
   -6.5441    1.0535   -1.3541 C   0  0  0  0  0  0  0  0  0  0  0  0
   -7.3386    2.1958   -1.2460 C   0  0  0  0  0  0  0  0  0  0  0  0
   -6.8124    3.3691   -0.7163 C   0  0  0  0  0  0  0  0  0  0  0  0
   -5.4862    3.4044   -0.3042 C   0  0  0  0  0  0  0  0  0  0  0  0
   -4.6807    2.2634   -0.4220 C   0  0  0  0  0  0  0  0  0  0  0  0
   -6.4787   -2.3214   -0.7765 H   0  0  0  0  0  0  0  0  0  0  0  0
   -5.5029   -2.6280    0.6974 H   0  0  0  0  0  0  0  0  0  0  0  0
   -6.2927   -1.0594    0.4873 H   0  0  0  0  0  0  0  0  0  0  0  0
   -1.9224   -3.6289   -2.8959 H   0  0  0  0  0  0  0  0  0  0  0  0
   -1.9623   -5.2636   -2.2445 H   0  0  0  0  0  0  0  0  0  0  0  0
   -0.9469   -1.9586   -1.4657 H   0  0  0  0  0  0  0  0  0  0  0  0
    0.1040   -0.1086   -0.6502 H   0  0  0  0  0  0  0  0  0  0  0  0
    2.0492    0.9404    0.4416 H   0  0  0  0  0  0  0  0  0  0  0  0
    6.9126   -0.0287    4.3169 H   0  0  0  0  0  0  0  0  0  0  0  0
    5.2414    0.0071    3.7998 H   0  0  0  0  0  0  0  0  0  0  0  0
    4.8329    1.2339    1.7159 H   0  0  0  0  0  0  0  0  0  0  0  0
    6.1102    3.9461    1.9774 H   0  0  0  0  0  0  0  0  0  0  0  0
    5.6782    2.3772   -0.6651 H   0  0  0  0  0  0  0  0  0  0  0  0
    6.2925    4.0748   -0.5012 H   0  0  0  0  0  0  0  0  0  0  0  0
    3.5388    3.0467    0.4740 H   0  0  0  0  0  0  0  0  0  0  0  0
    4.1616    4.7384    0.6576 H   0  0  0  0  0  0  0  0  0  0  0  0
    2.0094   -3.9876   -0.3385 H   0  0  0  0  0  0  0  0  0  0  0  0
   -6.9722    0.1632   -1.8031 H   0  0  0  0  0  0  0  0  0  0  0  0
   -8.3645    2.1788   -1.5895 H   0  0  0  0  0  0  0  0  0  0  0  0
   -7.4315    4.2604   -0.6410 H   0  0  0  0  0  0  0  0  0  0  0  0
   -5.0692    4.3189    0.1010 H   0  0  0  0  0  0  0  0  0  0  0  0
   -3.6350    2.3122   -0.1231 H   0  0  0  0  0  0  0  0  0  0  0  0
  1  2  1  0
  2  3  1  0
  3  4  1  0
  4  5  1  0
  5  6  1  0
  6  7  2  0
  6  8  1  0
  8  9  1  0
  9 10  2  0
 10 11  1  0
 11 12  2  0
 12 13  1  0
 13 14  2  0
 14 15  1  0
 15 16  1  0
 16 17  1  0
 17 18  2  0
 17 19  1  0
 19 20  1  0
 20 21  1  0
 21 22  1  0
 14 23  1  0
 23 24  1  0
 24 25  2  0
  3 26  2  0
 26 27  1  0
 27 28  2  0
 28 29  1  0
 29 30  2  0
 30 31  1  0
 31 32  2  0
 32 33  1  0
 33 34  2  0
 28  2  1  0
 34 29  1  0
 25  9  1  0
 24 12  1  0
 22 20  1  0
  1 35  1  0
  1 36  1  0
  1 37  1  0
  5 38  1  0
  5 39  1  0
  8 40  1  0
 10 41  1  0
 11 42  1  0
 16 43  1  0
 16 44  1  0
 19 45  1  0
 20 46  1  0
 21 47  1  0
 21 48  1  0
 22 49  1  0
 22 50  1  0
 25 51  1  0
 30 52  1  0
 31 53  1  0
 32 54  1  0
 33 55  1  0
 34 56  1  0
M  END
$$$$
