
     RDKit          3D

 36 35  0  0  0  0  0  0  0  0999 V2000
    3.2696   -2.9515    0.9263 C   0  0  0  0  0  0  0  0  0  0  0  0
    2.7975   -2.0552   -0.2097 C   0  0  0  0  0  0  0  0  0  0  0  0
    2.6995   -0.6477    0.2166 N   0  0  0  0  0  0  0  0  0  0  0  0
    3.9339    0.1337    0.0185 C   0  0  0  0  0  0  0  0  0  0  0  0
    3.9304    0.8518   -1.3229 C   0  0  0  0  0  0  0  0  0  0  0  0
    1.5586   -0.0810    0.8216 C   0  0  0  0  0  0  0  0  0  0  0  0
    1.4967    1.4373    1.5581 S   0  0  0  0  0  0  0  0  0  0  0  0
    0.0816   -1.0625    0.8802 S   0  0  0  0  0  0  0  0  0  0  0  0
   -0.6211   -0.9318   -1.0629 S   0  0  0  0  0  0  0  0  0  0  0  0
   -1.4012    0.6617   -1.0831 C   0  0  0  0  0  0  0  0  0  0  0  0
   -0.5939    1.8973   -1.9036 S   0  0  0  0  0  0  0  0  0  0  0  0
   -2.6629    0.7825   -0.4648 N   0  0  0  0  0  0  0  0  0  0  0  0
   -3.4503   -0.3570    0.0391 C   0  0  0  0  0  0  0  0  0  0  0  0
   -4.3268   -0.9562   -1.0514 C   0  0  0  0  0  0  0  0  0  0  0  0
   -3.3322    2.0892   -0.3305 C   0  0  0  0  0  0  0  0  0  0  0  0
   -2.9475    2.7823    0.9683 C   0  0  0  0  0  0  0  0  0  0  0  0
    2.5777   -2.9186    1.7737 H   0  0  0  0  0  0  0  0  0  0  0  0
    3.3432   -3.9887    0.5853 H   0  0  0  0  0  0  0  0  0  0  0  0
    4.2546   -2.6420    1.2901 H   0  0  0  0  0  0  0  0  0  0  0  0
    3.4977   -2.1186   -1.0510 H   0  0  0  0  0  0  0  0  0  0  0  0
    1.8446   -2.4267   -0.5873 H   0  0  0  0  0  0  0  0  0  0  0  0
    4.0706    0.8593    0.8245 H   0  0  0  0  0  0  0  0  0  0  0  0
    4.7944   -0.5433    0.0750 H   0  0  0  0  0  0  0  0  0  0  0  0
    4.8612    1.4117   -1.4558 H   0  0  0  0  0  0  0  0  0  0  0  0
    3.8389    0.1403   -2.1499 H   0  0  0  0  0  0  0  0  0  0  0  0
    3.0956    1.5554   -1.3969 H   0  0  0  0  0  0  0  0  0  0  0  0
   -2.8088   -1.1358    0.4519 H   0  0  0  0  0  0  0  0  0  0  0  0
   -4.0742   -0.0110    0.8716 H   0  0  0  0  0  0  0  0  0  0  0  0
   -4.9078   -1.7938   -0.6532 H   0  0  0  0  0  0  0  0  0  0  0  0
   -5.0271   -0.2139   -1.4475 H   0  0  0  0  0  0  0  0  0  0  0  0
   -3.7255   -1.3246   -1.8885 H   0  0  0  0  0  0  0  0  0  0  0  0
   -4.4173    1.9363   -0.3623 H   0  0  0  0  0  0  0  0  0  0  0  0
   -3.0965    2.7380   -1.1780 H   0  0  0  0  0  0  0  0  0  0  0  0
   -3.4674    3.7413    1.0550 H   0  0  0  0  0  0  0  0  0  0  0  0
   -3.2147    2.1695    1.8354 H   0  0  0  0  0  0  0  0  0  0  0  0
   -1.8709    2.9723    1.0157 H   0  0  0  0  0  0  0  0  0  0  0  0
  1  2  1  0
  2  3  1  0
  3  4  1  0
  4  5  1  0
  3  6  1  0
  6  7  2  0
  6  8  1  0
  8  9  1  0
  9 10  1  0
 10 11  2  0
 10 12  1  0
 12 13  1  0
 13 14  1  0
 12 15  1  0
 15 16  1  0
  1 17  1  0
  1 18  1  0
  1 19  1  0
  2 20  1  0
  2 21  1  0
  4 22  1  0
  4 23  1  0
  5 24  1  0
  5 25  1  0
  5 26  1  0
 13 27  1  0
 13 28  1  0
 14 29  1  0
 14 30  1  0
 14 31  1  0
 15 32  1  0
 15 33  1  0
 16 34  1  0
 16 35  1  0
 16 36  1  0
M  END
$$$$
