
     RDKit          3D

 46 49  0  0  0  0  0  0  0  0999 V2000
   -5.3651    2.3014    3.2989 C   0  0  0  0  0  0  0  0  0  0  0  0
   -4.4240    2.5966    2.2743 O   0  0  0  0  0  0  0  0  0  0  0  0
   -3.7519    1.5392    1.7276 C   0  0  0  0  0  0  0  0  0  0  0  0
   -3.9175    0.1969    2.0657 C   0  0  0  0  0  0  0  0  0  0  0  0
   -3.1620   -0.7914    1.4222 C   0  0  0  0  0  0  0  0  0  0  0  0
   -2.2287   -0.4416    0.4380 C   0  0  0  0  0  0  0  0  0  0  0  0
   -1.4699   -1.4556   -0.2146 N   0  0  0  0  0  0  0  0  0  0  0  0
   -0.1178   -1.4533   -0.5426 C   0  0  0  0  0  0  0  0  0  0  0  0
    1.0190   -0.2272   -0.0550 S   0  0  0  0  0  0  0  0  0  0  0  0
    2.5888   -1.1016   -0.3496 C   0  0  0  0  0  0  0  0  0  0  0  0
    3.7695   -0.1963   -0.0338 C   0  0  0  0  0  0  0  0  0  0  0  0
    4.6313   -0.5509    0.7649 O   0  0  0  0  0  0  0  0  0  0  0  0
    3.7578    0.9743   -0.7690 N   0  0  0  0  0  0  0  0  0  0  0  0
    4.7284    1.9874   -0.7348 C   0  0  0  0  0  0  0  0  0  0  0  0
    5.8521    1.8236   -0.0069 N   0  0  0  0  0  0  0  0  0  0  0  0
    6.7613    2.8280   -0.0057 C   0  0  0  0  0  0  0  0  0  0  0  0
    6.6020    4.0085   -0.7125 C   0  0  0  0  0  0  0  0  0  0  0  0
    7.7991    5.2359   -0.6626 Cl  0  0  0  0  0  0  0  0  0  0  0  0
    5.4484    4.1768   -1.4661 C   0  0  0  0  0  0  0  0  0  0  0  0
    4.4988    3.1552   -1.4791 C   0  0  0  0  0  0  0  0  0  0  0  0
    3.0626    3.3711   -2.4183 Cl  0  0  0  0  0  0  0  0  0  0  0  0
    0.2569   -2.5509   -1.1575 N   0  0  0  0  0  0  0  0  0  0  0  0
   -0.8663   -3.3237   -1.2305 C   0  0  0  0  0  0  0  0  0  0  0  0
   -1.0153   -4.6012   -1.7928 C   0  0  0  0  0  0  0  0  0  0  0  0
   -2.2774   -5.2023   -1.7889 C   0  0  0  0  0  0  0  0  0  0  0  0
   -3.3755   -4.5383   -1.2470 C   0  0  0  0  0  0  0  0  0  0  0  0
   -3.2453   -3.2644   -0.6814 C   0  0  0  0  0  0  0  0  0  0  0  0
   -1.9647   -2.6829   -0.6590 C   0  0  0  0  0  0  0  0  0  0  0  0
   -2.0632    0.9043    0.0978 C   0  0  0  0  0  0  0  0  0  0  0  0
   -2.8244    1.8839    0.7420 C   0  0  0  0  0  0  0  0  0  0  0  0
   -5.8014    3.2466    3.6342 H   0  0  0  0  0  0  0  0  0  0  0  0
   -4.8775    1.8354    4.1612 H   0  0  0  0  0  0  0  0  0  0  0  0
   -6.1789    1.6753    2.9182 H   0  0  0  0  0  0  0  0  0  0  0  0
   -4.6191   -0.1166    2.8319 H   0  0  0  0  0  0  0  0  0  0  0  0
   -3.2881   -1.8238    1.7404 H   0  0  0  0  0  0  0  0  0  0  0  0
    2.6410   -1.9859    0.2938 H   0  0  0  0  0  0  0  0  0  0  0  0
    2.6691   -1.4171   -1.3951 H   0  0  0  0  0  0  0  0  0  0  0  0
    2.9344    1.1650   -1.3286 H   0  0  0  0  0  0  0  0  0  0  0  0
    7.6441    2.6420    0.6007 H   0  0  0  0  0  0  0  0  0  0  0  0
    5.2883    5.0889   -2.0337 H   0  0  0  0  0  0  0  0  0  0  0  0
   -0.1593   -5.1044   -2.2299 H   0  0  0  0  0  0  0  0  0  0  0  0
   -2.4026   -6.1903   -2.2255 H   0  0  0  0  0  0  0  0  0  0  0  0
   -4.3545   -5.0134   -1.2722 H   0  0  0  0  0  0  0  0  0  0  0  0
   -4.1197   -2.7509   -0.2954 H   0  0  0  0  0  0  0  0  0  0  0  0
   -1.3849    1.2189   -0.6907 H   0  0  0  0  0  0  0  0  0  0  0  0
   -2.6976    2.9289    0.4669 H   0  0  0  0  0  0  0  0  0  0  0  0
  1  2  1  0
  2  3  1  0
  3  4  2  0
  4  5  1  0
  5  6  2  0
  6  7  1  0
  7  8  1  0
  8  9  1  0
  9 10  1  0
 10 11  1  0
 11 12  2  0
 11 13  1  0
 13 14  1  0
 14 15  2  0
 15 16  1  0
 16 17  2  0
 17 18  1  0
 17 19  1  0
 19 20  2  0
 20 21  1  0
  8 22  2  0
 22 23  1  0
 23 24  2  0
 24 25  1  0
 25 26  2  0
 26 27  1  0
 27 28  2  0
  6 29  1  0
 29 30  2  0
 30  3  1  0
 28  7  1  0
 20 14  1  0
 28 23  1  0
  1 31  1  0
  1 32  1  0
  1 33  1  0
  4 34  1  0
  5 35  1  0
 10 36  1  0
 10 37  1  0
 13 38  1  0
 16 39  1  0
 19 40  1  0
 24 41  1  0
 25 42  1  0
 26 43  1  0
 27 44  1  0
 29 45  1  0
 30 46  1  0
M  END
$$$$
