
     RDKit          3D

 57 59  0  0  0  0  0  0  0  0999 V2000
   -5.7353    0.6130   -1.4396 C   0  0  0  0  0  0  0  0  0  0  0  0
   -5.0455   -0.6075   -2.0447 C   0  0  0  0  0  0  0  0  0  0  0  0
   -3.9975   -1.2576   -1.2531 N   0  0  0  0  0  0  0  0  0  0  0  0
   -4.3025   -1.4916    0.1610 C   0  0  0  0  0  0  0  0  0  0  0  0
   -5.4836   -2.4363    0.3588 C   0  0  0  0  0  0  0  0  0  0  0  0
   -2.6463   -0.7177   -1.4637 C   0  0  0  0  0  0  0  0  0  0  0  0
   -2.3569    0.7134   -0.9900 C   0  0  0  0  0  0  0  0  0  0  0  0
   -0.9402    0.9386   -1.0941 O   0  0  0  0  0  0  0  0  0  0  0  0
   -0.5473    2.0587   -0.4031 C   0  0  0  0  0  0  0  0  0  0  0  0
   -0.8230    3.3156   -0.8106 C   0  0  0  0  0  0  0  0  0  0  0  0
   -0.3164    4.4479    0.0355 C   0  0  2  0  0  0  0  0  0  0  0  0
   -0.1916    5.6905   -0.6385 O   0  0  0  0  0  0  0  0  0  0  0  0
    0.5955    6.4790    0.1725 C   0  0  0  0  0  0  0  0  0  0  0  0
    0.7370    7.6801    0.0112 O   0  0  0  0  0  0  0  0  0  0  0  0
    1.4460    5.5890    1.4592 S   0  0  0  0  0  0  0  0  0  0  0  0
    1.0795    4.0926    0.5643 C   0  0  1  0  0  0  0  0  0  0  0  0
    1.0603    2.7936    1.2965 C   0  0  0  0  0  0  0  0  0  0  0  0
    0.2776    1.8145    0.7866 C   0  0  0  0  0  0  0  0  0  0  0  0
    0.2179    0.5009    1.4844 C   0  0  0  0  0  0  0  0  0  0  0  0
   -0.7966    0.1528    2.0842 O   0  0  0  0  0  0  0  0  0  0  0  0
    1.4120   -0.3854    1.4642 C   0  0  0  0  0  0  0  0  0  0  0  0
    2.4689   -0.2404    0.6499 C   0  0  0  0  0  0  0  0  0  0  0  0
    3.6223   -1.1504    0.6574 C   0  0  0  0  0  0  0  0  0  0  0  0
    4.9039   -0.6216    0.4726 C   0  0  0  0  0  0  0  0  0  0  0  0
    6.0204   -1.4629    0.4489 C   0  0  0  0  0  0  0  0  0  0  0  0
    5.8772   -2.8434    0.5975 C   0  0  0  0  0  0  0  0  0  0  0  0
    7.0482   -3.5479    0.5563 O   0  0  0  0  0  0  0  0  0  0  0  0
    6.9550   -4.9591    0.7060 C   0  0  0  0  0  0  0  0  0  0  0  0
    4.6014   -3.3786    0.7660 C   0  0  0  0  0  0  0  0  0  0  0  0
    3.4811   -2.5373    0.7900 C   0  0  0  0  0  0  0  0  0  0  0  0
   -6.4451    1.0270   -2.1633 H   0  0  0  0  0  0  0  0  0  0  0  0
   -6.3028    0.3564   -0.5401 H   0  0  0  0  0  0  0  0  0  0  0  0
   -5.0308    1.4067   -1.1831 H   0  0  0  0  0  0  0  0  0  0  0  0
   -5.8191   -1.3555   -2.2585 H   0  0  0  0  0  0  0  0  0  0  0  0
   -4.6469   -0.3348   -3.0302 H   0  0  0  0  0  0  0  0  0  0  0  0
   -4.4821   -0.5537    0.6986 H   0  0  0  0  0  0  0  0  0  0  0  0
   -3.4382   -1.9649    0.6440 H   0  0  0  0  0  0  0  0  0  0  0  0
   -5.3190   -3.3860   -0.1621 H   0  0  0  0  0  0  0  0  0  0  0  0
   -5.6088   -2.6568    1.4244 H   0  0  0  0  0  0  0  0  0  0  0  0
   -6.4225   -2.0043   -0.0012 H   0  0  0  0  0  0  0  0  0  0  0  0
   -1.9207   -1.3949   -0.9919 H   0  0  0  0  0  0  0  0  0  0  0  0
   -2.3967   -0.7857   -2.5313 H   0  0  0  0  0  0  0  0  0  0  0  0
   -2.6825    0.8443    0.0487 H   0  0  0  0  0  0  0  0  0  0  0  0
   -2.8743    1.4351   -1.6305 H   0  0  0  0  0  0  0  0  0  0  0  0
   -1.4180    3.5194   -1.6925 H   0  0  0  0  0  0  0  0  0  0  0  0
   -1.0610    4.5831    0.8380 H   0  0  0  0  0  0  0  0  0  0  0  0
    1.8140    4.0299   -0.2510 H   0  0  0  0  0  0  0  0  0  0  0  0
    1.6783    2.6444    2.1764 H   0  0  0  0  0  0  0  0  0  0  0  0
    1.3456   -1.2060    2.1721 H   0  0  0  0  0  0  0  0  0  0  0  0
    2.5297    0.5736   -0.0671 H   0  0  0  0  0  0  0  0  0  0  0  0
    5.0524    0.4490    0.3528 H   0  0  0  0  0  0  0  0  0  0  0  0
    7.0118   -1.0376    0.3115 H   0  0  0  0  0  0  0  0  0  0  0  0
    6.5389   -5.2256    1.6832 H   0  0  0  0  0  0  0  0  0  0  0  0
    7.9684   -5.3686    0.6528 H   0  0  0  0  0  0  0  0  0  0  0  0
    6.3727   -5.4048   -0.1073 H   0  0  0  0  0  0  0  0  0  0  0  0
    4.4382   -4.4454    0.8754 H   0  0  0  0  0  0  0  0  0  0  0  0
    2.4970   -2.9867    0.9022 H   0  0  0  0  0  0  0  0  0  0  0  0
  1  2  1  0
  2  3  1  0
  3  4  1  0
  4  5  1  0
  3  6  1  0
  6  7  1  0
  7  8  1  0
  8  9  1  0
  9 10  2  0
 10 11  1  0
 11 12  1  0
 12 13  1  0
 13 14  2  0
 13 15  1  0
 15 16  1  0
 16 17  1  0
 17 18  2  0
 18 19  1  0
 19 20  2  0
 19 21  1  0
 21 22  2  0
 22 23  1  0
 23 24  2  0
 24 25  1  0
 25 26  2  0
 26 27  1  0
 27 28  1  0
 26 29  1  0
 29 30  2  0
 18  9  1  0
 30 23  1  0
 16 11  1  0
  1 31  1  0
  1 32  1  0
  1 33  1  0
  2 34  1  0
  2 35  1  0
  4 36  1  0
  4 37  1  0
  5 38  1  0
  5 39  1  0
  5 40  1  0
  6 41  1  0
  6 42  1  0
  7 43  1  0
  7 44  1  0
 10 45  1  0
 11 46  1  1
 16 47  1  6
 17 48  1  0
 21 49  1  0
 22 50  1  0
 24 51  1  0
 25 52  1  0
 28 53  1  0
 28 54  1  0
 28 55  1  0
 29 56  1  0
 30 57  1  0
M  END
$$$$
