
     RDKit          3D

 50 53  0  0  0  0  0  0  0  0999 V2000
   -2.1804    3.5556    1.5289 C   0  0  0  0  0  0  0  0  0  0  0  0
   -2.7539    2.3919    0.8587 N   0  0  0  0  0  0  0  0  0  0  0  0
   -1.8778    1.9392   -0.2447 C   0  0  0  0  0  0  0  0  0  0  0  0
   -2.1084    0.4613   -0.6278 C   0  0  0  0  0  0  0  0  0  0  0  0
   -1.7328   -0.4277    0.5034 N   0  0  0  0  0  0  0  0  0  0  0  0
   -2.2405   -1.7396    0.3012 C   0  0  0  0  0  0  0  0  0  0  0  0
   -3.5698   -2.0870    0.5854 C   0  0  0  0  0  0  0  0  0  0  0  0
   -4.0371   -3.3797    0.3424 C   0  0  0  0  0  0  0  0  0  0  0  0
   -3.1833   -4.3406   -0.1919 C   0  0  0  0  0  0  0  0  0  0  0  0
   -1.8577   -4.0167   -0.4858 C   0  0  0  0  0  0  0  0  0  0  0  0
   -1.3814   -2.7269   -0.2433 C   0  0  0  0  0  0  0  0  0  0  0  0
   -0.0569   -2.3191   -0.4933 N   0  0  0  0  0  0  0  0  0  0  0  0
    0.9902   -3.0341   -1.0285 C   0  0  0  0  0  0  0  0  0  0  0  0
    0.9357   -4.2012   -1.4042 O   0  0  0  0  0  0  0  0  0  0  0  0
    2.2146   -2.2585   -1.1235 C   0  0  0  0  0  0  0  0  0  0  0  0
    3.4655   -2.6031   -1.5950 C   0  0  0  0  0  0  0  0  0  0  0  0
    4.2834   -1.4567   -1.4565 C   0  0  0  0  0  0  0  0  0  0  0  0
    3.4930   -0.4660   -0.9069 C   0  0  0  0  0  0  0  0  0  0  0  0
    3.7192    0.9266   -0.5264 C   0  0  0  0  0  0  0  0  0  0  0  0
    4.9333    1.5589   -0.8336 C   0  0  0  0  0  0  0  0  0  0  0  0
    5.1607    2.8923   -0.4767 C   0  0  0  0  0  0  0  0  0  0  0  0
    4.1758    3.6165    0.1955 C   0  0  0  0  0  0  0  0  0  0  0  0
    4.5200    5.2591    0.6026 Cl  0  0  0  0  0  0  0  0  0  0  0  0
    2.9615    3.0011    0.5111 C   0  0  0  0  0  0  0  0  0  0  0  0
    1.6970    3.8331    1.3442 Cl  0  0  0  0  0  0  0  0  0  0  0  0
    2.7375    1.6661    0.1517 C   0  0  0  0  0  0  0  0  0  0  0  0
    2.2317   -0.9535   -0.7030 O   0  0  0  0  0  0  0  0  0  0  0  0
   -2.0012    0.1519    1.8440 C   0  0  0  0  0  0  0  0  0  0  0  0
   -3.0414    1.2963    1.8099 C   0  0  0  0  0  0  0  0  0  0  0  0
   -1.2569    3.3088    2.0626 H   0  0  0  0  0  0  0  0  0  0  0  0
   -2.8932    3.9688    2.2510 H   0  0  0  0  0  0  0  0  0  0  0  0
   -1.9661    4.3522    0.8080 H   0  0  0  0  0  0  0  0  0  0  0  0
   -2.0624    2.5718   -1.1204 H   0  0  0  0  0  0  0  0  0  0  0  0
   -0.8205    2.0574    0.0272 H   0  0  0  0  0  0  0  0  0  0  0  0
   -3.1588    0.3253   -0.9185 H   0  0  0  0  0  0  0  0  0  0  0  0
   -1.4874    0.2170   -1.4979 H   0  0  0  0  0  0  0  0  0  0  0  0
   -4.2623   -1.3526    0.9827 H   0  0  0  0  0  0  0  0  0  0  0  0
   -5.0701   -3.6343    0.5646 H   0  0  0  0  0  0  0  0  0  0  0  0
   -3.5468   -5.3472   -0.3829 H   0  0  0  0  0  0  0  0  0  0  0  0
   -1.2206   -4.7918   -0.8983 H   0  0  0  0  0  0  0  0  0  0  0  0
    0.1234   -1.3551   -0.2222 H   0  0  0  0  0  0  0  0  0  0  0  0
    3.7394   -3.5721   -1.9911 H   0  0  0  0  0  0  0  0  0  0  0  0
    5.3263   -1.3714   -1.7269 H   0  0  0  0  0  0  0  0  0  0  0  0
    5.7210    1.0244   -1.3606 H   0  0  0  0  0  0  0  0  0  0  0  0
    6.1106    3.3585   -0.7291 H   0  0  0  0  0  0  0  0  0  0  0  0
    1.7878    1.2004    0.4092 H   0  0  0  0  0  0  0  0  0  0  0  0
   -2.3084   -0.6127    2.5685 H   0  0  0  0  0  0  0  0  0  0  0  0
   -1.0511    0.5547    2.2176 H   0  0  0  0  0  0  0  0  0  0  0  0
   -4.0106    0.8760    1.5171 H   0  0  0  0  0  0  0  0  0  0  0  0
   -3.1897    1.6823    2.8263 H   0  0  0  0  0  0  0  0  0  0  0  0
  1  2  1  0
  2  3  1  0
  3  4  1  0
  4  5  1  0
  5  6  1  0
  6  7  2  0
  7  8  1  0
  8  9  2  0
  9 10  1  0
 10 11  2  0
 11 12  1  0
 12 13  1  0
 13 14  2  0
 13 15  1  0
 15 16  2  0
 16 17  1  0
 17 18  2  0
 18 19  1  0
 19 20  2  0
 20 21  1  0
 21 22  2  0
 22 23  1  0
 22 24  1  0
 24 25  1  0
 24 26  2  0
 18 27  1  0
  5 28  1  0
 28 29  1  0
 29  2  1  0
 11  6  1  0
 27 15  1  0
 26 19  1  0
  1 30  1  0
  1 31  1  0
  1 32  1  0
  3 33  1  0
  3 34  1  0
  4 35  1  0
  4 36  1  0
  7 37  1  0
  8 38  1  0
  9 39  1  0
 10 40  1  0
 12 41  1  0
 16 42  1  0
 17 43  1  0
 20 44  1  0
 21 45  1  0
 26 46  1  0
 28 47  1  0
 28 48  1  0
 29 49  1  0
 29 50  1  0
M  END
$$$$
