
     RDKit          3D

 33 34  0  0  0  0  0  0  0  0999 V2000
   -2.0772    3.7851    1.4965 C   0  0  0  0  0  0  0  0  0  0  0  0
   -1.3024    2.6025    1.2955 O   0  0  0  0  0  0  0  0  0  0  0  0
   -0.2712    2.7711    0.4342 C   0  0  0  0  0  0  0  0  0  0  0  0
    0.1301    3.8099   -0.0603 O   0  0  0  0  0  0  0  0  0  0  0  0
    0.4219    1.4849    0.2892 C   0  0  0  0  0  0  0  0  0  0  0  0
    1.7513    1.4508    0.7072 C   0  0  0  0  0  0  0  0  0  0  0  0
    2.4071    0.2440    0.6410 C   0  0  0  0  0  0  0  0  0  0  0  0
    3.7163    0.2301    1.0715 O   0  0  0  0  0  0  0  0  0  0  0  0
    4.3492   -1.0355    0.9112 C   0  0  0  0  0  0  0  0  0  0  0  0
    1.8255   -0.8920    0.2073 N   0  0  0  0  0  0  0  0  0  0  0  0
    0.5345   -0.8397   -0.2115 C   0  0  0  0  0  0  0  0  0  0  0  0
   -0.1961    0.3337   -0.2067 C   0  0  0  0  0  0  0  0  0  0  0  0
   -1.5515    0.3116   -0.7706 C   0  0  0  0  0  0  0  0  0  0  0  0
   -2.1168    1.3641   -1.0531 O   0  0  0  0  0  0  0  0  0  0  0  0
   -2.1058   -0.9378   -1.0078 N   0  0  0  0  0  0  0  0  0  0  0  0
   -3.4778   -0.9857   -1.4824 C   0  0  0  0  0  0  0  0  0  0  0  0
   -1.3776   -2.1194   -1.0498 C   0  0  0  0  0  0  0  0  0  0  0  0
   -1.8842   -3.1766   -1.4293 O   0  0  0  0  0  0  0  0  0  0  0  0
   -0.0546   -2.0388   -0.6611 N   0  0  0  0  0  0  0  0  0  0  0  0
    0.7772   -3.2338   -0.6698 C   0  0  0  0  0  0  0  0  0  0  0  0
   -1.5237    4.4921    2.1235 H   0  0  0  0  0  0  0  0  0  0  0  0
   -2.3529    4.2461    0.5409 H   0  0  0  0  0  0  0  0  0  0  0  0
   -2.9971    3.5023    2.0178 H   0  0  0  0  0  0  0  0  0  0  0  0
    2.2534    2.3367    1.0815 H   0  0  0  0  0  0  0  0  0  0  0  0
    3.8670   -1.8011    1.5300 H   0  0  0  0  0  0  0  0  0  0  0  0
    5.3848   -0.9352    1.2498 H   0  0  0  0  0  0  0  0  0  0  0  0
    4.3696   -1.3377   -0.1416 H   0  0  0  0  0  0  0  0  0  0  0  0
   -4.0525   -0.1287   -1.1167 H   0  0  0  0  0  0  0  0  0  0  0  0
   -3.9674   -1.9041   -1.1448 H   0  0  0  0  0  0  0  0  0  0  0  0
   -3.4671   -0.9708   -2.5774 H   0  0  0  0  0  0  0  0  0  0  0  0
    1.1020   -3.4583    0.3512 H   0  0  0  0  0  0  0  0  0  0  0  0
    1.6486   -3.0658   -1.3108 H   0  0  0  0  0  0  0  0  0  0  0  0
    0.2372   -4.1040   -1.0543 H   0  0  0  0  0  0  0  0  0  0  0  0
  1  2  1  0
  2  3  1  0
  3  4  2  0
  3  5  1  0
  5  6  2  0
  6  7  1  0
  7  8  1  0
  8  9  1  0
  7 10  2  0
 10 11  1  0
 11 12  2  0
 12 13  1  0
 13 14  2  0
 13 15  1  0
 15 16  1  0
 15 17  1  0
 17 18  2  0
 17 19  1  0
 19 20  1  0
 12  5  1  0
 19 11  1  0
  1 21  1  0
  1 22  1  0
  1 23  1  0
  6 24  1  0
  9 25  1  0
  9 26  1  0
  9 27  1  0
 16 28  1  0
 16 29  1  0
 16 30  1  0
 20 31  1  0
 20 32  1  0
 20 33  1  0
M  END
$$$$
