
     RDKit          3D

 57 61  0  0  0  0  0  0  0  0999 V2000
   -6.2542    1.6054   -3.4304 C   0  0  0  0  0  0  0  0  0  0  0  0
   -5.8050    0.8778   -2.1931 C   0  0  0  0  0  0  0  0  0  0  0  0
   -5.8919   -0.5190   -2.1354 C   0  0  0  0  0  0  0  0  0  0  0  0
   -5.4793   -1.2102   -0.9892 C   0  0  0  0  0  0  0  0  0  0  0  0
   -4.9702   -0.5166    0.1175 C   0  0  0  0  0  0  0  0  0  0  0  0
   -4.5517   -1.2509    1.3687 C   0  0  0  0  0  0  0  0  0  0  0  0
   -3.3426   -2.0251    1.1735 N   0  0  0  0  0  0  0  0  0  0  0  0
   -3.3998   -3.3714    1.0041 N   0  0  0  0  0  0  0  0  0  0  0  0
   -2.1476   -3.8265    0.9295 N   0  0  0  0  0  0  0  0  0  0  0  0
   -1.3192   -2.7535    1.0649 C   0  0  0  0  0  0  0  0  0  0  0  0
    0.1184   -2.6665    1.0660 C   0  0  0  0  0  0  0  0  0  0  0  0
    0.8845   -3.6151    0.9271 O   0  0  0  0  0  0  0  0  0  0  0  0
    0.5635   -1.3563    1.2318 N   0  0  0  0  0  0  0  0  0  0  0  0
   -0.2813   -0.2569    1.3736 C   0  0  0  0  0  0  0  0  0  0  0  0
    0.3556    1.1300    1.4489 C   0  0  0  0  0  0  0  0  0  0  0  0
    0.8337    1.5730    0.0544 C   0  0  0  0  0  0  0  0  0  0  0  0
    2.2231    1.0572   -0.2956 C   0  0  0  0  0  0  0  0  0  0  0  0
    3.1995    1.2852    0.8004 N   0  0  0  0  0  0  0  0  0  0  0  0
    4.3048    0.0262    1.1242 S   0  0  0  0  0  6  0  0  0  0  0  0
    5.2460    0.4731    2.1280 O   0  0  0  0  0  0  0  0  0  0  0  0
    3.4862   -1.1590    1.3501 O   0  0  0  0  0  0  0  0  0  0  0  0
    5.1957   -0.1921   -0.3770 C   0  0  0  0  0  0  0  0  0  0  0  0
    5.2857   -1.4582   -0.9734 C   0  0  0  0  0  0  0  0  0  0  0  0
    6.0413   -1.6193   -2.1390 C   0  0  0  0  0  0  0  0  0  0  0  0
    6.6981   -0.5221   -2.7028 C   0  0  0  0  0  0  0  0  0  0  0  0
    6.5986    0.7384   -2.1029 C   0  0  0  0  0  0  0  0  0  0  0  0
    5.8490    0.8980   -0.9391 C   0  0  0  0  0  0  0  0  0  0  0  0
    5.7695    2.1188   -0.3864 F   0  0  0  0  0  0  0  0  0  0  0  0
    2.6666    1.9734    2.0016 C   0  0  0  0  0  0  0  0  0  0  0  0
    1.4389    1.2432    2.5272 C   0  0  0  0  0  0  0  0  0  0  0  0
   -1.5868   -0.3319    1.3859 N   0  0  0  0  0  0  0  0  0  0  0  0
   -2.0458   -1.5977    1.2280 C   0  0  0  0  0  0  0  0  0  0  0  0
   -4.8644    0.8814    0.0472 C   0  0  0  0  0  0  0  0  0  0  0  0
   -5.2773    1.5720   -1.0969 C   0  0  0  0  0  0  0  0  0  0  0  0
   -6.1923    2.6905   -3.2942 H   0  0  0  0  0  0  0  0  0  0  0  0
   -5.6187    1.3250   -4.2853 H   0  0  0  0  0  0  0  0  0  0  0  0
   -7.3069    1.3599   -3.6586 H   0  0  0  0  0  0  0  0  0  0  0  0
   -6.2844   -1.0769   -2.9843 H   0  0  0  0  0  0  0  0  0  0  0  0
   -5.5565   -2.2968   -0.9707 H   0  0  0  0  0  0  0  0  0  0  0  0
   -5.3518   -1.9269    1.6968 H   0  0  0  0  0  0  0  0  0  0  0  0
   -4.3630   -0.5562    2.1970 H   0  0  0  0  0  0  0  0  0  0  0  0
    1.5775   -1.2738    1.2902 H   0  0  0  0  0  0  0  0  0  0  0  0
   -0.4540    1.8252    1.7274 H   0  0  0  0  0  0  0  0  0  0  0  0
    0.8451    2.6720    0.0197 H   0  0  0  0  0  0  0  0  0  0  0  0
    0.1236    1.2570   -0.7195 H   0  0  0  0  0  0  0  0  0  0  0  0
    2.1592   -0.0091   -0.5453 H   0  0  0  0  0  0  0  0  0  0  0  0
    2.5877    1.5705   -1.1958 H   0  0  0  0  0  0  0  0  0  0  0  0
    4.7901   -2.3238   -0.5352 H   0  0  0  0  0  0  0  0  0  0  0  0
    6.1316   -2.6038   -2.6017 H   0  0  0  0  0  0  0  0  0  0  0  0
    7.2916   -0.6477   -3.6079 H   0  0  0  0  0  0  0  0  0  0  0  0
    7.1155    1.5928   -2.5292 H   0  0  0  0  0  0  0  0  0  0  0  0
    2.4258    3.0121    1.7366 H   0  0  0  0  0  0  0  0  0  0  0  0
    3.4265    2.0474    2.7872 H   0  0  0  0  0  0  0  0  0  0  0  0
    1.0312    1.7931    3.3877 H   0  0  0  0  0  0  0  0  0  0  0  0
    1.7275    0.2594    2.9221 H   0  0  0  0  0  0  0  0  0  0  0  0
   -4.4628    1.4478    0.8854 H   0  0  0  0  0  0  0  0  0  0  0  0
   -5.1842    2.6574   -1.1213 H   0  0  0  0  0  0  0  0  0  0  0  0
  1  2  1  0
  2  3  2  0
  3  4  1  0
  4  5  2  0
  5  6  1  0
  6  7  1  0
  7  8  1  0
  8  9  2  0
  9 10  1  0
 10 11  1  0
 11 12  2  0
 11 13  1  0
 13 14  1  0
 14 15  1  0
 15 16  1  0
 16 17  1  0
 17 18  1  0
 18 19  1  0
 19 20  2  0
 19 21  2  0
 19 22  1  0
 22 23  2  0
 23 24  1  0
 24 25  2  0
 25 26  1  0
 26 27  2  0
 27 28  1  0
 18 29  1  0
 29 30  1  0
 14 31  2  0
 31 32  1  0
  5 33  1  0
 33 34  2  0
 34  2  1  0
 32  7  1  0
 32 10  2  0
 30 15  1  0
 27 22  1  0
  1 35  1  0
  1 36  1  0
  1 37  1  0
  3 38  1  0
  4 39  1  0
  6 40  1  0
  6 41  1  0
 13 42  1  0
 15 43  1  0
 16 44  1  0
 16 45  1  0
 17 46  1  0
 17 47  1  0
 23 48  1  0
 24 49  1  0
 25 50  1  0
 26 51  1  0
 29 52  1  0
 29 53  1  0
 30 54  1  0
 30 55  1  0
 33 56  1  0
 34 57  1  0
M  END
$$$$
