
     RDKit          3D

 61 66  0  0  0  0  0  0  0  0999 V2000
    7.5903    2.8529   -1.4741 C   0  0  0  0  0  0  0  0  0  0  0  0
    6.8044    2.1668   -2.3989 C   0  0  0  0  0  0  0  0  0  0  0  0
    5.5939    1.5961   -2.0019 C   0  0  0  0  0  0  0  0  0  0  0  0
    5.1565    1.7112   -0.6753 C   0  0  0  0  0  0  0  0  0  0  0  0
    3.8602    1.0704   -0.2355 C   0  0  0  0  0  0  0  0  0  0  0  0
    4.0888   -0.3635    0.2773 C   0  0  0  0  0  0  0  0  0  0  0  0
    2.9184   -1.1016    0.7765 N   0  0  0  0  0  0  0  0  0  0  0  0
    1.8770   -1.3103   -0.2490 C   0  0  0  0  0  0  0  0  0  0  0  0
    0.7124   -2.1831    0.2750 C   0  0  0  0  0  0  0  0  0  0  0  0
    0.1072   -1.6031    1.5041 N   0  0  0  0  0  0  0  0  0  0  0  0
   -0.9313   -0.7216    1.3280 C   0  0  0  0  0  0  0  0  0  0  0  0
   -0.9976    0.6325    1.6027 C   0  0  0  0  0  0  0  0  0  0  0  0
   -2.2023    1.1346    1.0650 C   0  0  0  0  0  0  0  0  0  0  0  0
   -2.8796    0.0717    0.5038 C   0  0  0  0  0  0  0  0  0  0  0  0
   -4.1346   -0.0098   -0.2105 C   0  0  0  0  0  0  0  0  0  0  0  0
   -4.8305    1.2219   -0.6626 C   0  0  0  0  0  0  0  0  0  0  0  0
   -6.2045    1.3454   -0.4276 C   0  0  0  0  0  0  0  0  0  0  0  0
   -6.8828    2.4895   -0.8500 C   0  0  0  0  0  0  0  0  0  0  0  0
   -6.1942    3.5017   -1.5194 C   0  0  0  0  0  0  0  0  0  0  0  0
   -4.8286    3.3702   -1.7739 C   0  0  0  0  0  0  0  0  0  0  0  0
   -4.1447    2.2293   -1.3505 C   0  0  0  0  0  0  0  0  0  0  0  0
   -4.6799   -1.1611   -0.4682 N   0  0  0  0  0  0  0  0  0  0  0  0
   -4.0324   -2.3384   -0.0427 C   0  0  0  0  0  0  0  0  0  0  0  0
   -4.6804   -3.5549   -0.2751 C   0  0  0  0  0  0  0  0  0  0  0  0
   -4.1143   -4.7588    0.1472 C   0  0  0  0  0  0  0  0  0  0  0  0
   -2.8956   -4.7534    0.8217 C   0  0  0  0  0  0  0  0  0  0  0  0
   -2.2314   -3.5485    1.0616 C   0  0  0  0  0  0  0  0  0  0  0  0
   -2.7852   -2.3479    0.6066 C   0  0  0  0  0  0  0  0  0  0  0  0
   -2.1799   -1.0831    0.8126 N   0  0  0  0  0  0  0  0  0  0  0  0
    1.1328   -1.3259    2.5356 C   0  0  0  0  0  0  0  0  0  0  0  0
    2.3192   -0.4987    1.9833 C   0  0  0  0  0  0  0  0  0  0  0  0
    5.9552    2.4013    0.2473 C   0  0  0  0  0  0  0  0  0  0  0  0
    7.1660    2.9697   -0.1516 C   0  0  0  0  0  0  0  0  0  0  0  0
    8.5353    3.2931   -1.7834 H   0  0  0  0  0  0  0  0  0  0  0  0
    7.1374    2.0729   -3.4295 H   0  0  0  0  0  0  0  0  0  0  0  0
    4.9956    1.0581   -2.7337 H   0  0  0  0  0  0  0  0  0  0  0  0
    3.4073    1.6977    0.5411 H   0  0  0  0  0  0  0  0  0  0  0  0
    3.1600    1.0756   -1.0793 H   0  0  0  0  0  0  0  0  0  0  0  0
    4.5470   -0.9589   -0.5240 H   0  0  0  0  0  0  0  0  0  0  0  0
    4.8437   -0.3464    1.0749 H   0  0  0  0  0  0  0  0  0  0  0  0
    2.3144   -1.8141   -1.1193 H   0  0  0  0  0  0  0  0  0  0  0  0
    1.4691   -0.3512   -0.5913 H   0  0  0  0  0  0  0  0  0  0  0  0
    1.0871   -3.1863    0.5151 H   0  0  0  0  0  0  0  0  0  0  0  0
   -0.0294   -2.3073   -0.5230 H   0  0  0  0  0  0  0  0  0  0  0  0
   -0.2263    1.2238    2.0741 H   0  0  0  0  0  0  0  0  0  0  0  0
   -2.5254    2.1675    1.0766 H   0  0  0  0  0  0  0  0  0  0  0  0
   -6.7438    0.5523    0.0865 H   0  0  0  0  0  0  0  0  0  0  0  0
   -7.9486    2.5883   -0.6612 H   0  0  0  0  0  0  0  0  0  0  0  0
   -6.7255    4.3902   -1.8520 H   0  0  0  0  0  0  0  0  0  0  0  0
   -4.2991    4.1539   -2.3096 H   0  0  0  0  0  0  0  0  0  0  0  0
   -3.0869    2.1258   -1.5755 H   0  0  0  0  0  0  0  0  0  0  0  0
   -5.6401   -3.5569   -0.7852 H   0  0  0  0  0  0  0  0  0  0  0  0
   -4.6325   -5.6959   -0.0383 H   0  0  0  0  0  0  0  0  0  0  0  0
   -2.4640   -5.6874    1.1722 H   0  0  0  0  0  0  0  0  0  0  0  0
   -1.3054   -3.5741    1.6264 H   0  0  0  0  0  0  0  0  0  0  0  0
    1.5118   -2.2893    2.9013 H   0  0  0  0  0  0  0  0  0  0  0  0
    0.6919   -0.8222    3.4044 H   0  0  0  0  0  0  0  0  0  0  0  0
    1.9746    0.5192    1.7732 H   0  0  0  0  0  0  0  0  0  0  0  0
    3.0783   -0.4277    2.7713 H   0  0  0  0  0  0  0  0  0  0  0  0
    5.6405    2.4967    1.2843 H   0  0  0  0  0  0  0  0  0  0  0  0
    7.7807    3.5008    0.5712 H   0  0  0  0  0  0  0  0  0  0  0  0
  1  2  2  0
  2  3  1  0
  3  4  2  0
  4  5  1  0
  5  6  1  0
  6  7  1  0
  7  8  1  0
  8  9  1  0
  9 10  1  0
 10 11  1  0
 11 12  2  0
 12 13  1  0
 13 14  2  0
 14 15  1  0
 15 16  1  0
 16 17  2  0
 17 18  1  0
 18 19  2  0
 19 20  1  0
 20 21  2  0
 15 22  2  0
 22 23  1  0
 23 24  2  0
 24 25  1  0
 25 26  2  0
 26 27  1  0
 27 28  2  0
 28 29  1  0
 10 30  1  0
 30 31  1  0
  4 32  1  0
 32 33  2  0
 33  1  1  0
 31  7  1  0
 29 11  1  0
 29 14  1  0
 21 16  1  0
 28 23  1  0
  1 34  1  0
  2 35  1  0
  3 36  1  0
  5 37  1  0
  5 38  1  0
  6 39  1  0
  6 40  1  0
  8 41  1  0
  8 42  1  0
  9 43  1  0
  9 44  1  0
 12 45  1  0
 13 46  1  0
 17 47  1  0
 18 48  1  0
 19 49  1  0
 20 50  1  0
 21 51  1  0
 24 52  1  0
 25 53  1  0
 26 54  1  0
 27 55  1  0
 30 56  1  0
 30 57  1  0
 31 58  1  0
 31 59  1  0
 32 60  1  0
 33 61  1  0
M  END
$$$$
