
     RDKit          3D

 69 71  0  0  0  0  0  0  0  0999 V2000
   -2.6144   -0.4143   -5.9699 C   0  0  0  0  0  0  0  0  0  0  0  0
   -2.6220    0.4344   -4.8253 O   0  0  0  0  0  0  0  0  0  0  0  0
   -3.0743   -0.1487   -3.6691 C   0  0  0  0  0  0  0  0  0  0  0  0
   -4.0966   -1.0973   -3.6438 C   0  0  0  0  0  0  0  0  0  0  0  0
   -4.4882   -1.6756   -2.4351 C   0  0  0  0  0  0  0  0  0  0  0  0
   -3.8717   -1.3011   -1.2409 C   0  0  0  0  0  0  0  0  0  0  0  0
   -2.8711   -0.3171   -1.2266 C   0  0  0  0  0  0  0  0  0  0  0  0
   -2.1531    0.1060    0.0553 C   0  0  0  0  0  0  0  0  0  0  0  0
   -2.9622    0.0417    1.3822 C   0  0  0  0  0  0  0  0  0  0  0  0
   -4.1901   -0.0209    1.4306 O   0  0  0  0  0  0  0  0  0  0  0  0
   -2.1810    0.2191    2.5208 N   0  0  0  0  0  0  0  0  0  0  0  0
   -2.7021    0.4385    3.8760 C   0  0  0  0  0  0  0  0  0  0  0  0
   -3.5488   -0.7521    4.3487 C   0  0  0  0  0  0  0  0  0  0  0  0
   -1.4987    0.5720    4.8242 C   0  0  0  0  0  0  0  0  0  0  0  0
   -3.5260    1.7346    3.9411 C   0  0  0  0  0  0  0  0  0  0  0  0
   -0.8123   -0.5256    0.1782 N   0  0  0  0  0  0  0  0  0  0  0  0
    0.2779    0.3170    0.3519 C   0  0  0  0  0  0  0  0  0  0  0  0
    0.1378    1.4704    0.7680 O   0  0  0  0  0  0  0  0  0  0  0  0
    1.6589   -0.2487    0.0716 C   0  0  0  0  0  0  0  0  0  0  0  0
    2.6279    0.8738   -0.2850 C   0  0  0  0  0  0  0  0  0  0  0  0
    4.0697    0.4060   -0.3260 C   0  0  0  0  0  0  0  0  0  0  0  0
    4.3863   -0.7779   -0.2386 O   0  0  0  0  0  0  0  0  0  0  0  0
    4.9372    1.4658   -0.4671 N   0  0  0  0  0  0  0  0  0  0  0  0
    6.3115    1.3852   -0.4386 C   0  0  0  0  0  0  0  0  0  0  0  0
    7.1501    0.2526   -0.3456 C   0  0  0  0  0  0  0  0  0  0  0  0
    8.4206    0.7723   -0.3171 C   0  0  0  0  0  0  0  0  0  0  0  0
    9.7702    0.1879   -0.2217 C   0  0  0  0  0  0  0  0  0  0  0  0
    8.3515    2.1279   -0.3925 O   0  0  0  0  0  0  0  0  0  0  0  0
    7.0280    2.5136   -0.4567 N   0  0  0  0  0  0  0  0  0  0  0  0
   -0.7075   -1.9468   -0.0574 C   0  0  0  0  0  0  0  0  0  0  0  0
   -1.4396   -2.9450    0.8093 C   0  0  0  0  0  0  0  0  0  0  0  0
    0.0501   -2.8642    0.8719 C   0  0  0  0  0  0  0  0  0  0  0  0
   -2.4885    0.2604   -2.4579 C   0  0  0  0  0  0  0  0  0  0  0  0
   -1.4489    1.1619   -2.4366 O   0  0  0  0  0  0  0  0  0  0  0  0
   -1.8592    2.4632   -2.8559 C   0  0  0  0  0  0  0  0  0  0  0  0
   -3.6173   -0.4938   -6.4015 H   0  0  0  0  0  0  0  0  0  0  0  0
   -2.2022   -1.4008   -5.7351 H   0  0  0  0  0  0  0  0  0  0  0  0
   -1.9636    0.0442   -6.7185 H   0  0  0  0  0  0  0  0  0  0  0  0
   -4.6093   -1.3982   -4.5503 H   0  0  0  0  0  0  0  0  0  0  0  0
   -5.2805   -2.4201   -2.4235 H   0  0  0  0  0  0  0  0  0  0  0  0
   -4.1972   -1.7827   -0.3206 H   0  0  0  0  0  0  0  0  0  0  0  0
   -2.0101    1.1914   -0.0474 H   0  0  0  0  0  0  0  0  0  0  0  0
   -1.2363    0.5497    2.3328 H   0  0  0  0  0  0  0  0  0  0  0  0
   -3.8722   -0.6166    5.3888 H   0  0  0  0  0  0  0  0  0  0  0  0
   -4.4523   -0.8870    3.7465 H   0  0  0  0  0  0  0  0  0  0  0  0
   -2.9761   -1.6841    4.3023 H   0  0  0  0  0  0  0  0  0  0  0  0
   -1.8145    0.7827    5.8492 H   0  0  0  0  0  0  0  0  0  0  0  0
   -0.8180    1.3757    4.5093 H   0  0  0  0  0  0  0  0  0  0  0  0
   -0.9094   -0.3541    4.8344 H   0  0  0  0  0  0  0  0  0  0  0  0
   -2.9639    2.5815    3.5392 H   0  0  0  0  0  0  0  0  0  0  0  0
   -3.8071    1.9751    4.9713 H   0  0  0  0  0  0  0  0  0  0  0  0
   -4.4515    1.6541    3.3637 H   0  0  0  0  0  0  0  0  0  0  0  0
    1.9995   -0.7656    0.9742 H   0  0  0  0  0  0  0  0  0  0  0  0
    1.6238   -0.9689   -0.7513 H   0  0  0  0  0  0  0  0  0  0  0  0
    2.3645    1.2908   -1.2638 H   0  0  0  0  0  0  0  0  0  0  0  0
    2.5639    1.6849    0.4505 H   0  0  0  0  0  0  0  0  0  0  0  0
    4.5892    2.4142   -0.5051 H   0  0  0  0  0  0  0  0  0  0  0  0
    6.8699   -0.7903   -0.2955 H   0  0  0  0  0  0  0  0  0  0  0  0
    9.7305   -0.8157    0.2122 H   0  0  0  0  0  0  0  0  0  0  0  0
   10.2302    0.1208   -1.2110 H   0  0  0  0  0  0  0  0  0  0  0  0
   10.4121    0.8032    0.4156 H   0  0  0  0  0  0  0  0  0  0  0  0
   -0.6503   -2.1864   -1.1212 H   0  0  0  0  0  0  0  0  0  0  0  0
   -1.8801   -3.8137    0.3308 H   0  0  0  0  0  0  0  0  0  0  0  0
   -1.9965   -2.6064    1.6750 H   0  0  0  0  0  0  0  0  0  0  0  0
    0.4970   -2.4541    1.7706 H   0  0  0  0  0  0  0  0  0  0  0  0
    0.6387   -3.6560    0.4231 H   0  0  0  0  0  0  0  0  0  0  0  0
   -1.2839    3.1915   -2.2782 H   0  0  0  0  0  0  0  0  0  0  0  0
   -1.6274    2.6077   -3.9165 H   0  0  0  0  0  0  0  0  0  0  0  0
   -2.9212    2.6572   -2.6726 H   0  0  0  0  0  0  0  0  0  0  0  0
  1  2  1  0
  2  3  1  0
  3  4  2  0
  4  5  1  0
  5  6  2  0
  6  7  1  0
  7  8  1  0
  8  9  1  0
  9 10  2  0
  9 11  1  0
 11 12  1  0
 12 13  1  0
 12 14  1  0
 12 15  1  0
  8 16  1  0
 16 17  1  0
 17 18  2  0
 17 19  1  0
 19 20  1  0
 20 21  1  0
 21 22  2  0
 21 23  1  0
 23 24  1  0
 24 25  1  0
 25 26  2  0
 26 27  1  0
 26 28  1  0
 28 29  1  0
 16 30  1  0
 30 31  1  0
 31 32  1  0
  7 33  2  0
 33 34  1  0
 34 35  1  0
 33  3  1  0
 29 24  2  0
 32 30  1  0
  1 36  1  0
  1 37  1  0
  1 38  1  0
  4 39  1  0
  5 40  1  0
  6 41  1  0
  8 42  1  0
 11 43  1  0
 13 44  1  0
 13 45  1  0
 13 46  1  0
 14 47  1  0
 14 48  1  0
 14 49  1  0
 15 50  1  0
 15 51  1  0
 15 52  1  0
 19 53  1  0
 19 54  1  0
 20 55  1  0
 20 56  1  0
 23 57  1  0
 25 58  1  0
 27 59  1  0
 27 60  1  0
 27 61  1  0
 30 62  1  0
 31 63  1  0
 31 64  1  0
 32 65  1  0
 32 66  1  0
 35 67  1  0
 35 68  1  0
 35 69  1  0
M  END
$$$$
