
     RDKit          3D

 34 35  0  0  0  0  0  0  0  0999 V2000
    5.2289    1.5745   -0.0859 C   0  0  0  0  0  0  0  0  0  0  0  0
    4.5717    0.3097   -0.6092 C   0  0  0  0  0  0  0  0  0  0  0  0
    3.4886   -0.1417    0.2470 N   0  0  0  0  0  0  0  0  0  0  0  0
    3.7898   -0.9416    1.2878 N   0  0  0  0  0  0  0  0  0  0  0  0
    2.6070   -1.1980    1.8451 C   0  0  0  0  0  0  0  0  0  0  0  0
    1.5430   -0.5745    1.1613 C   0  0  0  0  0  0  0  0  0  0  0  0
    0.1637   -0.6673    1.5105 C   0  0  0  0  0  0  0  0  0  0  0  0
   -0.8731   -0.5909    0.6618 C   0  0  0  0  0  0  0  0  0  0  0  0
   -2.2602   -0.7445    1.1772 C   0  0  0  0  0  0  0  0  0  0  0  0
   -2.4877   -1.1224    2.3218 O   0  0  0  0  0  0  0  0  0  0  0  0
   -3.3855   -0.4625    0.2459 C   0  0  0  0  0  0  0  0  0  0  0  0
   -3.2872    0.4751   -0.7906 C   0  0  0  0  0  0  0  0  0  0  0  0
   -4.3795    0.7045   -1.6315 C   0  0  0  0  0  0  0  0  0  0  0  0
   -5.5722    0.0084   -1.4365 C   0  0  0  0  0  0  0  0  0  0  0  0
   -5.6813   -0.9126   -0.3959 C   0  0  0  0  0  0  0  0  0  0  0  0
   -4.5931   -1.1443    0.4470 C   0  0  0  0  0  0  0  0  0  0  0  0
    2.1439    0.1418    0.1397 C   0  0  0  0  0  0  0  0  0  0  0  0
    1.5938    1.0582   -0.8927 C   0  0  0  0  0  0  0  0  0  0  0  0
    5.6523    1.4155    0.9115 H   0  0  0  0  0  0  0  0  0  0  0  0
    4.5088    2.3961   -0.0143 H   0  0  0  0  0  0  0  0  0  0  0  0
    6.0377    1.8862   -0.7538 H   0  0  0  0  0  0  0  0  0  0  0  0
    4.1710    0.4645   -1.6160 H   0  0  0  0  0  0  0  0  0  0  0  0
    5.3030   -0.5043   -0.6725 H   0  0  0  0  0  0  0  0  0  0  0  0
    2.5679   -1.8364    2.7185 H   0  0  0  0  0  0  0  0  0  0  0  0
   -0.0465   -0.8587    2.5636 H   0  0  0  0  0  0  0  0  0  0  0  0
   -0.7297   -0.4618   -0.4016 H   0  0  0  0  0  0  0  0  0  0  0  0
   -2.3824    1.0552   -0.9462 H   0  0  0  0  0  0  0  0  0  0  0  0
   -4.3046    1.4341   -2.4344 H   0  0  0  0  0  0  0  0  0  0  0  0
   -6.4219    0.1911   -2.0901 H   0  0  0  0  0  0  0  0  0  0  0  0
   -6.6142   -1.4478   -0.2364 H   0  0  0  0  0  0  0  0  0  0  0  0
   -4.6884   -1.8599    1.2619 H   0  0  0  0  0  0  0  0  0  0  0  0
    1.3514    0.5014   -1.8031 H   0  0  0  0  0  0  0  0  0  0  0  0
    2.3002    1.8524   -1.1520 H   0  0  0  0  0  0  0  0  0  0  0  0
    0.6850    1.5540   -0.5378 H   0  0  0  0  0  0  0  0  0  0  0  0
  1  2  1  0
  2  3  1  0
  3  4  1  0
  4  5  2  0
  5  6  1  0
  6  7  1  0
  7  8  2  3
  8  9  1  0
  9 10  2  0
  9 11  1  0
 11 12  2  0
 12 13  1  0
 13 14  2  0
 14 15  1  0
 15 16  2  0
  6 17  2  0
 17 18  1  0
 17  3  1  0
 16 11  1  0
  1 19  1  0
  1 20  1  0
  1 21  1  0
  2 22  1  0
  2 23  1  0
  5 24  1  0
  7 25  1  0
  8 26  1  0
 12 27  1  0
 13 28  1  0
 14 29  1  0
 15 30  1  0
 16 31  1  0
 18 32  1  0
 18 33  1  0
 18 34  1  0
M  END
$$$$
