
     RDKit          3D

 51 55  0  0  0  0  0  0  0  0999 V2000
    9.2840   -0.6725    1.5332 F   0  0  0  0  0  0  0  0  0  0  0  0
    8.0435   -0.2868    1.2065 C   0  0  0  0  0  0  0  0  0  0  0  0
    7.3993    0.6721    1.9786 C   0  0  0  0  0  0  0  0  0  0  0  0
    6.1066    1.0738    1.6400 C   0  0  0  0  0  0  0  0  0  0  0  0
    5.4612    0.5171    0.5251 C   0  0  0  0  0  0  0  0  0  0  0  0
    4.0531    0.9373    0.1692 C   0  0  0  0  0  0  0  0  0  0  0  0
    3.0067    0.0184    0.8222 C   0  0  0  0  0  0  0  0  0  0  0  0
    1.6187    0.4707    0.6092 N   0  0  0  0  0  0  0  0  0  0  0  0
    1.1948    0.3260   -0.8037 C   0  0  0  0  0  0  0  0  0  0  0  0
   -0.2850    0.7065   -1.0321 C   0  0  0  0  0  0  0  0  0  0  0  0
   -1.1706   -0.0861   -0.1547 N   0  0  0  0  0  0  0  0  0  0  0  0
   -2.5323   -0.0942   -0.4520 C   0  0  0  0  0  0  0  0  0  0  0  0
   -3.0344    0.8669   -1.1859 N   0  0  0  0  0  0  0  0  0  0  0  0
   -4.4127    0.9008   -1.4770 C   0  0  0  0  0  0  0  0  0  0  0  0
   -4.9013    1.9565   -2.2490 C   0  0  0  0  0  0  0  0  0  0  0  0
   -6.2610    2.0439   -2.5599 C   0  0  0  0  0  0  0  0  0  0  0  0
   -7.1490    1.0713   -2.0985 C   0  0  0  0  0  0  0  0  0  0  0  0
   -6.6834    0.0070   -1.3255 C   0  0  0  0  0  0  0  0  0  0  0  0
   -5.3206   -0.0665   -1.0222 C   0  0  0  0  0  0  0  0  0  0  0  0
   -4.7661   -1.1079   -0.2610 N   0  0  0  0  0  0  0  0  0  0  0  0
   -5.3757   -2.2050    0.3006 C   0  0  0  0  0  0  0  0  0  0  0  0
   -4.4040   -2.9786    0.8984 C   0  0  0  0  0  0  0  0  0  0  0  0
   -3.1669   -2.3217    0.7036 C   0  0  0  0  0  0  0  0  0  0  0  0
   -3.4180   -1.1489    0.0139 C   0  0  0  0  0  0  0  0  0  0  0  0
   -0.7846    0.0726    1.2614 C   0  0  0  0  0  0  0  0  0  0  0  0
    0.6955   -0.3123    1.4653 C   0  0  0  0  0  0  0  0  0  0  0  0
    6.1268   -0.4537   -0.2393 C   0  0  0  0  0  0  0  0  0  0  0  0
    7.4195   -0.8535    0.1018 C   0  0  0  0  0  0  0  0  0  0  0  0
    7.9061    1.0995    2.8376 H   0  0  0  0  0  0  0  0  0  0  0  0
    5.6050    1.8231    2.2490 H   0  0  0  0  0  0  0  0  0  0  0  0
    3.9553    0.9338   -0.9227 H   0  0  0  0  0  0  0  0  0  0  0  0
    3.8934    1.9761    0.4861 H   0  0  0  0  0  0  0  0  0  0  0  0
    3.1375   -1.0138    0.4700 H   0  0  0  0  0  0  0  0  0  0  0  0
    3.2061    0.0038    1.9024 H   0  0  0  0  0  0  0  0  0  0  0  0
    1.8004    0.9748   -1.4452 H   0  0  0  0  0  0  0  0  0  0  0  0
    1.3498   -0.7085   -1.1385 H   0  0  0  0  0  0  0  0  0  0  0  0
   -0.5291    0.5125   -2.0837 H   0  0  0  0  0  0  0  0  0  0  0  0
   -0.4286    1.7783   -0.8436 H   0  0  0  0  0  0  0  0  0  0  0  0
   -4.2125    2.7165   -2.6081 H   0  0  0  0  0  0  0  0  0  0  0  0
   -6.6250    2.8725   -3.1620 H   0  0  0  0  0  0  0  0  0  0  0  0
   -8.2059    1.1435   -2.3436 H   0  0  0  0  0  0  0  0  0  0  0  0
   -7.3919   -0.7383   -0.9801 H   0  0  0  0  0  0  0  0  0  0  0  0
   -6.4409   -2.3668    0.2232 H   0  0  0  0  0  0  0  0  0  0  0  0
   -4.5693   -3.9187    1.4089 H   0  0  0  0  0  0  0  0  0  0  0  0
   -2.1942   -2.6662    1.0285 H   0  0  0  0  0  0  0  0  0  0  0  0
   -1.3975   -0.5556    1.9150 H   0  0  0  0  0  0  0  0  0  0  0  0
   -0.9480    1.1130    1.5710 H   0  0  0  0  0  0  0  0  0  0  0  0
    0.9467   -0.1439    2.5194 H   0  0  0  0  0  0  0  0  0  0  0  0
    0.8138   -1.3859    1.2653 H   0  0  0  0  0  0  0  0  0  0  0  0
    5.6423   -0.9016   -1.1042 H   0  0  0  0  0  0  0  0  0  0  0  0
    7.9425   -1.6014   -0.4853 H   0  0  0  0  0  0  0  0  0  0  0  0
  1  2  1  0
  2  3  2  0
  3  4  1  0
  4  5  2  0
  5  6  1  0
  6  7  1  0
  7  8  1  0
  8  9  1  0
  9 10  1  0
 10 11  1  0
 11 12  1  0
 12 13  2  0
 13 14  1  0
 14 15  2  0
 15 16  1  0
 16 17  2  0
 17 18  1  0
 18 19  2  0
 19 20  1  0
 20 21  1  0
 21 22  2  0
 22 23  1  0
 23 24  2  0
 11 25  1  0
 25 26  1  0
  5 27  1  0
 27 28  2  0
 28  2  1  0
 26  8  1  0
 24 12  1  0
 19 14  1  0
 24 20  1  0
  3 29  1  0
  4 30  1  0
  6 31  1  0
  6 32  1  0
  7 33  1  0
  7 34  1  0
  9 35  1  0
  9 36  1  0
 10 37  1  0
 10 38  1  0
 15 39  1  0
 16 40  1  0
 17 41  1  0
 18 42  1  0
 21 43  1  0
 22 44  1  0
 23 45  1  0
 25 46  1  0
 25 47  1  0
 26 48  1  0
 26 49  1  0
 27 50  1  0
 28 51  1  0
M  END
$$$$
