
     RDKit          3D

 45 48  0  0  0  0  0  0  0  0999 V2000
    3.3883   -3.8395   -0.2817 C   0  0  0  0  0  0  0  0  0  0  0  0
    2.9086   -2.7731    0.6941 C   0  0  0  0  0  0  0  0  0  0  0  0
    3.2865   -1.4933    0.1703 O   0  0  0  0  0  0  0  0  0  0  0  0
    2.9708   -0.4993    1.0642 C   0  0  0  0  0  0  0  0  0  0  0  0
    3.9154   -0.2393    2.0694 C   0  0  0  0  0  0  0  0  0  0  0  0
    3.6870    0.7613    3.0096 C   0  0  0  0  0  0  0  0  0  0  0  0
    2.5206    1.5128    2.9389 C   0  0  0  0  0  0  0  0  0  0  0  0
    1.5907    1.2676    1.9211 C   0  0  0  0  0  0  0  0  0  0  0  0
    1.7902    0.2638    0.9437 C   0  0  0  0  0  0  0  0  0  0  0  0
    0.7867    0.0757   -0.1293 C   0  0  0  0  0  0  0  0  0  0  0  0
    1.1577   -0.5658   -1.2553 N   0  0  0  0  0  0  0  0  0  0  0  0
    0.2305   -0.6801   -2.2359 C   0  0  0  0  0  0  0  0  0  0  0  0
    0.6561   -1.3919   -3.4762 C   0  0  0  0  0  0  0  0  0  0  0  0
    1.9621   -1.8133   -3.4952 N   0  0  0  0  0  0  0  0  0  0  0  0
   -0.1071   -1.5926   -4.4129 O   0  0  0  0  0  0  0  0  0  0  0  0
   -1.0255   -0.1759   -2.1014 C   0  0  0  0  0  0  0  0  0  0  0  0
   -2.1232   -0.1348   -2.9487 N   0  0  0  0  0  0  0  0  0  0  0  0
   -3.1663    0.5424   -2.2978 C   0  0  0  0  0  0  0  0  0  0  0  0
   -4.2655    0.7268   -2.7999 O   0  0  0  0  0  0  0  0  0  0  0  0
   -2.6649    0.8992   -1.0082 N   0  0  0  0  0  0  0  0  0  0  0  0
   -3.3665    1.5905    0.0099 C   0  0  0  0  0  0  0  0  0  0  0  0
   -4.5355    2.3067   -0.2946 C   0  0  0  0  0  0  0  0  0  0  0  0
   -5.2553    2.9932    0.6916 C   0  0  0  0  0  0  0  0  0  0  0  0
   -4.8243    2.9640    2.0143 C   0  0  0  0  0  0  0  0  0  0  0  0
   -3.6700    2.2618    2.3428 C   0  0  0  0  0  0  0  0  0  0  0  0
   -2.9516    1.5812    1.3518 C   0  0  0  0  0  0  0  0  0  0  0  0
   -1.3258    0.4444   -0.9160 C   0  0  0  0  0  0  0  0  0  0  0  0
   -0.4445    0.5947    0.0798 N   0  0  0  0  0  0  0  0  0  0  0  0
    2.9238   -3.7023   -1.2676 H   0  0  0  0  0  0  0  0  0  0  0  0
    3.1386   -4.8396    0.0824 H   0  0  0  0  0  0  0  0  0  0  0  0
    4.4761   -3.7783   -0.4246 H   0  0  0  0  0  0  0  0  0  0  0  0
    3.3692   -2.9475    1.6725 H   0  0  0  0  0  0  0  0  0  0  0  0
    1.8189   -2.8306    0.7891 H   0  0  0  0  0  0  0  0  0  0  0  0
    4.8340   -0.8200    2.1124 H   0  0  0  0  0  0  0  0  0  0  0  0
    4.4198    0.9592    3.7883 H   0  0  0  0  0  0  0  0  0  0  0  0
    2.3338    2.3017    3.6640 H   0  0  0  0  0  0  0  0  0  0  0  0
    0.6960    1.8896    1.8847 H   0  0  0  0  0  0  0  0  0  0  0  0
    2.3080   -2.3295   -4.2944 H   0  0  0  0  0  0  0  0  0  0  0  0
    2.5658   -1.6456   -2.6976 H   0  0  0  0  0  0  0  0  0  0  0  0
   -2.1657   -0.5175   -3.8857 H   0  0  0  0  0  0  0  0  0  0  0  0
   -4.9113    2.3769   -1.3139 H   0  0  0  0  0  0  0  0  0  0  0  0
   -6.1480    3.5500    0.4176 H   0  0  0  0  0  0  0  0  0  0  0  0
   -5.3784    3.4942    2.7777 H   0  0  0  0  0  0  0  0  0  0  0  0
   -3.3241    2.2327    3.3709 H   0  0  0  0  0  0  0  0  0  0  0  0
   -2.0816    1.0193    1.6756 H   0  0  0  0  0  0  0  0  0  0  0  0
  1  2  1  0
  2  3  1  0
  3  4  1  0
  4  5  2  0
  5  6  1  0
  6  7  2  0
  7  8  1  0
  8  9  2  0
  9 10  1  0
 10 11  2  0
 11 12  1  0
 12 13  1  0
 13 14  1  0
 13 15  2  0
 12 16  2  0
 16 17  1  0
 17 18  1  0
 18 19  2  0
 18 20  1  0
 20 21  1  0
 21 22  2  0
 22 23  1  0
 23 24  2  0
 24 25  1  0
 25 26  2  0
 20 27  1  0
 27 28  2  0
  9  4  1  0
 28 10  1  0
 27 16  1  0
 26 21  1  0
  1 29  1  0
  1 30  1  0
  1 31  1  0
  2 32  1  0
  2 33  1  0
  5 34  1  0
  6 35  1  0
  7 36  1  0
  8 37  1  0
 14 38  1  0
 14 39  1  0
 17 40  1  0
 22 41  1  0
 23 42  1  0
 24 43  1  0
 25 44  1  0
 26 45  1  0
M  END
$$$$
