
     RDKit          3D

 56 59  0  0  0  0  0  0  0  0999 V2000
    9.7712   -0.1451    1.3328 C   0  0  0  0  0  0  0  0  0  0  0  0
    8.6131    0.5844    1.7192 O   0  0  0  0  0  0  0  0  0  0  0  0
    7.4323    0.2339    1.1252 C   0  0  0  0  0  0  0  0  0  0  0  0
    6.3385    1.0248    1.4946 C   0  0  0  0  0  0  0  0  0  0  0  0
    5.0704    0.7793    0.9663 C   0  0  0  0  0  0  0  0  0  0  0  0
    4.8984   -0.2743    0.0670 C   0  0  0  0  0  0  0  0  0  0  0  0
    3.2816   -0.5856   -0.5979 S   0  0  0  0  0  6  0  0  0  0  0  0
    3.3800   -1.6804   -1.5390 O   0  0  0  0  0  0  0  0  0  0  0  0
    2.7207    0.6907   -0.9795 O   0  0  0  0  0  0  0  0  0  0  0  0
    2.4411   -1.1447    0.7560 N   0  0  0  0  0  0  0  0  0  0  0  0
    2.9070   -2.3944    1.3720 C   0  0  0  0  0  0  0  0  0  0  0  0
    1.7039   -2.7916    2.1923 C   0  0  0  0  0  0  0  0  0  0  0  0
    0.5810   -2.4349    1.3839 O   0  0  0  0  0  0  0  0  0  0  0  0
    0.9904   -1.3417    0.5235 C   0  0  0  0  0  0  0  0  0  0  0  0
    0.1901   -0.0802    0.9147 C   0  0  0  0  0  0  0  0  0  0  0  0
   -1.2497   -0.2720    0.8757 N   0  0  0  0  0  0  0  0  0  0  0  0
   -1.9250   -0.4244   -0.3119 C   0  0  0  0  0  0  0  0  0  0  0  0
   -1.4478   -0.2901   -1.4295 O   0  0  0  0  0  0  0  0  0  0  0  0
   -3.4085   -0.8239   -0.1408 C   0  0  0  0  0  0  0  0  0  0  0  0
   -3.8684   -1.0137    0.9764 O   0  0  0  0  0  0  0  0  0  0  0  0
   -4.0865   -0.9241   -1.3317 N   0  0  0  0  0  0  0  0  0  0  0  0
   -5.5095   -1.1258   -1.3958 C   0  0  0  0  0  0  0  0  0  0  0  0
   -6.2283    0.1858   -1.5817 C   0  0  0  0  0  0  0  0  0  0  0  0
   -6.5321    0.6577   -2.8801 C   0  0  0  0  0  0  0  0  0  0  0  0
   -7.1771    1.8847   -3.0669 C   0  0  0  0  0  0  0  0  0  0  0  0
   -7.4974    2.6180   -1.9456 C   0  0  0  0  0  0  0  0  0  0  0  0
   -7.1980    2.1734   -0.6798 C   0  0  0  0  0  0  0  0  0  0  0  0
   -6.5635    0.9686   -0.4637 C   0  0  0  0  0  0  0  0  0  0  0  0
   -7.5931    3.0476    0.2840 O   0  0  0  0  0  0  0  0  0  0  0  0
   -8.1727    4.0946   -0.5211 C   0  0  0  0  0  0  0  0  0  0  0  0
   -8.1199    3.8269   -1.9379 O   0  0  0  0  0  0  0  0  0  0  0  0
    5.9819   -1.0675   -0.3171 C   0  0  0  0  0  0  0  0  0  0  0  0
    7.2495   -0.8120    0.2167 C   0  0  0  0  0  0  0  0  0  0  0  0
   10.6256    0.2730    1.8736 H   0  0  0  0  0  0  0  0  0  0  0  0
    9.9688   -0.0351    0.2613 H   0  0  0  0  0  0  0  0  0  0  0  0
    9.6835   -1.2000    1.6131 H   0  0  0  0  0  0  0  0  0  0  0  0
    6.4808    1.8441    2.1962 H   0  0  0  0  0  0  0  0  0  0  0  0
    4.2307    1.4077    1.2540 H   0  0  0  0  0  0  0  0  0  0  0  0
    3.1086   -3.1550    0.6104 H   0  0  0  0  0  0  0  0  0  0  0  0
    3.7909   -2.2496    1.9970 H   0  0  0  0  0  0  0  0  0  0  0  0
    1.6782   -3.8594    2.4249 H   0  0  0  0  0  0  0  0  0  0  0  0
    1.6463   -2.2217    3.1264 H   0  0  0  0  0  0  0  0  0  0  0  0
    0.7731   -1.6552   -0.5029 H   0  0  0  0  0  0  0  0  0  0  0  0
    0.4390    0.7557    0.2539 H   0  0  0  0  0  0  0  0  0  0  0  0
    0.4286    0.2159    1.9425 H   0  0  0  0  0  0  0  0  0  0  0  0
   -1.7361   -0.5945    1.7086 H   0  0  0  0  0  0  0  0  0  0  0  0
   -3.5796   -0.6345   -2.1633 H   0  0  0  0  0  0  0  0  0  0  0  0
   -5.7105   -1.7937   -2.2406 H   0  0  0  0  0  0  0  0  0  0  0  0
   -5.8664   -1.6300   -0.4905 H   0  0  0  0  0  0  0  0  0  0  0  0
   -6.2630    0.0658   -3.7529 H   0  0  0  0  0  0  0  0  0  0  0  0
   -7.4143    2.2509   -4.0593 H   0  0  0  0  0  0  0  0  0  0  0  0
   -6.3276    0.6435    0.5453 H   0  0  0  0  0  0  0  0  0  0  0  0
   -7.6355    5.0289   -0.3208 H   0  0  0  0  0  0  0  0  0  0  0  0
   -9.2210    4.2226   -0.2278 H   0  0  0  0  0  0  0  0  0  0  0  0
    5.8536   -1.8795   -1.0298 H   0  0  0  0  0  0  0  0  0  0  0  0
    8.0728   -1.4446   -0.0995 H   0  0  0  0  0  0  0  0  0  0  0  0
  1  2  1  0
  2  3  1  0
  3  4  2  0
  4  5  1  0
  5  6  2  0
  6  7  1  0
  7  8  2  0
  7  9  2  0
  7 10  1  0
 10 11  1  0
 11 12  1  0
 12 13  1  0
 13 14  1  0
 14 15  1  0
 15 16  1  0
 16 17  1  0
 17 18  2  0
 17 19  1  0
 19 20  2  0
 19 21  1  0
 21 22  1  0
 22 23  1  0
 23 24  2  0
 24 25  1  0
 25 26  2  0
 26 27  1  0
 27 28  2  0
 27 29  1  0
 29 30  1  0
 30 31  1  0
  6 32  1  0
 32 33  2  0
 33  3  1  0
 14 10  1  0
 28 23  1  0
 31 26  1  0
  1 34  1  0
  1 35  1  0
  1 36  1  0
  4 37  1  0
  5 38  1  0
 11 39  1  0
 11 40  1  0
 12 41  1  0
 12 42  1  0
 14 43  1  0
 15 44  1  0
 15 45  1  0
 16 46  1  0
 21 47  1  0
 22 48  1  0
 22 49  1  0
 24 50  1  0
 25 51  1  0
 28 52  1  0
 30 53  1  0
 30 54  1  0
 32 55  1  0
 33 56  1  0
M  END
$$$$
