
     RDKit          3D

 50 52  0  0  0  0  0  0  0  0999 V2000
   -3.1142   -2.9763    1.2024 C   0  0  0  0  0  0  0  0  0  0  0  0
   -3.8069   -1.8841    0.6112 O   0  0  0  0  0  0  0  0  0  0  0  0
   -3.0449   -0.9357   -0.0171 C   0  0  0  0  0  0  0  0  0  0  0  0
   -1.7136   -1.0978   -0.4054 C   0  0  0  0  0  0  0  0  0  0  0  0
   -1.0519   -0.0589   -1.0771 C   0  0  0  0  0  0  0  0  0  0  0  0
    0.3567   -0.2566   -1.4755 C   0  0  0  0  0  0  0  0  0  0  0  0
    1.0121    0.6496   -2.1269 N   0  0  0  0  0  0  0  0  0  0  0  0
    2.3025    0.3358   -2.4231 N   0  0  0  0  0  0  0  0  0  0  0  0
    3.1290    1.2674   -3.0331 C   0  0  0  0  0  0  0  0  0  0  0  0
    2.7927    2.3876   -3.4113 O   0  0  0  0  0  0  0  0  0  0  0  0
    4.5550    0.7517   -3.2376 C   0  0  0  0  0  0  0  0  0  0  0  0
    4.9048   -0.3932   -2.4666 O   0  0  0  0  0  0  0  0  0  0  0  0
    5.3137   -0.1944   -1.1760 C   0  0  0  0  0  0  0  0  0  0  0  0
    5.8423   -1.3274   -0.5538 C   0  0  0  0  0  0  0  0  0  0  0  0
    6.2778   -1.2750    0.7724 C   0  0  0  0  0  0  0  0  0  0  0  0
    6.1738   -0.0873    1.5018 C   0  0  0  0  0  0  0  0  0  0  0  0
    6.6695   -0.0142    2.9155 C   0  0  0  0  0  0  0  0  0  0  0  0
    5.6514    1.0486    0.8737 C   0  0  0  0  0  0  0  0  0  0  0  0
    5.2172    0.9956   -0.4558 C   0  0  0  0  0  0  0  0  0  0  0  0
   -1.7114    1.1400   -1.3725 C   0  0  0  0  0  0  0  0  0  0  0  0
   -3.0399    1.3093   -0.9912 C   0  0  0  0  0  0  0  0  0  0  0  0
   -3.6851    0.2790   -0.3073 C   0  0  0  0  0  0  0  0  0  0  0  0
   -5.0280    0.4690    0.0386 O   0  0  0  0  0  0  0  0  0  0  0  0
   -5.2161    0.7297    1.3959 C   0  0  0  0  0  0  0  0  0  0  0  0
   -4.3164    0.9168    2.2097 O   0  0  0  0  0  0  0  0  0  0  0  0
   -6.6429    0.7687    1.6744 C   0  0  0  0  0  0  0  0  0  0  0  0
   -7.7163    0.5537    0.8260 C   0  0  0  0  0  0  0  0  0  0  0  0
   -8.9731    0.6842    1.4865 C   0  0  0  0  0  0  0  0  0  0  0  0
   -8.8233    0.9932    2.8189 C   0  0  0  0  0  0  0  0  0  0  0  0
   -7.1790    1.1225    3.2661 S   0  0  0  0  0  0  0  0  0  0  0  0
   -2.7035   -3.6387    0.4337 H   0  0  0  0  0  0  0  0  0  0  0  0
   -3.8371   -3.5531    1.7872 H   0  0  0  0  0  0  0  0  0  0  0  0
   -2.3313   -2.6309    1.8860 H   0  0  0  0  0  0  0  0  0  0  0  0
   -1.1819   -2.0219   -0.2081 H   0  0  0  0  0  0  0  0  0  0  0  0
    0.8237   -1.2167   -1.1902 H   0  0  0  0  0  0  0  0  0  0  0  0
    2.7129   -0.5282   -2.0784 H   0  0  0  0  0  0  0  0  0  0  0  0
    4.6249    0.4530   -4.2900 H   0  0  0  0  0  0  0  0  0  0  0  0
    5.2738    1.5671   -3.0940 H   0  0  0  0  0  0  0  0  0  0  0  0
    5.9262   -2.2596   -1.1072 H   0  0  0  0  0  0  0  0  0  0  0  0
    6.6984   -2.1675    1.2301 H   0  0  0  0  0  0  0  0  0  0  0  0
    6.5706   -0.9837    3.4151 H   0  0  0  0  0  0  0  0  0  0  0  0
    7.7222    0.2843    2.9280 H   0  0  0  0  0  0  0  0  0  0  0  0
    6.0885    0.7103    3.4957 H   0  0  0  0  0  0  0  0  0  0  0  0
    5.5737    1.9881    1.4178 H   0  0  0  0  0  0  0  0  0  0  0  0
    4.8043    1.9036   -0.8846 H   0  0  0  0  0  0  0  0  0  0  0  0
   -1.1945    1.9410   -1.8983 H   0  0  0  0  0  0  0  0  0  0  0  0
   -3.5602    2.2347   -1.2186 H   0  0  0  0  0  0  0  0  0  0  0  0
   -7.6093    0.3111   -0.2253 H   0  0  0  0  0  0  0  0  0  0  0  0
   -9.9368    0.5567    1.0082 H   0  0  0  0  0  0  0  0  0  0  0  0
   -9.6001    1.1489    3.5553 H   0  0  0  0  0  0  0  0  0  0  0  0
  1  2  1  0
  2  3  1  0
  3  4  2  0
  4  5  1  0
  5  6  1  0
  6  7  2  3
  7  8  1  0
  8  9  1  0
  9 10  2  0
  9 11  1  0
 11 12  1  0
 12 13  1  0
 13 14  2  0
 14 15  1  0
 15 16  2  0
 16 17  1  0
 16 18  1  0
 18 19  2  0
  5 20  2  0
 20 21  1  0
 21 22  2  0
 22 23  1  0
 23 24  1  0
 24 25  2  0
 24 26  1  0
 26 27  2  0
 27 28  1  0
 28 29  2  0
 29 30  1  0
 22  3  1  0
 30 26  1  0
 19 13  1  0
  1 31  1  0
  1 32  1  0
  1 33  1  0
  4 34  1  0
  6 35  1  0
  8 36  1  0
 11 37  1  0
 11 38  1  0
 14 39  1  0
 15 40  1  0
 17 41  1  0
 17 42  1  0
 17 43  1  0
 18 44  1  0
 19 45  1  0
 20 46  1  0
 21 47  1  0
 27 48  1  0
 28 49  1  0
 29 50  1  0
M  END
$$$$
