
     RDKit          3D

 38 39  0  0  0  0  0  0  0  0999 V2000
   -4.4821    1.8153    2.3998 C   0  0  0  0  0  0  0  0  0  0  0  0
   -3.6064    1.3502    1.3789 O   0  0  0  0  0  0  0  0  0  0  0  0
   -4.1194    0.5063    0.4308 C   0  0  0  0  0  0  0  0  0  0  0  0
   -5.4469    0.0565    0.4215 C   0  0  0  0  0  0  0  0  0  0  0  0
   -5.9149   -0.7734   -0.6025 C   0  0  0  0  0  0  0  0  0  0  0  0
   -5.0661   -1.1611   -1.6334 C   0  0  0  0  0  0  0  0  0  0  0  0
   -3.7432   -0.7259   -1.6363 C   0  0  0  0  0  0  0  0  0  0  0  0
   -3.2601    0.0956   -0.6038 C   0  0  0  0  0  0  0  0  0  0  0  0
   -1.8270    0.4949   -0.6886 C   0  0  0  0  0  0  0  0  0  0  0  0
   -1.3166    0.6488   -1.7999 O   0  0  0  0  0  0  0  0  0  0  0  0
   -1.0286    0.6542    0.6022 C   0  0  0  0  0  0  0  0  0  0  0  0
    0.3731    0.4535    0.3936 O   0  0  0  0  0  0  0  0  0  0  0  0
    0.7188   -0.8384    0.1801 C   0  0  0  0  0  0  0  0  0  0  0  0
   -0.0340   -1.8007    0.2336 O   0  0  0  0  0  0  0  0  0  0  0  0
    2.1588   -0.9873   -0.1132 C   0  0  0  0  0  0  0  0  0  0  0  0
    3.0218    0.0359   -0.2118 C   0  0  0  0  0  0  0  0  0  0  0  0
    4.4531   -0.1327   -0.4975 C   0  0  0  0  0  0  0  0  0  0  0  0
    5.3735    0.7112    0.1376 C   0  0  0  0  0  0  0  0  0  0  0  0
    6.7411    0.5997   -0.1259 C   0  0  0  0  0  0  0  0  0  0  0  0
    7.2009   -0.3491   -1.0363 C   0  0  0  0  0  0  0  0  0  0  0  0
    6.2940   -1.1825   -1.6875 C   0  0  0  0  0  0  0  0  0  0  0  0
    4.9262   -1.0718   -1.4236 C   0  0  0  0  0  0  0  0  0  0  0  0
   -3.9098    2.4844    3.0495 H   0  0  0  0  0  0  0  0  0  0  0  0
   -4.8455    0.9856    3.0148 H   0  0  0  0  0  0  0  0  0  0  0  0
   -5.3115    2.3916    1.9768 H   0  0  0  0  0  0  0  0  0  0  0  0
   -6.1534    0.3372    1.1963 H   0  0  0  0  0  0  0  0  0  0  0  0
   -6.9485   -1.1124   -0.5963 H   0  0  0  0  0  0  0  0  0  0  0  0
   -5.4298   -1.8016   -2.4330 H   0  0  0  0  0  0  0  0  0  0  0  0
   -3.0804   -1.0352   -2.4433 H   0  0  0  0  0  0  0  0  0  0  0  0
   -1.3863   -0.0246    1.3843 H   0  0  0  0  0  0  0  0  0  0  0  0
   -1.1446    1.6852    0.9498 H   0  0  0  0  0  0  0  0  0  0  0  0
    2.4719   -2.0175   -0.2414 H   0  0  0  0  0  0  0  0  0  0  0  0
    2.6909    1.0614   -0.0637 H   0  0  0  0  0  0  0  0  0  0  0  0
    5.0344    1.4597    0.8504 H   0  0  0  0  0  0  0  0  0  0  0  0
    7.4458    1.2557    0.3784 H   0  0  0  0  0  0  0  0  0  0  0  0
    8.2644   -0.4346   -1.2434 H   0  0  0  0  0  0  0  0  0  0  0  0
    6.6493   -1.9155   -2.4071 H   0  0  0  0  0  0  0  0  0  0  0  0
    4.2371   -1.7187   -1.9612 H   0  0  0  0  0  0  0  0  0  0  0  0
  1  2  1  0
  2  3  1  0
  3  4  2  0
  4  5  1  0
  5  6  2  0
  6  7  1  0
  7  8  2  0
  8  9  1  0
  9 10  2  0
  9 11  1  0
 11 12  1  0
 12 13  1  0
 13 14  2  0
 13 15  1  0
 15 16  2  3
 16 17  1  0
 17 18  2  0
 18 19  1  0
 19 20  2  0
 20 21  1  0
 21 22  2  0
  8  3  1  0
 22 17  1  0
  1 23  1  0
  1 24  1  0
  1 25  1  0
  4 26  1  0
  5 27  1  0
  6 28  1  0
  7 29  1  0
 11 30  1  0
 11 31  1  0
 15 32  1  0
 16 33  1  0
 18 34  1  0
 19 35  1  0
 20 36  1  0
 21 37  1  0
 22 38  1  0
M  END
$$$$
