
     RDKit          3D

 59 62  0  0  0  0  0  0  0  0999 V2000
   -7.6383    2.9906   -1.5466 C   0  0  0  0  0  0  0  0  0  0  0  0
   -6.8963    2.2816   -2.5387 O   0  0  0  0  0  0  0  0  0  0  0  0
   -5.8334    1.5562   -2.0663 C   0  0  0  0  0  0  0  0  0  0  0  0
   -5.0727    1.8946   -0.9480 C   0  0  0  0  0  0  0  0  0  0  0  0
   -3.9952    1.0905   -0.5615 C   0  0  0  0  0  0  0  0  0  0  0  0
   -3.6745   -0.0656   -1.2788 C   0  0  0  0  0  0  0  0  0  0  0  0
   -2.5724   -0.9268   -0.8698 C   0  0  0  0  0  0  0  0  0  0  0  0
   -1.4272   -1.2803   -1.5600 C   0  0  0  0  0  0  0  0  0  0  0  0
   -0.6561   -2.1594   -0.8480 N   0  0  0  0  0  0  0  0  0  0  0  0
   -1.3196   -2.3650    0.2663 C   0  0  0  0  0  0  0  0  0  0  0  0
   -0.8019   -3.4457    1.5197 S   0  0  0  0  0  0  0  0  0  0  0  0
    0.9797   -3.4943    1.1807 C   0  0  0  0  0  0  0  0  0  0  0  0
    1.6378   -2.1373    1.4283 C   0  0  0  0  0  0  0  0  0  0  0  0
    1.2987   -1.4154    2.3648 O   0  0  0  0  0  0  0  0  0  0  0  0
    2.6685   -1.8964    0.5394 N   0  0  0  0  0  0  0  0  0  0  0  0
    3.5002   -0.8076    0.5100 C   0  0  0  0  0  0  0  0  0  0  0  0
    4.5471   -0.7878   -0.2816 N   0  0  0  0  0  0  0  0  0  0  0  0
    5.2706    0.3887   -0.0945 C   0  0  0  0  0  0  0  0  0  0  0  0
    6.5723    0.5644   -0.8651 C   0  0  0  0  0  0  0  0  0  0  0  0
    7.4247    1.7251   -0.3104 C   0  0  0  0  0  0  0  0  0  0  0  0
    7.4169   -0.7215   -0.7640 C   0  0  0  0  0  0  0  0  0  0  0  0
    6.2646    0.8481   -2.3457 C   0  0  0  0  0  0  0  0  0  0  0  0
    4.6795    1.2693    0.7929 C   0  0  0  0  0  0  0  0  0  0  0  0
    3.2503    0.5878    1.4452 S   0  0  0  0  0  0  0  0  0  0  0  0
   -2.4743   -1.6252    0.3259 N   0  0  0  0  0  0  0  0  0  0  0  0
   -3.4471   -1.6204    1.4087 C   0  0  0  0  0  0  0  0  0  0  0  0
   -3.1754   -0.5410    2.3908 C   0  0  0  0  0  0  0  0  0  0  0  0
   -2.0310    0.0374    2.9039 C   0  0  0  0  0  0  0  0  0  0  0  0
   -2.4553    1.0444    3.8024 C   0  0  0  0  0  0  0  0  0  0  0  0
   -3.8282    1.0137    3.7907 C   0  0  0  0  0  0  0  0  0  0  0  0
   -4.2753    0.0538    2.9425 O   0  0  0  0  0  0  0  0  0  0  0  0
   -4.4237   -0.3836   -2.4172 C   0  0  0  0  0  0  0  0  0  0  0  0
   -5.4925    0.4277   -2.8115 C   0  0  0  0  0  0  0  0  0  0  0  0
   -7.8880    2.3413   -0.6992 H   0  0  0  0  0  0  0  0  0  0  0  0
   -7.1005    3.8839   -1.2177 H   0  0  0  0  0  0  0  0  0  0  0  0
   -8.5790    3.3193   -2.0043 H   0  0  0  0  0  0  0  0  0  0  0  0
   -5.2787    2.7891   -0.3730 H   0  0  0  0  0  0  0  0  0  0  0  0
   -3.4035    1.3889    0.3004 H   0  0  0  0  0  0  0  0  0  0  0  0
   -1.1215   -0.9355   -2.5417 H   0  0  0  0  0  0  0  0  0  0  0  0
    1.4514   -4.2213    1.8531 H   0  0  0  0  0  0  0  0  0  0  0  0
    1.1442   -3.8386    0.1544 H   0  0  0  0  0  0  0  0  0  0  0  0
    2.9301   -2.6049   -0.1336 H   0  0  0  0  0  0  0  0  0  0  0  0
    6.9178    2.6895   -0.4220 H   0  0  0  0  0  0  0  0  0  0  0  0
    7.6388    1.5840    0.7573 H   0  0  0  0  0  0  0  0  0  0  0  0
    8.3866    1.8002   -0.8315 H   0  0  0  0  0  0  0  0  0  0  0  0
    8.3838   -0.6067   -1.2658 H   0  0  0  0  0  0  0  0  0  0  0  0
    6.9066   -1.5748   -1.2252 H   0  0  0  0  0  0  0  0  0  0  0  0
    7.6110   -0.9848    0.2831 H   0  0  0  0  0  0  0  0  0  0  0  0
    5.7041    0.0226   -2.8048 H   0  0  0  0  0  0  0  0  0  0  0  0
    5.6599    1.7561   -2.4568 H   0  0  0  0  0  0  0  0  0  0  0  0
    7.1878    0.9857   -2.9206 H   0  0  0  0  0  0  0  0  0  0  0  0
    5.0124    2.2496    1.1057 H   0  0  0  0  0  0  0  0  0  0  0  0
   -3.4413   -2.5984    1.8991 H   0  0  0  0  0  0  0  0  0  0  0  0
   -4.4403   -1.5039    0.9618 H   0  0  0  0  0  0  0  0  0  0  0  0
   -1.0115   -0.2293    2.6582 H   0  0  0  0  0  0  0  0  0  0  0  0
   -1.8337    1.7063    4.3862 H   0  0  0  0  0  0  0  0  0  0  0  0
   -4.5938    1.5795    4.3033 H   0  0  0  0  0  0  0  0  0  0  0  0
   -4.1920   -1.2692   -3.0044 H   0  0  0  0  0  0  0  0  0  0  0  0
   -6.0710    0.1711   -3.6959 H   0  0  0  0  0  0  0  0  0  0  0  0
  1  2  1  0
  2  3  1  0
  3  4  2  0
  4  5  1  0
  5  6  2  0
  6  7  1  0
  7  8  2  0
  8  9  1  0
  9 10  2  0
 10 11  1  0
 11 12  1  0
 12 13  1  0
 13 14  2  0
 13 15  1  0
 15 16  1  0
 16 17  2  0
 17 18  1  0
 18 19  1  0
 19 20  1  0
 19 21  1  0
 19 22  1  0
 18 23  2  0
 23 24  1  0
 10 25  1  0
 25 26  1  0
 26 27  1  0
 27 28  2  0
 28 29  1  0
 29 30  2  0
 30 31  1  0
  6 32  1  0
 32 33  2  0
 33  3  1  0
 25  7  1  0
 31 27  1  0
 24 16  1  0
  1 34  1  0
  1 35  1  0
  1 36  1  0
  4 37  1  0
  5 38  1  0
  8 39  1  0
 12 40  1  0
 12 41  1  0
 15 42  1  0
 20 43  1  0
 20 44  1  0
 20 45  1  0
 21 46  1  0
 21 47  1  0
 21 48  1  0
 22 49  1  0
 22 50  1  0
 22 51  1  0
 23 52  1  0
 26 53  1  0
 26 54  1  0
 28 55  1  0
 29 56  1  0
 30 57  1  0
 32 58  1  0
 33 59  1  0
M  END
$$$$
