
     RDKit          3D

 38 39  0  0  0  0  0  0  0  0999 V2000
    3.4353    2.5519    0.4589 C   0  0  0  0  0  0  0  0  0  0  0  0
    3.5440    1.1386    0.0250 C   0  0  0  0  0  0  0  0  0  0  0  0
    4.3627    0.6022   -0.9916 C   0  0  0  0  0  0  0  0  0  0  0  0
    4.1020   -0.7514   -1.0021 C   0  0  0  0  0  0  0  0  0  0  0  0
    4.6508   -1.8294   -1.8608 C   0  0  0  0  0  0  0  0  0  0  0  0
    3.1786   -0.9545   -0.0098 N   0  0  0  0  0  0  0  0  0  0  0  0
    2.5681   -2.2022    0.4154 C   0  0  0  0  0  0  0  0  0  0  0  0
    1.1146   -2.2944    0.0114 C   0  0  0  0  0  0  0  0  0  0  0  0
    0.6462   -3.3309   -0.4604 O   0  0  0  0  0  0  0  0  0  0  0  0
    0.3738   -1.1550    0.2935 N   0  0  0  0  0  0  0  0  0  0  0  0
   -0.9468   -1.1045   -0.0222 N   0  0  0  0  0  0  0  0  0  0  0  0
   -1.5206    0.0370    0.1867 C   0  0  0  0  0  0  0  0  0  0  0  0
   -2.9532    0.2255   -0.1181 C   0  0  0  0  0  0  0  0  0  0  0  0
   -3.5181    1.4807    0.1315 C   0  0  0  0  0  0  0  0  0  0  0  0
   -4.8775    1.6880   -0.1493 C   0  0  0  0  0  0  0  0  0  0  0  0
   -5.4770    3.0036    0.1094 N   0  0  0  0  0  4  0  0  0  0  0  0
   -6.6805    3.1505   -0.1428 O   0  0  0  0  0  0  0  0  0  0  0  0
   -4.7391    3.8887    0.5652 O   0  0  0  0  0  1  0  0  0  0  0  0
   -5.6687    0.6566   -0.6735 C   0  0  0  0  0  0  0  0  0  0  0  0
   -5.0940   -0.5918   -0.9187 C   0  0  0  0  0  0  0  0  0  0  0  0
   -3.7440   -0.8060   -0.6429 C   0  0  0  0  0  0  0  0  0  0  0  0
   -3.2654   -2.0575   -0.9147 O   0  0  0  0  0  0  0  0  0  0  0  0
    2.8043    0.1905    0.6131 N   0  0  0  0  0  0  0  0  0  0  0  0
    3.7161    2.6524    1.5122 H   0  0  0  0  0  0  0  0  0  0  0  0
    2.4089    2.9127    0.3372 H   0  0  0  0  0  0  0  0  0  0  0  0
    4.0936    3.1980   -0.1307 H   0  0  0  0  0  0  0  0  0  0  0  0
    5.0515    1.1333   -1.6346 H   0  0  0  0  0  0  0  0  0  0  0  0
    5.2277   -2.5428   -1.2639 H   0  0  0  0  0  0  0  0  0  0  0  0
    5.3159   -1.4173   -2.6268 H   0  0  0  0  0  0  0  0  0  0  0  0
    3.8458   -2.3676   -2.3713 H   0  0  0  0  0  0  0  0  0  0  0  0
    2.6522   -2.2637    1.5054 H   0  0  0  0  0  0  0  0  0  0  0  0
    3.1237   -3.0345   -0.0248 H   0  0  0  0  0  0  0  0  0  0  0  0
    0.8725   -0.3087    0.5906 H   0  0  0  0  0  0  0  0  0  0  0  0
   -0.9689    0.9035    0.5951 H   0  0  0  0  0  0  0  0  0  0  0  0
   -2.9074    2.2836    0.5386 H   0  0  0  0  0  0  0  0  0  0  0  0
   -6.7238    0.8051   -0.8954 H   0  0  0  0  0  0  0  0  0  0  0  0
   -5.6957   -1.4018   -1.3257 H   0  0  0  0  0  0  0  0  0  0  0  0
   -2.3076   -2.0884   -0.6831 H   0  0  0  0  0  0  0  0  0  0  0  0
  1  2  1  0
  2  3  1  0
  3  4  2  0
  4  5  1  0
  4  6  1  0
  6  7  1  0
  7  8  1  0
  8  9  2  0
  8 10  1  0
 10 11  1  0
 11 12  2  3
 12 13  1  0
 13 14  2  0
 14 15  1  0
 15 16  1  0
 16 17  2  0
 16 18  1  0
 15 19  2  0
 19 20  1  0
 20 21  2  0
 21 22  1  0
  6 23  1  0
 23  2  2  0
 21 13  1  0
  1 24  1  0
  1 25  1  0
  1 26  1  0
  3 27  1  0
  5 28  1  0
  5 29  1  0
  5 30  1  0
  7 31  1  0
  7 32  1  0
 10 33  1  0
 12 34  1  0
 14 35  1  0
 19 36  1  0
 20 37  1  0
 22 38  1  0
M  CHG  2  16   1  18  -1
M  END
$$$$
