
     RDKit          3D

 21 21  0  0  0  0  0  0  0  0999 V2000
   -3.6650    3.0605    0.0572 C   0  0  0  0  0  3  0  0  0  0  0  0
   -2.8835    2.2533   -0.2714 N   0  0  0  0  0  4  0  0  0  0  0  0
   -1.9139    1.2484   -0.6865 C   0  0  0  0  0  0  0  0  0  0  0  0
   -1.0606    0.6502    0.1478 C   0  0  0  0  0  0  0  0  0  0  0  0
   -0.2362   -0.2906   -0.5653 C   0  0  0  0  0  0  0  0  0  0  0  0
    0.7378   -1.0715   -0.0757 C   0  0  0  0  0  0  0  0  0  0  0  0
    1.2187   -1.1527    1.3475 C   0  0  0  0  0  0  0  0  0  0  0  0
    2.6817   -0.7715    1.4563 C   0  0  0  0  0  0  0  0  0  0  0  0
    3.4885   -0.6237    0.5534 O   0  0  0  0  0  0  0  0  0  0  0  0
    3.0701   -0.6310    2.7417 O   0  0  0  0  0  0  0  0  0  0  0  0
   -0.6535   -0.2554   -2.0183 C   0  0  0  0  0  0  0  0  0  0  0  0
   -1.7768    0.7855   -2.0954 C   0  0  0  0  0  0  0  0  0  0  0  0
   -1.0036    0.8513    1.2072 H   0  0  0  0  0  0  0  0  0  0  0  0
    1.2660   -1.7243   -0.7718 H   0  0  0  0  0  0  0  0  0  0  0  0
    1.1086   -2.1829    1.7024 H   0  0  0  0  0  0  0  0  0  0  0  0
    0.6453   -0.4952    2.0070 H   0  0  0  0  0  0  0  0  0  0  0  0
    4.0205   -0.3990    2.6760 H   0  0  0  0  0  0  0  0  0  0  0  0
    0.1845    0.0362   -2.6616 H   0  0  0  0  0  0  0  0  0  0  0  0
   -1.0173   -1.2362   -2.3457 H   0  0  0  0  0  0  0  0  0  0  0  0
   -2.7070    0.3365   -2.4585 H   0  0  0  0  0  0  0  0  0  0  0  0
   -1.5043    1.6121   -2.7596 H   0  0  0  0  0  0  0  0  0  0  0  0
  1  2  3  0
  2  3  1  0
  3  4  2  0
  4  5  1  0
  5  6  2  3
  6  7  1  0
  7  8  1  0
  8  9  2  0
  8 10  1  0
  5 11  1  0
 11 12  1  0
 12  3  1  0
  4 13  1  0
  6 14  1  0
  7 15  1  0
  7 16  1  0
 10 17  1  0
 11 18  1  0
 11 19  1  0
 12 20  1  0
 12 21  1  0
M  CHG  2   1  -1   2   1
M  END
$$$$
