
     RDKit          3D

 42 44  0  0  0  0  0  0  0  0999 V2000
    6.9375   -1.5697   -1.1870 C   0  0  0  0  0  0  0  0  0  0  0  0
    6.0497   -0.4672   -1.3875 O   0  0  0  0  0  0  0  0  0  0  0  0
    4.7395   -0.7508   -1.1226 C   0  0  0  0  0  0  0  0  0  0  0  0
    4.3234   -1.8480   -0.7771 O   0  0  0  0  0  0  0  0  0  0  0  0
    3.8996    0.4735   -1.3853 C   0  0  0  0  0  0  0  0  0  0  0  0
    2.6497    0.4622   -0.6386 N   0  0  0  0  0  0  0  0  0  0  0  0
    1.4501    0.0274   -1.1427 C   0  0  0  0  0  0  0  0  0  0  0  0
    0.4915    0.1958   -0.1679 C   0  0  0  0  0  0  0  0  0  0  0  0
   -0.8734   -0.1743   -0.3679 C   0  0  0  0  0  0  0  0  0  0  0  0
   -1.9355    0.4663    0.1483 C   0  0  0  0  0  0  0  0  0  0  0  0
   -3.3273    0.0584   -0.0711 C   0  0  0  0  0  0  0  0  0  0  0  0
   -3.7918   -0.3755   -1.3118 C   0  0  0  0  0  0  0  0  0  0  0  0
   -5.1282   -0.7280   -1.4637 C   0  0  0  0  0  0  0  0  0  0  0  0
   -5.9837   -0.6508   -0.4202 N   0  0  0  0  0  4  0  0  0  0  0  0
   -7.3962   -1.0233   -0.6070 C   0  0  0  0  0  0  0  0  0  0  0  0
   -5.5623   -0.2101    0.7859 C   0  0  0  0  0  0  0  0  0  0  0  0
   -4.2351    0.1548    0.9821 C   0  0  0  0  0  0  0  0  0  0  0  0
    1.1373    0.7405    0.9860 C   0  0  0  0  0  0  0  0  0  0  0  0
    0.7195    1.0880    2.2908 C   0  0  0  0  0  0  0  0  0  0  0  0
    1.6396    1.6106    3.2060 C   0  0  0  0  0  0  0  0  0  0  0  0
    2.9706    1.7832    2.8470 C   0  0  0  0  0  0  0  0  0  0  0  0
    3.4201    1.4330    1.5718 C   0  0  0  0  0  0  0  0  0  0  0  0
    2.4891    0.9101    0.6578 C   0  0  0  0  0  0  0  0  0  0  0  0
    6.6899   -2.3883   -1.8698 H   0  0  0  0  0  0  0  0  0  0  0  0
    6.9017   -1.9064   -0.1462 H   0  0  0  0  0  0  0  0  0  0  0  0
    7.9535   -1.2301   -1.4066 H   0  0  0  0  0  0  0  0  0  0  0  0
    3.6622    0.5233   -2.4529 H   0  0  0  0  0  0  0  0  0  0  0  0
    4.4426    1.3812   -1.1035 H   0  0  0  0  0  0  0  0  0  0  0  0
    1.3821   -0.3678   -2.1482 H   0  0  0  0  0  0  0  0  0  0  0  0
   -1.0281   -1.0413   -1.0069 H   0  0  0  0  0  0  0  0  0  0  0  0
   -1.7883    1.3434    0.7751 H   0  0  0  0  0  0  0  0  0  0  0  0
   -3.1249   -0.4323   -2.1701 H   0  0  0  0  0  0  0  0  0  0  0  0
   -5.5228   -1.0675   -2.4173 H   0  0  0  0  0  0  0  0  0  0  0  0
   -7.4635   -1.8010   -1.3722 H   0  0  0  0  0  0  0  0  0  0  0  0
   -7.9335   -0.1237   -0.9171 H   0  0  0  0  0  0  0  0  0  0  0  0
   -7.7927   -1.4089    0.3357 H   0  0  0  0  0  0  0  0  0  0  0  0
   -6.2940   -0.1509    1.5869 H   0  0  0  0  0  0  0  0  0  0  0  0
   -3.9143    0.5037    1.9624 H   0  0  0  0  0  0  0  0  0  0  0  0
   -0.3094    0.9414    2.6004 H   0  0  0  0  0  0  0  0  0  0  0  0
    1.3129    1.8755    4.2085 H   0  0  0  0  0  0  0  0  0  0  0  0
    3.6760    2.1854    3.5712 H   0  0  0  0  0  0  0  0  0  0  0  0
    4.4671    1.5581    1.3139 H   0  0  0  0  0  0  0  0  0  0  0  0
  1  2  1  0
  2  3  1  0
  3  4  2  0
  3  5  1  0
  5  6  1  0
  6  7  1  0
  7  8  2  0
  8  9  1  0
  9 10  2  3
 10 11  1  0
 11 12  2  0
 12 13  1  0
 13 14  2  0
 14 15  1  0
 14 16  1  0
 16 17  2  0
  8 18  1  0
 18 19  2  0
 19 20  1  0
 20 21  2  0
 21 22  1  0
 22 23  2  0
 23  6  1  0
 17 11  1  0
 23 18  1  0
  1 24  1  0
  1 25  1  0
  1 26  1  0
  5 27  1  0
  5 28  1  0
  7 29  1  0
  9 30  1  0
 10 31  1  0
 12 32  1  0
 13 33  1  0
 15 34  1  0
 15 35  1  0
 15 36  1  0
 16 37  1  0
 17 38  1  0
 19 39  1  0
 20 40  1  0
 21 41  1  0
 22 42  1  0
M  CHG  1  14   1
M  END
$$$$
