
     RDKit          3D

 50 53  0  0  0  0  0  0  0  0999 V2000
   -1.7796    1.7579    5.2578 C   0  0  0  0  0  0  0  0  0  0  0  0
   -1.1727    0.9749    4.1034 C   0  0  0  0  0  0  0  0  0  0  0  0
   -1.5217    1.5718    2.7476 C   0  0  0  0  0  0  0  0  0  0  0  0
   -2.2593    2.5566    2.6686 O   0  0  0  0  0  0  0  0  0  0  0  0
   -0.9981    0.9515    1.6139 N   0  0  0  0  0  0  0  0  0  0  0  0
   -1.3924    1.4907    0.3058 C   0  0  0  0  0  0  0  0  0  0  0  0
   -2.3531    0.5948   -0.4436 C   0  0  0  0  0  0  0  0  0  0  0  0
   -3.5874    0.2424    0.1190 C   0  0  0  0  0  0  0  0  0  0  0  0
   -4.4757   -0.5831   -0.5738 C   0  0  0  0  0  0  0  0  0  0  0  0
   -4.1562   -1.0551   -1.8513 C   0  0  0  0  0  0  0  0  0  0  0  0
   -5.0981   -1.9653   -2.5820 C   0  0  0  0  0  0  0  0  0  0  0  0
   -2.9260   -0.7035   -2.4173 C   0  0  0  0  0  0  0  0  0  0  0  0
   -2.0371    0.1225   -1.7246 C   0  0  0  0  0  0  0  0  0  0  0  0
   -0.2247   -0.2990    1.6472 C   0  0  0  0  0  0  0  0  0  0  0  0
    1.0733   -0.1829    0.9019 C   0  0  0  0  0  0  0  0  0  0  0  0
    1.2913   -0.7652   -0.2915 C   0  0  0  0  0  0  0  0  0  0  0  0
    2.5735   -0.6230   -0.9800 C   0  0  0  0  0  0  0  0  0  0  0  0
    2.7923   -1.2050   -2.2334 C   0  0  0  0  0  0  0  0  0  0  0  0
    4.0282   -1.0169   -2.8170 C   0  0  0  0  0  0  0  0  0  0  0  0
    5.0216   -0.2874   -2.2040 C   0  0  0  0  0  0  0  0  0  0  0  0
    4.8411    0.2988   -0.9696 C   0  0  0  0  0  0  0  0  0  0  0  0
    3.5983    0.1236   -0.3586 C   0  0  0  0  0  0  0  0  0  0  0  0
    3.3570    0.6888    0.8982 N   0  0  0  0  0  0  0  0  0  0  0  0
    2.1758    0.5631    1.5797 C   0  0  0  0  0  0  0  0  0  0  0  0
    2.0434    1.0361    2.7038 O   0  0  0  0  0  0  0  0  0  0  0  0
    6.1563   -0.2281   -2.9514 O   0  0  0  0  0  0  0  0  0  0  0  0
    5.7658   -1.0021   -4.1050 C   0  0  0  0  0  0  0  0  0  0  0  0
    4.4155   -1.5058   -4.0255 O   0  0  0  0  0  0  0  0  0  0  0  0
   -1.4250    2.7939    5.2597 H   0  0  0  0  0  0  0  0  0  0  0  0
   -2.8724    1.7761    5.1898 H   0  0  0  0  0  0  0  0  0  0  0  0
   -1.5048    1.3007    6.2134 H   0  0  0  0  0  0  0  0  0  0  0  0
   -1.5510   -0.0520    4.1435 H   0  0  0  0  0  0  0  0  0  0  0  0
   -0.0859    0.9680    4.2241 H   0  0  0  0  0  0  0  0  0  0  0  0
   -0.4808    1.6592   -0.2785 H   0  0  0  0  0  0  0  0  0  0  0  0
   -1.8589    2.4775    0.4058 H   0  0  0  0  0  0  0  0  0  0  0  0
   -3.8650    0.6160    1.1033 H   0  0  0  0  0  0  0  0  0  0  0  0
   -5.4237   -0.8475   -0.1104 H   0  0  0  0  0  0  0  0  0  0  0  0
   -5.0032   -1.8377   -3.6656 H   0  0  0  0  0  0  0  0  0  0  0  0
   -6.1380   -1.7441   -2.3193 H   0  0  0  0  0  0  0  0  0  0  0  0
   -4.8829   -3.0078   -2.3283 H   0  0  0  0  0  0  0  0  0  0  0  0
   -2.6558   -1.0639   -3.4074 H   0  0  0  0  0  0  0  0  0  0  0  0
   -1.0961    0.3967   -2.1962 H   0  0  0  0  0  0  0  0  0  0  0  0
   -0.8577   -1.0830    1.2140 H   0  0  0  0  0  0  0  0  0  0  0  0
   -0.0199   -0.6289    2.6680 H   0  0  0  0  0  0  0  0  0  0  0  0
    0.5140   -1.3430   -0.7819 H   0  0  0  0  0  0  0  0  0  0  0  0
    2.0294   -1.7846   -2.7408 H   0  0  0  0  0  0  0  0  0  0  0  0
    5.6387    0.8673   -0.5070 H   0  0  0  0  0  0  0  0  0  0  0  0
    4.0833    1.2082    1.3735 H   0  0  0  0  0  0  0  0  0  0  0  0
    5.8527   -0.3709   -4.9968 H   0  0  0  0  0  0  0  0  0  0  0  0
    6.4514   -1.8513   -4.2061 H   0  0  0  0  0  0  0  0  0  0  0  0
  1  2  1  0
  2  3  1  0
  3  4  2  0
  3  5  1  0
  5  6  1  0
  6  7  1  0
  7  8  2  0
  8  9  1  0
  9 10  2  0
 10 11  1  0
 10 12  1  0
 12 13  2  0
  5 14  1  0
 14 15  1  0
 15 16  2  0
 16 17  1  0
 17 18  2  0
 18 19  1  0
 19 20  2  0
 20 21  1  0
 21 22  2  0
 22 23  1  0
 23 24  1  0
 24 25  2  0
 20 26  1  0
 26 27  1  0
 27 28  1  0
 13  7  1  0
 24 15  1  0
 22 17  1  0
 28 19  1  0
  1 29  1  0
  1 30  1  0
  1 31  1  0
  2 32  1  0
  2 33  1  0
  6 34  1  0
  6 35  1  0
  8 36  1  0
  9 37  1  0
 11 38  1  0
 11 39  1  0
 11 40  1  0
 12 41  1  0
 13 42  1  0
 14 43  1  0
 14 44  1  0
 16 45  1  0
 18 46  1  0
 21 47  1  0
 23 48  1  0
 27 49  1  0
 27 50  1  0
M  END
$$$$
