
     RDKit          3D

 54 57  0  0  0  0  0  0  0  0999 V2000
   -5.6623    2.9251    0.8827 C   0  0  0  0  0  0  0  0  0  0  0  0
   -4.3958    2.4069    0.2693 C   0  0  0  0  0  0  0  0  0  0  0  0
   -3.1614    2.6096    0.8839 C   0  0  0  0  0  0  0  0  0  0  0  0
   -1.9740    2.1252    0.3064 C   0  0  0  0  0  0  0  0  0  0  0  0
   -0.6853    2.3491    1.0562 C   0  0  0  0  0  0  0  0  0  0  0  0
   -2.0217    1.4182   -0.9202 C   0  0  0  0  0  0  0  0  0  0  0  0
   -0.7946    0.9416   -1.4441 N   0  0  0  0  0  0  0  0  0  0  0  0
   -0.5896   -0.2670   -2.0911 C   0  0  0  0  0  0  0  0  0  0  0  0
   -1.4146   -1.1615   -2.2542 O   0  0  0  0  0  0  0  0  0  0  0  0
    0.8608   -0.4525   -2.5393 C   0  0  0  0  0  0  0  0  0  0  0  0
    1.6878   -0.9945   -1.4599 N   0  0  0  0  0  0  0  0  0  0  0  0
    2.2588   -0.0751   -0.5883 C   0  0  0  0  0  0  0  0  0  0  0  0
    1.9832    1.1254   -0.6824 O   0  0  0  0  0  0  0  0  0  0  0  0
    3.1328   -0.5654    0.3647 N   0  0  0  0  0  0  0  0  0  0  0  0
    3.7744    0.3883    1.2599 C   0  0  0  0  0  0  0  0  0  0  0  0
    2.9995    0.4943    2.5288 C   0  0  0  0  0  0  0  0  0  0  0  0
    2.8712   -0.3269    3.6316 C   0  0  0  0  0  0  0  0  0  0  0  0
    1.9979    0.3360    4.5263 C   0  0  0  0  0  0  0  0  0  0  0  0
    1.6545    1.5204    3.9185 C   0  0  0  0  0  0  0  0  0  0  0  0
    2.2563    1.6260    2.7055 O   0  0  0  0  0  0  0  0  0  0  0  0
    3.4584   -1.9045    0.5216 C   0  0  0  0  0  0  0  0  0  0  0  0
    4.2965   -2.3155    1.3214 O   0  0  0  0  0  0  0  0  0  0  0  0
    2.7387   -2.8667   -0.3267 C   0  0  0  0  0  0  0  0  0  0  0  0
    2.9533   -4.2421   -0.1426 C   0  0  0  0  0  0  0  0  0  0  0  0
    2.2689   -5.1649   -0.9265 C   0  0  0  0  0  0  0  0  0  0  0  0
    1.3704   -4.7127   -1.8862 C   0  0  0  0  0  0  0  0  0  0  0  0
    1.1640   -3.3402   -2.0699 C   0  0  0  0  0  0  0  0  0  0  0  0
    1.8552   -2.3951   -1.2969 C   0  0  0  0  0  0  0  0  0  0  0  0
   -3.2581    1.2788   -1.5854 C   0  0  0  0  0  0  0  0  0  0  0  0
   -3.4244    0.6956   -2.9633 C   0  0  0  0  0  0  0  0  0  0  0  0
   -4.4314    1.7505   -0.9623 C   0  0  0  0  0  0  0  0  0  0  0  0
   -5.5075    3.2362    1.9217 H   0  0  0  0  0  0  0  0  0  0  0  0
   -6.0267    3.7883    0.3165 H   0  0  0  0  0  0  0  0  0  0  0  0
   -6.4320    2.1461    0.8834 H   0  0  0  0  0  0  0  0  0  0  0  0
   -3.1209    3.1412    1.8328 H   0  0  0  0  0  0  0  0  0  0  0  0
   -0.0032    2.9691    0.4661 H   0  0  0  0  0  0  0  0  0  0  0  0
   -0.8540    2.8641    2.0077 H   0  0  0  0  0  0  0  0  0  0  0  0
   -0.2135    1.3883    1.2847 H   0  0  0  0  0  0  0  0  0  0  0  0
    0.0528    1.3347   -1.0345 H   0  0  0  0  0  0  0  0  0  0  0  0
    0.8995   -1.0795   -3.4353 H   0  0  0  0  0  0  0  0  0  0  0  0
    1.2576    0.5189   -2.8613 H   0  0  0  0  0  0  0  0  0  0  0  0
    3.8555    1.3708    0.7811 H   0  0  0  0  0  0  0  0  0  0  0  0
    4.7965    0.0602    1.4835 H   0  0  0  0  0  0  0  0  0  0  0  0
    3.3535   -1.2863    3.7668 H   0  0  0  0  0  0  0  0  0  0  0  0
    1.6633   -0.0042    5.4962 H   0  0  0  0  0  0  0  0  0  0  0  0
    1.0248    2.3525    4.2020 H   0  0  0  0  0  0  0  0  0  0  0  0
    3.6494   -4.5944    0.6161 H   0  0  0  0  0  0  0  0  0  0  0  0
    2.4275   -6.2306   -0.7821 H   0  0  0  0  0  0  0  0  0  0  0  0
    0.8164   -5.4271   -2.4916 H   0  0  0  0  0  0  0  0  0  0  0  0
    0.4267   -3.0510   -2.8137 H   0  0  0  0  0  0  0  0  0  0  0  0
   -3.6651   -0.3695   -2.9042 H   0  0  0  0  0  0  0  0  0  0  0  0
   -2.5358    0.8513   -3.5816 H   0  0  0  0  0  0  0  0  0  0  0  0
   -4.2440    1.1943   -3.4947 H   0  0  0  0  0  0  0  0  0  0  0  0
   -5.3902    1.6202   -1.4633 H   0  0  0  0  0  0  0  0  0  0  0  0
  1  2  1  0
  2  3  2  0
  3  4  1  0
  4  5  1  0
  4  6  2  0
  6  7  1  0
  7  8  1  0
  8  9  2  0
  8 10  1  0
 10 11  1  0
 11 12  1  0
 12 13  2  0
 12 14  1  0
 14 15  1  0
 15 16  1  0
 16 17  2  0
 17 18  1  0
 18 19  2  0
 19 20  1  0
 14 21  1  0
 21 22  2  0
 21 23  1  0
 23 24  2  0
 24 25  1  0
 25 26  2  0
 26 27  1  0
 27 28  2  0
  6 29  1  0
 29 30  1  0
 29 31  2  0
 31  2  1  0
 28 11  1  0
 20 16  1  0
 28 23  1  0
  1 32  1  0
  1 33  1  0
  1 34  1  0
  3 35  1  0
  5 36  1  0
  5 37  1  0
  5 38  1  0
  7 39  1  0
 10 40  1  0
 10 41  1  0
 15 42  1  0
 15 43  1  0
 17 44  1  0
 18 45  1  0
 19 46  1  0
 24 47  1  0
 25 48  1  0
 26 49  1  0
 27 50  1  0
 30 51  1  0
 30 52  1  0
 30 53  1  0
 31 54  1  0
M  END
$$$$
