
     RDKit          3D

 61 65  0  0  0  0  0  0  0  0999 V2000
   -8.7035   -0.0468    2.4956 C   0  0  0  0  0  0  0  0  0  0  0  0
   -8.1134    0.5677    1.3576 O   0  0  0  0  0  0  0  0  0  0  0  0
   -6.7419    0.6156    1.3122 C   0  0  0  0  0  0  0  0  0  0  0  0
   -5.9028   -0.1800    2.0993 C   0  0  0  0  0  0  0  0  0  0  0  0
   -4.5121   -0.0644    1.9861 C   0  0  0  0  0  0  0  0  0  0  0  0
   -3.9359    0.8383    1.0822 C   0  0  0  0  0  0  0  0  0  0  0  0
   -2.4885    1.0015    0.9725 C   0  0  0  0  0  0  0  0  0  0  0  0
   -1.7985    1.9047    0.2973 N   0  0  0  0  0  0  0  0  0  0  0  0
   -0.4788    1.6045    0.5722 C   0  0  0  0  0  0  0  0  0  0  0  0
    0.6143    2.4259   -0.0050 C   0  0  0  0  0  0  0  0  0  0  0  0
    1.3433    1.6943   -1.0252 N   0  0  0  0  0  0  0  0  0  0  0  0
    2.6455    1.2503   -0.9791 C   0  0  0  0  0  0  0  0  0  0  0  0
    3.6712    1.4789    0.3975 S   0  0  0  0  0  0  0  0  0  0  0  0
    5.3139    1.1329   -0.2945 C   0  0  0  0  0  0  0  0  0  0  0  0
    5.7936   -0.2600    0.0275 C   0  0  0  0  0  0  0  0  0  0  0  0
    6.4798   -0.5190    1.2221 C   0  0  0  0  0  0  0  0  0  0  0  0
    6.9258   -1.8130    1.5178 C   0  0  0  0  0  0  0  0  0  0  0  0
    6.6798   -2.8778    0.6353 C   0  0  0  0  0  0  0  0  0  0  0  0
    7.1796   -4.2563    0.9510 C   0  0  0  0  0  0  0  0  0  0  0  0
    5.9991   -2.6241   -0.5603 C   0  0  0  0  0  0  0  0  0  0  0  0
    5.5497   -1.3276   -0.8541 C   0  0  0  0  0  0  0  0  0  0  0  0
    2.9952    0.6445   -2.0879 N   0  0  0  0  0  0  0  0  0  0  0  0
    1.8918    0.6999   -2.9010 C   0  0  0  0  0  0  0  0  0  0  0  0
    1.7143    0.2004   -4.1913 C   0  0  0  0  0  0  0  0  0  0  0  0
    0.4679    0.4270   -4.7562 C   0  0  0  0  0  0  0  0  0  0  0  0
   -0.5467    1.0910   -4.1543 N   0  0  0  0  0  0  0  0  0  0  0  0
   -0.3763    1.5667   -2.8977 C   0  0  0  0  0  0  0  0  0  0  0  0
    0.8465    1.3666   -2.2713 C   0  0  0  0  0  0  0  0  0  0  0  0
   -0.4253    0.5121    1.4122 C   0  0  0  0  0  0  0  0  0  0  0  0
    0.6482   -0.2612    2.0596 C   0  0  0  0  0  0  0  0  0  0  0  0
   -1.7097    0.1180    1.6708 O   0  0  0  0  0  0  0  0  0  0  0  0
   -4.7839    1.6175    0.2785 C   0  0  0  0  0  0  0  0  0  0  0  0
   -6.1785    1.5147    0.3851 C   0  0  0  0  0  0  0  0  0  0  0  0
   -7.0745    2.2578   -0.3525 O   0  0  0  0  0  0  0  0  0  0  0  0
   -6.5494    3.1604   -1.3178 C   0  0  0  0  0  0  0  0  0  0  0  0
   -8.3188    0.3820    3.4266 H   0  0  0  0  0  0  0  0  0  0  0  0
   -8.5624   -1.1323    2.4763 H   0  0  0  0  0  0  0  0  0  0  0  0
   -9.7781    0.1474    2.4616 H   0  0  0  0  0  0  0  0  0  0  0  0
   -6.3001   -0.9055    2.8062 H   0  0  0  0  0  0  0  0  0  0  0  0
   -3.8831   -0.6895    2.6201 H   0  0  0  0  0  0  0  0  0  0  0  0
    1.2946    2.7638    0.7789 H   0  0  0  0  0  0  0  0  0  0  0  0
    0.2114    3.3249   -0.4850 H   0  0  0  0  0  0  0  0  0  0  0  0
    6.0103    1.8561    0.1477 H   0  0  0  0  0  0  0  0  0  0  0  0
    5.3527    1.3209   -1.3735 H   0  0  0  0  0  0  0  0  0  0  0  0
    6.6740    0.2848    1.9319 H   0  0  0  0  0  0  0  0  0  0  0  0
    7.4626   -1.9860    2.4474 H   0  0  0  0  0  0  0  0  0  0  0  0
    8.2340   -4.3518    0.6672 H   0  0  0  0  0  0  0  0  0  0  0  0
    6.6034   -5.0162    0.4129 H   0  0  0  0  0  0  0  0  0  0  0  0
    7.0813   -4.4702    2.0199 H   0  0  0  0  0  0  0  0  0  0  0  0
    5.8095   -3.4257   -1.2739 H   0  0  0  0  0  0  0  0  0  0  0  0
    5.0098   -1.1531   -1.7839 H   0  0  0  0  0  0  0  0  0  0  0  0
    2.4971   -0.3337   -4.7095 H   0  0  0  0  0  0  0  0  0  0  0  0
    0.2416    0.0641   -5.7571 H   0  0  0  0  0  0  0  0  0  0  0  0
   -1.2191    2.0798   -2.4450 H   0  0  0  0  0  0  0  0  0  0  0  0
    0.2422   -0.9149    2.8408 H   0  0  0  0  0  0  0  0  0  0  0  0
    1.1694   -0.8901    1.3349 H   0  0  0  0  0  0  0  0  0  0  0  0
    1.3735    0.4066    2.5345 H   0  0  0  0  0  0  0  0  0  0  0  0
   -4.3275    2.3052   -0.4257 H   0  0  0  0  0  0  0  0  0  0  0  0
   -5.9287    3.9292   -0.8413 H   0  0  0  0  0  0  0  0  0  0  0  0
   -7.3932    3.6716   -1.7958 H   0  0  0  0  0  0  0  0  0  0  0  0
   -5.9962    2.6256   -2.1008 H   0  0  0  0  0  0  0  0  0  0  0  0
  1  2  1  0
  2  3  1  0
  3  4  2  0
  4  5  1  0
  5  6  2  0
  6  7  1  0
  7  8  2  0
  8  9  1  0
  9 10  1  0
 10 11  1  0
 11 12  1  0
 12 13  1  0
 13 14  1  0
 14 15  1  0
 15 16  2  0
 16 17  1  0
 17 18  2  0
 18 19  1  0
 18 20  1  0
 20 21  2  0
 12 22  2  0
 22 23  1  0
 23 24  2  0
 24 25  1  0
 25 26  2  0
 26 27  1  0
 27 28  2  0
  9 29  2  0
 29 30  1  0
 29 31  1  0
  6 32  1  0
 32 33  2  0
 33 34  1  0
 34 35  1  0
 33  3  1  0
 31  7  1  0
 28 11  1  0
 21 15  1  0
 28 23  1  0
  1 36  1  0
  1 37  1  0
  1 38  1  0
  4 39  1  0
  5 40  1  0
 10 41  1  0
 10 42  1  0
 14 43  1  0
 14 44  1  0
 16 45  1  0
 17 46  1  0
 19 47  1  0
 19 48  1  0
 19 49  1  0
 20 50  1  0
 21 51  1  0
 24 52  1  0
 25 53  1  0
 27 54  1  0
 30 55  1  0
 30 56  1  0
 30 57  1  0
 32 58  1  0
 35 59  1  0
 35 60  1  0
 35 61  1  0
M  END
$$$$
