
     RDKit          3D

 49 53  0  0  0  0  0  0  0  0999 V2000
   -0.9418    1.9549    3.0873 O   0  0  0  0  0  0  0  0  0  0  0  0
   -0.7209    1.4809    1.9700 C   0  0  0  0  0  0  0  0  0  0  0  0
   -1.7930    0.8464    1.2174 C   0  0  0  0  0  0  0  0  0  0  0  0
   -3.1598    0.8830    1.4370 C   0  0  0  0  0  0  0  0  0  0  0  0
   -3.7761    0.0723    0.4439 C   0  0  0  0  0  0  0  0  0  0  0  0
   -2.7279   -0.4303   -0.3153 C   0  0  0  0  0  0  0  0  0  0  0  0
   -2.8826   -1.2845   -1.4026 C   0  0  0  0  0  0  0  0  0  0  0  0
   -4.1928   -1.6461   -1.7363 C   0  0  0  0  0  0  0  0  0  0  0  0
   -5.2982   -1.1731   -1.0095 C   0  0  0  0  0  0  0  0  0  0  0  0
   -6.6088   -1.5406   -1.3502 C   0  0  0  0  0  0  0  0  0  0  0  0
   -7.7003   -1.0618   -0.6196 C   0  0  0  0  0  0  0  0  0  0  0  0
   -7.5014   -0.2091    0.4647 C   0  0  0  0  0  0  0  0  0  0  0  0
   -6.2096    0.1718    0.8265 C   0  0  0  0  0  0  0  0  0  0  0  0
   -5.1020   -0.3038    0.0963 C   0  0  0  0  0  0  0  0  0  0  0  0
   -1.5360    0.0270    0.1523 O   0  0  0  0  0  0  0  0  0  0  0  0
    0.5642    1.5561    1.4268 N   0  0  0  0  0  0  0  0  0  0  0  0
    1.6523    2.0756    2.2598 C   0  0  0  0  0  0  0  0  0  0  0  0
    3.0102    1.4484    1.8973 C   0  0  0  0  0  0  0  0  0  0  0  0
    3.3619    1.6452    0.4665 N   0  0  0  0  0  0  0  0  0  0  0  0
    4.1499    0.5718   -0.0057 C   0  0  0  0  0  0  0  0  0  0  0  0
    3.5578   -0.3535   -0.8037 N   0  0  0  0  0  0  0  0  0  0  0  0
    4.2905   -1.4051   -1.2413 C   0  0  0  0  0  0  0  0  0  0  0  0
    5.6232   -1.6063   -0.9275 C   0  0  0  0  0  0  0  0  0  0  0  0
    6.3513   -2.7915   -1.4770 C   0  0  0  0  0  0  0  0  0  0  0  0
    5.6159   -3.9365   -1.4122 F   0  0  0  0  0  0  0  0  0  0  0  0
    7.5164   -3.0583   -0.8229 F   0  0  0  0  0  0  0  0  0  0  0  0
    6.6834   -2.6325   -2.7877 F   0  0  0  0  0  0  0  0  0  0  0  0
    6.2409   -0.6479   -0.1231 C   0  0  0  0  0  0  0  0  0  0  0  0
    5.5080    0.4466    0.3435 C   0  0  0  0  0  0  0  0  0  0  0  0
    6.3493    1.6209    1.2927 Cl  0  0  0  0  0  0  0  0  0  0  0  0
    2.2151    1.9688   -0.4117 C   0  0  0  0  0  0  0  0  0  0  0  0
    0.9107    1.2774    0.0245 C   0  0  0  0  0  0  0  0  0  0  0  0
   -3.6431    1.4385    2.2289 H   0  0  0  0  0  0  0  0  0  0  0  0
   -2.0279   -1.6499   -1.9590 H   0  0  0  0  0  0  0  0  0  0  0  0
   -4.3444   -2.3135   -2.5833 H   0  0  0  0  0  0  0  0  0  0  0  0
   -6.7935   -2.2044   -2.1919 H   0  0  0  0  0  0  0  0  0  0  0  0
   -8.7090   -1.3563   -0.8990 H   0  0  0  0  0  0  0  0  0  0  0  0
   -8.3541    0.1612    1.0287 H   0  0  0  0  0  0  0  0  0  0  0  0
   -6.0735    0.8376    1.6748 H   0  0  0  0  0  0  0  0  0  0  0  0
    1.4392    1.8919    3.3186 H   0  0  0  0  0  0  0  0  0  0  0  0
    1.6807    3.1623    2.1131 H   0  0  0  0  0  0  0  0  0  0  0  0
    2.9621    0.3780    2.1429 H   0  0  0  0  0  0  0  0  0  0  0  0
    3.7798    1.9025    2.5297 H   0  0  0  0  0  0  0  0  0  0  0  0
    3.7449   -2.1031   -1.8742 H   0  0  0  0  0  0  0  0  0  0  0  0
    7.2937   -0.7471    0.1355 H   0  0  0  0  0  0  0  0  0  0  0  0
    2.0665    3.0554   -0.3536 H   0  0  0  0  0  0  0  0  0  0  0  0
    2.4285    1.7649   -1.4688 H   0  0  0  0  0  0  0  0  0  0  0  0
    1.0010    0.1904   -0.0746 H   0  0  0  0  0  0  0  0  0  0  0  0
    0.0993    1.6250   -0.6229 H   0  0  0  0  0  0  0  0  0  0  0  0
  1  2  2  0
  2  3  1  0
  3  4  2  0
  4  5  1  0
  5  6  2  0
  6  7  1  0
  7  8  2  0
  8  9  1  0
  9 10  2  0
 10 11  1  0
 11 12  2  0
 12 13  1  0
 13 14  2  0
  6 15  1  0
  2 16  1  0
 16 17  1  0
 17 18  1  0
 18 19  1  0
 19 20  1  0
 20 21  2  0
 21 22  1  0
 22 23  2  0
 23 24  1  0
 24 25  1  0
 24 26  1  0
 24 27  1  0
 23 28  1  0
 28 29  2  0
 29 30  1  0
 19 31  1  0
 31 32  1  0
 15  3  1  0
 32 16  1  0
 14  5  1  0
 29 20  1  0
 14  9  1  0
  4 33  1  0
  7 34  1  0
  8 35  1  0
 10 36  1  0
 11 37  1  0
 12 38  1  0
 13 39  1  0
 17 40  1  0
 17 41  1  0
 18 42  1  0
 18 43  1  0
 22 44  1  0
 28 45  1  0
 31 46  1  0
 31 47  1  0
 32 48  1  0
 32 49  1  0
M  END
$$$$
