
     RDKit          3D

 55 58  0  0  0  0  0  0  0  0999 V2000
    3.0967   -0.6477   -1.1370 O   0  0  0  0  0  0  0  0  0  0  0  0
    2.7630   -0.4927    0.0385 C   0  0  0  0  0  0  0  0  0  0  0  0
    1.5664    0.3244    0.4871 C   0  0  0  0  0  0  0  0  0  0  0  0
    0.0906   -0.1564   -0.4558 S   0  0  0  0  0  0  0  0  0  0  0  0
   -1.0669    0.9340    0.2216 C   0  0  0  0  0  0  0  0  0  0  0  0
   -0.8574    1.7208    1.2497 N   0  0  0  0  0  0  0  0  0  0  0  0
   -2.0017    2.4488    1.4547 N   0  0  0  0  0  0  0  0  0  0  0  0
   -2.9037    2.0700    0.5664 C   0  0  0  0  0  0  0  0  0  0  0  0
   -4.2465    2.6217    0.4305 C   0  0  0  0  0  0  0  0  0  0  0  0
   -4.4067    3.9181   -0.0766 C   0  0  0  0  0  0  0  0  0  0  0  0
   -5.6831    4.4591   -0.2457 C   0  0  0  0  0  0  0  0  0  0  0  0
   -6.8091    3.7119    0.0988 C   0  0  0  0  0  0  0  0  0  0  0  0
   -6.6632    2.4270    0.6229 C   0  0  0  0  0  0  0  0  0  0  0  0
   -5.3861    1.8924    0.7935 C   0  0  0  0  0  0  0  0  0  0  0  0
   -5.2396    0.6444    1.3323 O   0  0  0  0  0  0  0  0  0  0  0  0
   -2.3376    1.1133   -0.2560 N   0  0  0  0  0  0  0  0  0  0  0  0
   -2.9055    0.5939   -1.4899 C   0  0  0  0  0  0  0  0  0  0  0  0
   -3.8980   -0.5276   -1.2949 C   0  0  0  0  0  0  0  0  0  0  0  0
   -5.1453   -0.4692   -1.9396 C   0  0  0  0  0  0  0  0  0  0  0  0
   -6.0740   -1.5019   -1.7954 C   0  0  0  0  0  0  0  0  0  0  0  0
   -5.7657   -2.6107   -1.0128 C   0  0  0  0  0  0  0  0  0  0  0  0
   -4.5273   -2.6915   -0.3805 C   0  0  0  0  0  0  0  0  0  0  0  0
   -3.5958   -1.6609   -0.5258 C   0  0  0  0  0  0  0  0  0  0  0  0
    3.4836   -1.0569    1.0799 N   0  0  0  0  0  0  0  0  0  0  0  0
    4.7388   -1.6094    0.7450 N   0  0  0  0  0  0  0  0  0  0  0  0
    5.8141   -1.2220    1.5229 C   0  0  0  0  0  0  0  0  0  0  0  0
    5.6775   -0.5792    2.5650 O   0  0  0  0  0  0  0  0  0  0  0  0
    7.1765   -1.5668    1.0332 C   0  0  0  0  0  0  0  0  0  0  0  0
    7.3809   -2.5728    0.0757 C   0  0  0  0  0  0  0  0  0  0  0  0
    8.6723   -2.8636   -0.3753 C   0  0  0  0  0  0  0  0  0  0  0  0
    9.7655   -2.1593    0.1274 C   0  0  0  0  0  0  0  0  0  0  0  0
    9.5745   -1.1709    1.0919 C   0  0  0  0  0  0  0  0  0  0  0  0
    8.2894   -0.8834    1.5483 C   0  0  0  0  0  0  0  0  0  0  0  0
    8.1967    0.0897    2.5086 O   0  0  0  0  0  0  0  0  0  0  0  0
    1.3803    0.1656    1.5541 H   0  0  0  0  0  0  0  0  0  0  0  0
    1.8016    1.3811    0.3240 H   0  0  0  0  0  0  0  0  0  0  0  0
   -3.5336    4.5139   -0.3357 H   0  0  0  0  0  0  0  0  0  0  0  0
   -5.7967    5.4676   -0.6365 H   0  0  0  0  0  0  0  0  0  0  0  0
   -7.8016    4.1386   -0.0261 H   0  0  0  0  0  0  0  0  0  0  0  0
   -7.5481    1.8659    0.9080 H   0  0  0  0  0  0  0  0  0  0  0  0
   -6.0948    0.1850    1.3210 H   0  0  0  0  0  0  0  0  0  0  0  0
   -2.1010    0.2533   -2.1490 H   0  0  0  0  0  0  0  0  0  0  0  0
   -3.3725    1.4444   -2.0017 H   0  0  0  0  0  0  0  0  0  0  0  0
   -5.4081    0.3888   -2.5558 H   0  0  0  0  0  0  0  0  0  0  0  0
   -7.0359   -1.4422   -2.2980 H   0  0  0  0  0  0  0  0  0  0  0  0
   -6.4859   -3.4174   -0.9019 H   0  0  0  0  0  0  0  0  0  0  0  0
   -4.2821   -3.5594    0.2265 H   0  0  0  0  0  0  0  0  0  0  0  0
   -2.6368   -1.7547   -0.0214 H   0  0  0  0  0  0  0  0  0  0  0  0
    3.4350   -0.6530    2.0167 H   0  0  0  0  0  0  0  0  0  0  0  0
    4.8591   -1.7975   -0.2513 H   0  0  0  0  0  0  0  0  0  0  0  0
    6.5564   -3.1588   -0.3200 H   0  0  0  0  0  0  0  0  0  0  0  0
    8.8265   -3.6442   -1.1174 H   0  0  0  0  0  0  0  0  0  0  0  0
   10.7688   -2.3838   -0.2257 H   0  0  0  0  0  0  0  0  0  0  0  0
   10.4255   -0.6265    1.4933 H   0  0  0  0  0  0  0  0  0  0  0  0
    7.2705    0.1067    2.8374 H   0  0  0  0  0  0  0  0  0  0  0  0
  1  2  2  0
  2  3  1  0
  3  4  1  0
  4  5  1  0
  5  6  2  0
  6  7  1  0
  7  8  2  0
  8  9  1  0
  9 10  2  0
 10 11  1  0
 11 12  2  0
 12 13  1  0
 13 14  2  0
 14 15  1  0
  8 16  1  0
 16 17  1  0
 17 18  1  0
 18 19  2  0
 19 20  1  0
 20 21  2  0
 21 22  1  0
 22 23  2  0
  2 24  1  0
 24 25  1  0
 25 26  1  0
 26 27  2  0
 26 28  1  0
 28 29  2  0
 29 30  1  0
 30 31  2  0
 31 32  1  0
 32 33  2  0
 33 34  1  0
 16  5  1  0
 23 18  1  0
 33 28  1  0
 14  9  1  0
  3 35  1  0
  3 36  1  0
 10 37  1  0
 11 38  1  0
 12 39  1  0
 13 40  1  0
 15 41  1  0
 17 42  1  0
 17 43  1  0
 19 44  1  0
 20 45  1  0
 21 46  1  0
 22 47  1  0
 23 48  1  0
 24 49  1  0
 25 50  1  0
 29 51  1  0
 30 52  1  0
 31 53  1  0
 32 54  1  0
 34 55  1  0
M  END
$$$$
