
     RDKit          3D

 58 62  0  0  0  0  0  0  0  0999 V2000
    6.2119    4.2425    2.1441 C   0  0  0  0  0  0  0  0  0  0  0  0
    6.1621    2.8236    2.0684 O   0  0  0  0  0  0  0  0  0  0  0  0
    5.0601    2.2746    1.4718 C   0  0  0  0  0  0  0  0  0  0  0  0
    3.9894    2.9775    0.9195 C   0  0  0  0  0  0  0  0  0  0  0  0
    2.9205    2.2879    0.3359 C   0  0  0  0  0  0  0  0  0  0  0  0
    2.9107    0.8877    0.2961 C   0  0  0  0  0  0  0  0  0  0  0  0
    1.7492    0.1449   -0.3149 C   0  0  0  0  0  0  0  0  0  0  0  0
    0.7536   -0.3310    0.7494 C   0  0  0  0  0  0  0  0  0  0  0  0
   -0.4334   -0.9341    0.1116 N   0  0  0  0  0  0  0  0  0  0  0  0
   -1.5132   -0.1372   -0.3084 C   0  0  0  0  0  0  0  0  0  0  0  0
   -1.5440    1.1644   -0.2024 N   0  0  0  0  0  0  0  0  0  0  0  0
   -2.7237   -0.7866   -0.9348 C   0  0  0  0  0  0  0  0  0  0  0  0
   -3.9707   -0.0891   -1.3799 C   0  0  0  0  0  0  0  0  0  0  0  0
   -4.8658   -0.6767   -1.9831 O   0  0  0  0  0  0  0  0  0  0  0  0
   -4.0372    1.2403   -1.0773 N   0  0  0  0  0  0  0  0  0  0  0  0
   -5.1384    2.0651   -1.5019 C   0  0  0  0  0  0  0  0  0  0  0  0
   -4.9500    3.4391   -0.9796 C   0  0  0  0  0  0  0  0  0  0  0  0
   -4.0956    4.4725   -1.3138 C   0  0  0  0  0  0  0  0  0  0  0  0
   -4.4034    5.5451   -0.4415 C   0  0  0  0  0  0  0  0  0  0  0  0
   -5.4233    5.0999    0.3677 C   0  0  0  0  0  0  0  0  0  0  0  0
   -5.7618    3.8235    0.0492 O   0  0  0  0  0  0  0  0  0  0  0  0
   -2.6536   -2.1183   -1.1064 C   0  0  0  0  0  0  0  0  0  0  0  0
   -1.4935   -2.9051   -0.7254 C   0  0  0  0  0  0  0  0  0  0  0  0
   -1.4866   -4.3734   -0.9875 C   0  0  0  0  0  0  0  0  0  0  0  0
   -2.4593   -4.9101   -1.5219 O   0  0  0  0  0  0  0  0  0  0  0  0
   -0.3457   -5.0535   -0.5991 N   0  0  0  0  0  0  0  0  0  0  0  0
   -0.2615   -6.4262   -0.8101 C   0  0  0  0  0  0  0  0  0  0  0  0
    0.8214   -7.1286   -0.4553 C   0  0  0  0  0  0  0  0  0  0  0  0
    1.9363   -6.4611    0.1618 C   0  0  0  0  0  0  0  0  0  0  0  0
    1.8972   -5.1417    0.3840 C   0  0  0  0  0  0  0  0  0  0  0  0
    0.6929   -4.3570   -0.0115 C   0  0  0  0  0  0  0  0  0  0  0  0
    0.6851   -3.0822    0.2133 N   0  0  0  0  0  0  0  0  0  0  0  0
   -0.4174   -2.3345   -0.1373 C   0  0  0  0  0  0  0  0  0  0  0  0
    3.9856    0.1865    0.8535 C   0  0  0  0  0  0  0  0  0  0  0  0
    5.0507    0.8781    1.4344 C   0  0  0  0  0  0  0  0  0  0  0  0
    6.2235    4.6910    1.1451 H   0  0  0  0  0  0  0  0  0  0  0  0
    5.3851    4.6359    2.7449 H   0  0  0  0  0  0  0  0  0  0  0  0
    7.1466    4.5179    2.6435 H   0  0  0  0  0  0  0  0  0  0  0  0
    3.9550    4.0622    0.9229 H   0  0  0  0  0  0  0  0  0  0  0  0
    2.0985    2.8583   -0.0923 H   0  0  0  0  0  0  0  0  0  0  0  0
    1.2492    0.7910   -1.0477 H   0  0  0  0  0  0  0  0  0  0  0  0
    2.1291   -0.7083   -0.8918 H   0  0  0  0  0  0  0  0  0  0  0  0
    0.4566    0.4930    1.4099 H   0  0  0  0  0  0  0  0  0  0  0  0
    1.2407   -1.0414    1.4304 H   0  0  0  0  0  0  0  0  0  0  0  0
   -0.6910    1.5264    0.2206 H   0  0  0  0  0  0  0  0  0  0  0  0
   -3.2116    1.6647   -0.6478 H   0  0  0  0  0  0  0  0  0  0  0  0
   -6.0727    1.6199   -1.1419 H   0  0  0  0  0  0  0  0  0  0  0  0
   -5.1665    2.0678   -2.5974 H   0  0  0  0  0  0  0  0  0  0  0  0
   -3.3423    4.4474   -2.0902 H   0  0  0  0  0  0  0  0  0  0  0  0
   -3.9396    6.5214   -0.4050 H   0  0  0  0  0  0  0  0  0  0  0  0
   -5.9890    5.5436    1.1760 H   0  0  0  0  0  0  0  0  0  0  0  0
   -3.4875   -2.6587   -1.5529 H   0  0  0  0  0  0  0  0  0  0  0  0
   -1.1164   -6.9088   -1.2785 H   0  0  0  0  0  0  0  0  0  0  0  0
    0.8778   -8.1991   -0.6250 H   0  0  0  0  0  0  0  0  0  0  0  0
    2.8032   -7.0508    0.4415 H   0  0  0  0  0  0  0  0  0  0  0  0
    2.7145   -4.6026    0.8467 H   0  0  0  0  0  0  0  0  0  0  0  0
    4.0051   -0.9015    0.8378 H   0  0  0  0  0  0  0  0  0  0  0  0
    5.8831    0.3239    1.8619 H   0  0  0  0  0  0  0  0  0  0  0  0
  1  2  1  0
  2  3  1  0
  3  4  2  0
  4  5  1  0
  5  6  2  0
  6  7  1  0
  7  8  1  0
  8  9  1  0
  9 10  1  0
 10 11  2  3
 10 12  1  0
 12 13  1  0
 13 14  2  0
 13 15  1  0
 15 16  1  0
 16 17  1  0
 17 18  2  0
 18 19  1  0
 19 20  2  0
 20 21  1  0
 12 22  2  0
 22 23  1  0
 23 24  1  0
 24 25  2  0
 24 26  1  0
 26 27  1  0
 27 28  2  0
 28 29  1  0
 29 30  2  0
 30 31  1  0
 31 32  2  0
 32 33  1  0
  6 34  1  0
 34 35  2  0
 35  3  1  0
 33  9  1  0
 21 17  1  0
 33 23  2  0
 31 26  1  0
  1 36  1  0
  1 37  1  0
  1 38  1  0
  4 39  1  0
  5 40  1  0
  7 41  1  0
  7 42  1  0
  8 43  1  0
  8 44  1  0
 11 45  1  0
 15 46  1  0
 16 47  1  0
 16 48  1  0
 18 49  1  0
 19 50  1  0
 20 51  1  0
 22 52  1  0
 27 53  1  0
 28 54  1  0
 29 55  1  0
 30 56  1  0
 34 57  1  0
 35 58  1  0
M  END
$$$$
