
     RDKit          3D

 57 62  0  0  0  0  0  0  0  0999 V2000
    8.3952    0.2572   -2.5549 C   0  0  0  0  0  0  0  0  0  0  0  0
    7.9614   -0.2855   -1.3132 O   0  0  0  0  0  0  0  0  0  0  0  0
    6.6148   -0.3540   -1.0978 C   0  0  0  0  0  0  0  0  0  0  0  0
    5.6176    0.0466   -1.9836 C   0  0  0  0  0  0  0  0  0  0  0  0
    4.2669   -0.0812   -1.6307 C   0  0  0  0  0  0  0  0  0  0  0  0
    3.9044   -0.6095   -0.3856 C   0  0  0  0  0  0  0  0  0  0  0  0
    2.3867   -0.7504   -0.0029 C   0  0  0  0  0  0  0  0  0  0  0  0
    1.2998   -0.4494   -0.8155 C   0  0  0  0  0  0  0  0  0  0  0  0
    0.1232   -0.7388   -0.1261 N   0  0  0  0  0  4  0  0  0  0  0  0
   -1.2567   -0.5212   -0.5970 C   0  0  0  0  0  0  0  0  0  0  0  0
   -1.9627    0.5913    0.2116 C   0  0  0  0  0  0  0  0  0  0  0  0
   -1.3789    1.1546    1.1385 O   0  0  0  0  0  0  0  0  0  0  0  0
   -3.3137    0.7529   -0.1335 N   0  0  0  0  0  0  0  0  0  0  0  0
   -4.3563    0.7301    0.8659 C   0  0  0  0  0  0  0  0  0  0  0  0
   -4.0631    0.9486    2.2262 C   0  0  0  0  0  0  0  0  0  0  0  0
   -5.0570    0.9182    3.2117 C   0  0  0  0  0  0  0  0  0  0  0  0
   -6.3727    0.6522    2.8657 C   0  0  0  0  0  0  0  0  0  0  0  0
   -6.6897    0.4095    1.5345 C   0  0  0  0  0  0  0  0  0  0  0  0
   -5.6967    0.4441    0.5399 C   0  0  0  0  0  0  0  0  0  0  0  0
   -6.2119   -0.0095   -1.0978 S   0  0  0  0  0  0  0  0  0  0  0  0
   -4.9372    0.7785   -2.0346 C   0  0  0  0  0  0  0  0  0  0  0  0
   -5.2227    1.0926   -3.3734 C   0  0  0  0  0  0  0  0  0  0  0  0
   -4.2740    1.7170   -4.1791 C   0  0  0  0  0  0  0  0  0  0  0  0
   -3.0346    2.0439   -3.6485 C   0  0  0  0  0  0  0  0  0  0  0  0
   -2.7411    1.7242   -2.3202 C   0  0  0  0  0  0  0  0  0  0  0  0
   -3.6744    1.0588   -1.4950 C   0  0  0  0  0  0  0  0  0  0  0  0
    0.4680   -1.1777    1.0810 C   0  0  0  0  0  0  0  0  0  0  0  0
    1.7953   -1.1854    1.1692 N   0  0  0  0  0  0  0  0  0  0  0  0
    2.2497   -1.6256    2.4807 C   0  0  0  0  0  0  0  0  0  0  0  0
    0.9529   -1.6264    3.3352 C   0  0  0  0  0  0  0  0  0  0  0  0
   -0.2001   -1.6579    2.3131 C   0  0  0  0  0  0  0  0  0  0  0  0
    4.9028   -1.0145    0.4983 C   0  0  0  0  0  0  0  0  0  0  0  0
    6.2487   -0.8842    0.1402 C   0  0  0  0  0  0  0  0  0  0  0  0
    8.0504   -0.3552   -3.3946 H   0  0  0  0  0  0  0  0  0  0  0  0
    8.0699    1.2974   -2.6649 H   0  0  0  0  0  0  0  0  0  0  0  0
    9.4895    0.2476   -2.5609 H   0  0  0  0  0  0  0  0  0  0  0  0
    5.8576    0.4635   -2.9575 H   0  0  0  0  0  0  0  0  0  0  0  0
    3.5267    0.2482   -2.3539 H   0  0  0  0  0  0  0  0  0  0  0  0
    1.2151   -0.0671   -1.8183 H   0  0  0  0  0  0  0  0  0  0  0  0
   -1.8036   -1.4606   -0.4613 H   0  0  0  0  0  0  0  0  0  0  0  0
   -1.2155   -0.2866   -1.6618 H   0  0  0  0  0  0  0  0  0  0  0  0
   -3.0643    1.1965    2.5709 H   0  0  0  0  0  0  0  0  0  0  0  0
   -4.7993    1.1159    4.2500 H   0  0  0  0  0  0  0  0  0  0  0  0
   -7.1492    0.6297    3.6269 H   0  0  0  0  0  0  0  0  0  0  0  0
   -7.7236    0.1836    1.2764 H   0  0  0  0  0  0  0  0  0  0  0  0
   -6.1995    0.8620   -3.7972 H   0  0  0  0  0  0  0  0  0  0  0  0
   -4.5156    1.9688   -5.2096 H   0  0  0  0  0  0  0  0  0  0  0  0
   -2.3066    2.5717   -4.2611 H   0  0  0  0  0  0  0  0  0  0  0  0
   -1.7834    2.0649   -1.9320 H   0  0  0  0  0  0  0  0  0  0  0  0
    2.6635   -2.6339    2.3900 H   0  0  0  0  0  0  0  0  0  0  0  0
    2.9891   -0.9348    2.8922 H   0  0  0  0  0  0  0  0  0  0  0  0
    0.9141   -2.4536    4.0482 H   0  0  0  0  0  0  0  0  0  0  0  0
    0.9023   -0.6897    3.9025 H   0  0  0  0  0  0  0  0  0  0  0  0
   -0.5439   -2.6728    2.1024 H   0  0  0  0  0  0  0  0  0  0  0  0
   -1.0255   -0.9971    2.5735 H   0  0  0  0  0  0  0  0  0  0  0  0
    4.6818   -1.4454    1.4657 H   0  0  0  0  0  0  0  0  0  0  0  0
    7.0259   -1.2018    0.8335 H   0  0  0  0  0  0  0  0  0  0  0  0
  1  2  1  0
  2  3  1  0
  3  4  2  0
  4  5  1  0
  5  6  2  0
  6  7  1  0
  7  8  2  0
  8  9  1  0
  9 10  1  0
 10 11  1  0
 11 12  2  0
 11 13  1  0
 13 14  1  0
 14 15  2  0
 15 16  1  0
 16 17  2  0
 17 18  1  0
 18 19  2  0
 19 20  1  0
 20 21  1  0
 21 22  2  0
 22 23  1  0
 23 24  2  0
 24 25  1  0
 25 26  2  0
  9 27  2  0
 27 28  1  0
 28 29  1  0
 29 30  1  0
 30 31  1  0
  6 32  1  0
 32 33  2  0
 33  3  1  0
 28  7  1  0
 26 13  1  0
 31 27  1  0
 19 14  1  0
 26 21  1  0
  1 34  1  0
  1 35  1  0
  1 36  1  0
  4 37  1  0
  5 38  1  0
  8 39  1  0
 10 40  1  0
 10 41  1  0
 15 42  1  0
 16 43  1  0
 17 44  1  0
 18 45  1  0
 22 46  1  0
 23 47  1  0
 24 48  1  0
 25 49  1  0
 29 50  1  0
 29 51  1  0
 30 52  1  0
 30 53  1  0
 31 54  1  0
 31 55  1  0
 32 56  1  0
 33 57  1  0
M  CHG  1   9   1
M  END
$$$$
