
     RDKit          3D

 45 49  0  0  0  0  0  0  0  0999 V2000
    1.1157   -0.1789   -1.8690 O   0  0  0  0  0  0  0  0  0  0  0  0
    1.5736   -0.0933   -0.7389 C   0  0  0  0  0  0  0  0  0  0  0  0
    0.9284    0.3330    0.3877 O   0  0  0  0  0  0  0  0  0  0  0  0
   -0.4533    0.5019    0.1953 C   0  0  0  0  0  0  0  0  0  0  0  0
   -1.3409   -0.5169    0.3127 C   0  0  0  0  0  0  0  0  0  0  0  0
   -0.8642   -1.8738    0.6341 C   0  0  0  0  0  0  0  0  0  0  0  0
   -0.6723   -2.8130   -0.3867 C   0  0  0  0  0  0  0  0  0  0  0  0
   -0.1794   -4.0845   -0.0890 C   0  0  0  0  0  0  0  0  0  0  0  0
    0.1234   -4.4250    1.2287 C   0  0  0  0  0  0  0  0  0  0  0  0
   -0.0670   -3.4963    2.2512 C   0  0  0  0  0  0  0  0  0  0  0  0
   -0.5584   -2.2234    1.9561 C   0  0  0  0  0  0  0  0  0  0  0  0
   -2.8248   -0.2763    0.1116 C   0  0  0  0  0  0  0  0  0  0  0  0
   -3.6455   -1.1864    0.1944 O   0  0  0  0  0  0  0  0  0  0  0  0
   -3.1789    1.0207   -0.1538 N   0  0  0  0  0  0  0  0  0  0  0  0
   -2.2598    2.0503   -0.2362 C   0  0  0  0  0  0  0  0  0  0  0  0
   -2.8762    3.2624   -0.4992 C   0  0  0  0  0  0  0  0  0  0  0  0
   -2.1021    4.4000   -0.6069 C   0  0  0  0  0  0  0  0  0  0  0  0
   -0.7131    4.2729   -0.4426 C   0  0  0  0  0  0  0  0  0  0  0  0
   -0.1149    3.0209   -0.1755 C   0  0  0  0  0  0  0  0  0  0  0  0
   -0.9022    1.8746   -0.0693 C   0  0  0  0  0  0  0  0  0  0  0  0
   -4.3576    3.0724   -0.6203 C   0  0  0  0  0  0  0  0  0  0  0  0
   -4.5217    1.5497   -0.3830 C   0  0  0  0  0  0  0  0  0  0  0  0
    2.9869   -0.4275   -0.4116 C   0  0  0  0  0  0  0  0  0  0  0  0
    3.8811   -0.6289   -1.4752 C   0  0  0  0  0  0  0  0  0  0  0  0
    5.2159   -0.9515   -1.2207 C   0  0  0  0  0  0  0  0  0  0  0  0
    5.6518   -1.0768    0.0932 C   0  0  0  0  0  0  0  0  0  0  0  0
    6.9314   -1.3868    0.3370 F   0  0  0  0  0  0  0  0  0  0  0  0
    4.7785   -0.8883    1.1589 C   0  0  0  0  0  0  0  0  0  0  0  0
    3.4420   -0.5647    0.9097 C   0  0  0  0  0  0  0  0  0  0  0  0
   -0.9011   -2.5563   -1.4193 H   0  0  0  0  0  0  0  0  0  0  0  0
   -0.0358   -4.8091   -0.8862 H   0  0  0  0  0  0  0  0  0  0  0  0
    0.5016   -5.4177    1.4590 H   0  0  0  0  0  0  0  0  0  0  0  0
    0.1614   -3.7658    3.2790 H   0  0  0  0  0  0  0  0  0  0  0  0
   -0.7062   -1.5088    2.7623 H   0  0  0  0  0  0  0  0  0  0  0  0
   -2.5473    5.3680   -0.8139 H   0  0  0  0  0  0  0  0  0  0  0  0
   -0.0823    5.1562   -0.5255 H   0  0  0  0  0  0  0  0  0  0  0  0
    0.9640    2.9660   -0.0588 H   0  0  0  0  0  0  0  0  0  0  0  0
   -4.7140    3.3532   -1.6160 H   0  0  0  0  0  0  0  0  0  0  0  0
   -4.8947    3.6462    0.1410 H   0  0  0  0  0  0  0  0  0  0  0  0
   -4.9618    1.0451   -1.2500 H   0  0  0  0  0  0  0  0  0  0  0  0
   -5.1455    1.3361    0.4919 H   0  0  0  0  0  0  0  0  0  0  0  0
    3.5398   -0.5367   -2.5051 H   0  0  0  0  0  0  0  0  0  0  0  0
    5.9141   -1.1082   -2.0372 H   0  0  0  0  0  0  0  0  0  0  0  0
    5.1421   -0.9993    2.1759 H   0  0  0  0  0  0  0  0  0  0  0  0
    2.7690   -0.4353    1.7539 H   0  0  0  0  0  0  0  0  0  0  0  0
  1  2  2  0
  2  3  1  0
  3  4  1  0
  4  5  2  0
  5  6  1  0
  6  7  2  0
  7  8  1  0
  8  9  2  0
  9 10  1  0
 10 11  2  0
  5 12  1  0
 12 13  2  0
 12 14  1  0
 14 15  1  0
 15 16  2  0
 16 17  1  0
 17 18  2  0
 18 19  1  0
 19 20  2  0
 16 21  1  0
 21 22  1  0
  2 23  1  0
 23 24  2  0
 24 25  1  0
 25 26  2  0
 26 27  1  0
 26 28  1  0
 28 29  2  0
 20  4  1  0
 29 23  1  0
 11  6  1  0
 22 14  1  0
 20 15  1  0
  7 30  1  0
  8 31  1  0
  9 32  1  0
 10 33  1  0
 11 34  1  0
 17 35  1  0
 18 36  1  0
 19 37  1  0
 21 38  1  0
 21 39  1  0
 22 40  1  0
 22 41  1  0
 24 42  1  0
 25 43  1  0
 28 44  1  0
 29 45  1  0
M  END
$$$$
