
     RDKit          3D

 39 41  0  0  0  0  0  0  0  0999 V2000
   -1.7025    1.6114   -1.1398 C   0  0  0  0  0  0  0  0  0  0  0  0
   -1.4805    0.6070   -0.1552 O   0  0  0  0  0  0  0  0  0  0  0  0
   -2.5891    0.0204    0.3982 C   0  0  0  0  0  0  0  0  0  0  0  0
   -3.9033    0.1968   -0.0414 C   0  0  0  0  0  0  0  0  0  0  0  0
   -4.9685   -0.4520    0.6076 C   0  0  0  0  0  0  0  0  0  0  0  0
   -6.3742   -0.2793    0.1086 C   0  0  0  0  0  0  0  0  0  0  0  0
   -4.7043   -1.2995    1.6912 C   0  0  0  0  0  0  0  0  0  0  0  0
   -3.3969   -1.4860    2.1354 C   0  0  0  0  0  0  0  0  0  0  0  0
   -2.3508   -0.8400    1.4794 C   0  0  0  0  0  0  0  0  0  0  0  0
   -1.0736   -1.0117    1.9492 O   0  0  0  0  0  0  0  0  0  0  0  0
   -0.4681   -2.1657    1.3618 C   0  0  0  0  0  0  0  0  0  0  0  0
    0.9553   -1.8537    0.8936 C   0  0  0  0  0  0  0  0  0  0  0  0
    1.8199   -2.7256    0.9000 O   0  0  0  0  0  0  0  0  0  0  0  0
    1.0853   -0.5626    0.4371 N   0  0  0  0  0  0  0  0  0  0  0  0
    2.1980    0.0320   -0.0943 C   0  0  0  0  0  0  0  0  0  0  0  0
    2.1908    1.2728   -0.5342 N   0  0  0  0  0  0  0  0  0  0  0  0
    3.4223    1.6570   -1.0313 N   0  0  0  0  0  0  0  0  0  0  0  0
    4.3022    0.6863   -0.9290 C   0  0  0  0  0  0  0  0  0  0  0  0
    5.7749    0.8426   -1.4174 C   0  0  0  0  0  0  0  0  0  0  0  0
    6.4976    2.1425   -1.1697 C   0  0  0  0  0  0  0  0  0  0  0  0
    6.8862    0.9137   -0.4008 C   0  0  0  0  0  0  0  0  0  0  0  0
    3.7001   -0.7593   -0.2483 S   0  0  0  0  0  0  0  0  0  0  0  0
   -0.7301    2.0334   -1.4108 H   0  0  0  0  0  0  0  0  0  0  0  0
   -2.1425    1.1804   -2.0449 H   0  0  0  0  0  0  0  0  0  0  0  0
   -2.3212    2.4243   -0.7455 H   0  0  0  0  0  0  0  0  0  0  0  0
   -4.1307    0.8350   -0.8897 H   0  0  0  0  0  0  0  0  0  0  0  0
   -7.0971   -0.4095    0.9208 H   0  0  0  0  0  0  0  0  0  0  0  0
   -6.5856   -1.0144   -0.6739 H   0  0  0  0  0  0  0  0  0  0  0  0
   -6.5222    0.7263   -0.2988 H   0  0  0  0  0  0  0  0  0  0  0  0
   -5.5175   -1.8137    2.1992 H   0  0  0  0  0  0  0  0  0  0  0  0
   -3.1967   -2.1272    2.9888 H   0  0  0  0  0  0  0  0  0  0  0  0
   -0.4120   -2.9411    2.1336 H   0  0  0  0  0  0  0  0  0  0  0  0
   -1.0203   -2.5597    0.4980 H   0  0  0  0  0  0  0  0  0  0  0  0
    0.2638    0.0374    0.4767 H   0  0  0  0  0  0  0  0  0  0  0  0
    5.9831    0.3364   -2.3538 H   0  0  0  0  0  0  0  0  0  0  0  0
    5.9748    2.9318   -0.6403 H   0  0  0  0  0  0  0  0  0  0  0  0
    7.1717    2.4994   -1.9395 H   0  0  0  0  0  0  0  0  0  0  0  0
    6.6347    0.8791    0.6534 H   0  0  0  0  0  0  0  0  0  0  0  0
    7.8271    0.4352   -0.6467 H   0  0  0  0  0  0  0  0  0  0  0  0
  1  2  1  0
  2  3  1  0
  3  4  2  0
  4  5  1  0
  5  6  1  0
  5  7  2  0
  7  8  1  0
  8  9  2  0
  9 10  1  0
 10 11  1  0
 11 12  1  0
 12 13  2  0
 12 14  1  0
 14 15  1  0
 15 16  2  0
 16 17  1  0
 17 18  2  0
 18 19  1  0
 19 20  1  0
 20 21  1  0
 18 22  1  0
  9  3  1  0
 22 15  1  0
 21 19  1  0
  1 23  1  0
  1 24  1  0
  1 25  1  0
  4 26  1  0
  6 27  1  0
  6 28  1  0
  6 29  1  0
  7 30  1  0
  8 31  1  0
 11 32  1  0
 11 33  1  0
 14 34  1  0
 19 35  1  0
 20 36  1  0
 20 37  1  0
 21 38  1  0
 21 39  1  0
M  END
$$$$
