
     RDKit          3D

 58 61  0  0  0  0  0  0  0  0999 V2000
   -3.3582    5.8408   -0.6604 C   0  0  0  0  0  0  0  0  0  0  0  0
   -2.5435    4.6758   -0.6327 O   0  0  0  0  0  0  0  0  0  0  0  0
   -3.0987    3.5432   -0.1023 C   0  0  0  0  0  0  0  0  0  0  0  0
   -4.3957    3.4166    0.3761 C   0  0  0  0  0  0  0  0  0  0  0  0
   -4.8480    2.1989    0.8974 C   0  0  0  0  0  0  0  0  0  0  0  0
   -3.9732    1.0959    0.9307 C   0  0  0  0  0  0  0  0  0  0  0  0
   -4.3218   -0.4784    1.5233 S   0  0  0  0  0  0  0  0  0  0  0  0
   -2.7530   -1.0545    1.1641 C   0  0  0  0  0  0  0  0  0  0  0  0
   -2.4439   -2.4605    1.4564 C   0  0  0  0  0  0  0  0  0  0  0  0
   -2.5592   -3.4026    0.4209 C   0  0  0  0  0  0  0  0  0  0  0  0
   -2.2666   -4.7458    0.6491 C   0  0  0  0  0  0  0  0  0  0  0  0
   -1.8542   -5.1577    1.9126 C   0  0  0  0  0  0  0  0  0  0  0  0
   -1.7302   -4.2299    2.9512 C   0  0  0  0  0  0  0  0  0  0  0  0
   -2.0204   -2.8773    2.7355 C   0  0  0  0  0  0  0  0  0  0  0  0
   -1.9116   -1.8990    3.6920 O   0  0  0  0  0  0  0  0  0  0  0  0
   -1.5055   -2.2936    4.9945 C   0  0  0  0  0  0  0  0  0  0  0  0
   -1.9632   -0.0702    0.5930 C   0  0  0  0  0  0  0  0  0  0  0  0
   -0.5888   -0.3334    0.1821 C   0  0  0  0  0  0  0  0  0  0  0  0
    0.4135   -0.5230    1.1357 C   0  0  0  0  0  0  0  0  0  0  0  0
    1.7267   -0.7676    0.7274 C   0  0  0  0  0  0  0  0  0  0  0  0
    2.0580   -0.8208   -0.6299 C   0  0  0  0  0  0  0  0  0  0  0  0
    3.3782   -1.0694   -0.8758 O   0  0  0  0  0  0  0  0  0  0  0  0
    3.8450   -1.0985   -2.2252 C   0  0  0  0  0  0  0  0  0  0  0  0
    4.1641    0.3077   -2.7751 C   0  0  0  0  0  0  0  0  0  0  0  0
    5.1953    1.0645   -2.0339 N   0  0  0  0  0  0  0  0  0  0  0  0
    6.5116    0.4327   -2.1061 C   0  0  0  0  0  0  0  0  0  0  0  0
    5.2693    2.4387   -2.5336 C   0  0  0  0  0  0  0  0  0  0  0  0
    1.0565   -0.6257   -1.5809 C   0  0  0  0  0  0  0  0  0  0  0  0
   -0.2618   -0.3816   -1.1768 C   0  0  0  0  0  0  0  0  0  0  0  0
   -2.6648    1.1870    0.4546 C   0  0  0  0  0  0  0  0  0  0  0  0
   -2.2392    2.4388   -0.0632 C   0  0  0  0  0  0  0  0  0  0  0  0
   -3.6503    6.1434    0.3506 H   0  0  0  0  0  0  0  0  0  0  0  0
   -2.7655    6.6529   -1.0925 H   0  0  0  0  0  0  0  0  0  0  0  0
   -4.2355    5.6932   -1.2988 H   0  0  0  0  0  0  0  0  0  0  0  0
   -5.0933    4.2476    0.3632 H   0  0  0  0  0  0  0  0  0  0  0  0
   -5.8635    2.1073    1.2729 H   0  0  0  0  0  0  0  0  0  0  0  0
   -2.8775   -3.0867   -0.5700 H   0  0  0  0  0  0  0  0  0  0  0  0
   -2.3583   -5.4673   -0.1584 H   0  0  0  0  0  0  0  0  0  0  0  0
   -1.6233   -6.2049    2.0923 H   0  0  0  0  0  0  0  0  0  0  0  0
   -1.3997   -4.5967    3.9169 H   0  0  0  0  0  0  0  0  0  0  0  0
   -1.4856   -1.3984    5.6236 H   0  0  0  0  0  0  0  0  0  0  0  0
   -2.2210   -2.9945    5.4369 H   0  0  0  0  0  0  0  0  0  0  0  0
   -0.4941   -2.7129    4.9823 H   0  0  0  0  0  0  0  0  0  0  0  0
    0.1813   -0.4813    2.1972 H   0  0  0  0  0  0  0  0  0  0  0  0
    2.5023   -0.9141    1.4752 H   0  0  0  0  0  0  0  0  0  0  0  0
    3.1453   -1.6286   -2.8818 H   0  0  0  0  0  0  0  0  0  0  0  0
    4.7497   -1.7158   -2.2318 H   0  0  0  0  0  0  0  0  0  0  0  0
    3.2361    0.8911   -2.7510 H   0  0  0  0  0  0  0  0  0  0  0  0
    4.4542    0.2126   -3.8295 H   0  0  0  0  0  0  0  0  0  0  0  0
    6.8493    0.2996   -3.1401 H   0  0  0  0  0  0  0  0  0  0  0  0
    7.2585    1.0370   -1.5782 H   0  0  0  0  0  0  0  0  0  0  0  0
    6.5120   -0.5425   -1.6097 H   0  0  0  0  0  0  0  0  0  0  0  0
    5.9920    3.0226   -1.9526 H   0  0  0  0  0  0  0  0  0  0  0  0
    4.3029    2.9432   -2.4231 H   0  0  0  0  0  0  0  0  0  0  0  0
    5.5618    2.4785   -3.5892 H   0  0  0  0  0  0  0  0  0  0  0  0
    1.2588   -0.6518   -2.6450 H   0  0  0  0  0  0  0  0  0  0  0  0
   -1.0314   -0.2310   -1.9304 H   0  0  0  0  0  0  0  0  0  0  0  0
   -1.2217    2.5467   -0.4330 H   0  0  0  0  0  0  0  0  0  0  0  0
  1  2  1  0
  2  3  1  0
  3  4  2  0
  4  5  1  0
  5  6  2  0
  6  7  1  0
  7  8  1  0
  8  9  1  0
  9 10  2  0
 10 11  1  0
 11 12  2  0
 12 13  1  0
 13 14  2  0
 14 15  1  0
 15 16  1  0
  8 17  2  0
 17 18  1  0
 18 19  2  0
 19 20  1  0
 20 21  2  0
 21 22  1  0
 22 23  1  0
 23 24  1  0
 24 25  1  0
 25 26  1  0
 25 27  1  0
 21 28  1  0
 28 29  2  0
 17 30  1  0
 30 31  2  0
 31  3  1  0
 30  6  1  0
 14  9  1  0
 29 18  1  0
  1 32  1  0
  1 33  1  0
  1 34  1  0
  4 35  1  0
  5 36  1  0
 10 37  1  0
 11 38  1  0
 12 39  1  0
 13 40  1  0
 16 41  1  0
 16 42  1  0
 16 43  1  0
 19 44  1  0
 20 45  1  0
 23 46  1  0
 23 47  1  0
 24 48  1  0
 24 49  1  0
 26 50  1  0
 26 51  1  0
 26 52  1  0
 27 53  1  0
 27 54  1  0
 27 55  1  0
 28 56  1  0
 29 57  1  0
 31 58  1  0
M  END
$$$$
