
     RDKit          3D

 51 54  0  0  0  0  0  0  0  0999 V2000
   -3.5763   -4.3271    2.1488 C   0  0  0  0  0  0  0  0  0  0  0  0
   -2.2768   -4.3686    1.5706 O   0  0  0  0  0  0  0  0  0  0  0  0
   -1.7428   -3.1803    1.1513 C   0  0  0  0  0  0  0  0  0  0  0  0
   -2.2567   -1.9202    1.4427 C   0  0  0  0  0  0  0  0  0  0  0  0
   -1.6168   -0.7625    0.9574 C   0  0  0  0  0  0  0  0  0  0  0  0
   -2.1748    0.5557    1.2975 C   0  0  0  0  0  0  0  0  0  0  0  0
   -3.1918    0.6149    1.9874 O   0  0  0  0  0  0  0  0  0  0  0  0
   -1.5013    1.6664    0.8147 N   0  0  0  0  0  0  0  0  0  0  0  0
   -2.0602    2.9740    1.1269 C   0  0  0  0  0  0  0  0  0  0  0  0
   -3.0983    3.3241    0.1150 C   0  0  0  0  0  0  0  0  0  0  0  0
   -4.4409    3.0236   -0.0060 C   0  0  0  0  0  0  0  0  0  0  0  0
   -4.8860    3.6513   -1.1937 C   0  0  0  0  0  0  0  0  0  0  0  0
   -3.7903    4.2945   -1.7204 C   0  0  0  0  0  0  0  0  0  0  0  0
   -2.7010    4.1022   -0.9336 O   0  0  0  0  0  0  0  0  0  0  0  0
   -0.3387    1.6235    0.0611 C   0  0  0  0  0  0  0  0  0  0  0  0
    0.2691    2.6446   -0.2711 O   0  0  0  0  0  0  0  0  0  0  0  0
    0.1285    0.3645   -0.3070 N   0  0  0  0  0  0  0  0  0  0  0  0
    1.3412    0.3322   -1.1297 C   0  0  0  0  0  0  0  0  0  0  0  0
    2.6032    0.2502   -0.2710 C   0  0  0  0  0  0  0  0  0  0  0  0
    2.6172   -0.2721    0.8437 O   0  0  0  0  0  0  0  0  0  0  0  0
    3.8871    0.7683   -0.8311 C   0  0  0  0  0  0  0  0  0  0  0  0
    4.9558    0.9885    0.0530 C   0  0  0  0  0  0  0  0  0  0  0  0
    6.1856    1.4531   -0.4200 C   0  0  0  0  0  0  0  0  0  0  0  0
    6.3582    1.6975   -1.7812 C   0  0  0  0  0  0  0  0  0  0  0  0
    5.2997    1.4727   -2.6616 C   0  0  0  0  0  0  0  0  0  0  0  0
    5.5410    1.7911   -4.5112 Br  0  0  0  0  0  0  0  0  0  0  0  0
    4.0657    1.0078   -2.1987 C   0  0  0  0  0  0  0  0  0  0  0  0
   -0.4703   -0.8347    0.1666 C   0  0  0  0  0  0  0  0  0  0  0  0
    0.0489   -2.1047   -0.1142 C   0  0  0  0  0  0  0  0  0  0  0  0
   -0.5697   -3.2546    0.3920 C   0  0  0  0  0  0  0  0  0  0  0  0
   -0.0262   -4.4745    0.0686 O   0  0  0  0  0  0  0  0  0  0  0  0
    0.9464   -4.8407    1.0513 C   0  0  0  0  0  0  0  0  0  0  0  0
   -4.3007   -3.8617    1.4697 H   0  0  0  0  0  0  0  0  0  0  0  0
   -3.8977   -5.3588    2.3211 H   0  0  0  0  0  0  0  0  0  0  0  0
   -3.5583   -3.8176    3.1186 H   0  0  0  0  0  0  0  0  0  0  0  0
   -3.1471   -1.8037    2.0539 H   0  0  0  0  0  0  0  0  0  0  0  0
   -1.2771    3.7403    1.1458 H   0  0  0  0  0  0  0  0  0  0  0  0
   -2.5121    2.9574    2.1263 H   0  0  0  0  0  0  0  0  0  0  0  0
   -5.0189    2.4193    0.6819 H   0  0  0  0  0  0  0  0  0  0  0  0
   -5.8811    3.6371   -1.6151 H   0  0  0  0  0  0  0  0  0  0  0  0
   -3.6279    4.9002   -2.6017 H   0  0  0  0  0  0  0  0  0  0  0  0
    1.3747    1.2459   -1.7326 H   0  0  0  0  0  0  0  0  0  0  0  0
    1.3120   -0.5030   -1.8354 H   0  0  0  0  0  0  0  0  0  0  0  0
    4.8351    0.7988    1.1192 H   0  0  0  0  0  0  0  0  0  0  0  0
    7.0067    1.6219    0.2741 H   0  0  0  0  0  0  0  0  0  0  0  0
    7.3183    2.0570   -2.1444 H   0  0  0  0  0  0  0  0  0  0  0  0
    3.2710    0.8284   -2.9169 H   0  0  0  0  0  0  0  0  0  0  0  0
    0.9477   -2.2484   -0.7040 H   0  0  0  0  0  0  0  0  0  0  0  0
    1.2036   -5.8927    0.8888 H   0  0  0  0  0  0  0  0  0  0  0  0
    1.8608   -4.2417    0.9302 H   0  0  0  0  0  0  0  0  0  0  0  0
    0.5621   -4.7390    2.0751 H   0  0  0  0  0  0  0  0  0  0  0  0
  1  2  1  0
  2  3  1  0
  3  4  2  0
  4  5  1  0
  5  6  1  0
  6  7  2  0
  6  8  1  0
  8  9  1  0
  9 10  1  0
 10 11  2  0
 11 12  1  0
 12 13  2  0
 13 14  1  0
  8 15  1  0
 15 16  2  0
 15 17  1  0
 17 18  1  0
 18 19  1  0
 19 20  2  0
 19 21  1  0
 21 22  2  0
 22 23  1  0
 23 24  2  0
 24 25  1  0
 25 26  1  0
 25 27  2  0
 17 28  1  0
 28 29  1  0
 29 30  2  0
 30 31  1  0
 31 32  1  0
 30  3  1  0
 28  5  2  0
 14 10  1  0
 27 21  1  0
  1 33  1  0
  1 34  1  0
  1 35  1  0
  4 36  1  0
  9 37  1  0
  9 38  1  0
 11 39  1  0
 12 40  1  0
 13 41  1  0
 18 42  1  0
 18 43  1  0
 22 44  1  0
 23 45  1  0
 24 46  1  0
 27 47  1  0
 29 48  1  0
 32 49  1  0
 32 50  1  0
 32 51  1  0
M  END
$$$$
