
     RDKit          3D

 60 63  0  0  0  0  0  0  0  0999 V2000
    8.1084   -2.1494   -1.8878 C   0  0  0  0  0  0  0  0  0  0  0  0
    7.9031   -1.6374   -0.5776 O   0  0  0  0  0  0  0  0  0  0  0  0
    6.6414   -1.7470   -0.0611 C   0  0  0  0  0  0  0  0  0  0  0  0
    6.4926   -1.2385    1.2309 C   0  0  0  0  0  0  0  0  0  0  0  0
    5.2544   -1.2813    1.8754 C   0  0  0  0  0  0  0  0  0  0  0  0
    4.1411   -1.8406    1.2361 C   0  0  0  0  0  0  0  0  0  0  0  0
    2.7978   -1.8496    1.9200 C   0  0  0  0  0  0  0  0  0  0  0  0
    2.1353   -0.5795    1.7472 N   0  0  0  0  0  0  0  0  0  0  0  0
    2.1569    0.4036    2.7188 C   0  0  0  0  0  0  0  0  0  0  0  0
    2.6974    0.2452    3.8111 O   0  0  0  0  0  0  0  0  0  0  0  0
    1.6247    1.7655    2.2350 C   0  0  0  0  0  0  0  0  0  0  0  0
    1.3058    2.7174    3.3838 C   0  0  0  0  0  0  0  0  0  0  0  0
    0.5221    1.5967    1.2720 N   0  0  0  0  0  0  0  0  0  0  0  0
    0.8493    1.8557   -0.0694 N   0  0  0  0  0  0  0  0  0  0  0  0
   -0.0453    1.7675   -1.0143 C   0  0  0  0  0  0  0  0  0  0  0  0
    0.3769    2.0615   -2.4255 C   0  0  0  0  0  0  0  0  0  0  0  0
   -1.3941    1.3903   -0.6772 C   0  0  0  0  0  0  0  0  0  0  0  0
   -2.5734    1.2801   -1.3955 C   0  0  0  0  0  0  0  0  0  0  0  0
   -2.8745    1.6706   -2.7972 C   0  0  0  0  0  0  0  0  0  0  0  0
   -3.5119    0.7653   -0.4915 N   0  0  0  0  0  0  0  0  0  0  0  0
   -4.8321    0.2602   -0.7049 C   0  0  0  0  0  0  0  0  0  0  0  0
   -5.2863   -0.1478   -1.9633 C   0  0  0  0  0  0  0  0  0  0  0  0
   -6.5871   -0.6429   -2.1205 C   0  0  0  0  0  0  0  0  0  0  0  0
   -7.4534   -0.7411   -1.0271 C   0  0  0  0  0  0  0  0  0  0  0  0
   -8.8331   -1.3048   -1.1948 C   0  0  0  0  0  0  0  0  0  0  0  0
   -6.9886   -0.3715    0.2374 C   0  0  0  0  0  0  0  0  0  0  0  0
   -5.6904    0.1212    0.3988 C   0  0  0  0  0  0  0  0  0  0  0  0
   -3.0155    0.7703    0.7752 N   0  0  0  0  0  0  0  0  0  0  0  0
   -1.7265    1.0876    0.6461 C   0  0  0  0  0  0  0  0  0  0  0  0
   -0.7439    1.1604    1.7204 C   0  0  0  0  0  0  0  0  0  0  0  0
   -0.9936    0.8643    2.8850 O   0  0  0  0  0  0  0  0  0  0  0  0
    4.2922   -2.3445   -0.0624 C   0  0  0  0  0  0  0  0  0  0  0  0
    5.5352   -2.3021   -0.7055 C   0  0  0  0  0  0  0  0  0  0  0  0
    7.9223   -3.2280   -1.9237 H   0  0  0  0  0  0  0  0  0  0  0  0
    7.4935   -1.6178   -2.6206 H   0  0  0  0  0  0  0  0  0  0  0  0
    9.1569   -1.9832   -2.1515 H   0  0  0  0  0  0  0  0  0  0  0  0
    7.3473   -0.8018    1.7407 H   0  0  0  0  0  0  0  0  0  0  0  0
    5.1593   -0.8695    2.8793 H   0  0  0  0  0  0  0  0  0  0  0  0
    2.1511   -2.6163    1.4784 H   0  0  0  0  0  0  0  0  0  0  0  0
    2.9101   -2.0911    2.9832 H   0  0  0  0  0  0  0  0  0  0  0  0
    1.8834   -0.2903    0.8089 H   0  0  0  0  0  0  0  0  0  0  0  0
    2.4586    2.2148    1.6768 H   0  0  0  0  0  0  0  0  0  0  0  0
    0.6013    2.2847    4.1003 H   0  0  0  0  0  0  0  0  0  0  0  0
    2.2159    2.9596    3.9432 H   0  0  0  0  0  0  0  0  0  0  0  0
    0.8797    3.6540    3.0091 H   0  0  0  0  0  0  0  0  0  0  0  0
    0.0020    1.2901   -3.1031 H   0  0  0  0  0  0  0  0  0  0  0  0
   -0.0116    3.0377   -2.7264 H   0  0  0  0  0  0  0  0  0  0  0  0
    1.4683    2.0850   -2.4968 H   0  0  0  0  0  0  0  0  0  0  0  0
   -2.2467    2.5091   -3.1127 H   0  0  0  0  0  0  0  0  0  0  0  0
   -3.9048    2.0190   -2.9135 H   0  0  0  0  0  0  0  0  0  0  0  0
   -2.6885    0.8372   -3.4811 H   0  0  0  0  0  0  0  0  0  0  0  0
   -4.6500   -0.1468   -2.8398 H   0  0  0  0  0  0  0  0  0  0  0  0
   -6.9166   -0.9657   -3.1064 H   0  0  0  0  0  0  0  0  0  0  0  0
   -9.2289   -1.0779   -2.1899 H   0  0  0  0  0  0  0  0  0  0  0  0
   -9.5238   -0.8708   -0.4645 H   0  0  0  0  0  0  0  0  0  0  0  0
   -8.8127   -2.3905   -1.0608 H   0  0  0  0  0  0  0  0  0  0  0  0
   -7.6309   -0.4652    1.1108 H   0  0  0  0  0  0  0  0  0  0  0  0
   -5.3656    0.4027    1.4000 H   0  0  0  0  0  0  0  0  0  0  0  0
    3.4418   -2.7761   -0.5856 H   0  0  0  0  0  0  0  0  0  0  0  0
    5.6040   -2.7082   -1.7092 H   0  0  0  0  0  0  0  0  0  0  0  0
  1  2  1  0
  2  3  1  0
  3  4  2  0
  4  5  1  0
  5  6  2  0
  6  7  1  0
  7  8  1  0
  8  9  1  0
  9 10  2  0
  9 11  1  0
 11 12  1  0
 11 13  1  0
 13 14  1  0
 14 15  2  0
 15 16  1  0
 15 17  1  0
 17 18  2  0
 18 19  1  0
 18 20  1  0
 20 21  1  0
 21 22  2  0
 22 23  1  0
 23 24  2  0
 24 25  1  0
 24 26  1  0
 26 27  2  0
 20 28  1  0
 28 29  2  0
 29 30  1  0
 30 31  2  0
  6 32  1  0
 32 33  2  0
 33  3  1  0
 30 13  1  0
 29 17  1  0
 27 21  1  0
  1 34  1  0
  1 35  1  0
  1 36  1  0
  4 37  1  0
  5 38  1  0
  7 39  1  0
  7 40  1  0
  8 41  1  0
 11 42  1  0
 12 43  1  0
 12 44  1  0
 12 45  1  0
 16 46  1  0
 16 47  1  0
 16 48  1  0
 19 49  1  0
 19 50  1  0
 19 51  1  0
 22 52  1  0
 23 53  1  0
 25 54  1  0
 25 55  1  0
 25 56  1  0
 26 57  1  0
 27 58  1  0
 32 59  1  0
 33 60  1  0
M  END
$$$$
