
     RDKit          3D

 58 61  0  0  0  0  0  0  0  0999 V2000
   -5.2033    5.0172   -0.0548 C   0  0  0  0  0  0  0  0  0  0  0  0
   -5.0416    3.6091   -0.1674 O   0  0  0  0  0  0  0  0  0  0  0  0
   -3.9655    3.0566    0.4719 C   0  0  0  0  0  0  0  0  0  0  0  0
   -3.0129    3.7481    1.2205 C   0  0  0  0  0  0  0  0  0  0  0  0
   -1.9563    3.0579    1.8198 C   0  0  0  0  0  0  0  0  0  0  0  0
   -1.8479    1.6747    1.6739 C   0  0  0  0  0  0  0  0  0  0  0  0
   -2.7964    0.9662    0.9274 C   0  0  0  0  0  0  0  0  0  0  0  0
   -2.6715   -0.4869    0.7582 C   0  0  0  0  0  0  0  0  0  0  0  0
   -3.8870   -1.4891    1.4266 S   0  0  0  0  0  0  0  0  0  0  0  0
   -3.1154   -2.9303    0.9045 C   0  0  0  0  0  0  0  0  0  0  0  0
   -3.5655   -4.2495    1.1055 C   0  0  0  0  0  0  0  0  0  0  0  0
   -2.8095   -5.3153    0.6045 C   0  0  0  0  0  0  0  0  0  0  0  0
   -1.6291   -5.0810   -0.0869 C   0  0  0  0  0  0  0  0  0  0  0  0
   -0.8076   -6.0344   -0.6237 O   0  0  0  0  0  0  0  0  0  0  0  0
   -1.2183   -7.3892   -0.4896 C   0  0  0  0  0  0  0  0  0  0  0  0
   -1.1931   -3.7645   -0.2790 C   0  0  0  0  0  0  0  0  0  0  0  0
   -1.9305   -2.6585    0.2208 C   0  0  0  0  0  0  0  0  0  0  0  0
   -1.6771   -1.2349    0.1447 C   0  0  0  0  0  0  0  0  0  0  0  0
   -0.5229   -0.6079   -0.4937 C   0  0  0  0  0  0  0  0  0  0  0  0
    0.7593   -0.8069    0.0298 C   0  0  0  0  0  0  0  0  0  0  0  0
    1.8735   -0.2122   -0.5743 C   0  0  0  0  0  0  0  0  0  0  0  0
    1.7155    0.5846   -1.7081 C   0  0  0  0  0  0  0  0  0  0  0  0
    2.7068    1.2287   -2.3934 O   0  0  0  0  0  0  0  0  0  0  0  0
    4.0631    1.0572   -1.9686 C   0  0  0  0  0  0  0  0  0  0  0  0
    4.4211    2.0678   -0.8649 C   0  0  0  0  0  0  0  0  0  0  0  0
    5.8396    2.0348   -0.4584 N   0  0  0  0  0  0  0  0  0  0  0  0
    6.1490    3.2068    0.3659 C   0  0  0  0  0  0  0  0  0  0  0  0
    6.1650    0.8135    0.2812 C   0  0  0  0  0  0  0  0  0  0  0  0
    0.4335    0.7793   -2.2301 C   0  0  0  0  0  0  0  0  0  0  0  0
   -0.6812    0.1864   -1.6320 C   0  0  0  0  0  0  0  0  0  0  0  0
   -3.8517    1.6699    0.3297 C   0  0  0  0  0  0  0  0  0  0  0  0
   -4.3551    5.5488   -0.4987 H   0  0  0  0  0  0  0  0  0  0  0  0
   -5.3559    5.3151    0.9879 H   0  0  0  0  0  0  0  0  0  0  0  0
   -6.1009    5.2964   -0.6151 H   0  0  0  0  0  0  0  0  0  0  0  0
   -3.0613    4.8232    1.3561 H   0  0  0  0  0  0  0  0  0  0  0  0
   -1.2141    3.5998    2.4004 H   0  0  0  0  0  0  0  0  0  0  0  0
   -1.0187    1.1526    2.1457 H   0  0  0  0  0  0  0  0  0  0  0  0
   -4.4909   -4.4399    1.6424 H   0  0  0  0  0  0  0  0  0  0  0  0
   -3.1819   -6.3201    0.7758 H   0  0  0  0  0  0  0  0  0  0  0  0
   -0.4679   -8.0161   -0.9808 H   0  0  0  0  0  0  0  0  0  0  0  0
   -2.1767   -7.5631   -0.9899 H   0  0  0  0  0  0  0  0  0  0  0  0
   -1.2617   -7.6855    0.5636 H   0  0  0  0  0  0  0  0  0  0  0  0
   -0.2707   -3.5899   -0.8289 H   0  0  0  0  0  0  0  0  0  0  0  0
    0.9001   -1.4235    0.9151 H   0  0  0  0  0  0  0  0  0  0  0  0
    2.8446   -0.3924   -0.1271 H   0  0  0  0  0  0  0  0  0  0  0  0
    4.6852    1.2657   -2.8476 H   0  0  0  0  0  0  0  0  0  0  0  0
    4.2691    0.0163   -1.6994 H   0  0  0  0  0  0  0  0  0  0  0  0
    4.1806    3.0634   -1.2628 H   0  0  0  0  0  0  0  0  0  0  0  0
    3.7638    1.9381    0.0042 H   0  0  0  0  0  0  0  0  0  0  0  0
    7.2095    3.2150    0.6418 H   0  0  0  0  0  0  0  0  0  0  0  0
    5.5522    3.2351    1.2850 H   0  0  0  0  0  0  0  0  0  0  0  0
    5.9668    4.1311   -0.1937 H   0  0  0  0  0  0  0  0  0  0  0  0
    6.0420   -0.0747   -0.3459 H   0  0  0  0  0  0  0  0  0  0  0  0
    5.5446    0.6949    1.1770 H   0  0  0  0  0  0  0  0  0  0  0  0
    7.2162    0.8212    0.5915 H   0  0  0  0  0  0  0  0  0  0  0  0
    0.3003    1.3992   -3.1137 H   0  0  0  0  0  0  0  0  0  0  0  0
   -1.6667    0.3514   -2.0609 H   0  0  0  0  0  0  0  0  0  0  0  0
   -4.5947    1.1396   -0.2623 H   0  0  0  0  0  0  0  0  0  0  0  0
  1  2  1  0
  2  3  1  0
  3  4  2  0
  4  5  1  0
  5  6  2  0
  6  7  1  0
  7  8  1  0
  8  9  1  0
  9 10  1  0
 10 11  2  0
 11 12  1  0
 12 13  2  0
 13 14  1  0
 14 15  1  0
 13 16  1  0
 16 17  2  0
 17 18  1  0
 18 19  1  0
 19 20  2  0
 20 21  1  0
 21 22  2  0
 22 23  1  0
 23 24  1  0
 24 25  1  0
 25 26  1  0
 26 27  1  0
 26 28  1  0
 22 29  1  0
 29 30  2  0
  7 31  2  0
 31  3  1  0
 18  8  2  0
 30 19  1  0
 17 10  1  0
  1 32  1  0
  1 33  1  0
  1 34  1  0
  4 35  1  0
  5 36  1  0
  6 37  1  0
 11 38  1  0
 12 39  1  0
 15 40  1  0
 15 41  1  0
 15 42  1  0
 16 43  1  0
 20 44  1  0
 21 45  1  0
 24 46  1  0
 24 47  1  0
 25 48  1  0
 25 49  1  0
 27 50  1  0
 27 51  1  0
 27 52  1  0
 28 53  1  0
 28 54  1  0
 28 55  1  0
 29 56  1  0
 30 57  1  0
 31 58  1  0
M  END
$$$$
