
     RDKit          3D

 64 69  0  0  0  0  0  0  0  0999 V2000
   -5.8630    3.1710    4.6026 C   0  0  0  0  0  0  0  0  0  0  0  0
   -5.2151    3.5199    3.3860 O   0  0  0  0  0  0  0  0  0  0  0  0
   -4.9192    2.4973    2.5278 C   0  0  0  0  0  0  0  0  0  0  0  0
   -4.3190    2.8943    1.3313 C   0  0  0  0  0  0  0  0  0  0  0  0
   -3.9649    1.9511    0.3625 C   0  0  0  0  0  0  0  0  0  0  0  0
   -4.2064    0.5897    0.5774 C   0  0  0  0  0  0  0  0  0  0  0  0
   -3.8228   -0.4031   -0.4356 C   0  0  0  0  0  0  0  0  0  0  0  0
   -5.0547   -1.3527   -1.1488 S   0  0  0  0  0  0  0  0  0  0  0  0
   -3.9551   -2.1891   -2.1698 C   0  0  0  0  0  0  0  0  0  0  0  0
   -4.2830   -3.1992   -3.1012 C   0  0  0  0  0  0  0  0  0  0  0  0
   -3.2368   -3.7428   -3.8173 C   0  0  0  0  0  0  0  0  0  0  0  0
   -1.9430   -3.3351   -3.6436 C   0  0  0  0  0  0  0  0  0  0  0  0
   -1.6002   -2.3493   -2.7389 C   0  0  0  0  0  0  0  0  0  0  0  0
   -2.6377   -1.7463   -1.9734 C   0  0  0  0  0  0  0  0  0  0  0  0
   -2.5778   -0.7056   -0.9670 C   0  0  0  0  0  0  0  0  0  0  0  0
   -1.3639   -0.0264   -0.5235 C   0  0  0  0  0  0  0  0  0  0  0  0
   -0.8669   -0.2285    0.7681 C   0  0  0  0  0  0  0  0  0  0  0  0
    0.3018    0.4187    1.1876 C   0  0  0  0  0  0  0  0  0  0  0  0
    0.9853    1.2674    0.3177 C   0  0  0  0  0  0  0  0  0  0  0  0
    2.1284    1.9626    0.5893 O   0  0  0  0  0  0  0  0  0  0  0  0
    2.8200    1.7195    1.8154 C   0  0  0  0  0  0  0  0  0  0  0  0
    3.6976    0.4504    1.7680 C   0  0  0  0  0  0  0  0  0  0  0  0
    4.6974    0.4000    0.6793 N   0  0  0  0  0  0  0  0  0  0  0  0
    5.7204    1.4471    0.8082 C   0  0  0  0  0  0  0  0  0  0  0  0
    6.7223    1.3990   -0.3481 C   0  0  0  0  0  0  0  0  0  0  0  0
    7.3651    0.0242   -0.4754 C   0  0  0  0  0  0  0  0  0  0  0  0
    6.2920   -1.0543   -0.5458 C   0  0  0  0  0  0  0  0  0  0  0  0
    5.3115   -0.9363    0.6211 C   0  0  0  0  0  0  0  0  0  0  0  0
    0.4843    1.4677   -0.9719 C   0  0  0  0  0  0  0  0  0  0  0  0
   -0.6806    0.8245   -1.3959 C   0  0  0  0  0  0  0  0  0  0  0  0
   -1.0728   -4.0039   -4.4477 O   0  0  0  0  0  0  0  0  0  0  0  0
   -1.9742   -4.8825   -5.1513 C   0  0  0  0  0  0  0  0  0  0  0  0
   -3.3518   -4.7230   -4.7548 O   0  0  0  0  0  0  0  0  0  0  0  0
   -4.8055    0.1950    1.7816 C   0  0  0  0  0  0  0  0  0  0  0  0
   -5.1604    1.1420    2.7508 C   0  0  0  0  0  0  0  0  0  0  0  0
   -5.2252    2.5285    5.2186 H   0  0  0  0  0  0  0  0  0  0  0  0
   -6.0441    4.0942    5.1615 H   0  0  0  0  0  0  0  0  0  0  0  0
   -6.8336    2.7007    4.4130 H   0  0  0  0  0  0  0  0  0  0  0  0
   -4.1247    3.9486    1.1497 H   0  0  0  0  0  0  0  0  0  0  0  0
   -3.5004    2.2906   -0.5603 H   0  0  0  0  0  0  0  0  0  0  0  0
   -5.3042   -3.5317   -3.2453 H   0  0  0  0  0  0  0  0  0  0  0  0
   -0.5642   -2.0487   -2.6183 H   0  0  0  0  0  0  0  0  0  0  0  0
   -1.3850   -0.8901    1.4587 H   0  0  0  0  0  0  0  0  0  0  0  0
    0.6430    0.2338    2.1993 H   0  0  0  0  0  0  0  0  0  0  0  0
    3.4481    2.5976    2.0002 H   0  0  0  0  0  0  0  0  0  0  0  0
    2.1297    1.6902    2.6664 H   0  0  0  0  0  0  0  0  0  0  0  0
    3.0257   -0.4078    1.6474 H   0  0  0  0  0  0  0  0  0  0  0  0
    4.1928    0.3306    2.7404 H   0  0  0  0  0  0  0  0  0  0  0  0
    5.2584    2.4396    0.7910 H   0  0  0  0  0  0  0  0  0  0  0  0
    6.2547    1.3508    1.7624 H   0  0  0  0  0  0  0  0  0  0  0  0
    7.4992    2.1569   -0.1954 H   0  0  0  0  0  0  0  0  0  0  0  0
    6.2108    1.6509   -1.2862 H   0  0  0  0  0  0  0  0  0  0  0  0
    8.0149   -0.1593    0.3890 H   0  0  0  0  0  0  0  0  0  0  0  0
    7.9975   -0.0147   -1.3690 H   0  0  0  0  0  0  0  0  0  0  0  0
    5.7470   -0.9680   -1.4946 H   0  0  0  0  0  0  0  0  0  0  0  0
    6.7618   -2.0444   -0.5362 H   0  0  0  0  0  0  0  0  0  0  0  0
    4.5341   -1.6978    0.4846 H   0  0  0  0  0  0  0  0  0  0  0  0
    5.8299   -1.1651    1.5616 H   0  0  0  0  0  0  0  0  0  0  0  0
    1.0132    2.1288   -1.6546 H   0  0  0  0  0  0  0  0  0  0  0  0
   -1.0474    0.9966   -2.4048 H   0  0  0  0  0  0  0  0  0  0  0  0
   -1.8926   -4.6822   -6.2259 H   0  0  0  0  0  0  0  0  0  0  0  0
   -1.6725   -5.9193   -4.9626 H   0  0  0  0  0  0  0  0  0  0  0  0
   -4.9973   -0.8576    1.9788 H   0  0  0  0  0  0  0  0  0  0  0  0
   -5.6206    0.7851    3.6658 H   0  0  0  0  0  0  0  0  0  0  0  0
  1  2  1  0
  2  3  1  0
  3  4  2  0
  4  5  1  0
  5  6  2  0
  6  7  1  0
  7  8  1  0
  8  9  1  0
  9 10  2  0
 10 11  1  0
 11 12  2  0
 12 13  1  0
 13 14  2  0
 14 15  1  0
 15 16  1  0
 16 17  2  0
 17 18  1  0
 18 19  2  0
 19 20  1  0
 20 21  1  0
 21 22  1  0
 22 23  1  0
 23 24  1  0
 24 25  1  0
 25 26  1  0
 26 27  1  0
 27 28  1  0
 19 29  1  0
 29 30  2  0
 12 31  1  0
 31 32  1  0
 32 33  1  0
  6 34  1  0
 34 35  2  0
 35  3  1  0
 15  7  2  0
 30 16  1  0
 14  9  1  0
 28 23  1  0
 33 11  1  0
  1 36  1  0
  1 37  1  0
  1 38  1  0
  4 39  1  0
  5 40  1  0
 10 41  1  0
 13 42  1  0
 17 43  1  0
 18 44  1  0
 21 45  1  0
 21 46  1  0
 22 47  1  0
 22 48  1  0
 24 49  1  0
 24 50  1  0
 25 51  1  0
 25 52  1  0
 26 53  1  0
 26 54  1  0
 27 55  1  0
 27 56  1  0
 28 57  1  0
 28 58  1  0
 29 59  1  0
 30 60  1  0
 32 61  1  0
 32 62  1  0
 34 63  1  0
 35 64  1  0
M  END
$$$$
