
     RDKit          3D

 61 63  0  0  0  0  0  0  0  0999 V2000
   -8.1225    2.1383   -1.9968 C   0  0  0  0  0  0  0  0  0  0  0  0
   -8.0703    2.0224   -0.5808 O   0  0  0  0  0  0  0  0  0  0  0  0
   -7.4586    0.9086   -0.0748 C   0  0  0  0  0  0  0  0  0  0  0  0
   -6.8817   -0.1207   -0.8177 C   0  0  0  0  0  0  0  0  0  0  0  0
   -6.2885   -1.2095   -0.1685 C   0  0  0  0  0  0  0  0  0  0  0  0
   -6.2691   -1.2873    1.2310 C   0  0  0  0  0  0  0  0  0  0  0  0
   -5.6109   -2.4533    1.9206 C   0  0  0  0  0  0  0  0  0  0  0  0
   -4.1955   -2.2353    2.0647 N   0  0  0  0  0  0  0  0  0  0  0  0
   -3.2811   -2.7107    1.1559 C   0  0  0  0  0  0  0  0  0  0  0  0
   -3.5104   -3.4574    0.2146 O   0  0  0  0  0  0  0  0  0  0  0  0
   -1.8450   -2.1945    1.4031 C   0  0  0  0  0  0  0  0  0  0  0  0
   -1.6229   -1.3917    2.2979 O   0  0  0  0  0  0  0  0  0  0  0  0
   -0.9148   -2.6990    0.5251 N   0  0  0  0  0  0  0  0  0  0  0  0
    0.4417   -2.1805    0.4736 C   0  0  0  0  0  0  0  0  0  0  0  0
    0.5318   -0.7406   -0.0768 C   0  0  0  0  0  0  0  0  0  0  0  0
   -0.1138   -0.7009   -1.3747 O   0  0  0  0  0  0  0  0  0  0  0  0
    0.8780   -0.3563   -2.3442 C   0  0  0  0  0  0  0  0  0  0  0  0
    1.9309    0.3989   -1.5700 C   0  0  0  0  0  0  0  0  0  0  0  0
    1.9414   -0.3368   -0.2976 N   0  0  0  0  0  0  0  0  0  0  0  0
    2.6523    0.4252    1.0317 S   0  0  0  0  0  6  0  0  0  0  0  0
    2.6405   -0.5009    2.1413 O   0  0  0  0  0  0  0  0  0  0  0  0
    2.0778    1.7483    1.1439 O   0  0  0  0  0  0  0  0  0  0  0  0
    4.3400    0.5925    0.5052 C   0  0  0  0  0  0  0  0  0  0  0  0
    5.1363   -0.5498    0.4166 C   0  0  0  0  0  0  0  0  0  0  0  0
    6.4604   -0.4331   -0.0079 C   0  0  0  0  0  0  0  0  0  0  0  0
    6.9897    0.8217   -0.3352 C   0  0  0  0  0  0  0  0  0  0  0  0
    8.2757    1.0298   -0.7687 O   0  0  0  0  0  0  0  0  0  0  0  0
    9.1442   -0.0926   -0.8255 C   0  0  0  0  0  0  0  0  0  0  0  0
    6.1808    1.9749   -0.2256 C   0  0  0  0  0  0  0  0  0  0  0  0
    6.7769    3.1642   -0.5666 O   0  0  0  0  0  0  0  0  0  0  0  0
    6.0662    4.3619   -0.2848 C   0  0  0  0  0  0  0  0  0  0  0  0
    4.8536    1.8550    0.1962 C   0  0  0  0  0  0  0  0  0  0  0  0
   -6.8382   -0.2448    1.9711 C   0  0  0  0  0  0  0  0  0  0  0  0
   -7.4307    0.8402    1.3199 C   0  0  0  0  0  0  0  0  0  0  0  0
   -8.6941    1.3162   -2.4398 H   0  0  0  0  0  0  0  0  0  0  0  0
   -8.6415    3.0713   -2.2369 H   0  0  0  0  0  0  0  0  0  0  0  0
   -7.1165    2.1976   -2.4247 H   0  0  0  0  0  0  0  0  0  0  0  0
   -6.8716   -0.1091   -1.9022 H   0  0  0  0  0  0  0  0  0  0  0  0
   -5.8346   -2.0006   -0.7638 H   0  0  0  0  0  0  0  0  0  0  0  0
   -5.7996   -3.3784    1.3638 H   0  0  0  0  0  0  0  0  0  0  0  0
   -6.0270   -2.5880    2.9251 H   0  0  0  0  0  0  0  0  0  0  0  0
   -3.8607   -1.5226    2.7069 H   0  0  0  0  0  0  0  0  0  0  0  0
   -1.2898   -3.2009   -0.2760 H   0  0  0  0  0  0  0  0  0  0  0  0
    0.8626   -2.2367    1.4820 H   0  0  0  0  0  0  0  0  0  0  0  0
    1.0045   -2.8672   -0.1688 H   0  0  0  0  0  0  0  0  0  0  0  0
   -0.0057   -0.0299    0.5597 H   0  0  0  0  0  0  0  0  0  0  0  0
    1.2778   -1.2855   -2.7655 H   0  0  0  0  0  0  0  0  0  0  0  0
    0.4315    0.2350   -3.1479 H   0  0  0  0  0  0  0  0  0  0  0  0
    1.6136    1.4365   -1.4193 H   0  0  0  0  0  0  0  0  0  0  0  0
    2.8978    0.3747   -2.0773 H   0  0  0  0  0  0  0  0  0  0  0  0
    4.7327   -1.5269    0.6741 H   0  0  0  0  0  0  0  0  0  0  0  0
    7.0543   -1.3390   -0.0725 H   0  0  0  0  0  0  0  0  0  0  0  0
    9.2725   -0.5445    0.1636 H   0  0  0  0  0  0  0  0  0  0  0  0
    8.7900   -0.8283   -1.5550 H   0  0  0  0  0  0  0  0  0  0  0  0
   10.1250    0.2597   -1.1595 H   0  0  0  0  0  0  0  0  0  0  0  0
    5.1731    4.4437   -0.9121 H   0  0  0  0  0  0  0  0  0  0  0  0
    6.7211    5.2040   -0.5283 H   0  0  0  0  0  0  0  0  0  0  0  0
    5.8124    4.4340    0.7779 H   0  0  0  0  0  0  0  0  0  0  0  0
    4.2082    2.7227    0.2847 H   0  0  0  0  0  0  0  0  0  0  0  0
   -6.8264   -0.2666    3.0583 H   0  0  0  0  0  0  0  0  0  0  0  0
   -7.8735    1.6426    1.9051 H   0  0  0  0  0  0  0  0  0  0  0  0
  1  2  1  0
  2  3  1  0
  3  4  2  0
  4  5  1  0
  5  6  2  0
  6  7  1  0
  7  8  1  0
  8  9  1  0
  9 10  2  0
  9 11  1  0
 11 12  2  0
 11 13  1  0
 13 14  1  0
 14 15  1  0
 15 16  1  0
 16 17  1  0
 17 18  1  0
 18 19  1  0
 19 20  1  0
 20 21  2  0
 20 22  2  0
 20 23  1  0
 23 24  2  0
 24 25  1  0
 25 26  2  0
 26 27  1  0
 27 28  1  0
 26 29  1  0
 29 30  1  0
 30 31  1  0
 29 32  2  0
  6 33  1  0
 33 34  2  0
 34  3  1  0
 19 15  1  0
 32 23  1  0
  1 35  1  0
  1 36  1  0
  1 37  1  0
  4 38  1  0
  5 39  1  0
  7 40  1  0
  7 41  1  0
  8 42  1  0
 13 43  1  0
 14 44  1  0
 14 45  1  0
 15 46  1  0
 17 47  1  0
 17 48  1  0
 18 49  1  0
 18 50  1  0
 24 51  1  0
 25 52  1  0
 28 53  1  0
 28 54  1  0
 28 55  1  0
 31 56  1  0
 31 57  1  0
 31 58  1  0
 32 59  1  0
 33 60  1  0
 34 61  1  0
M  END
$$$$
