
     RDKit          3D

 54 57  0  0  0  0  0  0  0  0999 V2000
   -5.7859    3.2529   -1.1008 C   0  0  0  0  0  0  0  0  0  0  0  0
   -5.1633    2.1425   -1.7343 O   0  0  0  0  0  0  0  0  0  0  0  0
   -3.9883    1.7036   -1.1899 C   0  0  0  0  0  0  0  0  0  0  0  0
   -3.4218    2.1441    0.0078 C   0  0  0  0  0  0  0  0  0  0  0  0
   -2.2108    1.6049    0.4565 C   0  0  0  0  0  0  0  0  0  0  0  0
   -1.5654    0.6123   -0.2887 C   0  0  0  0  0  0  0  0  0  0  0  0
   -0.3397    0.0602    0.1605 N   0  0  0  0  0  0  0  0  0  0  0  0
    0.0071   -1.2854    0.2292 C   0  0  0  0  0  0  0  0  0  0  0  0
   -0.9383   -2.4372    0.0923 C   0  0  0  0  0  0  0  0  0  0  0  0
   -1.7905   -2.6097    1.3203 C   0  0  0  0  0  0  0  0  0  0  0  0
   -1.3908   -2.6611    2.6479 C   0  0  0  0  0  0  0  0  0  0  0  0
   -2.5429   -2.8261    3.4478 C   0  0  0  0  0  0  0  0  0  0  0  0
   -3.6201   -2.8947    2.5957 C   0  0  0  0  0  0  0  0  0  0  0  0
   -3.1597   -2.7821    1.3074 N   0  0  0  0  0  0  0  0  0  0  0  0
   -4.0069   -2.8623    0.1388 C   0  0  0  0  0  0  0  0  0  0  0  0
    1.2668   -1.3961    0.6160 N   0  0  0  0  0  0  0  0  0  0  0  0
    1.7381   -0.1498    0.8958 N   0  0  0  0  0  0  0  0  0  0  0  0
    0.7858    0.7152    0.6289 C   0  0  0  0  0  0  0  0  0  0  0  0
    1.0076    2.4381    0.6731 S   0  0  0  0  0  0  0  0  0  0  0  0
    2.6562    2.5728    1.4282 C   0  0  0  0  0  0  0  0  0  0  0  0
    3.7545    2.4020    0.3865 C   0  0  0  0  0  0  0  0  0  0  0  0
    4.2594    3.3792   -0.1586 O   0  0  0  0  0  0  0  0  0  0  0  0
    4.0884    1.0799    0.1500 N   0  0  0  0  0  0  0  0  0  0  0  0
    5.0715    0.5753   -0.7214 C   0  0  0  0  0  0  0  0  0  0  0  0
    6.0185    1.3684   -1.3731 C   0  0  0  0  0  0  0  0  0  0  0  0
    6.9642    0.7901   -2.2303 C   0  0  0  0  0  0  0  0  0  0  0  0
    6.9718   -0.5871   -2.4316 C   0  0  0  0  0  0  0  0  0  0  0  0
    6.0325   -1.3729   -1.7785 C   0  0  0  0  0  0  0  0  0  0  0  0
    6.0329   -2.6978   -1.9732 F   0  0  0  0  0  0  0  0  0  0  0  0
    5.0879   -0.8084   -0.9259 C   0  0  0  0  0  0  0  0  0  0  0  0
   -2.1260    0.1726   -1.4933 C   0  0  0  0  0  0  0  0  0  0  0  0
   -3.3334    0.7192   -1.9345 C   0  0  0  0  0  0  0  0  0  0  0  0
   -6.0934    3.0054   -0.0816 H   0  0  0  0  0  0  0  0  0  0  0  0
   -6.6862    3.5009   -1.6711 H   0  0  0  0  0  0  0  0  0  0  0  0
   -5.1300    4.1309   -1.1126 H   0  0  0  0  0  0  0  0  0  0  0  0
   -3.8996    2.9011    0.6211 H   0  0  0  0  0  0  0  0  0  0  0  0
   -1.8145    1.9510    1.4075 H   0  0  0  0  0  0  0  0  0  0  0  0
   -1.5403   -2.3499   -0.8140 H   0  0  0  0  0  0  0  0  0  0  0  0
   -0.3474   -3.3547   -0.0362 H   0  0  0  0  0  0  0  0  0  0  0  0
   -0.3656   -2.5852    2.9935 H   0  0  0  0  0  0  0  0  0  0  0  0
   -2.5774   -2.8986    4.5283 H   0  0  0  0  0  0  0  0  0  0  0  0
   -4.6740   -3.0213    2.8091 H   0  0  0  0  0  0  0  0  0  0  0  0
   -5.0082   -3.1873    0.4364 H   0  0  0  0  0  0  0  0  0  0  0  0
   -3.5867   -3.5909   -0.5557 H   0  0  0  0  0  0  0  0  0  0  0  0
   -4.0613   -1.8727   -0.3167 H   0  0  0  0  0  0  0  0  0  0  0  0
    2.7571    3.5747    1.8624 H   0  0  0  0  0  0  0  0  0  0  0  0
    2.7900    1.8617    2.2504 H   0  0  0  0  0  0  0  0  0  0  0  0
    3.4557    0.3820    0.5480 H   0  0  0  0  0  0  0  0  0  0  0  0
    6.0497    2.4452   -1.2363 H   0  0  0  0  0  0  0  0  0  0  0  0
    7.6895    1.4181   -2.7382 H   0  0  0  0  0  0  0  0  0  0  0  0
    7.6977   -1.0494   -3.0919 H   0  0  0  0  0  0  0  0  0  0  0  0
    4.3687   -1.4616   -0.4416 H   0  0  0  0  0  0  0  0  0  0  0  0
   -1.6219   -0.5499   -2.1307 H   0  0  0  0  0  0  0  0  0  0  0  0
   -3.7613    0.3874   -2.8790 H   0  0  0  0  0  0  0  0  0  0  0  0
  1  2  1  0
  2  3  1  0
  3  4  2  0
  4  5  1  0
  5  6  2  0
  6  7  1  0
  7  8  1  0
  8  9  1  0
  9 10  1  0
 10 11  2  0
 11 12  1  0
 12 13  2  0
 13 14  1  0
 14 15  1  0
  8 16  2  0
 16 17  1  0
 17 18  2  0
 18 19  1  0
 19 20  1  0
 20 21  1  0
 21 22  2  0
 21 23  1  0
 23 24  1  0
 24 25  2  0
 25 26  1  0
 26 27  2  0
 27 28  1  0
 28 29  1  0
 28 30  2  0
  6 31  1  0
 31 32  2  0
 32  3  1  0
 18  7  1  0
 30 24  1  0
 14 10  1  0
  1 33  1  0
  1 34  1  0
  1 35  1  0
  4 36  1  0
  5 37  1  0
  9 38  1  0
  9 39  1  0
 11 40  1  0
 12 41  1  0
 13 42  1  0
 15 43  1  0
 15 44  1  0
 15 45  1  0
 20 46  1  0
 20 47  1  0
 23 48  1  0
 25 49  1  0
 26 50  1  0
 27 51  1  0
 30 52  1  0
 31 53  1  0
 32 54  1  0
M  END
$$$$
