
     RDKit          3D

 37 38  0  0  0  0  0  0  0  0999 V2000
   -5.2295    1.0228   -2.0377 C   0  0  0  0  0  0  0  0  0  0  0  0
   -4.7358    0.2263   -0.9707 O   0  0  0  0  0  0  0  0  0  0  0  0
   -3.4599    0.4692   -0.5268 C   0  0  0  0  0  0  0  0  0  0  0  0
   -2.6141    1.4520   -1.0534 C   0  0  0  0  0  0  0  0  0  0  0  0
   -1.3259    1.6271   -0.5393 C   0  0  0  0  0  0  0  0  0  0  0  0
   -0.8715    0.8127    0.5020 C   0  0  0  0  0  0  0  0  0  0  0  0
    0.4926    0.9615    1.0804 C   0  0  0  0  0  0  0  0  0  0  0  0
    0.7041    0.6401    2.2442 O   0  0  0  0  0  0  0  0  0  0  0  0
    1.4698    1.4318    0.2289 N   0  0  0  0  0  0  0  0  0  0  0  0
    2.8539    1.4982    0.6404 C   0  0  0  0  0  0  0  0  0  0  0  0
    3.6051    0.2684    0.1963 C   0  0  0  0  0  0  0  0  0  0  0  0
    3.5616   -0.9025    0.9657 C   0  0  0  0  0  0  0  0  0  0  0  0
    4.2345   -2.0529    0.5477 C   0  0  0  0  0  0  0  0  0  0  0  0
    4.9548   -2.0499   -0.6492 C   0  0  0  0  0  0  0  0  0  0  0  0
    5.7617   -3.5070   -1.1076 Cl  0  0  0  0  0  0  0  0  0  0  0  0
    4.9980   -0.8900   -1.4299 C   0  0  0  0  0  0  0  0  0  0  0  0
    5.8603   -0.8105   -2.9257 Cl  0  0  0  0  0  0  0  0  0  0  0  0
    4.3231    0.2621   -1.0087 C   0  0  0  0  0  0  0  0  0  0  0  0
   -1.7195   -0.1606    1.0460 C   0  0  0  0  0  0  0  0  0  0  0  0
   -3.0102   -0.3403    0.5372 C   0  0  0  0  0  0  0  0  0  0  0  0
   -3.9022   -1.2756    1.0014 O   0  0  0  0  0  0  0  0  0  0  0  0
   -3.5193   -2.0481    2.1309 C   0  0  0  0  0  0  0  0  0  0  0  0
   -4.6306    0.8847   -2.9439 H   0  0  0  0  0  0  0  0  0  0  0  0
   -5.2790    2.0786   -1.7522 H   0  0  0  0  0  0  0  0  0  0  0  0
   -6.2484    0.6908   -2.2595 H   0  0  0  0  0  0  0  0  0  0  0  0
   -2.9322    2.1048   -1.8597 H   0  0  0  0  0  0  0  0  0  0  0  0
   -0.7047    2.4203   -0.9454 H   0  0  0  0  0  0  0  0  0  0  0  0
    1.2843    1.4514   -0.7637 H   0  0  0  0  0  0  0  0  0  0  0  0
    2.9312    1.6209    1.7266 H   0  0  0  0  0  0  0  0  0  0  0  0
    3.2866    2.3945    0.1822 H   0  0  0  0  0  0  0  0  0  0  0  0
    2.9942   -0.9227    1.8966 H   0  0  0  0  0  0  0  0  0  0  0  0
    4.1882   -2.9499    1.1610 H   0  0  0  0  0  0  0  0  0  0  0  0
    4.3592    1.1592   -1.6234 H   0  0  0  0  0  0  0  0  0  0  0  0
   -1.3438   -0.7688    1.8633 H   0  0  0  0  0  0  0  0  0  0  0  0
   -2.6602   -2.6857    1.8986 H   0  0  0  0  0  0  0  0  0  0  0  0
   -3.3179   -1.4104    2.9979 H   0  0  0  0  0  0  0  0  0  0  0  0
   -4.3579   -2.7025    2.3879 H   0  0  0  0  0  0  0  0  0  0  0  0
  1  2  1  0
  2  3  1  0
  3  4  2  0
  4  5  1  0
  5  6  2  0
  6  7  1  0
  7  8  2  0
  7  9  1  0
  9 10  1  0
 10 11  1  0
 11 12  2  0
 12 13  1  0
 13 14  2  0
 14 15  1  0
 14 16  1  0
 16 17  1  0
 16 18  2  0
  6 19  1  0
 19 20  2  0
 20 21  1  0
 21 22  1  0
 20  3  1  0
 18 11  1  0
  1 23  1  0
  1 24  1  0
  1 25  1  0
  4 26  1  0
  5 27  1  0
  9 28  1  0
 10 29  1  0
 10 30  1  0
 12 31  1  0
 13 32  1  0
 18 33  1  0
 19 34  1  0
 22 35  1  0
 22 36  1  0
 22 37  1  0
M  END
$$$$
