
     RDKit          3D

 51 53  0  0  0  0  0  0  0  0999 V2000
    5.1495    1.2460   -1.9753 N   0  0  0  0  0  0  0  0  0  0  0  0
    4.3280    0.7046   -1.3601 C   0  0  0  0  0  0  0  0  0  0  0  0
    3.3780   -0.0069   -0.5845 C   0  0  0  0  0  0  0  0  0  0  0  0
    2.0703    0.3025   -0.5046 C   0  0  0  0  0  0  0  0  0  0  0  0
    1.3925    1.3667   -1.1679 C   0  0  0  0  0  0  0  0  0  0  0  0
    1.7031    2.1657   -2.2637 C   0  0  0  0  0  0  0  0  0  0  0  0
    0.6257    3.0618   -2.4831 C   0  0  0  0  0  0  0  0  0  0  0  0
   -0.3063    2.7769   -1.5160 C   0  0  0  0  0  0  0  0  0  0  0  0
   -1.6393    3.3299   -1.1806 C   0  0  0  0  0  0  0  0  0  0  0  0
   -2.6455    2.3797   -1.5765 N   0  0  0  0  0  0  0  0  0  0  0  0
   -3.7248    2.0747   -0.7868 C   0  0  0  0  0  0  0  0  0  0  0  0
   -3.9871    2.5540    0.3083 O   0  0  0  0  0  0  0  0  0  0  0  0
   -4.6624    1.0080   -1.3930 C   0  0  0  0  0  0  0  0  0  0  0  0
   -4.4464    0.6046   -2.5264 O   0  0  0  0  0  0  0  0  0  0  0  0
   -5.6609    0.6459   -0.5124 N   0  0  0  0  0  0  0  0  0  0  0  0
   -6.6885   -0.2930   -0.7082 C   0  0  0  0  0  0  0  0  0  0  0  0
   -7.5824   -0.4924    0.3508 C   0  0  0  0  0  0  0  0  0  0  0  0
   -8.6264   -1.4109    0.2263 C   0  0  0  0  0  0  0  0  0  0  0  0
   -9.7117   -1.6476    1.5408 Cl  0  0  0  0  0  0  0  0  0  0  0  0
   -8.7981   -2.1363   -0.9471 C   0  0  0  0  0  0  0  0  0  0  0  0
   -7.9093   -1.9370   -1.9990 C   0  0  0  0  0  0  0  0  0  0  0  0
   -8.1101   -2.8309   -3.4571 Cl  0  0  0  0  0  0  0  0  0  0  0  0
   -6.8574   -1.0232   -1.8868 C   0  0  0  0  0  0  0  0  0  0  0  0
    0.1437    1.7609   -0.7325 O   0  0  0  0  0  0  0  0  0  0  0  0
    3.8314   -1.1818    0.2365 C   0  0  0  0  0  0  0  0  0  0  0  0
    3.0356   -1.8539    0.8890 O   0  0  0  0  0  0  0  0  0  0  0  0
    5.1804   -1.4567    0.2232 N   0  0  0  0  0  0  0  0  0  0  0  0
    5.7515   -2.4971    1.0545 C   0  0  0  0  0  0  0  0  0  0  0  0
    6.3401   -1.9210    2.3081 C   0  0  0  0  0  0  0  0  0  0  0  0
    5.5314   -1.5244    3.3777 C   0  0  0  0  0  0  0  0  0  0  0  0
    6.1118   -0.9732    4.5154 C   0  0  0  0  0  0  0  0  0  0  0  0
    7.4895   -0.8327    4.5465 C   0  0  0  0  0  0  0  0  0  0  0  0
    8.3037   -1.2038    3.5359 N   0  0  0  0  0  0  0  0  0  0  0  0
    7.7125   -1.7363    2.4431 C   0  0  0  0  0  0  0  0  0  0  0  0
    1.4267   -0.2858    0.1493 H   0  0  0  0  0  0  0  0  0  0  0  0
    2.5999    2.1213   -2.8646 H   0  0  0  0  0  0  0  0  0  0  0  0
    0.5453    3.8172   -3.2531 H   0  0  0  0  0  0  0  0  0  0  0  0
   -1.7103    3.5492   -0.1106 H   0  0  0  0  0  0  0  0  0  0  0  0
   -1.8265    4.2554   -1.7342 H   0  0  0  0  0  0  0  0  0  0  0  0
   -2.5714    1.8978   -2.4677 H   0  0  0  0  0  0  0  0  0  0  0  0
   -5.6214    1.1349    0.3812 H   0  0  0  0  0  0  0  0  0  0  0  0
   -7.4722    0.0617    1.2797 H   0  0  0  0  0  0  0  0  0  0  0  0
   -9.6117   -2.8495   -1.0412 H   0  0  0  0  0  0  0  0  0  0  0  0
   -6.1855   -0.9022   -2.7315 H   0  0  0  0  0  0  0  0  0  0  0  0
    5.8385   -0.8462   -0.2449 H   0  0  0  0  0  0  0  0  0  0  0  0
    6.5207   -2.9985    0.4583 H   0  0  0  0  0  0  0  0  0  0  0  0
    4.9986   -3.2518    1.3068 H   0  0  0  0  0  0  0  0  0  0  0  0
    4.4513   -1.6424    3.3255 H   0  0  0  0  0  0  0  0  0  0  0  0
    5.5051   -0.6561    5.3549 H   0  0  0  0  0  0  0  0  0  0  0  0
    7.9888   -0.4063    5.4120 H   0  0  0  0  0  0  0  0  0  0  0  0
    8.4020   -2.0214    1.6535 H   0  0  0  0  0  0  0  0  0  0  0  0
  1  2  3  0
  2  3  1  0
  3  4  2  3
  4  5  1  0
  5  6  2  0
  6  7  1  0
  7  8  2  0
  8  9  1  0
  9 10  1  0
 10 11  1  0
 11 12  2  0
 11 13  1  0
 13 14  2  0
 13 15  1  0
 15 16  1  0
 16 17  2  0
 17 18  1  0
 18 19  1  0
 18 20  2  0
 20 21  1  0
 21 22  1  0
 21 23  2  0
  8 24  1  0
  3 25  1  0
 25 26  2  0
 25 27  1  0
 27 28  1  0
 28 29  1  0
 29 30  2  0
 30 31  1  0
 31 32  2  0
 32 33  1  0
 33 34  2  0
 24  5  1  0
 34 29  1  0
 23 16  1  0
  4 35  1  0
  6 36  1  0
  7 37  1  0
  9 38  1  0
  9 39  1  0
 10 40  1  0
 15 41  1  0
 17 42  1  0
 20 43  1  0
 23 44  1  0
 27 45  1  0
 28 46  1  0
 28 47  1  0
 30 48  1  0
 31 49  1  0
 32 50  1  0
 34 51  1  0
M  END
$$$$
