
     RDKit          3D

 61 66  0  0  0  0  0  0  0  0999 V2000
    6.6119    1.5453   -2.2562 F   0  0  0  0  0  0  0  0  0  0  0  0
    7.5325    0.9168   -1.4771 C   0  0  0  0  0  0  0  0  0  0  0  0
    8.3096    0.2171   -2.3392 F   0  0  0  0  0  0  0  0  0  0  0  0
    8.3198    1.8916   -0.9769 F   0  0  0  0  0  0  0  0  0  0  0  0
    6.9309    0.0566   -0.3947 C   0  0  0  0  0  0  0  0  0  0  0  0
    7.6791   -0.9742    0.1903 C   0  0  0  0  0  0  0  0  0  0  0  0
    7.1230   -1.7660    1.1924 C   0  0  0  0  0  0  0  0  0  0  0  0
    5.8130   -1.5392    1.6196 C   0  0  0  0  0  0  0  0  0  0  0  0
    5.0389   -0.5183    1.0508 C   0  0  0  0  0  0  0  0  0  0  0  0
    3.6391   -0.2665    1.5759 C   0  0  0  0  0  0  0  0  0  0  0  0
    2.7124    0.2826    0.5801 N   0  0  0  0  0  0  0  0  0  0  0  0
    1.4867    0.7923    1.2372 C   0  0  0  0  0  0  0  0  0  0  0  0
    0.4907    1.3909    0.2186 C   0  0  0  0  0  0  0  0  0  0  0  0
    0.1303    0.3947   -0.8083 N   0  0  0  0  0  0  0  0  0  0  0  0
   -0.9577   -0.4461   -0.5923 C   0  0  0  0  0  0  0  0  0  0  0  0
   -0.7716   -1.7421   -0.5859 N   0  0  0  0  0  0  0  0  0  0  0  0
   -1.8507   -2.6216   -0.3788 C   0  0  0  0  0  0  0  0  0  0  0  0
   -1.5998   -3.9955   -0.3878 C   0  0  0  0  0  0  0  0  0  0  0  0
   -2.6376   -4.9132   -0.2068 C   0  0  0  0  0  0  0  0  0  0  0  0
   -3.9420   -4.4617   -0.0118 C   0  0  0  0  0  0  0  0  0  0  0  0
   -4.2142   -3.0931    0.0096 C   0  0  0  0  0  0  0  0  0  0  0  0
   -3.1651   -2.1871   -0.1722 C   0  0  0  0  0  0  0  0  0  0  0  0
   -3.3533   -0.7958   -0.1839 N   0  0  0  0  0  0  0  0  0  0  0  0
   -4.5050   -0.0684   -0.0191 C   0  0  0  0  0  0  0  0  0  0  0  0
   -4.2137    1.2745   -0.1621 C   0  0  0  0  0  0  0  0  0  0  0  0
   -5.1978    2.3479   -0.0663 C   0  0  0  0  0  0  0  0  0  0  0  0
   -4.9496    3.5880   -0.6742 C   0  0  0  0  0  0  0  0  0  0  0  0
   -5.8792    4.6280   -0.5801 C   0  0  0  0  0  0  0  0  0  0  0  0
   -7.0689    4.4428    0.1207 C   0  0  0  0  0  0  0  0  0  0  0  0
   -7.3287    3.2186    0.7332 C   0  0  0  0  0  0  0  0  0  0  0  0
   -6.3989    2.1791    0.6415 C   0  0  0  0  0  0  0  0  0  0  0  0
   -2.8218    1.3435   -0.4306 C   0  0  0  0  0  0  0  0  0  0  0  0
   -2.3041    0.0620   -0.3972 C   0  0  0  0  0  0  0  0  0  0  0  0
    1.3355   -0.1544   -1.4629 C   0  0  0  0  0  0  0  0  0  0  0  0
    2.3225   -0.7363   -0.4250 C   0  0  0  0  0  0  0  0  0  0  0  0
    5.6210    0.2888    0.0608 C   0  0  0  0  0  0  0  0  0  0  0  0
    8.7023   -1.1603   -0.1306 H   0  0  0  0  0  0  0  0  0  0  0  0
    7.7121   -2.5581    1.6492 H   0  0  0  0  0  0  0  0  0  0  0  0
    5.4004   -2.1643    2.4077 H   0  0  0  0  0  0  0  0  0  0  0  0
    3.2291   -1.1878    2.0007 H   0  0  0  0  0  0  0  0  0  0  0  0
    3.7519    0.4437    2.4041 H   0  0  0  0  0  0  0  0  0  0  0  0
    0.9949   -0.0083    1.8021 H   0  0  0  0  0  0  0  0  0  0  0  0
    1.7557    1.5813    1.9489 H   0  0  0  0  0  0  0  0  0  0  0  0
    0.9504    2.2557   -0.2730 H   0  0  0  0  0  0  0  0  0  0  0  0
   -0.3870    1.7635    0.7549 H   0  0  0  0  0  0  0  0  0  0  0  0
   -0.5853   -4.3499   -0.5450 H   0  0  0  0  0  0  0  0  0  0  0  0
   -2.4265   -5.9797   -0.2237 H   0  0  0  0  0  0  0  0  0  0  0  0
   -4.7498   -5.1772    0.1158 H   0  0  0  0  0  0  0  0  0  0  0  0
   -5.2388   -2.7670    0.1543 H   0  0  0  0  0  0  0  0  0  0  0  0
   -5.4434   -0.5599    0.1710 H   0  0  0  0  0  0  0  0  0  0  0  0
   -4.0349    3.7619   -1.2376 H   0  0  0  0  0  0  0  0  0  0  0  0
   -5.6723    5.5838   -1.0576 H   0  0  0  0  0  0  0  0  0  0  0  0
   -7.7865    5.2519    0.1900 H   0  0  0  0  0  0  0  0  0  0  0  0
   -8.2536    3.0663    1.2889 H   0  0  0  0  0  0  0  0  0  0  0  0
   -6.6257    1.2425    1.1443 H   0  0  0  0  0  0  0  0  0  0  0  0
   -2.2492    2.2367   -0.6209 H   0  0  0  0  0  0  0  0  0  0  0  0
    1.0672   -0.9154   -2.2068 H   0  0  0  0  0  0  0  0  0  0  0  0
    1.8323    0.6539   -2.0153 H   0  0  0  0  0  0  0  0  0  0  0  0
    1.8732   -1.6065    0.0687 H   0  0  0  0  0  0  0  0  0  0  0  0
    3.2063   -1.0916   -0.9680 H   0  0  0  0  0  0  0  0  0  0  0  0
    5.0402    1.1031   -0.3763 H   0  0  0  0  0  0  0  0  0  0  0  0
  1  2  1  0
  2  3  1  0
  2  4  1  0
  2  5  1  0
  5  6  2  0
  6  7  1  0
  7  8  2  0
  8  9  1  0
  9 10  1  0
 10 11  1  0
 11 12  1  0
 12 13  1  0
 13 14  1  0
 14 15  1  0
 15 16  2  0
 16 17  1  0
 17 18  2  0
 18 19  1  0
 19 20  2  0
 20 21  1  0
 21 22  2  0
 22 23  1  0
 23 24  1  0
 24 25  2  0
 25 26  1  0
 26 27  2  0
 27 28  1  0
 28 29  2  0
 29 30  1  0
 30 31  2  0
 25 32  1  0
 32 33  2  0
 14 34  1  0
 34 35  1  0
  9 36  2  0
 36  5  1  0
 35 11  1  0
 33 15  1  0
 22 17  1  0
 33 23  1  0
 31 26  1  0
  6 37  1  0
  7 38  1  0
  8 39  1  0
 10 40  1  0
 10 41  1  0
 12 42  1  0
 12 43  1  0
 13 44  1  0
 13 45  1  0
 18 46  1  0
 19 47  1  0
 20 48  1  0
 21 49  1  0
 24 50  1  0
 27 51  1  0
 28 52  1  0
 29 53  1  0
 30 54  1  0
 31 55  1  0
 32 56  1  0
 34 57  1  0
 34 58  1  0
 35 59  1  0
 35 60  1  0
 36 61  1  0
M  END
$$$$
