
     RDKit          3D

 49 52  0  0  0  0  0  0  0  0999 V2000
   -3.3673    0.0249    2.9360 O   0  0  0  0  0  0  0  0  0  0  0  0
   -2.7619    1.0648    2.7677 C   0  0  0  0  0  0  0  0  0  0  0  0
   -2.3489    1.8019    3.8175 O   0  0  0  0  0  0  0  0  0  0  0  0
   -2.3482    1.6743    1.4779 C   0  0  0  0  0  0  0  0  0  0  0  0
   -2.4472    3.0801    1.3905 C   0  0  0  0  0  0  0  0  0  0  0  0
   -2.2660    3.7359    0.1776 C   0  0  0  0  0  0  0  0  0  0  0  0
   -2.0324    2.9884   -0.9671 C   0  0  0  0  0  0  0  0  0  0  0  0
   -1.9348    1.5905   -0.8854 C   0  0  0  0  0  0  0  0  0  0  0  0
   -1.7667    0.8279   -2.1438 C   0  0  0  0  0  0  0  0  0  0  0  0
   -1.5621    1.4098   -3.2046 O   0  0  0  0  0  0  0  0  0  0  0  0
   -1.8843   -0.6421   -2.0968 C   0  0  0  0  0  0  0  0  0  0  0  0
   -1.9674   -1.3664   -3.2939 C   0  0  0  0  0  0  0  0  0  0  0  0
   -2.0835   -2.7521   -3.2553 C   0  0  0  0  0  0  0  0  0  0  0  0
   -2.1184   -3.4038   -2.0261 C   0  0  0  0  0  0  0  0  0  0  0  0
   -2.0269   -2.6729   -0.8351 C   0  0  0  0  0  0  0  0  0  0  0  0
   -1.8889   -1.2766   -0.8445 C   0  0  0  0  0  0  0  0  0  0  0  0
   -1.7975   -0.5063    0.3425 N   0  0  0  0  0  0  0  0  0  0  0  0
   -0.9380   -1.0759    1.4247 C   0  0  0  0  0  0  0  0  0  0  0  0
    0.5602   -1.2747    1.0784 C   0  0  0  0  0  0  0  0  0  0  0  0
    0.7800   -2.4495    0.2872 O   0  0  0  0  0  0  0  0  0  0  0  0
    1.2271   -0.0614    0.3990 C   0  0  0  0  0  0  0  0  0  0  0  0
    2.6460   -0.3340    0.0942 N   0  0  0  0  0  0  0  0  0  0  0  0
    3.2174    0.7070   -0.7676 C   0  0  0  0  0  0  0  0  0  0  0  0
    4.7118    0.4523   -0.6630 C   0  0  0  0  0  0  0  0  0  0  0  0
    4.9072   -0.1948    0.7030 C   0  0  0  0  0  0  0  0  0  0  0  0
    3.5066   -0.3431    1.2811 C   0  0  0  0  0  0  0  0  0  0  0  0
   -2.0154    0.8972    0.3433 C   0  0  0  0  0  0  0  0  0  0  0  0
   -2.6863    1.3094    4.5959 H   0  0  0  0  0  0  0  0  0  0  0  0
   -2.7041    3.6699    2.2692 H   0  0  0  0  0  0  0  0  0  0  0  0
   -2.3529    4.8179    0.1175 H   0  0  0  0  0  0  0  0  0  0  0  0
   -1.9427    3.4887   -1.9300 H   0  0  0  0  0  0  0  0  0  0  0  0
   -1.9449   -0.8497   -4.2505 H   0  0  0  0  0  0  0  0  0  0  0  0
   -2.1497   -3.3210   -4.1788 H   0  0  0  0  0  0  0  0  0  0  0  0
   -2.2140   -4.4861   -1.9866 H   0  0  0  0  0  0  0  0  0  0  0  0
   -2.0682   -3.2220    0.1011 H   0  0  0  0  0  0  0  0  0  0  0  0
   -0.9376   -0.4301    2.3053 H   0  0  0  0  0  0  0  0  0  0  0  0
   -1.3657   -2.0259    1.7660 H   0  0  0  0  0  0  0  0  0  0  0  0
    1.0693   -1.4722    2.0298 H   0  0  0  0  0  0  0  0  0  0  0  0
    1.6392   -2.2922   -0.1572 H   0  0  0  0  0  0  0  0  0  0  0  0
    0.7306    0.1146   -0.5604 H   0  0  0  0  0  0  0  0  0  0  0  0
    1.1101    0.8406    1.0116 H   0  0  0  0  0  0  0  0  0  0  0  0
    2.8668    0.6247   -1.8013 H   0  0  0  0  0  0  0  0  0  0  0  0
    2.9829    1.7129   -0.3959 H   0  0  0  0  0  0  0  0  0  0  0  0
    5.2883    1.3775   -0.7622 H   0  0  0  0  0  0  0  0  0  0  0  0
    5.0432   -0.2362   -1.4494 H   0  0  0  0  0  0  0  0  0  0  0  0
    5.5426    0.4165    1.3520 H   0  0  0  0  0  0  0  0  0  0  0  0
    5.3884   -1.1727    0.5858 H   0  0  0  0  0  0  0  0  0  0  0  0
    3.2896    0.5035    1.9447 H   0  0  0  0  0  0  0  0  0  0  0  0
    3.4147   -1.2695    1.8561 H   0  0  0  0  0  0  0  0  0  0  0  0
  1  2  2  0
  2  3  1  0
  2  4  1  0
  4  5  2  0
  5  6  1  0
  6  7  2  0
  7  8  1  0
  8  9  1  0
  9 10  2  0
  9 11  1  0
 11 12  2  0
 12 13  1  0
 13 14  2  0
 14 15  1  0
 15 16  2  0
 16 17  1  0
 17 18  1  0
 18 19  1  0
 19 20  1  0
 19 21  1  0
 21 22  1  0
 22 23  1  0
 23 24  1  0
 24 25  1  0
 25 26  1  0
 17 27  1  0
 27  4  1  0
 27  8  2  0
 16 11  1  0
 26 22  1  0
  3 28  1  0
  5 29  1  0
  6 30  1  0
  7 31  1  0
 12 32  1  0
 13 33  1  0
 14 34  1  0
 15 35  1  0
 18 36  1  0
 18 37  1  0
 19 38  1  0
 20 39  1  0
 21 40  1  0
 21 41  1  0
 23 42  1  0
 23 43  1  0
 24 44  1  0
 24 45  1  0
 25 46  1  0
 25 47  1  0
 26 48  1  0
 26 49  1  0
M  END
$$$$
