
     RDKit          3D

 47 49  0  0  0  0  0  0  0  0999 V2000
   -2.7598   -1.0700   -1.8663 C   0  0  0  0  0  0  0  0  0  0  0  0
   -2.9904   -1.9040   -0.6177 C   0  0  0  0  0  0  0  0  0  0  0  0
   -3.3963   -1.0869    0.5341 N   0  0  0  0  0  4  0  0  0  0  0  0
   -2.5470   -0.6954    1.4742 C   0  0  0  0  0  0  0  0  0  0  0  0
   -1.1623   -0.9734    1.5396 C   0  0  0  0  0  0  0  0  0  0  0  0
   -0.2164   -0.1835    1.0071 C   0  0  0  0  0  0  0  0  0  0  0  0
   -0.4021    1.0804    0.3186 C   0  0  0  0  0  0  0  0  0  0  0  0
    0.5695    1.7934   -0.2755 C   0  0  0  0  0  0  0  0  0  0  0  0
    1.9812    1.4134   -0.3445 C   0  0  0  0  0  0  0  0  0  0  0  0
    2.8400    1.6699    0.7206 C   0  0  0  0  0  0  0  0  0  0  0  0
    4.1843    1.2743    0.6565 C   0  0  0  0  0  0  0  0  0  0  0  0
    4.7257    0.6245   -0.4675 C   0  0  0  0  0  0  0  0  0  0  0  0
    6.0614    0.2083   -0.5182 N   0  0  0  0  0  0  0  0  0  0  0  0
    6.6555   -0.0940   -1.8215 C   0  0  0  0  0  0  0  0  0  0  0  0
    6.9992    0.6973    0.4933 C   0  0  0  0  0  0  0  0  0  0  0  0
    3.8274    0.3754   -1.5215 C   0  0  0  0  0  0  0  0  0  0  0  0
    2.4806    0.7646   -1.4697 C   0  0  0  0  0  0  0  0  0  0  0  0
   -3.3481    0.1908    2.7033 S   0  0  0  0  0  0  0  0  0  0  0  0
   -4.8661    0.0542    1.9062 C   0  0  0  0  0  0  0  0  0  0  0  0
   -6.1127    0.5634    2.3015 C   0  0  0  0  0  0  0  0  0  0  0  0
   -7.2160    0.3128    1.4821 C   0  0  0  0  0  0  0  0  0  0  0  0
   -7.0826   -0.4217    0.3083 C   0  0  0  0  0  0  0  0  0  0  0  0
   -5.8364   -0.9279   -0.0812 C   0  0  0  0  0  0  0  0  0  0  0  0
   -4.7119   -0.6819    0.7335 C   0  0  0  0  0  0  0  0  0  0  0  0
   -1.9589   -0.3425   -1.7132 H   0  0  0  0  0  0  0  0  0  0  0  0
   -3.6600   -0.5158   -2.1479 H   0  0  0  0  0  0  0  0  0  0  0  0
   -2.4789   -1.7134   -2.7056 H   0  0  0  0  0  0  0  0  0  0  0  0
   -3.7637   -2.6579   -0.8058 H   0  0  0  0  0  0  0  0  0  0  0  0
   -2.0840   -2.4718   -0.3796 H   0  0  0  0  0  0  0  0  0  0  0  0
   -0.8538   -1.8798    2.0576 H   0  0  0  0  0  0  0  0  0  0  0  0
    0.8177   -0.5178    1.1190 H   0  0  0  0  0  0  0  0  0  0  0  0
   -1.4024    1.5063    0.2845 H   0  0  0  0  0  0  0  0  0  0  0  0
    0.3316    2.7377   -0.7624 H   0  0  0  0  0  0  0  0  0  0  0  0
    2.4806    2.1752    1.6138 H   0  0  0  0  0  0  0  0  0  0  0  0
    4.7996    1.4968    1.5232 H   0  0  0  0  0  0  0  0  0  0  0  0
    6.1676   -0.9559   -2.2888 H   0  0  0  0  0  0  0  0  0  0  0  0
    6.5974    0.7712   -2.4912 H   0  0  0  0  0  0  0  0  0  0  0  0
    7.7128   -0.3653   -1.7241 H   0  0  0  0  0  0  0  0  0  0  0  0
    6.6921    0.3922    1.4994 H   0  0  0  0  0  0  0  0  0  0  0  0
    7.9986    0.2728    0.3449 H   0  0  0  0  0  0  0  0  0  0  0  0
    7.0918    1.7881    0.4497 H   0  0  0  0  0  0  0  0  0  0  0  0
    4.1540   -0.1387   -2.4204 H   0  0  0  0  0  0  0  0  0  0  0  0
    1.8369    0.5486   -2.3183 H   0  0  0  0  0  0  0  0  0  0  0  0
   -6.2251    1.1367    3.2192 H   0  0  0  0  0  0  0  0  0  0  0  0
   -8.1947    0.6985    1.7690 H   0  0  0  0  0  0  0  0  0  0  0  0
   -7.9604   -0.6026   -0.3123 H   0  0  0  0  0  0  0  0  0  0  0  0
   -5.7754   -1.4944   -1.0060 H   0  0  0  0  0  0  0  0  0  0  0  0
  1  2  1  0
  2  3  1  0
  3  4  2  0
  4  5  1  0
  5  6  2  3
  6  7  1  0
  7  8  2  3
  8  9  1  0
  9 10  2  0
 10 11  1  0
 11 12  2  0
 12 13  1  0
 13 14  1  0
 13 15  1  0
 12 16  1  0
 16 17  2  0
  4 18  1  0
 18 19  1  0
 19 20  2  0
 20 21  1  0
 21 22  2  0
 22 23  1  0
 23 24  2  0
 24  3  1  0
 17  9  1  0
 24 19  1  0
  1 25  1  0
  1 26  1  0
  1 27  1  0
  2 28  1  0
  2 29  1  0
  5 30  1  0
  6 31  1  0
  7 32  1  0
  8 33  1  0
 10 34  1  0
 11 35  1  0
 14 36  1  0
 14 37  1  0
 14 38  1  0
 15 39  1  0
 15 40  1  0
 15 41  1  0
 16 42  1  0
 17 43  1  0
 20 44  1  0
 21 45  1  0
 22 46  1  0
 23 47  1  0
M  CHG  1   3   1
M  END
$$$$
