
     RDKit          3D

 39 41  0  0  0  0  0  0  0  0999 V2000
   -2.0579   -1.6318    2.8229 O   0  0  0  0  0  0  0  0  0  0  0  0
   -2.3996   -0.2295    2.7502 S   0  0  0  0  0  6  0  0  0  0  0  0
   -3.2016    0.4175    3.7638 O   0  0  0  0  0  0  0  0  0  0  0  0
   -0.9818    0.6514    2.6274 N   0  0  0  0  0  0  0  0  0  0  0  0
   -0.0244    0.3514    1.5537 C   0  0  0  0  0  0  0  0  0  0  0  0
    1.3948    0.6746    2.0191 C   0  0  0  0  0  0  0  0  0  0  0  0
    2.4010    0.3983    0.9591 C   0  0  0  0  0  0  0  0  0  0  0  0
    3.4969   -0.4389    0.9986 C   0  0  0  0  0  0  0  0  0  0  0  0
    4.0924   -0.3312   -0.2321 N   0  0  0  0  0  0  0  0  0  0  0  0
    5.2310   -0.9620   -0.7273 C   0  0  0  0  0  0  0  0  0  0  0  0
    5.6301   -0.6979   -1.9832 C   0  0  0  0  0  0  0  0  0  0  0  0
    4.8579    0.2404   -2.7853 C   0  0  0  0  0  0  0  0  0  0  0  0
    3.7571    0.8462   -2.2973 C   0  0  0  0  0  0  0  0  0  0  0  0
    3.3295    0.5698   -0.9675 C   0  0  0  0  0  0  0  0  0  0  0  0
    2.3084    1.0182   -0.2668 N   0  0  0  0  0  0  0  0  0  0  0  0
   -3.1783    0.0659    1.1766 C   0  0  0  0  0  0  0  0  0  0  0  0
   -3.9188    1.2374    0.9898 C   0  0  0  0  0  0  0  0  0  0  0  0
   -4.5456    1.4609   -0.2355 C   0  0  0  0  0  0  0  0  0  0  0  0
   -4.4357    0.5149   -1.2537 C   0  0  0  0  0  0  0  0  0  0  0  0
   -5.0484    0.7534   -2.4205 F   0  0  0  0  0  0  0  0  0  0  0  0
   -3.7115   -0.6640   -1.0774 C   0  0  0  0  0  0  0  0  0  0  0  0
   -3.6364   -1.6498   -2.2054 C   0  0  0  0  0  0  0  0  0  0  0  0
   -4.8529   -2.1498   -2.5541 F   0  0  0  0  0  0  0  0  0  0  0  0
   -3.0998   -1.1195   -3.3382 F   0  0  0  0  0  0  0  0  0  0  0  0
   -2.8648   -2.7353   -1.9111 F   0  0  0  0  0  0  0  0  0  0  0  0
   -3.0819   -0.8911    0.1575 C   0  0  0  0  0  0  0  0  0  0  0  0
   -1.0518    1.6100    2.9656 H   0  0  0  0  0  0  0  0  0  0  0  0
   -0.0807   -0.7049    1.2681 H   0  0  0  0  0  0  0  0  0  0  0  0
   -0.2851    0.9538    0.6760 H   0  0  0  0  0  0  0  0  0  0  0  0
    1.4619    1.7315    2.3056 H   0  0  0  0  0  0  0  0  0  0  0  0
    1.6291    0.0929    2.9195 H   0  0  0  0  0  0  0  0  0  0  0  0
    3.8915   -1.0816    1.7723 H   0  0  0  0  0  0  0  0  0  0  0  0
    5.7506   -1.6468   -0.0697 H   0  0  0  0  0  0  0  0  0  0  0  0
    6.5091   -1.1623   -2.4173 H   0  0  0  0  0  0  0  0  0  0  0  0
    5.1966    0.4405   -3.7975 H   0  0  0  0  0  0  0  0  0  0  0  0
    3.1807    1.5450   -2.8922 H   0  0  0  0  0  0  0  0  0  0  0  0
   -4.0160    1.9694    1.7890 H   0  0  0  0  0  0  0  0  0  0  0  0
   -5.1259    2.3640   -0.4044 H   0  0  0  0  0  0  0  0  0  0  0  0
   -2.5199   -1.8108    0.3218 H   0  0  0  0  0  0  0  0  0  0  0  0
  1  2  2  0
  2  3  2  0
  2  4  1  0
  4  5  1  0
  5  6  1  0
  6  7  1  0
  7  8  2  0
  8  9  1  0
  9 10  1  0
 10 11  2  0
 11 12  1  0
 12 13  2  0
 13 14  1  0
 14 15  2  0
  2 16  1  0
 16 17  2  0
 17 18  1  0
 18 19  2  0
 19 20  1  0
 19 21  1  0
 21 22  1  0
 22 23  1  0
 22 24  1  0
 22 25  1  0
 21 26  2  0
 15  7  1  0
 26 16  1  0
 14  9  1  0
  4 27  1  0
  5 28  1  0
  5 29  1  0
  6 30  1  0
  6 31  1  0
  8 32  1  0
 10 33  1  0
 11 34  1  0
 12 35  1  0
 13 36  1  0
 17 37  1  0
 18 38  1  0
 26 39  1  0
M  END
$$$$
