
     RDKit          3D

 63 67  0  0  0  0  0  0  0  0999 V2000
   -5.1930    0.3819    0.7684 C   0  0  0  0  0  0  0  0  0  0  0  0
   -4.0969   -0.3168    1.3670 O   0  0  0  0  0  0  0  0  0  0  0  0
   -4.4594   -1.1323    2.3917 C   0  0  0  0  0  0  0  0  0  0  0  0
   -5.6064   -1.3212    2.7713 O   0  0  0  0  0  0  0  0  0  0  0  0
   -3.2704   -1.7343    3.0614 C   0  0  0  0  0  0  0  0  0  0  0  0
   -3.4883   -2.1788    4.3814 C   0  0  0  0  0  0  0  0  0  0  0  0
   -2.4549   -2.7367    5.1289 C   0  0  0  0  0  0  0  0  0  0  0  0
   -1.1897   -2.8513    4.5685 C   0  0  0  0  0  0  0  0  0  0  0  0
   -0.9615   -2.4221    3.2575 C   0  0  0  0  0  0  0  0  0  0  0  0
   -1.9972   -1.8929    2.4716 C   0  0  0  0  0  0  0  0  0  0  0  0
   -1.7472   -1.4495    1.1451 N   0  0  0  0  0  0  0  0  0  0  0  0
   -0.7571   -1.8232    0.2449 C   0  0  0  0  0  0  0  0  0  0  0  0
   -0.1606   -3.3985    0.1661 S   0  0  0  0  0  0  0  0  0  0  0  0
   -0.3736   -0.7820   -0.6305 N   0  0  0  0  0  0  0  0  0  0  0  0
   -0.9596    0.5711   -0.5631 C   0  0  0  0  0  0  0  0  0  0  0  0
   -1.9647    0.8454   -1.6649 C   0  0  0  0  0  0  0  0  0  0  0  0
   -2.8383   -0.1580   -2.1500 C   0  0  0  0  0  0  0  0  0  0  0  0
   -3.7778    0.1195   -3.1499 C   0  0  0  0  0  0  0  0  0  0  0  0
   -3.8333    1.4047   -3.6393 C   0  0  0  0  0  0  0  0  0  0  0  0
   -3.0012    2.3915   -3.1697 C   0  0  0  0  0  0  0  0  0  0  0  0
   -2.0636    2.1471   -2.1865 C   0  0  0  0  0  0  0  0  0  0  0  0
   -3.2236    3.5880   -3.7766 O   0  0  0  0  0  0  0  0  0  0  0  0
   -4.2675    3.2305   -4.7067 C   0  0  0  0  0  0  0  0  0  0  0  0
   -4.6811    1.8528   -4.6035 O   0  0  0  0  0  0  0  0  0  0  0  0
    0.6652   -0.9467   -1.6772 C   0  0  0  0  0  0  0  0  0  0  0  0
    2.0033   -0.4463   -1.1965 C   0  0  0  0  0  0  0  0  0  0  0  0
    2.8690   -1.1930   -0.4868 C   0  0  0  0  0  0  0  0  0  0  0  0
    4.1610   -0.6627   -0.0568 C   0  0  0  0  0  0  0  0  0  0  0  0
    5.0489   -1.4254    0.7006 C   0  0  0  0  0  0  0  0  0  0  0  0
    6.2714   -0.8762    1.0953 C   0  0  0  0  0  0  0  0  0  0  0  0
    6.6177    0.4328    0.7440 C   0  0  0  0  0  0  0  0  0  0  0  0
    7.8442    0.8350    1.1964 O   0  0  0  0  0  0  0  0  0  0  0  0
    8.2168    2.1836    0.9438 C   0  0  0  0  0  0  0  0  0  0  0  0
    5.7294    1.1979   -0.0130 C   0  0  0  0  0  0  0  0  0  0  0  0
    4.5099    0.6436   -0.4109 C   0  0  0  0  0  0  0  0  0  0  0  0
    3.6161    1.3986   -1.1801 N   0  0  0  0  0  0  0  0  0  0  0  0
    2.4044    0.9329   -1.6153 C   0  0  0  0  0  0  0  0  0  0  0  0
    1.6814    1.6361   -2.3150 O   0  0  0  0  0  0  0  0  0  0  0  0
   -5.8776   -0.3214    0.2847 H   0  0  0  0  0  0  0  0  0  0  0  0
   -5.7180    0.9865    1.5141 H   0  0  0  0  0  0  0  0  0  0  0  0
   -4.7897    1.0559    0.0076 H   0  0  0  0  0  0  0  0  0  0  0  0
   -4.4712   -2.0784    4.8377 H   0  0  0  0  0  0  0  0  0  0  0  0
   -2.6363   -3.0705    6.1474 H   0  0  0  0  0  0  0  0  0  0  0  0
   -0.3670   -3.2587    5.1540 H   0  0  0  0  0  0  0  0  0  0  0  0
    0.0545   -2.4892    2.8781 H   0  0  0  0  0  0  0  0  0  0  0  0
   -2.5193   -0.9306    0.7303 H   0  0  0  0  0  0  0  0  0  0  0  0
   -1.4508    0.7534    0.3973 H   0  0  0  0  0  0  0  0  0  0  0  0
   -0.1425    1.2975   -0.6013 H   0  0  0  0  0  0  0  0  0  0  0  0
   -2.7839   -1.1729   -1.7612 H   0  0  0  0  0  0  0  0  0  0  0  0
   -4.4389   -0.6517   -3.5303 H   0  0  0  0  0  0  0  0  0  0  0  0
   -1.4131    2.9463   -1.8435 H   0  0  0  0  0  0  0  0  0  0  0  0
   -5.1369    3.8712   -4.5209 H   0  0  0  0  0  0  0  0  0  0  0  0
   -3.9060    3.4123   -5.7261 H   0  0  0  0  0  0  0  0  0  0  0  0
    0.3381   -0.4267   -2.5851 H   0  0  0  0  0  0  0  0  0  0  0  0
    0.7522   -1.9957   -1.9758 H   0  0  0  0  0  0  0  0  0  0  0  0
    2.6295   -2.2111   -0.2023 H   0  0  0  0  0  0  0  0  0  0  0  0
    4.8031   -2.4434    0.9910 H   0  0  0  0  0  0  0  0  0  0  0  0
    6.9612   -1.4750    1.6849 H   0  0  0  0  0  0  0  0  0  0  0  0
    7.5311    2.8786    1.4417 H   0  0  0  0  0  0  0  0  0  0  0  0
    9.2155    2.3375    1.3662 H   0  0  0  0  0  0  0  0  0  0  0  0
    8.2741    2.3864   -0.1312 H   0  0  0  0  0  0  0  0  0  0  0  0
    5.9668    2.2143   -0.3042 H   0  0  0  0  0  0  0  0  0  0  0  0
    3.8535    2.3400   -1.4649 H   0  0  0  0  0  0  0  0  0  0  0  0
  1  2  1  0
  2  3  1  0
  3  4  2  0
  3  5  1  0
  5  6  2  0
  6  7  1  0
  7  8  2  0
  8  9  1  0
  9 10  2  0
 10 11  1  0
 11 12  1  0
 12 13  2  0
 12 14  1  0
 14 15  1  0
 15 16  1  0
 16 17  2  0
 17 18  1  0
 18 19  2  0
 19 20  1  0
 20 21  2  0
 20 22  1  0
 22 23  1  0
 23 24  1  0
 14 25  1  0
 25 26  1  0
 26 27  2  0
 27 28  1  0
 28 29  2  0
 29 30  1  0
 30 31  2  0
 31 32  1  0
 32 33  1  0
 31 34  1  0
 34 35  2  0
 35 36  1  0
 36 37  1  0
 37 38  2  0
 10  5  1  0
 21 16  1  0
 37 26  1  0
 24 19  1  0
 35 28  1  0
  1 39  1  0
  1 40  1  0
  1 41  1  0
  6 42  1  0
  7 43  1  0
  8 44  1  0
  9 45  1  0
 11 46  1  0
 15 47  1  0
 15 48  1  0
 17 49  1  0
 18 50  1  0
 21 51  1  0
 23 52  1  0
 23 53  1  0
 25 54  1  0
 25 55  1  0
 27 56  1  0
 29 57  1  0
 30 58  1  0
 33 59  1  0
 33 60  1  0
 33 61  1  0
 34 62  1  0
 36 63  1  0
M  END
$$$$
