
     RDKit          3D

 44 46  0  0  0  0  0  0  0  0999 V2000
    4.5436    0.4409    3.5904 C   0  0  0  0  0  0  0  0  0  0  0  0
    4.0340    0.0196    2.2417 C   0  0  0  0  0  0  0  0  0  0  0  0
    4.3894   -1.2241    1.7034 C   0  0  0  0  0  0  0  0  0  0  0  0
    3.9441   -1.6009    0.4331 C   0  0  0  0  0  0  0  0  0  0  0  0
    3.1419   -0.7307   -0.3145 C   0  0  0  0  0  0  0  0  0  0  0  0
    2.6524   -1.0957   -1.6684 C   0  0  0  0  0  0  0  0  0  0  0  0
    2.4164   -0.2310   -2.5044 O   0  0  0  0  0  0  0  0  0  0  0  0
    2.4253   -2.4412   -1.8917 N   0  0  0  0  0  0  0  0  0  0  0  0
    1.7610   -2.8596   -3.1185 C   0  0  0  0  0  0  0  0  0  0  0  0
    0.2402   -2.6996   -3.0997 C   0  0  0  0  0  0  0  0  0  0  0  0
   -0.4683   -2.9109   -4.0767 O   0  0  0  0  0  0  0  0  0  0  0  0
   -0.2120   -2.3368   -1.8690 O   0  0  0  0  0  0  0  0  0  0  0  0
   -1.6046   -1.9971   -1.7743 C   0  0  0  0  0  0  0  0  0  0  0  0
   -1.7918   -0.5405   -1.4806 C   0  0  0  0  0  0  0  0  0  0  0  0
   -1.0770    0.5098   -2.0219 C   0  0  0  0  0  0  0  0  0  0  0  0
   -1.6527    1.9957   -1.4053 S   0  0  0  0  0  0  0  0  0  0  0  0
   -2.8279    1.1583   -0.4586 C   0  0  0  0  0  0  0  0  0  0  0  0
   -3.7817    1.8692    0.4199 C   0  0  0  0  0  0  0  0  0  0  0  0
   -4.6012    1.1160    1.2820 C   0  0  0  0  0  0  0  0  0  0  0  0
   -5.5257    1.7321    2.1328 C   0  0  0  0  0  0  0  0  0  0  0  0
   -5.6449    3.1183    2.1385 C   0  0  0  0  0  0  0  0  0  0  0  0
   -4.8493    3.8848    1.2913 C   0  0  0  0  0  0  0  0  0  0  0  0
   -3.9269    3.2667    0.4377 C   0  0  0  0  0  0  0  0  0  0  0  0
   -2.7816   -0.1575   -0.5848 N   0  0  0  0  0  0  0  0  0  0  0  0
    2.8078    0.5239    0.2055 C   0  0  0  0  0  0  0  0  0  0  0  0
    3.2503    0.8955    1.4784 C   0  0  0  0  0  0  0  0  0  0  0  0
    4.7475   -0.4290    4.2225 H   0  0  0  0  0  0  0  0  0  0  0  0
    5.4669    1.0194    3.4776 H   0  0  0  0  0  0  0  0  0  0  0  0
    3.7996    1.0537    4.1114 H   0  0  0  0  0  0  0  0  0  0  0  0
    5.0262   -1.9060    2.2654 H   0  0  0  0  0  0  0  0  0  0  0  0
    4.2544   -2.5619    0.0298 H   0  0  0  0  0  0  0  0  0  0  0  0
    2.2870   -3.0221   -1.0758 H   0  0  0  0  0  0  0  0  0  0  0  0
    1.9900   -3.9206   -3.2553 H   0  0  0  0  0  0  0  0  0  0  0  0
    2.1577   -2.2789   -3.9578 H   0  0  0  0  0  0  0  0  0  0  0  0
   -2.1777   -2.2651   -2.6716 H   0  0  0  0  0  0  0  0  0  0  0  0
   -2.0130   -2.5888   -0.9468 H   0  0  0  0  0  0  0  0  0  0  0  0
   -0.2586    0.4744   -2.7301 H   0  0  0  0  0  0  0  0  0  0  0  0
   -4.5265    0.0295    1.2913 H   0  0  0  0  0  0  0  0  0  0  0  0
   -6.1510    1.1258    2.7859 H   0  0  0  0  0  0  0  0  0  0  0  0
   -6.3646    3.5999    2.7967 H   0  0  0  0  0  0  0  0  0  0  0  0
   -4.9458    4.9672    1.2888 H   0  0  0  0  0  0  0  0  0  0  0  0
   -3.3341    3.9046   -0.2133 H   0  0  0  0  0  0  0  0  0  0  0  0
    2.1976    1.2158   -0.3734 H   0  0  0  0  0  0  0  0  0  0  0  0
    2.9837    1.8771    1.8684 H   0  0  0  0  0  0  0  0  0  0  0  0
  1  2  1  0
  2  3  2  0
  3  4  1  0
  4  5  2  0
  5  6  1  0
  6  7  2  0
  6  8  1  0
  8  9  1  0
  9 10  1  0
 10 11  2  0
 10 12  1  0
 12 13  1  0
 13 14  1  0
 14 15  2  0
 15 16  1  0
 16 17  1  0
 17 18  1  0
 18 19  2  0
 19 20  1  0
 20 21  2  0
 21 22  1  0
 22 23  2  0
 17 24  2  0
  5 25  1  0
 25 26  2  0
 26  2  1  0
 24 14  1  0
 23 18  1  0
  1 27  1  0
  1 28  1  0
  1 29  1  0
  3 30  1  0
  4 31  1  0
  8 32  1  0
  9 33  1  0
  9 34  1  0
 13 35  1  0
 13 36  1  0
 15 37  1  0
 19 38  1  0
 20 39  1  0
 21 40  1  0
 22 41  1  0
 23 42  1  0
 25 43  1  0
 26 44  1  0
M  END
$$$$
