
     RDKit          3D

 45 44  0  0  0  0  0  0  0  0999 V2000
    6.7037   -4.4482    0.3199 C   0  0  0  0  0  0  0  0  0  0  0  0
    5.3373   -4.1846    0.9321 C   0  0  0  0  0  0  0  0  0  0  0  0
    4.6180   -3.0383    0.2236 C   0  0  0  0  0  0  0  0  0  0  0  0
    3.2481   -2.7768    0.8397 C   0  0  0  0  0  0  0  0  0  0  0  0
    2.5678   -1.6961    0.1649 N   0  0  0  0  0  0  0  0  0  0  0  0
    1.4996   -1.0646    0.7271 C   0  0  0  0  0  0  0  0  0  0  0  0
    1.1156   -1.2018    1.8778 O   0  0  0  0  0  0  0  0  0  0  0  0
    0.9222   -0.2676   -0.2036 O   0  0  0  0  0  0  0  0  0  0  0  0
   -0.2379    0.4357    0.2644 C   0  0  0  0  0  0  0  0  0  0  0  0
   -0.7122    1.4279   -0.8157 C   0  0  0  0  0  0  0  0  0  0  0  0
    0.3587    2.4981   -1.0935 C   0  0  0  0  0  0  0  0  0  0  0  0
   -0.0058    3.4034   -2.2638 C   0  0  0  0  0  0  0  0  0  0  0  0
   -1.9713    2.0503   -0.4312 N   0  0  0  0  0  0  0  0  0  0  0  0
   -3.1666    1.4080   -0.5432 C   0  0  0  0  0  0  0  0  0  0  0  0
   -3.3369    0.3236   -1.0770 O   0  0  0  0  0  0  0  0  0  0  0  0
   -4.1240    2.1592    0.0503 O   0  0  0  0  0  0  0  0  0  0  0  0
   -5.4561    1.6134    0.0319 C   0  0  0  0  0  0  0  0  0  0  0  0
   -6.4229    2.7848    0.1573 C   0  0  0  0  0  0  0  0  0  0  0  0
   -5.6276    0.6458    1.1975 C   0  0  0  0  0  0  0  0  0  0  0  0
    6.6143   -4.7206   -0.7366 H   0  0  0  0  0  0  0  0  0  0  0  0
    7.2005   -5.2719    0.8421 H   0  0  0  0  0  0  0  0  0  0  0  0
    7.3441   -3.5635    0.3940 H   0  0  0  0  0  0  0  0  0  0  0  0
    5.4596   -3.9471    1.9953 H   0  0  0  0  0  0  0  0  0  0  0  0
    4.7335   -5.0975    0.8709 H   0  0  0  0  0  0  0  0  0  0  0  0
    4.5040   -3.2740   -0.8420 H   0  0  0  0  0  0  0  0  0  0  0  0
    5.2258   -2.1265    0.2797 H   0  0  0  0  0  0  0  0  0  0  0  0
    3.3422   -2.5292    1.9032 H   0  0  0  0  0  0  0  0  0  0  0  0
    2.6108   -3.6646    0.7595 H   0  0  0  0  0  0  0  0  0  0  0  0
    2.6123   -1.6224   -0.8419 H   0  0  0  0  0  0  0  0  0  0  0  0
   -0.0035    0.9792    1.1888 H   0  0  0  0  0  0  0  0  0  0  0  0
   -1.0269   -0.2951    0.4790 H   0  0  0  0  0  0  0  0  0  0  0  0
   -0.8813    0.8627   -1.7418 H   0  0  0  0  0  0  0  0  0  0  0  0
    1.3177    2.0181   -1.3208 H   0  0  0  0  0  0  0  0  0  0  0  0
    0.5129    3.1165   -0.2006 H   0  0  0  0  0  0  0  0  0  0  0  0
    0.8030    4.1162   -2.4534 H   0  0  0  0  0  0  0  0  0  0  0  0
   -0.1634    2.8194   -3.1761 H   0  0  0  0  0  0  0  0  0  0  0  0
   -0.9152    3.9767   -2.0592 H   0  0  0  0  0  0  0  0  0  0  0  0
   -1.9789    2.8668    0.1648 H   0  0  0  0  0  0  0  0  0  0  0  0
   -5.6504    1.1044   -0.9202 H   0  0  0  0  0  0  0  0  0  0  0  0
   -6.2797    3.4863   -0.6717 H   0  0  0  0  0  0  0  0  0  0  0  0
   -7.4630    2.4451    0.1507 H   0  0  0  0  0  0  0  0  0  0  0  0
   -6.2422    3.3477    1.0799 H   0  0  0  0  0  0  0  0  0  0  0  0
   -6.6478    0.2519    1.2383 H   0  0  0  0  0  0  0  0  0  0  0  0
   -4.9364   -0.1986    1.1093 H   0  0  0  0  0  0  0  0  0  0  0  0
   -5.4018    1.1370    2.1504 H   0  0  0  0  0  0  0  0  0  0  0  0
  1  2  1  0
  2  3  1  0
  3  4  1  0
  4  5  1  0
  5  6  1  0
  6  7  2  0
  6  8  1  0
  8  9  1  0
  9 10  1  0
 10 11  1  0
 11 12  1  0
 10 13  1  0
 13 14  1  0
 14 15  2  0
 14 16  1  0
 16 17  1  0
 17 18  1  0
 17 19  1  0
  1 20  1  0
  1 21  1  0
  1 22  1  0
  2 23  1  0
  2 24  1  0
  3 25  1  0
  3 26  1  0
  4 27  1  0
  4 28  1  0
  5 29  1  0
  9 30  1  0
  9 31  1  0
 10 32  1  0
 11 33  1  0
 11 34  1  0
 12 35  1  0
 12 36  1  0
 12 37  1  0
 13 38  1  0
 17 39  1  0
 18 40  1  0
 18 41  1  0
 18 42  1  0
 19 43  1  0
 19 44  1  0
 19 45  1  0
M  END
$$$$
