
     RDKit          3D

 34 35  0  0  0  0  0  0  0  0999 V2000
    3.3347    0.5276   -2.0458 C   0  0  0  0  0  0  0  0  0  0  0  0
    3.6254    0.1187   -0.6109 C   0  0  0  0  0  0  0  0  0  0  0  0
    2.4105   -0.1447    0.1430 N   0  0  0  0  0  0  0  0  0  0  0  0
    1.8520   -1.3663    0.0533 N   0  0  0  0  0  0  0  0  0  0  0  0
    0.7971   -1.3016    0.8678 C   0  0  0  0  0  0  0  0  0  0  0  0
    0.6613   -0.0332    1.4637 C   0  0  0  0  0  0  0  0  0  0  0  0
   -0.3120    0.4415    2.3904 C   0  0  0  0  0  0  0  0  0  0  0  0
   -1.5948    0.0699    2.5231 C   0  0  0  0  0  0  0  0  0  0  0  0
   -2.2995   -0.9549    1.7175 C   0  0  0  0  0  0  0  0  0  0  0  0
   -2.6669   -1.9892    2.2741 O   0  0  0  0  0  0  0  0  0  0  0  0
   -2.5964   -0.7062    0.2758 C   0  0  0  0  0  0  0  0  0  0  0  0
   -3.2333   -1.7299   -0.4452 C   0  0  0  0  0  0  0  0  0  0  0  0
   -3.5498   -1.5610   -1.7957 C   0  0  0  0  0  0  0  0  0  0  0  0
   -3.2265   -0.3696   -2.4379 C   0  0  0  0  0  0  0  0  0  0  0  0
   -2.5986    0.6571   -1.7288 C   0  0  0  0  0  0  0  0  0  0  0  0
   -2.2897    0.4947   -0.3745 C   0  0  0  0  0  0  0  0  0  0  0  0
    1.7267    0.7070    0.9810 C   0  0  0  0  0  0  0  0  0  0  0  0
    2.1395    2.1124    1.2332 C   0  0  0  0  0  0  0  0  0  0  0  0
    4.2711    0.7379   -2.5785 H   0  0  0  0  0  0  0  0  0  0  0  0
    2.7065    1.4259   -2.0848 H   0  0  0  0  0  0  0  0  0  0  0  0
    2.8059   -0.2681   -2.5856 H   0  0  0  0  0  0  0  0  0  0  0  0
    4.1937    0.8979   -0.0922 H   0  0  0  0  0  0  0  0  0  0  0  0
    4.2318   -0.7931   -0.5857 H   0  0  0  0  0  0  0  0  0  0  0  0
    0.1817   -2.1853    0.9918 H   0  0  0  0  0  0  0  0  0  0  0  0
    0.0345    1.2030    3.0895 H   0  0  0  0  0  0  0  0  0  0  0  0
   -2.1968    0.4773    3.3337 H   0  0  0  0  0  0  0  0  0  0  0  0
   -3.4884   -2.6679    0.0446 H   0  0  0  0  0  0  0  0  0  0  0  0
   -4.0436   -2.3629   -2.3383 H   0  0  0  0  0  0  0  0  0  0  0  0
   -3.4589   -0.2421   -3.4935 H   0  0  0  0  0  0  0  0  0  0  0  0
   -2.3466    1.5863   -2.2337 H   0  0  0  0  0  0  0  0  0  0  0  0
   -1.8055    1.3174    0.1433 H   0  0  0  0  0  0  0  0  0  0  0  0
    2.5997    2.5681    0.3482 H   0  0  0  0  0  0  0  0  0  0  0  0
    2.8583    2.1524    2.0582 H   0  0  0  0  0  0  0  0  0  0  0  0
    1.2771    2.7343    1.4990 H   0  0  0  0  0  0  0  0  0  0  0  0
  1  2  1  0
  2  3  1  0
  3  4  1  0
  4  5  2  0
  5  6  1  0
  6  7  1  0
  7  8  2  3
  8  9  1  0
  9 10  2  0
  9 11  1  0
 11 12  2  0
 12 13  1  0
 13 14  2  0
 14 15  1  0
 15 16  2  0
  6 17  2  0
 17 18  1  0
 17  3  1  0
 16 11  1  0
  1 19  1  0
  1 20  1  0
  1 21  1  0
  2 22  1  0
  2 23  1  0
  5 24  1  0
  7 25  1  0
  8 26  1  0
 12 27  1  0
 13 28  1  0
 14 29  1  0
 15 30  1  0
 16 31  1  0
 18 32  1  0
 18 33  1  0
 18 34  1  0
M  END
$$$$
