
     RDKit          3D

 44 45  0  0  0  0  0  0  0  0999 V2000
   -6.3790    0.6453   -1.5337 C   0  0  0  0  0  0  0  0  0  0  0  0
   -5.2835    0.0481   -0.6685 C   0  0  0  0  0  0  0  0  0  0  0  0
   -4.2721    1.1025   -0.2310 C   0  0  0  0  0  0  0  0  0  0  0  0
   -3.2209    0.4912    0.5332 O   0  0  0  0  0  0  0  0  0  0  0  0
   -3.4615    0.3384    1.8574 C   0  0  0  0  0  0  0  0  0  0  0  0
   -4.4809    0.6670    2.4442 O   0  0  0  0  0  0  0  0  0  0  0  0
   -2.3017   -0.3045    2.5352 C   0  0  0  0  0  0  0  0  0  0  0  0
   -2.4173   -0.5823    3.9030 C   0  0  0  0  0  0  0  0  0  0  0  0
   -1.3611   -1.1785    4.5871 C   0  0  0  0  0  0  0  0  0  0  0  0
   -0.1849   -1.4979    3.9069 C   0  0  0  0  0  0  0  0  0  0  0  0
   -0.0492   -1.2251    2.5388 C   0  0  0  0  0  0  0  0  0  0  0  0
    1.1799   -1.5755    1.9387 N   0  0  0  0  0  0  0  0  0  0  0  0
    1.5457   -1.4261    0.6052 C   0  0  0  0  0  0  0  0  0  0  0  0
    0.8405   -0.9715   -0.2886 O   0  0  0  0  0  0  0  0  0  0  0  0
    2.9924   -1.8900    0.3571 C   0  0  0  0  0  0  0  0  0  0  0  0
    3.4692   -1.8116   -0.9749 O   0  0  0  0  0  0  0  0  0  0  0  0
    3.8963   -0.6013   -1.4443 C   0  0  0  0  0  0  0  0  0  0  0  0
    3.7683    0.6291   -0.7955 C   0  0  0  0  0  0  0  0  0  0  0  0
    4.2479    1.7984   -1.3990 C   0  0  0  0  0  0  0  0  0  0  0  0
    4.8548    1.7323   -2.6598 C   0  0  0  0  0  0  0  0  0  0  0  0
    5.3575    2.9580   -3.2918 N   0  0  0  0  0  4  0  0  0  0  0  0
    5.8238    2.8691   -4.4375 O   0  0  0  0  0  0  0  0  0  0  0  0
    5.2928    4.0102   -2.6384 O   0  0  0  0  0  1  0  0  0  0  0  0
    4.9820    0.5060   -3.3207 C   0  0  0  0  0  0  0  0  0  0  0  0
    4.4990   -0.6529   -2.7071 C   0  0  0  0  0  0  0  0  0  0  0  0
   -1.1138   -0.6271    1.8584 C   0  0  0  0  0  0  0  0  0  0  0  0
   -5.9640    1.0770   -2.4506 H   0  0  0  0  0  0  0  0  0  0  0  0
   -7.1000   -0.1280   -1.8190 H   0  0  0  0  0  0  0  0  0  0  0  0
   -6.9192    1.4308   -0.9955 H   0  0  0  0  0  0  0  0  0  0  0  0
   -4.7682   -0.7499   -1.2168 H   0  0  0  0  0  0  0  0  0  0  0  0
   -5.7300   -0.4313    0.2100 H   0  0  0  0  0  0  0  0  0  0  0  0
   -3.8008    1.5594   -1.1084 H   0  0  0  0  0  0  0  0  0  0  0  0
   -4.7471    1.9133    0.3349 H   0  0  0  0  0  0  0  0  0  0  0  0
   -3.3320   -0.3334    4.4392 H   0  0  0  0  0  0  0  0  0  0  0  0
   -1.4546   -1.3924    5.6494 H   0  0  0  0  0  0  0  0  0  0  0  0
    0.6225   -1.9629    4.4672 H   0  0  0  0  0  0  0  0  0  0  0  0
    1.8624   -1.9996    2.5554 H   0  0  0  0  0  0  0  0  0  0  0  0
    3.6718   -1.3767    1.0490 H   0  0  0  0  0  0  0  0  0  0  0  0
    3.0263   -2.9523    0.6286 H   0  0  0  0  0  0  0  0  0  0  0  0
    3.2828    0.7236    0.1704 H   0  0  0  0  0  0  0  0  0  0  0  0
    4.1304    2.7473   -0.8787 H   0  0  0  0  0  0  0  0  0  0  0  0
    5.4451    0.4339   -4.3027 H   0  0  0  0  0  0  0  0  0  0  0  0
    4.5898   -1.6092   -3.2189 H   0  0  0  0  0  0  0  0  0  0  0  0
   -1.0394   -0.4008    0.8000 H   0  0  0  0  0  0  0  0  0  0  0  0
  1  2  1  0
  2  3  1  0
  3  4  1  0
  4  5  1  0
  5  6  2  0
  5  7  1  0
  7  8  2  0
  8  9  1  0
  9 10  2  0
 10 11  1  0
 11 12  1  0
 12 13  1  0
 13 14  2  0
 13 15  1  0
 15 16  1  0
 16 17  1  0
 17 18  2  0
 18 19  1  0
 19 20  2  0
 20 21  1  0
 21 22  2  0
 21 23  1  0
 20 24  1  0
 24 25  2  0
 11 26  2  0
 26  7  1  0
 25 17  1  0
  1 27  1  0
  1 28  1  0
  1 29  1  0
  2 30  1  0
  2 31  1  0
  3 32  1  0
  3 33  1  0
  8 34  1  0
  9 35  1  0
 10 36  1  0
 12 37  1  0
 15 38  1  0
 15 39  1  0
 18 40  1  0
 19 41  1  0
 24 42  1  0
 25 43  1  0
 26 44  1  0
M  CHG  2  21   1  23  -1
M  END
$$$$
