
     RDKit          3D

 64 67  0  0  0  0  0  0  0  0999 V2000
    7.8118   -3.0446    0.2290 C   0  0  0  0  0  0  0  0  0  0  0  0
    7.6683   -1.8952    1.0540 O   0  0  0  0  0  0  0  0  0  0  0  0
    6.4817   -1.2199    0.9723 C   0  0  0  0  0  0  0  0  0  0  0  0
    6.3710   -0.1257    1.8333 C   0  0  0  0  0  0  0  0  0  0  0  0
    5.2075    0.6535    1.8673 C   0  0  0  0  0  0  0  0  0  0  0  0
    4.1368    0.3515    1.0289 C   0  0  0  0  0  0  0  0  0  0  0  0
    2.9314    1.0861    0.9909 N   0  0  0  0  0  0  0  0  0  0  0  0
    2.5303    2.0987    1.8414 C   0  0  0  0  0  0  0  0  0  0  0  0
    3.1546    2.5075    2.8189 O   0  0  0  0  0  0  0  0  0  0  0  0
    1.2012    2.7314    1.4620 C   0  0  0  0  0  0  0  0  0  0  0  0
   -0.1868    1.6723    1.9553 S   0  0  0  0  0  0  0  0  0  0  0  0
   -0.3869    0.7053    0.5384 C   0  0  0  0  0  0  0  0  0  0  0  0
    0.4274    0.6947   -0.4902 N   0  0  0  0  0  0  0  0  0  0  0  0
   -0.0180   -0.2575   -1.3653 N   0  0  0  0  0  0  0  0  0  0  0  0
   -1.0958   -0.8212   -0.8521 C   0  0  0  0  0  0  0  0  0  0  0  0
   -1.8321   -1.9750   -1.4536 C   0  0  0  0  0  0  0  0  0  0  0  0
   -3.0971   -1.5779   -2.1549 C   0  0  0  0  0  0  0  0  0  0  0  0
   -3.3345   -0.4981   -2.9926 C   0  0  0  0  0  0  0  0  0  0  0  0
   -4.6835   -0.5521   -3.4047 C   0  0  0  0  0  0  0  0  0  0  0  0
   -5.2393   -1.6717   -2.8306 C   0  0  0  0  0  0  0  0  0  0  0  0
   -4.2693   -2.3026   -2.0947 N   0  0  0  0  0  0  0  0  0  0  0  0
   -4.4724   -3.5475   -1.3854 C   0  0  0  0  0  0  0  0  0  0  0  0
   -1.3993   -0.1959    0.3415 N   0  0  0  0  0  0  0  0  0  0  0  0
   -2.5120   -0.4882    1.2226 C   0  0  0  0  0  0  0  0  0  0  0  0
   -3.8120    0.2525    0.8881 C   0  0  0  0  0  0  0  0  0  0  0  0
   -3.7439    1.7466    1.0776 C   0  0  0  0  0  0  0  0  0  0  0  0
   -3.9288    2.3142    2.3449 C   0  0  0  0  0  0  0  0  0  0  0  0
   -3.8354    3.6958    2.5191 C   0  0  0  0  0  0  0  0  0  0  0  0
   -3.5597    4.5210    1.4309 C   0  0  0  0  0  0  0  0  0  0  0  0
   -3.3787    3.9666    0.1659 C   0  0  0  0  0  0  0  0  0  0  0  0
   -3.4700    2.5859   -0.0112 C   0  0  0  0  0  0  0  0  0  0  0  0
    4.2671   -0.7344    0.1478 C   0  0  0  0  0  0  0  0  0  0  0  0
    3.2040   -1.0710   -0.6568 O   0  0  0  0  0  0  0  0  0  0  0  0
    3.4579   -0.6913   -2.0094 C   0  0  0  0  0  0  0  0  0  0  0  0
    5.4183   -1.5298    0.1288 C   0  0  0  0  0  0  0  0  0  0  0  0
    7.7598   -2.7780   -0.8313 H   0  0  0  0  0  0  0  0  0  0  0  0
    7.0675   -3.8068    0.4829 H   0  0  0  0  0  0  0  0  0  0  0  0
    8.8023   -3.4701    0.4170 H   0  0  0  0  0  0  0  0  0  0  0  0
    7.1974    0.1259    2.4938 H   0  0  0  0  0  0  0  0  0  0  0  0
    5.1772    1.4910    2.5563 H   0  0  0  0  0  0  0  0  0  0  0  0
    2.2536    0.7527    0.3007 H   0  0  0  0  0  0  0  0  0  0  0  0
    1.1857    2.9804    0.3960 H   0  0  0  0  0  0  0  0  0  0  0  0
    1.1126    3.6779    2.0064 H   0  0  0  0  0  0  0  0  0  0  0  0
   -1.1775   -2.4626   -2.1879 H   0  0  0  0  0  0  0  0  0  0  0  0
   -2.0204   -2.7236   -0.6769 H   0  0  0  0  0  0  0  0  0  0  0  0
   -2.6041    0.2536   -3.2687 H   0  0  0  0  0  0  0  0  0  0  0  0
   -5.1931    0.1463   -4.0563 H   0  0  0  0  0  0  0  0  0  0  0  0
   -6.2420   -2.0730   -2.9032 H   0  0  0  0  0  0  0  0  0  0  0  0
   -3.7149   -4.2618   -1.7157 H   0  0  0  0  0  0  0  0  0  0  0  0
   -5.4679   -3.9401   -1.6094 H   0  0  0  0  0  0  0  0  0  0  0  0
   -4.3835   -3.3503   -0.3136 H   0  0  0  0  0  0  0  0  0  0  0  0
   -2.6906   -1.5681    1.1712 H   0  0  0  0  0  0  0  0  0  0  0  0
   -2.2027   -0.2891    2.2543 H   0  0  0  0  0  0  0  0  0  0  0  0
   -4.1307    0.0392   -0.1358 H   0  0  0  0  0  0  0  0  0  0  0  0
   -4.6136   -0.1405    1.5269 H   0  0  0  0  0  0  0  0  0  0  0  0
   -4.1415    1.6863    3.2071 H   0  0  0  0  0  0  0  0  0  0  0  0
   -3.9747    4.1306    3.5055 H   0  0  0  0  0  0  0  0  0  0  0  0
   -3.4854    5.5962    1.5707 H   0  0  0  0  0  0  0  0  0  0  0  0
   -3.1641    4.6092   -0.6832 H   0  0  0  0  0  0  0  0  0  0  0  0
   -3.3183    2.1683   -1.0048 H   0  0  0  0  0  0  0  0  0  0  0  0
    3.7920    0.3503   -2.0816 H   0  0  0  0  0  0  0  0  0  0  0  0
    4.1940   -1.3603   -2.4668 H   0  0  0  0  0  0  0  0  0  0  0  0
    2.5225   -0.7873   -2.5693 H   0  0  0  0  0  0  0  0  0  0  0  0
    5.4469   -2.3802   -0.5414 H   0  0  0  0  0  0  0  0  0  0  0  0
  1  2  1  0
  2  3  1  0
  3  4  2  0
  4  5  1  0
  5  6  2  0
  6  7  1  0
  7  8  1  0
  8  9  2  0
  8 10  1  0
 10 11  1  0
 11 12  1  0
 12 13  2  0
 13 14  1  0
 14 15  2  0
 15 16  1  0
 16 17  1  0
 17 18  2  0
 18 19  1  0
 19 20  2  0
 20 21  1  0
 21 22  1  0
 15 23  1  0
 23 24  1  0
 24 25  1  0
 25 26  1  0
 26 27  2  0
 27 28  1  0
 28 29  2  0
 29 30  1  0
 30 31  2  0
  6 32  1  0
 32 33  1  0
 33 34  1  0
 32 35  2  0
 35  3  1  0
 23 12  1  0
 31 26  1  0
 21 17  1  0
  1 36  1  0
  1 37  1  0
  1 38  1  0
  4 39  1  0
  5 40  1  0
  7 41  1  0
 10 42  1  0
 10 43  1  0
 16 44  1  0
 16 45  1  0
 18 46  1  0
 19 47  1  0
 20 48  1  0
 22 49  1  0
 22 50  1  0
 22 51  1  0
 24 52  1  0
 24 53  1  0
 25 54  1  0
 25 55  1  0
 27 56  1  0
 28 57  1  0
 29 58  1  0
 30 59  1  0
 31 60  1  0
 34 61  1  0
 34 62  1  0
 34 63  1  0
 35 64  1  0
M  END
$$$$
