
     RDKit          3D

 51 55  0  0  0  0  0  0  0  0999 V2000
   -9.4741    1.3966   -0.1599 C   0  0  0  0  0  0  0  0  0  0  0  0
   -8.0195    1.4582   -0.5158 C   0  0  0  0  0  0  0  0  0  0  0  0
   -7.5619    2.3719   -1.4736 C   0  0  0  0  0  0  0  0  0  0  0  0
   -6.2150    2.4142   -1.8281 C   0  0  0  0  0  0  0  0  0  0  0  0
   -5.3081    1.5291   -1.2425 C   0  0  0  0  0  0  0  0  0  0  0  0
   -5.7568    0.5889   -0.3060 C   0  0  0  0  0  0  0  0  0  0  0  0
   -4.8316   -0.3889    0.3353 C   0  0  0  0  0  0  0  0  0  0  0  0
   -5.0742   -0.7549    1.4795 O   0  0  0  0  0  0  0  0  0  0  0  0
   -3.8114   -0.8307   -0.4755 N   0  0  0  0  0  0  0  0  0  0  0  0
   -2.8067   -1.7009   -0.1222 C   0  0  0  0  0  0  0  0  0  0  0  0
   -1.9648   -2.1931   -1.0053 N   0  0  0  0  0  0  0  0  0  0  0  0
   -1.0203   -3.0177   -0.4179 N   0  0  0  0  0  0  0  0  0  0  0  0
   -1.1781   -3.0831    0.8870 C   0  0  0  0  0  0  0  0  0  0  0  0
   -0.1135   -4.0551    1.8818 S   0  0  0  0  0  0  0  0  0  0  0  0
    0.5544   -2.7857    2.9920 C   0  0  0  0  0  0  0  0  0  0  0  0
    1.3463   -1.7464    2.2146 C   0  0  0  0  0  0  0  0  0  0  0  0
    0.8894   -0.6220    2.0324 O   0  0  0  0  0  0  0  0  0  0  0  0
    2.5773   -2.2200    1.7882 N   0  0  0  0  0  0  0  0  0  0  0  0
    3.5984   -1.4971    1.1354 C   0  0  0  0  0  0  0  0  0  0  0  0
    4.7459   -2.2251    0.7779 C   0  0  0  0  0  0  0  0  0  0  0  0
    5.8490   -1.6127    0.1589 C   0  0  0  0  0  0  0  0  0  0  0  0
    5.7912   -0.2350   -0.1078 C   0  0  0  0  0  0  0  0  0  0  0  0
    4.6385    0.4575    0.2467 C   0  0  0  0  0  0  0  0  0  0  0  0
    3.5268   -0.1257    0.8646 C   0  0  0  0  0  0  0  0  0  0  0  0
    4.7575    1.7748   -0.0828 O   0  0  0  0  0  0  0  0  0  0  0  0
    5.9904    1.9399   -0.6378 C   0  0  0  0  0  0  0  0  0  0  0  0
    6.5132    3.1459   -1.1007 C   0  0  0  0  0  0  0  0  0  0  0  0
    7.8092    3.1058   -1.6269 C   0  0  0  0  0  0  0  0  0  0  0  0
    8.5287    1.9103   -1.6826 C   0  0  0  0  0  0  0  0  0  0  0  0
    7.9742    0.7105   -1.2150 C   0  0  0  0  0  0  0  0  0  0  0  0
    6.6723    0.7292   -0.6789 C   0  0  0  0  0  0  0  0  0  0  0  0
   -2.5174   -2.1989    1.4811 S   0  0  0  0  0  0  0  0  0  0  0  0
   -7.1089    0.5648    0.0618 C   0  0  0  0  0  0  0  0  0  0  0  0
  -10.0155    0.8033   -0.9014 H   0  0  0  0  0  0  0  0  0  0  0  0
   -9.9058    2.4020   -0.1263 H   0  0  0  0  0  0  0  0  0  0  0  0
   -9.6197    0.9429    0.8262 H   0  0  0  0  0  0  0  0  0  0  0  0
   -8.2561    3.0638   -1.9445 H   0  0  0  0  0  0  0  0  0  0  0  0
   -5.8704    3.1445   -2.5571 H   0  0  0  0  0  0  0  0  0  0  0  0
   -4.2593    1.6020   -1.5128 H   0  0  0  0  0  0  0  0  0  0  0  0
   -3.8238   -0.6164   -1.4624 H   0  0  0  0  0  0  0  0  0  0  0  0
   -0.2445   -2.2918    3.5576 H   0  0  0  0  0  0  0  0  0  0  0  0
    1.2142   -3.2647    3.7268 H   0  0  0  0  0  0  0  0  0  0  0  0
    2.7328   -3.2175    1.8843 H   0  0  0  0  0  0  0  0  0  0  0  0
    4.8110   -3.2917    0.9856 H   0  0  0  0  0  0  0  0  0  0  0  0
    6.7313   -2.1926   -0.0961 H   0  0  0  0  0  0  0  0  0  0  0  0
    2.6731    0.4885    1.1152 H   0  0  0  0  0  0  0  0  0  0  0  0
    5.9418    4.0652   -1.0493 H   0  0  0  0  0  0  0  0  0  0  0  0
    8.2627    4.0234   -1.9965 H   0  0  0  0  0  0  0  0  0  0  0  0
    9.5353    1.9094   -2.0917 H   0  0  0  0  0  0  0  0  0  0  0  0
    8.5432   -0.2127   -1.2607 H   0  0  0  0  0  0  0  0  0  0  0  0
   -7.4506   -0.1622    0.7982 H   0  0  0  0  0  0  0  0  0  0  0  0
  1  2  1  0
  2  3  2  0
  3  4  1  0
  4  5  2  0
  5  6  1  0
  6  7  1  0
  7  8  2  0
  7  9  1  0
  9 10  1  0
 10 11  2  0
 11 12  1  0
 12 13  2  0
 13 14  1  0
 14 15  1  0
 15 16  1  0
 16 17  2  0
 16 18  1  0
 18 19  1  0
 19 20  2  0
 20 21  1  0
 21 22  2  0
 22 23  1  0
 23 24  2  0
 23 25  1  0
 25 26  1  0
 26 27  2  0
 27 28  1  0
 28 29  2  0
 29 30  1  0
 30 31  2  0
 13 32  1  0
  6 33  2  0
 33  2  1  0
 32 10  1  0
 24 19  1  0
 31 26  1  0
 31 22  1  0
  1 34  1  0
  1 35  1  0
  1 36  1  0
  3 37  1  0
  4 38  1  0
  5 39  1  0
  9 40  1  0
 15 41  1  0
 15 42  1  0
 18 43  1  0
 20 44  1  0
 21 45  1  0
 24 46  1  0
 27 47  1  0
 28 48  1  0
 29 49  1  0
 30 50  1  0
 33 51  1  0
M  END
$$$$
