
     RDKit          3D

 46 48  0  0  0  0  0  0  0  0999 V2000
    0.5994    0.6643   -2.6953 C   0  0  0  0  0  0  0  0  0  0  0  0
    0.2178    1.8344   -1.8118 C   0  0  0  0  0  0  0  0  0  0  0  0
    0.7052    3.1966   -2.1743 C   0  0  0  0  0  0  0  0  0  0  0  0
    1.9415    3.5382   -2.5674 C   0  0  0  0  0  0  0  0  0  0  0  0
    3.1212    2.6740   -2.6716 C   0  0  0  0  0  0  0  0  0  0  0  0
    3.5492    1.8858   -1.5965 C   0  0  0  0  0  0  0  0  0  0  0  0
    4.6920    1.0918   -1.7132 C   0  0  0  0  0  0  0  0  0  0  0  0
    5.4251    1.0927   -2.8982 C   0  0  0  0  0  0  0  0  0  0  0  0
    5.0179    1.8892   -3.9670 C   0  0  0  0  0  0  0  0  0  0  0  0
    3.8729    2.6812   -3.8526 C   0  0  0  0  0  0  0  0  0  0  0  0
   -0.5906    1.7596   -0.7871 N   0  0  0  0  0  0  0  0  0  0  0  0
   -0.9846    0.5167   -0.3671 N   0  0  0  0  0  0  0  0  0  0  0  0
   -0.0787   -0.3254    0.2685 C   0  0  0  0  0  0  0  0  0  0  0  0
    1.1410   -0.2246    0.2714 O   0  0  0  0  0  0  0  0  0  0  0  0
   -0.7414   -1.4420    0.9939 C   0  0  0  0  0  0  0  0  0  0  0  0
   -0.1566   -1.9762    2.2757 C   0  0  0  0  0  0  0  0  0  0  0  0
   -1.4607   -1.2057    2.3256 C   0  0  0  0  0  0  0  0  0  0  0  0
   -1.4180    0.1613    2.9719 C   0  0  0  0  0  0  0  0  0  0  0  0
   -2.7518   -1.9757    2.5753 C   0  0  0  0  0  0  0  0  0  0  0  0
   -2.9035   -2.7951    3.7075 C   0  0  0  0  0  0  0  0  0  0  0  0
   -4.0879   -3.4960    3.9487 C   0  0  0  0  0  0  0  0  0  0  0  0
   -5.1533   -3.3871    3.0605 C   0  0  0  0  0  0  0  0  0  0  0  0
   -5.0342   -2.5769    1.9355 C   0  0  0  0  0  0  0  0  0  0  0  0
   -3.8468   -1.8785    1.6992 C   0  0  0  0  0  0  0  0  0  0  0  0
    0.9371    1.0102   -3.6763 H   0  0  0  0  0  0  0  0  0  0  0  0
   -0.2720    0.0239   -2.8620 H   0  0  0  0  0  0  0  0  0  0  0  0
    1.3933    0.0734   -2.2361 H   0  0  0  0  0  0  0  0  0  0  0  0
   -0.0466    3.9725   -2.0591 H   0  0  0  0  0  0  0  0  0  0  0  0
    2.1329    4.5826   -2.8078 H   0  0  0  0  0  0  0  0  0  0  0  0
    2.9926    1.8711   -0.6604 H   0  0  0  0  0  0  0  0  0  0  0  0
    5.0041    0.4722   -0.8763 H   0  0  0  0  0  0  0  0  0  0  0  0
    6.3140    0.4738   -2.9868 H   0  0  0  0  0  0  0  0  0  0  0  0
    5.5914    1.8940   -4.8902 H   0  0  0  0  0  0  0  0  0  0  0  0
    3.5689    3.2971   -4.6956 H   0  0  0  0  0  0  0  0  0  0  0  0
   -1.9125    0.5136    0.0447 H   0  0  0  0  0  0  0  0  0  0  0  0
   -1.1403   -2.1984    0.3237 H   0  0  0  0  0  0  0  0  0  0  0  0
    0.7444   -1.5074    2.6590 H   0  0  0  0  0  0  0  0  0  0  0  0
   -0.1691   -3.0515    2.4169 H   0  0  0  0  0  0  0  0  0  0  0  0
   -1.5815    0.0789    4.0519 H   0  0  0  0  0  0  0  0  0  0  0  0
   -0.4544    0.6608    2.8256 H   0  0  0  0  0  0  0  0  0  0  0  0
   -2.1985    0.8068    2.5555 H   0  0  0  0  0  0  0  0  0  0  0  0
   -2.0824   -2.8878    4.4157 H   0  0  0  0  0  0  0  0  0  0  0  0
   -4.1760   -4.1242    4.8312 H   0  0  0  0  0  0  0  0  0  0  0  0
   -6.0758   -3.9307    3.2465 H   0  0  0  0  0  0  0  0  0  0  0  0
   -5.8656   -2.4855    1.2414 H   0  0  0  0  0  0  0  0  0  0  0  0
   -3.7791   -1.2484    0.8162 H   0  0  0  0  0  0  0  0  0  0  0  0
  1  2  1  0
  2  3  1  0
  3  4  2  3
  4  5  1  0
  5  6  2  0
  6  7  1  0
  7  8  2  0
  8  9  1  0
  9 10  2  0
  2 11  2  3
 11 12  1  0
 12 13  1  0
 13 14  2  0
 13 15  1  0
 15 16  1  0
 16 17  1  0
 17 18  1  0
 17 19  1  0
 19 20  2  0
 20 21  1  0
 21 22  2  0
 22 23  1  0
 23 24  2  0
 10  5  1  0
 17 15  1  0
 24 19  1  0
  1 25  1  0
  1 26  1  0
  1 27  1  0
  3 28  1  0
  4 29  1  0
  6 30  1  0
  7 31  1  0
  8 32  1  0
  9 33  1  0
 10 34  1  0
 12 35  1  0
 15 36  1  0
 16 37  1  0
 16 38  1  0
 18 39  1  0
 18 40  1  0
 18 41  1  0
 20 42  1  0
 21 43  1  0
 22 44  1  0
 23 45  1  0
 24 46  1  0
M  END
$$$$
