
     RDKit          3D

 67 69  0  0  0  0  0  0  0  0999 V2000
    5.5909   -1.0730    2.0087 C   0  0  0  0  0  0  0  0  0  0  0  0
    4.2416   -0.4034    2.1952 C   0  0  0  0  0  0  0  0  0  0  0  0
    3.8697    0.2990    1.0111 O   0  0  0  0  0  0  0  0  0  0  0  0
    3.1076   -0.3335    0.0630 C   0  0  0  0  0  0  0  0  0  0  0  0
    2.7939   -1.6951    0.0626 C   0  0  0  0  0  0  0  0  0  0  0  0
    2.0114   -2.2445   -0.9554 C   0  0  0  0  0  0  0  0  0  0  0  0
    1.5196   -1.4401   -1.9878 C   0  0  0  0  0  0  0  0  0  0  0  0
    0.6183   -2.0332   -3.0468 C   0  0  0  0  0  0  0  0  0  0  0  0
   -0.8538   -1.6355   -2.8693 C   0  0  0  0  0  0  0  0  0  0  0  0
   -1.3766   -1.9124   -1.5458 N   0  0  0  0  0  0  0  0  0  0  0  0
   -1.5307   -3.2013   -1.0906 C   0  0  0  0  0  0  0  0  0  0  0  0
   -1.4205   -4.1845   -1.8173 O   0  0  0  0  0  0  0  0  0  0  0  0
   -1.8071   -3.3332    0.4099 C   0  0  0  0  0  0  0  0  0  0  0  0
   -1.7852   -2.0913    1.1162 O   0  0  0  0  0  0  0  0  0  0  0  0
   -3.0039   -1.5731    1.3903 C   0  0  0  0  0  0  0  0  0  0  0  0
   -4.0979   -2.0490    1.1483 O   0  0  0  0  0  0  0  0  0  0  0  0
   -2.8206   -0.3161    2.1260 C   0  0  0  0  0  0  0  0  0  0  0  0
   -2.9287   -0.3820    3.5262 C   0  0  0  0  0  0  0  0  0  0  0  0
   -2.7897    0.7901    4.2732 C   0  0  0  0  0  0  0  0  0  0  0  0
   -2.8782    0.7413    5.7358 N   0  0  0  0  0  4  0  0  0  0  0  0
   -2.8626    1.8183    6.3475 O   0  0  0  0  0  0  0  0  0  0  0  0
   -2.9564   -0.3738    6.2697 O   0  0  0  0  0  1  0  0  0  0  0  0
   -2.5772    2.0163    3.6314 C   0  0  0  0  0  0  0  0  0  0  0  0
   -2.4749    2.0617    2.2323 C   0  0  0  0  0  0  0  0  0  0  0  0
   -2.5643    0.8960    1.4439 C   0  0  0  0  0  0  0  0  0  0  0  0
   -2.4026    0.9270    0.0471 N   0  0  0  0  0  0  0  0  0  0  0  0
   -1.4054    1.8802   -0.5116 C   0  0  0  0  0  0  0  0  0  0  0  0
   -2.0902    3.0665   -1.2095 C   0  0  0  0  0  0  0  0  0  0  0  0
   -2.9601    2.6815   -2.2872 O   0  0  0  0  0  0  0  0  0  0  0  0
   -3.4991    1.3571   -2.1360 C   0  0  0  0  0  0  0  0  0  0  0  0
   -3.7057    0.9444   -0.6734 C   0  0  0  0  0  0  0  0  0  0  0  0
    1.8418   -0.0764   -1.9973 C   0  0  0  0  0  0  0  0  0  0  0  0
    2.6469    0.4740   -0.9920 C   0  0  0  0  0  0  0  0  0  0  0  0
    2.9831    1.8071   -0.9436 O   0  0  0  0  0  0  0  0  0  0  0  0
    3.3112    2.4389   -2.1815 C   0  0  0  0  0  0  0  0  0  0  0  0
    4.6062    1.9120   -2.7769 C   0  0  0  0  0  0  0  0  0  0  0  0
    6.3247   -0.3497    1.6413 H   0  0  0  0  0  0  0  0  0  0  0  0
    5.5337   -1.8750    1.2656 H   0  0  0  0  0  0  0  0  0  0  0  0
    5.9487   -1.4937    2.9525 H   0  0  0  0  0  0  0  0  0  0  0  0
    4.3356    0.3532    2.9820 H   0  0  0  0  0  0  0  0  0  0  0  0
    3.4705   -1.1008    2.5409 H   0  0  0  0  0  0  0  0  0  0  0  0
    3.1547   -2.3647    0.8320 H   0  0  0  0  0  0  0  0  0  0  0  0
    1.7780   -3.3085   -0.9278 H   0  0  0  0  0  0  0  0  0  0  0  0
    0.7184   -3.1254   -3.0459 H   0  0  0  0  0  0  0  0  0  0  0  0
    0.9683   -1.7076   -4.0333 H   0  0  0  0  0  0  0  0  0  0  0  0
   -0.9665   -0.5604   -3.0434 H   0  0  0  0  0  0  0  0  0  0  0  0
   -1.4741   -2.1636   -3.6026 H   0  0  0  0  0  0  0  0  0  0  0  0
   -1.3153   -1.1841   -0.8383 H   0  0  0  0  0  0  0  0  0  0  0  0
   -1.0027   -3.9454    0.8315 H   0  0  0  0  0  0  0  0  0  0  0  0
   -2.7468   -3.8817    0.5449 H   0  0  0  0  0  0  0  0  0  0  0  0
   -3.1126   -1.3416    4.0083 H   0  0  0  0  0  0  0  0  0  0  0  0
   -2.4914    2.9436    4.2002 H   0  0  0  0  0  0  0  0  0  0  0  0
   -2.3328    3.0374    1.7681 H   0  0  0  0  0  0  0  0  0  0  0  0
   -0.8174    1.3300   -1.2537 H   0  0  0  0  0  0  0  0  0  0  0  0
   -0.6891    2.2281    0.2438 H   0  0  0  0  0  0  0  0  0  0  0  0
   -2.6898    3.6449   -0.5000 H   0  0  0  0  0  0  0  0  0  0  0  0
   -1.3350    3.7412   -1.6295 H   0  0  0  0  0  0  0  0  0  0  0  0
   -4.4402    1.3211   -2.6866 H   0  0  0  0  0  0  0  0  0  0  0  0
   -2.8113    0.6672   -2.6253 H   0  0  0  0  0  0  0  0  0  0  0  0
   -4.1606   -0.0516   -0.6450 H   0  0  0  0  0  0  0  0  0  0  0  0
   -4.3903    1.6567   -0.2007 H   0  0  0  0  0  0  0  0  0  0  0  0
    1.4394    0.5470   -2.7862 H   0  0  0  0  0  0  0  0  0  0  0  0
    2.4823    2.3924   -2.8955 H   0  0  0  0  0  0  0  0  0  0  0  0
    3.4519    3.5019   -1.9521 H   0  0  0  0  0  0  0  0  0  0  0  0
    4.5225    0.8507   -3.0343 H   0  0  0  0  0  0  0  0  0  0  0  0
    4.8688    2.4705   -3.6794 H   0  0  0  0  0  0  0  0  0  0  0  0
    5.4277    2.0079   -2.0585 H   0  0  0  0  0  0  0  0  0  0  0  0
  1  2  1  0
  2  3  1  0
  3  4  1  0
  4  5  2  0
  5  6  1  0
  6  7  2  0
  7  8  1  0
  8  9  1  0
  9 10  1  0
 10 11  1  0
 11 12  2  0
 11 13  1  0
 13 14  1  0
 14 15  1  0
 15 16  2  0
 15 17  1  0
 17 18  2  0
 18 19  1  0
 19 20  1  0
 20 21  2  0
 20 22  1  0
 19 23  2  0
 23 24  1  0
 24 25  2  0
 25 26  1  0
 26 27  1  0
 27 28  1  0
 28 29  1  0
 29 30  1  0
 30 31  1  0
  7 32  1  0
 32 33  2  0
 33 34  1  0
 34 35  1  0
 35 36  1  0
 33  4  1  0
 25 17  1  0
 31 26  1  0
  1 37  1  0
  1 38  1  0
  1 39  1  0
  2 40  1  0
  2 41  1  0
  5 42  1  0
  6 43  1  0
  8 44  1  0
  8 45  1  0
  9 46  1  0
  9 47  1  0
 10 48  1  0
 13 49  1  0
 13 50  1  0
 18 51  1  0
 23 52  1  0
 24 53  1  0
 27 54  1  0
 27 55  1  0
 28 56  1  0
 28 57  1  0
 30 58  1  0
 30 59  1  0
 31 60  1  0
 31 61  1  0
 32 62  1  0
 35 63  1  0
 35 64  1  0
 36 65  1  0
 36 66  1  0
 36 67  1  0
M  CHG  2  20   1  22  -1
M  END
$$$$
