
     RDKit          3D

 68 71  0  0  0  0  0  0  0  0999 V2000
   -2.0297   -5.9637    1.8273 C   0  0  0  0  0  0  0  0  0  0  0  0
   -2.0537   -4.7128    1.0012 C   0  0  0  0  0  0  0  0  0  0  0  0
   -3.0368   -3.7415    1.2104 C   0  0  0  0  0  0  0  0  0  0  0  0
   -3.0447   -2.5601    0.4609 C   0  0  0  0  0  0  0  0  0  0  0  0
   -2.0573   -2.3108   -0.5048 C   0  0  0  0  0  0  0  0  0  0  0  0
   -2.0460   -1.0479   -1.3699 C   0  0  0  0  0  0  0  0  0  0  0  0
   -3.1982   -0.0403   -1.0898 C   0  0  0  0  0  0  0  0  0  0  0  0
   -4.2762   -0.1045   -1.6819 O   0  0  0  0  0  0  0  0  0  0  0  0
   -2.9711    0.8657   -0.0705 N   0  0  0  0  0  0  0  0  0  0  0  0
   -4.0156    1.7369    0.4226 C   0  0  0  0  0  0  0  0  0  0  0  0
   -3.5831    2.5145    1.6744 C   0  0  0  0  0  0  0  0  0  0  0  0
   -4.0615    3.9529    1.4787 C   0  0  0  0  0  0  0  0  0  0  0  0
   -5.0115    3.9053    0.2937 C   0  0  0  0  0  0  0  0  0  0  0  0
   -4.4186    2.8165   -0.5832 C   0  0  0  0  0  0  0  0  0  0  0  0
   -0.7200   -0.3730   -1.4372 N   0  0  0  0  0  0  0  0  0  0  0  0
   -0.2808    0.0326   -2.7756 C   0  0  0  0  0  0  0  0  0  0  0  0
    0.3907   -1.0980   -3.4689 C   0  0  0  0  0  0  0  0  0  0  0  0
    1.7103   -1.4653   -3.6406 C   0  0  0  0  0  0  0  0  0  0  0  0
    1.6994   -2.6515   -4.4140 C   0  0  0  0  0  0  0  0  0  0  0  0
    0.3783   -2.9281   -4.6735 C   0  0  0  0  0  0  0  0  0  0  0  0
   -0.4221   -1.9893   -4.1083 O   0  0  0  0  0  0  0  0  0  0  0  0
   -0.0640   -0.0021   -0.2723 C   0  0  0  0  0  0  0  0  0  0  0  0
   -0.5979   -0.0904    0.8362 O   0  0  0  0  0  0  0  0  0  0  0  0
    1.3372    0.5626   -0.4032 C   0  0  0  0  0  0  0  0  0  0  0  0
    2.0119    0.7179    0.9570 C   0  0  0  0  0  0  0  0  0  0  0  0
    3.4363    1.2150    0.8136 C   0  0  0  0  0  0  0  0  0  0  0  0
    3.9482    1.4260   -0.2815 O   0  0  0  0  0  0  0  0  0  0  0  0
    4.0452    1.3862    2.0352 N   0  0  0  0  0  0  0  0  0  0  0  0
    5.3360    1.8257    2.2265 C   0  0  0  0  0  0  0  0  0  0  0  0
    6.3123    2.1916    1.2747 C   0  0  0  0  0  0  0  0  0  0  0  0
    7.4085    2.5434    2.0217 C   0  0  0  0  0  0  0  0  0  0  0  0
    8.7649    3.0174    1.7005 C   0  0  0  0  0  0  0  0  0  0  0  0
    7.1117    2.4015    3.3399 O   0  0  0  0  0  0  0  0  0  0  0  0
    5.8111    1.9511    3.4707 N   0  0  0  0  0  0  0  0  0  0  0  0
   -1.0727   -3.2953   -0.7047 C   0  0  0  0  0  0  0  0  0  0  0  0
   -1.0643   -4.4751    0.0445 C   0  0  0  0  0  0  0  0  0  0  0  0
   -3.0410   -6.2480    2.1366 H   0  0  0  0  0  0  0  0  0  0  0  0
   -1.6185   -6.8017    1.2545 H   0  0  0  0  0  0  0  0  0  0  0  0
   -1.4172   -5.8104    2.7211 H   0  0  0  0  0  0  0  0  0  0  0  0
   -3.8123   -3.8986    1.9572 H   0  0  0  0  0  0  0  0  0  0  0  0
   -3.8433   -1.8459    0.6497 H   0  0  0  0  0  0  0  0  0  0  0  0
   -2.2632   -1.4143   -2.3835 H   0  0  0  0  0  0  0  0  0  0  0  0
   -2.2384    0.5844    0.5845 H   0  0  0  0  0  0  0  0  0  0  0  0
   -4.8875    1.1153    0.6638 H   0  0  0  0  0  0  0  0  0  0  0  0
   -4.0432    2.0726    2.5656 H   0  0  0  0  0  0  0  0  0  0  0  0
   -2.4987    2.4971    1.8320 H   0  0  0  0  0  0  0  0  0  0  0  0
   -3.2047    4.5959    1.2440 H   0  0  0  0  0  0  0  0  0  0  0  0
   -4.5416    4.3547    2.3763 H   0  0  0  0  0  0  0  0  0  0  0  0
   -5.0803    4.8667   -0.2230 H   0  0  0  0  0  0  0  0  0  0  0  0
   -6.0170    3.6209    0.6254 H   0  0  0  0  0  0  0  0  0  0  0  0
   -5.1362    2.4523   -1.3246 H   0  0  0  0  0  0  0  0  0  0  0  0
   -3.5423    3.1979   -1.1228 H   0  0  0  0  0  0  0  0  0  0  0  0
   -1.1537    0.3742   -3.3442 H   0  0  0  0  0  0  0  0  0  0  0  0
    0.3991    0.8864   -2.7219 H   0  0  0  0  0  0  0  0  0  0  0  0
    2.5763   -0.9428   -3.2573 H   0  0  0  0  0  0  0  0  0  0  0  0
    2.5491   -3.2316   -4.7459 H   0  0  0  0  0  0  0  0  0  0  0  0
   -0.1321   -3.7113   -5.2171 H   0  0  0  0  0  0  0  0  0  0  0  0
    1.2795    1.5441   -0.8864 H   0  0  0  0  0  0  0  0  0  0  0  0
    1.9334   -0.1086   -1.0283 H   0  0  0  0  0  0  0  0  0  0  0  0
    1.4540    1.4306    1.5765 H   0  0  0  0  0  0  0  0  0  0  0  0
    2.0328   -0.2453    1.4814 H   0  0  0  0  0  0  0  0  0  0  0  0
    3.5487    1.1863    2.8933 H   0  0  0  0  0  0  0  0  0  0  0  0
    6.2352    2.1985    0.1979 H   0  0  0  0  0  0  0  0  0  0  0  0
    8.9204    4.0284    2.0896 H   0  0  0  0  0  0  0  0  0  0  0  0
    8.9272    3.0400    0.6183 H   0  0  0  0  0  0  0  0  0  0  0  0
    9.5177    2.3578    2.1428 H   0  0  0  0  0  0  0  0  0  0  0  0
   -0.2971   -3.1500   -1.4533 H   0  0  0  0  0  0  0  0  0  0  0  0
   -0.2812   -5.2090   -0.1301 H   0  0  0  0  0  0  0  0  0  0  0  0
  1  2  1  0
  2  3  2  0
  3  4  1  0
  4  5  2  0
  5  6  1  0
  6  7  1  0
  7  8  2  0
  7  9  1  0
  9 10  1  0
 10 11  1  0
 11 12  1  0
 12 13  1  0
 13 14  1  0
  6 15  1  0
 15 16  1  0
 16 17  1  0
 17 18  2  0
 18 19  1  0
 19 20  2  0
 20 21  1  0
 15 22  1  0
 22 23  2  0
 22 24  1  0
 24 25  1  0
 25 26  1  0
 26 27  2  0
 26 28  1  0
 28 29  1  0
 29 30  1  0
 30 31  2  0
 31 32  1  0
 31 33  1  0
 33 34  1  0
  5 35  1  0
 35 36  2  0
 36  2  1  0
 14 10  1  0
 21 17  1  0
 34 29  2  0
  1 37  1  0
  1 38  1  0
  1 39  1  0
  3 40  1  0
  4 41  1  0
  6 42  1  0
  9 43  1  0
 10 44  1  0
 11 45  1  0
 11 46  1  0
 12 47  1  0
 12 48  1  0
 13 49  1  0
 13 50  1  0
 14 51  1  0
 14 52  1  0
 16 53  1  0
 16 54  1  0
 18 55  1  0
 19 56  1  0
 20 57  1  0
 24 58  1  0
 24 59  1  0
 25 60  1  0
 25 61  1  0
 28 62  1  0
 30 63  1  0
 32 64  1  0
 32 65  1  0
 32 66  1  0
 35 67  1  0
 36 68  1  0
M  END
$$$$
