
     RDKit          3D

 39 41  0  0  0  0  0  0  0  0999 V2000
   -4.7014    1.4675   -2.3324 C   0  0  0  0  0  0  0  0  0  0  0  0
   -4.1935    1.1353   -0.9595 C   0  0  0  0  0  0  0  0  0  0  0  0
   -5.0221    1.2982    0.1543 C   0  0  0  0  0  0  0  0  0  0  0  0
   -4.5661    1.0272    1.4482 C   0  0  0  0  0  0  0  0  0  0  0  0
   -3.2438    0.5949    1.5941 C   0  0  0  0  0  0  0  0  0  0  0  0
   -2.5448    0.2620    2.7292 N   0  0  0  0  0  0  0  0  0  0  0  0
   -1.2609   -0.1269    2.4201 C   0  0  0  0  0  0  0  0  0  0  0  0
   -0.3399   -0.5834    3.4936 C   0  0  0  0  0  0  0  0  0  0  0  0
   -1.1224   -0.0079    1.0470 C   0  0  0  0  0  0  0  0  0  0  0  0
    0.0396   -0.3025    0.2656 C   0  0  0  0  0  0  0  0  0  0  0  0
    1.3127   -0.0875    0.6373 C   0  0  0  0  0  0  0  0  0  0  0  0
    2.4724   -0.3884   -0.2082 C   0  0  0  0  0  0  0  0  0  0  0  0
    3.6065   -0.9548    0.3701 C   0  0  0  0  0  0  0  0  0  0  0  0
    4.7216   -1.2223   -0.4163 C   0  0  0  0  0  0  0  0  0  0  0  0
    4.7230   -0.9213   -1.7339 N   0  0  0  0  0  4  0  0  0  0  0  0
    5.9115   -1.2232   -2.5498 C   0  0  0  0  0  0  0  0  0  0  0  0
    3.6382   -0.3628   -2.3152 C   0  0  0  0  0  0  0  0  0  0  0  0
    2.5005   -0.0804   -1.5676 C   0  0  0  0  0  0  0  0  0  0  0  0
   -2.3786    0.4295    0.5156 C   0  0  0  0  0  0  0  0  0  0  0  0
   -2.8643    0.7143   -0.7808 C   0  0  0  0  0  0  0  0  0  0  0  0
   -4.2011    0.8578   -3.0921 H   0  0  0  0  0  0  0  0  0  0  0  0
   -5.7750    1.2666   -2.4111 H   0  0  0  0  0  0  0  0  0  0  0  0
   -4.5214    2.5244   -2.5519 H   0  0  0  0  0  0  0  0  0  0  0  0
   -6.0470    1.6423    0.0238 H   0  0  0  0  0  0  0  0  0  0  0  0
   -5.2217    1.1534    2.3040 H   0  0  0  0  0  0  0  0  0  0  0  0
   -2.9380    0.2829    3.6602 H   0  0  0  0  0  0  0  0  0  0  0  0
   -0.8917   -0.8995    4.3852 H   0  0  0  0  0  0  0  0  0  0  0  0
    0.3364    0.2263    3.7846 H   0  0  0  0  0  0  0  0  0  0  0  0
    0.2585   -1.4367    3.1594 H   0  0  0  0  0  0  0  0  0  0  0  0
   -0.1647   -0.7123   -0.7213 H   0  0  0  0  0  0  0  0  0  0  0  0
    1.5318    0.3355    1.6149 H   0  0  0  0  0  0  0  0  0  0  0  0
    3.6253   -1.2018    1.4302 H   0  0  0  0  0  0  0  0  0  0  0  0
    5.6164   -1.6766   -0.0000 H   0  0  0  0  0  0  0  0  0  0  0  0
    5.7838   -2.2307   -2.9531 H   0  0  0  0  0  0  0  0  0  0  0  0
    6.8034   -1.1655   -1.9206 H   0  0  0  0  0  0  0  0  0  0  0  0
    5.9891   -0.4877   -3.3547 H   0  0  0  0  0  0  0  0  0  0  0  0
    3.6907   -0.1423   -3.3777 H   0  0  0  0  0  0  0  0  0  0  0  0
    1.6462    0.3887   -2.0522 H   0  0  0  0  0  0  0  0  0  0  0  0
   -2.2090    0.6077   -1.6395 H   0  0  0  0  0  0  0  0  0  0  0  0
  1  2  1  0
  2  3  2  0
  3  4  1  0
  4  5  2  0
  5  6  1  0
  6  7  1  0
  7  8  1  0
  7  9  2  0
  9 10  1  0
 10 11  2  3
 11 12  1  0
 12 13  2  0
 13 14  1  0
 14 15  2  0
 15 16  1  0
 15 17  1  0
 17 18  2  0
  9 19  1  0
 19 20  2  0
 20  2  1  0
 19  5  1  0
 18 12  1  0
  1 21  1  0
  1 22  1  0
  1 23  1  0
  3 24  1  0
  4 25  1  0
  6 26  1  0
  8 27  1  0
  8 28  1  0
  8 29  1  0
 10 30  1  0
 11 31  1  0
 13 32  1  0
 14 33  1  0
 16 34  1  0
 16 35  1  0
 16 36  1  0
 17 37  1  0
 18 38  1  0
 20 39  1  0
M  CHG  1  15   1
M  END
$$$$
