
     RDKit          3D

 42 44  0  0  0  0  0  0  0  0999 V2000
   -5.7857   -0.0601    3.0867 C   0  0  0  0  0  0  0  0  0  0  0  0
   -5.2296    1.0779    2.4403 O   0  0  0  0  0  0  0  0  0  0  0  0
   -4.2137    0.8600    1.5509 C   0  0  0  0  0  0  0  0  0  0  0  0
   -3.6662   -0.3815    1.2180 C   0  0  0  0  0  0  0  0  0  0  0  0
   -2.6162   -0.4551    0.2955 C   0  0  0  0  0  0  0  0  0  0  0  0
   -2.0852   -1.6757   -0.0240 O   0  0  0  0  0  0  0  0  0  0  0  0
   -2.1093    0.7042   -0.3034 C   0  0  0  0  0  0  0  0  0  0  0  0
   -1.0191    0.6343   -1.2984 C   0  0  0  0  0  0  0  0  0  0  0  0
   -1.1977    1.0186   -2.4489 O   0  0  0  0  0  0  0  0  0  0  0  0
    0.2810    0.0970   -0.8138 C   0  0  0  0  0  0  0  0  0  0  0  0
    1.3216    0.0090   -1.6566 C   0  0  0  0  0  0  0  0  0  0  0  0
    2.6522   -0.4837   -1.3188 C   0  0  0  0  0  0  0  0  0  0  0  0
    2.8210   -1.4815   -0.4131 C   0  0  0  0  0  0  0  0  0  0  0  0
    4.1925   -2.0422   -0.2226 C   0  0  2  0  0  0  0  0  0  0  0  0
    4.5150   -2.6153    1.0373 O   0  0  0  0  0  0  0  0  0  0  0  0
    5.9641   -2.5657    1.0067 C   0  0  0  0  0  0  0  0  0  0  0  0
    6.4156   -1.6632   -0.0342 O   0  0  0  0  0  0  0  0  0  0  0  0
    5.2271   -0.9350   -0.3041 C   0  0  1  0  0  0  0  0  0  0  0  0
    5.0997   -0.2475   -1.6202 C   0  0  0  0  0  0  0  0  0  0  0  0
    3.8472   -0.0366   -2.0772 C   0  0  0  0  0  0  0  0  0  0  0  0
   -2.6751    1.9413    0.0169 C   0  0  0  0  0  0  0  0  0  0  0  0
   -2.1587    3.1031   -0.4946 O   0  0  0  0  0  0  0  0  0  0  0  0
   -2.9974    3.6059   -1.5368 C   0  0  0  0  0  0  0  0  0  0  0  0
   -3.7091    2.0183    0.9534 C   0  0  0  0  0  0  0  0  0  0  0  0
   -6.2392   -0.7433    2.3610 H   0  0  0  0  0  0  0  0  0  0  0  0
   -5.0349   -0.5727    3.6971 H   0  0  0  0  0  0  0  0  0  0  0  0
   -6.5778    0.2889    3.7561 H   0  0  0  0  0  0  0  0  0  0  0  0
   -4.0395   -1.2926    1.6708 H   0  0  0  0  0  0  0  0  0  0  0  0
   -2.6249   -2.3828    0.3677 H   0  0  0  0  0  0  0  0  0  0  0  0
    0.3453   -0.1994    0.2254 H   0  0  0  0  0  0  0  0  0  0  0  0
    1.1990    0.3548   -2.6834 H   0  0  0  0  0  0  0  0  0  0  0  0
    2.0011   -1.9470    0.1199 H   0  0  0  0  0  0  0  0  0  0  0  0
    4.3551   -2.8292   -0.9749 H   0  0  0  0  0  0  0  0  0  0  0  0
    6.3274   -2.2142    1.9772 H   0  0  0  0  0  0  0  0  0  0  0  0
    6.3589   -3.5661    0.8048 H   0  0  0  0  0  0  0  0  0  0  0  0
    5.1201   -0.1912    0.4999 H   0  0  0  0  0  0  0  0  0  0  0  0
    5.9782    0.1087   -2.1424 H   0  0  0  0  0  0  0  0  0  0  0  0
    3.6839    0.4999   -3.0085 H   0  0  0  0  0  0  0  0  0  0  0  0
   -3.2537    2.8309   -2.2678 H   0  0  0  0  0  0  0  0  0  0  0  0
   -2.4473    4.3954   -2.0573 H   0  0  0  0  0  0  0  0  0  0  0  0
   -3.9084    4.0463   -1.1182 H   0  0  0  0  0  0  0  0  0  0  0  0
   -4.1178    2.9872    1.2297 H   0  0  0  0  0  0  0  0  0  0  0  0
  1  2  1  0
  2  3  1  0
  3  4  2  0
  4  5  1  0
  5  6  1  0
  5  7  2  0
  7  8  1  0
  8  9  2  0
  8 10  1  0
 10 11  2  0
 11 12  1  0
 12 13  2  0
 13 14  1  0
 14 15  1  0
 15 16  1  0
 16 17  1  0
 17 18  1  0
 18 19  1  0
 19 20  2  0
  7 21  1  0
 21 22  1  0
 22 23  1  0
 21 24  2  0
 24  3  1  0
 20 12  1  0
 18 14  1  0
  1 25  1  0
  1 26  1  0
  1 27  1  0
  4 28  1  0
  6 29  1  0
 10 30  1  0
 11 31  1  0
 13 32  1  0
 14 33  1  6
 16 34  1  0
 16 35  1  0
 18 36  1  1
 19 37  1  0
 20 38  1  0
 23 39  1  0
 23 40  1  0
 23 41  1  0
 24 42  1  0
M  END
$$$$
