
     RDKit          3D

 59 62  0  0  0  0  0  0  0  0999 V2000
   -6.4734   -1.7236   -3.6156 C   0  0  0  0  0  0  0  0  0  0  0  0
   -5.9409   -0.3943   -3.1014 C   0  0  0  0  0  0  0  0  0  0  0  0
   -5.4453   -0.4863   -1.7322 N   0  0  0  0  0  0  0  0  0  0  0  0
   -6.1906   -0.1998   -0.6054 C   0  0  0  0  0  0  0  0  0  0  0  0
   -7.5323    0.1901   -0.4546 C   0  0  0  0  0  0  0  0  0  0  0  0
   -8.0138    0.4100    0.8389 C   0  0  0  0  0  0  0  0  0  0  0  0
   -7.1901    0.2452    1.9484 C   0  0  0  0  0  0  0  0  0  0  0  0
   -5.8559   -0.1500    1.7908 C   0  0  0  0  0  0  0  0  0  0  0  0
   -5.3435   -0.3765    0.4956 C   0  0  0  0  0  0  0  0  0  0  0  0
   -4.0655   -0.7805   -0.0021 C   0  0  0  0  0  0  0  0  0  0  0  0
   -2.8347   -1.1002    0.6169 C   0  0  0  0  0  0  0  0  0  0  0  0
   -1.7319   -1.4950   -0.1567 C   0  0  0  0  0  0  0  0  0  0  0  0
   -0.5411   -1.8018    0.5371 N   0  0  0  0  0  0  0  0  0  0  0  0
    0.6653   -2.2189   -0.0005 C   0  0  0  0  0  0  0  0  0  0  0  0
    0.9294   -2.3196   -1.1965 O   0  0  0  0  0  0  0  0  0  0  0  0
    1.7192   -2.5598    1.0694 C   0  0  0  0  0  0  0  0  0  0  0  0
    2.2336   -3.9771    0.8459 C   0  0  0  0  0  0  0  0  0  0  0  0
    2.8355   -1.6700    0.9512 O   0  0  0  0  0  0  0  0  0  0  0  0
    2.6148   -0.4334    1.4570 C   0  0  0  0  0  0  0  0  0  0  0  0
    1.6230   -0.0749    2.0718 O   0  0  0  0  0  0  0  0  0  0  0  0
    3.7822    0.4333    1.1734 C   0  0  0  0  0  0  0  0  0  0  0  0
    4.5539    0.2611    0.0217 C   0  0  0  0  0  0  0  0  0  0  0  0
    5.6258    1.1198   -0.2355 C   0  0  0  0  0  0  0  0  0  0  0  0
    5.9448    2.1537    0.6542 C   0  0  0  0  0  0  0  0  0  0  0  0
    7.0260    2.9881    0.3005 N   0  0  0  0  0  0  0  0  0  0  0  0
    7.5526    4.0412    1.0365 C   0  0  0  0  0  0  0  0  0  0  0  0
    7.2152    4.3732    2.1687 O   0  0  0  0  0  0  0  0  0  0  0  0
    8.6361    4.8013    0.3114 C   0  0  0  0  0  0  0  0  0  0  0  0
    9.9455    4.3050    0.7123 C   0  0  0  0  0  0  0  0  0  0  0  0
   10.9982    3.9057    0.9972 N   0  0  0  0  0  0  0  0  0  0  0  0
    5.1735    2.3137    1.8058 C   0  0  0  0  0  0  0  0  0  0  0  0
    4.0902    1.4629    2.0618 C   0  0  0  0  0  0  0  0  0  0  0  0
   -1.8670   -1.5721   -1.5436 C   0  0  0  0  0  0  0  0  0  0  0  0
   -3.0695   -1.2508   -2.1811 C   0  0  0  0  0  0  0  0  0  0  0  0
   -4.1573   -0.8549   -1.3903 C   0  0  0  0  0  0  0  0  0  0  0  0
   -6.7888   -1.6228   -4.6603 H   0  0  0  0  0  0  0  0  0  0  0  0
   -7.3295   -2.0581   -3.0294 H   0  0  0  0  0  0  0  0  0  0  0  0
   -5.7096   -2.5050   -3.5662 H   0  0  0  0  0  0  0  0  0  0  0  0
   -5.1234   -0.0386   -3.7357 H   0  0  0  0  0  0  0  0  0  0  0  0
   -6.7144    0.3780   -3.1385 H   0  0  0  0  0  0  0  0  0  0  0  0
   -8.1905    0.3136   -1.3106 H   0  0  0  0  0  0  0  0  0  0  0  0
   -9.0484    0.7121    0.9790 H   0  0  0  0  0  0  0  0  0  0  0  0
   -7.5814    0.4239    2.9435 H   0  0  0  0  0  0  0  0  0  0  0  0
   -5.2217   -0.2838    2.6633 H   0  0  0  0  0  0  0  0  0  0  0  0
   -2.7668   -1.0420    1.7003 H   0  0  0  0  0  0  0  0  0  0  0  0
   -0.5562   -1.6202    1.5339 H   0  0  0  0  0  0  0  0  0  0  0  0
    1.2947   -2.5088    2.0789 H   0  0  0  0  0  0  0  0  0  0  0  0
    2.7097   -4.0757   -0.1359 H   0  0  0  0  0  0  0  0  0  0  0  0
    1.4208   -4.7068    0.9146 H   0  0  0  0  0  0  0  0  0  0  0  0
    2.9962   -4.2312    1.5883 H   0  0  0  0  0  0  0  0  0  0  0  0
    4.3141   -0.5235   -0.6932 H   0  0  0  0  0  0  0  0  0  0  0  0
    6.2041    0.9634   -1.1423 H   0  0  0  0  0  0  0  0  0  0  0  0
    7.4635    2.7737   -0.5855 H   0  0  0  0  0  0  0  0  0  0  0  0
    8.5287    5.8635    0.5594 H   0  0  0  0  0  0  0  0  0  0  0  0
    8.4999    4.7134   -0.7715 H   0  0  0  0  0  0  0  0  0  0  0  0
    5.3787    3.0929    2.5280 H   0  0  0  0  0  0  0  0  0  0  0  0
    3.4941    1.6136    2.9577 H   0  0  0  0  0  0  0  0  0  0  0  0
   -1.0415   -1.8722   -2.1799 H   0  0  0  0  0  0  0  0  0  0  0  0
   -3.1445   -1.3240   -3.2620 H   0  0  0  0  0  0  0  0  0  0  0  0
  1  2  1  0
  2  3  1  0
  3  4  1  0
  4  5  2  0
  5  6  1  0
  6  7  2  0
  7  8  1  0
  8  9  2  0
  9 10  1  0
 10 11  2  0
 11 12  1  0
 12 13  1  0
 13 14  1  0
 14 15  2  0
 14 16  1  0
 16 17  1  0
 16 18  1  0
 18 19  1  0
 19 20  2  0
 19 21  1  0
 21 22  2  0
 22 23  1  0
 23 24  2  0
 24 25  1  0
 25 26  1  0
 26 27  2  0
 26 28  1  0
 28 29  1  0
 29 30  3  0
 24 31  1  0
 31 32  2  0
 12 33  2  0
 33 34  1  0
 34 35  2  0
 35  3  1  0
  9  4  1  0
 35 10  1  0
 32 21  1  0
  1 36  1  0
  1 37  1  0
  1 38  1  0
  2 39  1  0
  2 40  1  0
  5 41  1  0
  6 42  1  0
  7 43  1  0
  8 44  1  0
 11 45  1  0
 13 46  1  0
 16 47  1  0
 17 48  1  0
 17 49  1  0
 17 50  1  0
 22 51  1  0
 23 52  1  0
 25 53  1  0
 28 54  1  0
 28 55  1  0
 31 56  1  0
 32 57  1  0
 33 58  1  0
 34 59  1  0
M  END
$$$$
