
     RDKit          3D

 61 66  0  0  0  0  0  0  0  0999 V2000
   -8.3920   -0.6634   -3.1903 F   0  0  0  0  0  0  0  0  0  0  0  0
   -7.7014    0.0414   -2.2818 C   0  0  0  0  0  0  0  0  0  0  0  0
   -8.3010    1.1307   -1.6623 C   0  0  0  0  0  0  0  0  0  0  0  0
   -7.5859    1.8629   -0.7142 C   0  0  0  0  0  0  0  0  0  0  0  0
   -6.2780    1.4966   -0.3898 C   0  0  0  0  0  0  0  0  0  0  0  0
   -5.6708    0.3973   -1.0147 C   0  0  0  0  0  0  0  0  0  0  0  0
   -4.2621   -0.0129   -0.6480 C   0  0  0  0  0  0  0  0  0  0  0  0
   -4.2528   -1.2375    0.2914 C   0  0  0  0  0  0  0  0  0  0  0  0
   -2.9435   -1.6826    0.7843 N   0  0  0  0  0  0  0  0  0  0  0  0
   -2.0528   -2.2173   -0.2609 C   0  0  0  0  0  0  0  0  0  0  0  0
   -0.6145   -2.4499    0.2509 C   0  0  0  0  0  0  0  0  0  0  0  0
    0.0179   -1.1903    0.7171 N   0  0  0  0  0  0  0  0  0  0  0  0
    1.1134   -0.7421    0.0284 C   0  0  0  0  0  0  0  0  0  0  0  0
    1.2433   -0.5093   -1.3277 C   0  0  0  0  0  0  0  0  0  0  0  0
    2.5213    0.0370   -1.5577 C   0  0  0  0  0  0  0  0  0  0  0  0
    3.1550    0.1457   -0.3330 C   0  0  0  0  0  0  0  0  0  0  0  0
    4.4576    0.6581    0.0412 C   0  0  0  0  0  0  0  0  0  0  0  0
    5.3223    1.3518   -0.9507 C   0  0  0  0  0  0  0  0  0  0  0  0
    6.6835    1.0194   -1.0115 C   0  0  0  0  0  0  0  0  0  0  0  0
    7.5214    1.6801   -1.9144 C   0  0  0  0  0  0  0  0  0  0  0  0
    7.0037    2.6810   -2.7452 C   0  0  0  0  0  0  0  0  0  0  0  0
    5.6513    3.0276   -2.6723 C   0  0  0  0  0  0  0  0  0  0  0  0
    4.8105    2.3693   -1.7708 C   0  0  0  0  0  0  0  0  0  0  0  0
    4.9026    0.5233    1.2557 N   0  0  0  0  0  0  0  0  0  0  0  0
    4.0921   -0.1039    2.2221 C   0  0  0  0  0  0  0  0  0  0  0  0
    4.6189   -0.2499    3.5095 C   0  0  0  0  0  0  0  0  0  0  0  0
    3.8800   -0.8657    4.5192 C   0  0  0  0  0  0  0  0  0  0  0  0
    2.6011   -1.3444    4.2470 C   0  0  0  0  0  0  0  0  0  0  0  0
    2.0559   -1.2061    2.9675 C   0  0  0  0  0  0  0  0  0  0  0  0
    2.7952   -0.5798    1.9594 C   0  0  0  0  0  0  0  0  0  0  0  0
    2.3279   -0.4143    0.6302 N   0  0  0  0  0  0  0  0  0  0  0  0
   -0.9485   -0.1327    1.1099 C   0  0  0  0  0  0  0  0  0  0  0  0
   -2.2574   -0.7281    1.6753 C   0  0  0  0  0  0  0  0  0  0  0  0
   -6.3983   -0.3310   -1.9700 C   0  0  0  0  0  0  0  0  0  0  0  0
   -9.3181    1.4014   -1.9195 H   0  0  0  0  0  0  0  0  0  0  0  0
   -8.0476    2.7178   -0.2251 H   0  0  0  0  0  0  0  0  0  0  0  0
   -5.7370    2.0764    0.3585 H   0  0  0  0  0  0  0  0  0  0  0  0
   -3.7456    0.8343   -0.1812 H   0  0  0  0  0  0  0  0  0  0  0  0
   -3.7180   -0.2233   -1.5750 H   0  0  0  0  0  0  0  0  0  0  0  0
   -4.7393   -2.0852   -0.2132 H   0  0  0  0  0  0  0  0  0  0  0  0
   -4.8908   -1.0339    1.1615 H   0  0  0  0  0  0  0  0  0  0  0  0
   -2.4580   -3.1698   -0.6191 H   0  0  0  0  0  0  0  0  0  0  0  0
   -1.9990   -1.5408   -1.1211 H   0  0  0  0  0  0  0  0  0  0  0  0
   -0.6387   -3.1491    1.0990 H   0  0  0  0  0  0  0  0  0  0  0  0
   -0.0176   -2.9356   -0.5334 H   0  0  0  0  0  0  0  0  0  0  0  0
    0.4765   -0.6874   -2.0689 H   0  0  0  0  0  0  0  0  0  0  0  0
    2.9246    0.3332   -2.5171 H   0  0  0  0  0  0  0  0  0  0  0  0
    7.0906    0.2511   -0.3532 H   0  0  0  0  0  0  0  0  0  0  0  0
    8.5789    1.4207   -1.9620 H   0  0  0  0  0  0  0  0  0  0  0  0
    7.6577    3.2033   -3.4430 H   0  0  0  0  0  0  0  0  0  0  0  0
    5.2549    3.8193   -3.3087 H   0  0  0  0  0  0  0  0  0  0  0  0
    3.7672    2.6723   -1.6995 H   0  0  0  0  0  0  0  0  0  0  0  0
    5.6179    0.1208    3.7219 H   0  0  0  0  0  0  0  0  0  0  0  0
    4.3053   -0.9741    5.5135 H   0  0  0  0  0  0  0  0  0  0  0  0
    2.0287   -1.8338    5.0309 H   0  0  0  0  0  0  0  0  0  0  0  0
    1.0665   -1.6089    2.7893 H   0  0  0  0  0  0  0  0  0  0  0  0
   -0.4918    0.5057    1.8747 H   0  0  0  0  0  0  0  0  0  0  0  0
   -1.1873    0.5019    0.2469 H   0  0  0  0  0  0  0  0  0  0  0  0
   -2.0087   -1.2751    2.5949 H   0  0  0  0  0  0  0  0  0  0  0  0
   -2.9239    0.0872    1.9857 H   0  0  0  0  0  0  0  0  0  0  0  0
   -5.9631   -1.1896   -2.4744 H   0  0  0  0  0  0  0  0  0  0  0  0
  1  2  1  0
  2  3  2  0
  3  4  1  0
  4  5  2  0
  5  6  1  0
  6  7  1  0
  7  8  1  0
  8  9  1  0
  9 10  1  0
 10 11  1  0
 11 12  1  0
 12 13  1  0
 13 14  2  0
 14 15  1  0
 15 16  2  0
 16 17  1  0
 17 18  1  0
 18 19  2  0
 19 20  1  0
 20 21  2  0
 21 22  1  0
 22 23  2  0
 17 24  2  0
 24 25  1  0
 25 26  2  0
 26 27  1  0
 27 28  2  0
 28 29  1  0
 29 30  2  0
 30 31  1  0
 12 32  1  0
 32 33  1  0
  6 34  2  0
 34  2  1  0
 33  9  1  0
 31 13  1  0
 31 16  1  0
 23 18  1  0
 30 25  1  0
  3 35  1  0
  4 36  1  0
  5 37  1  0
  7 38  1  0
  7 39  1  0
  8 40  1  0
  8 41  1  0
 10 42  1  0
 10 43  1  0
 11 44  1  0
 11 45  1  0
 14 46  1  0
 15 47  1  0
 19 48  1  0
 20 49  1  0
 21 50  1  0
 22 51  1  0
 23 52  1  0
 26 53  1  0
 27 54  1  0
 28 55  1  0
 29 56  1  0
 32 57  1  0
 32 58  1  0
 33 59  1  0
 33 60  1  0
 34 61  1  0
M  END
$$$$
