
     RDKit          3D

 38 38  0  0  0  0  0  0  0  0999 V2000
    4.9194   -0.8111   -3.7279 C   0  0  0  0  0  0  0  0  0  0  0  0
    4.7591   -0.8632   -2.2203 C   0  0  0  0  0  0  0  0  0  0  0  0
    3.4098   -0.5379   -1.8562 O   0  0  0  0  0  0  0  0  0  0  0  0
    3.1494    0.7854   -1.6688 C   0  0  0  0  0  0  0  0  0  0  0  0
    3.9391    1.7002   -1.8650 O   0  0  0  0  0  0  0  0  0  0  0  0
    1.7201    0.9910   -1.2654 C   0  0  0  0  0  0  0  0  0  0  0  0
    1.3731    0.3819    0.0680 C   0  0  0  0  0  0  0  0  0  0  0  0
    2.2285    0.0485    0.8852 O   0  0  0  0  0  0  0  0  0  0  0  0
   -0.0683    0.1962    0.4189 C   0  0  0  0  0  0  0  0  0  0  0  0
   -1.0937    0.8408   -0.2879 C   0  0  0  0  0  0  0  0  0  0  0  0
   -2.4283    0.6377    0.0723 C   0  0  0  0  0  0  0  0  0  0  0  0
   -3.5032    1.2180   -0.5500 O   0  0  0  0  0  0  0  0  0  0  0  0
   -3.2684    1.9192   -1.7631 C   0  0  0  0  0  0  0  0  0  0  0  0
   -2.7216   -0.1999    1.1631 C   0  0  0  0  0  0  0  0  0  0  0  0
   -4.0391   -0.4369    1.4895 O   0  0  0  0  0  0  0  0  0  0  0  0
   -4.4675    0.4918    2.4842 C   0  0  0  0  0  0  0  0  0  0  0  0
   -1.7051   -0.8596    1.8739 C   0  0  0  0  0  0  0  0  0  0  0  0
   -2.1090   -1.6686    2.9036 O   0  0  0  0  0  0  0  0  0  0  0  0
   -1.1073   -2.4059    3.5919 C   0  0  0  0  0  0  0  0  0  0  0  0
   -0.3785   -0.6465    1.4988 C   0  0  0  0  0  0  0  0  0  0  0  0
    4.7314    0.1978   -4.1085 H   0  0  0  0  0  0  0  0  0  0  0  0
    5.9289   -1.1126   -4.0213 H   0  0  0  0  0  0  0  0  0  0  0  0
    4.1970   -1.4746   -4.2144 H   0  0  0  0  0  0  0  0  0  0  0  0
    4.9501   -1.8809   -1.8645 H   0  0  0  0  0  0  0  0  0  0  0  0
    5.4779   -0.2061   -1.7174 H   0  0  0  0  0  0  0  0  0  0  0  0
    1.0944    0.5703   -2.0598 H   0  0  0  0  0  0  0  0  0  0  0  0
    1.5367    2.0697   -1.2086 H   0  0  0  0  0  0  0  0  0  0  0  0
   -0.8494    1.5102   -1.1035 H   0  0  0  0  0  0  0  0  0  0  0  0
   -2.6825    2.8262   -1.5830 H   0  0  0  0  0  0  0  0  0  0  0  0
   -4.2386    2.2246   -2.1665 H   0  0  0  0  0  0  0  0  0  0  0  0
   -2.7850    1.2772   -2.5070 H   0  0  0  0  0  0  0  0  0  0  0  0
   -3.8984    0.3750    3.4129 H   0  0  0  0  0  0  0  0  0  0  0  0
   -5.5187    0.2839    2.7050 H   0  0  0  0  0  0  0  0  0  0  0  0
   -4.3961    1.5240    2.1241 H   0  0  0  0  0  0  0  0  0  0  0  0
   -0.4145   -1.7368    4.1125 H   0  0  0  0  0  0  0  0  0  0  0  0
   -0.5741   -3.0795    2.9128 H   0  0  0  0  0  0  0  0  0  0  0  0
   -1.6054   -3.0213    4.3473 H   0  0  0  0  0  0  0  0  0  0  0  0
    0.4379   -1.1282    2.0300 H   0  0  0  0  0  0  0  0  0  0  0  0
  1  2  1  0
  2  3  1  0
  3  4  1  0
  4  5  2  0
  4  6  1  0
  6  7  1  0
  7  8  2  0
  7  9  1  0
  9 10  2  0
 10 11  1  0
 11 12  1  0
 12 13  1  0
 11 14  2  0
 14 15  1  0
 15 16  1  0
 14 17  1  0
 17 18  1  0
 18 19  1  0
 17 20  2  0
 20  9  1  0
  1 21  1  0
  1 22  1  0
  1 23  1  0
  2 24  1  0
  2 25  1  0
  6 26  1  0
  6 27  1  0
 10 28  1  0
 13 29  1  0
 13 30  1  0
 13 31  1  0
 16 32  1  0
 16 33  1  0
 16 34  1  0
 19 35  1  0
 19 36  1  0
 19 37  1  0
 20 38  1  0
M  END
$$$$
