
     RDKit          3D

 32 34  0  0  0  0  0  0  0  0999 V2000
    6.5103    0.1106    0.0164 O   0  0  0  0  0  0  0  0  0  0  0  0
    5.6899   -0.6179    0.5923 N   0  0  0  0  0  4  0  0  0  0  0  0
    5.9880   -1.5398    1.3641 O   0  0  0  0  0  1  0  0  0  0  0  0
    4.2782   -0.3693    0.3464 C   0  0  0  0  0  0  0  0  0  0  0  0
    3.8622    0.6389   -0.5165 C   0  0  0  0  0  0  0  0  0  0  0  0
    2.4918    0.8255   -0.7106 C   0  0  0  0  0  0  0  0  0  0  0  0
    1.5649    0.0191   -0.0404 C   0  0  0  0  0  0  0  0  0  0  0  0
    0.1919    0.2057   -0.2673 N   0  0  0  0  0  0  0  0  0  0  0  0
   -0.3045    1.5379    0.1066 C   0  0  0  0  0  0  0  0  0  0  0  0
   -1.6717    1.7668   -0.5456 C   0  0  0  0  0  0  0  0  0  0  0  0
   -2.6170    0.6150   -0.3158 C   0  0  0  0  0  0  0  0  0  0  0  0
   -3.9941    0.7909   -0.5106 C   0  0  0  0  0  0  0  0  0  0  0  0
   -4.8734   -0.2771   -0.3354 C   0  0  0  0  0  0  0  0  0  0  0  0
   -4.3847   -1.5293    0.0278 C   0  0  0  0  0  0  0  0  0  0  0  0
   -3.0146   -1.7169    0.2124 C   0  0  0  0  0  0  0  0  0  0  0  0
   -2.1157   -0.6535    0.0315 C   0  0  0  0  0  0  0  0  0  0  0  0
   -0.6347   -0.8860    0.2780 C   0  0  0  0  0  0  0  0  0  0  0  0
    1.9856   -0.9693    0.7836 N   0  0  0  0  0  0  0  0  0  0  0  0
    3.3192   -1.1460    0.9687 C   0  0  0  0  0  0  0  0  0  0  0  0
    4.5713    1.2697   -1.0459 H   0  0  0  0  0  0  0  0  0  0  0  0
    2.1514    1.5831   -1.4102 H   0  0  0  0  0  0  0  0  0  0  0  0
    0.3615    2.3439   -0.2221 H   0  0  0  0  0  0  0  0  0  0  0  0
   -0.3870    1.6129    1.1997 H   0  0  0  0  0  0  0  0  0  0  0  0
   -2.1034    2.6936   -0.1501 H   0  0  0  0  0  0  0  0  0  0  0  0
   -1.5440    1.8889   -1.6286 H   0  0  0  0  0  0  0  0  0  0  0  0
   -4.3878    1.7617   -0.8025 H   0  0  0  0  0  0  0  0  0  0  0  0
   -5.9400   -0.1327   -0.4854 H   0  0  0  0  0  0  0  0  0  0  0  0
   -5.0702   -2.3613    0.1656 H   0  0  0  0  0  0  0  0  0  0  0  0
   -2.6474   -2.7006    0.4976 H   0  0  0  0  0  0  0  0  0  0  0  0
   -0.4967   -0.9783    1.3640 H   0  0  0  0  0  0  0  0  0  0  0  0
   -0.3516   -1.8313   -0.2032 H   0  0  0  0  0  0  0  0  0  0  0  0
    3.5724   -1.9549    1.6494 H   0  0  0  0  0  0  0  0  0  0  0  0
  1  2  2  0
  2  3  1  0
  2  4  1  0
  4  5  2  0
  5  6  1  0
  6  7  2  0
  7  8  1  0
  8  9  1  0
  9 10  1  0
 10 11  1  0
 11 12  2  0
 12 13  1  0
 13 14  2  0
 14 15  1  0
 15 16  2  0
 16 17  1  0
  7 18  1  0
 18 19  2  0
 19  4  1  0
 17  8  1  0
 16 11  1  0
  5 20  1  0
  6 21  1  0
  9 22  1  0
  9 23  1  0
 10 24  1  0
 10 25  1  0
 12 26  1  0
 13 27  1  0
 14 28  1  0
 15 29  1  0
 17 30  1  0
 17 31  1  0
 19 32  1  0
M  CHG  2   2   1   3  -1
M  END
$$$$
