
     RDKit          3D

 37 39  0  0  0  0  0  0  0  0999 V2000
   -4.2572   -1.8558   -1.1681 C   0  0  0  0  0  0  0  0  0  0  0  0
   -4.4963   -1.5976    0.3094 C   0  0  0  0  0  0  0  0  0  0  0  0
   -4.1657   -0.2359    0.6984 N   0  0  0  0  0  0  0  0  0  0  0  0
   -5.1826    0.6483    0.8309 N   0  0  0  0  0  0  0  0  0  0  0  0
   -4.5795    1.7742    1.2088 C   0  0  0  0  0  0  0  0  0  0  0  0
   -3.1915    1.6181    1.2829 C   0  0  0  0  0  0  0  0  0  0  0  0
   -2.0424    2.9879    1.8391 Br  0  0  0  0  0  0  0  0  0  0  0  0
   -2.9168    0.3139    0.9183 C   0  0  0  0  0  0  0  0  0  0  0  0
   -1.6683   -0.4165    0.8010 C   0  0  0  0  0  0  0  0  0  0  0  0
   -1.6315   -1.6306    0.9636 O   0  0  0  0  0  0  0  0  0  0  0  0
   -0.5943    0.3726    0.4381 N   0  0  0  0  0  0  0  0  0  0  0  0
    0.7360   -0.0048    0.3045 C   0  0  0  0  0  0  0  0  0  0  0  0
    1.2765   -1.5429    0.8335 S   0  0  0  0  0  0  0  0  0  0  0  0
    2.8445   -1.1693    0.4207 C   0  0  0  0  0  0  0  0  0  0  0  0
    3.0015    0.0777   -0.1190 C   0  0  0  0  0  0  0  0  0  0  0  0
    1.7668    0.7895   -0.2155 C   0  0  0  0  0  0  0  0  0  0  0  0
    1.5184    2.1306   -0.7410 C   0  0  0  0  0  0  0  0  0  0  0  0
    2.5433    2.7358   -1.4076 N   0  0  0  0  0  0  0  0  0  0  0  0
    0.4354    2.7014   -0.6368 O   0  0  0  0  0  0  0  0  0  0  0  0
    4.4356    0.3239   -0.4311 C   0  0  0  0  0  0  0  0  0  0  0  0
    5.1557   -0.8271    0.3380 C   0  0  0  0  0  0  0  0  0  0  0  0
    4.0976   -1.9473    0.5535 C   0  0  0  0  0  0  0  0  0  0  0  0
   -3.2026   -1.7340   -1.4327 H   0  0  0  0  0  0  0  0  0  0  0  0
   -4.8373   -1.1629   -1.7867 H   0  0  0  0  0  0  0  0  0  0  0  0
   -4.5554   -2.8762   -1.4271 H   0  0  0  0  0  0  0  0  0  0  0  0
   -5.5551   -1.7584    0.5456 H   0  0  0  0  0  0  0  0  0  0  0  0
   -3.9289   -2.2872    0.9396 H   0  0  0  0  0  0  0  0  0  0  0  0
   -5.1816    2.6497    1.4159 H   0  0  0  0  0  0  0  0  0  0  0  0
   -0.7831    1.3432    0.1898 H   0  0  0  0  0  0  0  0  0  0  0  0
    3.3322    2.2129   -1.7516 H   0  0  0  0  0  0  0  0  0  0  0  0
    2.3142    3.6017   -1.8773 H   0  0  0  0  0  0  0  0  0  0  0  0
    4.6140    0.2282   -1.5076 H   0  0  0  0  0  0  0  0  0  0  0  0
    4.7855    1.3010   -0.0866 H   0  0  0  0  0  0  0  0  0  0  0  0
    6.0445   -1.1881   -0.1888 H   0  0  0  0  0  0  0  0  0  0  0  0
    5.4823   -0.4499    1.3166 H   0  0  0  0  0  0  0  0  0  0  0  0
    4.2145   -2.4221    1.5315 H   0  0  0  0  0  0  0  0  0  0  0  0
    4.1715   -2.7036   -0.2349 H   0  0  0  0  0  0  0  0  0  0  0  0
  1  2  1  0
  2  3  1  0
  3  4  1  0
  4  5  2  0
  5  6  1  0
  6  7  1  0
  6  8  2  0
  8  9  1  0
  9 10  2  0
  9 11  1  0
 11 12  1  0
 12 13  1  0
 13 14  1  0
 14 15  2  0
 15 16  1  0
 16 17  1  0
 17 18  1  0
 17 19  2  0
 15 20  1  0
 20 21  1  0
 21 22  1  0
  8  3  1  0
 16 12  2  0
 22 14  1  0
  1 23  1  0
  1 24  1  0
  1 25  1  0
  2 26  1  0
  2 27  1  0
  5 28  1  0
 11 29  1  0
 18 30  1  0
 18 31  1  0
 20 32  1  0
 20 33  1  0
 21 34  1  0
 21 35  1  0
 22 36  1  0
 22 37  1  0
M  END
$$$$
