
     RDKit          3D

 62 67  0  0  0  0  0  0  0  0999 V2000
   -3.9619   -3.8780   -0.5017 C   0  0  0  0  0  0  0  0  0  0  0  0
   -3.6712   -2.6065    0.0611 O   0  0  0  0  0  0  0  0  0  0  0  0
   -2.9897   -2.5815    1.2526 C   0  0  0  0  0  0  0  0  0  0  0  0
   -2.4452   -3.7113    1.8748 C   0  0  0  0  0  0  0  0  0  0  0  0
   -1.7472   -3.5913    3.0803 C   0  0  0  0  0  0  0  0  0  0  0  0
   -1.5825   -2.3439    3.6747 C   0  0  0  0  0  0  0  0  0  0  0  0
   -2.1181   -1.2111    3.0651 C   0  0  0  0  0  0  0  0  0  0  0  0
   -2.8260   -1.3176    1.8567 C   0  0  0  0  0  0  0  0  0  0  0  0
   -3.3650   -0.0941    1.2478 C   0  0  0  0  0  0  0  0  0  0  0  0
   -4.9910    0.3206    1.5673 S   0  0  0  0  0  0  0  0  0  0  0  0
   -4.9054    1.7560    0.6236 C   0  0  0  0  0  0  0  0  0  0  0  0
   -5.9533    2.6782    0.4079 C   0  0  0  0  0  0  0  0  0  0  0  0
   -5.6641    3.7670   -0.3882 C   0  0  0  0  0  0  0  0  0  0  0  0
   -4.4301    3.9564   -0.9473 C   0  0  0  0  0  0  0  0  0  0  0  0
   -3.3913    3.0681   -0.7499 C   0  0  0  0  0  0  0  0  0  0  0  0
   -3.6281    1.9258    0.0649 C   0  0  0  0  0  0  0  0  0  0  0  0
   -2.7442    0.8429    0.4394 C   0  0  0  0  0  0  0  0  0  0  0  0
   -1.3470    0.7055    0.0456 C   0  0  0  0  0  0  0  0  0  0  0  0
   -0.3781    1.5476    0.5967 C   0  0  0  0  0  0  0  0  0  0  0  0
    0.9582    1.4178    0.2112 C   0  0  0  0  0  0  0  0  0  0  0  0
    1.3404    0.4532   -0.7254 C   0  0  0  0  0  0  0  0  0  0  0  0
    2.6772    0.4361   -1.0110 O   0  0  0  0  0  0  0  0  0  0  0  0
    3.1312   -0.5403   -1.9516 C   0  0  0  0  0  0  0  0  0  0  0  0
    4.6586   -0.4187   -2.1236 C   0  0  0  0  0  0  0  0  0  0  0  0
    5.4488   -1.1266   -1.0958 N   0  0  0  0  0  0  0  0  0  0  0  0
    5.1858   -0.6041    0.2648 C   0  0  0  0  0  0  0  0  0  0  0  0
    6.3397   -0.9185    1.2297 C   0  0  0  0  0  0  0  0  0  0  0  0
    7.5701   -0.2841    0.8514 O   0  0  0  0  0  0  0  0  0  0  0  0
    7.6710   -0.0547   -0.5602 C   0  0  0  0  0  0  0  0  0  0  0  0
    6.8976   -1.0879   -1.3946 C   0  0  0  0  0  0  0  0  0  0  0  0
    0.3713   -0.3842   -1.2787 C   0  0  0  0  0  0  0  0  0  0  0  0
   -0.9685   -0.2570   -0.8958 C   0  0  0  0  0  0  0  0  0  0  0  0
   -4.3648    5.0913   -1.6950 O   0  0  0  0  0  0  0  0  0  0  0  0
   -5.7078    5.5939   -1.5424 C   0  0  0  0  0  0  0  0  0  0  0  0
   -6.5388    4.7589   -0.7107 O   0  0  0  0  0  0  0  0  0  0  0  0
   -3.0439   -4.3928   -0.8032 H   0  0  0  0  0  0  0  0  0  0  0  0
   -4.5541   -4.4914    0.1853 H   0  0  0  0  0  0  0  0  0  0  0  0
   -4.5615   -3.7151   -1.4025 H   0  0  0  0  0  0  0  0  0  0  0  0
   -2.5397   -4.7025    1.4445 H   0  0  0  0  0  0  0  0  0  0  0  0
   -1.3275   -4.4759    3.5532 H   0  0  0  0  0  0  0  0  0  0  0  0
   -1.0364   -2.2514    4.6098 H   0  0  0  0  0  0  0  0  0  0  0  0
   -1.9825   -0.2388    3.5337 H   0  0  0  0  0  0  0  0  0  0  0  0
   -6.9349    2.5367    0.8445 H   0  0  0  0  0  0  0  0  0  0  0  0
   -2.4233    3.2394   -1.2093 H   0  0  0  0  0  0  0  0  0  0  0  0
   -0.6533    2.3031    1.3284 H   0  0  0  0  0  0  0  0  0  0  0  0
    1.7083    2.0742    0.6453 H   0  0  0  0  0  0  0  0  0  0  0  0
    2.8722   -1.5542   -1.6226 H   0  0  0  0  0  0  0  0  0  0  0  0
    2.6627   -0.3424   -2.9236 H   0  0  0  0  0  0  0  0  0  0  0  0
    4.9476    0.6391   -2.1659 H   0  0  0  0  0  0  0  0  0  0  0  0
    4.8998   -0.8703   -3.0942 H   0  0  0  0  0  0  0  0  0  0  0  0
    5.0592    0.4859    0.2382 H   0  0  0  0  0  0  0  0  0  0  0  0
    4.2636   -1.0498    0.6523 H   0  0  0  0  0  0  0  0  0  0  0  0
    6.0913   -0.5730    2.2384 H   0  0  0  0  0  0  0  0  0  0  0  0
    6.5155   -1.9990    1.2904 H   0  0  0  0  0  0  0  0  0  0  0  0
    8.7342   -0.0833   -0.8196 H   0  0  0  0  0  0  0  0  0  0  0  0
    7.3132    0.9603   -0.7691 H   0  0  0  0  0  0  0  0  0  0  0  0
    7.0883   -0.9262   -2.4622 H   0  0  0  0  0  0  0  0  0  0  0  0
    7.2948   -2.0837   -1.1602 H   0  0  0  0  0  0  0  0  0  0  0  0
    0.6194   -1.1469   -2.0088 H   0  0  0  0  0  0  0  0  0  0  0  0
   -1.7151   -0.9161   -1.3344 H   0  0  0  0  0  0  0  0  0  0  0  0
   -6.1685    5.6712   -2.5341 H   0  0  0  0  0  0  0  0  0  0  0  0
   -5.6597    6.5948   -1.0980 H   0  0  0  0  0  0  0  0  0  0  0  0
  1  2  1  0
  2  3  1  0
  3  4  2  0
  4  5  1  0
  5  6  2  0
  6  7  1  0
  7  8  2  0
  8  9  1  0
  9 10  1  0
 10 11  1  0
 11 12  2  0
 12 13  1  0
 13 14  2  0
 14 15  1  0
 15 16  2  0
 16 17  1  0
 17 18  1  0
 18 19  2  0
 19 20  1  0
 20 21  2  0
 21 22  1  0
 22 23  1  0
 23 24  1  0
 24 25  1  0
 25 26  1  0
 26 27  1  0
 27 28  1  0
 28 29  1  0
 29 30  1  0
 21 31  1  0
 31 32  2  0
 14 33  1  0
 33 34  1  0
 34 35  1  0
  8  3  1  0
 17  9  2  0
 32 18  1  0
 16 11  1  0
 30 25  1  0
 35 13  1  0
  1 36  1  0
  1 37  1  0
  1 38  1  0
  4 39  1  0
  5 40  1  0
  6 41  1  0
  7 42  1  0
 12 43  1  0
 15 44  1  0
 19 45  1  0
 20 46  1  0
 23 47  1  0
 23 48  1  0
 24 49  1  0
 24 50  1  0
 26 51  1  0
 26 52  1  0
 27 53  1  0
 27 54  1  0
 29 55  1  0
 29 56  1  0
 30 57  1  0
 30 58  1  0
 31 59  1  0
 32 60  1  0
 34 61  1  0
 34 62  1  0
M  END
$$$$
