
     RDKit          3D

 55 60  0  0  0  0  0  0  0  0999 V2000
    4.3971    1.6562   -1.2806 O   0  0  0  0  0  0  0  0  0  0  0  0
    3.8140    1.5567   -0.2023 C   0  0  0  0  0  0  0  0  0  0  0  0
    4.5715    1.2195    0.9952 C   0  0  0  0  0  0  0  0  0  0  0  0
    5.7344    0.3948    1.0706 C   0  0  0  0  0  0  0  0  0  0  0  0
    6.1328    0.3906    2.3851 C   0  0  0  0  0  0  0  0  0  0  0  0
    5.3143    1.1775    3.1277 O   0  0  0  0  0  0  0  0  0  0  0  0
    4.3900    1.6952    2.2788 C   0  0  0  0  0  0  0  0  0  0  0  0
    2.4309    1.7443   -0.0947 N   0  0  0  0  0  0  0  0  0  0  0  0
    1.6979    2.1872   -1.2700 C   0  0  0  0  0  0  0  0  0  0  0  0
    0.9238    1.0228   -1.8829 C   0  0  0  0  0  0  0  0  0  0  0  0
    0.0985    0.2023   -0.8317 C   0  0  0  0  0  0  0  0  0  0  0  0
    0.1728    0.9128    0.5471 C   0  0  0  0  0  0  0  0  0  0  0  0
    1.6205    1.1742    0.9769 C   0  0  0  0  0  0  0  0  0  0  0  0
    0.7356   -1.0857   -0.6146 O   0  0  0  0  0  0  0  0  0  0  0  0
    0.6025   -1.9966   -1.6258 C   0  0  0  0  0  0  0  0  0  0  0  0
    1.5056   -3.0590   -1.6195 C   0  0  0  0  0  0  0  0  0  0  0  0
    1.4572   -4.0221   -2.6304 C   0  0  0  0  0  0  0  0  0  0  0  0
    0.5019   -3.9212   -3.6425 C   0  0  0  0  0  0  0  0  0  0  0  0
    0.4481   -5.1095   -4.8849 Cl  0  0  0  0  0  0  0  0  0  0  0  0
   -0.4139   -2.8719   -3.6484 C   0  0  0  0  0  0  0  0  0  0  0  0
   -0.3636   -1.9163   -2.6287 C   0  0  0  0  0  0  0  0  0  0  0  0
   -1.3531   -0.8230   -2.5797 C   0  0  0  0  0  0  0  0  0  0  0  0
   -2.1233   -0.6554   -3.5192 O   0  0  0  0  0  0  0  0  0  0  0  0
   -1.3724   -0.0127   -1.2884 C   0  0  0  0  0  0  0  0  0  0  0  0
   -2.2834   -0.7398   -0.3049 C   0  0  0  0  0  0  0  0  0  0  0  0
   -3.0519    0.4235    0.2166 C   0  0  0  0  0  0  0  0  0  0  0  0
   -3.9345    0.3167    1.4018 C   0  0  0  0  0  0  0  0  0  0  0  0
   -4.5419    1.4769    1.9013 C   0  0  0  0  0  0  0  0  0  0  0  0
   -5.3768    1.4109    3.0207 C   0  0  0  0  0  0  0  0  0  0  0  0
   -5.6070    0.1847    3.6399 C   0  0  0  0  0  0  0  0  0  0  0  0
   -6.6293    0.1010    5.0199 Cl  0  0  0  0  0  0  0  0  0  0  0  0
   -5.0122   -0.9759    3.1473 C   0  0  0  0  0  0  0  0  0  0  0  0
   -4.1755   -0.9125    2.0272 C   0  0  0  0  0  0  0  0  0  0  0  0
   -2.8845    1.5238   -0.4429 N   0  0  0  0  0  0  0  0  0  0  0  0
   -2.0074    1.2500   -1.5165 O   0  0  0  0  0  0  0  0  0  0  0  0
    6.2133   -0.1258    0.2523 H   0  0  0  0  0  0  0  0  0  0  0  0
    6.9419   -0.0833    2.9231 H   0  0  0  0  0  0  0  0  0  0  0  0
    3.6933    2.3871    2.7305 H   0  0  0  0  0  0  0  0  0  0  0  0
    2.3699    2.6234   -2.0170 H   0  0  0  0  0  0  0  0  0  0  0  0
    1.0170    2.9893   -0.9603 H   0  0  0  0  0  0  0  0  0  0  0  0
    0.2745    1.4374   -2.6629 H   0  0  0  0  0  0  0  0  0  0  0  0
    1.6440    0.3703   -2.3923 H   0  0  0  0  0  0  0  0  0  0  0  0
   -0.3654    1.8674    0.5144 H   0  0  0  0  0  0  0  0  0  0  0  0
   -0.2948    0.3063    1.3314 H   0  0  0  0  0  0  0  0  0  0  0  0
    1.6164    1.8821    1.8116 H   0  0  0  0  0  0  0  0  0  0  0  0
    2.0797    0.2412    1.3210 H   0  0  0  0  0  0  0  0  0  0  0  0
    2.2584   -3.1314   -0.8380 H   0  0  0  0  0  0  0  0  0  0  0  0
    2.1703   -4.8432   -2.6264 H   0  0  0  0  0  0  0  0  0  0  0  0
   -1.1638   -2.8011   -4.4335 H   0  0  0  0  0  0  0  0  0  0  0  0
   -2.9826   -1.4282   -0.7931 H   0  0  0  0  0  0  0  0  0  0  0  0
   -1.7436   -1.2742    0.4800 H   0  0  0  0  0  0  0  0  0  0  0  0
   -4.3718    2.4400    1.4229 H   0  0  0  0  0  0  0  0  0  0  0  0
   -5.8422    2.3172    3.3997 H   0  0  0  0  0  0  0  0  0  0  0  0
   -5.1986   -1.9330    3.6280 H   0  0  0  0  0  0  0  0  0  0  0  0
   -3.7345   -1.8352    1.6612 H   0  0  0  0  0  0  0  0  0  0  0  0
  1  2  2  0
  2  3  1  0
  3  4  1  0
  4  5  2  0
  5  6  1  0
  6  7  1  0
  2  8  1  0
  8  9  1  0
  9 10  1  0
 10 11  1  0
 11 12  1  0
 12 13  1  0
 11 14  1  0
 14 15  1  0
 15 16  2  0
 16 17  1  0
 17 18  2  0
 18 19  1  0
 18 20  1  0
 20 21  2  0
 21 22  1  0
 22 23  2  0
 22 24  1  0
 24 25  1  0
 25 26  1  0
 26 27  1  0
 27 28  2  0
 28 29  1  0
 29 30  2  0
 30 31  1  0
 30 32  1  0
 32 33  2  0
 26 34  2  0
 34 35  1  0
  7  3  2  0
 13  8  1  0
 21 15  1  0
 35 24  1  0
 24 11  1  0
 33 27  1  0
  4 36  1  0
  5 37  1  0
  7 38  1  0
  9 39  1  0
  9 40  1  0
 10 41  1  0
 10 42  1  0
 12 43  1  0
 12 44  1  0
 13 45  1  0
 13 46  1  0
 16 47  1  0
 17 48  1  0
 20 49  1  0
 25 50  1  0
 25 51  1  0
 28 52  1  0
 29 53  1  0
 32 54  1  0
 33 55  1  0
M  END
$$$$
