
     RDKit          3D

 32 34  0  0  0  0  0  0  0  0999 V2000
    6.3421    0.1293   -0.7475 O   0  0  0  0  0  0  0  0  0  0  0  0
    5.7268   -0.4457    0.1609 N   0  0  0  0  0  4  0  0  0  0  0  0
    6.2510   -1.1784    1.0116 O   0  0  0  0  0  1  0  0  0  0  0  0
    4.2872   -0.2513    0.2333 C   0  0  0  0  0  0  0  0  0  0  0  0
    3.5271   -0.8518    1.2319 C   0  0  0  0  0  0  0  0  0  0  0  0
    2.1496   -0.6245    1.2473 C   0  0  0  0  0  0  0  0  0  0  0  0
    1.5571    0.1852    0.2716 C   0  0  0  0  0  0  0  0  0  0  0  0
    0.1677    0.4106    0.3150 N   0  0  0  0  0  0  0  0  0  0  0  0
   -0.2629    1.5295   -0.5377 C   0  0  0  0  0  0  0  0  0  0  0  0
   -1.7042    1.9052   -0.1843 C   0  0  0  0  0  0  0  0  0  0  0  0
   -2.6177    0.7058   -0.1930 C   0  0  0  0  0  0  0  0  0  0  0  0
   -4.0044    0.8826   -0.2972 C   0  0  0  0  0  0  0  0  0  0  0  0
   -4.8593   -0.2184   -0.2752 C   0  0  0  0  0  0  0  0  0  0  0  0
   -4.3377   -1.5023   -0.1416 C   0  0  0  0  0  0  0  0  0  0  0  0
   -2.9597   -1.6870   -0.0243 C   0  0  0  0  0  0  0  0  0  0  0  0
   -2.0860   -0.5874   -0.0364 C   0  0  0  0  0  0  0  0  0  0  0  0
   -0.5909   -0.8292    0.0672 C   0  0  0  0  0  0  0  0  0  0  0  0
    2.3093    0.7715   -0.6888 N   0  0  0  0  0  0  0  0  0  0  0  0
    3.6483    0.5467   -0.6975 C   0  0  0  0  0  0  0  0  0  0  0  0
    3.9777   -1.4779    1.9976 H   0  0  0  0  0  0  0  0  0  0  0  0
    1.5441   -1.0573    2.0383 H   0  0  0  0  0  0  0  0  0  0  0  0
    0.3620    2.4170   -0.3731 H   0  0  0  0  0  0  0  0  0  0  0  0
   -0.1943    1.2561   -1.5998 H   0  0  0  0  0  0  0  0  0  0  0  0
   -2.0608    2.6575   -0.8974 H   0  0  0  0  0  0  0  0  0  0  0  0
   -1.7348    2.3486    0.8189 H   0  0  0  0  0  0  0  0  0  0  0  0
   -4.4243    1.8812   -0.3951 H   0  0  0  0  0  0  0  0  0  0  0  0
   -5.9331   -0.0736   -0.3603 H   0  0  0  0  0  0  0  0  0  0  0  0
   -5.0047   -2.3604   -0.1266 H   0  0  0  0  0  0  0  0  0  0  0  0
   -2.5689   -2.6970    0.0788 H   0  0  0  0  0  0  0  0  0  0  0  0
   -0.4258   -1.5374    0.8884 H   0  0  0  0  0  0  0  0  0  0  0  0
   -0.2608   -1.2972   -0.8706 H   0  0  0  0  0  0  0  0  0  0  0  0
    4.1804    1.0500   -1.5008 H   0  0  0  0  0  0  0  0  0  0  0  0
  1  2  2  0
  2  3  1  0
  2  4  1  0
  4  5  2  0
  5  6  1  0
  6  7  2  0
  7  8  1  0
  8  9  1  0
  9 10  1  0
 10 11  1  0
 11 12  2  0
 12 13  1  0
 13 14  2  0
 14 15  1  0
 15 16  2  0
 16 17  1  0
  7 18  1  0
 18 19  2  0
 19  4  1  0
 17  8  1  0
 16 11  1  0
  5 20  1  0
  6 21  1  0
  9 22  1  0
  9 23  1  0
 10 24  1  0
 10 25  1  0
 12 26  1  0
 13 27  1  0
 14 28  1  0
 15 29  1  0
 17 30  1  0
 17 31  1  0
 19 32  1  0
M  CHG  2   2   1   3  -1
M  END
$$$$
