
     RDKit          3D

 35 37  0  0  0  0  0  0  0  0999 V2000
   -4.2364   -1.3615    1.5788 C   0  0  0  0  0  0  0  0  0  0  0  0
   -3.9504   -0.2889    0.5637 C   0  0  0  0  0  0  0  0  0  0  0  0
   -4.6028    0.9493    0.6627 C   0  0  0  0  0  0  0  0  0  0  0  0
   -4.3501    1.9583   -0.2640 C   0  0  0  0  0  0  0  0  0  0  0  0
   -3.4437    1.7391   -1.2963 C   0  0  0  0  0  0  0  0  0  0  0  0
   -2.7869    0.5108   -1.4069 C   0  0  0  0  0  0  0  0  0  0  0  0
   -3.0355   -0.5092   -0.4828 C   0  0  0  0  0  0  0  0  0  0  0  0
   -2.4331   -1.7413   -0.4859 O   0  0  0  0  0  0  0  0  0  0  0  0
   -1.5470   -2.0611   -1.5504 C   0  0  0  0  0  0  0  0  0  0  0  0
   -0.1364   -1.4775   -1.4034 C   0  0  0  0  0  0  0  0  0  0  0  0
    0.5871   -1.3474   -2.3857 O   0  0  0  0  0  0  0  0  0  0  0  0
    0.1763   -1.1859   -0.0952 N   0  0  0  0  0  0  0  0  0  0  0  0
    1.3496   -0.6667    0.3857 C   0  0  0  0  0  0  0  0  0  0  0  0
    1.5185   -0.3854    1.6590 N   0  0  0  0  0  0  0  0  0  0  0  0
    2.7775    0.1227    1.9150 N   0  0  0  0  0  0  0  0  0  0  0  0
    3.5076    0.2015    0.8197 C   0  0  0  0  0  0  0  0  0  0  0  0
    4.8532    0.6975    0.8125 C   0  0  0  0  0  0  0  0  0  0  0  0
    5.5994    1.1625    1.8859 C   0  0  0  0  0  0  0  0  0  0  0  0
    6.8684    1.5442    1.3882 C   0  0  0  0  0  0  0  0  0  0  0  0
    6.8345    1.2936    0.0393 C   0  0  0  0  0  0  0  0  0  0  0  0
    5.6295    0.7849   -0.3190 O   0  0  0  0  0  0  0  0  0  0  0  0
    2.7043   -0.3430   -0.5930 S   0  0  0  0  0  0  0  0  0  0  0  0
   -4.9795   -1.0332    2.3131 H   0  0  0  0  0  0  0  0  0  0  0  0
   -4.6314   -2.2552    1.0852 H   0  0  0  0  0  0  0  0  0  0  0  0
   -3.3226   -1.6198    2.1237 H   0  0  0  0  0  0  0  0  0  0  0  0
   -5.3127    1.1354    1.4657 H   0  0  0  0  0  0  0  0  0  0  0  0
   -4.8591    2.9151   -0.1795 H   0  0  0  0  0  0  0  0  0  0  0  0
   -3.2439    2.5276   -2.0182 H   0  0  0  0  0  0  0  0  0  0  0  0
   -2.0859    0.3965   -2.2275 H   0  0  0  0  0  0  0  0  0  0  0  0
   -1.9724   -1.7949   -2.5247 H   0  0  0  0  0  0  0  0  0  0  0  0
   -1.4304   -3.1511   -1.5478 H   0  0  0  0  0  0  0  0  0  0  0  0
   -0.5497   -1.2981    0.6041 H   0  0  0  0  0  0  0  0  0  0  0  0
    5.2543    1.2154    2.9103 H   0  0  0  0  0  0  0  0  0  0  0  0
    7.7019    1.9503    1.9438 H   0  0  0  0  0  0  0  0  0  0  0  0
    7.5477    1.4155   -0.7645 H   0  0  0  0  0  0  0  0  0  0  0  0
  1  2  1  0
  2  3  2  0
  3  4  1  0
  4  5  2  0
  5  6  1  0
  6  7  2  0
  7  8  1  0
  8  9  1  0
  9 10  1  0
 10 11  2  0
 10 12  1  0
 12 13  1  0
 13 14  2  0
 14 15  1  0
 15 16  2  0
 16 17  1  0
 17 18  2  0
 18 19  1  0
 19 20  2  0
 20 21  1  0
 16 22  1  0
  7  2  1  0
 22 13  1  0
 21 17  1  0
  1 23  1  0
  1 24  1  0
  1 25  1  0
  3 26  1  0
  4 27  1  0
  5 28  1  0
  6 29  1  0
  9 30  1  0
  9 31  1  0
 12 32  1  0
 18 33  1  0
 19 34  1  0
 20 35  1  0
M  END
$$$$
