
     RDKit          3D

 53 58  0  0  0  0  0  0  0  0999 V2000
   -1.2825   -0.5173   -2.1418 O   0  0  0  0  0  0  0  0  0  0  0  0
   -1.6025   -0.5948   -0.9550 C   0  0  0  0  0  0  0  0  0  0  0  0
   -0.7245   -1.3740    0.0394 C   0  0  0  0  0  0  0  0  0  0  0  0
    0.6987   -1.0098   -0.0657 N   0  0  0  0  0  4  0  0  0  0  0  0
    1.4816   -0.4201    0.9269 C   0  0  0  0  0  0  0  0  0  0  0  0
    2.7713   -0.2439    0.4418 C   0  0  0  0  0  0  0  0  0  0  0  0
    3.9719    0.4269    1.2039 C   0  0  0  0  0  0  0  0  0  0  0  0
    5.2000    0.6232    0.5672 C   0  0  0  0  0  0  0  0  0  0  0  0
    6.2609    1.2245    1.2542 C   0  0  0  0  0  0  0  0  0  0  0  0
    6.0946    1.6326    2.5753 C   0  0  0  0  0  0  0  0  0  0  0  0
    7.3992    2.3701    3.4154 Cl  0  0  0  0  0  0  0  0  0  0  0  0
    4.8729    1.4460    3.2159 C   0  0  0  0  0  0  0  0  0  0  0  0
    3.8099    0.8458    2.5320 C   0  0  0  0  0  0  0  0  0  0  0  0
    2.7101   -0.7953   -0.8246 N   0  0  0  0  0  0  0  0  0  0  0  0
    1.4822   -1.2174   -1.1226 C   0  0  0  0  0  0  0  0  0  0  0  0
    1.3926   -1.8243   -2.4731 C   0  0  0  0  0  0  0  0  0  0  0  0
    2.8770   -2.0514   -2.8188 C   0  0  0  0  0  0  0  0  0  0  0  0
    3.6485   -1.0582   -1.9091 C   0  0  0  0  0  0  0  0  0  0  0  0
   -2.7755   -0.0846   -0.3882 N   0  0  0  0  0  0  0  0  0  0  0  0
   -2.6826    0.9086    0.6526 C   0  0  0  0  0  0  0  0  0  0  0  0
   -1.4935    1.6626    0.7779 C   0  0  0  0  0  0  0  0  0  0  0  0
   -1.3367    2.6300    1.7742 C   0  0  0  0  0  0  0  0  0  0  0  0
   -2.3706    2.8736    2.6654 C   0  0  0  0  0  0  0  0  0  0  0  0
   -3.5636    2.1659    2.5412 C   0  0  0  0  0  0  0  0  0  0  0  0
   -3.7317    1.2001    1.5342 C   0  0  0  0  0  0  0  0  0  0  0  0
   -5.2892    0.3691    1.4749 S   0  0  0  0  0  0  0  0  0  0  0  0
   -5.2611   -0.2301   -0.1953 C   0  0  0  0  0  0  0  0  0  0  0  0
   -6.5057   -0.5933   -0.7419 C   0  0  0  0  0  0  0  0  0  0  0  0
   -6.5907   -1.1725   -2.0030 C   0  0  0  0  0  0  0  0  0  0  0  0
   -5.4289   -1.4062   -2.7210 C   0  0  0  0  0  0  0  0  0  0  0  0
   -4.1873   -1.0498   -2.1814 C   0  0  0  0  0  0  0  0  0  0  0  0
   -4.0711   -0.4344   -0.9178 C   0  0  0  0  0  0  0  0  0  0  0  0
   -1.0555   -1.2400    1.0733 H   0  0  0  0  0  0  0  0  0  0  0  0
   -0.8169   -2.4402   -0.1970 H   0  0  0  0  0  0  0  0  0  0  0  0
    1.0090   -0.1832    1.8650 H   0  0  0  0  0  0  0  0  0  0  0  0
    5.3678    0.3381   -0.4639 H   0  0  0  0  0  0  0  0  0  0  0  0
    7.2149    1.3759    0.7526 H   0  0  0  0  0  0  0  0  0  0  0  0
    4.7440    1.7647    4.2485 H   0  0  0  0  0  0  0  0  0  0  0  0
    2.8751    0.7160    3.0701 H   0  0  0  0  0  0  0  0  0  0  0  0
    0.8090   -2.7433   -2.4183 H   0  0  0  0  0  0  0  0  0  0  0  0
    0.9393   -1.0802   -3.1298 H   0  0  0  0  0  0  0  0  0  0  0  0
    3.1560   -3.0755   -2.5432 H   0  0  0  0  0  0  0  0  0  0  0  0
    3.0961   -1.9142   -3.8808 H   0  0  0  0  0  0  0  0  0  0  0  0
    3.8540   -0.1191   -2.4311 H   0  0  0  0  0  0  0  0  0  0  0  0
    4.5701   -1.5072   -1.5323 H   0  0  0  0  0  0  0  0  0  0  0  0
   -0.6836    1.5626    0.0588 H   0  0  0  0  0  0  0  0  0  0  0  0
   -0.4216    3.2150    1.8356 H   0  0  0  0  0  0  0  0  0  0  0  0
   -2.2661    3.6310    3.4394 H   0  0  0  0  0  0  0  0  0  0  0  0
   -4.3752    2.3843    3.2348 H   0  0  0  0  0  0  0  0  0  0  0  0
   -7.4239   -0.4363   -0.1775 H   0  0  0  0  0  0  0  0  0  0  0  0
   -7.5587   -1.4460   -2.4167 H   0  0  0  0  0  0  0  0  0  0  0  0
   -5.4832   -1.8597   -3.7087 H   0  0  0  0  0  0  0  0  0  0  0  0
   -3.3247   -1.2439   -2.8117 H   0  0  0  0  0  0  0  0  0  0  0  0
  1  2  2  0
  2  3  1  0
  3  4  1  0
  4  5  1  0
  5  6  2  0
  6  7  1  0
  7  8  2  0
  8  9  1  0
  9 10  2  0
 10 11  1  0
 10 12  1  0
 12 13  2  0
  6 14  1  0
 14 15  1  0
 15 16  1  0
 16 17  1  0
 17 18  1  0
  2 19  1  0
 19 20  1  0
 20 21  2  0
 21 22  1  0
 22 23  2  0
 23 24  1  0
 24 25  2  0
 25 26  1  0
 26 27  1  0
 27 28  2  0
 28 29  1  0
 29 30  2  0
 30 31  1  0
 31 32  2  0
 15  4  2  0
 32 19  1  0
 13  7  1  0
 18 14  1  0
 25 20  1  0
 32 27  1  0
  3 33  1  0
  3 34  1  0
  5 35  1  0
  8 36  1  0
  9 37  1  0
 12 38  1  0
 13 39  1  0
 16 40  1  0
 16 41  1  0
 17 42  1  0
 17 43  1  0
 18 44  1  0
 18 45  1  0
 21 46  1  0
 22 47  1  0
 23 48  1  0
 24 49  1  0
 28 50  1  0
 29 51  1  0
 30 52  1  0
 31 53  1  0
M  CHG  1   4   1
M  END
$$$$
