
     RDKit          3D

 61 67  0  0  0  0  0  0  0  0999 V2000
    2.9646    0.1367    2.9909 O   0  0  0  0  0  0  0  0  0  0  0  0
    3.0148   -0.0502    1.7776 C   0  0  0  0  0  0  0  0  0  0  0  0
    4.3084    0.1777    1.0953 C   0  0  0  0  0  0  0  0  0  0  0  0
    4.8884   -0.8363    0.3027 C   0  0  0  0  0  0  0  0  0  0  0  0
    6.1195   -0.6221   -0.3235 C   0  0  0  0  0  0  0  0  0  0  0  0
    6.7358    0.5955   -0.1228 C   0  0  0  0  0  0  0  0  0  0  0  0
    6.1772    1.5741    0.6685 C   0  0  0  0  0  0  0  0  0  0  0  0
    4.9664    1.3960    1.3009 C   0  0  0  0  0  0  0  0  0  0  0  0
    6.9528    2.6889    0.7374 O   0  0  0  0  0  0  0  0  0  0  0  0
    8.0684    2.2977   -0.0895 C   0  0  0  0  0  0  0  0  0  0  0  0
    7.9310    0.9743   -0.6488 O   0  0  0  0  0  0  0  0  0  0  0  0
    1.9159   -0.4677    1.0254 N   0  0  0  0  0  0  0  0  0  0  0  0
    1.8251   -0.3456   -0.4314 C   0  0  0  0  0  0  0  0  0  0  0  0
    0.4122    0.0306   -0.8673 C   0  0  0  0  0  0  0  0  0  0  0  0
   -0.6158   -1.0544   -0.4462 C   0  0  0  0  0  0  0  0  0  0  0  0
   -0.2375   -1.6780    0.9261 C   0  0  0  0  0  0  0  0  0  0  0  0
    0.6961   -0.7996    1.7491 C   0  0  0  0  0  0  0  0  0  0  0  0
   -0.4211   -2.0875   -1.4567 O   0  0  0  0  0  0  0  0  0  0  0  0
   -1.4241   -2.9886   -1.6517 C   0  0  0  0  0  0  0  0  0  0  0  0
   -1.0996   -4.1084   -2.4203 C   0  0  0  0  0  0  0  0  0  0  0  0
   -2.0572   -5.0965   -2.6558 C   0  0  0  0  0  0  0  0  0  0  0  0
   -3.3345   -4.9559   -2.1232 C   0  0  0  0  0  0  0  0  0  0  0  0
   -4.2490   -5.9078   -2.3471 F   0  0  0  0  0  0  0  0  0  0  0  0
   -3.6755   -3.8427   -1.3670 C   0  0  0  0  0  0  0  0  0  0  0  0
   -2.7126   -2.8544   -1.1452 C   0  0  0  0  0  0  0  0  0  0  0  0
   -3.0438   -1.6531   -0.3700 C   0  0  0  0  0  0  0  0  0  0  0  0
   -4.0552   -1.6412    0.3273 O   0  0  0  0  0  0  0  0  0  0  0  0
   -2.0645   -0.4892   -0.4845 C   0  0  0  0  0  0  0  0  0  0  0  0
   -2.3740    0.5847    0.5493 C   0  0  0  0  0  0  0  0  0  0  0  0
   -3.2123    1.4833   -0.2957 C   0  0  0  0  0  0  0  0  0  0  0  0
   -4.0209    2.5809    0.2854 C   0  0  0  0  0  0  0  0  0  0  0  0
   -4.8484    3.3326   -0.5585 C   0  0  0  0  0  0  0  0  0  0  0  0
   -5.6189    4.3762   -0.0424 C   0  0  0  0  0  0  0  0  0  0  0  0
   -5.5656    4.6749    1.3177 C   0  0  0  0  0  0  0  0  0  0  0  0
   -4.7422    3.9320    2.1628 C   0  0  0  0  0  0  0  0  0  0  0  0
   -3.9693    2.8864    1.6503 C   0  0  0  0  0  0  0  0  0  0  0  0
   -3.1454    1.2497   -1.5681 N   0  0  0  0  0  0  0  0  0  0  0  0
   -2.2974    0.1377   -1.7570 O   0  0  0  0  0  0  0  0  0  0  0  0
    4.3871   -1.7944    0.1887 H   0  0  0  0  0  0  0  0  0  0  0  0
    6.5819   -1.3872   -0.9371 H   0  0  0  0  0  0  0  0  0  0  0  0
    4.5433    2.1682    1.9339 H   0  0  0  0  0  0  0  0  0  0  0  0
    8.1648    3.0167   -0.9111 H   0  0  0  0  0  0  0  0  0  0  0  0
    8.9820    2.3299    0.5153 H   0  0  0  0  0  0  0  0  0  0  0  0
    2.5251    0.4152   -0.7902 H   0  0  0  0  0  0  0  0  0  0  0  0
    2.1200   -1.3089   -0.8624 H   0  0  0  0  0  0  0  0  0  0  0  0
    0.4067    0.1561   -1.9575 H   0  0  0  0  0  0  0  0  0  0  0  0
    0.1706    1.0062   -0.4329 H   0  0  0  0  0  0  0  0  0  0  0  0
    0.2581   -2.6459    0.7685 H   0  0  0  0  0  0  0  0  0  0  0  0
   -1.1313   -1.8968    1.5214 H   0  0  0  0  0  0  0  0  0  0  0  0
    0.2100    0.1410    2.0295 H   0  0  0  0  0  0  0  0  0  0  0  0
    0.9577   -1.3133    2.6817 H   0  0  0  0  0  0  0  0  0  0  0  0
   -0.0988   -4.2157   -2.8317 H   0  0  0  0  0  0  0  0  0  0  0  0
   -1.8158   -5.9734   -3.2489 H   0  0  0  0  0  0  0  0  0  0  0  0
   -4.6820   -3.7491   -0.9695 H   0  0  0  0  0  0  0  0  0  0  0  0
   -1.5001    1.1550    0.8711 H   0  0  0  0  0  0  0  0  0  0  0  0
   -2.9027    0.2176    1.4320 H   0  0  0  0  0  0  0  0  0  0  0  0
   -4.9011    3.1093   -1.6223 H   0  0  0  0  0  0  0  0  0  0  0  0
   -6.2608    4.9537   -0.7031 H   0  0  0  0  0  0  0  0  0  0  0  0
   -6.1669    5.4869    1.7192 H   0  0  0  0  0  0  0  0  0  0  0  0
   -4.7029    4.1676    3.2238 H   0  0  0  0  0  0  0  0  0  0  0  0
   -3.3371    2.3307    2.3356 H   0  0  0  0  0  0  0  0  0  0  0  0
  1  2  2  0
  2  3  1  0
  3  4  2  0
  4  5  1  0
  5  6  2  0
  6  7  1  0
  7  8  2  0
  7  9  1  0
  9 10  1  0
 10 11  1  0
  2 12  1  0
 12 13  1  0
 13 14  1  0
 14 15  1  0
 15 16  1  0
 16 17  1  0
 15 18  1  0
 18 19  1  0
 19 20  2  0
 20 21  1  0
 21 22  2  0
 22 23  1  0
 22 24  1  0
 24 25  2  0
 25 26  1  0
 26 27  2  0
 26 28  1  0
 28 29  1  0
 29 30  1  0
 30 31  1  0
 31 32  2  0
 32 33  1  0
 33 34  2  0
 34 35  1  0
 35 36  2  0
 30 37  2  0
 37 38  1  0
  8  3  1  0
 17 12  1  0
 25 19  1  0
 38 28  1  0
 11  6  1  0
 28 15  1  0
 36 31  1  0
  4 39  1  0
  5 40  1  0
  8 41  1  0
 10 42  1  0
 10 43  1  0
 13 44  1  0
 13 45  1  0
 14 46  1  0
 14 47  1  0
 16 48  1  0
 16 49  1  0
 17 50  1  0
 17 51  1  0
 20 52  1  0
 21 53  1  0
 24 54  1  0
 29 55  1  0
 29 56  1  0
 32 57  1  0
 33 58  1  0
 34 59  1  0
 35 60  1  0
 36 61  1  0
M  END
$$$$
