
     RDKit          3D

 26 27  0  0  0  0  0  0  0  0999 V2000
    0.9000    0.1165    2.5995 O   0  0  0  0  0  0  0  0  0  0  0  0
    1.4026    0.0250    1.4825 C   0  0  0  0  0  0  0  0  0  0  0  0
    2.8914   -0.2072    1.3149 C   0  0  0  0  0  0  0  0  0  0  0  0
    3.2856   -0.3614   -0.1504 C   0  0  0  0  0  0  0  0  0  0  0  0
    2.7907    0.8222   -0.9754 C   0  0  0  0  0  0  0  0  0  0  0  0
    1.3021    1.0527   -0.8042 C   0  0  0  0  0  0  0  0  0  0  0  0
    0.7226    1.9311   -1.4377 O   0  0  0  0  0  0  0  0  0  0  0  0
    0.6120    0.2246    0.2305 C   0  0  0  0  0  0  0  0  0  0  0  0
   -0.5659   -0.3944    0.0040 C   0  0  0  0  0  0  0  0  0  0  0  0
   -1.2903   -1.5043    1.1512 S   0  0  0  0  0  0  0  0  0  0  0  0
   -2.8910   -0.6770    1.3800 C   0  0  0  0  0  0  0  0  0  0  0  0
   -3.6737   -0.5347    0.0776 C   0  0  0  0  0  0  0  0  0  0  0  0
   -2.9933    0.3689   -0.9470 C   0  0  0  0  0  0  0  0  0  0  0  0
   -1.4082   -0.2992   -1.5303 S   0  0  0  0  0  0  0  0  0  0  0  0
    3.1640   -1.1135    1.8656 H   0  0  0  0  0  0  0  0  0  0  0  0
    3.4174    0.6465    1.7566 H   0  0  0  0  0  0  0  0  0  0  0  0
    4.3749   -0.4435   -0.2352 H   0  0  0  0  0  0  0  0  0  0  0  0
    2.8616   -1.2917   -0.5499 H   0  0  0  0  0  0  0  0  0  0  0  0
    3.3108    1.7364   -0.6685 H   0  0  0  0  0  0  0  0  0  0  0  0
    2.9925    0.6401   -2.0361 H   0  0  0  0  0  0  0  0  0  0  0  0
   -2.7254    0.3040    1.8392 H   0  0  0  0  0  0  0  0  0  0  0  0
   -3.4739   -1.2726    2.0902 H   0  0  0  0  0  0  0  0  0  0  0  0
   -4.6526   -0.0999    0.3160 H   0  0  0  0  0  0  0  0  0  0  0  0
   -3.8786   -1.5217   -0.3571 H   0  0  0  0  0  0  0  0  0  0  0  0
   -3.6457    0.4843   -1.8187 H   0  0  0  0  0  0  0  0  0  0  0  0
   -2.8295    1.3690   -0.5303 H   0  0  0  0  0  0  0  0  0  0  0  0
  1  2  2  0
  2  3  1  0
  3  4  1  0
  4  5  1  0
  5  6  1  0
  6  7  2  0
  6  8  1  0
  8  9  2  3
  9 10  1  0
 10 11  1  0
 11 12  1  0
 12 13  1  0
 13 14  1  0
  8  2  1  0
 14  9  1  0
  3 15  1  0
  3 16  1  0
  4 17  1  0
  4 18  1  0
  5 19  1  0
  5 20  1  0
 11 21  1  0
 11 22  1  0
 12 23  1  0
 12 24  1  0
 13 25  1  0
 13 26  1  0
M  END
$$$$
