
     RDKit          3D

 43 45  0  0  0  0  0  0  0  0999 V2000
    1.8098    0.8589    2.2002 O   0  0  0  0  0  0  0  0  0  0  0  0
    2.0442    0.5274    1.0403 C   0  0  0  0  0  0  0  0  0  0  0  0
    3.4761    0.5301    0.5168 C   0  0  0  0  0  0  0  0  0  0  0  0
    3.8236   -0.9566   -0.4903 S   0  0  0  0  0  0  0  0  0  0  0  0
    5.5981   -0.8285   -0.6524 C   0  0  0  0  0  0  0  0  0  0  0  0
    6.3728   -1.9583   -0.3623 C   0  0  0  0  0  0  0  0  0  0  0  0
    7.7655   -1.9152   -0.4840 C   0  0  0  0  0  0  0  0  0  0  0  0
    8.3970   -0.7455   -0.9054 C   0  0  0  0  0  0  0  0  0  0  0  0
    7.6353    0.3804   -1.2106 C   0  0  0  0  0  0  0  0  0  0  0  0
    6.2479    0.3318   -1.0874 C   0  0  0  0  0  0  0  0  0  0  0  0
    5.5461    1.4286   -1.4109 F   0  0  0  0  0  0  0  0  0  0  0  0
    1.1022    0.2075    0.0771 N   0  0  0  0  0  0  0  0  0  0  0  0
   -0.2988    0.1775    0.2087 C   0  0  0  0  0  0  0  0  0  0  0  0
   -1.0368   -0.2496   -0.8961 C   0  0  0  0  0  0  0  0  0  0  0  0
   -2.4359   -0.3010   -0.8428 C   0  0  0  0  0  0  0  0  0  0  0  0
   -3.1472    0.0775    0.3057 C   0  0  0  0  0  0  0  0  0  0  0  0
   -4.5481   -0.0048    0.3107 N   0  0  0  0  0  0  0  0  0  0  0  0
   -5.2439    0.0716    1.6141 C   0  0  0  0  0  0  0  0  0  0  0  0
   -6.7352   -0.2506    1.4289 C   0  0  0  0  0  0  0  0  0  0  0  0
   -7.3489    0.6388    0.4818 O   0  0  0  0  0  0  0  0  0  0  0  0
   -6.7007    0.5174   -0.7944 C   0  0  0  0  0  0  0  0  0  0  0  0
   -5.2020    0.8532   -0.7089 C   0  0  0  0  0  0  0  0  0  0  0  0
   -2.3878    0.4891    1.4081 C   0  0  0  0  0  0  0  0  0  0  0  0
   -0.9852    0.5459    1.3614 C   0  0  0  0  0  0  0  0  0  0  0  0
    3.6144    1.4404   -0.0727 H   0  0  0  0  0  0  0  0  0  0  0  0
    4.1558    0.5472    1.3749 H   0  0  0  0  0  0  0  0  0  0  0  0
    5.9003   -2.8823   -0.0348 H   0  0  0  0  0  0  0  0  0  0  0  0
    8.3564   -2.7984   -0.2510 H   0  0  0  0  0  0  0  0  0  0  0  0
    9.4797   -0.7142   -1.0009 H   0  0  0  0  0  0  0  0  0  0  0  0
    8.1111    1.2955   -1.5492 H   0  0  0  0  0  0  0  0  0  0  0  0
    1.4784   -0.1130   -0.8092 H   0  0  0  0  0  0  0  0  0  0  0  0
   -0.5428   -0.5598   -1.8127 H   0  0  0  0  0  0  0  0  0  0  0  0
   -2.9719   -0.6738   -1.7121 H   0  0  0  0  0  0  0  0  0  0  0  0
   -5.1494    1.0844    2.0258 H   0  0  0  0  0  0  0  0  0  0  0  0
   -4.8176   -0.6470    2.3237 H   0  0  0  0  0  0  0  0  0  0  0  0
   -7.2613   -0.1335    2.3815 H   0  0  0  0  0  0  0  0  0  0  0  0
   -6.8776   -1.2845    1.0922 H   0  0  0  0  0  0  0  0  0  0  0  0
   -6.8532   -0.4998   -1.1748 H   0  0  0  0  0  0  0  0  0  0  0  0
   -7.1961    1.2085   -1.4837 H   0  0  0  0  0  0  0  0  0  0  0  0
   -4.7655    0.7182   -1.7041 H   0  0  0  0  0  0  0  0  0  0  0  0
   -5.0807    1.9054   -0.4207 H   0  0  0  0  0  0  0  0  0  0  0  0
   -2.8626    0.7955    2.3351 H   0  0  0  0  0  0  0  0  0  0  0  0
   -0.4653    0.8857    2.2515 H   0  0  0  0  0  0  0  0  0  0  0  0
  1  2  2  0
  2  3  1  0
  3  4  1  0
  4  5  1  0
  5  6  2  0
  6  7  1  0
  7  8  2  0
  8  9  1  0
  9 10  2  0
 10 11  1  0
  2 12  1  0
 12 13  1  0
 13 14  2  0
 14 15  1  0
 15 16  2  0
 16 17  1  0
 17 18  1  0
 18 19  1  0
 19 20  1  0
 20 21  1  0
 21 22  1  0
 16 23  1  0
 23 24  2  0
 10  5  1  0
 24 13  1  0
 22 17  1  0
  3 25  1  0
  3 26  1  0
  6 27  1  0
  7 28  1  0
  8 29  1  0
  9 30  1  0
 12 31  1  0
 14 32  1  0
 15 33  1  0
 18 34  1  0
 18 35  1  0
 19 36  1  0
 19 37  1  0
 21 38  1  0
 21 39  1  0
 22 40  1  0
 22 41  1  0
 23 42  1  0
 24 43  1  0
M  END
$$$$
