
     RDKit          3D

 53 55  0  0  0  0  0  0  0  0999 V2000
    8.8190   -0.8488    2.1378 C   0  0  0  0  0  0  0  0  0  0  0  0
    8.3949   -0.1526    0.9723 O   0  0  0  0  0  0  0  0  0  0  0  0
    7.0879    0.2488    0.9321 C   0  0  0  0  0  0  0  0  0  0  0  0
    6.1046   -0.0651    1.8736 C   0  0  0  0  0  0  0  0  0  0  0  0
    4.8004    0.4133    1.7122 C   0  0  0  0  0  0  0  0  0  0  0  0
    4.4841    1.2010    0.6030 C   0  0  0  0  0  0  0  0  0  0  0  0
    2.8281    1.8078    0.4219 S   0  0  0  0  0  6  0  0  0  0  0  0
    2.4228    2.3620    1.6952 O   0  0  0  0  0  0  0  0  0  0  0  0
    2.7450    2.5844   -0.7971 O   0  0  0  0  0  0  0  0  0  0  0  0
    1.9425    0.3926    0.1723 N   0  0  0  0  0  0  0  0  0  0  0  0
    2.1971   -0.3585   -1.0743 C   0  0  0  0  0  0  0  0  0  0  0  0
    0.9033   -0.2252   -1.8433 C   0  0  0  0  0  0  0  0  0  0  0  0
   -0.0906   -0.1927   -0.8193 O   0  0  0  0  0  0  0  0  0  0  0  0
    0.4763    0.6062    0.2343 C   0  0  0  0  0  0  0  0  0  0  0  0
   -0.0819    0.1672    1.6043 C   0  0  0  0  0  0  0  0  0  0  0  0
   -1.5117    0.3909    1.7350 N   0  0  0  0  0  0  0  0  0  0  0  0
   -2.4348   -0.5597    1.3627 C   0  0  0  0  0  0  0  0  0  0  0  0
   -2.2089   -1.7275    1.0788 O   0  0  0  0  0  0  0  0  0  0  0  0
   -3.8830   -0.0236    1.3102 C   0  0  0  0  0  0  0  0  0  0  0  0
   -4.1078    1.1528    1.5564 O   0  0  0  0  0  0  0  0  0  0  0  0
   -4.8035   -0.9786    0.9526 N   0  0  0  0  0  0  0  0  0  0  0  0
   -6.1995   -0.6843    0.7361 C   0  0  0  0  0  0  0  0  0  0  0  0
   -6.6064   -0.6233   -0.7204 C   0  0  0  0  0  0  0  0  0  0  0  0
   -5.6613   -0.6535   -1.7635 C   0  0  0  0  0  0  0  0  0  0  0  0
   -6.0594   -0.5827   -3.1020 C   0  0  0  0  0  0  0  0  0  0  0  0
   -7.4077   -0.4742   -3.4263 C   0  0  0  0  0  0  0  0  0  0  0  0
   -8.3602   -0.4362   -2.4113 C   0  0  0  0  0  0  0  0  0  0  0  0
   -7.9645   -0.5070   -1.0710 C   0  0  0  0  0  0  0  0  0  0  0  0
   -9.2113   -0.4450    0.1276 Cl  0  0  0  0  0  0  0  0  0  0  0  0
    5.4583    1.5249   -0.3414 C   0  0  0  0  0  0  0  0  0  0  0  0
    6.7564    1.0408   -0.1732 C   0  0  0  0  0  0  0  0  0  0  0  0
    9.8929   -1.0382    2.0425 H   0  0  0  0  0  0  0  0  0  0  0  0
    8.3156   -1.8176    2.2211 H   0  0  0  0  0  0  0  0  0  0  0  0
    8.6663   -0.2438    3.0383 H   0  0  0  0  0  0  0  0  0  0  0  0
    6.3206   -0.6770    2.7444 H   0  0  0  0  0  0  0  0  0  0  0  0
    4.0405    0.1724    2.4529 H   0  0  0  0  0  0  0  0  0  0  0  0
    2.3789   -1.4027   -0.7971 H   0  0  0  0  0  0  0  0  0  0  0  0
    3.0543   -0.0076   -1.6527 H   0  0  0  0  0  0  0  0  0  0  0  0
    0.8578    0.7124   -2.4097 H   0  0  0  0  0  0  0  0  0  0  0  0
    0.7227   -1.0637   -2.5214 H   0  0  0  0  0  0  0  0  0  0  0  0
    0.2019    1.6477    0.0264 H   0  0  0  0  0  0  0  0  0  0  0  0
    0.3992    0.7249    2.4137 H   0  0  0  0  0  0  0  0  0  0  0  0
    0.1172   -0.8995    1.7620 H   0  0  0  0  0  0  0  0  0  0  0  0
   -1.8700    1.3344    1.8667 H   0  0  0  0  0  0  0  0  0  0  0  0
   -4.4417   -1.9048    0.7416 H   0  0  0  0  0  0  0  0  0  0  0  0
   -6.7463   -1.4946    1.2305 H   0  0  0  0  0  0  0  0  0  0  0  0
   -6.4490    0.2653    1.2228 H   0  0  0  0  0  0  0  0  0  0  0  0
   -4.5968   -0.7290   -1.5536 H   0  0  0  0  0  0  0  0  0  0  0  0
   -5.3115   -0.6082   -3.8912 H   0  0  0  0  0  0  0  0  0  0  0  0
   -7.7164   -0.4158   -4.4669 H   0  0  0  0  0  0  0  0  0  0  0  0
   -9.4126   -0.3474   -2.6700 H   0  0  0  0  0  0  0  0  0  0  0  0
    5.2249    2.1506   -1.1989 H   0  0  0  0  0  0  0  0  0  0  0  0
    7.5233    1.2881   -0.9044 H   0  0  0  0  0  0  0  0  0  0  0  0
  1  2  1  0
  2  3  1  0
  3  4  2  0
  4  5  1  0
  5  6  2  0
  6  7  1  0
  7  8  2  0
  7  9  2  0
  7 10  1  0
 10 11  1  0
 11 12  1  0
 12 13  1  0
 13 14  1  0
 14 15  1  0
 15 16  1  0
 16 17  1  0
 17 18  2  0
 17 19  1  0
 19 20  2  0
 19 21  1  0
 21 22  1  0
 22 23  1  0
 23 24  2  0
 24 25  1  0
 25 26  2  0
 26 27  1  0
 27 28  2  0
 28 29  1  0
  6 30  1  0
 30 31  2  0
 31  3  1  0
 14 10  1  0
 28 23  1  0
  1 32  1  0
  1 33  1  0
  1 34  1  0
  4 35  1  0
  5 36  1  0
 11 37  1  0
 11 38  1  0
 12 39  1  0
 12 40  1  0
 14 41  1  0
 15 42  1  0
 15 43  1  0
 16 44  1  0
 21 45  1  0
 22 46  1  0
 22 47  1  0
 24 48  1  0
 25 49  1  0
 26 50  1  0
 27 51  1  0
 30 52  1  0
 31 53  1  0
M  END
$$$$
