
     RDKit          3D

 49 51  0  0  0  0  0  0  0  0999 V2000
   -0.5727    5.8025    1.4945 C   0  0  0  0  0  0  0  0  0  0  0  0
    0.5604    5.4369    0.7200 O   0  0  0  0  0  0  0  0  0  0  0  0
    0.9541    4.1218    0.7452 C   0  0  0  0  0  0  0  0  0  0  0  0
    0.2706    3.1065    1.4262 C   0  0  0  0  0  0  0  0  0  0  0  0
    0.7410    1.7930    1.3906 C   0  0  0  0  0  0  0  0  0  0  0  0
    1.8924    1.4958    0.6616 C   0  0  0  0  0  0  0  0  0  0  0  0
    2.4947   -0.1718    0.6079 S   0  0  0  0  0  6  0  0  0  0  0  0
    1.8217   -0.9494    1.6260 O   0  0  0  0  0  0  0  0  0  0  0  0
    3.9401   -0.1098    0.5519 O   0  0  0  0  0  0  0  0  0  0  0  0
    1.9895   -0.6909   -0.9197 N   0  0  0  0  0  0  0  0  0  0  0  0
    0.6243   -1.0519   -1.0806 C   0  0  0  0  0  0  0  0  0  0  0  0
   -0.2636   -0.1186   -1.5997 C   0  0  0  0  0  0  0  0  0  0  0  0
   -1.5967   -0.4723   -1.7794 C   0  0  0  0  0  0  0  0  0  0  0  0
   -2.0460   -1.7523   -1.4158 C   0  0  0  0  0  0  0  0  0  0  0  0
   -1.1695   -2.6738   -0.8056 C   0  0  0  0  0  0  0  0  0  0  0  0
    0.1809   -2.3201   -0.6970 C   0  0  0  0  0  0  0  0  0  0  0  0
   -1.6667   -3.9470   -0.3773 N   0  0  0  0  0  0  0  0  0  0  0  0
   -1.1347   -4.7622    0.6279 C   0  0  0  0  0  0  0  0  0  0  0  0
   -0.1729   -4.1839    1.6376 C   0  0  0  0  0  0  0  0  0  0  0  0
   -1.4936   -5.9376    0.7661 O   0  0  0  0  0  0  0  0  0  0  0  0
   -2.9394   -4.4255   -0.9260 C   0  0  0  0  0  0  0  0  0  0  0  0
   -3.5262   -3.5922   -2.0527 C   0  0  0  0  0  0  0  0  0  0  0  0
   -3.4809   -2.1255   -1.6711 C   0  0  0  0  0  0  0  0  0  0  0  0
    2.5963    2.4980   -0.0129 C   0  0  0  0  0  0  0  0  0  0  0  0
    2.1295    3.8148    0.0244 C   0  0  0  0  0  0  0  0  0  0  0  0
    2.7370    4.8675   -0.6147 O   0  0  0  0  0  0  0  0  0  0  0  0
    4.0072    4.6348   -1.2074 C   0  0  0  0  0  0  0  0  0  0  0  0
   -1.4771    5.3059    1.1279 H   0  0  0  0  0  0  0  0  0  0  0  0
   -0.7190    6.8813    1.3846 H   0  0  0  0  0  0  0  0  0  0  0  0
   -0.4097    5.5959    2.5574 H   0  0  0  0  0  0  0  0  0  0  0  0
   -0.6325    3.3061    1.9938 H   0  0  0  0  0  0  0  0  0  0  0  0
    0.2016    1.0130    1.9243 H   0  0  0  0  0  0  0  0  0  0  0  0
    2.6923   -1.2868   -1.3568 H   0  0  0  0  0  0  0  0  0  0  0  0
    0.0772    0.8704   -1.8943 H   0  0  0  0  0  0  0  0  0  0  0  0
   -2.2831    0.2486   -2.2188 H   0  0  0  0  0  0  0  0  0  0  0  0
    0.9184   -3.0277   -0.3382 H   0  0  0  0  0  0  0  0  0  0  0  0
   -0.3475   -4.6766    2.6005 H   0  0  0  0  0  0  0  0  0  0  0  0
   -0.3409   -3.1180    1.8028 H   0  0  0  0  0  0  0  0  0  0  0  0
    0.8573   -4.3860    1.3373 H   0  0  0  0  0  0  0  0  0  0  0  0
   -2.8038   -5.4558   -1.2779 H   0  0  0  0  0  0  0  0  0  0  0  0
   -3.6524   -4.4688   -0.0916 H   0  0  0  0  0  0  0  0  0  0  0  0
   -2.9515   -3.7601   -2.9732 H   0  0  0  0  0  0  0  0  0  0  0  0
   -4.5564   -3.9056   -2.2544 H   0  0  0  0  0  0  0  0  0  0  0  0
   -4.0764   -1.9282   -0.7722 H   0  0  0  0  0  0  0  0  0  0  0  0
   -3.8975   -1.5290   -2.4909 H   0  0  0  0  0  0  0  0  0  0  0  0
    3.4928    2.2277   -0.5615 H   0  0  0  0  0  0  0  0  0  0  0  0
    3.9245    3.9450   -2.0535 H   0  0  0  0  0  0  0  0  0  0  0  0
    4.7305    4.2722   -0.4693 H   0  0  0  0  0  0  0  0  0  0  0  0
    4.3763    5.5900   -1.5929 H   0  0  0  0  0  0  0  0  0  0  0  0
  1  2  1  0
  2  3  1  0
  3  4  2  0
  4  5  1  0
  5  6  2  0
  6  7  1  0
  7  8  2  0
  7  9  2  0
  7 10  1  0
 10 11  1  0
 11 12  2  0
 12 13  1  0
 13 14  2  0
 14 15  1  0
 15 16  2  0
 15 17  1  0
 17 18  1  0
 18 19  1  0
 18 20  2  0
 17 21  1  0
 21 22  1  0
 22 23  1  0
  6 24  1  0
 24 25  2  0
 25 26  1  0
 26 27  1  0
 25  3  1  0
 16 11  1  0
 23 14  1  0
  1 28  1  0
  1 29  1  0
  1 30  1  0
  4 31  1  0
  5 32  1  0
 10 33  1  0
 12 34  1  0
 13 35  1  0
 16 36  1  0
 19 37  1  0
 19 38  1  0
 19 39  1  0
 21 40  1  0
 21 41  1  0
 22 42  1  0
 22 43  1  0
 23 44  1  0
 23 45  1  0
 24 46  1  0
 27 47  1  0
 27 48  1  0
 27 49  1  0
M  END
$$$$
