
     RDKit          3D

 35 35  0  0  0  0  0  0  0  0999 V2000
   -3.8243    1.0816   -0.3727 C   0  0  0  0  0  0  0  0  0  0  0  0
   -3.4314   -0.2282   -1.0693 C   0  0  0  0  0  0  0  0  0  0  0  0
   -3.6837   -1.4168   -0.1329 C   0  0  0  0  0  0  0  0  0  0  0  0
   -2.0962   -0.2606   -1.6883 N   0  0  0  0  0  0  0  0  0  0  0  0
   -1.8462    0.8430   -2.6118 C   0  0  0  0  0  0  0  0  0  0  0  0
   -0.9324   -0.5482   -0.8413 C   0  0  0  0  0  0  0  0  0  0  0  0
   -0.5775    0.4483    0.2718 C   0  0  0  0  0  0  0  0  0  0  0  0
    0.6937    0.1098    0.8577 O   0  0  0  0  0  0  0  0  0  0  0  0
    1.7760    0.6186    0.2223 C   0  0  0  0  0  0  0  0  0  0  0  0
    1.7864    1.2715   -0.8071 O   0  0  0  0  0  0  0  0  0  0  0  0
    2.9952    0.1595    0.9081 C   0  0  0  0  0  0  0  0  0  0  0  0
    3.9107   -0.5772    0.1420 C   0  0  0  0  0  0  0  0  0  0  0  0
    5.0868   -1.0521    0.7225 C   0  0  0  0  0  0  0  0  0  0  0  0
    5.3563   -0.7850    2.0637 C   0  0  0  0  0  0  0  0  0  0  0  0
    4.4564   -0.0342    2.8242 C   0  0  0  0  0  0  0  0  0  0  0  0
    3.2747    0.4464    2.2487 C   0  0  0  0  0  0  0  0  0  0  0  0
    2.1503    1.5236    3.3353 Br  0  0  0  0  0  0  0  0  0  0  0  0
   -3.1952    1.3034    0.4915 H   0  0  0  0  0  0  0  0  0  0  0  0
   -3.7790    1.9344   -1.0572 H   0  0  0  0  0  0  0  0  0  0  0  0
   -4.8583    1.0221   -0.0132 H   0  0  0  0  0  0  0  0  0  0  0  0
   -4.1447   -0.3555   -1.8958 H   0  0  0  0  0  0  0  0  0  0  0  0
   -4.7408   -1.4605    0.1526 H   0  0  0  0  0  0  0  0  0  0  0  0
   -3.4417   -2.3646   -0.6265 H   0  0  0  0  0  0  0  0  0  0  0  0
   -3.0975   -1.3461    0.7889 H   0  0  0  0  0  0  0  0  0  0  0  0
   -1.7032    1.7995   -2.0994 H   0  0  0  0  0  0  0  0  0  0  0  0
   -0.9522    0.6460   -3.2142 H   0  0  0  0  0  0  0  0  0  0  0  0
   -2.6752    0.9521   -3.3200 H   0  0  0  0  0  0  0  0  0  0  0  0
   -0.0581   -0.6764   -1.4939 H   0  0  0  0  0  0  0  0  0  0  0  0
   -1.0400   -1.5434   -0.3912 H   0  0  0  0  0  0  0  0  0  0  0  0
   -1.3074    0.3867    1.0834 H   0  0  0  0  0  0  0  0  0  0  0  0
   -0.5677    1.4857   -0.0808 H   0  0  0  0  0  0  0  0  0  0  0  0
    3.7059   -0.7824   -0.9072 H   0  0  0  0  0  0  0  0  0  0  0  0
    5.7935   -1.6272    0.1284 H   0  0  0  0  0  0  0  0  0  0  0  0
    6.2743   -1.1528    2.5169 H   0  0  0  0  0  0  0  0  0  0  0  0
    4.6924    0.1790    3.8646 H   0  0  0  0  0  0  0  0  0  0  0  0
  1  2  1  0
  2  3  1  0
  2  4  1  0
  4  5  1  0
  4  6  1  0
  6  7  1  0
  7  8  1  0
  8  9  1  0
  9 10  2  0
  9 11  1  0
 11 12  2  0
 12 13  1  0
 13 14  2  0
 14 15  1  0
 15 16  2  0
 16 17  1  0
 16 11  1  0
  1 18  1  0
  1 19  1  0
  1 20  1  0
  2 21  1  0
  3 22  1  0
  3 23  1  0
  3 24  1  0
  5 25  1  0
  5 26  1  0
  5 27  1  0
  6 28  1  0
  6 29  1  0
  7 30  1  0
  7 31  1  0
 12 32  1  0
 13 33  1  0
 14 34  1  0
 15 35  1  0
M  END
$$$$
