
     RDKit          3D

 40 41  0  0  0  0  0  0  0  0999 V2000
    4.8464    1.2038    3.1625 C   0  0  0  0  0  0  0  0  0  0  0  0
    5.8472   -0.2632    2.8177 S   0  0  0  0  0  0  0  0  0  0  0  0
    5.8630   -0.1993    0.9989 C   0  0  0  0  0  0  0  0  0  0  0  0
    4.5070   -0.4218    0.3759 C   0  0  0  0  0  0  0  0  0  0  0  0
    3.9032   -1.6876    0.4176 C   0  0  0  0  0  0  0  0  0  0  0  0
    2.6513   -1.8974   -0.1653 C   0  0  0  0  0  0  0  0  0  0  0  0
    1.9800   -0.8416   -0.7903 C   0  0  0  0  0  0  0  0  0  0  0  0
    0.6475   -1.1085   -1.3993 C   0  0  0  0  0  0  0  0  0  0  0  0
    0.3591   -2.2348   -1.7855 O   0  0  0  0  0  0  0  0  0  0  0  0
   -0.2227   -0.0353   -1.4550 N   0  0  0  0  0  0  0  0  0  0  0  0
   -1.6027   -0.2403   -1.8706 C   0  0  0  0  0  0  0  0  0  0  0  0
   -2.2656    1.0717   -2.2854 C   0  0  0  0  0  0  0  0  0  0  0  0
   -3.9879    0.8353   -2.8462 S   0  0  0  0  0  0  0  0  0  0  0  0
   -4.7746    0.4455   -1.2955 C   0  0  0  0  0  0  0  0  0  0  0  0
   -5.3118   -0.8307   -1.0987 C   0  0  0  0  0  0  0  0  0  0  0  0
   -5.9345   -1.1556    0.1093 C   0  0  0  0  0  0  0  0  0  0  0  0
   -6.0283   -0.1980    1.1170 C   0  0  0  0  0  0  0  0  0  0  0  0
   -6.8710   -0.6343    2.7515 Br  0  0  0  0  0  0  0  0  0  0  0  0
   -5.5095    1.0814    0.9264 C   0  0  0  0  0  0  0  0  0  0  0  0
   -4.8857    1.4032   -0.2820 C   0  0  0  0  0  0  0  0  0  0  0  0
    2.5816    0.4211   -0.8509 C   0  0  0  0  0  0  0  0  0  0  0  0
    3.8361    0.6283   -0.2686 C   0  0  0  0  0  0  0  0  0  0  0  0
    5.2692    2.0826    2.6687 H   0  0  0  0  0  0  0  0  0  0  0  0
    4.8403    1.3842    4.2409 H   0  0  0  0  0  0  0  0  0  0  0  0
    3.8139    1.0550    2.8371 H   0  0  0  0  0  0  0  0  0  0  0  0
    6.5490   -0.9735    0.6360 H   0  0  0  0  0  0  0  0  0  0  0  0
    6.2901    0.7589    0.6824 H   0  0  0  0  0  0  0  0  0  0  0  0
    4.4069   -2.5203    0.9060 H   0  0  0  0  0  0  0  0  0  0  0  0
    2.1995   -2.8871   -0.1281 H   0  0  0  0  0  0  0  0  0  0  0  0
   -0.0346    0.7348   -0.8267 H   0  0  0  0  0  0  0  0  0  0  0  0
   -2.1180   -0.6988   -1.0195 H   0  0  0  0  0  0  0  0  0  0  0  0
   -1.6159   -0.9581   -2.6992 H   0  0  0  0  0  0  0  0  0  0  0  0
   -2.2333    1.8008   -1.4685 H   0  0  0  0  0  0  0  0  0  0  0  0
   -1.7082    1.5134   -3.1191 H   0  0  0  0  0  0  0  0  0  0  0  0
   -5.2472   -1.5835   -1.8817 H   0  0  0  0  0  0  0  0  0  0  0  0
   -6.3427   -2.1531    0.2500 H   0  0  0  0  0  0  0  0  0  0  0  0
   -5.5909    1.8344    1.7058 H   0  0  0  0  0  0  0  0  0  0  0  0
   -4.5003    2.4094   -0.4268 H   0  0  0  0  0  0  0  0  0  0  0  0
    2.1025    1.2445   -1.3730 H   0  0  0  0  0  0  0  0  0  0  0  0
    4.2916    1.6147   -0.3311 H   0  0  0  0  0  0  0  0  0  0  0  0
  1  2  1  0
  2  3  1  0
  3  4  1  0
  4  5  2  0
  5  6  1  0
  6  7  2  0
  7  8  1  0
  8  9  2  0
  8 10  1  0
 10 11  1  0
 11 12  1  0
 12 13  1  0
 13 14  1  0
 14 15  2  0
 15 16  1  0
 16 17  2  0
 17 18  1  0
 17 19  1  0
 19 20  2  0
  7 21  1  0
 21 22  2  0
 22  4  1  0
 20 14  1  0
  1 23  1  0
  1 24  1  0
  1 25  1  0
  3 26  1  0
  3 27  1  0
  5 28  1  0
  6 29  1  0
 10 30  1  0
 11 31  1  0
 11 32  1  0
 12 33  1  0
 12 34  1  0
 15 35  1  0
 16 36  1  0
 19 37  1  0
 20 38  1  0
 21 39  1  0
 22 40  1  0
M  END
$$$$
