
     RDKit          3D

 52 56  0  0  0  0  0  0  0  0999 V2000
    5.6311    0.0182    1.5364 C   0  0  0  0  0  0  0  0  0  0  0  0
    4.2579   -0.4714    1.1316 C   0  0  0  0  0  0  0  0  0  0  0  0
    3.3085   -0.3627    2.0185 N   0  0  0  0  0  0  0  0  0  0  0  0
    2.0189   -0.6563    1.6579 N   0  0  0  0  0  0  0  0  0  0  0  0
    1.3308    0.0942    0.7024 C   0  0  0  0  0  0  0  0  0  0  0  0
    1.8431    0.8926   -0.0762 O   0  0  0  0  0  0  0  0  0  0  0  0
   -0.1054   -0.1772    0.7140 C   0  0  0  0  0  0  0  0  0  0  0  0
   -0.6655   -1.0866    1.5694 N   0  0  0  0  0  0  0  0  0  0  0  0
   -1.9676   -1.1077    1.3568 N   0  0  0  0  0  0  0  0  0  0  0  0
   -2.2684   -0.2707    0.3181 N   0  0  0  0  0  0  0  0  0  0  0  0
   -3.5804   -0.2262   -0.2185 C   0  0  0  0  0  0  0  0  0  0  0  0
   -3.8406    0.4014   -1.3652 N   0  0  0  0  0  0  0  0  0  0  0  0
   -5.2040    0.1943   -1.5658 O   0  0  0  0  0  0  0  0  0  0  0  0
   -5.7505   -0.5858   -0.5538 N   0  0  0  0  0  0  0  0  0  0  0  0
   -4.7443   -0.8418    0.2816 C   0  0  0  0  0  0  0  0  0  0  0  0
   -4.8602   -1.5717    1.4075 N   0  0  0  0  0  0  0  0  0  0  0  0
   -1.1058    0.4057   -0.0527 C   0  0  0  0  0  0  0  0  0  0  0  0
   -1.0227    1.5306   -1.0235 C   0  0  0  0  0  0  0  0  0  0  0  0
   -0.9283    3.1472   -0.1652 S   0  0  0  0  0  0  0  0  0  0  0  0
   -2.5260    3.1888    0.6202 C   0  0  0  0  0  0  0  0  0  0  0  0
   -2.6329    2.9090    1.9863 C   0  0  0  0  0  0  0  0  0  0  0  0
   -3.8838    2.8938    2.6051 C   0  0  0  0  0  0  0  0  0  0  0  0
   -5.0313    3.1697    1.8637 C   0  0  0  0  0  0  0  0  0  0  0  0
   -4.9280    3.4729    0.5069 C   0  0  0  0  0  0  0  0  0  0  0  0
   -3.6770    3.4879   -0.1130 C   0  0  0  0  0  0  0  0  0  0  0  0
    4.1451   -1.0756   -0.2214 C   0  0  0  0  0  0  0  0  0  0  0  0
    4.5970   -0.3552   -1.3466 C   0  0  0  0  0  0  0  0  0  0  0  0
    4.5141   -0.9182   -2.6234 C   0  0  0  0  0  0  0  0  0  0  0  0
    3.9835   -2.1863   -2.7307 C   0  0  0  0  0  0  0  0  0  0  0  0
    3.5439   -2.8872   -1.6303 C   0  0  0  0  0  0  0  0  0  0  0  0
    3.6134   -2.3639   -0.3578 C   0  0  0  0  0  0  0  0  0  0  0  0
    3.0554   -4.1136   -1.9579 O   0  0  0  0  0  0  0  0  0  0  0  0
    3.2447   -4.1084   -3.3889 C   0  0  0  0  0  0  0  0  0  0  0  0
    3.8281   -2.8860   -3.8861 O   0  0  0  0  0  0  0  0  0  0  0  0
    6.4041   -0.3085    0.8357 H   0  0  0  0  0  0  0  0  0  0  0  0
    5.6231    1.1110    1.5791 H   0  0  0  0  0  0  0  0  0  0  0  0
    5.8782   -0.3745    2.5275 H   0  0  0  0  0  0  0  0  0  0  0  0
    1.4399   -0.9909    2.4256 H   0  0  0  0  0  0  0  0  0  0  0  0
   -5.6917   -2.1380    1.5375 H   0  0  0  0  0  0  0  0  0  0  0  0
   -4.0334   -1.9246    1.8867 H   0  0  0  0  0  0  0  0  0  0  0  0
   -1.8336    1.5641   -1.7490 H   0  0  0  0  0  0  0  0  0  0  0  0
   -0.1116    1.4304   -1.6230 H   0  0  0  0  0  0  0  0  0  0  0  0
   -1.7446    2.6934    2.5766 H   0  0  0  0  0  0  0  0  0  0  0  0
   -3.9628    2.6675    3.6653 H   0  0  0  0  0  0  0  0  0  0  0  0
   -6.0066    3.1547    2.3437 H   0  0  0  0  0  0  0  0  0  0  0  0
   -5.8228    3.6925   -0.0705 H   0  0  0  0  0  0  0  0  0  0  0  0
   -3.6125    3.7226   -1.1721 H   0  0  0  0  0  0  0  0  0  0  0  0
    4.9884    0.6532   -1.2308 H   0  0  0  0  0  0  0  0  0  0  0  0
    4.8475   -0.3746   -3.5001 H   0  0  0  0  0  0  0  0  0  0  0  0
    3.2733   -2.9335    0.4993 H   0  0  0  0  0  0  0  0  0  0  0  0
    2.2718   -4.2539   -3.8724 H   0  0  0  0  0  0  0  0  0  0  0  0
    3.9001   -4.9446   -3.6584 H   0  0  0  0  0  0  0  0  0  0  0  0
  1  2  1  0
  2  3  2  3
  3  4  1  0
  4  5  1  0
  5  6  2  0
  5  7  1  0
  7  8  1  0
  8  9  2  0
  9 10  1  0
 10 11  1  0
 11 12  2  0
 12 13  1  0
 13 14  1  0
 14 15  2  0
 15 16  1  0
 10 17  1  0
 17 18  1  0
 18 19  1  0
 19 20  1  0
 20 21  2  0
 21 22  1  0
 22 23  2  0
 23 24  1  0
 24 25  2  0
  2 26  1  0
 26 27  2  0
 27 28  1  0
 28 29  2  0
 29 30  1  0
 30 31  2  0
 30 32  1  0
 32 33  1  0
 33 34  1  0
 17  7  2  0
 25 20  1  0
 31 26  1  0
 15 11  1  0
 34 29  1  0
  1 35  1  0
  1 36  1  0
  1 37  1  0
  4 38  1  0
 16 39  1  0
 16 40  1  0
 18 41  1  0
 18 42  1  0
 21 43  1  0
 22 44  1  0
 23 45  1  0
 24 46  1  0
 25 47  1  0
 27 48  1  0
 28 49  1  0
 31 50  1  0
 33 51  1  0
 33 52  1  0
M  END
$$$$
