
     RDKit          3D

 64 67  0  0  0  0  0  0  0  0999 V2000
    7.6270   -1.7584   -6.6938 C   0  0  0  0  0  0  0  0  0  0  0  0
    6.4415   -0.9872   -6.2818 C   0  0  0  0  0  0  0  0  0  0  0  0
    5.5457   -1.0861   -5.2449 C   0  0  0  0  0  0  0  0  0  0  0  0
    4.6459   -0.0168   -5.4489 C   0  0  0  0  0  0  0  0  0  0  0  0
    3.5557    0.3643   -4.6986 N   0  0  0  0  0  0  0  0  0  0  0  0
    3.1631   -0.2234   -3.5166 C   0  0  0  0  0  0  0  0  0  0  0  0
    3.7116   -1.1779   -2.9745 O   0  0  0  0  0  0  0  0  0  0  0  0
    1.9416    0.4527   -2.9268 C   0  0  0  0  0  0  0  0  0  0  0  0
    1.6050   -0.1010   -1.5443 C   0  0  0  0  0  0  0  0  0  0  0  0
    0.4444    0.6538   -0.9124 C   0  0  0  0  0  0  0  0  0  0  0  0
   -0.2208    1.4514   -1.5749 O   0  0  0  0  0  0  0  0  0  0  0  0
    0.2001    0.4351    0.4442 N   0  0  0  0  0  0  0  0  0  0  0  0
    0.8347   -0.6129    1.1612 C   0  0  0  0  0  0  0  0  0  0  0  0
    1.8431   -0.3071    2.0752 C   0  0  0  0  0  0  0  0  0  0  0  0
    2.4734   -1.3354    2.7720 C   0  0  0  0  0  0  0  0  0  0  0  0
    2.0712   -2.6387    2.5272 C   0  0  0  0  0  0  0  0  0  0  0  0
    1.1013   -2.9723    1.6490 N   0  0  0  0  0  0  0  0  0  0  0  0
    0.5071   -1.9542    0.9802 C   0  0  0  0  0  0  0  0  0  0  0  0
   -1.0182    1.0521    1.0177 C   0  0  0  0  0  0  0  0  0  0  0  0
   -2.3041    0.2320    0.6875 C   0  0  0  0  0  0  0  0  0  0  0  0
   -2.2913   -0.8491    0.0981 O   0  0  0  0  0  0  0  0  0  0  0  0
   -3.4891    0.8316    1.0963 N   0  0  0  0  0  0  0  0  0  0  0  0
   -4.7528    0.1352    0.9698 C   0  0  0  0  0  0  0  0  0  0  0  0
   -4.9619   -0.9002    2.0740 C   0  0  0  0  0  0  0  0  0  0  0  0
   -6.4729   -1.0469    2.1284 C   0  0  0  0  0  0  0  0  0  0  0  0
   -6.9688    0.3844    1.9849 C   0  0  0  0  0  0  0  0  0  0  0  0
   -5.9604    1.0760    1.0673 C   0  0  0  0  0  0  0  0  0  0  0  0
   -0.9043    1.4064    2.5023 C   0  0  0  0  0  0  0  0  0  0  0  0
   -1.2125    0.4785    3.5124 C   0  0  0  0  0  0  0  0  0  0  0  0
   -1.0981    0.8294    4.8580 C   0  0  0  0  0  0  0  0  0  0  0  0
   -0.6753    2.1071    5.2147 C   0  0  0  0  0  0  0  0  0  0  0  0
   -0.3567    3.0353    4.2257 C   0  0  0  0  0  0  0  0  0  0  0  0
   -0.4658    2.6874    2.8781 C   0  0  0  0  0  0  0  0  0  0  0  0
    4.9740    0.6819   -6.5445 N   0  0  0  0  0  0  0  0  0  0  0  0
    6.0976    0.0679   -7.0673 O   0  0  0  0  0  0  0  0  0  0  0  0
    7.7040   -2.6900   -6.1258 H   0  0  0  0  0  0  0  0  0  0  0  0
    7.5728   -2.0136   -7.7559 H   0  0  0  0  0  0  0  0  0  0  0  0
    8.5392   -1.1775   -6.5237 H   0  0  0  0  0  0  0  0  0  0  0  0
    5.5450   -1.8289   -4.4587 H   0  0  0  0  0  0  0  0  0  0  0  0
    3.0521    1.1538   -5.0773 H   0  0  0  0  0  0  0  0  0  0  0  0
    1.0973    0.3043   -3.6122 H   0  0  0  0  0  0  0  0  0  0  0  0
    2.1402    1.5300   -2.8593 H   0  0  0  0  0  0  0  0  0  0  0  0
    2.4858   -0.0158   -0.8983 H   0  0  0  0  0  0  0  0  0  0  0  0
    1.3323   -1.1576   -1.6330 H   0  0  0  0  0  0  0  0  0  0  0  0
    2.1417    0.7224    2.2494 H   0  0  0  0  0  0  0  0  0  0  0  0
    3.2595   -1.1242    3.4881 H   0  0  0  0  0  0  0  0  0  0  0  0
    2.5345   -3.4753    3.0437 H   0  0  0  0  0  0  0  0  0  0  0  0
   -0.2613   -2.2630    0.2779 H   0  0  0  0  0  0  0  0  0  0  0  0
   -1.1778    2.0032    0.4882 H   0  0  0  0  0  0  0  0  0  0  0  0
   -3.4226    1.5655    1.7912 H   0  0  0  0  0  0  0  0  0  0  0  0
   -4.7761   -0.3685   -0.0048 H   0  0  0  0  0  0  0  0  0  0  0  0
   -4.5806   -0.5389    3.0377 H   0  0  0  0  0  0  0  0  0  0  0  0
   -4.4586   -1.8490    1.8566 H   0  0  0  0  0  0  0  0  0  0  0  0
   -6.8114   -1.5134    3.0579 H   0  0  0  0  0  0  0  0  0  0  0  0
   -6.8263   -1.6593    1.2885 H   0  0  0  0  0  0  0  0  0  0  0  0
   -7.9896    0.4334    1.5927 H   0  0  0  0  0  0  0  0  0  0  0  0
   -6.9695    0.8769    2.9648 H   0  0  0  0  0  0  0  0  0  0  0  0
   -6.3904    1.2316    0.0708 H   0  0  0  0  0  0  0  0  0  0  0  0
   -5.6979    2.0618    1.4658 H   0  0  0  0  0  0  0  0  0  0  0  0
   -1.5295   -0.5330    3.2625 H   0  0  0  0  0  0  0  0  0  0  0  0
   -1.3349    0.0990    5.6286 H   0  0  0  0  0  0  0  0  0  0  0  0
   -0.5857    2.3770    6.2636 H   0  0  0  0  0  0  0  0  0  0  0  0
   -0.0196    4.0298    4.5062 H   0  0  0  0  0  0  0  0  0  0  0  0
   -0.2041    3.4241    2.1201 H   0  0  0  0  0  0  0  0  0  0  0  0
  1  2  1  0
  2  3  2  0
  3  4  1  0
  4  5  1  0
  5  6  1  0
  6  7  2  0
  6  8  1  0
  8  9  1  0
  9 10  1  0
 10 11  2  0
 10 12  1  0
 12 13  1  0
 13 14  2  0
 14 15  1  0
 15 16  2  0
 16 17  1  0
 17 18  2  0
 12 19  1  0
 19 20  1  0
 20 21  2  0
 20 22  1  0
 22 23  1  0
 23 24  1  0
 24 25  1  0
 25 26  1  0
 26 27  1  0
 19 28  1  0
 28 29  2  0
 29 30  1  0
 30 31  2  0
 31 32  1  0
 32 33  2  0
  4 34  2  0
 34 35  1  0
 35  2  1  0
 18 13  1  0
 27 23  1  0
 33 28  1  0
  1 36  1  0
  1 37  1  0
  1 38  1  0
  3 39  1  0
  5 40  1  0
  8 41  1  0
  8 42  1  0
  9 43  1  0
  9 44  1  0
 14 45  1  0
 15 46  1  0
 16 47  1  0
 18 48  1  0
 19 49  1  0
 22 50  1  0
 23 51  1  0
 24 52  1  0
 24 53  1  0
 25 54  1  0
 25 55  1  0
 26 56  1  0
 26 57  1  0
 27 58  1  0
 27 59  1  0
 29 60  1  0
 30 61  1  0
 31 62  1  0
 32 63  1  0
 33 64  1  0
M  END
$$$$
