
     RDKit          3D

 49 51  0  0  0  0  0  0  0  0999 V2000
    0.5891    1.2885   -2.9007 C   0  0  0  0  0  0  0  0  0  0  0  0
   -0.2721    0.5128   -1.9403 C   0  0  0  0  0  0  0  0  0  0  0  0
   -1.6442    0.3714   -2.1983 C   0  0  0  0  0  0  0  0  0  0  0  0
   -2.4445   -0.3531   -1.3142 C   0  0  0  0  0  0  0  0  0  0  0  0
   -4.1854   -0.5274   -1.6169 S   0  0  0  0  0  6  0  0  0  0  0  0
   -4.5178    0.1970   -2.8247 O   0  0  0  0  0  0  0  0  0  0  0  0
   -4.5015   -1.9326   -1.4753 O   0  0  0  0  0  0  0  0  0  0  0  0
   -4.8702    0.3079   -0.3005 N   0  0  0  0  0  0  0  0  0  0  0  0
   -4.6376    1.7866   -0.2369 C   0  0  0  0  0  0  0  0  0  0  0  0
   -5.6507    2.5685   -1.0839 C   0  0  0  0  0  0  0  0  0  0  0  0
   -6.9996    2.2319   -0.7315 O   0  0  0  0  0  0  0  0  0  0  0  0
   -7.2339    0.8295   -0.9284 C   0  0  0  0  0  0  0  0  0  0  0  0
   -6.3101   -0.0024   -0.0351 C   0  0  0  0  0  0  0  0  0  0  0  0
   -1.8915   -0.9606   -0.1860 C   0  0  0  0  0  0  0  0  0  0  0  0
   -0.5243   -0.8306    0.0690 C   0  0  0  0  0  0  0  0  0  0  0  0
    0.2904   -0.0952   -0.7998 C   0  0  0  0  0  0  0  0  0  0  0  0
    1.6365    0.0957   -0.6373 O   0  0  0  0  0  0  0  0  0  0  0  0
    2.2650   -0.5101    0.4810 C   0  0  0  0  0  0  0  0  0  0  0  0
    3.7594   -0.1630    0.5368 C   0  0  0  0  0  0  0  0  0  0  0  0
    4.3033    0.5658   -0.2863 O   0  0  0  0  0  0  0  0  0  0  0  0
    4.3864   -0.7649    1.6196 N   0  0  0  0  0  0  0  0  0  0  0  0
    5.7415   -0.6555    2.0018 C   0  0  0  0  0  0  0  0  0  0  0  0
    6.6969    0.1038    1.3266 C   0  0  0  0  0  0  0  0  0  0  0  0
    8.0174    0.1496    1.7929 C   0  0  0  0  0  0  0  0  0  0  0  0
    8.3838   -0.5631    2.9354 C   0  0  0  0  0  0  0  0  0  0  0  0
   10.1671   -0.4920    3.5558 Br  0  0  0  0  0  0  0  0  0  0  0  0
    7.4448   -1.3249    3.6206 C   0  0  0  0  0  0  0  0  0  0  0  0
    6.1375   -1.3621    3.1470 C   0  0  0  0  0  0  0  0  0  0  0  0
    5.2293   -2.0958    3.8107 F   0  0  0  0  0  0  0  0  0  0  0  0
   -0.0161    1.8016   -3.6560 H   0  0  0  0  0  0  0  0  0  0  0  0
    1.1622    2.0551   -2.3687 H   0  0  0  0  0  0  0  0  0  0  0  0
    1.2772    0.6128   -3.4189 H   0  0  0  0  0  0  0  0  0  0  0  0
   -2.0812    0.8257   -3.0856 H   0  0  0  0  0  0  0  0  0  0  0  0
   -4.7433    2.0771    0.8161 H   0  0  0  0  0  0  0  0  0  0  0  0
   -3.6150    2.0394   -0.5291 H   0  0  0  0  0  0  0  0  0  0  0  0
   -5.5239    3.6414   -0.9039 H   0  0  0  0  0  0  0  0  0  0  0  0
   -5.5104    2.4037   -2.1567 H   0  0  0  0  0  0  0  0  0  0  0  0
   -7.1092    0.5854   -1.9891 H   0  0  0  0  0  0  0  0  0  0  0  0
   -8.2772    0.6319   -0.6638 H   0  0  0  0  0  0  0  0  0  0  0  0
   -6.5101   -1.0716   -0.1548 H   0  0  0  0  0  0  0  0  0  0  0  0
   -6.5008    0.2377    1.0187 H   0  0  0  0  0  0  0  0  0  0  0  0
   -2.5196   -1.5348    0.4924 H   0  0  0  0  0  0  0  0  0  0  0  0
   -0.1295   -1.3181    0.9540 H   0  0  0  0  0  0  0  0  0  0  0  0
    2.1816   -1.6016    0.4103 H   0  0  0  0  0  0  0  0  0  0  0  0
    1.8146   -0.1455    1.4122 H   0  0  0  0  0  0  0  0  0  0  0  0
    3.8261   -1.3594    2.2229 H   0  0  0  0  0  0  0  0  0  0  0  0
    6.4523    0.6734    0.4346 H   0  0  0  0  0  0  0  0  0  0  0  0
    8.7488    0.7476    1.2536 H   0  0  0  0  0  0  0  0  0  0  0  0
    7.7083   -1.8869    4.5104 H   0  0  0  0  0  0  0  0  0  0  0  0
  1  2  1  0
  2  3  2  0
  3  4  1  0
  4  5  1  0
  5  6  2  0
  5  7  2  0
  5  8  1  0
  8  9  1  0
  9 10  1  0
 10 11  1  0
 11 12  1  0
 12 13  1  0
  4 14  2  0
 14 15  1  0
 15 16  2  0
 16 17  1  0
 17 18  1  0
 18 19  1  0
 19 20  2  0
 19 21  1  0
 21 22  1  0
 22 23  2  0
 23 24  1  0
 24 25  2  0
 25 26  1  0
 25 27  1  0
 27 28  2  0
 28 29  1  0
 16  2  1  0
 28 22  1  0
 13  8  1  0
  1 30  1  0
  1 31  1  0
  1 32  1  0
  3 33  1  0
  9 34  1  0
  9 35  1  0
 10 36  1  0
 10 37  1  0
 12 38  1  0
 12 39  1  0
 13 40  1  0
 13 41  1  0
 14 42  1  0
 15 43  1  0
 18 44  1  0
 18 45  1  0
 21 46  1  0
 23 47  1  0
 24 48  1  0
 27 49  1  0
M  END
$$$$
