
     RDKit          3D

 46 49  0  0  0  0  0  0  0  0999 V2000
   -6.0930    0.4849   -2.2264 C   0  0  0  0  0  0  0  0  0  0  0  0
   -4.8173    1.0420   -1.9289 O   0  0  0  0  0  0  0  0  0  0  0  0
   -3.9806    0.2938   -1.1506 C   0  0  0  0  0  0  0  0  0  0  0  0
   -4.2474   -0.9710   -0.6380 C   0  0  0  0  0  0  0  0  0  0  0  0
   -3.2989   -1.6223    0.1582 C   0  0  0  0  0  0  0  0  0  0  0  0
   -2.0645   -1.0234    0.4450 C   0  0  0  0  0  0  0  0  0  0  0  0
   -1.1118   -1.5959    1.2511 O   0  0  0  0  0  0  0  0  0  0  0  0
   -1.3912   -2.8674    1.8226 C   0  0  0  0  0  0  0  0  0  0  0  0
   -1.7660    0.2518   -0.0855 C   0  0  0  0  0  0  0  0  0  0  0  0
   -0.4851    0.9360    0.1534 C   0  0  0  0  0  0  0  0  0  0  0  0
   -0.5413    2.2603    0.4329 N   0  0  0  0  0  0  0  0  0  0  0  0
    0.6473    2.8840    0.6276 C   0  0  0  0  0  0  0  0  0  0  0  0
    0.6009    4.3402    0.9382 C   0  0  0  0  0  0  0  0  0  0  0  0
   -0.6504    4.8927    0.9980 N   0  0  0  0  0  0  0  0  0  0  0  0
    1.6118    5.0041    1.1301 O   0  0  0  0  0  0  0  0  0  0  0  0
    1.8347    2.2201    0.5418 C   0  0  0  0  0  0  0  0  0  0  0  0
    3.1519    2.6260    0.6841 N   0  0  0  0  0  0  0  0  0  0  0  0
    3.9860    1.5193    0.4749 C   0  0  0  0  0  0  0  0  0  0  0  0
    5.2027    1.5781    0.5459 O   0  0  0  0  0  0  0  0  0  0  0  0
    3.1287    0.4094    0.2014 N   0  0  0  0  0  0  0  0  0  0  0  0
    3.5201   -0.9299   -0.0697 C   0  0  0  0  0  0  0  0  0  0  0  0
    4.8735   -1.2432   -0.2955 C   0  0  0  0  0  0  0  0  0  0  0  0
    5.2935   -2.5543   -0.5560 C   0  0  0  0  0  0  0  0  0  0  0  0
    4.3614   -3.5769   -0.5955 C   0  0  0  0  0  0  0  0  0  0  0  0
    4.7598   -4.8324   -0.8383 F   0  0  0  0  0  0  0  0  0  0  0  0
    3.0196   -3.3105   -0.3791 C   0  0  0  0  0  0  0  0  0  0  0  0
    2.6048   -1.9979   -0.1171 C   0  0  0  0  0  0  0  0  0  0  0  0
    1.7908    0.8793    0.2466 C   0  0  0  0  0  0  0  0  0  0  0  0
    0.6517    0.2189    0.0264 N   0  0  0  0  0  0  0  0  0  0  0  0
   -2.7503    0.8920   -0.8718 C   0  0  0  0  0  0  0  0  0  0  0  0
   -6.6644    0.2967   -1.3117 H   0  0  0  0  0  0  0  0  0  0  0  0
   -5.9914   -0.4278   -2.8227 H   0  0  0  0  0  0  0  0  0  0  0  0
   -6.6498    1.2154   -2.8227 H   0  0  0  0  0  0  0  0  0  0  0  0
   -5.1854   -1.4812   -0.8315 H   0  0  0  0  0  0  0  0  0  0  0  0
   -3.5591   -2.6041    0.5417 H   0  0  0  0  0  0  0  0  0  0  0  0
   -2.2538   -2.8148    2.4950 H   0  0  0  0  0  0  0  0  0  0  0  0
   -0.5218   -3.1637    2.4189 H   0  0  0  0  0  0  0  0  0  0  0  0
   -1.5371   -3.6275    1.0469 H   0  0  0  0  0  0  0  0  0  0  0  0
   -0.7530    5.8699    1.2330 H   0  0  0  0  0  0  0  0  0  0  0  0
   -1.4730    4.3134    0.8677 H   0  0  0  0  0  0  0  0  0  0  0  0
    3.4643    3.5662    0.8991 H   0  0  0  0  0  0  0  0  0  0  0  0
    5.6447   -0.4778   -0.2887 H   0  0  0  0  0  0  0  0  0  0  0  0
    6.3433   -2.7725   -0.7261 H   0  0  0  0  0  0  0  0  0  0  0  0
    2.2984   -4.1203   -0.4083 H   0  0  0  0  0  0  0  0  0  0  0  0
    1.5462   -1.8594    0.0707 H   0  0  0  0  0  0  0  0  0  0  0  0
   -2.5492    1.8797   -1.2870 H   0  0  0  0  0  0  0  0  0  0  0  0
  1  2  1  0
  2  3  1  0
  3  4  2  0
  4  5  1  0
  5  6  2  0
  6  7  1  0
  7  8  1  0
  6  9  1  0
  9 10  1  0
 10 11  2  0
 11 12  1  0
 12 13  1  0
 13 14  1  0
 13 15  2  0
 12 16  2  0
 16 17  1  0
 17 18  1  0
 18 19  2  0
 18 20  1  0
 20 21  1  0
 21 22  2  0
 22 23  1  0
 23 24  2  0
 24 25  1  0
 24 26  1  0
 26 27  2  0
 20 28  1  0
 28 29  2  0
  9 30  2  0
 30  3  1  0
 29 10  1  0
 28 16  1  0
 27 21  1  0
  1 31  1  0
  1 32  1  0
  1 33  1  0
  4 34  1  0
  5 35  1  0
  8 36  1  0
  8 37  1  0
  8 38  1  0
 14 39  1  0
 14 40  1  0
 17 41  1  0
 22 42  1  0
 23 43  1  0
 26 44  1  0
 27 45  1  0
 30 46  1  0
M  END
$$$$
