
     RDKit          3D

 54 59  0  0  0  0  0  0  0  0999 V2000
    6.4747   -0.3786    2.7753 C   0  0  0  0  0  0  0  0  0  0  0  0
    5.5536   -0.4209    1.5924 C   0  0  0  0  0  0  0  0  0  0  0  0
    4.3509   -1.1311    1.6563 C   0  0  0  0  0  0  0  0  0  0  0  0
    3.5063   -1.1994    0.5453 C   0  0  0  0  0  0  0  0  0  0  0  0
    3.8472   -0.5573   -0.6533 C   0  0  0  0  0  0  0  0  0  0  0  0
    2.9446   -0.6370   -1.8670 C   0  0  0  0  0  0  0  0  0  0  0  0
    1.5857   -0.1546   -1.6146 N   0  0  0  0  0  0  0  0  0  0  0  0
    1.2604    1.2067   -1.6008 C   0  0  0  0  0  0  0  0  0  0  0  0
    2.3531    2.2204   -1.8561 C   0  0  0  0  0  0  0  0  0  0  0  0
    0.0662    1.6819   -1.3785 N   0  0  0  0  0  0  0  0  0  0  0  0
   -0.8752    0.7425   -1.1505 C   0  0  0  0  0  0  0  0  0  0  0  0
   -0.7015   -0.6217   -1.1415 C   0  0  0  0  0  0  0  0  0  0  0  0
    0.6119   -1.1504   -1.3929 C   0  0  0  0  0  0  0  0  0  0  0  0
    0.8510   -2.3541   -1.4090 O   0  0  0  0  0  0  0  0  0  0  0  0
   -1.9505   -1.2109   -0.8708 C   0  0  0  0  0  0  0  0  0  0  0  0
   -2.3299   -2.5076   -0.7604 N   0  0  0  0  0  0  0  0  0  0  0  0
   -3.6338   -2.6881   -0.4964 C   0  0  0  0  0  0  0  0  0  0  0  0
   -4.1028   -3.9887   -0.3636 C   0  0  0  0  0  0  0  0  0  0  0  0
   -5.4445   -4.2586   -0.0901 C   0  0  0  0  0  0  0  0  0  0  0  0
   -6.3376   -3.2064    0.0539 C   0  0  0  0  0  0  0  0  0  0  0  0
   -5.8809   -1.8941   -0.0773 C   0  0  0  0  0  0  0  0  0  0  0  0
   -4.5487   -1.6100   -0.3496 C   0  0  0  0  0  0  0  0  0  0  0  0
   -4.1830   -0.3217   -0.4630 N   0  0  0  0  0  0  0  0  0  0  0  0
   -2.8678   -0.1733   -0.7178 C   0  0  0  0  0  0  0  0  0  0  0  0
   -2.1925    1.0127   -0.8715 N   0  0  0  0  0  0  0  0  0  0  0  0
   -2.7936    2.3332   -0.7897 C   0  0  0  0  0  0  0  0  0  0  0  0
   -2.6844    2.8861    0.5844 C   0  0  0  0  0  0  0  0  0  0  0  0
   -1.6181    3.2217    1.3958 C   0  0  0  0  0  0  0  0  0  0  0  0
   -2.1705    3.7130    2.6024 C   0  0  0  0  0  0  0  0  0  0  0  0
   -3.5353    3.6558    2.4495 C   0  0  0  0  0  0  0  0  0  0  0  0
   -3.8572    3.1633    1.2263 O   0  0  0  0  0  0  0  0  0  0  0  0
    5.0705    0.1253   -0.7228 C   0  0  0  0  0  0  0  0  0  0  0  0
    5.9143    0.1932    0.3891 C   0  0  0  0  0  0  0  0  0  0  0  0
    7.0559    0.5495    2.7846 H   0  0  0  0  0  0  0  0  0  0  0  0
    5.9090   -0.4164    3.7123 H   0  0  0  0  0  0  0  0  0  0  0  0
    7.1643   -1.2278    2.7433 H   0  0  0  0  0  0  0  0  0  0  0  0
    4.0629   -1.6434    2.5721 H   0  0  0  0  0  0  0  0  0  0  0  0
    2.5845   -1.7728    0.6260 H   0  0  0  0  0  0  0  0  0  0  0  0
    3.3707   -0.0587   -2.6933 H   0  0  0  0  0  0  0  0  0  0  0  0
    2.9343   -1.6770   -2.2145 H   0  0  0  0  0  0  0  0  0  0  0  0
    1.9258    3.2272   -1.9075 H   0  0  0  0  0  0  0  0  0  0  0  0
    3.0756    2.2045   -1.0379 H   0  0  0  0  0  0  0  0  0  0  0  0
    2.8542    2.0220   -2.8059 H   0  0  0  0  0  0  0  0  0  0  0  0
   -3.4023   -4.8135   -0.4761 H   0  0  0  0  0  0  0  0  0  0  0  0
   -5.7839   -5.2865    0.0093 H   0  0  0  0  0  0  0  0  0  0  0  0
   -7.3857   -3.3997    0.2680 H   0  0  0  0  0  0  0  0  0  0  0  0
   -6.5811   -1.0697    0.0373 H   0  0  0  0  0  0  0  0  0  0  0  0
   -3.8385    2.2526   -1.1089 H   0  0  0  0  0  0  0  0  0  0  0  0
   -2.2848    2.9842   -1.5088 H   0  0  0  0  0  0  0  0  0  0  0  0
   -0.5715    3.1157    1.1434 H   0  0  0  0  0  0  0  0  0  0  0  0
   -1.6406    4.0647    3.4761 H   0  0  0  0  0  0  0  0  0  0  0  0
   -4.3722    3.9146    3.0830 H   0  0  0  0  0  0  0  0  0  0  0  0
    5.3818    0.6121   -1.6445 H   0  0  0  0  0  0  0  0  0  0  0  0
    6.8587    0.7272    0.3087 H   0  0  0  0  0  0  0  0  0  0  0  0
  1  2  1  0
  2  3  2  0
  3  4  1  0
  4  5  2  0
  5  6  1  0
  6  7  1  0
  7  8  1  0
  8  9  1  0
  8 10  2  0
 10 11  1  0
 11 12  2  0
 12 13  1  0
 13 14  2  0
 12 15  1  0
 15 16  2  0
 16 17  1  0
 17 18  2  0
 18 19  1  0
 19 20  2  0
 20 21  1  0
 21 22  2  0
 22 23  1  0
 23 24  2  0
 24 25  1  0
 25 26  1  0
 26 27  1  0
 27 28  2  0
 28 29  1  0
 29 30  2  0
 30 31  1  0
  5 32  1  0
 32 33  2  0
 33  2  1  0
 13  7  1  0
 24 15  1  0
 31 27  1  0
 25 11  1  0
 22 17  1  0
  1 34  1  0
  1 35  1  0
  1 36  1  0
  3 37  1  0
  4 38  1  0
  6 39  1  0
  6 40  1  0
  9 41  1  0
  9 42  1  0
  9 43  1  0
 18 44  1  0
 19 45  1  0
 20 46  1  0
 21 47  1  0
 26 48  1  0
 26 49  1  0
 28 50  1  0
 29 51  1  0
 30 52  1  0
 32 53  1  0
 33 54  1  0
M  END
$$$$
