
     RDKit          3D

 49 53  0  0  0  0  0  0  0  0999 V2000
   -1.0369    2.2709    2.7472 O   0  0  0  0  0  0  0  0  0  0  0  0
   -0.8723    1.4430    1.8479 C   0  0  0  0  0  0  0  0  0  0  0  0
   -2.0096    0.9280    1.1017 C   0  0  0  0  0  0  0  0  0  0  0  0
   -3.3582    0.9693    1.4110 C   0  0  0  0  0  0  0  0  0  0  0  0
   -4.0642    0.3736    0.3289 C   0  0  0  0  0  0  0  0  0  0  0  0
   -3.0869    0.0224   -0.5930 C   0  0  0  0  0  0  0  0  0  0  0  0
   -3.3420   -0.5905   -1.8158 C   0  0  0  0  0  0  0  0  0  0  0  0
   -4.6818   -0.8619   -2.1150 C   0  0  0  0  0  0  0  0  0  0  0  0
   -5.7191   -0.5315   -1.2269 C   0  0  0  0  0  0  0  0  0  0  0  0
   -7.0600   -0.8051   -1.5358 C   0  0  0  0  0  0  0  0  0  0  0  0
   -8.0833   -0.4703   -0.6444 C   0  0  0  0  0  0  0  0  0  0  0  0
   -7.7850    0.1421    0.5716 C   0  0  0  0  0  0  0  0  0  0  0  0
   -6.4610    0.4268    0.9041 C   0  0  0  0  0  0  0  0  0  0  0  0
   -5.4213    0.0943    0.0126 C   0  0  0  0  0  0  0  0  0  0  0  0
   -1.8525    0.3639   -0.1361 O   0  0  0  0  0  0  0  0  0  0  0  0
    0.4151    0.9997    1.5394 N   0  0  0  0  0  0  0  0  0  0  0  0
    0.7419   -0.1625    0.7031 C   0  0  0  0  0  0  0  0  0  0  0  0
    2.0668   -0.8514    1.0948 C   0  0  0  0  0  0  0  0  0  0  0  0
    3.1977    0.0912    1.2308 N   0  0  0  0  0  0  0  0  0  0  0  0
    4.3229   -0.1923    0.4474 C   0  0  0  0  0  0  0  0  0  0  0  0
    4.7166    0.7466   -0.4509 N   0  0  0  0  0  0  0  0  0  0  0  0
    5.7985    0.5073   -1.2297 C   0  0  0  0  0  0  0  0  0  0  0  0
    6.5593   -0.6449   -1.1645 C   0  0  0  0  0  0  0  0  0  0  0  0
    7.7305   -0.8423   -2.0735 C   0  0  0  0  0  0  0  0  0  0  0  0
    8.7629   -1.4942   -1.4694 F   0  0  0  0  0  0  0  0  0  0  0  0
    7.4113   -1.5809   -3.1711 F   0  0  0  0  0  0  0  0  0  0  0  0
    8.2515    0.3248   -2.5442 F   0  0  0  0  0  0  0  0  0  0  0  0
    6.1696   -1.6112   -0.2370 C   0  0  0  0  0  0  0  0  0  0  0  0
    5.0563   -1.3876    0.5795 C   0  0  0  0  0  0  0  0  0  0  0  0
    4.6970   -2.5976    1.7638 Cl  0  0  0  0  0  0  0  0  0  0  0  0
    2.8363    1.5189    1.3126 C   0  0  0  0  0  0  0  0  0  0  0  0
    1.5547    1.6989    2.1400 C   0  0  0  0  0  0  0  0  0  0  0  0
   -3.7716    1.3881    2.3182 H   0  0  0  0  0  0  0  0  0  0  0  0
   -2.5405   -0.8417   -2.4994 H   0  0  0  0  0  0  0  0  0  0  0  0
   -4.9121   -1.3402   -3.0656 H   0  0  0  0  0  0  0  0  0  0  0  0
   -7.3221   -1.2818   -2.4780 H   0  0  0  0  0  0  0  0  0  0  0  0
   -9.1167   -0.6897   -0.9008 H   0  0  0  0  0  0  0  0  0  0  0  0
   -8.5848    0.3976    1.2623 H   0  0  0  0  0  0  0  0  0  0  0  0
   -6.2477    0.9061    1.8557 H   0  0  0  0  0  0  0  0  0  0  0  0
    0.8060    0.1979   -0.3302 H   0  0  0  0  0  0  0  0  0  0  0  0
   -0.0590   -0.9050    0.7653 H   0  0  0  0  0  0  0  0  0  0  0  0
    2.2647   -1.6398    0.3579 H   0  0  0  0  0  0  0  0  0  0  0  0
    1.9265   -1.3386    2.0676 H   0  0  0  0  0  0  0  0  0  0  0  0
    6.0358    1.3081   -1.9283 H   0  0  0  0  0  0  0  0  0  0  0  0
    6.7414   -2.5322   -0.1375 H   0  0  0  0  0  0  0  0  0  0  0  0
    2.6649    1.9396    0.3130 H   0  0  0  0  0  0  0  0  0  0  0  0
    3.6496    2.0793    1.7891 H   0  0  0  0  0  0  0  0  0  0  0  0
    1.6887    1.2900    3.1490 H   0  0  0  0  0  0  0  0  0  0  0  0
    1.3221    2.7650    2.2375 H   0  0  0  0  0  0  0  0  0  0  0  0
  1  2  2  0
  2  3  1  0
  3  4  2  0
  4  5  1  0
  5  6  2  0
  6  7  1  0
  7  8  2  0
  8  9  1  0
  9 10  2  0
 10 11  1  0
 11 12  2  0
 12 13  1  0
 13 14  2  0
  6 15  1  0
  2 16  1  0
 16 17  1  0
 17 18  1  0
 18 19  1  0
 19 20  1  0
 20 21  2  0
 21 22  1  0
 22 23  2  0
 23 24  1  0
 24 25  1  0
 24 26  1  0
 24 27  1  0
 23 28  1  0
 28 29  2  0
 29 30  1  0
 19 31  1  0
 31 32  1  0
 15  3  1  0
 32 16  1  0
 14  5  1  0
 29 20  1  0
 14  9  1  0
  4 33  1  0
  7 34  1  0
  8 35  1  0
 10 36  1  0
 11 37  1  0
 12 38  1  0
 13 39  1  0
 17 40  1  0
 17 41  1  0
 18 42  1  0
 18 43  1  0
 22 44  1  0
 28 45  1  0
 31 46  1  0
 31 47  1  0
 32 48  1  0
 32 49  1  0
M  END
$$$$
