
     RDKit          3D

 58 62  0  0  0  0  0  0  0  0999 V2000
    7.6773   -2.8615    2.5140 C   0  0  0  0  0  0  0  0  0  0  0  0
    7.4426   -1.8719    1.5199 O   0  0  0  0  0  0  0  0  0  0  0  0
    6.1576   -1.4216    1.3864 C   0  0  0  0  0  0  0  0  0  0  0  0
    5.0577   -1.8513    2.1313 C   0  0  0  0  0  0  0  0  0  0  0  0
    3.7897   -1.3056    1.8941 C   0  0  0  0  0  0  0  0  0  0  0  0
    3.6010   -0.3284    0.9165 C   0  0  0  0  0  0  0  0  0  0  0  0
    2.3034    0.1749    0.7153 N   0  0  0  0  0  0  0  0  0  0  0  0
    2.0656    1.0825   -0.2004 C   0  0  0  0  0  0  0  0  0  0  0  0
    0.7503    1.5163   -0.3886 N   0  0  0  0  0  0  0  0  0  0  0  0
   -0.2598    1.1704    0.6290 C   0  0  0  0  0  0  0  0  0  0  0  0
   -1.0613   -0.0836    0.2181 C   0  0  0  0  0  0  0  0  0  0  0  0
   -1.6252   -0.0293   -1.1471 N   0  0  0  0  0  0  0  0  0  0  0  0
   -3.0293   -0.4369   -1.2332 C   0  0  0  0  0  0  0  0  0  0  0  0
   -4.0599    0.5490   -0.6498 C   0  0  0  0  0  0  0  0  0  0  0  0
   -5.4659   -0.0201   -0.6789 C   0  0  0  0  0  0  0  0  0  0  0  0
   -6.1916    0.0644   -1.8814 C   0  0  0  0  0  0  0  0  0  0  0  0
   -7.4825   -0.4522   -1.9783 C   0  0  0  0  0  0  0  0  0  0  0  0
   -8.0698   -1.0638   -0.8773 C   0  0  0  0  0  0  0  0  0  0  0  0
   -7.3650   -1.1599    0.3221 C   0  0  0  0  0  0  0  0  0  0  0  0
   -6.0583   -0.6473    0.4419 C   0  0  0  0  0  0  0  0  0  0  0  0
   -5.3418   -0.7721    1.7697 C   0  0  0  0  0  0  0  0  0  0  0  0
   -6.0229   -1.5093    2.6929 F   0  0  0  0  0  0  0  0  0  0  0  0
   -4.1208   -1.3658    1.6588 F   0  0  0  0  0  0  0  0  0  0  0  0
   -5.1182    0.4360    2.3589 F   0  0  0  0  0  0  0  0  0  0  0  0
   -1.2981    1.2206   -1.8421 C   0  0  0  0  0  0  0  0  0  0  0  0
    0.2115    1.5558   -1.7669 C   0  0  0  0  0  0  0  0  0  0  0  0
    3.1938    1.5950   -0.9694 C   0  0  0  0  0  0  0  0  0  0  0  0
    3.2949    2.6100   -1.9053 C   0  0  0  0  0  0  0  0  0  0  0  0
    4.6403    2.6710   -2.3372 C   0  0  0  0  0  0  0  0  0  0  0  0
    5.3368    1.7129   -1.6347 C   0  0  0  0  0  0  0  0  0  0  0  0
    4.4611    1.0847   -0.7813 N   0  0  0  0  0  0  0  0  0  0  0  0
    4.7115    0.0910    0.1776 C   0  0  0  0  0  0  0  0  0  0  0  0
    5.9833   -0.4439    0.4030 C   0  0  0  0  0  0  0  0  0  0  0  0
    7.4399   -2.4818    3.5132 H   0  0  0  0  0  0  0  0  0  0  0  0
    7.1209   -3.7792    2.2963 H   0  0  0  0  0  0  0  0  0  0  0  0
    8.7435   -3.1067    2.4961 H   0  0  0  0  0  0  0  0  0  0  0  0
    5.1466   -2.6084    2.9030 H   0  0  0  0  0  0  0  0  0  0  0  0
    2.9366   -1.6461    2.4753 H   0  0  0  0  0  0  0  0  0  0  0  0
    0.1875    1.0264    1.6196 H   0  0  0  0  0  0  0  0  0  0  0  0
   -0.9426    2.0224    0.7419 H   0  0  0  0  0  0  0  0  0  0  0  0
   -1.8382   -0.2507    0.9726 H   0  0  0  0  0  0  0  0  0  0  0  0
   -0.4006   -0.9578    0.2592 H   0  0  0  0  0  0  0  0  0  0  0  0
   -3.2675   -0.6175   -2.2899 H   0  0  0  0  0  0  0  0  0  0  0  0
   -3.1388   -1.4179   -0.7519 H   0  0  0  0  0  0  0  0  0  0  0  0
   -4.0586    1.4830   -1.2259 H   0  0  0  0  0  0  0  0  0  0  0  0
   -3.7901    0.8414    0.3694 H   0  0  0  0  0  0  0  0  0  0  0  0
   -5.7499    0.5381   -2.7567 H   0  0  0  0  0  0  0  0  0  0  0  0
   -8.0295   -0.3764   -2.9146 H   0  0  0  0  0  0  0  0  0  0  0  0
   -9.0770   -1.4667   -0.9510 H   0  0  0  0  0  0  0  0  0  0  0  0
   -7.8450   -1.6429    1.1729 H   0  0  0  0  0  0  0  0  0  0  0  0
   -1.5805    1.1426   -2.8987 H   0  0  0  0  0  0  0  0  0  0  0  0
   -1.8629    2.0615   -1.4211 H   0  0  0  0  0  0  0  0  0  0  0  0
    0.3594    2.5575   -2.1825 H   0  0  0  0  0  0  0  0  0  0  0  0
    0.7537    0.8412   -2.3994 H   0  0  0  0  0  0  0  0  0  0  0  0
    2.4913    3.2485   -2.2423 H   0  0  0  0  0  0  0  0  0  0  0  0
    5.0597    3.3474   -3.0708 H   0  0  0  0  0  0  0  0  0  0  0  0
    6.3846    1.4521   -1.6696 H   0  0  0  0  0  0  0  0  0  0  0  0
    6.8492   -0.1202   -0.1651 H   0  0  0  0  0  0  0  0  0  0  0  0
  1  2  1  0
  2  3  1  0
  3  4  2  0
  4  5  1  0
  5  6  2  0
  6  7  1  0
  7  8  2  0
  8  9  1  0
  9 10  1  0
 10 11  1  0
 11 12  1  0
 12 13  1  0
 13 14  1  0
 14 15  1  0
 15 16  2  0
 16 17  1  0
 17 18  2  0
 18 19  1  0
 19 20  2  0
 20 21  1  0
 21 22  1  0
 21 23  1  0
 21 24  1  0
 12 25  1  0
 25 26  1  0
  8 27  1  0
 27 28  2  0
 28 29  1  0
 29 30  2  0
 30 31  1  0
 31 32  1  0
 32 33  2  0
 33  3  1  0
 32  6  1  0
 26  9  1  0
 31 27  1  0
 20 15  1  0
  1 34  1  0
  1 35  1  0
  1 36  1  0
  4 37  1  0
  5 38  1  0
 10 39  1  0
 10 40  1  0
 11 41  1  0
 11 42  1  0
 13 43  1  0
 13 44  1  0
 14 45  1  0
 14 46  1  0
 16 47  1  0
 17 48  1  0
 18 49  1  0
 19 50  1  0
 25 51  1  0
 25 52  1  0
 26 53  1  0
 26 54  1  0
 28 55  1  0
 29 56  1  0
 30 57  1  0
 33 58  1  0
M  END
$$$$
