
     RDKit          3D

 30 31  0  0  0  0  0  0  0  0999 V2000
    4.0729   -0.5054   -2.1516 C   0  0  0  0  0  0  0  0  0  0  0  0
    3.6698   -1.1794   -0.9659 O   0  0  0  0  0  0  0  0  0  0  0  0
    2.3288   -1.2195   -0.7030 C   0  0  0  0  0  0  0  0  0  0  0  0
    1.3238   -0.6294   -1.4682 C   0  0  0  0  0  0  0  0  0  0  0  0
   -0.0164   -0.7463   -1.0802 C   0  0  0  0  0  0  0  0  0  0  0  0
   -0.3688   -1.4488    0.0813 C   0  0  0  0  0  0  0  0  0  0  0  0
   -1.7822   -1.5697    0.4929 C   0  0  0  0  0  0  0  0  0  0  0  0
   -2.3558   -2.8800    0.5547 C   0  0  0  0  0  0  0  0  0  0  0  0
   -2.8247   -3.9395    0.6233 N   0  0  0  0  0  0  0  0  0  0  0  0
   -2.5598   -0.5108    0.7993 C   0  0  0  0  0  0  0  0  0  0  0  0
   -2.1890    0.9060    0.8201 C   0  0  0  0  0  0  0  0  0  0  0  0
   -1.0956    1.3905    1.5308 C   0  0  0  0  0  0  0  0  0  0  0  0
   -0.8426    2.7600    1.5176 C   0  0  0  0  0  0  0  0  0  0  0  0
   -1.6925    3.6022    0.8120 C   0  0  0  0  0  0  0  0  0  0  0  0
   -2.7687    3.0370    0.1499 C   0  0  0  0  0  0  0  0  0  0  0  0
   -3.0378    1.7126    0.1443 N   0  0  0  0  0  0  0  0  0  0  0  0
    0.6446   -2.0466    0.8405 C   0  0  0  0  0  0  0  0  0  0  0  0
    1.9812   -1.9275    0.4496 C   0  0  0  0  0  0  0  0  0  0  0  0
    5.1623   -0.5788   -2.2238 H   0  0  0  0  0  0  0  0  0  0  0  0
    3.8130    0.5574   -2.1084 H   0  0  0  0  0  0  0  0  0  0  0  0
    3.6473   -0.9815   -3.0412 H   0  0  0  0  0  0  0  0  0  0  0  0
    1.5444   -0.0714   -2.3721 H   0  0  0  0  0  0  0  0  0  0  0  0
   -0.7840   -0.2790   -1.6959 H   0  0  0  0  0  0  0  0  0  0  0  0
   -3.6115   -0.6667    1.0381 H   0  0  0  0  0  0  0  0  0  0  0  0
   -0.4467    0.7264    2.0917 H   0  0  0  0  0  0  0  0  0  0  0  0
    0.0087    3.1643    2.0580 H   0  0  0  0  0  0  0  0  0  0  0  0
   -1.5246    4.6730    0.7836 H   0  0  0  0  0  0  0  0  0  0  0  0
   -3.4671    3.6527   -0.4100 H   0  0  0  0  0  0  0  0  0  0  0  0
    0.4106   -2.6071    1.7434 H   0  0  0  0  0  0  0  0  0  0  0  0
    2.7603   -2.3947    1.0479 H   0  0  0  0  0  0  0  0  0  0  0  0
  1  2  1  0
  2  3  1  0
  3  4  2  0
  4  5  1  0
  5  6  2  0
  6  7  1  0
  7  8  1  0
  8  9  3  0
  7 10  2  3
 10 11  1  0
 11 12  2  0
 12 13  1  0
 13 14  2  0
 14 15  1  0
 15 16  2  0
  6 17  1  0
 17 18  2  0
 18  3  1  0
 16 11  1  0
  1 19  1  0
  1 20  1  0
  1 21  1  0
  4 22  1  0
  5 23  1  0
 10 24  1  0
 12 25  1  0
 13 26  1  0
 14 27  1  0
 15 28  1  0
 17 29  1  0
 18 30  1  0
M  END
$$$$
