
     RDKit          3D

 39 41  0  0  0  0  0  0  0  0999 V2000
    4.0965   -1.4194   -1.6535 C   0  0  0  0  0  0  0  0  0  0  0  0
    3.5326   -1.3012   -0.3075 N   0  0  0  0  0  0  0  0  0  0  0  0
    4.6127   -1.1282    0.6676 C   0  0  0  0  0  0  0  0  0  0  0  0
    2.5744   -0.1855   -0.2028 C   0  0  0  0  0  0  0  0  0  0  0  0
    1.2886   -0.4070   -1.0193 C   0  0  0  0  0  0  0  0  0  0  0  0
    0.2683    0.6708   -0.7436 C   0  0  0  0  0  0  0  0  0  0  0  0
   -0.9386    0.5768   -0.1388 C   0  0  0  0  0  0  0  0  0  0  0  0
   -1.8201    1.7788   -0.1830 C   0  0  0  0  0  0  0  0  0  0  0  0
   -1.3503    3.0604    0.1477 C   0  0  0  0  0  0  0  0  0  0  0  0
   -2.2038    4.1643    0.0979 C   0  0  0  0  0  0  0  0  0  0  0  0
   -3.5360    3.9999   -0.2734 C   0  0  0  0  0  0  0  0  0  0  0  0
   -4.0218    2.7292   -0.5839 C   0  0  0  0  0  0  0  0  0  0  0  0
   -3.1756    1.6141   -0.5292 C   0  0  0  0  0  0  0  0  0  0  0  0
   -3.8665    0.0038   -0.9126 S   0  0  0  0  0  0  0  0  0  0  0  0
   -2.8117   -1.0548    0.0785 C   0  0  0  0  0  0  0  0  0  0  0  0
   -3.3524   -2.2523    0.5665 C   0  0  0  0  0  0  0  0  0  0  0  0
   -2.5931   -3.0833    1.3912 C   0  0  0  0  0  0  0  0  0  0  0  0
   -1.2976   -2.7113    1.7386 C   0  0  0  0  0  0  0  0  0  0  0  0
   -0.3737   -3.7186    2.7842 Cl  0  0  0  0  0  0  0  0  0  0  0  0
   -0.7449   -1.5265    1.2532 C   0  0  0  0  0  0  0  0  0  0  0  0
   -1.4822   -0.7028    0.3892 C   0  0  0  0  0  0  0  0  0  0  0  0
    4.8267   -2.2360   -1.6940 H   0  0  0  0  0  0  0  0  0  0  0  0
    3.3240   -1.6712   -2.3865 H   0  0  0  0  0  0  0  0  0  0  0  0
    4.5959   -0.4981   -1.9746 H   0  0  0  0  0  0  0  0  0  0  0  0
    4.2115   -1.0998    1.6870 H   0  0  0  0  0  0  0  0  0  0  0  0
    5.1824   -0.2080    0.4941 H   0  0  0  0  0  0  0  0  0  0  0  0
    5.3056   -1.9763    0.6306 H   0  0  0  0  0  0  0  0  0  0  0  0
    2.2858   -0.0714    0.8506 H   0  0  0  0  0  0  0  0  0  0  0  0
    3.0475    0.7602   -0.5008 H   0  0  0  0  0  0  0  0  0  0  0  0
    1.5149   -0.3686   -2.0918 H   0  0  0  0  0  0  0  0  0  0  0  0
    0.8889   -1.4086   -0.8364 H   0  0  0  0  0  0  0  0  0  0  0  0
    0.5614    1.6287   -1.1750 H   0  0  0  0  0  0  0  0  0  0  0  0
   -0.3183    3.2079    0.4563 H   0  0  0  0  0  0  0  0  0  0  0  0
   -1.8286    5.1524    0.3527 H   0  0  0  0  0  0  0  0  0  0  0  0
   -4.2005    4.8594   -0.3134 H   0  0  0  0  0  0  0  0  0  0  0  0
   -5.0671    2.6142   -0.8613 H   0  0  0  0  0  0  0  0  0  0  0  0
   -4.3724   -2.5381    0.3194 H   0  0  0  0  0  0  0  0  0  0  0  0
   -3.0226   -4.0071    1.7693 H   0  0  0  0  0  0  0  0  0  0  0  0
    0.2602   -1.2469    1.5557 H   0  0  0  0  0  0  0  0  0  0  0  0
  1  2  1  0
  2  3  1  0
  2  4  1  0
  4  5  1  0
  5  6  1  0
  6  7  2  3
  7  8  1  0
  8  9  2  0
  9 10  1  0
 10 11  2  0
 11 12  1  0
 12 13  2  0
 13 14  1  0
 14 15  1  0
 15 16  2  0
 16 17  1  0
 17 18  2  0
 18 19  1  0
 18 20  1  0
 20 21  2  0
 21  7  1  0
 13  8  1  0
 21 15  1  0
  1 22  1  0
  1 23  1  0
  1 24  1  0
  3 25  1  0
  3 26  1  0
  3 27  1  0
  4 28  1  0
  4 29  1  0
  5 30  1  0
  5 31  1  0
  6 32  1  0
  9 33  1  0
 10 34  1  0
 11 35  1  0
 12 36  1  0
 16 37  1  0
 17 38  1  0
 20 39  1  0
M  END
$$$$
