
     RDKit          3D

 50 52  0  0  0  0  0  0  0  0999 V2000
   -3.5440    1.1153   -2.4921 C   0  0  0  0  0  0  0  0  0  0  0  0
   -4.0328    0.7520   -1.2058 O   0  0  0  0  0  0  0  0  0  0  0  0
   -3.1133    0.6745   -0.1944 C   0  0  0  0  0  0  0  0  0  0  0  0
   -1.7732    1.0508   -0.2853 C   0  0  0  0  0  0  0  0  0  0  0  0
   -0.9353    0.9375    0.8353 C   0  0  0  0  0  0  0  0  0  0  0  0
    0.4863    1.3292    0.7490 C   0  0  0  0  0  0  0  0  0  0  0  0
    0.9896    1.8140   -0.3404 N   0  0  0  0  0  0  0  0  0  0  0  0
    2.3118    2.1281   -0.2837 N   0  0  0  0  0  0  0  0  0  0  0  0
    2.9765    2.5673   -1.4187 C   0  0  0  0  0  0  0  0  0  0  0  0
    2.4636    2.7695   -2.5176 O   0  0  0  0  0  0  0  0  0  0  0  0
    4.4646    2.8253   -1.1732 C   0  0  0  0  0  0  0  0  0  0  0  0
    4.9970    2.2357    0.0083 O   0  0  0  0  0  0  0  0  0  0  0  0
    5.3822    0.9240   -0.0494 C   0  0  0  0  0  0  0  0  0  0  0  0
    5.1058    0.0295   -1.0826 C   0  0  0  0  0  0  0  0  0  0  0  0
    5.5404   -1.2981   -0.9968 C   0  0  0  0  0  0  0  0  0  0  0  0
    6.2433   -1.7499    0.1255 C   0  0  0  0  0  0  0  0  0  0  0  0
    6.7367   -3.1645    0.1955 C   0  0  0  0  0  0  0  0  0  0  0  0
    6.5262   -0.8468    1.1541 C   0  0  0  0  0  0  0  0  0  0  0  0
    6.0903    0.4774    1.0683 C   0  0  0  0  0  0  0  0  0  0  0  0
   -1.4262    0.4580    2.0546 C   0  0  0  0  0  0  0  0  0  0  0  0
   -2.7644    0.0849    2.1568 C   0  0  0  0  0  0  0  0  0  0  0  0
   -3.5848    0.1824    1.0316 C   0  0  0  0  0  0  0  0  0  0  0  0
   -4.9315   -0.1724    1.1658 O   0  0  0  0  0  0  0  0  0  0  0  0
   -5.1992   -1.4616    0.7081 C   0  0  0  0  0  0  0  0  0  0  0  0
   -4.3486   -2.2848    0.3837 O   0  0  0  0  0  0  0  0  0  0  0  0
   -6.6375   -1.6756    0.7179 C   0  0  0  0  0  0  0  0  0  0  0  0
   -7.6604   -0.7972    1.0341 C   0  0  0  0  0  0  0  0  0  0  0  0
   -8.9507   -1.3932    0.9212 C   0  0  0  0  0  0  0  0  0  0  0  0
   -8.8760   -2.7076    0.5214 C   0  0  0  0  0  0  0  0  0  0  0  0
   -7.2613   -3.2146    0.2840 S   0  0  0  0  0  0  0  0  0  0  0  0
   -2.7791    0.4126   -2.8392 H   0  0  0  0  0  0  0  0  0  0  0  0
   -4.3829    1.0669   -3.1931 H   0  0  0  0  0  0  0  0  0  0  0  0
   -3.1687    2.1438   -2.4931 H   0  0  0  0  0  0  0  0  0  0  0  0
   -1.3545    1.4373   -1.2099 H   0  0  0  0  0  0  0  0  0  0  0  0
    1.0971    1.1891    1.6593 H   0  0  0  0  0  0  0  0  0  0  0  0
    2.8551    1.9160    0.5493 H   0  0  0  0  0  0  0  0  0  0  0  0
    5.0459    2.5445   -2.0593 H   0  0  0  0  0  0  0  0  0  0  0  0
    4.5725    3.9100   -1.0574 H   0  0  0  0  0  0  0  0  0  0  0  0
    4.5493    0.3182   -1.9691 H   0  0  0  0  0  0  0  0  0  0  0  0
    5.3205   -1.9801   -1.8161 H   0  0  0  0  0  0  0  0  0  0  0  0
    7.7323   -3.2361   -0.2529 H   0  0  0  0  0  0  0  0  0  0  0  0
    6.7904   -3.5086    1.2338 H   0  0  0  0  0  0  0  0  0  0  0  0
    6.0591   -3.8412   -0.3358 H   0  0  0  0  0  0  0  0  0  0  0  0
    7.0875   -1.1668    2.0290 H   0  0  0  0  0  0  0  0  0  0  0  0
    6.3147    1.1672    1.8783 H   0  0  0  0  0  0  0  0  0  0  0  0
   -0.7806    0.3723    2.9245 H   0  0  0  0  0  0  0  0  0  0  0  0
   -3.1620   -0.2868    3.0964 H   0  0  0  0  0  0  0  0  0  0  0  0
   -7.4948    0.2326    1.3303 H   0  0  0  0  0  0  0  0  0  0  0  0
   -9.8851   -0.8823    1.1206 H   0  0  0  0  0  0  0  0  0  0  0  0
   -9.6919   -3.3976    0.3540 H   0  0  0  0  0  0  0  0  0  0  0  0
  1  2  1  0
  2  3  1  0
  3  4  2  0
  4  5  1  0
  5  6  1  0
  6  7  2  3
  7  8  1  0
  8  9  1  0
  9 10  2  0
  9 11  1  0
 11 12  1  0
 12 13  1  0
 13 14  2  0
 14 15  1  0
 15 16  2  0
 16 17  1  0
 16 18  1  0
 18 19  2  0
  5 20  2  0
 20 21  1  0
 21 22  2  0
 22 23  1  0
 23 24  1  0
 24 25  2  0
 24 26  1  0
 26 27  2  0
 27 28  1  0
 28 29  2  0
 29 30  1  0
 22  3  1  0
 30 26  1  0
 19 13  1  0
  1 31  1  0
  1 32  1  0
  1 33  1  0
  4 34  1  0
  6 35  1  0
  8 36  1  0
 11 37  1  0
 11 38  1  0
 14 39  1  0
 15 40  1  0
 17 41  1  0
 17 42  1  0
 17 43  1  0
 18 44  1  0
 19 45  1  0
 20 46  1  0
 21 47  1  0
 27 48  1  0
 28 49  1  0
 29 50  1  0
M  END
$$$$
