
     RDKit          3D

 35 35  0  0  0  0  0  0  0  0999 V2000
   -3.7891   -0.3610   -1.8268 C   0  0  0  0  0  0  0  0  0  0  0  0
   -3.0873   -0.5376   -0.4679 C   0  0  0  0  0  0  0  0  0  0  0  0
   -4.1893   -0.5953    0.6056 C   0  0  0  0  0  0  0  0  0  0  0  0
   -2.0892    0.5355   -0.1889 N   0  0  0  0  0  0  0  0  0  0  0  0
   -1.4203    0.3179    1.1010 C   0  0  0  0  0  0  0  0  0  0  0  0
   -1.0893    0.6475   -1.2862 C   0  0  0  0  0  0  0  0  0  0  0  0
    0.0067    1.7202   -1.1028 C   0  0  0  0  0  0  0  0  0  0  0  0
    1.0937    1.2584   -0.2819 O   0  0  0  0  0  0  0  0  0  0  0  0
    1.9670    0.4255   -0.8973 C   0  0  0  0  0  0  0  0  0  0  0  0
    1.9480    0.0619   -2.0590 O   0  0  0  0  0  0  0  0  0  0  0  0
    2.9642    0.0014    0.0976 C   0  0  0  0  0  0  0  0  0  0  0  0
    3.8111    0.9764    0.6451 C   0  0  0  0  0  0  0  0  0  0  0  0
    4.7844    0.6107    1.5750 C   0  0  0  0  0  0  0  0  0  0  0  0
    4.9135   -0.7238    1.9579 C   0  0  0  0  0  0  0  0  0  0  0  0
    4.0682   -1.6953    1.4158 C   0  0  0  0  0  0  0  0  0  0  0  0
    3.0896   -1.3364    0.4830 C   0  0  0  0  0  0  0  0  0  0  0  0
    1.9474   -2.7049   -0.1677 Br  0  0  0  0  0  0  0  0  0  0  0  0
   -4.2181    0.6423   -1.9259 H   0  0  0  0  0  0  0  0  0  0  0  0
   -3.1051   -0.5327   -2.6638 H   0  0  0  0  0  0  0  0  0  0  0  0
   -4.6035   -1.0850   -1.9440 H   0  0  0  0  0  0  0  0  0  0  0  0
   -2.5796   -1.5116   -0.4815 H   0  0  0  0  0  0  0  0  0  0  0  0
   -4.6501    0.3874    0.7556 H   0  0  0  0  0  0  0  0  0  0  0  0
   -3.8071   -0.9506    1.5672 H   0  0  0  0  0  0  0  0  0  0  0  0
   -4.9823   -1.2943    0.3157 H   0  0  0  0  0  0  0  0  0  0  0  0
   -0.7612    1.1538    1.3535 H   0  0  0  0  0  0  0  0  0  0  0  0
   -0.8361   -0.6089    1.1091 H   0  0  0  0  0  0  0  0  0  0  0  0
   -2.1330    0.2870    1.9298 H   0  0  0  0  0  0  0  0  0  0  0  0
   -0.6330   -0.3327   -1.4672 H   0  0  0  0  0  0  0  0  0  0  0  0
   -1.6207    0.9472   -2.1954 H   0  0  0  0  0  0  0  0  0  0  0  0
   -0.4077    2.6198   -0.6340 H   0  0  0  0  0  0  0  0  0  0  0  0
    0.3965    2.0349   -2.0792 H   0  0  0  0  0  0  0  0  0  0  0  0
    3.7162    2.0176    0.3447 H   0  0  0  0  0  0  0  0  0  0  0  0
    5.4433    1.3650    1.9992 H   0  0  0  0  0  0  0  0  0  0  0  0
    5.6729   -1.0097    2.6826 H   0  0  0  0  0  0  0  0  0  0  0  0
    4.1793   -2.7305    1.7311 H   0  0  0  0  0  0  0  0  0  0  0  0
  1  2  1  0
  2  3  1  0
  2  4  1  0
  4  5  1  0
  4  6  1  0
  6  7  1  0
  7  8  1  0
  8  9  1  0
  9 10  2  0
  9 11  1  0
 11 12  2  0
 12 13  1  0
 13 14  2  0
 14 15  1  0
 15 16  2  0
 16 17  1  0
 16 11  1  0
  1 18  1  0
  1 19  1  0
  1 20  1  0
  2 21  1  0
  3 22  1  0
  3 23  1  0
  3 24  1  0
  5 25  1  0
  5 26  1  0
  5 27  1  0
  6 28  1  0
  6 29  1  0
  7 30  1  0
  7 31  1  0
 12 32  1  0
 13 33  1  0
 14 34  1  0
 15 35  1  0
M  END
$$$$
