
     RDKit          3D

 36 37  0  0  0  0  0  0  0  0999 V2000
    0.6614   -0.0059   -1.1957 O   0  0  0  0  0  0  0  0  0  0  0  0
    0.5383    1.2155   -1.3026 C   0  0  0  0  0  0  0  0  0  0  0  0
   -0.7749    1.8922   -1.7021 C   0  0  0  0  0  0  0  0  0  0  0  0
   -1.9085    1.0930   -1.3654 O   0  0  0  0  0  0  0  0  0  0  0  0
   -2.1088    0.9735   -0.0305 C   0  0  0  0  0  0  0  0  0  0  0  0
   -1.4713    1.5209    0.8535 O   0  0  0  0  0  0  0  0  0  0  0  0
   -3.1525   -0.0319    0.2137 C   0  0  0  0  0  0  0  0  0  0  0  0
   -2.7895   -1.1509    0.9768 C   0  0  0  0  0  0  0  0  0  0  0  0
   -3.7344   -2.1411    1.2325 C   0  0  0  0  0  0  0  0  0  0  0  0
   -3.2968   -3.5260    2.1543 Cl  0  0  0  0  0  0  0  0  0  0  0  0
   -5.0359   -2.0193    0.7449 C   0  0  0  0  0  0  0  0  0  0  0  0
   -5.3993   -0.8932    0.0004 C   0  0  0  0  0  0  0  0  0  0  0  0
   -4.4590    0.1064   -0.2674 C   0  0  0  0  0  0  0  0  0  0  0  0
   -4.9891    1.4954   -1.1458 Cl  0  0  0  0  0  0  0  0  0  0  0  0
    1.5843    2.0770   -1.0425 N   0  0  0  0  0  0  0  0  0  0  0  0
    2.8545    1.5517   -0.5709 C   0  0  0  0  0  0  0  0  0  0  0  0
    2.7665    0.9692    0.8501 C   0  0  0  0  0  0  0  0  0  0  0  0
    3.5319   -0.2531    0.9844 N   0  0  0  0  0  0  0  0  0  0  0  0
    3.0212   -1.5228    0.8543 C   0  0  0  0  0  0  0  0  0  0  0  0
    1.7146   -1.7448    0.5362 O   0  0  0  0  0  0  0  0  0  0  0  0
    3.9075   -2.5005    1.0619 C   0  0  0  0  0  0  0  0  0  0  0  0
    5.4868   -1.8654    1.4048 S   0  0  0  0  0  0  0  0  0  0  0  0
    4.8923   -0.2036    1.2550 C   0  0  0  0  0  0  0  0  0  0  0  0
    5.5955    0.7879    1.3661 O   0  0  0  0  0  0  0  0  0  0  0  0
   -0.8644    2.8873   -1.2501 H   0  0  0  0  0  0  0  0  0  0  0  0
   -0.7659    2.0149   -2.7897 H   0  0  0  0  0  0  0  0  0  0  0  0
   -1.7736   -1.2485    1.3561 H   0  0  0  0  0  0  0  0  0  0  0  0
   -5.7731   -2.7920    0.9497 H   0  0  0  0  0  0  0  0  0  0  0  0
   -6.4214   -0.7995   -0.3620 H   0  0  0  0  0  0  0  0  0  0  0  0
    1.3965    3.0662   -0.9260 H   0  0  0  0  0  0  0  0  0  0  0  0
    3.1776    0.7905   -1.2911 H   0  0  0  0  0  0  0  0  0  0  0  0
    3.5827    2.3691   -0.6027 H   0  0  0  0  0  0  0  0  0  0  0  0
    1.7347    0.7820    1.1683 H   0  0  0  0  0  0  0  0  0  0  0  0
    3.1673    1.7101    1.5539 H   0  0  0  0  0  0  0  0  0  0  0  0
    1.4149   -1.0472   -0.0879 H   0  0  0  0  0  0  0  0  0  0  0  0
    3.6901   -3.5571    1.0063 H   0  0  0  0  0  0  0  0  0  0  0  0
  1  2  2  0
  2  3  1  0
  3  4  1  0
  4  5  1  0
  5  6  2  0
  5  7  1  0
  7  8  2  0
  8  9  1  0
  9 10  1  0
  9 11  2  0
 11 12  1  0
 12 13  2  0
 13 14  1  0
  2 15  1  0
 15 16  1  0
 16 17  1  0
 17 18  1  0
 18 19  1  0
 19 20  1  0
 19 21  2  0
 21 22  1  0
 22 23  1  0
 23 24  2  0
 13  7  1  0
 23 18  1  0
  3 25  1  0
  3 26  1  0
  8 27  1  0
 11 28  1  0
 12 29  1  0
 15 30  1  0
 16 31  1  0
 16 32  1  0
 17 33  1  0
 17 34  1  0
 20 35  1  0
 21 36  1  0
M  END
$$$$
