
     RDKit          3D

 59 62  0  0  0  0  0  0  0  0999 V2000
    5.9498   -0.9400   -1.1347 C   0  0  0  0  0  0  0  0  0  0  0  0
    4.7088   -1.8101   -1.1014 C   0  0  0  0  0  0  0  0  0  0  0  0
    3.5777   -0.9626   -0.9220 O   0  0  0  0  0  0  0  0  0  0  0  0
    2.3373   -1.6679   -0.8803 C   0  0  0  0  0  0  0  0  0  0  0  0
    2.0467   -2.2578    0.4979 C   0  0  0  0  0  0  0  0  0  0  0  0
    1.9319   -1.2039    1.6049 C   0  0  0  0  0  0  0  0  0  0  0  0
    0.6308   -0.4994    1.5625 N   0  0  0  0  0  0  0  0  0  0  0  0
   -0.4977   -1.1331    2.1122 C   0  0  0  0  0  0  0  0  0  0  0  0
   -0.3679   -2.3051    2.6649 N   0  0  0  0  0  0  0  0  0  0  0  0
   -1.8195   -0.4346    2.0449 C   0  0  0  0  0  0  0  0  0  0  0  0
   -3.3021   -1.1792    2.5121 S   0  0  0  0  0  6  0  0  0  0  0  0
   -3.0430   -2.3362    3.3529 O   0  0  0  0  0  0  0  0  0  0  0  0
   -4.2549   -0.1720    2.9470 O   0  0  0  0  0  0  0  0  0  0  0  0
   -3.8911   -1.8189    0.9533 C   0  0  0  0  0  0  0  0  0  0  0  0
   -4.9256   -1.1665    0.2783 C   0  0  0  0  0  0  0  0  0  0  0  0
   -5.3779   -1.6767   -0.9399 C   0  0  0  0  0  0  0  0  0  0  0  0
   -4.7997   -2.8300   -1.4873 C   0  0  0  0  0  0  0  0  0  0  0  0
   -5.3101   -3.3961   -2.7804 C   0  0  0  0  0  0  0  0  0  0  0  0
   -3.7824   -3.4896   -0.7834 C   0  0  0  0  0  0  0  0  0  0  0  0
   -3.3256   -2.9885    0.4363 C   0  0  0  0  0  0  0  0  0  0  0  0
   -1.8370    0.7988    1.5135 C   0  0  0  0  0  0  0  0  0  0  0  0
   -0.6343    1.4421    1.0082 C   0  0  0  0  0  0  0  0  0  0  0  0
   -0.7227    2.8121    0.4247 C   0  0  0  0  0  0  0  0  0  0  0  0
   -1.8114    3.3906    0.3923 O   0  0  0  0  0  0  0  0  0  0  0  0
    0.4570    3.3447   -0.0630 N   0  0  0  0  0  0  0  0  0  0  0  0
    0.4578    4.6181   -0.6235 C   0  0  0  0  0  0  0  0  0  0  0  0
    1.5727    5.1804   -1.1173 C   0  0  0  0  0  0  0  0  0  0  0  0
    1.6031    6.5489   -1.7249 C   0  0  0  0  0  0  0  0  0  0  0  0
    2.8125    4.4383   -1.0696 C   0  0  0  0  0  0  0  0  0  0  0  0
    2.8544    3.2113   -0.5375 C   0  0  0  0  0  0  0  0  0  0  0  0
    1.6158    2.5986    0.0128 C   0  0  0  0  0  0  0  0  0  0  0  0
    1.6881    1.4146    0.5258 N   0  0  0  0  0  0  0  0  0  0  0  0
    0.5612    0.8101    1.0249 C   0  0  0  0  0  0  0  0  0  0  0  0
    6.8476   -1.5465   -1.2827 H   0  0  0  0  0  0  0  0  0  0  0  0
    6.0519   -0.3802   -0.1992 H   0  0  0  0  0  0  0  0  0  0  0  0
    5.8834   -0.2027   -1.9416 H   0  0  0  0  0  0  0  0  0  0  0  0
    4.7854   -2.5257   -0.2774 H   0  0  0  0  0  0  0  0  0  0  0  0
    4.6147   -2.3574   -2.0456 H   0  0  0  0  0  0  0  0  0  0  0  0
    2.3306   -2.4569   -1.6420 H   0  0  0  0  0  0  0  0  0  0  0  0
    1.5496   -0.9608   -1.1591 H   0  0  0  0  0  0  0  0  0  0  0  0
    1.1318   -2.8578    0.4386 H   0  0  0  0  0  0  0  0  0  0  0  0
    2.8563   -2.9425    0.7741 H   0  0  0  0  0  0  0  0  0  0  0  0
    2.7781   -0.5081    1.5631 H   0  0  0  0  0  0  0  0  0  0  0  0
    2.0398   -1.6992    2.5787 H   0  0  0  0  0  0  0  0  0  0  0  0
   -1.2449   -2.6504    3.0896 H   0  0  0  0  0  0  0  0  0  0  0  0
   -5.3888   -0.2710    0.6880 H   0  0  0  0  0  0  0  0  0  0  0  0
   -6.1887   -1.1698   -1.4596 H   0  0  0  0  0  0  0  0  0  0  0  0
   -6.0716   -4.1568   -2.5810 H   0  0  0  0  0  0  0  0  0  0  0  0
   -5.7499   -2.6127   -3.4063 H   0  0  0  0  0  0  0  0  0  0  0  0
   -4.4943   -3.8504   -3.3536 H   0  0  0  0  0  0  0  0  0  0  0  0
   -3.3439   -4.4029   -1.1811 H   0  0  0  0  0  0  0  0  0  0  0  0
   -2.5397   -3.5182    0.9714 H   0  0  0  0  0  0  0  0  0  0  0  0
   -2.7677    1.3564    1.4209 H   0  0  0  0  0  0  0  0  0  0  0  0
   -0.4958    5.1407   -0.6414 H   0  0  0  0  0  0  0  0  0  0  0  0
    1.9325    6.4994   -2.7681 H   0  0  0  0  0  0  0  0  0  0  0  0
    0.6155    7.0223   -1.7111 H   0  0  0  0  0  0  0  0  0  0  0  0
    2.2906    7.1997   -1.1740 H   0  0  0  0  0  0  0  0  0  0  0  0
    3.7127    4.8896   -1.4760 H   0  0  0  0  0  0  0  0  0  0  0  0
    3.7620    2.6218   -0.4897 H   0  0  0  0  0  0  0  0  0  0  0  0
  1  2  1  0
  2  3  1  0
  3  4  1  0
  4  5  1  0
  5  6  1  0
  6  7  1  0
  7  8  1  0
  8  9  2  3
  8 10  1  0
 10 11  1  0
 11 12  2  0
 11 13  2  0
 11 14  1  0
 14 15  2  0
 15 16  1  0
 16 17  2  0
 17 18  1  0
 17 19  1  0
 19 20  2  0
 10 21  2  0
 21 22  1  0
 22 23  1  0
 23 24  2  0
 23 25  1  0
 25 26  1  0
 26 27  2  0
 27 28  1  0
 27 29  1  0
 29 30  2  0
 30 31  1  0
 31 32  2  0
 32 33  1  0
 33  7  1  0
 20 14  1  0
 33 22  2  0
 31 25  1  0
  1 34  1  0
  1 35  1  0
  1 36  1  0
  2 37  1  0
  2 38  1  0
  4 39  1  0
  4 40  1  0
  5 41  1  0
  5 42  1  0
  6 43  1  0
  6 44  1  0
  9 45  1  0
 15 46  1  0
 16 47  1  0
 18 48  1  0
 18 49  1  0
 18 50  1  0
 19 51  1  0
 20 52  1  0
 21 53  1  0
 26 54  1  0
 28 55  1  0
 28 56  1  0
 28 57  1  0
 29 58  1  0
 30 59  1  0
M  END
$$$$
