
     RDKit          3D

 82 86  0  0  0  0  0  0  0  0999 V2000
   -0.5776    5.8632    1.5998 C   0  0  0  0  0  0  0  0  0  0  0  0
   -0.0387    4.6901    0.8197 C   0  0  0  0  0  0  0  0  0  0  0  0
    1.0380    4.0318    1.3005 C   0  0  0  0  0  0  0  0  0  0  0  0
    1.8157    2.8912    0.6905 C   0  0  0  0  0  0  0  0  0  0  0  0
    2.0381    1.7164    1.6687 C   0  0  0  0  0  0  0  0  0  0  0  0
    0.7886    0.8750    1.9424 C   0  0  0  0  0  0  0  0  0  0  0  0
    0.7689   -0.4545    1.1888 C   0  0  0  0  0  0  0  0  0  0  0  0
    1.5600   -0.3359   -0.1038 C   0  0  0  0  0  0  0  0  0  0  0  0
    3.0256   -0.0191    0.2195 C   0  0  0  0  0  0  0  0  0  0  0  0
    3.7832    0.5525   -0.9865 C   0  0  0  0  0  0  0  0  0  0  0  0
    4.0338   -0.4898   -2.0657 C   0  0  0  0  0  0  0  0  0  0  0  0
    4.7406   -1.7104   -1.4668 C   0  0  0  0  0  0  0  0  0  0  0  0
    4.9541   -2.7716   -2.5460 C   0  0  0  0  0  0  0  0  0  0  0  0
    3.9393   -2.2372   -0.2626 C   0  0  0  0  0  0  0  0  0  0  0  0
    4.6790   -3.3379    0.4950 C   0  0  0  0  0  0  0  0  0  0  0  0
    3.6914   -1.1989    0.6902 O   0  0  0  0  0  0  0  0  0  0  0  0
    3.1617    0.9288    1.2855 O   0  0  0  0  0  0  0  0  0  0  0  0
   -0.5759   -0.8283    0.8203 O   0  0  0  0  0  0  0  0  0  0  0  0
   -1.4068   -1.2123    1.8197 C   0  0  0  0  0  0  0  0  0  0  0  0
   -1.0916   -1.2282    3.0056 O   0  0  0  0  0  0  0  0  0  0  0  0
   -2.7943   -1.6202    1.3254 C   0  0  0  0  0  0  0  0  0  0  0  0
   -3.0212   -3.0506    1.8202 C   0  0  0  0  0  0  0  0  0  0  0  0
   -3.1291   -4.1314    1.0174 C   0  0  0  0  0  0  0  0  0  0  0  0
   -3.4162   -5.4978    1.5733 C   0  0  0  0  0  0  0  0  0  0  0  0
   -3.0116   -4.0248   -0.4898 C   0  0  0  0  0  0  0  0  0  0  0  0
   -2.1570   -5.0661   -0.9708 O   0  0  0  0  0  0  0  0  0  0  0  0
   -2.4090   -2.6792   -0.9070 C   0  0  0  0  0  0  0  0  0  0  0  0
   -2.5639   -2.4256   -2.3161 O   0  0  0  0  0  0  0  0  0  0  0  0
   -2.4337   -1.0003   -2.4594 C   0  0  0  0  0  0  0  0  0  0  0  0
   -2.6957   -0.3824   -1.1035 C   0  0  0  0  0  0  0  0  0  0  0  0
   -2.5500    0.9390   -0.9034 C   0  0  0  0  0  0  0  0  0  0  0  0
   -2.7695    1.6709    0.3198 C   0  0  0  0  0  0  0  0  0  0  0  0
   -2.5991    2.9927    0.4891 C   0  0  0  0  0  0  0  0  0  0  0  0
   -2.2154    4.0356   -0.5383 C   0  0  0  0  0  0  0  0  0  0  0  0
   -3.1361    5.2562   -0.4199 C   0  0  0  0  0  0  0  0  0  0  0  0
   -0.7094    4.4046   -0.5140 C   0  0  0  0  0  0  0  0  0  0  0  0
   -3.0892   -1.5088   -0.1892 C   0  0  0  0  0  0  0  0  0  0  0  0
   -4.5261   -1.5987   -0.3657 O   0  0  0  0  0  0  0  0  0  0  0  0
    0.1233    6.2054    2.3694 H   0  0  0  0  0  0  0  0  0  0  0  0
   -1.5085    5.5934    2.1057 H   0  0  0  0  0  0  0  0  0  0  0  0
   -0.7619    6.7147    0.9369 H   0  0  0  0  0  0  0  0  0  0  0  0
    1.4539    4.3715    2.2512 H   0  0  0  0  0  0  0  0  0  0  0  0
    1.3605    2.5304   -0.2320 H   0  0  0  0  0  0  0  0  0  0  0  0
    2.7968    3.2868    0.3968 H   0  0  0  0  0  0  0  0  0  0  0  0
    2.3339    2.1640    2.6268 H   0  0  0  0  0  0  0  0  0  0  0  0
    0.7646    0.6425    3.0154 H   0  0  0  0  0  0  0  0  0  0  0  0
   -0.1227    1.4545    1.7625 H   0  0  0  0  0  0  0  0  0  0  0  0
    1.1990   -1.2562    1.8035 H   0  0  0  0  0  0  0  0  0  0  0  0
    1.1088    0.4453   -0.7273 H   0  0  0  0  0  0  0  0  0  0  0  0
    1.4422   -1.2536   -0.6883 H   0  0  0  0  0  0  0  0  0  0  0  0
    3.2520    1.4121   -1.4103 H   0  0  0  0  0  0  0  0  0  0  0  0
    4.7536    0.9409   -0.6480 H   0  0  0  0  0  0  0  0  0  0  0  0
    3.0841   -0.7862   -2.5275 H   0  0  0  0  0  0  0  0  0  0  0  0
    4.6482   -0.0498   -2.8602 H   0  0  0  0  0  0  0  0  0  0  0  0
    5.7256   -1.3764   -1.1127 H   0  0  0  0  0  0  0  0  0  0  0  0
    4.0001   -3.1829   -2.8918 H   0  0  0  0  0  0  0  0  0  0  0  0
    5.4709   -2.3446   -3.4124 H   0  0  0  0  0  0  0  0  0  0  0  0
    5.5689   -3.5982   -2.1780 H   0  0  0  0  0  0  0  0  0  0  0  0
    2.9839   -2.6565   -0.5947 H   0  0  0  0  0  0  0  0  0  0  0  0
    4.8195   -4.2335   -0.1160 H   0  0  0  0  0  0  0  0  0  0  0  0
    5.6588   -2.9867    0.8370 H   0  0  0  0  0  0  0  0  0  0  0  0
    4.1185   -3.6243    1.3921 H   0  0  0  0  0  0  0  0  0  0  0  0
   -3.5125   -0.9825    1.8571 H   0  0  0  0  0  0  0  0  0  0  0  0
   -3.1106   -3.1683    2.9000 H   0  0  0  0  0  0  0  0  0  0  0  0
   -2.5827   -6.1790    1.3760 H   0  0  0  0  0  0  0  0  0  0  0  0
   -3.5733   -5.4742    2.6569 H   0  0  0  0  0  0  0  0  0  0  0  0
   -4.3220   -5.9094    1.1169 H   0  0  0  0  0  0  0  0  0  0  0  0
   -3.9932   -4.1796   -0.9521 H   0  0  0  0  0  0  0  0  0  0  0  0
   -2.1016   -4.9237   -1.9342 H   0  0  0  0  0  0  0  0  0  0  0  0
   -1.3242   -2.6989   -0.7283 H   0  0  0  0  0  0  0  0  0  0  0  0
   -3.1603   -0.6673   -3.2063 H   0  0  0  0  0  0  0  0  0  0  0  0
   -1.4179   -0.7838   -2.8065 H   0  0  0  0  0  0  0  0  0  0  0  0
   -2.2306    1.5294   -1.7610 H   0  0  0  0  0  0  0  0  0  0  0  0
   -3.0797    1.1138    1.1973 H   0  0  0  0  0  0  0  0  0  0  0  0
   -2.7642    3.3806    1.4955 H   0  0  0  0  0  0  0  0  0  0  0  0
   -2.4114    3.6438   -1.5441 H   0  0  0  0  0  0  0  0  0  0  0  0
   -4.1722    4.9749   -0.6425 H   0  0  0  0  0  0  0  0  0  0  0  0
   -2.8472    6.0340   -1.1347 H   0  0  0  0  0  0  0  0  0  0  0  0
   -3.1324    5.6954    0.5808 H   0  0  0  0  0  0  0  0  0  0  0  0
   -0.1846    3.5933   -1.0292 H   0  0  0  0  0  0  0  0  0  0  0  0
   -0.5526    5.2814   -1.1575 H   0  0  0  0  0  0  0  0  0  0  0  0
   -4.9011   -0.7303   -0.1370 H   0  0  0  0  0  0  0  0  0  0  0  0
  1  2  1  0
  2  3  2  3
  3  4  1  0
  4  5  1  0
  5  6  1  0
  6  7  1  0
  7  8  1  0
  8  9  1  0
  9 10  1  0
 10 11  1  0
 11 12  1  0
 12 13  1  0
 12 14  1  0
 14 15  1  0
 14 16  1  0
  9 17  1  0
  7 18  1  0
 18 19  1  0
 19 20  2  0
 19 21  1  0
 21 22  1  0
 22 23  2  0
 23 24  1  0
 23 25  1  0
 25 26  1  0
 25 27  1  0
 27 28  1  0
 28 29  1  0
 29 30  1  0
 30 31  2  3
 31 32  1  0
 32 33  2  3
 33 34  1  0
 34 35  1  0
 34 36  1  0
 30 37  1  0
 37 38  1  0
 36  2  1  0
 17  5  1  0
 37 21  1  0
 16  9  1  0
 37 27  1  0
  1 39  1  0
  1 40  1  0
  1 41  1  0
  3 42  1  0
  4 43  1  0
  4 44  1  0
  5 45  1  0
  6 46  1  0
  6 47  1  0
  7 48  1  0
  8 49  1  0
  8 50  1  0
 10 51  1  0
 10 52  1  0
 11 53  1  0
 11 54  1  0
 12 55  1  0
 13 56  1  0
 13 57  1  0
 13 58  1  0
 14 59  1  0
 15 60  1  0
 15 61  1  0
 15 62  1  0
 21 63  1  0
 22 64  1  0
 24 65  1  0
 24 66  1  0
 24 67  1  0
 25 68  1  0
 26 69  1  0
 27 70  1  0
 29 71  1  0
 29 72  1  0
 31 73  1  0
 32 74  1  0
 33 75  1  0
 34 76  1  0
 35 77  1  0
 35 78  1  0
 35 79  1  0
 36 80  1  0
 36 81  1  0
 38 82  1  0
M  END
$$$$
