
     RDKit          3D

 67 72  0  0  0  0  0  0  0  0999 V2000
   -4.7306   -4.4752    1.7880 C   0  0  0  0  0  0  0  0  0  0  0  0
   -3.6600   -3.4306    1.8895 C   0  0  0  0  0  0  0  0  0  0  0  0
   -3.2794   -2.8683    3.1231 C   0  0  0  0  0  0  0  0  0  0  0  0
   -4.0187   -3.3654    4.6079 Cl  0  0  0  0  0  0  0  0  0  0  0  0
   -2.2919   -1.8660    3.2045 C   0  0  0  0  0  0  0  0  0  0  0  0
   -1.6631   -1.3864    2.0548 C   0  0  0  0  0  0  0  0  0  0  0  0
   -2.0372   -1.9227    0.8302 C   0  0  0  0  0  0  0  0  0  0  0  0
   -3.0277   -2.9157    0.7628 C   0  0  0  0  0  0  0  0  0  0  0  0
   -3.2665   -3.2519   -0.5678 N   0  0  0  0  0  0  0  0  0  0  0  0
   -2.4820   -2.5004   -1.4463 C   0  0  0  0  0  0  0  0  0  0  0  0
   -2.5384   -2.5880   -2.6646 O   0  0  0  0  0  0  0  0  0  0  0  0
   -1.5706   -1.5987   -0.5702 C   0  0  1  0  0  0  0  0  0  0  0  0
   -1.7723   -0.1498   -0.7722 C   0  0  0  0  0  0  0  0  0  0  0  0
   -0.5831    0.4774   -1.1390 C   0  0  0  0  0  0  0  0  0  0  0  0
   -0.8063    1.8213   -1.2605 C   0  0  0  0  0  0  0  0  0  0  0  0
    0.0907    2.7820   -1.4726 O   0  0  0  0  0  0  0  0  0  0  0  0
   -2.1808    2.0287   -1.0333 N   0  0  0  0  0  0  0  0  0  0  0  0
   -2.8535    3.2849   -1.0707 C   0  0  0  0  0  0  0  0  0  0  0  0
   -2.5297    4.2253   -2.0613 C   0  0  0  0  0  0  0  0  0  0  0  0
   -3.1928    5.4540   -2.0919 C   0  0  0  0  0  0  0  0  0  0  0  0
   -4.1656    5.7372   -1.1383 C   0  0  0  0  0  0  0  0  0  0  0  0
   -4.8002    6.9156   -1.1733 F   0  0  0  0  0  0  0  0  0  0  0  0
   -4.4922    4.8142   -0.1503 C   0  0  0  0  0  0  0  0  0  0  0  0
   -3.8374    3.5818   -0.1138 C   0  0  0  0  0  0  0  0  0  0  0  0
   -2.7726    0.7850   -0.7434 C   0  0  0  0  0  0  0  0  0  0  0  0
   -4.0762    0.5877   -0.5475 O   0  0  0  0  0  0  0  0  0  0  0  0
    0.5354   -0.4813   -1.2468 C   0  0  1  0  0  0  0  0  0  0  0  0
    1.7466   -0.1478   -0.3565 C   0  0  0  0  0  0  0  0  0  0  0  0
    2.7037   -1.2607   -0.2796 N   0  0  0  0  0  0  0  0  0  0  0  0
    4.0638   -1.0904   -0.1244 C   0  0  0  0  0  0  0  0  0  0  0  0
    4.8600   -2.0204   -0.1090 O   0  0  0  0  0  0  0  0  0  0  0  0
    4.4047    0.2186    0.0045 O   0  0  0  0  0  0  0  0  0  0  0  0
    5.7925    0.6209    0.1413 C   0  0  0  0  0  0  0  0  0  0  0  0
    5.7424    2.1503    0.2866 C   0  0  0  0  0  0  0  0  0  0  0  0
    6.5924    0.2771   -1.1210 C   0  0  0  0  0  0  0  0  0  0  0  0
    6.4286    0.0336    1.4067 C   0  0  0  0  0  0  0  0  0  0  0  0
    2.1665   -2.6139   -0.4259 C   0  0  0  0  0  0  0  0  0  0  0  0
    0.6678   -2.6835   -0.0805 C   0  0  0  0  0  0  0  0  0  0  0  0
   -0.1282   -1.7931   -0.9235 N   0  0  0  0  0  0  0  0  0  0  0  0
   -5.7180   -4.0100    1.8652 H   0  0  0  0  0  0  0  0  0  0  0  0
   -4.6244   -5.2271    2.5764 H   0  0  0  0  0  0  0  0  0  0  0  0
   -4.6796   -5.0249    0.8443 H   0  0  0  0  0  0  0  0  0  0  0  0
   -2.0184   -1.4511    4.1723 H   0  0  0  0  0  0  0  0  0  0  0  0
   -0.9107   -0.6057    2.1184 H   0  0  0  0  0  0  0  0  0  0  0  0
   -3.9579   -3.9043   -0.9056 H   0  0  0  0  0  0  0  0  0  0  0  0
   -0.2667    3.6337   -1.1618 H   0  0  0  0  0  0  0  0  0  0  0  0
   -1.8027    4.0035   -2.8420 H   0  0  0  0  0  0  0  0  0  0  0  0
   -2.9670    6.1874   -2.8616 H   0  0  0  0  0  0  0  0  0  0  0  0
   -5.2471    5.0649    0.5895 H   0  0  0  0  0  0  0  0  0  0  0  0
   -4.0770    2.8892    0.6925 H   0  0  0  0  0  0  0  0  0  0  0  0
   -4.5723    1.3211   -0.9488 H   0  0  0  0  0  0  0  0  0  0  0  0
    0.8691   -0.5415   -2.2899 H   0  0  0  0  0  0  0  0  0  0  0  0
    1.4271    0.0559    0.6728 H   0  0  0  0  0  0  0  0  0  0  0  0
    2.2404    0.7592   -0.7222 H   0  0  0  0  0  0  0  0  0  0  0  0
    6.7449    2.5827    0.3878 H   0  0  0  0  0  0  0  0  0  0  0  0
    5.1496    2.4423    1.1628 H   0  0  0  0  0  0  0  0  0  0  0  0
    5.2562    2.6095   -0.5819 H   0  0  0  0  0  0  0  0  0  0  0  0
    6.0803    0.6475   -2.0172 H   0  0  0  0  0  0  0  0  0  0  0  0
    7.5983    0.7131   -1.0901 H   0  0  0  0  0  0  0  0  0  0  0  0
    6.7045   -0.8037   -1.2545 H   0  0  0  0  0  0  0  0  0  0  0  0
    6.5914   -1.0449    1.3196 H   0  0  0  0  0  0  0  0  0  0  0  0
    5.7792    0.1821    2.2771 H   0  0  0  0  0  0  0  0  0  0  0  0
    7.4003    0.4943    1.6171 H   0  0  0  0  0  0  0  0  0  0  0  0
    2.7284   -3.3015    0.2180 H   0  0  0  0  0  0  0  0  0  0  0  0
    2.3369   -2.9225   -1.4651 H   0  0  0  0  0  0  0  0  0  0  0  0
    0.3196   -3.7157   -0.1986 H   0  0  0  0  0  0  0  0  0  0  0  0
    0.5779   -2.4189    0.9792 H   0  0  0  0  0  0  0  0  0  0  0  0
  1  2  1  0
  2  3  2  0
  3  4  1  0
  3  5  1  0
  5  6  2  0
  6  7  1  0
  7  8  2  0
  8  9  1  0
  9 10  1  0
 10 11  2  0
 10 12  1  0
 12 13  1  0
 13 14  1  0
 14 15  2  0
 15 16  1  0
 15 17  1  0
 17 18  1  0
 18 19  2  0
 19 20  1  0
 20 21  2  0
 21 22  1  0
 21 23  1  0
 23 24  2  0
 17 25  1  0
 25 26  1  0
 14 27  1  0
 27 28  1  0
 28 29  1  0
 29 30  1  0
 30 31  2  0
 30 32  1  0
 32 33  1  0
 33 34  1  0
 33 35  1  0
 33 36  1  0
 29 37  1  0
 37 38  1  0
 38 39  1  0
  8  2  1  0
 12 39  1  1
 12  7  1  0
 25 13  2  0
 39 27  1  0
 24 18  1  0
  1 40  1  0
  1 41  1  0
  1 42  1  0
  5 43  1  0
  6 44  1  0
  9 45  1  0
 16 46  1  0
 19 47  1  0
 20 48  1  0
 23 49  1  0
 24 50  1  0
 26 51  1  0
 27 52  1  6
 28 53  1  0
 28 54  1  0
 34 55  1  0
 34 56  1  0
 34 57  1  0
 35 58  1  0
 35 59  1  0
 35 60  1  0
 36 61  1  0
 36 62  1  0
 36 63  1  0
 37 64  1  0
 37 65  1  0
 38 66  1  0
 38 67  1  0
M  END
$$$$
