
     RDKit          3D

 33 35  0  0  0  0  0  0  0  0999 V2000
   -0.9425    0.7004   -1.1779 O   0  0  0  0  0  0  0  0  0  0  0  0
   -1.6271    0.1004   -0.3568 C   0  0  0  0  0  0  0  0  0  0  0  0
   -1.1703   -0.6553    0.7029 N   0  0  0  0  0  0  0  0  0  0  0  0
    0.1804   -0.8791    1.0135 C   0  0  0  0  0  0  0  0  0  0  0  0
    0.4585   -1.7199    2.0698 C   0  0  0  0  0  0  0  0  0  0  0  0
    1.7891   -1.9164    2.3519 C   0  0  0  0  0  0  0  0  0  0  0  0
    2.7859   -1.3383    1.6626 N   0  0  0  0  0  0  0  0  0  0  0  0
    2.4215   -0.5320    0.6470 C   0  0  0  0  0  0  0  0  0  0  0  0
    3.4784    0.1214   -0.1346 C   0  0  0  0  0  0  0  0  0  0  0  0
    4.8437   -0.0527    0.1444 C   0  0  0  0  0  0  0  0  0  0  0  0
    5.8171    0.5877   -0.6223 C   0  0  0  0  0  0  0  0  0  0  0  0
    5.4023    1.3981   -1.6631 C   0  0  0  0  0  0  0  0  0  0  0  0
    4.1082    1.6026   -1.9773 N   0  0  0  0  0  0  0  0  0  0  0  0
    3.1844    0.9620   -1.2105 C   0  0  0  0  0  0  0  0  0  0  0  0
    1.1470   -0.2846    0.3059 N   0  0  0  0  0  0  0  0  0  0  0  0
   -3.1100    0.2421   -0.4707 C   0  0  0  0  0  0  0  0  0  0  0  0
   -3.5663    1.5068   -0.8907 C   0  0  0  0  0  0  0  0  0  0  0  0
   -4.9274    1.7691   -1.0303 C   0  0  0  0  0  0  0  0  0  0  0  0
   -5.8517    0.7669   -0.7565 C   0  0  0  0  0  0  0  0  0  0  0  0
   -5.4155   -0.4996   -0.3525 C   0  0  0  0  0  0  0  0  0  0  0  0
   -6.6409   -1.6835   -0.0399 Cl  0  0  0  0  0  0  0  0  0  0  0  0
   -4.0428   -0.7771   -0.2111 C   0  0  0  0  0  0  0  0  0  0  0  0
   -3.5370   -2.3754    0.2462 Cl  0  0  0  0  0  0  0  0  0  0  0  0
   -1.8519   -1.1309    1.2772 H   0  0  0  0  0  0  0  0  0  0  0  0
   -0.3096   -2.2093    2.6517 H   0  0  0  0  0  0  0  0  0  0  0  0
    2.1020   -2.5648    3.1652 H   0  0  0  0  0  0  0  0  0  0  0  0
    5.1559   -0.6934    0.9668 H   0  0  0  0  0  0  0  0  0  0  0  0
    6.8716    0.4549   -0.4095 H   0  0  0  0  0  0  0  0  0  0  0  0
    6.1199    1.9191   -2.2900 H   0  0  0  0  0  0  0  0  0  0  0  0
    2.1529    1.1563   -1.5044 H   0  0  0  0  0  0  0  0  0  0  0  0
   -2.8490    2.2981   -1.1127 H   0  0  0  0  0  0  0  0  0  0  0  0
   -5.2626    2.7519   -1.3554 H   0  0  0  0  0  0  0  0  0  0  0  0
   -6.9140    0.9749   -0.8675 H   0  0  0  0  0  0  0  0  0  0  0  0
  1  2  2  0
  2  3  1  0
  3  4  1  0
  4  5  2  0
  5  6  1  0
  6  7  2  0
  7  8  1  0
  8  9  1  0
  9 10  2  0
 10 11  1  0
 11 12  2  0
 12 13  1  0
 13 14  2  0
  8 15  2  0
  2 16  1  0
 16 17  2  0
 17 18  1  0
 18 19  2  0
 19 20  1  0
 20 21  1  0
 20 22  2  0
 22 23  1  0
 15  4  1  0
 22 16  1  0
 14  9  1  0
  3 24  1  0
  5 25  1  0
  6 26  1  0
 10 27  1  0
 11 28  1  0
 12 29  1  0
 14 30  1  0
 17 31  1  0
 18 32  1  0
 19 33  1  0
M  END
$$$$
