
     RDKit          3D

 53 56  0  0  0  0  0  0  0  0999 V2000
    6.9819    3.0144   -2.1180 C   0  0  0  0  0  0  0  0  0  0  0  0
    6.6221    1.7341   -2.6231 O   0  0  0  0  0  0  0  0  0  0  0  0
    5.7209    1.0234   -1.8779 C   0  0  0  0  0  0  0  0  0  0  0  0
    4.8775    1.5494   -0.9016 C   0  0  0  0  0  0  0  0  0  0  0  0
    3.9960    0.7095   -0.2116 C   0  0  0  0  0  0  0  0  0  0  0  0
    3.9434   -0.6619   -0.4886 C   0  0  0  0  0  0  0  0  0  0  0  0
    3.0400   -1.4286    0.2703 N   0  0  0  0  0  0  0  0  0  0  0  0
    2.7282   -2.7691    0.1292 C   0  0  0  0  0  0  0  0  0  0  0  0
    3.1831   -3.5361   -0.7152 O   0  0  0  0  0  0  0  0  0  0  0  0
    1.7401   -3.2712    1.1744 C   0  0  0  0  0  0  0  0  0  0  0  0
    0.0264   -2.9013    0.6999 S   0  0  0  0  0  0  0  0  0  0  0  0
   -0.1361   -1.2570    1.2305 C   0  0  0  0  0  0  0  0  0  0  0  0
    0.8487   -0.5534    1.7408 N   0  0  0  0  0  0  0  0  0  0  0  0
    0.3525    0.6556    2.1254 N   0  0  0  0  0  0  0  0  0  0  0  0
   -0.9399    0.6798    1.8474 C   0  0  0  0  0  0  0  0  0  0  0  0
   -1.8045    1.8945    1.9857 C   0  0  0  0  0  0  0  0  0  0  0  0
   -2.4216    2.3655    0.6942 C   0  0  0  0  0  0  0  0  0  0  0  0
   -3.7628    2.4284    0.3630 C   0  0  0  0  0  0  0  0  0  0  0  0
   -3.9755    2.9243   -0.9550 C   0  0  0  0  0  0  0  0  0  0  0  0
   -2.7934    3.2467   -1.5828 C   0  0  0  0  0  0  0  0  0  0  0  0
   -1.4355    2.9439   -0.5877 S   0  0  0  0  0  0  0  0  0  0  0  0
   -1.3231   -0.5488    1.3128 N   0  0  0  0  0  0  0  0  0  0  0  0
   -2.6308   -0.9687    0.9640 C   0  0  0  0  0  0  0  0  0  0  0  0
   -3.6872   -0.7724    1.8610 C   0  0  0  0  0  0  0  0  0  0  0  0
   -4.9816   -1.1610    1.5068 C   0  0  0  0  0  0  0  0  0  0  0  0
   -5.2339   -1.7349    0.2561 C   0  0  0  0  0  0  0  0  0  0  0  0
   -6.6244   -2.1663   -0.1152 C   0  0  0  0  0  0  0  0  0  0  0  0
   -4.1674   -1.9497   -0.6244 C   0  0  0  0  0  0  0  0  0  0  0  0
   -2.8697   -1.5690   -0.2762 C   0  0  0  0  0  0  0  0  0  0  0  0
    4.7798   -1.1821   -1.4737 C   0  0  0  0  0  0  0  0  0  0  0  0
    5.6587   -0.3410   -2.1651 C   0  0  0  0  0  0  0  0  0  0  0  0
    7.8092    3.3938   -2.7252 H   0  0  0  0  0  0  0  0  0  0  0  0
    6.1509    3.7206   -2.2094 H   0  0  0  0  0  0  0  0  0  0  0  0
    7.3312    2.9472   -1.0814 H   0  0  0  0  0  0  0  0  0  0  0  0
    4.8695    2.6075   -0.6634 H   0  0  0  0  0  0  0  0  0  0  0  0
    3.3453    1.1450    0.5455 H   0  0  0  0  0  0  0  0  0  0  0  0
    2.4822   -0.9049    0.9436 H   0  0  0  0  0  0  0  0  0  0  0  0
    1.9860   -2.8713    2.1636 H   0  0  0  0  0  0  0  0  0  0  0  0
    1.8475   -4.3586    1.2404 H   0  0  0  0  0  0  0  0  0  0  0  0
   -2.5796    1.7170    2.7378 H   0  0  0  0  0  0  0  0  0  0  0  0
   -1.1934    2.7139    2.3901 H   0  0  0  0  0  0  0  0  0  0  0  0
   -4.5596    2.1197    1.0316 H   0  0  0  0  0  0  0  0  0  0  0  0
   -4.9500    3.0389   -1.4167 H   0  0  0  0  0  0  0  0  0  0  0  0
   -2.6578    3.6460   -2.5799 H   0  0  0  0  0  0  0  0  0  0  0  0
   -3.5254   -0.3584    2.8525 H   0  0  0  0  0  0  0  0  0  0  0  0
   -5.7964   -1.0170    2.2159 H   0  0  0  0  0  0  0  0  0  0  0  0
   -6.8228   -3.1676    0.2783 H   0  0  0  0  0  0  0  0  0  0  0  0
   -7.3673   -1.4712    0.2888 H   0  0  0  0  0  0  0  0  0  0  0  0
   -6.7532   -2.1817   -1.2017 H   0  0  0  0  0  0  0  0  0  0  0  0
   -4.3411   -2.4044   -1.5975 H   0  0  0  0  0  0  0  0  0  0  0  0
   -2.0787   -1.7108   -1.0068 H   0  0  0  0  0  0  0  0  0  0  0  0
    4.7828   -2.2383   -1.7225 H   0  0  0  0  0  0  0  0  0  0  0  0
    6.3089   -0.7624   -2.9281 H   0  0  0  0  0  0  0  0  0  0  0  0
  1  2  1  0
  2  3  1  0
  3  4  2  0
  4  5  1  0
  5  6  2  0
  6  7  1  0
  7  8  1  0
  8  9  2  0
  8 10  1  0
 10 11  1  0
 11 12  1  0
 12 13  2  0
 13 14  1  0
 14 15  2  0
 15 16  1  0
 16 17  1  0
 17 18  2  0
 18 19  1  0
 19 20  2  0
 20 21  1  0
 15 22  1  0
 22 23  1  0
 23 24  2  0
 24 25  1  0
 25 26  2  0
 26 27  1  0
 26 28  1  0
 28 29  2  0
  6 30  1  0
 30 31  2  0
 31  3  1  0
 22 12  1  0
 29 23  1  0
 21 17  1  0
  1 32  1  0
  1 33  1  0
  1 34  1  0
  4 35  1  0
  5 36  1  0
  7 37  1  0
 10 38  1  0
 10 39  1  0
 16 40  1  0
 16 41  1  0
 18 42  1  0
 19 43  1  0
 20 44  1  0
 24 45  1  0
 25 46  1  0
 27 47  1  0
 27 48  1  0
 27 49  1  0
 28 50  1  0
 29 51  1  0
 30 52  1  0
 31 53  1  0
M  END
$$$$
