
     RDKit          3D

 47 50  0  0  0  0  0  0  0  0999 V2000
   -7.4191    0.2805   -2.6453 C   0  0  0  0  0  0  0  0  0  0  0  0
   -6.1601    0.4328   -1.9889 O   0  0  0  0  0  0  0  0  0  0  0  0
   -5.9045   -0.5262   -1.0629 C   0  0  0  0  0  0  0  0  0  0  0  0
   -6.6443   -1.4528   -0.7731 O   0  0  0  0  0  0  0  0  0  0  0  0
   -4.5806   -0.2974   -0.4189 C   0  0  0  0  0  0  0  0  0  0  0  0
   -3.7366    0.7508   -0.7981 C   0  0  0  0  0  0  0  0  0  0  0  0
   -2.5048    0.9178   -0.1668 C   0  0  0  0  0  0  0  0  0  0  0  0
   -2.1081    0.0495    0.8549 C   0  0  0  0  0  0  0  0  0  0  0  0
   -2.9427   -0.9976    1.2598 C   0  0  0  0  0  0  0  0  0  0  0  0
   -2.5761   -1.9168    2.2853 N   0  0  0  0  0  0  0  0  0  0  0  0
   -3.2540   -3.0921    2.4184 N   0  0  0  0  0  0  0  0  0  0  0  0
   -2.6410   -3.7790    3.3684 N   0  0  0  0  0  0  0  0  0  0  0  0
   -1.6204   -3.0580    3.9159 N   0  0  0  0  0  0  0  0  0  0  0  0
   -1.6025   -1.9090    3.2773 C   0  0  0  0  0  0  0  0  0  0  0  0
   -0.6252   -0.5722    3.7927 S   0  0  0  0  0  0  0  0  0  0  0  0
    1.0238   -1.3224    3.6229 C   0  0  0  0  0  0  0  0  0  0  0  0
    1.4771   -1.1872    2.1748 C   0  0  0  0  0  0  0  0  0  0  0  0
    0.8968   -1.7995    1.2819 O   0  0  0  0  0  0  0  0  0  0  0  0
    2.5202   -0.3004    2.0227 N   0  0  0  0  0  0  0  0  0  0  0  0
    3.1201    0.0797    0.8498 C   0  0  0  0  0  0  0  0  0  0  0  0
    4.0754    0.9831    0.8538 N   0  0  0  0  0  0  0  0  0  0  0  0
    4.5102    1.1866   -0.4396 C   0  0  0  0  0  0  0  0  0  0  0  0
    3.8669    0.4346   -1.4006 C   0  0  0  0  0  0  0  0  0  0  0  0
    2.6966   -0.5600   -0.6743 S   0  0  0  0  0  0  0  0  0  0  0  0
    4.1677    0.4565   -2.8600 C   0  0  0  0  0  0  0  0  0  0  0  0
    5.0046    1.7024   -3.2065 C   0  0  0  0  0  0  0  0  0  0  0  0
    6.1289    1.9504   -2.1836 C   0  0  0  0  0  0  0  0  0  0  0  0
    5.5769    2.1766   -0.7641 C   0  0  0  0  0  0  0  0  0  0  0  0
   -4.1769   -1.1719    0.6024 C   0  0  0  0  0  0  0  0  0  0  0  0
   -7.4477   -0.6609   -3.2026 H   0  0  0  0  0  0  0  0  0  0  0  0
   -7.5338    1.1067   -3.3535 H   0  0  0  0  0  0  0  0  0  0  0  0
   -8.2386    0.3282   -1.9210 H   0  0  0  0  0  0  0  0  0  0  0  0
   -4.0167    1.4360   -1.5939 H   0  0  0  0  0  0  0  0  0  0  0  0
   -1.8396    1.7186   -0.4831 H   0  0  0  0  0  0  0  0  0  0  0  0
   -1.1157    0.2005    1.2633 H   0  0  0  0  0  0  0  0  0  0  0  0
    1.7082   -0.7993    4.2982 H   0  0  0  0  0  0  0  0  0  0  0  0
    1.0314   -2.3802    3.9055 H   0  0  0  0  0  0  0  0  0  0  0  0
    2.9000    0.1910    2.8202 H   0  0  0  0  0  0  0  0  0  0  0  0
    4.7354   -0.4448   -3.1221 H   0  0  0  0  0  0  0  0  0  0  0  0
    3.2475    0.4557   -3.4553 H   0  0  0  0  0  0  0  0  0  0  0  0
    5.4301    1.5879   -4.2097 H   0  0  0  0  0  0  0  0  0  0  0  0
    4.3512    2.5840   -3.2346 H   0  0  0  0  0  0  0  0  0  0  0  0
    6.8035    1.0842   -2.1804 H   0  0  0  0  0  0  0  0  0  0  0  0
    6.7244    2.8193   -2.4858 H   0  0  0  0  0  0  0  0  0  0  0  0
    5.1489    3.1840   -0.6976 H   0  0  0  0  0  0  0  0  0  0  0  0
    6.3909    2.1145   -0.0342 H   0  0  0  0  0  0  0  0  0  0  0  0
   -4.8478   -1.9842    0.8841 H   0  0  0  0  0  0  0  0  0  0  0  0
  1  2  1  0
  2  3  1  0
  3  4  2  0
  3  5  1  0
  5  6  2  0
  6  7  1  0
  7  8  2  0
  8  9  1  0
  9 10  1  0
 10 11  1  0
 11 12  2  0
 12 13  1  0
 13 14  2  0
 14 15  1  0
 15 16  1  0
 16 17  1  0
 17 18  2  0
 17 19  1  0
 19 20  1  0
 20 21  2  0
 21 22  1  0
 22 23  2  0
 23 24  1  0
 23 25  1  0
 25 26  1  0
 26 27  1  0
 27 28  1  0
  9 29  2  0
 29  5  1  0
 14 10  1  0
 24 20  1  0
 28 22  1  0
  1 30  1  0
  1 31  1  0
  1 32  1  0
  6 33  1  0
  7 34  1  0
  8 35  1  0
 16 36  1  0
 16 37  1  0
 19 38  1  0
 25 39  1  0
 25 40  1  0
 26 41  1  0
 26 42  1  0
 27 43  1  0
 27 44  1  0
 28 45  1  0
 28 46  1  0
 29 47  1  0
M  END
$$$$
