
     RDKit          3D

 52 55  0  0  0  0  0  0  0  0999 V2000
    7.5060   -3.1618    2.5528 C   0  0  0  0  0  0  0  0  0  0  0  0
    7.3943   -1.7574    2.3565 O   0  0  0  0  0  0  0  0  0  0  0  0
    6.1610   -1.2767    2.0160 C   0  0  0  0  0  0  0  0  0  0  0  0
    5.0030   -2.0316    1.8441 C   0  0  0  0  0  0  0  0  0  0  0  0
    3.8002   -1.4038    1.4941 C   0  0  0  0  0  0  0  0  0  0  0  0
    3.7379   -0.0167    1.3107 C   0  0  0  0  0  0  0  0  0  0  0  0
    2.4872    0.5294    0.9668 N   0  0  0  0  0  0  0  0  0  0  0  0
    2.1801    1.8458    0.6690 C   0  0  0  0  0  0  0  0  0  0  0  0
    2.9714    2.7867    0.6654 O   0  0  0  0  0  0  0  0  0  0  0  0
    0.6994    2.0981    0.4083 C   0  0  0  0  0  0  0  0  0  0  0  0
   -0.0970    0.7148   -0.4684 S   0  0  0  0  0  0  0  0  0  0  0  0
   -1.7351    1.3424   -0.6624 C   0  0  0  0  0  0  0  0  0  0  0  0
   -1.9982    2.4843   -0.1027 N   0  0  0  0  0  0  0  0  0  0  0  0
   -3.2833    2.9284   -0.1927 C   0  0  0  0  0  0  0  0  0  0  0  0
   -4.2764    2.2884   -0.8066 C   0  0  0  0  0  0  0  0  0  0  0  0
   -4.0050    1.0020   -1.4772 C   0  0  0  0  0  0  0  0  0  0  0  0
   -4.8892    0.4264   -2.1107 O   0  0  0  0  0  0  0  0  0  0  0  0
   -2.6746    0.5728   -1.3577 N   0  0  0  0  0  0  0  0  0  0  0  0
   -2.3496   -0.6753   -1.9714 C   0  0  0  0  0  0  0  0  0  0  0  0
   -1.4727   -0.7125   -3.0664 C   0  0  0  0  0  0  0  0  0  0  0  0
   -1.1770   -1.9266   -3.6885 C   0  0  0  0  0  0  0  0  0  0  0  0
   -1.7519   -3.1084   -3.2225 C   0  0  0  0  0  0  0  0  0  0  0  0
   -2.6302   -3.0820   -2.1370 C   0  0  0  0  0  0  0  0  0  0  0  0
   -2.9451   -1.8673   -1.5214 C   0  0  0  0  0  0  0  0  0  0  0  0
   -3.7443   -1.8091   -0.4059 O   0  0  0  0  0  0  0  0  0  0  0  0
   -4.9859   -2.4931   -0.5767 C   0  0  0  0  0  0  0  0  0  0  0  0
   -5.8068    3.0646   -0.7525 S   0  0  0  0  0  0  0  0  0  0  0  0
   -5.0717    4.5950   -0.0744 C   0  0  0  0  0  0  0  0  0  0  0  0
   -3.6847    4.2184    0.4578 C   0  0  0  0  0  0  0  0  0  0  0  0
    4.8990    0.7343    1.4838 C   0  0  0  0  0  0  0  0  0  0  0  0
    6.1003    0.1057    1.8333 C   0  0  0  0  0  0  0  0  0  0  0  0
    6.8732   -3.4964    3.3824 H   0  0  0  0  0  0  0  0  0  0  0  0
    8.5450   -3.3810    2.8171 H   0  0  0  0  0  0  0  0  0  0  0  0
    7.2740   -3.7085    1.6324 H   0  0  0  0  0  0  0  0  0  0  0  0
    4.9972   -3.1086    1.9740 H   0  0  0  0  0  0  0  0  0  0  0  0
    2.9140   -2.0205    1.3664 H   0  0  0  0  0  0  0  0  0  0  0  0
    1.7222   -0.1283    0.8547 H   0  0  0  0  0  0  0  0  0  0  0  0
    0.6183    3.0021   -0.2064 H   0  0  0  0  0  0  0  0  0  0  0  0
    0.2154    2.2674    1.3765 H   0  0  0  0  0  0  0  0  0  0  0  0
   -1.0295    0.2011   -3.4548 H   0  0  0  0  0  0  0  0  0  0  0  0
   -0.4983   -1.9505   -4.5381 H   0  0  0  0  0  0  0  0  0  0  0  0
   -1.5127   -4.0542   -3.7030 H   0  0  0  0  0  0  0  0  0  0  0  0
   -3.0446   -4.0163   -1.7706 H   0  0  0  0  0  0  0  0  0  0  0  0
   -4.8645   -3.5581   -0.3533 H   0  0  0  0  0  0  0  0  0  0  0  0
   -5.4035   -2.3546   -1.5812 H   0  0  0  0  0  0  0  0  0  0  0  0
   -5.6969   -2.0776    0.1439 H   0  0  0  0  0  0  0  0  0  0  0  0
   -5.7065    5.0171    0.7101 H   0  0  0  0  0  0  0  0  0  0  0  0
   -4.9869    5.3266   -0.8853 H   0  0  0  0  0  0  0  0  0  0  0  0
   -2.9688    5.0185    0.2401 H   0  0  0  0  0  0  0  0  0  0  0  0
   -3.7149    4.0876    1.5463 H   0  0  0  0  0  0  0  0  0  0  0  0
    4.9093    1.8120    1.3608 H   0  0  0  0  0  0  0  0  0  0  0  0
    6.9973    0.7069    1.9649 H   0  0  0  0  0  0  0  0  0  0  0  0
  1  2  1  0
  2  3  1  0
  3  4  2  0
  4  5  1  0
  5  6  2  0
  6  7  1  0
  7  8  1  0
  8  9  2  0
  8 10  1  0
 10 11  1  0
 11 12  1  0
 12 13  2  0
 13 14  1  0
 14 15  2  0
 15 16  1  0
 16 17  2  0
 16 18  1  0
 18 19  1  0
 19 20  2  0
 20 21  1  0
 21 22  2  0
 22 23  1  0
 23 24  2  0
 24 25  1  0
 25 26  1  0
 15 27  1  0
 27 28  1  0
 28 29  1  0
  6 30  1  0
 30 31  2  0
 31  3  1  0
 18 12  1  0
 24 19  1  0
 29 14  1  0
  1 32  1  0
  1 33  1  0
  1 34  1  0
  4 35  1  0
  5 36  1  0
  7 37  1  0
 10 38  1  0
 10 39  1  0
 20 40  1  0
 21 41  1  0
 22 42  1  0
 23 43  1  0
 26 44  1  0
 26 45  1  0
 26 46  1  0
 28 47  1  0
 28 48  1  0
 29 49  1  0
 29 50  1  0
 30 51  1  0
 31 52  1  0
M  END
$$$$
