
     RDKit          3D

 50 52  0  0  0  0  0  0  0  0999 V2000
    3.0102   -2.3807   -2.8418 C   0  0  0  0  0  0  0  0  0  0  0  0
    2.5932   -0.9197   -2.8581 C   0  0  0  0  0  0  0  0  0  0  0  0
    2.8468   -0.2644   -1.5663 N   0  0  0  0  0  4  0  0  0  0  0  0
    1.9258   -0.1601   -0.6125 C   0  0  0  0  0  0  0  0  0  0  0  0
    0.6147   -0.7134   -0.6475 C   0  0  0  0  0  0  0  0  0  0  0  0
   -0.4422   -0.1569   -0.0317 C   0  0  0  0  0  0  0  0  0  0  0  0
   -1.7608   -0.7589   -0.0836 C   0  0  0  0  0  0  0  0  0  0  0  0
   -2.8195   -0.2725    0.5838 C   0  0  0  0  0  0  0  0  0  0  0  0
   -4.1200   -0.8006    0.6175 N   0  0  0  0  0  0  0  0  0  0  0  0
   -4.4094   -2.0850    0.1010 C   0  0  0  0  0  0  0  0  0  0  0  0
   -5.8420   -2.3577   -0.3163 C   0  0  0  0  0  0  0  0  0  0  0  0
   -3.5679   -2.9698   -0.0869 O   0  0  0  0  0  0  0  0  0  0  0  0
   -5.1399   -0.0459    1.3045 C   0  0  0  0  0  0  0  0  0  0  0  0
   -6.0208   -0.6693    2.2009 C   0  0  0  0  0  0  0  0  0  0  0  0
   -6.9929    0.0718    2.8782 C   0  0  0  0  0  0  0  0  0  0  0  0
   -7.0918    1.4458    2.6747 C   0  0  0  0  0  0  0  0  0  0  0  0
   -6.2145    2.0826    1.8008 C   0  0  0  0  0  0  0  0  0  0  0  0
   -5.2397    1.3434    1.1254 C   0  0  0  0  0  0  0  0  0  0  0  0
    2.5575    0.7042    0.7354 S   0  0  0  0  0  0  0  0  0  0  0  0
    4.0901    0.9132   -0.0115 C   0  0  0  0  0  0  0  0  0  0  0  0
    5.2293    1.5656    0.4975 C   0  0  0  0  0  0  0  0  0  0  0  0
    6.3761    1.6054   -0.2981 C   0  0  0  0  0  0  0  0  0  0  0  0
    7.5616    2.1940    0.0404 O   0  0  0  0  0  0  0  0  0  0  0  0
    7.6461    2.8175    1.3177 C   0  0  0  0  0  0  0  0  0  0  0  0
    6.3739    1.0089   -1.5586 C   0  0  0  0  0  0  0  0  0  0  0  0
    5.2378    0.3609   -2.0611 C   0  0  0  0  0  0  0  0  0  0  0  0
    4.0754    0.3177   -1.2682 C   0  0  0  0  0  0  0  0  0  0  0  0
    4.0789   -2.4834   -2.6299 H   0  0  0  0  0  0  0  0  0  0  0  0
    2.4655   -2.9371   -2.0729 H   0  0  0  0  0  0  0  0  0  0  0  0
    2.8071   -2.8456   -3.8112 H   0  0  0  0  0  0  0  0  0  0  0  0
    3.1278   -0.3824   -3.6494 H   0  0  0  0  0  0  0  0  0  0  0  0
    1.5330   -0.8331   -3.1209 H   0  0  0  0  0  0  0  0  0  0  0  0
    0.4632   -1.6387   -1.1992 H   0  0  0  0  0  0  0  0  0  0  0  0
   -0.3574    0.7667    0.5390 H   0  0  0  0  0  0  0  0  0  0  0  0
   -1.8589   -1.6492   -0.6988 H   0  0  0  0  0  0  0  0  0  0  0  0
   -2.6863    0.6267    1.1833 H   0  0  0  0  0  0  0  0  0  0  0  0
   -6.3871   -1.4417   -0.5554 H   0  0  0  0  0  0  0  0  0  0  0  0
   -5.8251   -2.9612   -1.2302 H   0  0  0  0  0  0  0  0  0  0  0  0
   -6.3594   -2.9236    0.4615 H   0  0  0  0  0  0  0  0  0  0  0  0
   -5.9395   -1.7308    2.4214 H   0  0  0  0  0  0  0  0  0  0  0  0
   -7.6669   -0.4230    3.5740 H   0  0  0  0  0  0  0  0  0  0  0  0
   -7.8499    2.0208    3.2017 H   0  0  0  0  0  0  0  0  0  0  0  0
   -6.2934    3.1553    1.6411 H   0  0  0  0  0  0  0  0  0  0  0  0
   -4.5869    1.8644    0.4299 H   0  0  0  0  0  0  0  0  0  0  0  0
    5.1947    2.0166    1.4841 H   0  0  0  0  0  0  0  0  0  0  0  0
    8.6542    3.2295    1.4229 H   0  0  0  0  0  0  0  0  0  0  0  0
    6.9353    3.6465    1.3978 H   0  0  0  0  0  0  0  0  0  0  0  0
    7.4962    2.0891    2.1213 H   0  0  0  0  0  0  0  0  0  0  0  0
    7.2806    1.0485   -2.1639 H   0  0  0  0  0  0  0  0  0  0  0  0
    5.2976   -0.0904   -3.0472 H   0  0  0  0  0  0  0  0  0  0  0  0
  1  2  1  0
  2  3  1  0
  3  4  2  0
  4  5  1  0
  5  6  2  3
  6  7  1  0
  7  8  2  3
  8  9  1  0
  9 10  1  0
 10 11  1  0
 10 12  2  0
  9 13  1  0
 13 14  2  0
 14 15  1  0
 15 16  2  0
 16 17  1  0
 17 18  2  0
  4 19  1  0
 19 20  1  0
 20 21  2  0
 21 22  1  0
 22 23  1  0
 23 24  1  0
 22 25  2  0
 25 26  1  0
 26 27  2  0
 27  3  1  0
 18 13  1  0
 27 20  1  0
  1 28  1  0
  1 29  1  0
  1 30  1  0
  2 31  1  0
  2 32  1  0
  5 33  1  0
  6 34  1  0
  7 35  1  0
  8 36  1  0
 11 37  1  0
 11 38  1  0
 11 39  1  0
 14 40  1  0
 15 41  1  0
 16 42  1  0
 17 43  1  0
 18 44  1  0
 21 45  1  0
 24 46  1  0
 24 47  1  0
 24 48  1  0
 25 49  1  0
 26 50  1  0
M  CHG  1   3   1
M  END
$$$$
