
     RDKit          3D

 37 39  0  0  0  0  0  0  0  0999 V2000
   -0.0685    0.5618    4.8439 C   0  0  0  0  0  0  0  0  0  0  0  0
    1.4420    0.1225    3.9434 S   0  0  0  0  0  0  0  0  0  0  0  0
    0.8387    0.1540    2.2607 C   0  0  0  0  0  0  0  0  0  0  0  0
    1.7513    0.0546    1.2319 C   0  0  0  0  0  0  0  0  0  0  0  0
    1.2628    0.0612   -0.0593 C   0  0  0  0  0  0  0  0  0  0  0  0
    2.1165   -0.0216   -1.1525 N   0  0  0  0  0  0  0  0  0  0  0  0
    1.5055    0.1452   -2.4820 C   0  0  0  0  0  0  0  0  0  0  0  0
    2.6062    0.1245   -3.5538 C   0  0  0  0  0  0  0  0  0  0  0  0
    3.3632   -1.0962   -3.5887 O   0  0  0  0  0  0  0  0  0  0  0  0
    3.3336   -1.8191   -2.3509 C   0  0  0  0  0  0  0  0  0  0  0  0
    3.2861   -0.9169   -1.1054 C   0  0  0  0  0  0  0  0  0  0  0  0
   -0.0555    0.1930   -0.2819 N   0  0  0  0  0  0  0  0  0  0  0  0
   -0.8759    0.3009    0.7800 C   0  0  0  0  0  0  0  0  0  0  0  0
   -2.3146    0.3852    0.5034 C   0  0  0  0  0  0  0  0  0  0  0  0
   -2.8863   -0.5054   -0.4326 C   0  0  0  0  0  0  0  0  0  0  0  0
   -4.2523   -0.4867   -0.7264 C   0  0  0  0  0  0  0  0  0  0  0  0
   -5.0834    0.4298   -0.0937 C   0  0  0  0  0  0  0  0  0  0  0  0
   -4.5456    1.3298    0.8242 C   0  0  0  0  0  0  0  0  0  0  0  0
   -3.1742    1.3131    1.1199 C   0  0  0  0  0  0  0  0  0  0  0  0
   -2.6111    2.5224    2.2261 Cl  0  0  0  0  0  0  0  0  0  0  0  0
   -0.4805    0.2571    2.0575 N   0  0  0  0  0  0  0  0  0  0  0  0
    0.1566    0.6023    5.9132 H   0  0  0  0  0  0  0  0  0  0  0  0
   -0.4314    1.5453    4.5334 H   0  0  0  0  0  0  0  0  0  0  0  0
   -0.8487   -0.1883    4.6875 H   0  0  0  0  0  0  0  0  0  0  0  0
    2.8118   -0.0022    1.4367 H   0  0  0  0  0  0  0  0  0  0  0  0
    0.9730    1.1017   -2.5426 H   0  0  0  0  0  0  0  0  0  0  0  0
    0.7948   -0.6688   -2.6741 H   0  0  0  0  0  0  0  0  0  0  0  0
    3.3151    0.9436   -3.3853 H   0  0  0  0  0  0  0  0  0  0  0  0
    2.1696    0.2682   -4.5473 H   0  0  0  0  0  0  0  0  0  0  0  0
    4.2259   -2.4526   -2.3200 H   0  0  0  0  0  0  0  0  0  0  0  0
    2.4634   -2.4860   -2.3726 H   0  0  0  0  0  0  0  0  0  0  0  0
    4.1862   -0.2922   -1.0722 H   0  0  0  0  0  0  0  0  0  0  0  0
    3.2859   -1.5623   -0.2199 H   0  0  0  0  0  0  0  0  0  0  0  0
   -2.2516   -1.2331   -0.9383 H   0  0  0  0  0  0  0  0  0  0  0  0
   -4.6620   -1.1888   -1.4487 H   0  0  0  0  0  0  0  0  0  0  0  0
   -6.1467    0.4502   -0.3186 H   0  0  0  0  0  0  0  0  0  0  0  0
   -5.1998    2.0537    1.3049 H   0  0  0  0  0  0  0  0  0  0  0  0
  1  2  1  0
  2  3  1  0
  3  4  2  0
  4  5  1  0
  5  6  1  0
  6  7  1  0
  7  8  1  0
  8  9  1  0
  9 10  1  0
 10 11  1  0
  5 12  2  0
 12 13  1  0
 13 14  1  0
 14 15  2  0
 15 16  1  0
 16 17  2  0
 17 18  1  0
 18 19  2  0
 19 20  1  0
 13 21  2  0
 21  3  1  0
 11  6  1  0
 19 14  1  0
  1 22  1  0
  1 23  1  0
  1 24  1  0
  4 25  1  0
  7 26  1  0
  7 27  1  0
  8 28  1  0
  8 29  1  0
 10 30  1  0
 10 31  1  0
 11 32  1  0
 11 33  1  0
 15 34  1  0
 16 35  1  0
 17 36  1  0
 18 37  1  0
M  END
$$$$
