
     RDKit          3D

 39 41  0  0  0  0  0  0  0  0999 V2000
    1.8404    3.7483   -0.9146 O   0  0  0  0  0  0  0  0  0  0  0  0
    1.7500    2.5708   -0.5785 C   0  0  0  0  0  0  0  0  0  0  0  0
    2.9893    1.7687   -0.4023 C   0  0  0  0  0  0  0  0  0  0  0  0
    3.0737    0.4487   -0.6289 C   0  0  0  0  0  0  0  0  0  0  0  0
    4.3145   -0.3245   -0.4801 C   0  0  0  0  0  0  0  0  0  0  0  0
    5.5636    0.1795   -0.8686 C   0  0  0  0  0  0  0  0  0  0  0  0
    6.7175   -0.5991   -0.7362 C   0  0  0  0  0  0  0  0  0  0  0  0
    6.6253   -1.8908   -0.2239 C   0  0  0  0  0  0  0  0  0  0  0  0
    8.1842   -2.9443   -0.0454 Br  0  0  0  0  0  0  0  0  0  0  0  0
    5.3903   -2.4130    0.1519 C   0  0  0  0  0  0  0  0  0  0  0  0
    4.2380   -1.6327    0.0179 C   0  0  0  0  0  0  0  0  0  0  0  0
    0.4147    1.9669   -0.3527 C   0  0  0  0  0  0  0  0  0  0  0  0
    0.1778    1.0567    0.6814 C   0  0  0  0  0  0  0  0  0  0  0  0
   -1.1032    0.5219    0.8688 C   0  0  0  0  0  0  0  0  0  0  0  0
   -2.1604    0.9018    0.0388 C   0  0  0  0  0  0  0  0  0  0  0  0
   -3.4725    0.4112    0.1611 N   0  0  0  0  0  0  0  0  0  0  0  0
   -3.9641   -0.5203    1.0591 C   0  0  0  0  0  0  0  0  0  0  0  0
   -3.3062   -1.0960    1.9194 O   0  0  0  0  0  0  0  0  0  0  0  0
   -5.3844   -0.7686    0.8804 C   0  0  0  0  0  0  0  0  0  0  0  0
   -6.2542   -1.6061    1.5531 C   0  0  0  0  0  0  0  0  0  0  0  0
   -7.5254   -1.4425    0.9530 C   0  0  0  0  0  0  0  0  0  0  0  0
   -7.3592   -0.5169   -0.0494 C   0  0  0  0  0  0  0  0  0  0  0  0
   -6.0678   -0.1002   -0.1056 O   0  0  0  0  0  0  0  0  0  0  0  0
   -1.9215    1.8352   -0.9782 C   0  0  0  0  0  0  0  0  0  0  0  0
   -0.6440    2.3702   -1.1706 C   0  0  0  0  0  0  0  0  0  0  0  0
    3.8561    2.3643   -0.1331 H   0  0  0  0  0  0  0  0  0  0  0  0
    2.2052   -0.1271   -0.9398 H   0  0  0  0  0  0  0  0  0  0  0  0
    5.6549    1.1781   -1.2902 H   0  0  0  0  0  0  0  0  0  0  0  0
    7.6773   -0.1899   -1.0406 H   0  0  0  0  0  0  0  0  0  0  0  0
    5.3113   -3.4223    0.5472 H   0  0  0  0  0  0  0  0  0  0  0  0
    3.2805   -2.0562    0.3147 H   0  0  0  0  0  0  0  0  0  0  0  0
    0.9715    0.7632    1.3640 H   0  0  0  0  0  0  0  0  0  0  0  0
   -1.2417   -0.1822    1.6838 H   0  0  0  0  0  0  0  0  0  0  0  0
   -4.1648    0.7732   -0.4869 H   0  0  0  0  0  0  0  0  0  0  0  0
   -5.9878   -2.2530    2.3786 H   0  0  0  0  0  0  0  0  0  0  0  0
   -8.4491   -1.9379    1.2186 H   0  0  0  0  0  0  0  0  0  0  0  0
   -8.0274   -0.0719   -0.7742 H   0  0  0  0  0  0  0  0  0  0  0  0
   -2.7248    2.1636   -1.6336 H   0  0  0  0  0  0  0  0  0  0  0  0
   -0.4778    3.1022   -1.9588 H   0  0  0  0  0  0  0  0  0  0  0  0
  1  2  2  0
  2  3  1  0
  3  4  2  3
  4  5  1  0
  5  6  2  0
  6  7  1  0
  7  8  2  0
  8  9  1  0
  8 10  1  0
 10 11  2  0
  2 12  1  0
 12 13  2  0
 13 14  1  0
 14 15  2  0
 15 16  1  0
 16 17  1  0
 17 18  2  0
 17 19  1  0
 19 20  2  0
 20 21  1  0
 21 22  2  0
 22 23  1  0
 15 24  1  0
 24 25  2  0
 11  5  1  0
 25 12  1  0
 23 19  1  0
  3 26  1  0
  4 27  1  0
  6 28  1  0
  7 29  1  0
 10 30  1  0
 11 31  1  0
 13 32  1  0
 14 33  1  0
 16 34  1  0
 20 35  1  0
 21 36  1  0
 22 37  1  0
 24 38  1  0
 25 39  1  0
M  END
$$$$
