
     RDKit          3D

 38 38  0  0  0  0  0  0  0  0999 V2000
    5.7479    2.3170    2.8847 C   0  0  0  0  0  0  0  0  0  0  0  0
    4.5083    2.6562    2.2722 O   0  0  0  0  0  0  0  0  0  0  0  0
    3.7594    1.4872    1.9274 C   0  0  0  0  0  0  0  0  0  0  0  0
    2.4620    1.9188    1.2379 C   0  0  0  0  0  0  0  0  0  0  0  0
    1.5124    0.8372    1.0447 N   0  0  0  0  0  0  0  0  0  0  0  0
    1.7458   -0.1835    0.1520 C   0  0  0  0  0  0  0  0  0  0  0  0
    2.7666   -0.3015   -0.5136 O   0  0  0  0  0  0  0  0  0  0  0  0
    0.6560   -1.1837    0.0916 C   0  0  0  0  0  0  0  0  0  0  0  0
    0.8716   -2.3709    0.8498 C   0  0  0  0  0  0  0  0  0  0  0  0
    1.0104   -3.3317    1.4877 N   0  0  0  0  0  0  0  0  0  0  0  0
   -0.4934   -1.0145   -0.5920 C   0  0  0  0  0  0  0  0  0  0  0  0
   -0.9517    0.0619   -1.4768 C   0  0  0  0  0  0  0  0  0  0  0  0
    0.0315    1.0873   -1.9877 C   0  0  0  0  0  0  0  0  0  0  0  0
   -2.2303    0.1386   -1.9144 C   0  0  0  0  0  0  0  0  0  0  0  0
   -3.3303   -0.7715   -1.5749 C   0  0  0  0  0  0  0  0  0  0  0  0
   -3.5167   -1.9532   -2.3046 C   0  0  0  0  0  0  0  0  0  0  0  0
   -4.5506   -2.8299   -1.9694 C   0  0  0  0  0  0  0  0  0  0  0  0
   -5.4023   -2.5272   -0.9062 C   0  0  0  0  0  0  0  0  0  0  0  0
   -5.2232   -1.3478   -0.1784 C   0  0  0  0  0  0  0  0  0  0  0  0
   -4.1870   -0.4716   -0.5102 C   0  0  0  0  0  0  0  0  0  0  0  0
    5.5767    1.7751    3.8205 H   0  0  0  0  0  0  0  0  0  0  0  0
    6.3614    1.7160    2.2051 H   0  0  0  0  0  0  0  0  0  0  0  0
    6.2828    3.2440    3.1125 H   0  0  0  0  0  0  0  0  0  0  0  0
    4.3527    0.8499    1.2627 H   0  0  0  0  0  0  0  0  0  0  0  0
    3.5319    0.9229    2.8387 H   0  0  0  0  0  0  0  0  0  0  0  0
    1.9586    2.6898    1.8318 H   0  0  0  0  0  0  0  0  0  0  0  0
    2.6895    2.3648    0.2631 H   0  0  0  0  0  0  0  0  0  0  0  0
    0.6438    0.8649    1.5675 H   0  0  0  0  0  0  0  0  0  0  0  0
   -1.2149   -1.8299   -0.4872 H   0  0  0  0  0  0  0  0  0  0  0  0
    0.3204    1.7840   -1.1954 H   0  0  0  0  0  0  0  0  0  0  0  0
   -0.3924    1.6930   -2.7977 H   0  0  0  0  0  0  0  0  0  0  0  0
    0.9242    0.6057   -2.4002 H   0  0  0  0  0  0  0  0  0  0  0  0
   -2.5330    0.9391   -2.5886 H   0  0  0  0  0  0  0  0  0  0  0  0
   -2.8531   -2.2012   -3.1292 H   0  0  0  0  0  0  0  0  0  0  0  0
   -4.6897   -3.7492   -2.5353 H   0  0  0  0  0  0  0  0  0  0  0  0
   -6.2068   -3.2116   -0.6454 H   0  0  0  0  0  0  0  0  0  0  0  0
   -5.8880   -1.1134    0.6523 H   0  0  0  0  0  0  0  0  0  0  0  0
   -4.0505    0.4392    0.0688 H   0  0  0  0  0  0  0  0  0  0  0  0
  1  2  1  0
  2  3  1  0
  3  4  1  0
  4  5  1  0
  5  6  1  0
  6  7  2  0
  6  8  1  0
  8  9  1  0
  9 10  3  0
  8 11  2  3
 11 12  1  0
 12 13  1  0
 12 14  2  3
 14 15  1  0
 15 16  2  0
 16 17  1  0
 17 18  2  0
 18 19  1  0
 19 20  2  0
 20 15  1  0
  1 21  1  0
  1 22  1  0
  1 23  1  0
  3 24  1  0
  3 25  1  0
  4 26  1  0
  4 27  1  0
  5 28  1  0
 11 29  1  0
 13 30  1  0
 13 31  1  0
 13 32  1  0
 14 33  1  0
 16 34  1  0
 17 35  1  0
 18 36  1  0
 19 37  1  0
 20 38  1  0
M  END
$$$$
