
     RDKit          3D

 36 38  0  0  0  0  0  0  0  0999 V2000
   -3.7292    0.8276   -2.5705 C   0  0  0  0  0  0  0  0  0  0  0  0
   -2.7863    0.4068   -1.4873 C   0  0  0  0  0  0  0  0  0  0  0  0
   -1.4722    0.6483   -1.6737 N   0  0  0  0  0  0  0  0  0  0  0  0
   -0.6430    0.2425   -0.6791 C   0  0  0  0  0  0  0  0  0  0  0  0
    1.0977    0.5665   -0.9454 S   0  0  0  0  0  6  0  0  0  0  0  0
    1.2805    2.0111   -0.9370 O   0  0  0  0  0  0  0  0  0  0  0  0
    1.5269   -0.2458   -2.0750 O   0  0  0  0  0  0  0  0  0  0  0  0
    1.8562   -0.0957    0.5321 C   0  0  0  0  0  0  0  0  0  0  0  0
    3.3519    0.1013    0.4666 C   0  0  0  0  0  0  0  0  0  0  0  0
    3.9392    1.2711    0.9722 C   0  0  0  0  0  0  0  0  0  0  0  0
    5.3226    1.4539    0.9090 C   0  0  0  0  0  0  0  0  0  0  0  0
    6.1262    0.4702    0.3378 C   0  0  0  0  0  0  0  0  0  0  0  0
    7.8304    0.6950    0.2624 Cl  0  0  0  0  0  0  0  0  0  0  0  0
    5.5578   -0.6934   -0.1746 C   0  0  0  0  0  0  0  0  0  0  0  0
    4.1746   -0.8773   -0.1120 C   0  0  0  0  0  0  0  0  0  0  0  0
   -0.9653   -0.3774    0.4770 N   0  0  0  0  0  0  0  0  0  0  0  0
   -2.2806   -0.5755    0.6011 C   0  0  0  0  0  0  0  0  0  0  0  0
   -3.2292   -0.2042   -0.3381 C   0  0  0  0  0  0  0  0  0  0  0  0
   -4.6002   -0.6060    0.0870 C   0  0  0  0  0  0  0  0  0  0  0  0
   -4.3870   -0.8437    1.5904 C   0  0  0  0  0  0  0  0  0  0  0  0
   -2.9257   -1.2799    1.7620 C   0  0  0  0  0  0  0  0  0  0  0  0
   -4.2865   -0.0360   -2.9466 H   0  0  0  0  0  0  0  0  0  0  0  0
   -4.4337    1.5743   -2.1914 H   0  0  0  0  0  0  0  0  0  0  0  0
   -3.1843    1.2707   -3.4104 H   0  0  0  0  0  0  0  0  0  0  0  0
    1.4413    0.4235    1.4019 H   0  0  0  0  0  0  0  0  0  0  0  0
    1.6149   -1.1610    0.6026 H   0  0  0  0  0  0  0  0  0  0  0  0
    3.3234    2.0565    1.4077 H   0  0  0  0  0  0  0  0  0  0  0  0
    5.7639    2.3669    1.2995 H   0  0  0  0  0  0  0  0  0  0  0  0
    6.1828   -1.4568   -0.6302 H   0  0  0  0  0  0  0  0  0  0  0  0
    3.7443   -1.7855   -0.5310 H   0  0  0  0  0  0  0  0  0  0  0  0
   -4.8989   -1.5292   -0.4201 H   0  0  0  0  0  0  0  0  0  0  0  0
   -5.3447    0.1756   -0.0874 H   0  0  0  0  0  0  0  0  0  0  0  0
   -5.0923   -1.5719    2.0028 H   0  0  0  0  0  0  0  0  0  0  0  0
   -4.5456    0.1008    2.1294 H   0  0  0  0  0  0  0  0  0  0  0  0
   -2.8171   -2.3629    1.6460 H   0  0  0  0  0  0  0  0  0  0  0  0
   -2.5128   -0.9604    2.7223 H   0  0  0  0  0  0  0  0  0  0  0  0
  1  2  1  0
  2  3  2  0
  3  4  1  0
  4  5  1  0
  5  6  2  0
  5  7  2  0
  5  8  1  0
  8  9  1  0
  9 10  2  0
 10 11  1  0
 11 12  2  0
 12 13  1  0
 12 14  1  0
 14 15  2  0
  4 16  2  0
 16 17  1  0
 17 18  2  0
 18 19  1  0
 19 20  1  0
 20 21  1  0
 18  2  1  0
 15  9  1  0
 21 17  1  0
  1 22  1  0
  1 23  1  0
  1 24  1  0
  8 25  1  0
  8 26  1  0
 10 27  1  0
 11 28  1  0
 14 29  1  0
 15 30  1  0
 19 31  1  0
 19 32  1  0
 20 33  1  0
 20 34  1  0
 21 35  1  0
 21 36  1  0
M  END
$$$$
