
     RDKit          3D

 67 72  0  0  0  0  0  0  0  0999 V2000
    2.8402    1.8219   -2.0985 O   0  0  0  0  0  0  0  0  0  0  0  0
    2.5289    1.3173   -1.0146 C   0  0  0  0  0  0  0  0  0  0  0  0
    3.6196    0.9693    0.0047 C   0  0  0  0  0  0  0  0  0  0  0  0
    4.1761   -0.4276   -0.3347 C   0  0  0  0  0  0  0  0  0  0  0  0
    5.4138   -0.7814    0.4576 C   0  0  0  0  0  0  0  0  0  0  0  0
    6.6693   -0.2984    0.0646 C   0  0  0  0  0  0  0  0  0  0  0  0
    7.8087   -0.6086    0.8078 C   0  0  0  0  0  0  0  0  0  0  0  0
    7.7039   -1.4007    1.9494 C   0  0  0  0  0  0  0  0  0  0  0  0
    6.4597   -1.8842    2.3495 C   0  0  0  0  0  0  0  0  0  0  0  0
    5.3188   -1.5766    1.6077 C   0  0  0  0  0  0  0  0  0  0  0  0
    3.1295    1.0558    1.3755 N   0  0  0  0  0  0  0  0  0  0  0  0
    1.8961    0.4574    1.6024 C   0  0  0  0  0  0  0  0  0  0  0  0
    1.7579   -0.0599    2.8316 N   0  0  0  0  0  0  0  0  0  0  0  0
    0.5564   -0.5495    3.1228 C   0  0  0  0  0  0  0  0  0  0  0  0
   -0.5135   -0.5141    2.3260 N   0  0  0  0  0  0  0  0  0  0  0  0
   -0.3673    0.0372    1.1004 C   0  0  0  0  0  0  0  0  0  0  0  0
   -1.5593    0.2728    0.3866 N   0  0  0  0  0  0  0  0  0  0  0  0
   -2.0078    1.6877    0.5703 C   0  0  0  0  0  0  0  0  0  0  0  0
   -3.4152    1.8174    1.2028 C   0  0  0  0  0  0  0  0  0  0  0  0
   -4.4095    1.0252    0.4576 N   0  0  0  0  0  0  0  0  0  0  0  0
   -5.7714    1.2754    0.5633 C   0  0  0  0  0  0  0  0  0  0  0  0
   -6.6858    0.7046   -0.3391 C   0  0  0  0  0  0  0  0  0  0  0  0
   -8.0615    0.9508   -0.2597 C   0  0  0  0  0  0  0  0  0  0  0  0
   -8.5624    1.7862    0.7300 C   0  0  0  0  0  0  0  0  0  0  0  0
   -7.6852    2.3746    1.6325 C   0  0  0  0  0  0  0  0  0  0  0  0
   -6.3099    2.1229    1.5442 C   0  0  0  0  0  0  0  0  0  0  0  0
   -3.9510   -0.2947   -0.0279 C   0  0  0  0  0  0  0  0  0  0  0  0
   -2.6291   -0.7196    0.6502 C   0  0  0  0  0  0  0  0  0  0  0  0
    0.8861    0.4705    0.6300 C   0  0  0  0  0  0  0  0  0  0  0  0
    1.2193    0.9149   -0.7071 N   0  0  0  0  0  0  0  0  0  0  0  0
    0.3403    0.7339   -1.8567 C   0  0  0  0  0  0  0  0  0  0  0  0
    0.6359   -0.5583   -2.6018 C   0  0  0  0  0  0  0  0  0  0  0  0
    0.1686   -1.7903   -2.1229 C   0  0  0  0  0  0  0  0  0  0  0  0
    0.4633   -2.9765   -2.7999 C   0  0  0  0  0  0  0  0  0  0  0  0
    1.2309   -2.9389   -3.9612 C   0  0  0  0  0  0  0  0  0  0  0  0
    1.5945   -4.3999   -4.7935 Cl  0  0  0  0  0  0  0  0  0  0  0  0
    1.7074   -1.7259   -4.4502 C   0  0  0  0  0  0  0  0  0  0  0  0
    1.4112   -0.5409   -3.7726 C   0  0  0  0  0  0  0  0  0  0  0  0
    4.4075    1.7250   -0.1042 H   0  0  0  0  0  0  0  0  0  0  0  0
    3.4136   -1.2032   -0.1834 H   0  0  0  0  0  0  0  0  0  0  0  0
    4.4241   -0.4814   -1.4037 H   0  0  0  0  0  0  0  0  0  0  0  0
    6.7691    0.3205   -0.8246 H   0  0  0  0  0  0  0  0  0  0  0  0
    8.7795   -0.2323    0.4956 H   0  0  0  0  0  0  0  0  0  0  0  0
    8.5922   -1.6416    2.5270 H   0  0  0  0  0  0  0  0  0  0  0  0
    6.3775   -2.5012    3.2403 H   0  0  0  0  0  0  0  0  0  0  0  0
    4.3538   -1.9583    1.9361 H   0  0  0  0  0  0  0  0  0  0  0  0
    3.7839    0.7912    2.1070 H   0  0  0  0  0  0  0  0  0  0  0  0
    0.4281   -0.9970    4.1020 H   0  0  0  0  0  0  0  0  0  0  0  0
   -1.3008    2.2765    1.1696 H   0  0  0  0  0  0  0  0  0  0  0  0
   -2.0384    2.1523   -0.4227 H   0  0  0  0  0  0  0  0  0  0  0  0
   -3.3864    1.4867    2.2484 H   0  0  0  0  0  0  0  0  0  0  0  0
   -3.6805    2.8815    1.1894 H   0  0  0  0  0  0  0  0  0  0  0  0
   -6.3337    0.0699   -1.1478 H   0  0  0  0  0  0  0  0  0  0  0  0
   -8.7346    0.4934   -0.9793 H   0  0  0  0  0  0  0  0  0  0  0  0
   -9.6288    1.9816    0.7946 H   0  0  0  0  0  0  0  0  0  0  0  0
   -8.0652    3.0308    2.4109 H   0  0  0  0  0  0  0  0  0  0  0  0
   -5.6697    2.5959    2.2825 H   0  0  0  0  0  0  0  0  0  0  0  0
   -4.6931   -1.0743    0.1830 H   0  0  0  0  0  0  0  0  0  0  0  0
   -3.8082   -0.2403   -1.1137 H   0  0  0  0  0  0  0  0  0  0  0  0
   -2.8225   -0.8368    1.7246 H   0  0  0  0  0  0  0  0  0  0  0  0
   -2.3258   -1.6965    0.2568 H   0  0  0  0  0  0  0  0  0  0  0  0
   -0.7185    0.7823   -1.6280 H   0  0  0  0  0  0  0  0  0  0  0  0
    0.4925    1.5781   -2.5426 H   0  0  0  0  0  0  0  0  0  0  0  0
   -0.4275   -1.8367   -1.2164 H   0  0  0  0  0  0  0  0  0  0  0  0
    0.0935   -3.9231   -2.4154 H   0  0  0  0  0  0  0  0  0  0  0  0
    2.3110   -1.6931   -5.3531 H   0  0  0  0  0  0  0  0  0  0  0  0
    1.7997    0.4004   -4.1598 H   0  0  0  0  0  0  0  0  0  0  0  0
  1  2  2  0
  2  3  1  0
  3  4  1  0
  4  5  1  0
  5  6  2  0
  6  7  1  0
  7  8  2  0
  8  9  1  0
  9 10  2  0
  3 11  1  0
 11 12  1  0
 12 13  2  0
 13 14  1  0
 14 15  2  0
 15 16  1  0
 16 17  1  0
 17 18  1  0
 18 19  1  0
 19 20  1  0
 20 21  1  0
 21 22  2  0
 22 23  1  0
 23 24  2  0
 24 25  1  0
 25 26  2  0
 20 27  1  0
 27 28  1  0
 16 29  2  0
 29 30  1  0
 30 31  1  0
 31 32  1  0
 32 33  2  0
 33 34  1  0
 34 35  2  0
 35 36  1  0
 35 37  1  0
 37 38  2  0
 30  2  1  0
 38 32  1  0
 10  5  1  0
 29 12  1  0
 28 17  1  0
 26 21  1  0
  3 39  1  0
  4 40  1  0
  4 41  1  0
  6 42  1  0
  7 43  1  0
  8 44  1  0
  9 45  1  0
 10 46  1  0
 11 47  1  0
 14 48  1  0
 18 49  1  0
 18 50  1  0
 19 51  1  0
 19 52  1  0
 22 53  1  0
 23 54  1  0
 24 55  1  0
 25 56  1  0
 26 57  1  0
 27 58  1  0
 27 59  1  0
 28 60  1  0
 28 61  1  0
 31 62  1  0
 31 63  1  0
 33 64  1  0
 34 65  1  0
 37 66  1  0
 38 67  1  0
M  END
$$$$
