
     RDKit          3D

 42 44  0  0  0  0  0  0  0  0999 V2000
   -4.6084   -2.4288   -2.7146 C   0  0  0  0  0  0  0  0  0  0  0  0
   -4.4883   -1.0233   -2.5423 O   0  0  0  0  0  0  0  0  0  0  0  0
   -3.8655   -0.5909   -1.4040 C   0  0  0  0  0  0  0  0  0  0  0  0
   -3.3539   -1.4043   -0.3891 C   0  0  0  0  0  0  0  0  0  0  0  0
   -2.7355   -0.8333    0.7282 C   0  0  0  0  0  0  0  0  0  0  0  0
   -2.6269    0.5555    0.8228 C   0  0  0  0  0  0  0  0  0  0  0  0
   -1.8461    1.2881    2.2365 S   0  0  0  0  0  6  0  0  0  0  0  0
   -1.5431    0.2478    3.1944 O   0  0  0  0  0  0  0  0  0  0  0  0
   -2.6381    2.4397    2.6135 O   0  0  0  0  0  0  0  0  0  0  0  0
   -0.4091    1.9040    1.5949 N   0  0  0  0  0  0  0  0  0  0  0  0
    0.6862    1.0157    1.4038 C   0  0  0  0  0  0  0  0  0  0  0  0
    0.7484    0.2885    0.2096 C   0  0  0  0  0  0  0  0  0  0  0  0
    1.7848   -0.6235   -0.0224 C   0  0  0  0  0  0  0  0  0  0  0  0
    1.7677   -1.5279   -1.5639 S   0  0  0  0  0  0  0  0  0  0  0  0
    3.2710   -1.0001   -2.2677 C   0  0  0  0  0  0  0  0  0  0  0  0
    4.4697   -1.5483   -1.8914 N   0  0  0  0  0  0  0  0  0  0  0  0
    5.3380   -0.8485   -2.5895 C   0  0  0  0  0  0  0  0  0  0  0  0
    4.6855    0.0775   -3.3376 N   0  0  0  0  0  0  0  0  0  0  0  0
    3.3583    0.0007   -3.1477 N   0  0  0  0  0  0  0  0  0  0  0  0
    2.7478   -0.8063    0.9765 C   0  0  0  0  0  0  0  0  0  0  0  0
    3.7958   -1.6784    0.8647 O   0  0  0  0  0  0  0  0  0  0  0  0
    2.6813   -0.0919    2.1730 C   0  0  0  0  0  0  0  0  0  0  0  0
    1.6570    0.8382    2.3994 C   0  0  0  0  0  0  0  0  0  0  0  0
    1.6078    1.5629    3.7143 C   0  0  0  0  0  0  0  0  0  0  0  0
   -3.1454    1.3791   -0.1786 C   0  0  0  0  0  0  0  0  0  0  0  0
   -3.7591    0.7993   -1.2907 C   0  0  0  0  0  0  0  0  0  0  0  0
   -5.2143   -2.8745   -1.9184 H   0  0  0  0  0  0  0  0  0  0  0  0
   -3.6239   -2.9024   -2.7763 H   0  0  0  0  0  0  0  0  0  0  0  0
   -5.1239   -2.6063   -3.6617 H   0  0  0  0  0  0  0  0  0  0  0  0
   -3.4213   -2.4857   -0.4350 H   0  0  0  0  0  0  0  0  0  0  0  0
   -2.3419   -1.4771    1.5134 H   0  0  0  0  0  0  0  0  0  0  0  0
   -0.2128    2.8341    1.9613 H   0  0  0  0  0  0  0  0  0  0  0  0
   -0.0087    0.4465   -0.5554 H   0  0  0  0  0  0  0  0  0  0  0  0
    6.4119   -0.9610   -2.5939 H   0  0  0  0  0  0  0  0  0  0  0  0
    5.0582    0.7770   -3.9745 H   0  0  0  0  0  0  0  0  0  0  0  0
    3.8864   -1.9442   -0.0693 H   0  0  0  0  0  0  0  0  0  0  0  0
    3.4401   -0.2704    2.9321 H   0  0  0  0  0  0  0  0  0  0  0  0
    1.4055    2.6290    3.5706 H   0  0  0  0  0  0  0  0  0  0  0  0
    0.8364    1.1292    4.3567 H   0  0  0  0  0  0  0  0  0  0  0  0
    2.5640    1.4923    4.2375 H   0  0  0  0  0  0  0  0  0  0  0  0
   -3.0745    2.4606   -0.1009 H   0  0  0  0  0  0  0  0  0  0  0  0
   -4.1609    1.4338   -2.0783 H   0  0  0  0  0  0  0  0  0  0  0  0
  1  2  1  0
  2  3  1  0
  3  4  2  0
  4  5  1  0
  5  6  2  0
  6  7  1  0
  7  8  2  0
  7  9  2  0
  7 10  1  0
 10 11  1  0
 11 12  2  0
 12 13  1  0
 13 14  1  0
 14 15  1  0
 15 16  1  0
 16 17  2  0
 17 18  1  0
 18 19  1  0
 13 20  2  0
 20 21  1  0
 20 22  1  0
 22 23  2  0
 23 24  1  0
  6 25  1  0
 25 26  2  0
 26  3  1  0
 23 11  1  0
 19 15  2  0
  1 27  1  0
  1 28  1  0
  1 29  1  0
  4 30  1  0
  5 31  1  0
 10 32  1  0
 12 33  1  0
 17 34  1  0
 18 35  1  0
 21 36  1  0
 22 37  1  0
 24 38  1  0
 24 39  1  0
 24 40  1  0
 25 41  1  0
 26 42  1  0
M  END
$$$$
