
     RDKit          3D

 71 75  0  0  0  0  0  0  0  0999 V2000
   -9.4926   -0.8486    2.0138 C   0  0  0  0  0  0  0  0  0  0  0  0
   -8.1794   -0.3593    1.4799 C   0  0  0  0  0  0  0  0  0  0  0  0
   -7.5765    0.7810    2.0086 C   0  0  0  0  0  0  0  0  0  0  0  0
   -6.3343    1.2042    1.5346 C   0  0  0  0  0  0  0  0  0  0  0  0
   -5.6622    0.4990    0.5217 C   0  0  0  0  0  0  0  0  0  0  0  0
   -4.3139    1.0027    0.0836 C   0  0  0  0  0  0  0  0  0  0  0  0
   -6.2525   -0.6672   -0.0095 C   0  0  0  0  0  0  0  0  0  0  0  0
   -5.5969   -1.5166   -1.0777 C   0  0  0  0  0  0  0  0  0  0  0  0
   -4.9319   -2.6763   -0.5171 N   0  0  0  0  0  0  0  0  0  0  0  0
   -5.6221   -3.8130   -0.2411 N   0  0  0  0  0  0  0  0  0  0  0  0
   -4.7606   -4.7037    0.2511 N   0  0  0  0  0  0  0  0  0  0  0  0
   -3.5308   -4.1239    0.2405 C   0  0  0  0  0  0  0  0  0  0  0  0
   -2.2489   -4.6241    0.6556 C   0  0  0  0  0  0  0  0  0  0  0  0
   -2.0222   -5.7381    1.1153 O   0  0  0  0  0  0  0  0  0  0  0  0
   -1.2383   -3.6869    0.4737 N   0  0  0  0  0  0  0  0  0  0  0  0
   -1.4306   -2.4267   -0.0883 C   0  0  0  0  0  0  0  0  0  0  0  0
   -0.1746   -1.5708   -0.1747 C   0  0  0  0  0  0  0  0  0  0  0  0
   -0.2989   -0.4657   -1.2310 C   0  0  0  0  0  0  0  0  0  0  0  0
    0.9319    0.4348   -1.2348 C   0  0  0  0  0  0  0  0  0  0  0  0
    1.1117    1.0037    0.1201 N   0  0  0  0  0  0  0  0  0  0  0  0
    2.0463    2.4230    0.2411 S   0  0  0  0  0  6  0  0  0  0  0  0
    2.0286    2.8616    1.6202 O   0  0  0  0  0  0  0  0  0  0  0  0
    1.6656    3.3158   -0.8331 O   0  0  0  0  0  0  0  0  0  0  0  0
    3.6995    1.8516   -0.1100 C   0  0  0  0  0  0  0  0  0  0  0  0
    4.1628    1.8470   -1.4313 C   0  0  0  0  0  0  0  0  0  0  0  0
    5.4666    1.4301   -1.7022 C   0  0  0  0  0  0  0  0  0  0  0  0
    6.3053    1.0533   -0.6460 C   0  0  0  0  0  0  0  0  0  0  0  0
    7.9618    0.4891   -0.9964 S   0  0  0  0  0  6  0  0  0  0  0  0
    7.9574   -0.0228   -2.3508 O   0  0  0  0  0  0  0  0  0  0  0  0
    8.3699   -0.3446    0.1144 O   0  0  0  0  0  0  0  0  0  0  0  0
    8.8739    1.9212   -0.9606 N   0  0  0  0  0  0  0  0  0  0  0  0
    8.6709    2.8764   -2.0628 C   0  0  0  0  0  0  0  0  0  0  0  0
    9.0500    2.5741    0.3481 C   0  0  0  0  0  0  0  0  0  0  0  0
    5.8422    1.0579    0.6750 C   0  0  0  0  0  0  0  0  0  0  0  0
    4.5374    1.4727    0.9458 C   0  0  0  0  0  0  0  0  0  0  0  0
    1.3256   -0.0281    1.1591 C   0  0  0  0  0  0  0  0  0  0  0  0
    0.1158   -0.9579    1.2033 C   0  0  0  0  0  0  0  0  0  0  0  0
   -2.5899   -1.9706   -0.4731 N   0  0  0  0  0  0  0  0  0  0  0  0
   -3.5996   -2.8514   -0.2728 C   0  0  0  0  0  0  0  0  0  0  0  0
   -7.5072   -1.0803    0.4861 C   0  0  0  0  0  0  0  0  0  0  0  0
   -9.3235   -1.5910    2.8004 H   0  0  0  0  0  0  0  0  0  0  0  0
  -10.0806   -0.0227    2.4280 H   0  0  0  0  0  0  0  0  0  0  0  0
  -10.0896   -1.3046    1.2165 H   0  0  0  0  0  0  0  0  0  0  0  0
   -8.0653    1.3468    2.7985 H   0  0  0  0  0  0  0  0  0  0  0  0
   -5.8877    2.0961    1.9710 H   0  0  0  0  0  0  0  0  0  0  0  0
   -4.1331    2.0219    0.4457 H   0  0  0  0  0  0  0  0  0  0  0  0
   -3.5240    0.3640    0.4883 H   0  0  0  0  0  0  0  0  0  0  0  0
   -4.2404    1.0435   -1.0079 H   0  0  0  0  0  0  0  0  0  0  0  0
   -4.8679   -0.9555   -1.6687 H   0  0  0  0  0  0  0  0  0  0  0  0
   -6.3488   -1.8795   -1.7897 H   0  0  0  0  0  0  0  0  0  0  0  0
   -0.3205   -4.0038    0.7492 H   0  0  0  0  0  0  0  0  0  0  0  0
    0.6629   -2.2272   -0.4488 H   0  0  0  0  0  0  0  0  0  0  0  0
   -1.1870    0.1495   -1.0363 H   0  0  0  0  0  0  0  0  0  0  0  0
   -0.4352   -0.9098   -2.2241 H   0  0  0  0  0  0  0  0  0  0  0  0
    0.7749    1.2282   -1.9717 H   0  0  0  0  0  0  0  0  0  0  0  0
    1.8203   -0.1355   -1.5272 H   0  0  0  0  0  0  0  0  0  0  0  0
    3.5176    2.1664   -2.2482 H   0  0  0  0  0  0  0  0  0  0  0  0
    5.8233    1.4059   -2.7300 H   0  0  0  0  0  0  0  0  0  0  0  0
    9.5147    3.5729   -2.1050 H   0  0  0  0  0  0  0  0  0  0  0  0
    7.7533    3.4543   -1.9191 H   0  0  0  0  0  0  0  0  0  0  0  0
    8.6334    2.3655   -3.0296 H   0  0  0  0  0  0  0  0  0  0  0  0
    9.9017    3.2610    0.3031 H   0  0  0  0  0  0  0  0  0  0  0  0
    9.2732    1.8443    1.1312 H   0  0  0  0  0  0  0  0  0  0  0  0
    8.1589    3.1460    0.6247 H   0  0  0  0  0  0  0  0  0  0  0  0
    6.4895    0.7459    1.4925 H   0  0  0  0  0  0  0  0  0  0  0  0
    4.1831    1.4994    1.9747 H   0  0  0  0  0  0  0  0  0  0  0  0
    1.4419    0.4326    2.1453 H   0  0  0  0  0  0  0  0  0  0  0  0
    2.2327   -0.6019    0.9381 H   0  0  0  0  0  0  0  0  0  0  0  0
    0.2897   -1.7476    1.9446 H   0  0  0  0  0  0  0  0  0  0  0  0
   -0.7635   -0.3963    1.5484 H   0  0  0  0  0  0  0  0  0  0  0  0
   -7.9635   -1.9916    0.0980 H   0  0  0  0  0  0  0  0  0  0  0  0
  1  2  1  0
  2  3  2  0
  3  4  1  0
  4  5  2  0
  5  6  1  0
  5  7  1  0
  7  8  1  0
  8  9  1  0
  9 10  1  0
 10 11  2  0
 11 12  1  0
 12 13  1  0
 13 14  2  0
 13 15  1  0
 15 16  1  0
 16 17  1  0
 17 18  1  0
 18 19  1  0
 19 20  1  0
 20 21  1  0
 21 22  2  0
 21 23  2  0
 21 24  1  0
 24 25  2  0
 25 26  1  0
 26 27  2  0
 27 28  1  0
 28 29  2  0
 28 30  2  0
 28 31  1  0
 31 32  1  0
 31 33  1  0
 27 34  1  0
 34 35  2  0
 20 36  1  0
 36 37  1  0
 16 38  2  0
 38 39  1  0
  7 40  2  0
 40  2  1  0
 39  9  1  0
 39 12  2  0
 37 17  1  0
 35 24  1  0
  1 41  1  0
  1 42  1  0
  1 43  1  0
  3 44  1  0
  4 45  1  0
  6 46  1  0
  6 47  1  0
  6 48  1  0
  8 49  1  0
  8 50  1  0
 15 51  1  0
 17 52  1  0
 18 53  1  0
 18 54  1  0
 19 55  1  0
 19 56  1  0
 25 57  1  0
 26 58  1  0
 32 59  1  0
 32 60  1  0
 32 61  1  0
 33 62  1  0
 33 63  1  0
 33 64  1  0
 34 65  1  0
 35 66  1  0
 36 67  1  0
 36 68  1  0
 37 69  1  0
 37 70  1  0
 40 71  1  0
M  END
$$$$
