
     RDKit          3D

 54 57  0  0  0  0  0  0  0  0999 V2000
   -6.2064   -0.5348   -0.0783 C   0  0  0  0  0  0  0  0  0  0  0  0
   -5.8580    0.8168   -0.3492 O   0  0  0  0  0  0  0  0  0  0  0  0
   -4.5236    1.1291   -0.3741 C   0  0  0  0  0  0  0  0  0  0  0  0
   -3.4816    0.1979   -0.2758 C   0  0  0  0  0  0  0  0  0  0  0  0
   -2.1235    0.5890   -0.2941 C   0  0  0  0  0  0  0  0  0  0  0  0
   -1.0562   -0.4261   -0.1927 C   0  0  0  0  0  0  0  0  0  0  0  0
    0.1332   -0.2080    0.4782 C   0  0  0  0  0  0  0  0  0  0  0  0
    1.0718   -1.2399    0.5165 C   0  0  0  0  0  0  0  0  0  0  0  0
    2.3388   -0.9455    1.2223 C   0  0  0  0  0  0  0  0  0  0  0  0
    2.2729   -0.6146    2.3974 O   0  0  0  0  0  0  0  0  0  0  0  0
    3.4623   -1.0395    0.4250 N   0  0  0  0  0  0  0  0  0  0  0  0
    4.8038   -0.8462    0.8135 C   0  0  0  0  0  0  0  0  0  0  0  0
    5.2010   -0.5397    2.1167 C   0  0  0  0  0  0  0  0  0  0  0  0
    6.5556   -0.3738    2.4229 C   0  0  0  0  0  0  0  0  0  0  0  0
    7.5134   -0.5153    1.4278 C   0  0  0  0  0  0  0  0  0  0  0  0
    8.8206   -0.3471    1.7736 O   0  0  0  0  0  0  0  0  0  0  0  0
    7.1399   -0.8196    0.1246 C   0  0  0  0  0  0  0  0  0  0  0  0
    5.7847   -0.9850   -0.1795 C   0  0  0  0  0  0  0  0  0  0  0  0
    0.8106   -2.4939   -0.0761 C   0  0  0  0  0  0  0  0  0  0  0  0
    1.6747   -3.6188   -0.0276 C   0  0  0  0  0  0  0  0  0  0  0  0
    1.3308   -4.8167   -0.6510 C   0  0  0  0  0  0  0  0  0  0  0  0
    0.1205   -4.9137   -1.3214 C   0  0  0  0  0  0  0  0  0  0  0  0
   -0.7413   -3.8154   -1.3537 C   0  0  0  0  0  0  0  0  0  0  0  0
   -0.4239   -2.6118   -0.7381 C   0  0  0  0  0  0  0  0  0  0  0  0
   -1.3190   -1.6117   -0.7976 N   0  0  0  0  0  0  0  0  0  0  0  0
   -1.8376    1.9586   -0.4172 C   0  0  0  0  0  0  0  0  0  0  0  0
   -2.8670    2.8963   -0.5052 C   0  0  0  0  0  0  0  0  0  0  0  0
   -2.5181    4.2124   -0.6698 O   0  0  0  0  0  0  0  0  0  0  0  0
   -2.6689    4.9248    0.5579 C   0  0  0  0  0  0  0  0  0  0  0  0
   -4.2031    2.4849   -0.5192 C   0  0  0  0  0  0  0  0  0  0  0  0
   -5.1921    3.4345   -0.6173 O   0  0  0  0  0  0  0  0  0  0  0  0
   -5.6358    3.5335   -1.9696 C   0  0  0  0  0  0  0  0  0  0  0  0
   -7.2960   -0.5905   -0.0038 H   0  0  0  0  0  0  0  0  0  0  0  0
   -5.7934   -0.8679    0.8788 H   0  0  0  0  0  0  0  0  0  0  0  0
   -5.8922   -1.1914   -0.8962 H   0  0  0  0  0  0  0  0  0  0  0  0
   -3.6971   -0.8640   -0.1838 H   0  0  0  0  0  0  0  0  0  0  0  0
    0.3373    0.7320    0.9815 H   0  0  0  0  0  0  0  0  0  0  0  0
    3.3114   -1.2610   -0.5516 H   0  0  0  0  0  0  0  0  0  0  0  0
    4.4831   -0.4226    2.9226 H   0  0  0  0  0  0  0  0  0  0  0  0
    6.8564   -0.1352    3.4393 H   0  0  0  0  0  0  0  0  0  0  0  0
    9.3714   -0.4649    0.9831 H   0  0  0  0  0  0  0  0  0  0  0  0
    7.8797   -0.9330   -0.6617 H   0  0  0  0  0  0  0  0  0  0  0  0
    5.5093   -1.2242   -1.2037 H   0  0  0  0  0  0  0  0  0  0  0  0
    2.6168   -3.5785    0.5164 H   0  0  0  0  0  0  0  0  0  0  0  0
    2.0011   -5.6713   -0.6033 H   0  0  0  0  0  0  0  0  0  0  0  0
   -0.1647   -5.8426   -1.8093 H   0  0  0  0  0  0  0  0  0  0  0  0
   -1.6951   -3.9039   -1.8701 H   0  0  0  0  0  0  0  0  0  0  0  0
   -0.8109    2.3137   -0.4621 H   0  0  0  0  0  0  0  0  0  0  0  0
   -3.6399    4.7531    1.0369 H   0  0  0  0  0  0  0  0  0  0  0  0
   -2.5851    5.9935    0.3346 H   0  0  0  0  0  0  0  0  0  0  0  0
   -1.8629    4.6562    1.2472 H   0  0  0  0  0  0  0  0  0  0  0  0
   -6.3166    4.3879   -2.0350 H   0  0  0  0  0  0  0  0  0  0  0  0
   -4.8016    3.7143   -2.6569 H   0  0  0  0  0  0  0  0  0  0  0  0
   -6.1894    2.6386   -2.2717 H   0  0  0  0  0  0  0  0  0  0  0  0
  1  2  1  0
  2  3  1  0
  3  4  2  0
  4  5  1  0
  5  6  1  0
  6  7  2  0
  7  8  1  0
  8  9  1  0
  9 10  2  0
  9 11  1  0
 11 12  1  0
 12 13  2  0
 13 14  1  0
 14 15  2  0
 15 16  1  0
 15 17  1  0
 17 18  2  0
  8 19  2  0
 19 20  1  0
 20 21  2  0
 21 22  1  0
 22 23  2  0
 23 24  1  0
 24 25  2  0
  5 26  2  0
 26 27  1  0
 27 28  1  0
 28 29  1  0
 27 30  2  0
 30 31  1  0
 31 32  1  0
 30  3  1  0
 25  6  1  0
 18 12  1  0
 24 19  1  0
  1 33  1  0
  1 34  1  0
  1 35  1  0
  4 36  1  0
  7 37  1  0
 11 38  1  0
 13 39  1  0
 14 40  1  0
 16 41  1  0
 17 42  1  0
 18 43  1  0
 20 44  1  0
 21 45  1  0
 22 46  1  0
 23 47  1  0
 26 48  1  0
 29 49  1  0
 29 50  1  0
 29 51  1  0
 32 52  1  0
 32 53  1  0
 32 54  1  0
M  END
$$$$
