
     RDKit          3D

 59 64  0  0  0  0  0  0  0  0999 V2000
   -6.1758   -2.0854    0.4378 C   0  0  0  0  0  0  0  0  0  0  0  0
   -6.2797   -0.6808    0.9107 C   0  0  0  0  0  0  0  0  0  0  0  0
   -7.2077   -0.2212    1.7259 N   0  0  0  0  0  0  0  0  0  0  0  0
   -6.9342    1.1121    1.8946 C   0  0  0  0  0  0  0  0  0  0  0  0
   -7.6117    2.0713    2.6613 C   0  0  0  0  0  0  0  0  0  0  0  0
   -7.1324    3.3868    2.6734 C   0  0  0  0  0  0  0  0  0  0  0  0
   -6.0000    3.7398    1.9376 C   0  0  0  0  0  0  0  0  0  0  0  0
   -5.3102    2.7959    1.1682 C   0  0  0  0  0  0  0  0  0  0  0  0
   -5.8080    1.4862    1.1684 C   0  0  0  0  0  0  0  0  0  0  0  0
   -5.4056    0.3227    0.5521 N   0  0  0  0  0  0  0  0  0  0  0  0
   -4.2534    0.1930   -0.3226 C   0  0  0  0  0  0  0  0  0  0  0  0
   -2.9745   -0.0840    0.4603 C   0  0  0  0  0  0  0  0  0  0  0  0
   -1.7746   -0.1637   -0.4148 C   0  0  0  0  0  0  0  0  0  0  0  0
   -1.8550   -0.2385   -1.7848 N   0  0  0  0  0  0  0  0  0  0  0  0
   -0.5926   -0.2784   -2.1516 C   0  0  0  0  0  0  0  0  0  0  0  0
    0.0348   -0.3437   -3.4529 C   0  0  0  0  0  0  0  0  0  0  0  0
   -0.6950   -0.3900   -4.6416 C   0  0  0  0  0  0  0  0  0  0  0  0
   -0.0190   -0.4460   -5.8600 C   0  0  0  0  0  0  0  0  0  0  0  0
    1.3772   -0.4543   -5.8866 C   0  0  0  0  0  0  0  0  0  0  0  0
    2.1059   -0.4091   -4.6947 C   0  0  0  0  0  0  0  0  0  0  0  0
    1.4464   -0.3541   -3.4671 C   0  0  0  0  0  0  0  0  0  0  0  0
    2.2185   -0.3101   -2.2765 N   0  0  0  0  0  0  0  0  0  0  0  0
    1.6123   -0.2541   -1.1203 C   0  0  0  0  0  0  0  0  0  0  0  0
    2.5821   -0.2151    0.3442 S   0  0  0  0  0  0  0  0  0  0  0  0
    4.0178    0.7075   -0.2822 C   0  0  0  0  0  0  0  0  0  0  0  0
    4.9666    1.0043    0.8625 C   0  0  0  0  0  0  0  0  0  0  0  0
    5.0460    2.1148    1.3847 O   0  0  0  0  0  0  0  0  0  0  0  0
    5.7434   -0.0646    1.2441 N   0  0  0  0  0  0  0  0  0  0  0  0
    6.5794    0.0181    2.4188 C   0  0  0  0  0  0  0  0  0  0  0  0
    7.5380   -1.1135    2.4002 C   0  0  0  0  0  0  0  0  0  0  0  0
    8.9148   -1.1892    2.4630 C   0  0  0  0  0  0  0  0  0  0  0  0
    9.2455   -2.5641    2.3981 C   0  0  0  0  0  0  0  0  0  0  0  0
    8.0532   -3.2406    2.3003 C   0  0  0  0  0  0  0  0  0  0  0  0
    7.0101   -2.3704    2.3019 O   0  0  0  0  0  0  0  0  0  0  0  0
    0.2126   -0.2387   -1.0452 N   0  0  0  0  0  0  0  0  0  0  0  0
   -0.5306   -0.1671    0.0834 N   0  0  0  0  0  0  0  0  0  0  0  0
   -6.2944   -2.1386   -0.6493 H   0  0  0  0  0  0  0  0  0  0  0  0
   -6.9604   -2.7003    0.8915 H   0  0  0  0  0  0  0  0  0  0  0  0
   -5.2091   -2.5187    0.7118 H   0  0  0  0  0  0  0  0  0  0  0  0
   -8.4898    1.7874    3.2302 H   0  0  0  0  0  0  0  0  0  0  0  0
   -7.6499    4.1388    3.2633 H   0  0  0  0  0  0  0  0  0  0  0  0
   -5.6452    4.7683    1.9624 H   0  0  0  0  0  0  0  0  0  0  0  0
   -4.4302    3.0790    0.6008 H   0  0  0  0  0  0  0  0  0  0  0  0
   -4.1728    1.1216   -0.9030 H   0  0  0  0  0  0  0  0  0  0  0  0
   -4.4621   -0.6073   -1.0430 H   0  0  0  0  0  0  0  0  0  0  0  0
   -2.8187    0.7056    1.2084 H   0  0  0  0  0  0  0  0  0  0  0  0
   -3.0731   -1.0266    1.0158 H   0  0  0  0  0  0  0  0  0  0  0  0
   -1.7815   -0.3808   -4.6221 H   0  0  0  0  0  0  0  0  0  0  0  0
   -0.5803   -0.4816   -6.7914 H   0  0  0  0  0  0  0  0  0  0  0  0
    1.9005   -0.4959   -6.8393 H   0  0  0  0  0  0  0  0  0  0  0  0
    3.1923   -0.4162   -4.7241 H   0  0  0  0  0  0  0  0  0  0  0  0
    3.6978    1.6603   -0.7241 H   0  0  0  0  0  0  0  0  0  0  0  0
    4.5523    0.1284   -1.0481 H   0  0  0  0  0  0  0  0  0  0  0  0
    5.4313   -0.9947    0.9854 H   0  0  0  0  0  0  0  0  0  0  0  0
    7.1010    0.9815    2.4310 H   0  0  0  0  0  0  0  0  0  0  0  0
    5.9342   -0.0388    3.3021 H   0  0  0  0  0  0  0  0  0  0  0  0
    9.5922   -0.3512    2.5428 H   0  0  0  0  0  0  0  0  0  0  0  0
   10.2299   -3.0089    2.4198 H   0  0  0  0  0  0  0  0  0  0  0  0
    7.7911   -4.2867    2.2261 H   0  0  0  0  0  0  0  0  0  0  0  0
  1  2  1  0
  2  3  2  0
  3  4  1  0
  4  5  2  0
  5  6  1  0
  6  7  2  0
  7  8  1  0
  8  9  2  0
  9 10  1  0
 10 11  1  0
 11 12  1  0
 12 13  1  0
 13 14  1  0
 14 15  2  0
 15 16  1  0
 16 17  2  0
 17 18  1  0
 18 19  2  0
 19 20  1  0
 20 21  2  0
 21 22  1  0
 22 23  2  0
 23 24  1  0
 24 25  1  0
 25 26  1  0
 26 27  2  0
 26 28  1  0
 28 29  1  0
 29 30  1  0
 30 31  2  0
 31 32  1  0
 32 33  2  0
 33 34  1  0
 23 35  1  0
 35 36  1  0
 10  2  1  0
 36 13  2  0
  9  4  1  0
 35 15  1  0
 21 16  1  0
 34 30  1  0
  1 37  1  0
  1 38  1  0
  1 39  1  0
  5 40  1  0
  6 41  1  0
  7 42  1  0
  8 43  1  0
 11 44  1  0
 11 45  1  0
 12 46  1  0
 12 47  1  0
 17 48  1  0
 18 49  1  0
 19 50  1  0
 20 51  1  0
 25 52  1  0
 25 53  1  0
 28 54  1  0
 29 55  1  0
 29 56  1  0
 31 57  1  0
 32 58  1  0
 33 59  1  0
M  END
$$$$
