
     RDKit          3D

 33 35  0  0  0  0  0  0  0  0999 V2000
   -0.0452    2.1288   -1.0774 O   0  0  0  0  0  0  0  0  0  0  0  0
   -0.0338    1.0309   -0.5231 C   0  0  0  0  0  0  0  0  0  0  0  0
   -1.3153    0.3139   -0.1969 C   0  0  0  0  0  0  0  0  0  0  0  0
   -2.4458    1.0061   -0.4413 C   0  0  0  0  0  0  0  0  0  0  0  0
   -3.7601    0.5241   -0.2000 C   0  0  0  0  0  0  0  0  0  0  0  0
   -4.3435    0.0125    0.9547 C   0  0  0  0  0  0  0  0  0  0  0  0
   -5.6959   -0.2879    0.6665 C   0  0  0  0  0  0  0  0  0  0  0  0
   -5.8861    0.0720   -0.6421 C   0  0  0  0  0  0  0  0  0  0  0  0
   -4.7412    0.5709   -1.1656 O   0  0  0  0  0  0  0  0  0  0  0  0
   -1.2100   -1.0833    0.3375 C   0  0  0  0  0  0  0  0  0  0  0  0
   -0.0936   -1.1705    1.3616 C   0  0  0  0  0  0  0  0  0  0  0  0
    1.2449   -0.8813    0.6972 C   0  0  0  0  0  0  0  0  0  0  0  0
    1.2620    0.3691   -0.1386 C   0  0  0  0  0  0  0  0  0  0  0  0
    2.3727    0.9923   -0.5847 C   0  0  0  0  0  0  0  0  0  0  0  0
    3.7051    0.5319   -0.3763 C   0  0  0  0  0  0  0  0  0  0  0  0
    4.8913    1.2057   -0.6537 C   0  0  0  0  0  0  0  0  0  0  0  0
    5.9713    0.3627   -0.3019 C   0  0  0  0  0  0  0  0  0  0  0  0
    5.4025   -0.7914    0.1687 C   0  0  0  0  0  0  0  0  0  0  0  0
    4.0521   -0.7037    0.1258 O   0  0  0  0  0  0  0  0  0  0  0  0
   -2.3994    1.9925   -0.8995 H   0  0  0  0  0  0  0  0  0  0  0  0
   -3.8433   -0.1161    1.9048 H   0  0  0  0  0  0  0  0  0  0  0  0
   -6.4397   -0.7013    1.3325 H   0  0  0  0  0  0  0  0  0  0  0  0
   -6.7338    0.0470   -1.3124 H   0  0  0  0  0  0  0  0  0  0  0  0
   -1.0122   -1.7708   -0.4947 H   0  0  0  0  0  0  0  0  0  0  0  0
   -2.1334   -1.4275    0.8077 H   0  0  0  0  0  0  0  0  0  0  0  0
   -0.0703   -2.1734    1.8036 H   0  0  0  0  0  0  0  0  0  0  0  0
   -0.2709   -0.4637    2.1827 H   0  0  0  0  0  0  0  0  0  0  0  0
    1.5090   -1.7327    0.0568 H   0  0  0  0  0  0  0  0  0  0  0  0
    1.9941   -0.8209    1.4950 H   0  0  0  0  0  0  0  0  0  0  0  0
    2.2822    1.9112   -1.1620 H   0  0  0  0  0  0  0  0  0  0  0  0
    4.9588    2.2035   -1.0663 H   0  0  0  0  0  0  0  0  0  0  0  0
    7.0285    0.5710   -0.3845 H   0  0  0  0  0  0  0  0  0  0  0  0
    5.7991   -1.7217    0.5502 H   0  0  0  0  0  0  0  0  0  0  0  0
  1  2  2  0
  2  3  1  0
  3  4  2  3
  4  5  1  0
  5  6  2  0
  6  7  1  0
  7  8  2  0
  8  9  1  0
  3 10  1  0
 10 11  1  0
 11 12  1  0
 12 13  1  0
 13 14  2  3
 14 15  1  0
 15 16  2  0
 16 17  1  0
 17 18  2  0
 18 19  1  0
 13  2  1  0
 19 15  1  0
  9  5  1  0
  4 20  1  0
  6 21  1  0
  7 22  1  0
  8 23  1  0
 10 24  1  0
 10 25  1  0
 11 26  1  0
 11 27  1  0
 12 28  1  0
 12 29  1  0
 14 30  1  0
 16 31  1  0
 17 32  1  0
 18 33  1  0
M  END
$$$$
