
     RDKit          3D

 46 49  0  0  0  0  0  0  0  0999 V2000
    2.9720   -1.2495    3.0272 O   0  0  0  0  0  0  0  0  0  0  0  0
    2.2081   -0.3094    2.8270 C   0  0  0  0  0  0  0  0  0  0  0  0
    0.7774   -0.5454    2.3734 C   0  0  0  0  0  0  0  0  0  0  0  0
    0.6853   -0.3400    0.5685 S   0  0  0  0  0  0  0  0  0  0  0  0
   -1.0173   -0.5159    0.3342 C   0  0  0  0  0  0  0  0  0  0  0  0
   -1.9252   -0.4231    1.2745 N   0  0  0  0  0  0  0  0  0  0  0  0
   -3.1508   -0.5833    0.6857 N   0  0  0  0  0  0  0  0  0  0  0  0
   -2.9716   -0.7765   -0.6086 C   0  0  0  0  0  0  0  0  0  0  0  0
   -4.0698   -0.9499   -1.6089 C   0  0  0  0  0  0  0  0  0  0  0  0
   -4.1182   -2.3058   -2.2581 C   0  0  0  0  0  0  0  0  0  0  0  0
   -4.0309   -2.6056   -3.6054 C   0  0  0  0  0  0  0  0  0  0  0  0
   -4.1279   -4.0038   -3.8596 C   0  0  0  0  0  0  0  0  0  0  0  0
   -4.3005   -4.7264   -2.7010 C   0  0  0  0  0  0  0  0  0  0  0  0
   -4.3516   -3.7222   -1.3187 S   0  0  0  0  0  0  0  0  0  0  0  0
   -1.6174   -0.7406   -0.8760 N   0  0  0  0  0  0  0  0  0  0  0  0
   -0.9696   -0.9336   -2.1581 C   0  0  0  0  0  0  0  0  0  0  0  0
   -1.0073    0.3125   -2.9616 C   0  0  0  0  0  0  0  0  0  0  0  0
   -0.2918    1.4924   -2.9247 C   0  0  0  0  0  0  0  0  0  0  0  0
   -0.8028    2.3020   -3.9676 C   0  0  0  0  0  0  0  0  0  0  0  0
   -1.7910    1.5654   -4.5769 C   0  0  0  0  0  0  0  0  0  0  0  0
   -1.9202    0.3551   -3.9758 O   0  0  0  0  0  0  0  0  0  0  0  0
    2.5084    1.0391    2.9673 N   0  0  0  0  0  0  0  0  0  0  0  0
    3.7278    1.6114    3.3856 C   0  0  0  0  0  0  0  0  0  0  0  0
    4.8386    0.8706    3.7961 C   0  0  0  0  0  0  0  0  0  0  0  0
    6.0138    1.5136    4.2016 C   0  0  0  0  0  0  0  0  0  0  0  0
    6.0893    2.9048    4.1958 C   0  0  0  0  0  0  0  0  0  0  0  0
    4.9848    3.6467    3.7899 C   0  0  0  0  0  0  0  0  0  0  0  0
    5.0678    5.3664    3.7815 Cl  0  0  0  0  0  0  0  0  0  0  0  0
    3.8094    3.0099    3.3868 C   0  0  0  0  0  0  0  0  0  0  0  0
    0.4791   -1.5601    2.6565 H   0  0  0  0  0  0  0  0  0  0  0  0
    0.1154    0.1623    2.8838 H   0  0  0  0  0  0  0  0  0  0  0  0
   -5.0322   -0.7692   -1.1122 H   0  0  0  0  0  0  0  0  0  0  0  0
   -3.9856   -0.1711   -2.3759 H   0  0  0  0  0  0  0  0  0  0  0  0
   -3.8988   -1.8547   -4.3768 H   0  0  0  0  0  0  0  0  0  0  0  0
   -4.0805   -4.4557   -4.8428 H   0  0  0  0  0  0  0  0  0  0  0  0
   -4.4078   -5.7976   -2.5970 H   0  0  0  0  0  0  0  0  0  0  0  0
   -1.4632   -1.7603   -2.6732 H   0  0  0  0  0  0  0  0  0  0  0  0
    0.0640   -1.2546   -1.9995 H   0  0  0  0  0  0  0  0  0  0  0  0
    0.4991    1.7407   -2.2296 H   0  0  0  0  0  0  0  0  0  0  0  0
   -0.4898    3.2998   -4.2432 H   0  0  0  0  0  0  0  0  0  0  0  0
   -2.4584    1.7506   -5.4078 H   0  0  0  0  0  0  0  0  0  0  0  0
    1.7803    1.6905    2.6960 H   0  0  0  0  0  0  0  0  0  0  0  0
    4.8240   -0.2154    3.8214 H   0  0  0  0  0  0  0  0  0  0  0  0
    6.8679    0.9218    4.5238 H   0  0  0  0  0  0  0  0  0  0  0  0
    7.0042    3.3988    4.5114 H   0  0  0  0  0  0  0  0  0  0  0  0
    2.9635    3.6151    3.0726 H   0  0  0  0  0  0  0  0  0  0  0  0
  1  2  2  0
  2  3  1  0
  3  4  1  0
  4  5  1  0
  5  6  2  0
  6  7  1  0
  7  8  2  0
  8  9  1  0
  9 10  1  0
 10 11  2  0
 11 12  1  0
 12 13  2  0
 13 14  1  0
  8 15  1  0
 15 16  1  0
 16 17  1  0
 17 18  2  0
 18 19  1  0
 19 20  2  0
 20 21  1  0
  2 22  1  0
 22 23  1  0
 23 24  2  0
 24 25  1  0
 25 26  2  0
 26 27  1  0
 27 28  1  0
 27 29  2  0
 15  5  1  0
 21 17  1  0
 29 23  1  0
 14 10  1  0
  3 30  1  0
  3 31  1  0
  9 32  1  0
  9 33  1  0
 11 34  1  0
 12 35  1  0
 13 36  1  0
 16 37  1  0
 16 38  1  0
 18 39  1  0
 19 40  1  0
 20 41  1  0
 22 42  1  0
 24 43  1  0
 25 44  1  0
 26 45  1  0
 29 46  1  0
M  END
$$$$
