
     RDKit          3D

 41 42  0  0  0  0  0  0  0  0999 V2000
    6.7187    1.2342   -0.3674 C   0  0  0  0  0  0  0  0  0  0  0  0
    5.4743    0.7015    0.0872 O   0  0  0  0  0  0  0  0  0  0  0  0
    4.9660   -0.2767   -0.7130 C   0  0  0  0  0  0  0  0  0  0  0  0
    5.5033   -0.6813   -1.7359 O   0  0  0  0  0  0  0  0  0  0  0  0
    3.7391   -0.8126   -0.1526 C   0  0  0  0  0  0  0  0  0  0  0  0
    3.2304   -2.0741   -0.4185 C   0  0  0  0  0  0  0  0  0  0  0  0
    2.1004   -2.2719    0.3941 C   0  0  0  0  0  0  0  0  0  0  0  0
    1.8898   -1.1225    1.1427 C   0  0  0  0  0  0  0  0  0  0  0  0
    0.6542   -0.8415    2.3989 S   0  0  0  0  0  6  0  0  0  0  0  0
    0.9099    0.4565    2.9763 O   0  0  0  0  0  0  0  0  0  0  0  0
    0.6573   -2.0451    3.1965 O   0  0  0  0  0  0  0  0  0  0  0  0
   -0.8211   -0.7908    1.6072 N   0  0  0  0  0  0  0  0  0  0  0  0
   -1.1155    0.4245    0.8456 C   0  0  0  0  0  0  0  0  0  0  0  0
   -2.4050    0.2764    0.0762 C   0  0  0  0  0  0  0  0  0  0  0  0
   -2.4885   -0.6248   -0.9926 C   0  0  0  0  0  0  0  0  0  0  0  0
   -3.6821   -0.7691   -1.7033 C   0  0  0  0  0  0  0  0  0  0  0  0
   -4.8110   -0.0228   -1.3600 C   0  0  0  0  0  0  0  0  0  0  0  0
   -5.9113   -0.2608   -2.1363 O   0  0  0  0  0  0  0  0  0  0  0  0
   -7.0910    0.4678   -1.8216 C   0  0  0  0  0  0  0  0  0  0  0  0
   -4.7361    0.8725   -0.2931 C   0  0  0  0  0  0  0  0  0  0  0  0
   -3.5411    1.0198    0.4218 C   0  0  0  0  0  0  0  0  0  0  0  0
    2.8397   -0.2029    0.7154 N   0  0  0  0  0  0  0  0  0  0  0  0
    2.8527    1.2060    1.0609 C   0  0  0  0  0  0  0  0  0  0  0  0
    7.0365    2.0033    0.3419 H   0  0  0  0  0  0  0  0  0  0  0  0
    6.6007    1.6989   -1.3514 H   0  0  0  0  0  0  0  0  0  0  0  0
    7.4841    0.4523   -0.3953 H   0  0  0  0  0  0  0  0  0  0  0  0
    3.6788   -2.7951   -1.0928 H   0  0  0  0  0  0  0  0  0  0  0  0
    1.5037   -3.1731    0.4727 H   0  0  0  0  0  0  0  0  0  0  0  0
   -1.5721   -1.0795    2.2339 H   0  0  0  0  0  0  0  0  0  0  0  0
   -0.3117    0.6393    0.1330 H   0  0  0  0  0  0  0  0  0  0  0  0
   -1.1943    1.2761    1.5308 H   0  0  0  0  0  0  0  0  0  0  0  0
   -1.6253   -1.2251   -1.2737 H   0  0  0  0  0  0  0  0  0  0  0  0
   -3.7337   -1.4729   -2.5306 H   0  0  0  0  0  0  0  0  0  0  0  0
   -6.9345    1.5446   -1.9446 H   0  0  0  0  0  0  0  0  0  0  0  0
   -7.4436    0.2316   -0.8122 H   0  0  0  0  0  0  0  0  0  0  0  0
   -7.8705    0.1624   -2.5263 H   0  0  0  0  0  0  0  0  0  0  0  0
   -5.5885    1.4710    0.0104 H   0  0  0  0  0  0  0  0  0  0  0  0
   -3.5094    1.7226    1.2520 H   0  0  0  0  0  0  0  0  0  0  0  0
    3.3474    1.3214    2.0274 H   0  0  0  0  0  0  0  0  0  0  0  0
    3.3702    1.7765    0.2872 H   0  0  0  0  0  0  0  0  0  0  0  0
    1.8290    1.5835    1.0812 H   0  0  0  0  0  0  0  0  0  0  0  0
  1  2  1  0
  2  3  1  0
  3  4  2  0
  3  5  1  0
  5  6  2  0
  6  7  1  0
  7  8  2  0
  8  9  1  0
  9 10  2  0
  9 11  2  0
  9 12  1  0
 12 13  1  0
 13 14  1  0
 14 15  2  0
 15 16  1  0
 16 17  2  0
 17 18  1  0
 18 19  1  0
 17 20  1  0
 20 21  2  0
  8 22  1  0
 22 23  1  0
 22  5  1  0
 21 14  1  0
  1 24  1  0
  1 25  1  0
  1 26  1  0
  6 27  1  0
  7 28  1  0
 12 29  1  0
 13 30  1  0
 13 31  1  0
 15 32  1  0
 16 33  1  0
 19 34  1  0
 19 35  1  0
 19 36  1  0
 20 37  1  0
 21 38  1  0
 23 39  1  0
 23 40  1  0
 23 41  1  0
M  END
$$$$
