
     RDKit          3D

 39 41  0  0  0  0  0  0  0  0999 V2000
   -1.9691    0.2979    0.9075 O   0  0  0  0  0  0  0  0  0  0  0  0
   -2.3229   -0.8687    0.7834 C   0  0  0  0  0  0  0  0  0  0  0  0
   -3.7529   -1.3335    1.1103 C   0  0  0  0  0  0  0  0  0  0  0  0
   -4.6854   -0.3183    1.4342 O   0  0  0  0  0  0  0  0  0  0  0  0
   -5.3186    0.3224    0.4061 C   0  0  0  0  0  0  0  0  0  0  0  0
   -6.4085    1.1068    0.7949 C   0  0  0  0  0  0  0  0  0  0  0  0
   -7.1497    1.8166   -0.1512 C   0  0  0  0  0  0  0  0  0  0  0  0
   -6.7993    1.7509   -1.4970 C   0  0  0  0  0  0  0  0  0  0  0  0
   -5.7065    0.9809   -1.8918 C   0  0  0  0  0  0  0  0  0  0  0  0
   -4.9648    0.2693   -0.9429 C   0  0  0  0  0  0  0  0  0  0  0  0
   -1.5398   -1.9200    0.3462 N   0  0  0  0  0  0  0  0  0  0  0  0
   -0.2195   -1.8664   -0.0250 C   0  0  0  0  0  0  0  0  0  0  0  0
    0.4209   -2.9328   -0.4506 N   0  0  0  0  0  0  0  0  0  0  0  0
    1.7363   -2.6601   -0.7665 N   0  0  0  0  0  0  0  0  0  0  0  0
    2.0417   -1.3945   -0.5558 C   0  0  0  0  0  0  0  0  0  0  0  0
    3.3803   -0.7817   -0.8084 C   0  0  0  0  0  0  0  0  0  0  0  0
    3.9470   -0.4631    0.4622 O   0  0  0  0  0  0  0  0  0  0  0  0
    5.1633    0.1620    0.4592 C   0  0  0  0  0  0  0  0  0  0  0  0
    5.6190    0.5522    1.7214 C   0  0  0  0  0  0  0  0  0  0  0  0
    6.8463    1.2009    1.8661 C   0  0  0  0  0  0  0  0  0  0  0  0
    7.6290    1.4613    0.7442 C   0  0  0  0  0  0  0  0  0  0  0  0
    7.1831    1.0718   -0.5175 C   0  0  0  0  0  0  0  0  0  0  0  0
    5.9529    0.4221   -0.6618 C   0  0  0  0  0  0  0  0  0  0  0  0
    0.7224   -0.4501    0.0151 S   0  0  0  0  0  0  0  0  0  0  0  0
   -3.6682   -1.9641    2.0040 H   0  0  0  0  0  0  0  0  0  0  0  0
   -4.1351   -1.9845    0.3129 H   0  0  0  0  0  0  0  0  0  0  0  0
   -6.6822    1.1653    1.8460 H   0  0  0  0  0  0  0  0  0  0  0  0
   -7.9950    2.4223    0.1648 H   0  0  0  0  0  0  0  0  0  0  0  0
   -7.3705    2.3064   -2.2362 H   0  0  0  0  0  0  0  0  0  0  0  0
   -5.4236    0.9408   -2.9408 H   0  0  0  0  0  0  0  0  0  0  0  0
   -4.1091   -0.2958   -1.2935 H   0  0  0  0  0  0  0  0  0  0  0  0
   -1.9317   -2.8491    0.2740 H   0  0  0  0  0  0  0  0  0  0  0  0
    3.2660    0.1202   -1.4224 H   0  0  0  0  0  0  0  0  0  0  0  0
    4.0128   -1.5087   -1.3319 H   0  0  0  0  0  0  0  0  0  0  0  0
    5.0114    0.3502    2.6005 H   0  0  0  0  0  0  0  0  0  0  0  0
    7.1883    1.5012    2.8530 H   0  0  0  0  0  0  0  0  0  0  0  0
    8.5855    1.9656    0.8528 H   0  0  0  0  0  0  0  0  0  0  0  0
    7.7961    1.2726   -1.3926 H   0  0  0  0  0  0  0  0  0  0  0  0
    5.6500    0.1317   -1.6618 H   0  0  0  0  0  0  0  0  0  0  0  0
  1  2  2  0
  2  3  1  0
  3  4  1  0
  4  5  1  0
  5  6  2  0
  6  7  1  0
  7  8  2  0
  8  9  1  0
  9 10  2  0
  2 11  1  0
 11 12  1  0
 12 13  2  0
 13 14  1  0
 14 15  2  0
 15 16  1  0
 16 17  1  0
 17 18  1  0
 18 19  2  0
 19 20  1  0
 20 21  2  0
 21 22  1  0
 22 23  2  0
 15 24  1  0
 10  5  1  0
 24 12  1  0
 23 18  1  0
  3 25  1  0
  3 26  1  0
  6 27  1  0
  7 28  1  0
  8 29  1  0
  9 30  1  0
 10 31  1  0
 11 32  1  0
 16 33  1  0
 16 34  1  0
 19 35  1  0
 20 36  1  0
 21 37  1  0
 22 38  1  0
 23 39  1  0
M  END
$$$$
