
     RDKit          3D

 53 55  0  0  0  0  0  0  0  0999 V2000
    6.2950   -2.2127    4.5347 C   0  0  0  0  0  0  0  0  0  0  0  0
    6.1271   -2.3654    3.1320 O   0  0  0  0  0  0  0  0  0  0  0  0
    5.7990   -1.2439    2.4235 C   0  0  0  0  0  0  0  0  0  0  0  0
    5.6594   -1.4434    1.0487 C   0  0  0  0  0  0  0  0  0  0  0  0
    5.3313   -0.3820    0.2043 C   0  0  0  0  0  0  0  0  0  0  0  0
    5.1444    0.9039    0.7247 C   0  0  0  0  0  0  0  0  0  0  0  0
    4.7796    2.0473   -0.1842 C   0  0  0  0  0  0  0  0  0  0  0  0
    3.3521    2.1769   -0.3082 N   0  0  0  0  0  0  0  0  0  0  0  0
    2.6430    1.5754   -1.3200 C   0  0  0  0  0  0  0  0  0  0  0  0
    3.1073    0.9685   -2.2749 O   0  0  0  0  0  0  0  0  0  0  0  0
    1.1118    1.7106   -1.1589 C   0  0  0  0  0  0  0  0  0  0  0  0
    0.6432    2.3027   -0.1970 O   0  0  0  0  0  0  0  0  0  0  0  0
    0.3915    1.1018   -2.1588 N   0  0  0  0  0  0  0  0  0  0  0  0
   -1.0590    1.0059   -2.1129 C   0  0  0  0  0  0  0  0  0  0  0  0
   -1.5855    0.0985   -0.9686 C   0  0  0  0  0  0  0  0  0  0  0  0
   -0.9256   -1.1871   -1.0565 O   0  0  0  0  0  0  0  0  0  0  0  0
   -1.7916   -2.0182   -1.8298 C   0  0  0  0  0  0  0  0  0  0  0  0
   -3.1774   -1.6227   -1.3777 C   0  0  0  0  0  0  0  0  0  0  0  0
   -3.0333   -0.2117   -0.9924 N   0  0  0  0  0  0  0  0  0  0  0  0
   -4.0895    0.9128   -1.6422 S   0  0  0  0  0  6  0  0  0  0  0  0
   -4.0743    0.7291   -3.0784 O   0  0  0  0  0  0  0  0  0  0  0  0
   -3.8067    2.1990   -1.0470 O   0  0  0  0  0  0  0  0  0  0  0  0
   -5.6588    0.3691   -1.0167 C   0  0  0  0  0  0  0  0  0  0  0  0
   -5.9670    0.6011    0.3269 C   0  0  0  0  0  0  0  0  0  0  0  0
   -7.2000    0.1855    0.8302 C   0  0  0  0  0  0  0  0  0  0  0  0
   -8.1157   -0.4535   -0.0073 C   0  0  0  0  0  0  0  0  0  0  0  0
   -7.8066   -0.6743   -1.3495 C   0  0  0  0  0  0  0  0  0  0  0  0
   -6.5768   -0.2582   -1.8633 C   0  0  0  0  0  0  0  0  0  0  0  0
    5.2701    1.0982    2.1068 C   0  0  0  0  0  0  0  0  0  0  0  0
    5.5987    0.0322    2.9509 C   0  0  0  0  0  0  0  0  0  0  0  0
    5.3610   -1.8977    5.0127 H   0  0  0  0  0  0  0  0  0  0  0  0
    6.5666   -3.1894    4.9463 H   0  0  0  0  0  0  0  0  0  0  0  0
    7.1097   -1.5186    4.7625 H   0  0  0  0  0  0  0  0  0  0  0  0
    5.8065   -2.4349    0.6307 H   0  0  0  0  0  0  0  0  0  0  0  0
    5.2196   -0.5652   -0.8624 H   0  0  0  0  0  0  0  0  0  0  0  0
    5.2357    1.9113   -1.1728 H   0  0  0  0  0  0  0  0  0  0  0  0
    5.1635    2.9924    0.2213 H   0  0  0  0  0  0  0  0  0  0  0  0
    2.8067    2.5297    0.4725 H   0  0  0  0  0  0  0  0  0  0  0  0
    0.9207    0.5236   -2.8050 H   0  0  0  0  0  0  0  0  0  0  0  0
   -1.4457    2.0242   -2.0101 H   0  0  0  0  0  0  0  0  0  0  0  0
   -1.3620    0.6184   -3.0911 H   0  0  0  0  0  0  0  0  0  0  0  0
   -1.3274    0.5230    0.0065 H   0  0  0  0  0  0  0  0  0  0  0  0
   -1.5692   -3.0707   -1.6425 H   0  0  0  0  0  0  0  0  0  0  0  0
   -1.6338   -1.8047   -2.8918 H   0  0  0  0  0  0  0  0  0  0  0  0
   -3.9182   -1.8090   -2.1587 H   0  0  0  0  0  0  0  0  0  0  0  0
   -3.4689   -2.1880   -0.4872 H   0  0  0  0  0  0  0  0  0  0  0  0
   -5.2566    1.1028    0.9791 H   0  0  0  0  0  0  0  0  0  0  0  0
   -7.4506    0.3633    1.8741 H   0  0  0  0  0  0  0  0  0  0  0  0
   -9.0771   -0.7747    0.3866 H   0  0  0  0  0  0  0  0  0  0  0  0
   -8.5266   -1.1703   -1.9963 H   0  0  0  0  0  0  0  0  0  0  0  0
   -6.3429   -0.4289   -2.9107 H   0  0  0  0  0  0  0  0  0  0  0  0
    5.1143    2.0845    2.5384 H   0  0  0  0  0  0  0  0  0  0  0  0
    5.6892    0.2335    4.0137 H   0  0  0  0  0  0  0  0  0  0  0  0
  1  2  1  0
  2  3  1  0
  3  4  2  0
  4  5  1  0
  5  6  2  0
  6  7  1  0
  7  8  1  0
  8  9  1  0
  9 10  2  0
  9 11  1  0
 11 12  2  0
 11 13  1  0
 13 14  1  0
 14 15  1  0
 15 16  1  0
 16 17  1  0
 17 18  1  0
 18 19  1  0
 19 20  1  0
 20 21  2  0
 20 22  2  0
 20 23  1  0
 23 24  2  0
 24 25  1  0
 25 26  2  0
 26 27  1  0
 27 28  2  0
  6 29  1  0
 29 30  2  0
 30  3  1  0
 19 15  1  0
 28 23  1  0
  1 31  1  0
  1 32  1  0
  1 33  1  0
  4 34  1  0
  5 35  1  0
  7 36  1  0
  7 37  1  0
  8 38  1  0
 13 39  1  0
 14 40  1  0
 14 41  1  0
 15 42  1  0
 17 43  1  0
 17 44  1  0
 18 45  1  0
 18 46  1  0
 24 47  1  0
 25 48  1  0
 26 49  1  0
 27 50  1  0
 28 51  1  0
 29 52  1  0
 30 53  1  0
M  END
$$$$
