
     RDKit          3D

 49 53  0  0  0  0  0  0  0  0999 V2000
   -0.9710   -0.2784    3.2100 O   0  0  0  0  0  0  0  0  0  0  0  0
   -0.8985   -0.2164    1.9799 C   0  0  0  0  0  0  0  0  0  0  0  0
   -2.1069   -0.0794    1.1797 C   0  0  0  0  0  0  0  0  0  0  0  0
   -3.3940    0.2365    1.5818 C   0  0  0  0  0  0  0  0  0  0  0  0
   -4.2239    0.2081    0.4268 C   0  0  0  0  0  0  0  0  0  0  0  0
   -3.3798   -0.1451   -0.6174 C   0  0  0  0  0  0  0  0  0  0  0  0
   -3.7840   -0.2944   -1.9404 C   0  0  0  0  0  0  0  0  0  0  0  0
   -5.1377   -0.0670   -2.2131 C   0  0  0  0  0  0  0  0  0  0  0  0
   -6.0452    0.2927   -1.2026 C   0  0  0  0  0  0  0  0  0  0  0  0
   -7.4013    0.5178   -1.4842 C   0  0  0  0  0  0  0  0  0  0  0  0
   -8.2944    0.8737   -0.4695 C   0  0  0  0  0  0  0  0  0  0  0  0
   -7.8489    1.0107    0.8438 C   0  0  0  0  0  0  0  0  0  0  0  0
   -6.5064    0.7931    1.1525 C   0  0  0  0  0  0  0  0  0  0  0  0
   -5.5970    0.4343    0.1375 C   0  0  0  0  0  0  0  0  0  0  0  0
   -2.1099   -0.3258   -0.1663 O   0  0  0  0  0  0  0  0  0  0  0  0
    0.3500   -0.2756    1.3547 N   0  0  0  0  0  0  0  0  0  0  0  0
    0.6071    0.0657   -0.0515 C   0  0  0  0  0  0  0  0  0  0  0  0
    2.0809    0.4233   -0.3181 C   0  0  0  0  0  0  0  0  0  0  0  0
    2.9648   -0.6793    0.1031 N   0  0  0  0  0  0  0  0  0  0  0  0
    4.3302   -0.4538   -0.1242 C   0  0  0  0  0  0  0  0  0  0  0  0
    4.7270    0.8260   -0.3475 N   0  0  0  0  0  0  0  0  0  0  0  0
    6.0386    1.0851   -0.5630 C   0  0  0  0  0  0  0  0  0  0  0  0
    7.0269    0.1186   -0.5757 C   0  0  0  0  0  0  0  0  0  0  0  0
    8.4487    0.4945   -0.8468 C   0  0  0  0  0  0  0  0  0  0  0  0
    9.3429   -0.3900   -0.3256 F   0  0  0  0  0  0  0  0  0  0  0  0
    8.7844    1.7091   -0.3318 F   0  0  0  0  0  0  0  0  0  0  0  0
    8.7209    0.5633   -2.1776 F   0  0  0  0  0  0  0  0  0  0  0  0
    6.6257   -1.2021   -0.3761 C   0  0  0  0  0  0  0  0  0  0  0  0
    5.2768   -1.4968   -0.1521 C   0  0  0  0  0  0  0  0  0  0  0  0
    4.8570   -3.1675    0.0107 Cl  0  0  0  0  0  0  0  0  0  0  0  0
    2.6385   -1.2915    1.4123 C   0  0  0  0  0  0  0  0  0  0  0  0
    1.5372   -0.5292    2.1745 C   0  0  0  0  0  0  0  0  0  0  0  0
   -3.6861    0.4585    2.5990 H   0  0  0  0  0  0  0  0  0  0  0  0
   -3.0826   -0.5750   -2.7167 H   0  0  0  0  0  0  0  0  0  0  0  0
   -5.4830   -0.1772   -3.2399 H   0  0  0  0  0  0  0  0  0  0  0  0
   -7.7767    0.4170   -2.5003 H   0  0  0  0  0  0  0  0  0  0  0  0
   -9.3418    1.0436   -0.7065 H   0  0  0  0  0  0  0  0  0  0  0  0
   -8.5483    1.2869    1.6288 H   0  0  0  0  0  0  0  0  0  0  0  0
   -6.1771    0.9038    2.1823 H   0  0  0  0  0  0  0  0  0  0  0  0
   -0.0218    0.9136   -0.3408 H   0  0  0  0  0  0  0  0  0  0  0  0
    0.3271   -0.8081   -0.6511 H   0  0  0  0  0  0  0  0  0  0  0  0
    2.2051    0.6163   -1.3908 H   0  0  0  0  0  0  0  0  0  0  0  0
    2.3216    1.3461    0.2269 H   0  0  0  0  0  0  0  0  0  0  0  0
    6.2686    2.1361   -0.7302 H   0  0  0  0  0  0  0  0  0  0  0  0
    7.3600   -2.0053   -0.4060 H   0  0  0  0  0  0  0  0  0  0  0  0
    2.2813   -2.3107    1.2222 H   0  0  0  0  0  0  0  0  0  0  0  0
    3.5155   -1.3617    2.0680 H   0  0  0  0  0  0  0  0  0  0  0  0
    1.9128    0.4480    2.5023 H   0  0  0  0  0  0  0  0  0  0  0  0
    1.2663   -1.0921    3.0743 H   0  0  0  0  0  0  0  0  0  0  0  0
  1  2  2  0
  2  3  1  0
  3  4  2  0
  4  5  1  0
  5  6  2  0
  6  7  1  0
  7  8  2  0
  8  9  1  0
  9 10  2  0
 10 11  1  0
 11 12  2  0
 12 13  1  0
 13 14  2  0
  6 15  1  0
  2 16  1  0
 16 17  1  0
 17 18  1  0
 18 19  1  0
 19 20  1  0
 20 21  2  0
 21 22  1  0
 22 23  2  0
 23 24  1  0
 24 25  1  0
 24 26  1  0
 24 27  1  0
 23 28  1  0
 28 29  2  0
 29 30  1  0
 19 31  1  0
 31 32  1  0
 15  3  1  0
 32 16  1  0
 14  5  1  0
 29 20  1  0
 14  9  1  0
  4 33  1  0
  7 34  1  0
  8 35  1  0
 10 36  1  0
 11 37  1  0
 12 38  1  0
 13 39  1  0
 17 40  1  0
 17 41  1  0
 18 42  1  0
 18 43  1  0
 22 44  1  0
 28 45  1  0
 31 46  1  0
 31 47  1  0
 32 48  1  0
 32 49  1  0
M  END
$$$$
