
     RDKit          3D

 36 37  0  0  0  0  0  0  0  0999 V2000
   -0.2027    0.3640    1.5380 O   0  0  0  0  0  0  0  0  0  0  0  0
   -0.4961    0.5453    0.3641 C   0  0  0  0  0  0  0  0  0  0  0  0
   -1.8919    0.4910   -0.1355 C   0  0  0  0  0  0  0  0  0  0  0  0
   -2.8770    0.1002    0.6873 C   0  0  0  0  0  0  0  0  0  0  0  0
   -4.2826    0.0190    0.2629 C   0  0  0  0  0  0  0  0  0  0  0  0
   -4.9096    1.1621   -0.2604 C   0  0  0  0  0  0  0  0  0  0  0  0
   -6.2499    1.1264   -0.6536 C   0  0  0  0  0  0  0  0  0  0  0  0
   -6.9844   -0.0496   -0.5238 C   0  0  0  0  0  0  0  0  0  0  0  0
   -6.3803   -1.1907    0.0031 C   0  0  0  0  0  0  0  0  0  0  0  0
   -5.0385   -1.1584    0.3986 C   0  0  0  0  0  0  0  0  0  0  0  0
   -4.3568   -2.6171    1.0327 Cl  0  0  0  0  0  0  0  0  0  0  0  0
    0.4150    0.8125   -0.6282 N   0  0  0  0  0  0  0  0  0  0  0  0
    1.8386    0.8638   -0.3500 C   0  0  0  0  0  0  0  0  0  0  0  0
    2.4588   -0.5316   -0.2474 C   0  0  0  0  0  0  0  0  0  0  0  0
    3.9465   -0.4633   -0.0101 C   0  0  0  0  0  0  0  0  0  0  0  0
    4.8456   -0.5297   -1.0825 C   0  0  0  0  0  0  0  0  0  0  0  0
    6.2206   -0.4456   -0.8570 C   0  0  0  0  0  0  0  0  0  0  0  0
    6.7079   -0.2908    0.4396 C   0  0  0  0  0  0  0  0  0  0  0  0
    5.8213   -0.2194    1.5124 C   0  0  0  0  0  0  0  0  0  0  0  0
    4.4464   -0.3036    1.2894 C   0  0  0  0  0  0  0  0  0  0  0  0
   -2.0823    0.7688   -1.1638 H   0  0  0  0  0  0  0  0  0  0  0  0
   -2.6654   -0.2005    1.7123 H   0  0  0  0  0  0  0  0  0  0  0  0
   -4.3614    2.0976   -0.3533 H   0  0  0  0  0  0  0  0  0  0  0  0
   -6.7216    2.0205   -1.0548 H   0  0  0  0  0  0  0  0  0  0  0  0
   -8.0280   -0.0774   -0.8274 H   0  0  0  0  0  0  0  0  0  0  0  0
   -6.9602   -2.1047    0.1051 H   0  0  0  0  0  0  0  0  0  0  0  0
    0.1141    0.8786   -1.5904 H   0  0  0  0  0  0  0  0  0  0  0  0
    1.9921    1.4236    0.5803 H   0  0  0  0  0  0  0  0  0  0  0  0
    2.3016    1.4353   -1.1622 H   0  0  0  0  0  0  0  0  0  0  0  0
    2.2557   -1.0993   -1.1648 H   0  0  0  0  0  0  0  0  0  0  0  0
    1.9880   -1.1055    0.5609 H   0  0  0  0  0  0  0  0  0  0  0  0
    4.4818   -0.6500   -2.1002 H   0  0  0  0  0  0  0  0  0  0  0  0
    6.9124   -0.5016   -1.6932 H   0  0  0  0  0  0  0  0  0  0  0  0
    7.7785   -0.2264    0.6146 H   0  0  0  0  0  0  0  0  0  0  0  0
    6.1996   -0.0985    2.5241 H   0  0  0  0  0  0  0  0  0  0  0  0
    3.7643   -0.2449    2.1359 H   0  0  0  0  0  0  0  0  0  0  0  0
  1  2  2  0
  2  3  1  0
  3  4  2  3
  4  5  1  0
  5  6  2  0
  6  7  1  0
  7  8  2  0
  8  9  1  0
  9 10  2  0
 10 11  1  0
  2 12  1  0
 12 13  1  0
 13 14  1  0
 14 15  1  0
 15 16  2  0
 16 17  1  0
 17 18  2  0
 18 19  1  0
 19 20  2  0
 10  5  1  0
 20 15  1  0
  3 21  1  0
  4 22  1  0
  6 23  1  0
  7 24  1  0
  8 25  1  0
  9 26  1  0
 12 27  1  0
 13 28  1  0
 13 29  1  0
 14 30  1  0
 14 31  1  0
 16 32  1  0
 17 33  1  0
 18 34  1  0
 19 35  1  0
 20 36  1  0
M  END
$$$$
