
     RDKit          3D

 37 39  0  0  0  0  0  0  0  0999 V2000
   -5.8086    3.5234    2.1166 C   0  0  0  0  0  0  0  0  0  0  0  0
   -4.5025    3.6651    1.5713 O   0  0  0  0  0  0  0  0  0  0  0  0
   -3.9448    2.5545    1.0003 C   0  0  0  0  0  0  0  0  0  0  0  0
   -4.5781    1.3269    0.7995 C   0  0  0  0  0  0  0  0  0  0  0  0
   -3.8882    0.2638    0.1947 C   0  0  0  0  0  0  0  0  0  0  0  0
   -2.5522    0.4066   -0.2228 C   0  0  0  0  0  0  0  0  0  0  0  0
   -1.7803   -0.6736   -0.8576 C   0  0  0  0  0  0  0  0  0  0  0  0
   -0.4678   -0.6771   -1.0271 N   0  0  0  0  0  0  0  0  0  0  0  0
   -0.0935   -1.8527   -1.6646 C   0  0  0  0  0  0  0  0  0  0  0  0
    1.2551   -1.9799   -1.8793 N   0  0  0  0  0  0  0  0  0  0  0  0
    1.8682   -3.0215   -2.5267 C   0  0  0  0  0  0  0  0  0  0  0  0
    1.2968   -4.0107   -2.9940 O   0  0  0  0  0  0  0  0  0  0  0  0
    3.3884   -2.9453   -2.6133 C   0  0  0  0  0  0  0  0  0  0  0  0
    4.0776   -1.2651   -2.6458 S   0  0  0  0  0  0  0  0  0  0  0  0
    4.3671   -1.0037   -0.9448 C   0  0  0  0  0  0  0  0  0  0  0  0
    3.6206   -1.5701   -0.0228 N   0  0  0  0  0  0  0  0  0  0  0  0
    4.0141   -1.2167    1.2498 N   0  0  0  0  0  0  0  0  0  0  0  0
    5.0535   -0.4031    1.2390 C   0  0  0  0  0  0  0  0  0  0  0  0
    5.7112    0.1509    2.4486 C   0  0  0  0  0  0  0  0  0  0  0  0
    5.6049    0.0120   -0.3370 S   0  0  0  0  0  0  0  0  0  0  0  0
   -1.0382   -2.7298   -2.0093 N   0  0  0  0  0  0  0  0  0  0  0  0
   -2.4965   -2.1002   -1.5172 S   0  0  0  0  0  0  0  0  0  0  0  0
   -1.9290    1.6484   -0.0088 C   0  0  0  0  0  0  0  0  0  0  0  0
   -2.6184    2.7084    0.5907 C   0  0  0  0  0  0  0  0  0  0  0  0
   -6.5419    3.3149    1.3306 H   0  0  0  0  0  0  0  0  0  0  0  0
   -5.8315    2.7517    2.8928 H   0  0  0  0  0  0  0  0  0  0  0  0
   -6.0828    4.4761    2.5850 H   0  0  0  0  0  0  0  0  0  0  0  0
   -5.6099    1.1579    1.1003 H   0  0  0  0  0  0  0  0  0  0  0  0
   -4.4245   -0.6767    0.0714 H   0  0  0  0  0  0  0  0  0  0  0  0
    1.7920   -1.2259   -1.4898 H   0  0  0  0  0  0  0  0  0  0  0  0
    3.8282   -3.5468   -1.8072 H   0  0  0  0  0  0  0  0  0  0  0  0
    3.6764   -3.4080   -3.5686 H   0  0  0  0  0  0  0  0  0  0  0  0
    5.3930   -0.3979    3.3419 H   0  0  0  0  0  0  0  0  0  0  0  0
    5.4427    1.2059    2.5801 H   0  0  0  0  0  0  0  0  0  0  0  0
    6.8026    0.0746    2.3821 H   0  0  0  0  0  0  0  0  0  0  0  0
   -0.8919    1.8034   -0.3113 H   0  0  0  0  0  0  0  0  0  0  0  0
   -2.1118    3.6605    0.7412 H   0  0  0  0  0  0  0  0  0  0  0  0
  1  2  1  0
  2  3  1  0
  3  4  2  0
  4  5  1  0
  5  6  2  0
  6  7  1  0
  7  8  2  0
  8  9  1  0
  9 10  1  0
 10 11  1  0
 11 12  2  0
 11 13  1  0
 13 14  1  0
 14 15  1  0
 15 16  2  0
 16 17  1  0
 17 18  2  0
 18 19  1  0
 18 20  1  0
  9 21  2  0
 21 22  1  0
  6 23  1  0
 23 24  2  0
 24  3  1  0
 22  7  1  0
 20 15  1  0
  1 25  1  0
  1 26  1  0
  1 27  1  0
  4 28  1  0
  5 29  1  0
 10 30  1  0
 13 31  1  0
 13 32  1  0
 19 33  1  0
 19 34  1  0
 19 35  1  0
 23 36  1  0
 24 37  1  0
M  END
$$$$
