
     RDKit          3D

 53 52  0  0  0  0  0  0  0  0999 V2000
   -6.8765    1.4200    1.9633 C   0  0  0  0  0  0  0  0  0  0  0  0
   -6.4868    0.2190    1.1019 C   0  0  0  0  0  0  0  0  0  0  0  0
   -7.4935    0.0251   -0.0321 C   0  0  0  0  0  0  0  0  0  0  0  0
   -5.0383    0.3113    0.5882 C   0  0  0  0  0  0  0  0  0  0  0  0
   -4.7453    1.5017   -0.3266 C   0  0  0  0  0  0  0  0  0  0  0  0
   -3.3552    1.5166   -0.7406 N   0  0  0  0  0  0  0  0  0  0  0  0
   -2.9078    0.7715   -1.8121 C   0  0  0  0  0  0  0  0  0  0  0  0
   -3.6431    0.0902   -2.5162 O   0  0  0  0  0  0  0  0  0  0  0  0
   -1.4119    0.8843   -2.0224 C   0  0  0  0  0  0  0  0  0  0  0  0
   -0.9677    0.0707   -3.2303 C   0  0  0  0  0  0  0  0  0  0  0  0
    0.8183    0.2608   -3.5765 S   0  0  0  0  0  0  0  0  0  0  0  0
    1.5232   -0.6326   -2.1469 C   0  0  0  0  0  0  0  0  0  0  0  0
    2.2020    0.3491   -1.2012 C   0  0  0  0  0  0  0  0  0  0  0  0
    2.7574   -0.3613    0.0149 C   0  0  0  0  0  0  0  0  0  0  0  0
    2.5405   -1.5409    0.2648 O   0  0  0  0  0  0  0  0  0  0  0  0
    3.5081    0.4678    0.8207 N   0  0  0  0  0  0  0  0  0  0  0  0
    4.1591    0.0047    2.0303 C   0  0  0  0  0  0  0  0  0  0  0  0
    5.6738   -0.1232    1.8556 C   0  0  0  0  0  0  0  0  0  0  0  0
    6.1286   -1.2309    0.8853 C   0  0  0  0  0  0  0  0  0  0  0  0
    5.7884   -2.6294    1.4032 C   0  0  0  0  0  0  0  0  0  0  0  0
    7.6387   -1.1257    0.6527 C   0  0  0  0  0  0  0  0  0  0  0  0
   -6.9344    2.3416    1.3754 H   0  0  0  0  0  0  0  0  0  0  0  0
   -7.8578    1.2597    2.4231 H   0  0  0  0  0  0  0  0  0  0  0  0
   -6.1520    1.5728    2.7699 H   0  0  0  0  0  0  0  0  0  0  0  0
   -6.5399   -0.6724    1.7412 H   0  0  0  0  0  0  0  0  0  0  0  0
   -8.4917   -0.1756    0.3718 H   0  0  0  0  0  0  0  0  0  0  0  0
   -7.2121   -0.8253   -0.6620 H   0  0  0  0  0  0  0  0  0  0  0  0
   -7.5673    0.9130   -0.6679 H   0  0  0  0  0  0  0  0  0  0  0  0
   -4.3592    0.3506    1.4505 H   0  0  0  0  0  0  0  0  0  0  0  0
   -4.7927   -0.6197    0.0605 H   0  0  0  0  0  0  0  0  0  0  0  0
   -4.9249    2.4488    0.1907 H   0  0  0  0  0  0  0  0  0  0  0  0
   -5.3741    1.4728   -1.2219 H   0  0  0  0  0  0  0  0  0  0  0  0
   -2.6809    1.9683   -0.1369 H   0  0  0  0  0  0  0  0  0  0  0  0
   -1.1677    1.9442   -2.1627 H   0  0  0  0  0  0  0  0  0  0  0  0
   -0.9213    0.5292   -1.1095 H   0  0  0  0  0  0  0  0  0  0  0  0
   -1.1978   -0.9929   -3.1042 H   0  0  0  0  0  0  0  0  0  0  0  0
   -1.5042    0.4067   -4.1246 H   0  0  0  0  0  0  0  0  0  0  0  0
    0.7484   -1.2151   -1.6379 H   0  0  0  0  0  0  0  0  0  0  0  0
    2.2588   -1.3478   -2.5316 H   0  0  0  0  0  0  0  0  0  0  0  0
    1.4930    1.1066   -0.8469 H   0  0  0  0  0  0  0  0  0  0  0  0
    3.0295    0.8580   -1.7107 H   0  0  0  0  0  0  0  0  0  0  0  0
    3.6667    1.4248    0.5315 H   0  0  0  0  0  0  0  0  0  0  0  0
    3.7120   -0.9331    2.3722 H   0  0  0  0  0  0  0  0  0  0  0  0
    3.9524    0.7616    2.7950 H   0  0  0  0  0  0  0  0  0  0  0  0
    6.0650    0.8409    1.5050 H   0  0  0  0  0  0  0  0  0  0  0  0
    6.1226   -0.3014    2.8412 H   0  0  0  0  0  0  0  0  0  0  0  0
    5.6353   -1.0905   -0.0837 H   0  0  0  0  0  0  0  0  0  0  0  0
    4.7083   -2.7752    1.4901 H   0  0  0  0  0  0  0  0  0  0  0  0
    6.2350   -2.8072    2.3874 H   0  0  0  0  0  0  0  0  0  0  0  0
    6.1650   -3.3976    0.7193 H   0  0  0  0  0  0  0  0  0  0  0  0
    8.1957   -1.2591    1.5865 H   0  0  0  0  0  0  0  0  0  0  0  0
    7.9775   -1.8887   -0.0563 H   0  0  0  0  0  0  0  0  0  0  0  0
    7.9013   -0.1468    0.2376 H   0  0  0  0  0  0  0  0  0  0  0  0
  1  2  1  0
  2  3  1  0
  2  4  1  0
  4  5  1  0
  5  6  1  0
  6  7  1  0
  7  8  2  0
  7  9  1  0
  9 10  1  0
 10 11  1  0
 11 12  1  0
 12 13  1  0
 13 14  1  0
 14 15  2  0
 14 16  1  0
 16 17  1  0
 17 18  1  0
 18 19  1  0
 19 20  1  0
 19 21  1  0
  1 22  1  0
  1 23  1  0
  1 24  1  0
  2 25  1  0
  3 26  1  0
  3 27  1  0
  3 28  1  0
  4 29  1  0
  4 30  1  0
  5 31  1  0
  5 32  1  0
  6 33  1  0
  9 34  1  0
  9 35  1  0
 10 36  1  0
 10 37  1  0
 12 38  1  0
 12 39  1  0
 13 40  1  0
 13 41  1  0
 16 42  1  0
 17 43  1  0
 17 44  1  0
 18 45  1  0
 18 46  1  0
 19 47  1  0
 20 48  1  0
 20 49  1  0
 20 50  1  0
 21 51  1  0
 21 52  1  0
 21 53  1  0
M  END
$$$$
