
     RDKit          3D

 46 48  0  0  0  0  0  0  0  0999 V2000
   -2.1513   -1.5220   -2.2867 C   0  0  0  0  0  0  0  0  0  0  0  0
   -2.0660   -1.7334   -0.7866 C   0  0  0  0  0  0  0  0  0  0  0  0
   -2.6221   -0.5453   -0.0709 N   0  0  0  0  0  4  0  0  0  0  0  0
   -1.7704    0.4415    0.3431 C   0  0  0  0  0  0  0  0  0  0  0  0
   -0.3411    0.4030    0.0063 C   0  0  0  0  0  0  0  0  0  0  0  0
    0.6085    0.2300    0.9403 C   0  0  0  0  0  0  0  0  0  0  0  0
    2.0513    0.2147    0.6500 C   0  0  0  0  0  0  0  0  0  0  0  0
    2.5762   -0.3451   -0.5193 C   0  0  0  0  0  0  0  0  0  0  0  0
    3.9570   -0.3641   -0.7433 C   0  0  0  0  0  0  0  0  0  0  0  0
    4.8354    0.1677    0.2037 C   0  0  0  0  0  0  0  0  0  0  0  0
    6.2002    0.1923    0.0698 O   0  0  0  0  0  0  0  0  0  0  0  0
    6.7627   -0.3346   -1.1232 C   0  0  0  0  0  0  0  0  0  0  0  0
    4.3201    0.7195    1.3925 C   0  0  0  0  0  0  0  0  0  0  0  0
    5.2478    1.2143    2.2746 O   0  0  0  0  0  0  0  0  0  0  0  0
    4.7827    1.7880    3.4870 C   0  0  0  0  0  0  0  0  0  0  0  0
    2.9354    0.7333    1.6078 C   0  0  0  0  0  0  0  0  0  0  0  0
   -2.2435    1.5336    1.0715 C   0  0  0  0  0  0  0  0  0  0  0  0
   -3.5857    1.6310    1.3842 C   0  0  0  0  0  0  0  0  0  0  0  0
   -4.4594    0.6406    0.9543 C   0  0  0  0  0  0  0  0  0  0  0  0
   -5.8246    0.7444    1.2597 C   0  0  0  0  0  0  0  0  0  0  0  0
   -6.7237   -0.2281    0.8325 C   0  0  0  0  0  0  0  0  0  0  0  0
   -6.2685   -1.3109    0.0934 C   0  0  0  0  0  0  0  0  0  0  0  0
   -4.9093   -1.4286   -0.2173 C   0  0  0  0  0  0  0  0  0  0  0  0
   -3.9695   -0.4669    0.2066 C   0  0  0  0  0  0  0  0  0  0  0  0
   -1.5868   -0.6378   -2.5972 H   0  0  0  0  0  0  0  0  0  0  0  0
   -3.1848   -1.3824   -2.6168 H   0  0  0  0  0  0  0  0  0  0  0  0
   -1.7413   -2.3889   -2.8138 H   0  0  0  0  0  0  0  0  0  0  0  0
   -1.0321   -1.9017   -0.4727 H   0  0  0  0  0  0  0  0  0  0  0  0
   -2.6045   -2.6284   -0.4631 H   0  0  0  0  0  0  0  0  0  0  0  0
   -0.0925    0.5524   -1.0410 H   0  0  0  0  0  0  0  0  0  0  0  0
    0.3488    0.1141    1.9924 H   0  0  0  0  0  0  0  0  0  0  0  0
    1.9312   -0.7861   -1.2738 H   0  0  0  0  0  0  0  0  0  0  0  0
    4.3182   -0.8070   -1.6659 H   0  0  0  0  0  0  0  0  0  0  0  0
    6.4191    0.2220   -2.0013 H   0  0  0  0  0  0  0  0  0  0  0  0
    7.8491   -0.2194   -1.0606 H   0  0  0  0  0  0  0  0  0  0  0  0
    6.5466   -1.4033   -1.2222 H   0  0  0  0  0  0  0  0  0  0  0  0
    4.1516    2.6615    3.2936 H   0  0  0  0  0  0  0  0  0  0  0  0
    4.2566    1.0469    4.0976 H   0  0  0  0  0  0  0  0  0  0  0  0
    5.6551    2.1270    4.0539 H   0  0  0  0  0  0  0  0  0  0  0  0
    2.5284    1.1558    2.5209 H   0  0  0  0  0  0  0  0  0  0  0  0
   -1.5640    2.3223    1.3933 H   0  0  0  0  0  0  0  0  0  0  0  0
   -3.9406    2.4895    1.9541 H   0  0  0  0  0  0  0  0  0  0  0  0
   -6.2081    1.5880    1.8341 H   0  0  0  0  0  0  0  0  0  0  0  0
   -7.7819   -0.1367    1.0740 H   0  0  0  0  0  0  0  0  0  0  0  0
   -6.9761   -2.0670   -0.2455 H   0  0  0  0  0  0  0  0  0  0  0  0
   -4.6339   -2.2955   -0.8097 H   0  0  0  0  0  0  0  0  0  0  0  0
  1  2  1  0
  2  3  1  0
  3  4  2  0
  4  5  1  0
  5  6  2  3
  6  7  1  0
  7  8  2  0
  8  9  1  0
  9 10  2  0
 10 11  1  0
 11 12  1  0
 10 13  1  0
 13 14  1  0
 14 15  1  0
 13 16  2  0
  4 17  1  0
 17 18  2  0
 18 19  1  0
 19 20  2  0
 20 21  1  0
 21 22  2  0
 22 23  1  0
 23 24  2  0
 24  3  1  0
 16  7  1  0
 24 19  1  0
  1 25  1  0
  1 26  1  0
  1 27  1  0
  2 28  1  0
  2 29  1  0
  5 30  1  0
  6 31  1  0
  8 32  1  0
  9 33  1  0
 12 34  1  0
 12 35  1  0
 12 36  1  0
 15 37  1  0
 15 38  1  0
 15 39  1  0
 16 40  1  0
 17 41  1  0
 18 42  1  0
 20 43  1  0
 21 44  1  0
 22 45  1  0
 23 46  1  0
M  CHG  1   3   1
M  END
$$$$
