
     RDKit          3D

 32 34  0  0  0  0  0  0  0  0999 V2000
    5.1492   -0.5222   -0.9796 C   0  0  0  0  0  0  0  0  0  0  0  0
    4.3994    0.1323    0.1643 C   0  0  0  0  0  0  0  0  0  0  0  0
    2.9971    0.0018   -0.0882 O   0  0  0  0  0  0  0  0  0  0  0  0
    2.2105    0.5359    0.8820 C   0  0  0  0  0  0  0  0  0  0  0  0
    2.5920    1.1171    1.8876 O   0  0  0  0  0  0  0  0  0  0  0  0
    0.8009    0.3217    0.5277 C   0  0  0  0  0  0  0  0  0  0  0  0
    0.0488    1.3923    0.1901 C   0  0  0  0  0  0  0  0  0  0  0  0
    0.5625    2.6737    0.1569 O   0  0  0  0  0  0  0  0  0  0  0  0
   -1.3693    1.2180   -0.1698 C   0  0  0  0  0  0  0  0  0  0  0  0
   -2.2754    2.1913   -0.5950 C   0  0  0  0  0  0  0  0  0  0  0  0
   -3.6102    1.8404   -0.9036 C   0  0  0  0  0  0  0  0  0  0  0  0
   -4.0617    0.5153   -0.8035 C   0  0  0  0  0  0  0  0  0  0  0  0
   -3.1603   -0.4480   -0.4009 C   0  0  0  0  0  0  0  0  0  0  0  0
   -1.8599   -0.0729   -0.1031 C   0  0  0  0  0  0  0  0  0  0  0  0
   -1.0913   -1.1656    0.2579 N   0  0  0  0  0  0  0  0  0  0  0  0
    0.2393   -1.0665    0.5746 C   0  0  0  0  0  0  0  0  0  0  0  0
    0.9230   -2.0359    0.8904 O   0  0  0  0  0  0  0  0  0  0  0  0
   -1.9097   -2.3759    0.2082 C   0  0  0  0  0  0  0  0  0  0  0  0
   -3.3293   -1.9259   -0.2176 C   0  0  0  0  0  0  0  0  0  0  0  0
    4.8759   -1.5792   -1.0647 H   0  0  0  0  0  0  0  0  0  0  0  0
    4.8892   -0.0484   -1.9320 H   0  0  0  0  0  0  0  0  0  0  0  0
    6.2300   -0.4475   -0.8311 H   0  0  0  0  0  0  0  0  0  0  0  0
    4.6549   -0.3658    1.1064 H   0  0  0  0  0  0  0  0  0  0  0  0
    4.6674    1.1932    0.2231 H   0  0  0  0  0  0  0  0  0  0  0  0
   -0.1391    3.2997    0.4020 H   0  0  0  0  0  0  0  0  0  0  0  0
   -1.9773    3.2288   -0.7148 H   0  0  0  0  0  0  0  0  0  0  0  0
   -4.3010    2.6149   -1.2336 H   0  0  0  0  0  0  0  0  0  0  0  0
   -5.0886    0.2612   -1.0474 H   0  0  0  0  0  0  0  0  0  0  0  0
   -1.4690   -3.0750   -0.5110 H   0  0  0  0  0  0  0  0  0  0  0  0
   -1.9080   -2.8517    1.1950 H   0  0  0  0  0  0  0  0  0  0  0  0
   -3.6299   -2.4116   -1.1508 H   0  0  0  0  0  0  0  0  0  0  0  0
   -4.0603   -2.1454    0.5665 H   0  0  0  0  0  0  0  0  0  0  0  0
  1  2  1  0
  2  3  1  0
  3  4  1  0
  4  5  2  0
  4  6  1  0
  6  7  2  0
  7  8  1  0
  7  9  1  0
  9 10  2  0
 10 11  1  0
 11 12  2  0
 12 13  1  0
 13 14  2  0
 14 15  1  0
 15 16  1  0
 16 17  2  0
 15 18  1  0
 18 19  1  0
 16  6  1  0
 14  9  1  0
 19 13  1  0
  1 20  1  0
  1 21  1  0
  1 22  1  0
  2 23  1  0
  2 24  1  0
  8 25  1  0
 10 26  1  0
 11 27  1  0
 12 28  1  0
 18 29  1  0
 18 30  1  0
 19 31  1  0
 19 32  1  0
M  END
$$$$
