
     RDKit          3D

 56 58  0  0  0  0  0  0  0  0999 V2000
   -6.6003    0.1847    0.0856 C   0  0  0  0  0  0  0  0  0  0  0  0
   -5.4289    0.6488    0.9402 C   0  0  0  0  0  0  0  0  0  0  0  0
   -4.2838   -0.2661    0.8113 N   0  0  0  0  0  0  0  0  0  0  0  0
   -4.2447   -1.3649    1.7885 C   0  0  0  0  0  0  0  0  0  0  0  0
   -3.3748   -0.9973    2.9824 C   0  0  0  0  0  0  0  0  0  0  0  0
   -3.3410   -0.1373   -0.2013 C   0  0  0  0  0  0  0  0  0  0  0  0
   -3.4455    0.8384   -1.2075 C   0  0  0  0  0  0  0  0  0  0  0  0
   -2.4893    0.9836   -2.2246 C   0  0  0  0  0  0  0  0  0  0  0  0
   -1.3742    0.1522   -2.2695 C   0  0  0  0  0  0  0  0  0  0  0  0
   -0.3753    0.3508   -3.3240 C   0  0  0  0  0  0  0  0  0  0  0  0
    0.9078    0.7110   -3.1415 C   0  0  0  0  0  0  0  0  0  0  0  0
    1.5571    0.9746   -1.8452 C   0  0  0  0  0  0  0  0  0  0  0  0
    1.0412    1.9932   -1.0389 C   0  0  0  0  0  0  0  0  0  0  0  0
    1.5996    2.2620    0.1956 C   0  0  0  0  0  0  0  0  0  0  0  0
    2.6800    1.5078    0.6302 C   0  0  0  0  0  0  0  0  0  0  0  0
    3.2366    1.7602    1.8924 C   0  0  0  0  0  0  0  0  0  0  0  0
    4.3184    1.0139    2.3601 C   0  0  0  0  0  0  0  0  0  0  0  0
    4.8498    0.0036    1.5712 C   0  0  0  0  0  0  0  0  0  0  0  0
    5.8999   -0.8078    1.8985 O   0  0  0  0  0  0  0  0  0  0  0  0
    6.5062   -0.6060    3.1721 C   0  0  0  0  0  0  0  0  0  0  0  0
    4.2973   -0.2540    0.3092 C   0  0  0  0  0  0  0  0  0  0  0  0
    3.2131    0.4860   -0.1997 C   0  0  0  0  0  0  0  0  0  0  0  0
    2.6527    0.2603   -1.4399 N   0  0  0  0  0  4  0  0  0  0  0  0
    3.2481   -0.7613   -2.3547 C   0  0  0  0  0  0  0  0  0  0  0  0
    2.6563   -2.1293   -2.0783 C   0  0  0  0  0  0  0  0  0  0  0  0
   -1.2492   -0.8405   -1.3021 C   0  0  0  0  0  0  0  0  0  0  0  0
   -2.2130   -0.9714   -0.2895 C   0  0  0  0  0  0  0  0  0  0  0  0
   -7.4520    0.8590    0.2165 H   0  0  0  0  0  0  0  0  0  0  0  0
   -6.9184   -0.8244    0.3688 H   0  0  0  0  0  0  0  0  0  0  0  0
   -6.3439    0.1651   -0.9777 H   0  0  0  0  0  0  0  0  0  0  0  0
   -5.7557    0.6828    1.9872 H   0  0  0  0  0  0  0  0  0  0  0  0
   -5.1532    1.6823    0.7018 H   0  0  0  0  0  0  0  0  0  0  0  0
   -3.9121   -2.3040    1.3328 H   0  0  0  0  0  0  0  0  0  0  0  0
   -5.2587   -1.5753    2.1526 H   0  0  0  0  0  0  0  0  0  0  0  0
   -3.3681   -1.8145    3.7105 H   0  0  0  0  0  0  0  0  0  0  0  0
   -3.7533   -0.0995    3.4829 H   0  0  0  0  0  0  0  0  0  0  0  0
   -2.3401   -0.8000    2.6851 H   0  0  0  0  0  0  0  0  0  0  0  0
   -4.2921    1.5177   -1.2402 H   0  0  0  0  0  0  0  0  0  0  0  0
   -2.6379    1.7605   -2.9722 H   0  0  0  0  0  0  0  0  0  0  0  0
   -0.7588    0.2304   -4.3374 H   0  0  0  0  0  0  0  0  0  0  0  0
    1.5226    0.8727   -4.0241 H   0  0  0  0  0  0  0  0  0  0  0  0
    0.1842    2.5796   -1.3680 H   0  0  0  0  0  0  0  0  0  0  0  0
    1.1720    3.0512    0.8131 H   0  0  0  0  0  0  0  0  0  0  0  0
    2.8326    2.5442    2.5343 H   0  0  0  0  0  0  0  0  0  0  0  0
    4.7155    1.2455    3.3448 H   0  0  0  0  0  0  0  0  0  0  0  0
    6.9315    0.3995    3.2514 H   0  0  0  0  0  0  0  0  0  0  0  0
    5.7938   -0.8001    3.9816 H   0  0  0  0  0  0  0  0  0  0  0  0
    7.3258   -1.3245    3.2693 H   0  0  0  0  0  0  0  0  0  0  0  0
    4.7530   -1.0709   -0.2420 H   0  0  0  0  0  0  0  0  0  0  0  0
    4.3347   -0.7518   -2.2336 H   0  0  0  0  0  0  0  0  0  0  0  0
    3.0896   -0.4680   -3.3948 H   0  0  0  0  0  0  0  0  0  0  0  0
    3.1725   -2.8891   -2.6723 H   0  0  0  0  0  0  0  0  0  0  0  0
    1.5960   -2.1601   -2.3420 H   0  0  0  0  0  0  0  0  0  0  0  0
    2.7425   -2.4054   -1.0229 H   0  0  0  0  0  0  0  0  0  0  0  0
   -0.4178   -1.5375   -1.3146 H   0  0  0  0  0  0  0  0  0  0  0  0
   -2.0480   -1.7603    0.4382 H   0  0  0  0  0  0  0  0  0  0  0  0
  1  2  1  0
  2  3  1  0
  3  4  1  0
  4  5  1  0
  3  6  1  0
  6  7  2  0
  7  8  1  0
  8  9  2  0
  9 10  1  0
 10 11  2  3
 11 12  1  0
 12 13  2  0
 13 14  1  0
 14 15  2  0
 15 16  1  0
 16 17  2  0
 17 18  1  0
 18 19  1  0
 19 20  1  0
 18 21  2  0
 21 22  1  0
 22 23  2  0
 23 24  1  0
 24 25  1  0
  9 26  1  0
 26 27  2  0
 27  6  1  0
 23 12  1  0
 22 15  1  0
  1 28  1  0
  1 29  1  0
  1 30  1  0
  2 31  1  0
  2 32  1  0
  4 33  1  0
  4 34  1  0
  5 35  1  0
  5 36  1  0
  5 37  1  0
  7 38  1  0
  8 39  1  0
 10 40  1  0
 11 41  1  0
 13 42  1  0
 14 43  1  0
 16 44  1  0
 17 45  1  0
 20 46  1  0
 20 47  1  0
 20 48  1  0
 21 49  1  0
 24 50  1  0
 24 51  1  0
 25 52  1  0
 25 53  1  0
 25 54  1  0
 26 55  1  0
 27 56  1  0
M  CHG  1  23   1
M  END
$$$$
