
     RDKit          3D

 52 55  0  0  0  0  0  0  0  0999 V2000
    6.5654    0.9896    0.5493 C   0  0  0  0  0  0  0  0  0  0  0  0
    5.3253    0.2337    0.3981 N   0  0  0  0  0  0  0  0  0  0  0  0
    4.3175    0.6953    1.3747 C   0  0  0  0  0  0  0  0  0  0  0  0
    2.8828    0.3044    0.9604 C   0  0  0  0  0  0  0  0  0  0  0  0
    2.4438    0.9575   -0.2946 N   0  0  0  0  0  0  0  0  0  0  0  0
    1.4059    0.1832   -0.9890 C   0  0  0  0  0  0  0  0  0  0  0  0
    0.1214    0.0306   -0.1643 C   0  0  0  0  0  0  0  0  0  0  0  0
   -0.9642   -0.6740   -0.9912 C   0  0  0  0  0  0  0  0  0  0  0  0
   -2.2018   -0.8909   -0.2061 N   0  0  0  0  0  0  0  0  0  0  0  0
   -2.3285   -2.1407    0.4703 C   0  0  0  0  0  0  0  0  0  0  0  0
   -1.2181   -2.9817    0.7158 C   0  0  0  0  0  0  0  0  0  0  0  0
   -1.3300   -4.2043    1.3897 C   0  0  0  0  0  0  0  0  0  0  0  0
   -2.5640   -4.6310    1.8482 C   0  0  0  0  0  0  0  0  0  0  0  0
   -3.6786   -3.8295    1.6328 C   0  0  0  0  0  0  0  0  0  0  0  0
   -3.5702   -2.5968    0.9579 C   0  0  0  0  0  0  0  0  0  0  0  0
   -5.0951   -1.7110    0.7437 S   0  0  0  0  0  0  0  0  0  0  0  0
   -4.5372   -0.1413    0.1278 C   0  0  0  0  0  0  0  0  0  0  0  0
   -5.5249    0.8600    0.0508 C   0  0  0  0  0  0  0  0  0  0  0  0
   -5.2281    2.1286   -0.4360 C   0  0  0  0  0  0  0  0  0  0  0  0
   -3.9338    2.4166   -0.8605 C   0  0  0  0  0  0  0  0  0  0  0  0
   -3.5730    3.7913   -1.3667 C   0  0  0  0  0  0  0  0  0  0  0  0
   -4.6352    4.4702   -1.8830 F   0  0  0  0  0  0  0  0  0  0  0  0
   -3.0594    4.5861   -0.3888 F   0  0  0  0  0  0  0  0  0  0  0  0
   -2.6367    3.7622   -2.3563 F   0  0  0  0  0  0  0  0  0  0  0  0
   -2.9496    1.4109   -0.7727 C   0  0  0  0  0  0  0  0  0  0  0  0
   -3.2152    0.1074   -0.2911 C   0  0  0  0  0  0  0  0  0  0  0  0
    3.5983    1.2392   -1.1765 C   0  0  0  0  0  0  0  0  0  0  0  0
    4.8061    0.2945   -0.9825 C   0  0  0  0  0  0  0  0  0  0  0  0
    6.9442    0.9073    1.5743 H   0  0  0  0  0  0  0  0  0  0  0  0
    6.4340    2.0517    0.3125 H   0  0  0  0  0  0  0  0  0  0  0  0
    7.3442    0.5841   -0.1059 H   0  0  0  0  0  0  0  0  0  0  0  0
    4.5427    0.2492    2.3503 H   0  0  0  0  0  0  0  0  0  0  0  0
    4.3578    1.7859    1.5019 H   0  0  0  0  0  0  0  0  0  0  0  0
    2.8412   -0.7898    0.8691 H   0  0  0  0  0  0  0  0  0  0  0  0
    2.1958    0.5903    1.7651 H   0  0  0  0  0  0  0  0  0  0  0  0
    1.7869   -0.8058   -1.2751 H   0  0  0  0  0  0  0  0  0  0  0  0
    1.1411    0.7056   -1.9174 H   0  0  0  0  0  0  0  0  0  0  0  0
   -0.2247    1.0177    0.1623 H   0  0  0  0  0  0  0  0  0  0  0  0
    0.3211   -0.5357    0.7512 H   0  0  0  0  0  0  0  0  0  0  0  0
   -0.5826   -1.6225   -1.3913 H   0  0  0  0  0  0  0  0  0  0  0  0
   -1.1739   -0.1056   -1.9068 H   0  0  0  0  0  0  0  0  0  0  0  0
   -0.2158   -2.7063    0.4058 H   0  0  0  0  0  0  0  0  0  0  0  0
   -0.4457   -4.8143    1.5563 H   0  0  0  0  0  0  0  0  0  0  0  0
   -2.6619   -5.5776    2.3719 H   0  0  0  0  0  0  0  0  0  0  0  0
   -4.6458   -4.1721    1.9959 H   0  0  0  0  0  0  0  0  0  0  0  0
   -6.5432    0.6502    0.3749 H   0  0  0  0  0  0  0  0  0  0  0  0
   -6.0103    2.8842   -0.4798 H   0  0  0  0  0  0  0  0  0  0  0  0
   -1.9482    1.6958   -1.0850 H   0  0  0  0  0  0  0  0  0  0  0  0
    3.9272    2.2655   -0.9672 H   0  0  0  0  0  0  0  0  0  0  0  0
    3.3032    1.2410   -2.2331 H   0  0  0  0  0  0  0  0  0  0  0  0
    5.5957    0.5624   -1.6957 H   0  0  0  0  0  0  0  0  0  0  0  0
    4.4943   -0.7213   -1.2583 H   0  0  0  0  0  0  0  0  0  0  0  0
  1  2  1  0
  2  3  1  0
  3  4  1  0
  4  5  1  0
  5  6  1  0
  6  7  1  0
  7  8  1  0
  8  9  1  0
  9 10  1  0
 10 11  2  0
 11 12  1  0
 12 13  2  0
 13 14  1  0
 14 15  2  0
 15 16  1  0
 16 17  1  0
 17 18  2  0
 18 19  1  0
 19 20  2  0
 20 21  1  0
 21 22  1  0
 21 23  1  0
 21 24  1  0
 20 25  1  0
 25 26  2  0
  5 27  1  0
 27 28  1  0
 28  2  1  0
 26  9  1  0
 15 10  1  0
 26 17  1  0
  1 29  1  0
  1 30  1  0
  1 31  1  0
  3 32  1  0
  3 33  1  0
  4 34  1  0
  4 35  1  0
  6 36  1  0
  6 37  1  0
  7 38  1  0
  7 39  1  0
  8 40  1  0
  8 41  1  0
 11 42  1  0
 12 43  1  0
 13 44  1  0
 14 45  1  0
 18 46  1  0
 19 47  1  0
 25 48  1  0
 27 49  1  0
 27 50  1  0
 28 51  1  0
 28 52  1  0
M  END
$$$$
