
     RDKit          3D

 36 37  0  0  0  0  0  0  0  0999 V2000
   -0.5806    1.0844   -2.3801 O   0  0  0  0  0  0  0  0  0  0  0  0
   -0.4676    1.3251   -1.1822 C   0  0  0  0  0  0  0  0  0  0  0  0
    0.3412    2.5149   -0.6606 C   0  0  0  0  0  0  0  0  0  0  0  0
    1.6862    2.1737   -0.3196 O   0  0  0  0  0  0  0  0  0  0  0  0
    1.8379    1.5215    0.8559 C   0  0  0  0  0  0  0  0  0  0  0  0
    0.9349    1.2113    1.6183 O   0  0  0  0  0  0  0  0  0  0  0  0
    3.2703    1.2175    1.1119 C   0  0  0  0  0  0  0  0  0  0  0  0
    3.6054    0.5963    2.3225 C   0  0  0  0  0  0  0  0  0  0  0  0
    4.9370    0.2926    2.6019 C   0  0  0  0  0  0  0  0  0  0  0  0
    5.3418   -0.4679    4.0910 Cl  0  0  0  0  0  0  0  0  0  0  0  0
    5.9425    0.5993    1.6891 C   0  0  0  0  0  0  0  0  0  0  0  0
    5.6057    1.2153    0.4863 C   0  0  0  0  0  0  0  0  0  0  0  0
    6.8425    1.5984   -0.6471 Cl  0  0  0  0  0  0  0  0  0  0  0  0
    4.2786    1.5264    0.1894 C   0  0  0  0  0  0  0  0  0  0  0  0
   -1.0534    0.5621   -0.1940 N   0  0  0  0  0  0  0  0  0  0  0  0
   -1.7183   -0.6955   -0.4889 C   0  0  0  0  0  0  0  0  0  0  0  0
   -2.9997   -0.5441   -1.3184 C   0  0  0  0  0  0  0  0  0  0  0  0
   -3.7962   -1.7608   -1.3128 N   0  0  0  0  0  0  0  0  0  0  0  0
   -4.7821   -2.0189   -0.3926 C   0  0  0  0  0  0  0  0  0  0  0  0
   -5.0642   -1.0820    0.5552 O   0  0  0  0  0  0  0  0  0  0  0  0
   -5.3718   -3.2120   -0.5286 C   0  0  0  0  0  0  0  0  0  0  0  0
   -4.6856   -4.1059   -1.8507 S   0  0  0  0  0  0  0  0  0  0  0  0
   -3.5426   -2.7926   -2.2021 C   0  0  0  0  0  0  0  0  0  0  0  0
   -2.6929   -2.8551   -3.0735 O   0  0  0  0  0  0  0  0  0  0  0  0
    0.3820    3.2675   -1.4555 H   0  0  0  0  0  0  0  0  0  0  0  0
   -0.1725    2.9856    0.1867 H   0  0  0  0  0  0  0  0  0  0  0  0
    2.8303    0.3501    3.0462 H   0  0  0  0  0  0  0  0  0  0  0  0
    6.9789    0.3600    1.9123 H   0  0  0  0  0  0  0  0  0  0  0  0
    4.0421    2.0035   -0.7591 H   0  0  0  0  0  0  0  0  0  0  0  0
   -0.6633    0.6716    0.7434 H   0  0  0  0  0  0  0  0  0  0  0  0
   -1.9469   -1.1548    0.4794 H   0  0  0  0  0  0  0  0  0  0  0  0
   -1.0054   -1.3497   -1.0038 H   0  0  0  0  0  0  0  0  0  0  0  0
   -3.6071    0.2913   -0.9504 H   0  0  0  0  0  0  0  0  0  0  0  0
   -2.7434   -0.3100   -2.3581 H   0  0  0  0  0  0  0  0  0  0  0  0
   -5.7995   -1.4099    1.1004 H   0  0  0  0  0  0  0  0  0  0  0  0
   -6.1642   -3.6093    0.0880 H   0  0  0  0  0  0  0  0  0  0  0  0
  1  2  2  0
  2  3  1  0
  3  4  1  0
  4  5  1  0
  5  6  2  0
  5  7  1  0
  7  8  2  0
  8  9  1  0
  9 10  1  0
  9 11  2  0
 11 12  1  0
 12 13  1  0
 12 14  2  0
  2 15  1  0
 15 16  1  0
 16 17  1  0
 17 18  1  0
 18 19  1  0
 19 20  1  0
 19 21  2  0
 21 22  1  0
 22 23  1  0
 23 24  2  0
 14  7  1  0
 23 18  1  0
  3 25  1  0
  3 26  1  0
  8 27  1  0
 11 28  1  0
 14 29  1  0
 15 30  1  0
 16 31  1  0
 16 32  1  0
 17 33  1  0
 17 34  1  0
 20 35  1  0
 21 36  1  0
M  END
$$$$
