
     RDKit          3D

 67 71  0  0  0  0  0  0  0  0999 V2000
   -4.5808   -4.4594   -0.3051 C   0  0  0  0  0  0  0  0  0  0  0  0
   -4.5081   -3.1196    0.1671 O   0  0  0  0  0  0  0  0  0  0  0  0
   -3.3460   -2.7354    0.7803 C   0  0  0  0  0  0  0  0  0  0  0  0
   -2.2033   -3.5245    0.9418 C   0  0  0  0  0  0  0  0  0  0  0  0
   -1.0760   -3.0041    1.5832 C   0  0  0  0  0  0  0  0  0  0  0  0
    0.1009   -3.6674    1.8043 O   0  0  0  0  0  0  0  0  0  0  0  0
    0.2519   -4.9415    1.1870 C   0  0  0  0  0  0  0  0  0  0  0  0
   -1.0999   -1.6937    2.0667 C   0  0  0  0  0  0  0  0  0  0  0  0
   -2.2328   -0.8890    1.9040 C   0  0  0  0  0  0  0  0  0  0  0  0
   -2.2222    0.5041    2.3630 C   0  0  0  0  0  0  0  0  0  0  0  0
   -3.2401    0.9521    3.6614 S   0  0  0  0  0  0  0  0  0  0  0  0
   -2.7062    2.5854    3.6340 C   0  0  0  0  0  0  0  0  0  0  0  0
   -3.1373    3.6316    4.4725 C   0  0  0  0  0  0  0  0  0  0  0  0
   -2.5945    4.9114    4.3047 C   0  0  0  0  0  0  0  0  0  0  0  0
   -1.6417    5.1537    3.3242 C   0  0  0  0  0  0  0  0  0  0  0  0
   -1.0426    6.3558    3.0626 O   0  0  0  0  0  0  0  0  0  0  0  0
   -1.4696    7.4713    3.8342 C   0  0  0  0  0  0  0  0  0  0  0  0
   -1.2198    4.1043    2.4993 C   0  0  0  0  0  0  0  0  0  0  0  0
   -1.7473    2.7942    2.6420 C   0  0  0  0  0  0  0  0  0  0  0  0
   -1.4720    1.5785    1.9112 C   0  0  0  0  0  0  0  0  0  0  0  0
   -0.5362    1.4421    0.8014 C   0  0  0  0  0  0  0  0  0  0  0  0
    0.8416    1.4416    1.0418 C   0  0  0  0  0  0  0  0  0  0  0  0
    1.7431    1.2963   -0.0186 C   0  0  0  0  0  0  0  0  0  0  0  0
    1.2715    1.1567   -1.3240 C   0  0  0  0  0  0  0  0  0  0  0  0
    2.0385    1.0027   -2.4442 O   0  0  0  0  0  0  0  0  0  0  0  0
    3.4416    0.8127   -2.2570 C   0  0  0  0  0  0  0  0  0  0  0  0
    4.1188    0.5503   -3.6200 C   0  0  0  0  0  0  0  0  0  0  0  0
    3.9468   -0.7694   -4.2516 N   0  0  0  0  0  0  0  0  0  0  0  0
    4.6400   -1.8579   -3.5417 C   0  0  0  0  0  0  0  0  0  0  0  0
    4.1057   -3.2347   -3.9689 C   0  0  0  0  0  0  0  0  0  0  0  0
    2.7237   -3.4233   -3.6274 O   0  0  0  0  0  0  0  0  0  0  0  0
    1.9722   -2.1968   -3.6177 C   0  0  0  0  0  0  0  0  0  0  0  0
    2.5493   -1.1260   -4.5594 C   0  0  0  0  0  0  0  0  0  0  0  0
   -0.1049    1.1756   -1.5623 C   0  0  0  0  0  0  0  0  0  0  0  0
   -1.0085    1.3150   -0.5073 C   0  0  0  0  0  0  0  0  0  0  0  0
   -3.3538   -1.4224    1.2591 C   0  0  0  0  0  0  0  0  0  0  0  0
   -4.4770   -5.1734    0.5188 H   0  0  0  0  0  0  0  0  0  0  0  0
   -5.5709   -4.6059   -0.7474 H   0  0  0  0  0  0  0  0  0  0  0  0
   -3.8377   -4.6427   -1.0881 H   0  0  0  0  0  0  0  0  0  0  0  0
   -2.1906   -4.5400    0.5699 H   0  0  0  0  0  0  0  0  0  0  0  0
    1.2590   -5.3042    1.4113 H   0  0  0  0  0  0  0  0  0  0  0  0
   -0.4622   -5.6644    1.5969 H   0  0  0  0  0  0  0  0  0  0  0  0
    0.1595   -4.8676    0.0981 H   0  0  0  0  0  0  0  0  0  0  0  0
   -0.2176   -1.2987    2.5655 H   0  0  0  0  0  0  0  0  0  0  0  0
   -3.8846    3.4503    5.2404 H   0  0  0  0  0  0  0  0  0  0  0  0
   -2.9478    5.6972    4.9649 H   0  0  0  0  0  0  0  0  0  0  0  0
   -0.9153    8.3491    3.4866 H   0  0  0  0  0  0  0  0  0  0  0  0
   -2.5361    7.6705    3.6851 H   0  0  0  0  0  0  0  0  0  0  0  0
   -1.2371    7.3292    4.8949 H   0  0  0  0  0  0  0  0  0  0  0  0
   -0.4772    4.3022    1.7293 H   0  0  0  0  0  0  0  0  0  0  0  0
    1.2211    1.5449    2.0556 H   0  0  0  0  0  0  0  0  0  0  0  0
    2.8028    1.2972    0.2107 H   0  0  0  0  0  0  0  0  0  0  0  0
    3.6333   -0.0119   -1.5630 H   0  0  0  0  0  0  0  0  0  0  0  0
    3.8710    1.7327   -1.8421 H   0  0  0  0  0  0  0  0  0  0  0  0
    3.7703    1.3082   -4.3338 H   0  0  0  0  0  0  0  0  0  0  0  0
    5.1963    0.7247   -3.5034 H   0  0  0  0  0  0  0  0  0  0  0  0
    4.5072   -1.7699   -2.4573 H   0  0  0  0  0  0  0  0  0  0  0  0
    5.7135   -1.7986   -3.7544 H   0  0  0  0  0  0  0  0  0  0  0  0
    4.6745   -4.0290   -3.4745 H   0  0  0  0  0  0  0  0  0  0  0  0
    4.2149   -3.3822   -5.0504 H   0  0  0  0  0  0  0  0  0  0  0  0
    0.9476   -2.4441   -3.9146 H   0  0  0  0  0  0  0  0  0  0  0  0
    1.9315   -1.8363   -2.5831 H   0  0  0  0  0  0  0  0  0  0  0  0
    2.5510   -1.5421   -5.5755 H   0  0  0  0  0  0  0  0  0  0  0  0
    1.8958   -0.2487   -4.6033 H   0  0  0  0  0  0  0  0  0  0  0  0
   -0.4786    1.0748   -2.5780 H   0  0  0  0  0  0  0  0  0  0  0  0
   -2.0760    1.3197   -0.7140 H   0  0  0  0  0  0  0  0  0  0  0  0
   -4.2424   -0.8115    1.1144 H   0  0  0  0  0  0  0  0  0  0  0  0
  1  2  1  0
  2  3  1  0
  3  4  2  0
  4  5  1  0
  5  6  1  0
  6  7  1  0
  5  8  2  0
  8  9  1  0
  9 10  1  0
 10 11  1  0
 11 12  1  0
 12 13  2  0
 13 14  1  0
 14 15  2  0
 15 16  1  0
 16 17  1  0
 15 18  1  0
 18 19  2  0
 19 20  1  0
 20 21  1  0
 21 22  2  0
 22 23  1  0
 23 24  2  0
 24 25  1  0
 25 26  1  0
 26 27  1  0
 27 28  1  0
 28 29  1  0
 29 30  1  0
 30 31  1  0
 31 32  1  0
 32 33  1  0
 24 34  1  0
 34 35  2  0
  9 36  2  0
 36  3  1  0
 20 10  2  0
 35 21  1  0
 19 12  1  0
 33 28  1  0
  1 37  1  0
  1 38  1  0
  1 39  1  0
  4 40  1  0
  7 41  1  0
  7 42  1  0
  7 43  1  0
  8 44  1  0
 13 45  1  0
 14 46  1  0
 17 47  1  0
 17 48  1  0
 17 49  1  0
 18 50  1  0
 22 51  1  0
 23 52  1  0
 26 53  1  0
 26 54  1  0
 27 55  1  0
 27 56  1  0
 29 57  1  0
 29 58  1  0
 30 59  1  0
 30 60  1  0
 32 61  1  0
 32 62  1  0
 33 63  1  0
 33 64  1  0
 34 65  1  0
 35 66  1  0
 36 67  1  0
M  END
$$$$
