
     RDKit          3D

 61 66  0  0  0  0  0  0  0  0999 V2000
    8.6887    0.6397    2.0677 F   0  0  0  0  0  0  0  0  0  0  0  0
    8.1967    1.1629    0.9095 C   0  0  0  0  0  0  0  0  0  0  0  0
    7.7214    2.3981    1.2326 F   0  0  0  0  0  0  0  0  0  0  0  0
    9.2798    1.3792    0.1113 F   0  0  0  0  0  0  0  0  0  0  0  0
    7.1739    0.2663    0.2579 C   0  0  0  0  0  0  0  0  0  0  0  0
    7.4951   -1.0684   -0.0317 C   0  0  0  0  0  0  0  0  0  0  0  0
    6.5598   -1.9068   -0.6379 C   0  0  0  0  0  0  0  0  0  0  0  0
    5.2928   -1.4222   -0.9631 C   0  0  0  0  0  0  0  0  0  0  0  0
    4.9462   -0.0935   -0.6833 C   0  0  0  0  0  0  0  0  0  0  0  0
    3.5738    0.4380   -1.0453 C   0  0  0  0  0  0  0  0  0  0  0  0
    2.8521    1.0073    0.1050 N   0  0  0  0  0  0  0  0  0  0  0  0
    1.6262    1.7137   -0.3317 C   0  0  0  0  0  0  0  0  0  0  0  0
    0.4749    0.8019   -0.8103 C   0  0  0  0  0  0  0  0  0  0  0  0
    0.1439   -0.2162    0.2062 N   0  0  0  0  0  0  0  0  0  0  0  0
   -1.0386   -0.9327    0.0276 C   0  0  0  0  0  0  0  0  0  0  0  0
   -0.9774   -2.2207   -0.1997 N   0  0  0  0  0  0  0  0  0  0  0  0
   -2.1547   -2.9649   -0.4161 C   0  0  0  0  0  0  0  0  0  0  0  0
   -2.0369   -4.3335   -0.6658 C   0  0  0  0  0  0  0  0  0  0  0  0
   -3.1709   -5.1168   -0.8974 C   0  0  0  0  0  0  0  0  0  0  0  0
   -4.4392   -4.5351   -0.8814 C   0  0  0  0  0  0  0  0  0  0  0  0
   -4.5813   -3.1694   -0.6334 C   0  0  0  0  0  0  0  0  0  0  0  0
   -3.4379   -2.3984   -0.4041 C   0  0  0  0  0  0  0  0  0  0  0  0
   -3.4904   -1.0209   -0.1349 N   0  0  0  0  0  0  0  0  0  0  0  0
   -4.5799   -0.1883   -0.0337 C   0  0  0  0  0  0  0  0  0  0  0  0
   -4.1371    1.0767    0.3091 C   0  0  0  0  0  0  0  0  0  0  0  0
   -5.0160    2.2141    0.5417 C   0  0  0  0  0  0  0  0  0  0  0  0
   -4.6894    3.1661    1.5170 C   0  0  0  0  0  0  0  0  0  0  0  0
   -5.5215    4.2654    1.7453 C   0  0  0  0  0  0  0  0  0  0  0  0
   -6.6866    4.4259    0.9985 C   0  0  0  0  0  0  0  0  0  0  0  0
   -7.0208    3.4886    0.0234 C   0  0  0  0  0  0  0  0  0  0  0  0
   -6.1897    2.3883   -0.2046 C   0  0  0  0  0  0  0  0  0  0  0  0
   -2.7217    0.9925    0.4129 C   0  0  0  0  0  0  0  0  0  0  0  0
   -2.3434   -0.2986    0.0936 C   0  0  0  0  0  0  0  0  0  0  0  0
    1.3324   -0.9738    0.6514 C   0  0  0  0  0  0  0  0  0  0  0  0
    2.4605   -0.0205    1.0997 C   0  0  0  0  0  0  0  0  0  0  0  0
    5.8973    0.7438   -0.0771 C   0  0  0  0  0  0  0  0  0  0  0  0
    8.4807   -1.4591    0.2175 H   0  0  0  0  0  0  0  0  0  0  0  0
    6.8185   -2.9399   -0.8577 H   0  0  0  0  0  0  0  0  0  0  0  0
    4.5767   -2.0913   -1.4356 H   0  0  0  0  0  0  0  0  0  0  0  0
    3.7394    1.2215   -1.7973 H   0  0  0  0  0  0  0  0  0  0  0  0
    2.9903   -0.3424   -1.5475 H   0  0  0  0  0  0  0  0  0  0  0  0
    1.8704    2.4398   -1.1168 H   0  0  0  0  0  0  0  0  0  0  0  0
    1.2655    2.3101    0.5171 H   0  0  0  0  0  0  0  0  0  0  0  0
    0.7477    0.3036   -1.7486 H   0  0  0  0  0  0  0  0  0  0  0  0
   -0.3902    1.4352   -1.0300 H   0  0  0  0  0  0  0  0  0  0  0  0
   -1.0507   -4.7895   -0.6798 H   0  0  0  0  0  0  0  0  0  0  0  0
   -3.0621   -6.1811   -1.0895 H   0  0  0  0  0  0  0  0  0  0  0  0
   -5.3185   -5.1492   -1.0606 H   0  0  0  0  0  0  0  0  0  0  0  0
   -5.5779   -2.7411   -0.6222 H   0  0  0  0  0  0  0  0  0  0  0  0
   -5.5837   -0.5584   -0.1832 H   0  0  0  0  0  0  0  0  0  0  0  0
   -3.7911    3.0550    2.1195 H   0  0  0  0  0  0  0  0  0  0  0  0
   -5.2599    4.9937    2.5084 H   0  0  0  0  0  0  0  0  0  0  0  0
   -7.3336    5.2810    1.1761 H   0  0  0  0  0  0  0  0  0  0  0  0
   -7.9271    3.6139   -0.5633 H   0  0  0  0  0  0  0  0  0  0  0  0
   -6.4636    1.6778   -0.9804 H   0  0  0  0  0  0  0  0  0  0  0  0
   -2.0452    1.7921    0.6842 H   0  0  0  0  0  0  0  0  0  0  0  0
    1.6851   -1.6308   -0.1527 H   0  0  0  0  0  0  0  0  0  0  0  0
    1.0642   -1.6085    1.5050 H   0  0  0  0  0  0  0  0  0  0  0  0
    3.3295   -0.6066    1.4197 H   0  0  0  0  0  0  0  0  0  0  0  0
    2.1252    0.5089    2.0021 H   0  0  0  0  0  0  0  0  0  0  0  0
    5.6284    1.7774    0.1438 H   0  0  0  0  0  0  0  0  0  0  0  0
  1  2  1  0
  2  3  1  0
  2  4  1  0
  2  5  1  0
  5  6  2  0
  6  7  1  0
  7  8  2  0
  8  9  1  0
  9 10  1  0
 10 11  1  0
 11 12  1  0
 12 13  1  0
 13 14  1  0
 14 15  1  0
 15 16  2  0
 16 17  1  0
 17 18  2  0
 18 19  1  0
 19 20  2  0
 20 21  1  0
 21 22  2  0
 22 23  1  0
 23 24  1  0
 24 25  2  0
 25 26  1  0
 26 27  2  0
 27 28  1  0
 28 29  2  0
 29 30  1  0
 30 31  2  0
 25 32  1  0
 32 33  2  0
 14 34  1  0
 34 35  1  0
  9 36  2  0
 36  5  1  0
 35 11  1  0
 33 15  1  0
 22 17  1  0
 33 23  1  0
 31 26  1  0
  6 37  1  0
  7 38  1  0
  8 39  1  0
 10 40  1  0
 10 41  1  0
 12 42  1  0
 12 43  1  0
 13 44  1  0
 13 45  1  0
 18 46  1  0
 19 47  1  0
 20 48  1  0
 21 49  1  0
 24 50  1  0
 27 51  1  0
 28 52  1  0
 29 53  1  0
 30 54  1  0
 31 55  1  0
 32 56  1  0
 34 57  1  0
 34 58  1  0
 35 59  1  0
 35 60  1  0
 36 61  1  0
M  END
$$$$
