
     RDKit          3D

 59 64  0  0  0  0  0  0  0  0999 V2000
    1.1817   -1.7871   -1.2366 C   0  0  0  0  0  0  0  0  0  0  0  0
    1.3428   -0.4619   -1.7605 O   0  0  0  0  0  0  0  0  0  0  0  0
    2.5795    0.0584   -1.4412 C   0  0  0  0  0  0  0  0  0  0  0  0
    3.7391   -0.5032   -2.0010 C   0  0  0  0  0  0  0  0  0  0  0  0
    4.9788    0.0834   -1.6893 C   0  0  0  0  0  0  0  0  0  0  0  0
    4.9927    1.2022   -0.8632 C   0  0  0  0  0  0  0  0  0  0  0  0
    3.8510    1.7940   -0.3130 C   0  0  0  0  0  0  0  0  0  0  0  0
    2.6212    1.1987   -0.6136 C   0  0  0  0  0  0  0  0  0  0  0  0
    1.3823    1.6647   -0.1156 N   0  0  0  0  0  0  0  0  0  0  0  0
    1.1400    2.7225    0.7283 C   0  0  0  0  0  0  0  0  0  0  0  0
    2.0044    3.4599    1.2102 O   0  0  0  0  0  0  0  0  0  0  0  0
   -0.3099    2.9226    1.1547 C   0  0  0  0  0  0  0  0  0  0  0  0
   -1.5660    2.4270   -0.0647 S   0  0  0  0  0  0  0  0  0  0  0  0
   -1.8615    0.8066    0.4537 C   0  0  0  0  0  0  0  0  0  0  0  0
   -0.9293   -0.1004    0.6072 N   0  0  0  0  0  0  0  0  0  0  0  0
   -1.5343   -1.2491    1.0412 N   0  0  0  0  0  0  0  0  0  0  0  0
   -2.8279   -1.0128    1.1766 C   0  0  0  0  0  0  0  0  0  0  0  0
   -3.8382   -2.0002    1.6726 C   0  0  0  0  0  0  0  0  0  0  0  0
   -4.3948   -1.6697    3.0338 C   0  0  0  0  0  0  0  0  0  0  0  0
   -5.7195   -1.4903    3.3911 C   0  0  0  0  0  0  0  0  0  0  0  0
   -5.8721   -1.1827    4.7774 C   0  0  0  0  0  0  0  0  0  0  0  0
   -4.6647   -1.1505    5.4367 C   0  0  0  0  0  0  0  0  0  0  0  0
   -3.3574   -1.5049    4.3925 S   0  0  0  0  0  0  0  0  0  0  0  0
   -3.0854    0.2837    0.7741 N   0  0  0  0  0  0  0  0  0  0  0  0
   -4.3736    0.9507    0.7442 C   0  0  0  0  0  0  0  0  0  0  0  0
   -5.2176    0.4265   -0.3606 C   0  0  0  0  0  0  0  0  0  0  0  0
   -5.0798    0.3851   -1.7347 C   0  0  0  0  0  0  0  0  0  0  0  0
   -6.2348   -0.2712   -2.2317 C   0  0  0  0  0  0  0  0  0  0  0  0
   -7.0036   -0.5797   -1.1328 C   0  0  0  0  0  0  0  0  0  0  0  0
   -6.3950   -0.1591    0.0065 O   0  0  0  0  0  0  0  0  0  0  0  0
    6.2709    1.6383   -0.6749 O   0  0  0  0  0  0  0  0  0  0  0  0
    7.0873    0.8032   -1.3750 C   0  0  0  0  0  0  0  0  0  0  0  0
    8.4771    0.9006   -1.4421 C   0  0  0  0  0  0  0  0  0  0  0  0
    9.1360   -0.0570   -2.2205 C   0  0  0  0  0  0  0  0  0  0  0  0
    8.4243   -1.0551   -2.8918 C   0  0  0  0  0  0  0  0  0  0  0  0
    7.0248   -1.1291   -2.8053 C   0  0  0  0  0  0  0  0  0  0  0  0
    6.3419   -0.1747   -2.0253 C   0  0  0  0  0  0  0  0  0  0  0  0
    0.1167   -2.0263   -1.2511 H   0  0  0  0  0  0  0  0  0  0  0  0
    1.6967   -2.5179   -1.8707 H   0  0  0  0  0  0  0  0  0  0  0  0
    1.5288   -1.8663   -0.1961 H   0  0  0  0  0  0  0  0  0  0  0  0
    3.6820   -1.3561   -2.6670 H   0  0  0  0  0  0  0  0  0  0  0  0
    3.9534    2.6672    0.3152 H   0  0  0  0  0  0  0  0  0  0  0  0
    0.5872    1.0800   -0.3723 H   0  0  0  0  0  0  0  0  0  0  0  0
   -0.4534    3.9997    1.3135 H   0  0  0  0  0  0  0  0  0  0  0  0
   -0.4700    2.4221    2.1175 H   0  0  0  0  0  0  0  0  0  0  0  0
   -4.6546   -2.0907    0.9453 H   0  0  0  0  0  0  0  0  0  0  0  0
   -3.3736   -2.9947    1.7174 H   0  0  0  0  0  0  0  0  0  0  0  0
   -6.5458   -1.5668    2.6914 H   0  0  0  0  0  0  0  0  0  0  0  0
   -6.8206   -0.9925    5.2676 H   0  0  0  0  0  0  0  0  0  0  0  0
   -4.4827   -0.9442    6.4847 H   0  0  0  0  0  0  0  0  0  0  0  0
   -4.2287    2.0272    0.6208 H   0  0  0  0  0  0  0  0  0  0  0  0
   -4.8448    0.8105    1.7228 H   0  0  0  0  0  0  0  0  0  0  0  0
   -4.2458    0.7676   -2.3090 H   0  0  0  0  0  0  0  0  0  0  0  0
   -6.4758   -0.4980   -3.2621 H   0  0  0  0  0  0  0  0  0  0  0  0
   -7.9570   -1.0768   -1.0005 H   0  0  0  0  0  0  0  0  0  0  0  0
    9.0132    1.6828   -0.9175 H   0  0  0  0  0  0  0  0  0  0  0  0
   10.2212   -0.0227   -2.3037 H   0  0  0  0  0  0  0  0  0  0  0  0
    8.9618   -1.7871   -3.4925 H   0  0  0  0  0  0  0  0  0  0  0  0
    6.4811   -1.9065   -3.3325 H   0  0  0  0  0  0  0  0  0  0  0  0
  1  2  1  0
  2  3  1  0
  3  4  2  0
  4  5  1  0
  5  6  2  0
  6  7  1  0
  7  8  2  0
  8  9  1  0
  9 10  1  0
 10 11  2  0
 10 12  1  0
 12 13  1  0
 13 14  1  0
 14 15  2  0
 15 16  1  0
 16 17  2  0
 17 18  1  0
 18 19  1  0
 19 20  2  0
 20 21  1  0
 21 22  2  0
 22 23  1  0
 17 24  1  0
 24 25  1  0
 25 26  1  0
 26 27  2  0
 27 28  1  0
 28 29  2  0
 29 30  1  0
  6 31  1  0
 31 32  1  0
 32 33  2  0
 33 34  1  0
 34 35  2  0
 35 36  1  0
 36 37  2  0
  8  3  1  0
 24 14  1  0
 30 26  1  0
 37 32  1  0
 37  5  1  0
 23 19  1  0
  1 38  1  0
  1 39  1  0
  1 40  1  0
  4 41  1  0
  7 42  1  0
  9 43  1  0
 12 44  1  0
 12 45  1  0
 18 46  1  0
 18 47  1  0
 20 48  1  0
 21 49  1  0
 22 50  1  0
 25 51  1  0
 25 52  1  0
 27 53  1  0
 28 54  1  0
 29 55  1  0
 33 56  1  0
 34 57  1  0
 35 58  1  0
 36 59  1  0
M  END
$$$$
