
     RDKit          3D

 39 40  0  0  0  0  0  0  0  0999 V2000
    6.1674    0.0849    1.9614 C   0  0  0  0  0  0  0  0  0  0  0  0
    4.7487   -0.3528    1.7427 C   0  0  0  0  0  0  0  0  0  0  0  0
    4.4583   -1.6261    1.2405 C   0  0  0  0  0  0  0  0  0  0  0  0
    3.1334   -2.0199    1.0358 C   0  0  0  0  0  0  0  0  0  0  0  0
    2.0810   -1.1430    1.3271 C   0  0  0  0  0  0  0  0  0  0  0  0
    0.6902   -1.6113    1.0839 C   0  0  0  0  0  0  0  0  0  0  0  0
    0.4101   -2.7366    0.7059 O   0  0  0  0  0  0  0  0  0  0  0  0
   -0.1978   -0.6108    1.3116 O   0  0  0  0  0  0  0  0  0  0  0  0
   -1.5654   -0.9736    1.1087 C   0  0  0  0  0  0  0  0  0  0  0  0
   -2.0109   -0.9522   -0.3557 C   0  0  0  0  0  0  0  0  0  0  0  0
   -3.0597   -1.4732   -0.7372 O   0  0  0  0  0  0  0  0  0  0  0  0
   -1.1862   -0.2385   -1.2002 N   0  0  0  0  0  0  0  0  0  0  0  0
   -1.5018   -0.0484   -2.6034 C   0  0  0  0  0  0  0  0  0  0  0  0
   -2.1950    1.2874   -2.9048 C   0  0  0  0  0  0  0  0  0  0  0  0
   -3.2576    1.6639   -1.9875 N   0  0  0  0  0  0  0  0  0  0  0  0
   -4.4529    0.9998   -1.8699 C   0  0  0  0  0  0  0  0  0  0  0  0
   -4.6483   -0.1758   -2.5259 O   0  0  0  0  0  0  0  0  0  0  0  0
   -5.3315    1.5605   -1.0353 C   0  0  0  0  0  0  0  0  0  0  0  0
   -4.6783    2.9950   -0.3086 S   0  0  0  0  0  0  0  0  0  0  0  0
   -3.1535    2.7979   -1.1956 C   0  0  0  0  0  0  0  0  0  0  0  0
   -2.2037    3.5553   -1.0813 O   0  0  0  0  0  0  0  0  0  0  0  0
    2.3689    0.1325    1.8286 C   0  0  0  0  0  0  0  0  0  0  0  0
    3.6955    0.5233    2.0328 C   0  0  0  0  0  0  0  0  0  0  0  0
    6.8733   -0.7288    1.7640 H   0  0  0  0  0  0  0  0  0  0  0  0
    6.3090    0.4044    2.9991 H   0  0  0  0  0  0  0  0  0  0  0  0
    6.4120    0.9156    1.2917 H   0  0  0  0  0  0  0  0  0  0  0  0
    5.2603   -2.3233    1.0062 H   0  0  0  0  0  0  0  0  0  0  0  0
    2.9275   -3.0158    0.6468 H   0  0  0  0  0  0  0  0  0  0  0  0
   -2.1763   -0.2387    1.6435 H   0  0  0  0  0  0  0  0  0  0  0  0
   -1.7776   -1.9590    1.5395 H   0  0  0  0  0  0  0  0  0  0  0  0
   -0.4071    0.2688   -0.7943 H   0  0  0  0  0  0  0  0  0  0  0  0
   -0.5586   -0.1025   -3.1578 H   0  0  0  0  0  0  0  0  0  0  0  0
   -2.1213   -0.8827   -2.9483 H   0  0  0  0  0  0  0  0  0  0  0  0
   -1.4320    2.0753   -2.8920 H   0  0  0  0  0  0  0  0  0  0  0  0
   -2.6061    1.2737   -3.9213 H   0  0  0  0  0  0  0  0  0  0  0  0
   -4.1812   -0.8480   -1.9748 H   0  0  0  0  0  0  0  0  0  0  0  0
   -6.3119    1.1696   -0.8050 H   0  0  0  0  0  0  0  0  0  0  0  0
    1.5752    0.8350    2.0701 H   0  0  0  0  0  0  0  0  0  0  0  0
    3.9040    1.5181    2.4227 H   0  0  0  0  0  0  0  0  0  0  0  0
  1  2  1  0
  2  3  2  0
  3  4  1  0
  4  5  2  0
  5  6  1  0
  6  7  2  0
  6  8  1  0
  8  9  1  0
  9 10  1  0
 10 11  2  0
 10 12  1  0
 12 13  1  0
 13 14  1  0
 14 15  1  0
 15 16  1  0
 16 17  1  0
 16 18  2  0
 18 19  1  0
 19 20  1  0
 20 21  2  0
  5 22  1  0
 22 23  2  0
 23  2  1  0
 20 15  1  0
  1 24  1  0
  1 25  1  0
  1 26  1  0
  3 27  1  0
  4 28  1  0
  9 29  1  0
  9 30  1  0
 12 31  1  0
 13 32  1  0
 13 33  1  0
 14 34  1  0
 14 35  1  0
 17 36  1  0
 18 37  1  0
 22 38  1  0
 23 39  1  0
M  END
$$$$
