
     RDKit          3D

 28 29  0  0  0  0  0  0  0  0999 V2000
    5.2542   -1.3386    0.5216 C   0  0  0  0  0  0  0  0  0  0  0  0
    4.7996    0.1061    0.6101 C   0  0  0  0  0  0  0  0  0  0  0  0
    3.5211    0.2622   -0.0201 O   0  0  0  0  0  0  0  0  0  0  0  0
    2.4394    0.0183    0.7689 C   0  0  0  0  0  0  0  0  0  0  0  0
    2.4788   -0.3204    1.9441 O   0  0  0  0  0  0  0  0  0  0  0  0
    1.2235    0.2128    0.0188 C   0  0  0  0  0  0  0  0  0  0  0  0
    1.0107    0.5871   -1.2975 C   0  0  0  0  0  0  0  0  0  0  0  0
   -0.3885    0.6271   -1.5217 C   0  0  0  0  0  0  0  0  0  0  0  0
   -1.0094    0.2770   -0.3406 C   0  0  0  0  0  0  0  0  0  0  0  0
   -2.3944    0.1583   -0.0118 C   0  0  0  0  0  0  0  0  0  0  0  0
   -3.5046    0.3658   -0.8024 C   0  0  0  0  0  0  0  0  0  0  0  0
   -4.6103    0.1056    0.0363 C   0  0  0  0  0  0  0  0  0  0  0  0
   -6.0514    0.1739   -0.2898 C   0  0  0  0  0  0  0  0  0  0  0  0
   -4.2134   -0.2402    1.2647 N   0  0  0  0  0  0  0  0  0  0  0  0
   -2.8324   -0.2070    1.2335 O   0  0  0  0  0  0  0  0  0  0  0  0
   -0.0217    0.0296    0.5806 N   0  0  0  0  0  0  0  0  0  0  0  0
    5.2711   -1.6731   -0.5209 H   0  0  0  0  0  0  0  0  0  0  0  0
    6.2548   -1.4571    0.9467 H   0  0  0  0  0  0  0  0  0  0  0  0
    4.5664   -2.0006    1.0572 H   0  0  0  0  0  0  0  0  0  0  0  0
    4.7794    0.4578    1.6480 H   0  0  0  0  0  0  0  0  0  0  0  0
    5.5034    0.7465    0.0683 H   0  0  0  0  0  0  0  0  0  0  0  0
    1.7862    0.8083   -2.0210 H   0  0  0  0  0  0  0  0  0  0  0  0
   -0.8810    0.8852   -2.4504 H   0  0  0  0  0  0  0  0  0  0  0  0
   -3.5147    0.6635   -1.8397 H   0  0  0  0  0  0  0  0  0  0  0  0
   -6.5565    0.9061    0.3485 H   0  0  0  0  0  0  0  0  0  0  0  0
   -6.5265   -0.8012   -0.1418 H   0  0  0  0  0  0  0  0  0  0  0  0
   -6.2066    0.4705   -1.3321 H   0  0  0  0  0  0  0  0  0  0  0  0
   -0.1769   -0.2495    1.5424 H   0  0  0  0  0  0  0  0  0  0  0  0
  1  2  1  0
  2  3  1  0
  3  4  1  0
  4  5  2  0
  4  6  1  0
  6  7  2  0
  7  8  1  0
  8  9  2  0
  9 10  1  0
 10 11  2  0
 11 12  1  0
 12 13  1  0
 12 14  2  0
 14 15  1  0
  9 16  1  0
 16  6  1  0
 15 10  1  0
  1 17  1  0
  1 18  1  0
  1 19  1  0
  2 20  1  0
  2 21  1  0
  7 22  1  0
  8 23  1  0
 11 24  1  0
 13 25  1  0
 13 26  1  0
 13 27  1  0
 16 28  1  0
M  END
$$$$
