
     RDKit          3D

 52 56  0  0  0  0  0  0  0  0999 V2000
    3.5122   -1.4974   -1.5992 O   0  0  0  0  0  0  0  0  0  0  0  0
    2.4746   -0.9197   -1.2871 C   0  0  0  0  0  0  0  0  0  0  0  0
    1.1855   -1.2236   -2.0255 C   0  0  0  0  0  0  0  0  0  0  0  0
    0.0339   -2.1917   -1.0086 S   0  0  0  0  0  0  0  0  0  0  0  0
   -0.9574   -0.9206   -0.3637 C   0  0  0  0  0  0  0  0  0  0  0  0
   -0.4749    0.2488   -0.0113 N   0  0  0  0  0  0  0  0  0  0  0  0
   -1.4933    0.9722    0.5351 N   0  0  0  0  0  0  0  0  0  0  0  0
   -2.5958    0.2427    0.4905 C   0  0  0  0  0  0  0  0  0  0  0  0
   -3.9608    0.7781    0.7810 C   0  0  0  0  0  0  0  0  0  0  0  0
   -4.7718    0.9832   -0.4677 C   0  0  0  0  0  0  0  0  0  0  0  0
   -4.4346    1.6956   -1.6044 C   0  0  0  0  0  0  0  0  0  0  0  0
   -5.4554    1.6501   -2.5961 C   0  0  0  0  0  0  0  0  0  0  0  0
   -6.5457    0.9212   -2.1794 C   0  0  0  0  0  0  0  0  0  0  0  0
   -6.3392    0.3010   -0.6009 S   0  0  0  0  0  0  0  0  0  0  0  0
   -2.3003   -1.0151   -0.0338 N   0  0  0  0  0  0  0  0  0  0  0  0
   -3.1891   -2.1066   -0.2160 C   0  0  0  0  0  0  0  0  0  0  0  0
   -3.1906   -2.8279   -1.4171 C   0  0  0  0  0  0  0  0  0  0  0  0
   -4.0804   -3.8888   -1.5955 C   0  0  0  0  0  0  0  0  0  0  0  0
   -4.9664   -4.2358   -0.5781 C   0  0  0  0  0  0  0  0  0  0  0  0
   -4.9632   -3.5257    0.6219 C   0  0  0  0  0  0  0  0  0  0  0  0
   -4.0761   -2.4634    0.8064 C   0  0  0  0  0  0  0  0  0  0  0  0
    2.3427    0.0742   -0.3325 N   0  0  0  0  0  0  0  0  0  0  0  0
    3.3677    0.7311    0.3772 C   0  0  0  0  0  0  0  0  0  0  0  0
    2.9721    1.7063    1.3031 C   0  0  0  0  0  0  0  0  0  0  0  0
    3.9222    2.4501    2.0105 C   0  0  0  0  0  0  0  0  0  0  0  0
    5.2760    2.2294    1.7892 C   0  0  0  0  0  0  0  0  0  0  0  0
    5.6798    1.2345    0.8960 C   0  0  0  0  0  0  0  0  0  0  0  0
    4.7283    0.4958    0.1851 C   0  0  0  0  0  0  0  0  0  0  0  0
    6.9993    0.9392    0.6506 O   0  0  0  0  0  0  0  0  0  0  0  0
    7.8625    1.5221    1.6335 C   0  0  0  0  0  0  0  0  0  0  0  0
    7.4656    2.9639    1.9048 C   0  0  0  0  0  0  0  0  0  0  0  0
    6.1545    3.0254    2.4797 O   0  0  0  0  0  0  0  0  0  0  0  0
    0.7370   -0.2912   -2.3747 H   0  0  0  0  0  0  0  0  0  0  0  0
    1.4333   -1.8096   -2.9121 H   0  0  0  0  0  0  0  0  0  0  0  0
   -4.4827    0.1503    1.5111 H   0  0  0  0  0  0  0  0  0  0  0  0
   -3.8534    1.7567    1.2680 H   0  0  0  0  0  0  0  0  0  0  0  0
   -3.4888    2.2112   -1.7287 H   0  0  0  0  0  0  0  0  0  0  0  0
   -5.3937    2.1251   -3.5661 H   0  0  0  0  0  0  0  0  0  0  0  0
   -7.4555    0.7209   -2.7302 H   0  0  0  0  0  0  0  0  0  0  0  0
   -2.5443   -2.5627   -2.2471 H   0  0  0  0  0  0  0  0  0  0  0  0
   -4.0892   -4.4406   -2.5346 H   0  0  0  0  0  0  0  0  0  0  0  0
   -5.6582   -5.0619   -0.7194 H   0  0  0  0  0  0  0  0  0  0  0  0
   -5.6493   -3.8058    1.4189 H   0  0  0  0  0  0  0  0  0  0  0  0
   -4.0686   -1.9654    1.7718 H   0  0  0  0  0  0  0  0  0  0  0  0
    1.3911    0.3823   -0.1282 H   0  0  0  0  0  0  0  0  0  0  0  0
    1.9164    1.9076    1.4732 H   0  0  0  0  0  0  0  0  0  0  0  0
    3.6041    3.2129    2.7147 H   0  0  0  0  0  0  0  0  0  0  0  0
    5.0840   -0.2526   -0.5130 H   0  0  0  0  0  0  0  0  0  0  0  0
    8.8857    1.4758    1.2448 H   0  0  0  0  0  0  0  0  0  0  0  0
    7.8141    0.9145    2.5457 H   0  0  0  0  0  0  0  0  0  0  0  0
    7.4739    3.5646    0.9853 H   0  0  0  0  0  0  0  0  0  0  0  0
    8.1624    3.4195    2.6164 H   0  0  0  0  0  0  0  0  0  0  0  0
  1  2  2  0
  2  3  1  0
  3  4  1  0
  4  5  1  0
  5  6  2  0
  6  7  1  0
  7  8  2  0
  8  9  1  0
  9 10  1  0
 10 11  2  0
 11 12  1  0
 12 13  2  0
 13 14  1  0
  8 15  1  0
 15 16  1  0
 16 17  2  0
 17 18  1  0
 18 19  2  0
 19 20  1  0
 20 21  2  0
  2 22  1  0
 22 23  1  0
 23 24  2  0
 24 25  1  0
 25 26  2  0
 26 27  1  0
 27 28  2  0
 27 29  1  0
 29 30  1  0
 30 31  1  0
 31 32  1  0
 15  5  1  0
 21 16  1  0
 28 23  1  0
 14 10  1  0
 32 26  1  0
  3 33  1  0
  3 34  1  0
  9 35  1  0
  9 36  1  0
 11 37  1  0
 12 38  1  0
 13 39  1  0
 17 40  1  0
 18 41  1  0
 19 42  1  0
 20 43  1  0
 21 44  1  0
 22 45  1  0
 24 46  1  0
 25 47  1  0
 28 48  1  0
 30 49  1  0
 30 50  1  0
 31 51  1  0
 31 52  1  0
M  END
$$$$
