
     RDKit          3D

 39 40  0  0  0  0  0  0  0  0999 V2000
   -1.1930    0.4531    2.6021 O   0  0  0  0  0  0  0  0  0  0  0  0
   -1.1355    0.4258    1.3789 C   0  0  0  0  0  0  0  0  0  0  0  0
    0.1729    0.6302    0.6290 C   0  0  0  0  0  0  0  0  0  0  0  0
    1.3779    0.6130    1.5728 C   0  0  0  0  0  0  0  0  0  0  0  0
    2.6980    0.8142    0.8348 C   0  0  0  0  0  0  0  0  0  0  0  0
    2.8638   -0.2460   -0.1040 O   0  0  0  0  0  0  0  0  0  0  0  0
    4.0122   -0.2469   -0.8469 C   0  0  0  0  0  0  0  0  0  0  0  0
    5.0564    0.6755   -0.7474 C   0  0  0  0  0  0  0  0  0  0  0  0
    6.1788    0.5550   -1.5732 C   0  0  0  0  0  0  0  0  0  0  0  0
    6.2625   -0.4841   -2.5006 C   0  0  0  0  0  0  0  0  0  0  0  0
    5.2275   -1.4112   -2.5973 C   0  0  0  0  0  0  0  0  0  0  0  0
    4.1073   -1.2900   -1.7726 C   0  0  0  0  0  0  0  0  0  0  0  0
   -2.1944    0.2321    0.5044 N   0  0  0  0  0  0  0  0  0  0  0  0
   -3.5553   -0.0106    0.8171 C   0  0  0  0  0  0  0  0  0  0  0  0
   -4.0140   -0.0636    2.1403 C   0  0  0  0  0  0  0  0  0  0  0  0
   -5.3591   -0.3058    2.4366 C   0  0  0  0  0  0  0  0  0  0  0  0
   -6.2741   -0.5044    1.4132 C   0  0  0  0  0  0  0  0  0  0  0  0
   -5.8397   -0.4614    0.0921 C   0  0  0  0  0  0  0  0  0  0  0  0
   -4.4865   -0.2097   -0.2244 C   0  0  0  0  0  0  0  0  0  0  0  0
   -4.1121   -0.2121   -1.6839 C   0  0  0  0  0  0  0  0  0  0  0  0
   -4.0097   -1.4715   -2.1902 F   0  0  0  0  0  0  0  0  0  0  0  0
   -2.9122    0.3875   -1.9502 F   0  0  0  0  0  0  0  0  0  0  0  0
   -5.0203    0.4331   -2.4688 F   0  0  0  0  0  0  0  0  0  0  0  0
    0.1187    1.5935    0.1059 H   0  0  0  0  0  0  0  0  0  0  0  0
    0.2699   -0.1661   -0.1187 H   0  0  0  0  0  0  0  0  0  0  0  0
    1.2704    1.3941    2.3350 H   0  0  0  0  0  0  0  0  0  0  0  0
    1.4014   -0.3511    2.0961 H   0  0  0  0  0  0  0  0  0  0  0  0
    2.6875    1.7827    0.3189 H   0  0  0  0  0  0  0  0  0  0  0  0
    3.5117    0.7972    1.5696 H   0  0  0  0  0  0  0  0  0  0  0  0
    5.0346    1.4933   -0.0329 H   0  0  0  0  0  0  0  0  0  0  0  0
    6.9913    1.2724   -1.4892 H   0  0  0  0  0  0  0  0  0  0  0  0
    7.1369   -0.5761   -3.1401 H   0  0  0  0  0  0  0  0  0  0  0  0
    5.2921   -2.2315   -3.3084 H   0  0  0  0  0  0  0  0  0  0  0  0
    3.3037   -2.0187   -1.8481 H   0  0  0  0  0  0  0  0  0  0  0  0
   -1.9550    0.2823   -0.4826 H   0  0  0  0  0  0  0  0  0  0  0  0
   -3.3464    0.0826    2.9842 H   0  0  0  0  0  0  0  0  0  0  0  0
   -5.6835   -0.3411    3.4738 H   0  0  0  0  0  0  0  0  0  0  0  0
   -7.3201   -0.6936    1.6432 H   0  0  0  0  0  0  0  0  0  0  0  0
   -6.5644   -0.6220   -0.7051 H   0  0  0  0  0  0  0  0  0  0  0  0
  1  2  2  0
  2  3  1  0
  3  4  1  0
  4  5  1  0
  5  6  1  0
  6  7  1  0
  7  8  2  0
  8  9  1  0
  9 10  2  0
 10 11  1  0
 11 12  2  0
  2 13  1  0
 13 14  1  0
 14 15  2  0
 15 16  1  0
 16 17  2  0
 17 18  1  0
 18 19  2  0
 19 20  1  0
 20 21  1  0
 20 22  1  0
 20 23  1  0
 12  7  1  0
 19 14  1  0
  3 24  1  0
  3 25  1  0
  4 26  1  0
  4 27  1  0
  5 28  1  0
  5 29  1  0
  8 30  1  0
  9 31  1  0
 10 32  1  0
 11 33  1  0
 12 34  1  0
 13 35  1  0
 15 36  1  0
 16 37  1  0
 17 38  1  0
 18 39  1  0
M  END
$$$$
