
     RDKit          3D

 39 41  0  0  0  0  0  0  0  0999 V2000
    4.3217   -1.5603   -1.4165 C   0  0  0  0  0  0  0  0  0  0  0  0
    3.5518   -1.2662   -0.2048 N   0  0  0  0  0  0  0  0  0  0  0  0
    4.4590   -0.8607    0.8705 C   0  0  0  0  0  0  0  0  0  0  0  0
    2.5343   -0.2381   -0.4903 C   0  0  0  0  0  0  0  0  0  0  0  0
    1.5274   -0.0411    0.6570 C   0  0  0  0  0  0  0  0  0  0  0  0
    0.4070    0.8866    0.2536 C   0  0  0  0  0  0  0  0  0  0  0  0
   -0.9091    0.6214    0.0843 C   0  0  0  0  0  0  0  0  0  0  0  0
   -1.8185    1.7844   -0.1262 C   0  0  0  0  0  0  0  0  0  0  0  0
   -1.5321    2.7958   -1.0576 C   0  0  0  0  0  0  0  0  0  0  0  0
   -2.4072    3.8699   -1.2312 C   0  0  0  0  0  0  0  0  0  0  0  0
   -3.5804    3.9416   -0.4842 C   0  0  0  0  0  0  0  0  0  0  0  0
   -3.8883    2.9329    0.4295 C   0  0  0  0  0  0  0  0  0  0  0  0
   -3.0209    1.8469    0.6051 C   0  0  0  0  0  0  0  0  0  0  0  0
   -3.4860    0.5685    1.7742 S   0  0  0  0  0  0  0  0  0  0  0  0
   -2.6700   -0.8554    1.0518 C   0  0  0  0  0  0  0  0  0  0  0  0
   -3.2472   -2.1169    1.2515 C   0  0  0  0  0  0  0  0  0  0  0  0
   -2.6851   -3.2499    0.6619 C   0  0  0  0  0  0  0  0  0  0  0  0
   -1.5533   -3.1203   -0.1381 C   0  0  0  0  0  0  0  0  0  0  0  0
   -0.8808   -4.5123   -0.8941 Cl  0  0  0  0  0  0  0  0  0  0  0  0
   -0.9646   -1.8721   -0.3382 C   0  0  0  0  0  0  0  0  0  0  0  0
   -1.4946   -0.7311    0.2829 C   0  0  0  0  0  0  0  0  0  0  0  0
    4.8601   -0.6807   -1.7875 H   0  0  0  0  0  0  0  0  0  0  0  0
    3.6633   -1.9246   -2.2132 H   0  0  0  0  0  0  0  0  0  0  0  0
    5.0497   -2.3572   -1.2273 H   0  0  0  0  0  0  0  0  0  0  0  0
    4.9687    0.0834    0.6470 H   0  0  0  0  0  0  0  0  0  0  0  0
    5.2218   -1.6294    1.0401 H   0  0  0  0  0  0  0  0  0  0  0  0
    3.9255   -0.7530    1.8199 H   0  0  0  0  0  0  0  0  0  0  0  0
    3.0112    0.7204   -0.7370 H   0  0  0  0  0  0  0  0  0  0  0  0
    1.9700   -0.5439   -1.3814 H   0  0  0  0  0  0  0  0  0  0  0  0
    1.1551   -1.0081    1.0073 H   0  0  0  0  0  0  0  0  0  0  0  0
    2.0276    0.4151    1.5198 H   0  0  0  0  0  0  0  0  0  0  0  0
    0.7454    1.9199    0.1669 H   0  0  0  0  0  0  0  0  0  0  0  0
   -0.6300    2.7502   -1.6628 H   0  0  0  0  0  0  0  0  0  0  0  0
   -2.1738    4.6491   -1.9527 H   0  0  0  0  0  0  0  0  0  0  0  0
   -4.2613    4.7784   -0.6183 H   0  0  0  0  0  0  0  0  0  0  0  0
   -4.8134    2.9962    0.9978 H   0  0  0  0  0  0  0  0  0  0  0  0
   -4.1457   -2.2231    1.8553 H   0  0  0  0  0  0  0  0  0  0  0  0
   -3.1427   -4.2231    0.8178 H   0  0  0  0  0  0  0  0  0  0  0  0
   -0.0948   -1.7930   -0.9840 H   0  0  0  0  0  0  0  0  0  0  0  0
  1  2  1  0
  2  3  1  0
  2  4  1  0
  4  5  1  0
  5  6  1  0
  6  7  2  3
  7  8  1  0
  8  9  2  0
  9 10  1  0
 10 11  2  0
 11 12  1  0
 12 13  2  0
 13 14  1  0
 14 15  1  0
 15 16  2  0
 16 17  1  0
 17 18  2  0
 18 19  1  0
 18 20  1  0
 20 21  2  0
 21  7  1  0
 13  8  1  0
 21 15  1  0
  1 22  1  0
  1 23  1  0
  1 24  1  0
  3 25  1  0
  3 26  1  0
  3 27  1  0
  4 28  1  0
  4 29  1  0
  5 30  1  0
  5 31  1  0
  6 32  1  0
  9 33  1  0
 10 34  1  0
 11 35  1  0
 12 36  1  0
 16 37  1  0
 17 38  1  0
 20 39  1  0
M  END
$$$$
