
     RDKit          3D

 57 61  0  0  0  0  0  0  0  0999 V2000
   -7.3182    0.0195    3.3836 C   0  0  0  0  0  0  0  0  0  0  0  0
   -6.5403    0.4784    2.1868 C   0  0  0  0  0  0  0  0  0  0  0  0
   -5.3626    1.2157    2.3455 C   0  0  0  0  0  0  0  0  0  0  0  0
   -4.6515    1.6609    1.2289 C   0  0  0  0  0  0  0  0  0  0  0  0
   -5.1141    1.3879   -0.0672 C   0  0  0  0  0  0  0  0  0  0  0  0
   -4.3397    1.8578   -1.2737 C   0  0  0  0  0  0  0  0  0  0  0  0
   -3.5802    0.7792   -1.8716 N   0  0  0  0  0  0  0  0  0  0  0  0
   -4.0887    0.0638   -2.9064 N   0  0  0  0  0  0  0  0  0  0  0  0
   -3.1796   -0.8466   -3.2560 N   0  0  0  0  0  0  0  0  0  0  0  0
   -2.0992   -0.6698   -2.4482 C   0  0  0  0  0  0  0  0  0  0  0  0
   -0.8418   -1.3658   -2.3934 C   0  0  0  0  0  0  0  0  0  0  0  0
   -0.5190   -2.3071   -3.1098 O   0  0  0  0  0  0  0  0  0  0  0  0
   -0.0025   -0.8426   -1.4158 N   0  0  0  0  0  0  0  0  0  0  0  0
   -0.3329    0.2220   -0.5856 C   0  0  0  0  0  0  0  0  0  0  0  0
    0.7287    0.6701    0.4157 C   0  0  0  0  0  0  0  0  0  0  0  0
    1.8742    1.3949   -0.2928 C   0  0  0  0  0  0  0  0  0  0  0  0
    2.8142    0.4731   -1.0698 C   0  0  0  0  0  0  0  0  0  0  0  0
    2.8200   -0.8950   -0.4907 N   0  0  0  0  0  0  0  0  0  0  0  0
    3.9763   -1.9760   -1.1572 S   0  0  0  0  0  6  0  0  0  0  0  0
    3.8238   -3.2515   -0.4902 O   0  0  0  0  0  0  0  0  0  0  0  0
    3.8655   -1.8552   -2.5918 O   0  0  0  0  0  0  0  0  0  0  0  0
    5.5399   -1.2837   -0.6624 C   0  0  0  0  0  0  0  0  0  0  0  0
    6.3009   -0.5667   -1.5878 C   0  0  0  0  0  0  0  0  0  0  0  0
    7.5072    0.0024   -1.1841 C   0  0  0  0  0  0  0  0  0  0  0  0
    7.9510   -0.1551    0.1320 C   0  0  0  0  0  0  0  0  0  0  0  0
    7.2061   -0.8997    1.0445 C   0  0  0  0  0  0  0  0  0  0  0  0
    6.0082   -1.4804    0.6464 C   0  0  0  0  0  0  0  0  0  0  0  0
    2.6515   -0.9103    0.9766 C   0  0  0  0  0  0  0  0  0  0  0  0
    1.2210   -0.4867    1.3006 C   0  0  0  0  0  0  0  0  0  0  0  0
   -1.4709    0.8613   -0.6311 N   0  0  0  0  0  0  0  0  0  0  0  0
   -2.3130    0.3677   -1.5725 C   0  0  0  0  0  0  0  0  0  0  0  0
   -6.2993    0.6565   -0.2228 C   0  0  0  0  0  0  0  0  0  0  0  0
   -7.0090    0.2122    0.8948 C   0  0  0  0  0  0  0  0  0  0  0  0
   -6.6679   -0.1002    4.2538 H   0  0  0  0  0  0  0  0  0  0  0  0
   -8.0972    0.7479    3.6213 H   0  0  0  0  0  0  0  0  0  0  0  0
   -7.7842   -0.9521    3.1942 H   0  0  0  0  0  0  0  0  0  0  0  0
   -4.9846    1.4398    3.3411 H   0  0  0  0  0  0  0  0  0  0  0  0
   -3.7274    2.2143    1.3790 H   0  0  0  0  0  0  0  0  0  0  0  0
   -5.0180    2.2636   -2.0345 H   0  0  0  0  0  0  0  0  0  0  0  0
   -3.6408    2.6597   -1.0099 H   0  0  0  0  0  0  0  0  0  0  0  0
    0.9013   -1.2998   -1.3342 H   0  0  0  0  0  0  0  0  0  0  0  0
    0.2353    1.3959    1.0742 H   0  0  0  0  0  0  0  0  0  0  0  0
    1.4901    2.1675   -0.9645 H   0  0  0  0  0  0  0  0  0  0  0  0
    2.4632    1.9223    0.4664 H   0  0  0  0  0  0  0  0  0  0  0  0
    3.8207    0.9113   -1.0675 H   0  0  0  0  0  0  0  0  0  0  0  0
    2.4767    0.4112   -2.1100 H   0  0  0  0  0  0  0  0  0  0  0  0
    5.9657   -0.4461   -2.6173 H   0  0  0  0  0  0  0  0  0  0  0  0
    8.1063    0.5636   -1.8963 H   0  0  0  0  0  0  0  0  0  0  0  0
    8.8924    0.2904    0.4434 H   0  0  0  0  0  0  0  0  0  0  0  0
    7.5697   -1.0330    2.0666 H   0  0  0  0  0  0  0  0  0  0  0  0
    5.4493   -2.0808    1.3548 H   0  0  0  0  0  0  0  0  0  0  0  0
    2.8158   -1.9053    1.3962 H   0  0  0  0  0  0  0  0  0  0  0  0
    3.3699   -0.2252    1.4424 H   0  0  0  0  0  0  0  0  0  0  0  0
    1.1837   -0.1833    2.3578 H   0  0  0  0  0  0  0  0  0  0  0  0
    0.5505   -1.3550    1.2155 H   0  0  0  0  0  0  0  0  0  0  0  0
   -6.6715    0.4158   -1.2177 H   0  0  0  0  0  0  0  0  0  0  0  0
   -7.9250   -0.3536    0.7487 H   0  0  0  0  0  0  0  0  0  0  0  0
  1  2  1  0
  2  3  2  0
  3  4  1  0
  4  5  2  0
  5  6  1  0
  6  7  1  0
  7  8  1  0
  8  9  2  0
  9 10  1  0
 10 11  1  0
 11 12  2  0
 11 13  1  0
 13 14  1  0
 14 15  1  0
 15 16  1  0
 16 17  1  0
 17 18  1  0
 18 19  1  0
 19 20  2  0
 19 21  2  0
 19 22  1  0
 22 23  2  0
 23 24  1  0
 24 25  2  0
 25 26  1  0
 26 27  2  0
 18 28  1  0
 28 29  1  0
 14 30  2  0
 30 31  1  0
  5 32  1  0
 32 33  2  0
 33  2  1  0
 31  7  1  0
 31 10  2  0
 29 15  1  0
 27 22  1  0
  1 34  1  0
  1 35  1  0
  1 36  1  0
  3 37  1  0
  4 38  1  0
  6 39  1  0
  6 40  1  0
 13 41  1  0
 15 42  1  0
 16 43  1  0
 16 44  1  0
 17 45  1  0
 17 46  1  0
 23 47  1  0
 24 48  1  0
 25 49  1  0
 26 50  1  0
 27 51  1  0
 28 52  1  0
 28 53  1  0
 29 54  1  0
 29 55  1  0
 32 56  1  0
 33 57  1  0
M  END
$$$$
