
     RDKit          3D

 35 36  0  0  0  0  0  0  0  0999 V2000
    5.7057   -0.1764    1.5752 C   0  0  0  0  0  0  0  0  0  0  0  0
    4.6500    0.0917    0.5456 C   0  0  0  0  0  0  0  0  0  0  0  0
    5.0046    0.5141   -0.7294 C   0  0  0  0  0  0  0  0  0  0  0  0
    3.9948    0.7511   -1.6527 C   0  0  0  0  0  0  0  0  0  0  0  0
    2.6687    0.5593   -1.2742 C   0  0  0  0  0  0  0  0  0  0  0  0
    2.3903    0.1347    0.0210 C   0  0  0  0  0  0  0  0  0  0  0  0
    1.0475   -0.0452    0.3591 N   0  0  0  0  0  0  0  0  0  0  0  0
    0.5582   -0.4584    1.5818 C   0  0  0  0  0  0  0  0  0  0  0  0
    1.1990   -0.7422    2.5895 O   0  0  0  0  0  0  0  0  0  0  0  0
   -0.9713   -0.5467    1.5980 C   0  0  0  0  0  0  0  0  0  0  0  0
   -1.5230   -0.1773    0.3346 O   0  0  0  0  0  0  0  0  0  0  0  0
   -2.8874   -0.2118    0.2092 C   0  0  0  0  0  0  0  0  0  0  0  0
   -3.7748   -0.5812    1.2250 C   0  0  0  0  0  0  0  0  0  0  0  0
   -5.1527   -0.5830    0.9936 C   0  0  0  0  0  0  0  0  0  0  0  0
   -5.6535   -0.2165   -0.2516 C   0  0  0  0  0  0  0  0  0  0  0  0
   -4.7774    0.1532   -1.2702 C   0  0  0  0  0  0  0  0  0  0  0  0
   -3.3913    0.1593   -1.0514 C   0  0  0  0  0  0  0  0  0  0  0  0
   -2.4654    0.5620   -2.1656 C   0  0  0  0  0  0  0  0  0  0  0  0
    3.3629   -0.0962    0.9185 N   0  0  0  0  0  0  0  0  0  0  0  0
    5.2564   -0.4995    2.5198 H   0  0  0  0  0  0  0  0  0  0  0  0
    6.2860    0.7315    1.7669 H   0  0  0  0  0  0  0  0  0  0  0  0
    6.3784   -0.9675    1.2297 H   0  0  0  0  0  0  0  0  0  0  0  0
    6.0457    0.6563   -0.9999 H   0  0  0  0  0  0  0  0  0  0  0  0
    4.2371    1.0822   -2.6583 H   0  0  0  0  0  0  0  0  0  0  0  0
    1.8756    0.7426   -1.9903 H   0  0  0  0  0  0  0  0  0  0  0  0
    0.3496    0.1411   -0.3501 H   0  0  0  0  0  0  0  0  0  0  0  0
   -1.2294   -1.5857    1.8329 H   0  0  0  0  0  0  0  0  0  0  0  0
   -1.3231    0.1383    2.3780 H   0  0  0  0  0  0  0  0  0  0  0  0
   -3.4319   -0.8745    2.2118 H   0  0  0  0  0  0  0  0  0  0  0  0
   -5.8355   -0.8716    1.7890 H   0  0  0  0  0  0  0  0  0  0  0  0
   -6.7257   -0.2184   -0.4299 H   0  0  0  0  0  0  0  0  0  0  0  0
   -5.1835    0.4372   -2.2386 H   0  0  0  0  0  0  0  0  0  0  0  0
   -1.7873   -0.2619   -2.4110 H   0  0  0  0  0  0  0  0  0  0  0  0
   -1.8798    1.4396   -1.8731 H   0  0  0  0  0  0  0  0  0  0  0  0
   -3.0177    0.8196   -3.0754 H   0  0  0  0  0  0  0  0  0  0  0  0
  1  2  1  0
  2  3  2  0
  3  4  1  0
  4  5  2  0
  5  6  1  0
  6  7  1  0
  7  8  1  0
  8  9  2  0
  8 10  1  0
 10 11  1  0
 11 12  1  0
 12 13  2  0
 13 14  1  0
 14 15  2  0
 15 16  1  0
 16 17  2  0
 17 18  1  0
  6 19  2  0
 19  2  1  0
 17 12  1  0
  1 20  1  0
  1 21  1  0
  1 22  1  0
  3 23  1  0
  4 24  1  0
  5 25  1  0
  7 26  1  0
 10 27  1  0
 10 28  1  0
 13 29  1  0
 14 30  1  0
 15 31  1  0
 16 32  1  0
 18 33  1  0
 18 34  1  0
 18 35  1  0
M  END
$$$$
