
     RDKit          3D

 36 37  0  0  0  0  0  0  0  0999 V2000
   -1.0459    2.5903    1.9595 O   0  0  0  0  0  0  0  0  0  0  0  0
   -0.1154    2.4822    1.1661 C   0  0  0  0  0  0  0  0  0  0  0  0
    1.3499    2.5923    1.5906 C   0  0  0  0  0  0  0  0  0  0  0  0
    1.9552    1.3005    1.7178 O   0  0  0  0  0  0  0  0  0  0  0  0
    2.3497    0.7310    0.5556 C   0  0  0  0  0  0  0  0  0  0  0  0
    2.2323    1.2064   -0.5625 O   0  0  0  0  0  0  0  0  0  0  0  0
    2.8013   -0.6450    0.8113 C   0  0  0  0  0  0  0  0  0  0  0  0
    2.1033   -1.6652    0.1462 C   0  0  0  0  0  0  0  0  0  0  0  0
    2.4610   -2.9961    0.3420 C   0  0  0  0  0  0  0  0  0  0  0  0
    3.5194   -3.3080    1.1933 C   0  0  0  0  0  0  0  0  0  0  0  0
    4.2298   -2.2901    1.8433 C   0  0  0  0  0  0  0  0  0  0  0  0
    5.5399   -2.7741    2.8655 Cl  0  0  0  0  0  0  0  0  0  0  0  0
    3.8802   -0.9443    1.6538 C   0  0  0  0  0  0  0  0  0  0  0  0
    4.8000    0.3217    2.4027 Cl  0  0  0  0  0  0  0  0  0  0  0  0
   -0.2974    2.2087   -0.1731 N   0  0  0  0  0  0  0  0  0  0  0  0
   -1.5909    1.8205   -0.7032 C   0  0  0  0  0  0  0  0  0  0  0  0
   -2.0926    0.4902   -0.1215 C   0  0  0  0  0  0  0  0  0  0  0  0
   -2.8804   -0.2720   -1.0727 N   0  0  0  0  0  0  0  0  0  0  0  0
   -4.1945   -0.0013   -1.3597 C   0  0  0  0  0  0  0  0  0  0  0  0
   -4.8111    1.0238   -0.7103 O   0  0  0  0  0  0  0  0  0  0  0  0
   -4.7373   -0.8016   -2.2840 C   0  0  0  0  0  0  0  0  0  0  0  0
   -3.5811   -1.9623   -2.8676 S   0  0  0  0  0  0  0  0  0  0  0  0
   -2.3206   -1.3063   -1.8043 C   0  0  0  0  0  0  0  0  0  0  0  0
   -1.1755   -1.7271   -1.7678 O   0  0  0  0  0  0  0  0  0  0  0  0
    1.9058    3.2305    0.8934 H   0  0  0  0  0  0  0  0  0  0  0  0
    1.3885    3.0774    2.5714 H   0  0  0  0  0  0  0  0  0  0  0  0
    1.2768   -1.4265   -0.5232 H   0  0  0  0  0  0  0  0  0  0  0  0
    1.9162   -3.7868   -0.1708 H   0  0  0  0  0  0  0  0  0  0  0  0
    3.7940   -4.3504    1.3416 H   0  0  0  0  0  0  0  0  0  0  0  0
    0.5314    1.9648   -0.7180 H   0  0  0  0  0  0  0  0  0  0  0  0
   -2.3092    2.6193   -0.4881 H   0  0  0  0  0  0  0  0  0  0  0  0
   -1.4711    1.7580   -1.7902 H   0  0  0  0  0  0  0  0  0  0  0  0
   -1.2375   -0.1279    0.1803 H   0  0  0  0  0  0  0  0  0  0  0  0
   -2.6853    0.6603    0.7851 H   0  0  0  0  0  0  0  0  0  0  0  0
   -5.7366    1.0666   -1.0044 H   0  0  0  0  0  0  0  0  0  0  0  0
   -5.7523   -0.7595   -2.6510 H   0  0  0  0  0  0  0  0  0  0  0  0
  1  2  2  0
  2  3  1  0
  3  4  1  0
  4  5  1  0
  5  6  2  0
  5  7  1  0
  7  8  2  0
  8  9  1  0
  9 10  2  0
 10 11  1  0
 11 12  1  0
 11 13  2  0
 13 14  1  0
  2 15  1  0
 15 16  1  0
 16 17  1  0
 17 18  1  0
 18 19  1  0
 19 20  1  0
 19 21  2  0
 21 22  1  0
 22 23  1  0
 23 24  2  0
 13  7  1  0
 23 18  1  0
  3 25  1  0
  3 26  1  0
  8 27  1  0
  9 28  1  0
 10 29  1  0
 15 30  1  0
 16 31  1  0
 16 32  1  0
 17 33  1  0
 17 34  1  0
 20 35  1  0
 21 36  1  0
M  END
$$$$
