
     RDKit          3D

 39 41  0  0  0  0  0  0  0  0999 V2000
   -4.9284   -2.2789    0.2524 C   0  0  0  0  0  0  0  0  0  0  0  0
   -4.4177   -1.5700   -0.9896 C   0  0  0  0  0  0  0  0  0  0  0  0
   -3.2288   -0.7765   -0.7210 N   0  0  0  0  0  0  0  0  0  0  0  0
   -1.9465   -1.2215   -0.9195 C   0  0  0  0  0  0  0  0  0  0  0  0
   -1.0830   -0.2112   -0.5573 C   0  0  0  0  0  0  0  0  0  0  0  0
    0.3363   -0.3570   -0.6269 C   0  0  0  0  0  0  0  0  0  0  0  0
    1.2137    0.1946    0.2281 C   0  0  0  0  0  0  0  0  0  0  0  0
    2.6679    0.0227    0.1427 C   0  0  0  0  0  0  0  0  0  0  0  0
    3.2579   -1.2015   -0.1680 C   0  0  0  0  0  0  0  0  0  0  0  0
    4.6436   -1.3101   -0.2051 C   0  0  0  0  0  0  0  0  0  0  0  0
    5.4257   -0.2404    0.0606 N   0  0  0  0  0  4  0  0  0  0  0  0
    6.8911   -0.3820    0.0236 C   0  0  0  0  0  0  0  0  0  0  0  0
    4.8771    0.9508    0.3872 C   0  0  0  0  0  0  0  0  0  0  0  0
    3.4961    1.1040    0.4383 C   0  0  0  0  0  0  0  0  0  0  0  0
   -1.8737    0.9124   -0.1604 C   0  0  0  0  0  0  0  0  0  0  0  0
   -1.5906    2.2323    0.2591 C   0  0  0  0  0  0  0  0  0  0  0  0
   -2.6353    3.1031    0.5875 C   0  0  0  0  0  0  0  0  0  0  0  0
   -3.9569    2.6838    0.4987 C   0  0  0  0  0  0  0  0  0  0  0  0
   -4.2711    1.3917    0.0717 C   0  0  0  0  0  0  0  0  0  0  0  0
   -3.2165    0.5243   -0.2603 C   0  0  0  0  0  0  0  0  0  0  0  0
   -5.8143   -2.8745    0.0121 H   0  0  0  0  0  0  0  0  0  0  0  0
   -5.2008   -1.5633    1.0352 H   0  0  0  0  0  0  0  0  0  0  0  0
   -4.1669   -2.9496    0.6644 H   0  0  0  0  0  0  0  0  0  0  0  0
   -5.1826   -0.9064   -1.4062 H   0  0  0  0  0  0  0  0  0  0  0  0
   -4.1622   -2.3000   -1.7660 H   0  0  0  0  0  0  0  0  0  0  0  0
   -1.7601   -2.2232   -1.2846 H   0  0  0  0  0  0  0  0  0  0  0  0
    0.6987   -0.9895   -1.4345 H   0  0  0  0  0  0  0  0  0  0  0  0
    0.8548    0.8118    1.0494 H   0  0  0  0  0  0  0  0  0  0  0  0
    2.6489   -2.0808   -0.3696 H   0  0  0  0  0  0  0  0  0  0  0  0
    5.1351   -2.2502   -0.4399 H   0  0  0  0  0  0  0  0  0  0  0  0
    7.2167   -0.6763    1.0243 H   0  0  0  0  0  0  0  0  0  0  0  0
    7.1590   -1.1434   -0.7134 H   0  0  0  0  0  0  0  0  0  0  0  0
    7.3361    0.5735   -0.2661 H   0  0  0  0  0  0  0  0  0  0  0  0
    5.5504    1.7742    0.6089 H   0  0  0  0  0  0  0  0  0  0  0  0
    3.0736    2.0723    0.7017 H   0  0  0  0  0  0  0  0  0  0  0  0
   -0.5674    2.5868    0.3193 H   0  0  0  0  0  0  0  0  0  0  0  0
   -2.4121    4.1170    0.9102 H   0  0  0  0  0  0  0  0  0  0  0  0
   -4.7595    3.3715    0.7570 H   0  0  0  0  0  0  0  0  0  0  0  0
   -5.3083    1.0797   -0.0017 H   0  0  0  0  0  0  0  0  0  0  0  0
  1  2  1  0
  2  3  1  0
  3  4  1  0
  4  5  2  0
  5  6  1  0
  6  7  2  3
  7  8  1  0
  8  9  2  0
  9 10  1  0
 10 11  2  0
 11 12  1  0
 11 13  1  0
 13 14  2  0
  5 15  1  0
 15 16  2  0
 16 17  1  0
 17 18  2  0
 18 19  1  0
 19 20  2  0
 20  3  1  0
 14  8  1  0
 20 15  1  0
  1 21  1  0
  1 22  1  0
  1 23  1  0
  2 24  1  0
  2 25  1  0
  4 26  1  0
  6 27  1  0
  7 28  1  0
  9 29  1  0
 10 30  1  0
 12 31  1  0
 12 32  1  0
 12 33  1  0
 13 34  1  0
 14 35  1  0
 16 36  1  0
 17 37  1  0
 18 38  1  0
 19 39  1  0
M  CHG  1  11   1
M  END
$$$$
