
     RDKit          3D

 39 40  0  0  0  0  0  0  0  0999 V2000
    0.4371   -0.6741   -1.2134 O   0  0  0  0  0  0  0  0  0  0  0  0
    0.0786    0.1917   -0.4177 C   0  0  0  0  0  0  0  0  0  0  0  0
   -1.3662    0.5019   -0.2065 C   0  0  0  0  0  0  0  0  0  0  0  0
   -2.3020   -0.1162   -0.9424 C   0  0  0  0  0  0  0  0  0  0  0  0
   -3.7479    0.1018   -0.7937 C   0  0  0  0  0  0  0  0  0  0  0  0
   -4.6186   -0.9670   -1.0541 C   0  0  0  0  0  0  0  0  0  0  0  0
   -6.0034   -0.8058   -0.9461 C   0  0  0  0  0  0  0  0  0  0  0  0
   -6.5202    0.4335   -0.5872 C   0  0  0  0  0  0  0  0  0  0  0  0
   -7.8625    0.6376   -0.4679 O   0  0  0  0  0  0  0  0  0  0  0  0
   -5.6772    1.5097   -0.3420 C   0  0  0  0  0  0  0  0  0  0  0  0
   -4.2935    1.3469   -0.4507 C   0  0  0  0  0  0  0  0  0  0  0  0
    1.0643    0.9694    0.4121 C   0  0  0  0  0  0  0  0  0  0  0  0
    1.1631    0.4511    1.8218 C   0  0  0  0  0  0  0  0  0  0  0  0
    0.8125    1.1409    2.7807 O   0  0  0  0  0  0  0  0  0  0  0  0
    1.5827   -0.9517    2.0778 C   0  0  0  0  0  0  0  0  0  0  0  0
    2.6559   -1.5763    1.5736 C   0  0  0  0  0  0  0  0  0  0  0  0
    3.6873   -0.9831    0.7241 C   0  0  0  0  0  0  0  0  0  0  0  0
    4.5711   -0.0262    1.2406 C   0  0  0  0  0  0  0  0  0  0  0  0
    5.5634    0.5284    0.4286 C   0  0  0  0  0  0  0  0  0  0  0  0
    5.6663    0.1215   -0.8981 C   0  0  0  0  0  0  0  0  0  0  0  0
    6.6191    0.6357   -1.7265 O   0  0  0  0  0  0  0  0  0  0  0  0
    4.7964   -0.8277   -1.4222 C   0  0  0  0  0  0  0  0  0  0  0  0
    3.8070   -1.3847   -0.6101 C   0  0  0  0  0  0  0  0  0  0  0  0
   -1.6081    1.2209    0.5678 H   0  0  0  0  0  0  0  0  0  0  0  0
   -2.0087   -0.8497   -1.6927 H   0  0  0  0  0  0  0  0  0  0  0  0
   -4.2242   -1.9411   -1.3362 H   0  0  0  0  0  0  0  0  0  0  0  0
   -6.6531   -1.6518   -1.1453 H   0  0  0  0  0  0  0  0  0  0  0  0
   -8.3222   -0.1927   -0.6737 H   0  0  0  0  0  0  0  0  0  0  0  0
   -6.0942    2.4757   -0.0723 H   0  0  0  0  0  0  0  0  0  0  0  0
   -3.6562    2.2091   -0.2739 H   0  0  0  0  0  0  0  0  0  0  0  0
    2.0387    0.9866   -0.0798 H   0  0  0  0  0  0  0  0  0  0  0  0
    0.7414    2.0176    0.4460 H   0  0  0  0  0  0  0  0  0  0  0  0
    0.9356   -1.4778    2.7742 H   0  0  0  0  0  0  0  0  0  0  0  0
    2.8315   -2.6181    1.8354 H   0  0  0  0  0  0  0  0  0  0  0  0
    4.4978    0.2862    2.2807 H   0  0  0  0  0  0  0  0  0  0  0  0
    6.2422    1.2646    0.8474 H   0  0  0  0  0  0  0  0  0  0  0  0
    7.1570    1.2702   -1.2257 H   0  0  0  0  0  0  0  0  0  0  0  0
    4.8859   -1.1381   -2.4589 H   0  0  0  0  0  0  0  0  0  0  0  0
    3.1234   -2.1190   -1.0317 H   0  0  0  0  0  0  0  0  0  0  0  0
  1  2  2  0
  2  3  1  0
  3  4  2  3
  4  5  1  0
  5  6  2  0
  6  7  1  0
  7  8  2  0
  8  9  1  0
  8 10  1  0
 10 11  2  0
  2 12  1  0
 12 13  1  0
 13 14  2  0
 13 15  1  0
 15 16  2  3
 16 17  1  0
 17 18  2  0
 18 19  1  0
 19 20  2  0
 20 21  1  0
 20 22  1  0
 22 23  2  0
 11  5  1  0
 23 17  1  0
  3 24  1  0
  4 25  1  0
  6 26  1  0
  7 27  1  0
  9 28  1  0
 10 29  1  0
 11 30  1  0
 12 31  1  0
 12 32  1  0
 15 33  1  0
 16 34  1  0
 18 35  1  0
 19 36  1  0
 21 37  1  0
 22 38  1  0
 23 39  1  0
M  END
$$$$
