
     RDKit          3D

 52 55  0  0  0  0  0  0  0  0999 V2000
    7.1890   -0.8954   -0.6916 C   0  0  0  0  0  0  0  0  0  0  0  0
    5.8542   -0.6167   -0.1107 C   0  0  0  0  0  0  0  0  0  0  0  0
    5.1612    0.6108   -0.0691 C   0  0  0  0  0  0  0  0  0  0  0  0
    3.9477    0.3384    0.5318 C   0  0  0  0  0  0  0  0  0  0  0  0
    2.8594    1.2476    0.7792 C   0  0  0  0  0  0  0  0  0  0  0  0
    3.0168    2.3802    1.2231 O   0  0  0  0  0  0  0  0  0  0  0  0
    1.6244    0.7671    0.4046 N   0  0  0  0  0  0  0  0  0  0  0  0
    0.4588    1.6314    0.4056 C   0  0  0  0  0  0  0  0  0  0  0  0
   -0.2236    1.6909    1.7942 C   0  0  0  0  0  0  0  0  0  0  0  0
   -1.2394    0.5413    2.0896 C   0  0  0  0  0  0  0  0  0  0  0  0
   -1.9224    0.8306    3.4404 C   0  0  0  0  0  0  0  0  0  0  0  0
   -0.5276   -0.8205    2.2100 C   0  0  0  0  0  0  0  0  0  0  0  0
   -2.3377    0.4718    0.9825 C   0  0  0  0  0  0  0  0  0  0  0  0
   -1.7466    0.6191   -0.3801 C   0  0  0  0  0  0  0  0  0  0  0  0
   -0.4864    1.1321   -0.6317 C   0  0  0  0  0  0  0  0  0  0  0  0
   -0.3299    1.0299   -2.0174 C   0  0  0  0  0  0  0  0  0  0  0  0
   -1.3830    0.4699   -2.6044 N   0  0  0  0  0  0  0  0  0  0  0  0
   -2.2998    0.2787   -1.6091 N   0  0  0  0  0  0  0  0  0  0  0  0
   -3.5966   -0.2117   -1.9557 C   0  0  0  0  0  0  0  0  0  0  0  0
   -3.8011   -0.7278   -3.2520 C   0  0  0  0  0  0  0  0  0  0  0  0
   -5.0489   -1.2259   -3.6404 C   0  0  0  0  0  0  0  0  0  0  0  0
   -6.1115   -1.2018   -2.7447 C   0  0  0  0  0  0  0  0  0  0  0  0
   -5.9168   -0.6745   -1.4744 C   0  0  0  0  0  0  0  0  0  0  0  0
   -6.9458   -0.6300   -0.6175 F   0  0  0  0  0  0  0  0  0  0  0  0
   -4.6780   -0.1777   -1.0716 C   0  0  0  0  0  0  0  0  0  0  0  0
    4.0276   -0.9823    0.8937 N   0  0  0  0  0  0  0  0  0  0  0  0
    3.1014   -1.7315    1.7101 C   0  0  0  0  0  0  0  0  0  0  0  0
    5.1432   -1.5963    0.4569 N   0  0  0  0  0  0  0  0  0  0  0  0
    7.0858   -1.4023   -1.6561 H   0  0  0  0  0  0  0  0  0  0  0  0
    7.7794   -1.5337   -0.0255 H   0  0  0  0  0  0  0  0  0  0  0  0
    7.7478    0.0324   -0.8517 H   0  0  0  0  0  0  0  0  0  0  0  0
    5.4825    1.5685   -0.4533 H   0  0  0  0  0  0  0  0  0  0  0  0
    1.5808   -0.0918   -0.1280 H   0  0  0  0  0  0  0  0  0  0  0  0
    0.7845    2.6442    0.1354 H   0  0  0  0  0  0  0  0  0  0  0  0
    0.5313    1.7421    2.5875 H   0  0  0  0  0  0  0  0  0  0  0  0
   -0.7806    2.6391    1.8408 H   0  0  0  0  0  0  0  0  0  0  0  0
   -2.4313    1.7994    3.4296 H   0  0  0  0  0  0  0  0  0  0  0  0
   -2.6691    0.0635    3.6778 H   0  0  0  0  0  0  0  0  0  0  0  0
   -1.1910    0.8508    4.2561 H   0  0  0  0  0  0  0  0  0  0  0  0
   -0.0987   -1.1522    1.2602 H   0  0  0  0  0  0  0  0  0  0  0  0
    0.2786   -0.7765    2.9501 H   0  0  0  0  0  0  0  0  0  0  0  0
   -1.2287   -1.5995    2.5312 H   0  0  0  0  0  0  0  0  0  0  0  0
   -3.0495    1.2933    1.1331 H   0  0  0  0  0  0  0  0  0  0  0  0
   -2.8810   -0.4742    1.0759 H   0  0  0  0  0  0  0  0  0  0  0  0
    0.5201    1.3124   -2.6262 H   0  0  0  0  0  0  0  0  0  0  0  0
   -2.9865   -0.7604   -3.9747 H   0  0  0  0  0  0  0  0  0  0  0  0
   -5.1848   -1.6271   -4.6423 H   0  0  0  0  0  0  0  0  0  0  0  0
   -7.0872   -1.5797   -3.0293 H   0  0  0  0  0  0  0  0  0  0  0  0
   -4.6286    0.2537   -0.0822 H   0  0  0  0  0  0  0  0  0  0  0  0
    2.6651   -1.0651    2.4566 H   0  0  0  0  0  0  0  0  0  0  0  0
    3.6413   -2.5364    2.2191 H   0  0  0  0  0  0  0  0  0  0  0  0
    2.3309   -2.1484    1.0552 H   0  0  0  0  0  0  0  0  0  0  0  0
  1  2  1  0
  2  3  1  0
  3  4  2  0
  4  5  1  0
  5  6  2  0
  5  7  1  0
  7  8  1  0
  8  9  1  0
  9 10  1  0
 10 11  1  0
 10 12  1  0
 10 13  1  0
 13 14  1  0
 14 15  2  0
 15 16  1  0
 16 17  2  0
 17 18  1  0
 18 19  1  0
 19 20  2  0
 20 21  1  0
 21 22  2  0
 22 23  1  0
 23 24  1  0
 23 25  2  0
  4 26  1  0
 26 27  1  0
 26 28  1  0
 28  2  2  0
 15  8  1  0
 25 19  1  0
 18 14  1  0
  1 29  1  0
  1 30  1  0
  1 31  1  0
  3 32  1  0
  7 33  1  0
  8 34  1  0
  9 35  1  0
  9 36  1  0
 11 37  1  0
 11 38  1  0
 11 39  1  0
 12 40  1  0
 12 41  1  0
 12 42  1  0
 13 43  1  0
 13 44  1  0
 16 45  1  0
 20 46  1  0
 21 47  1  0
 22 48  1  0
 25 49  1  0
 27 50  1  0
 27 51  1  0
 27 52  1  0
M  END
$$$$
