
     RDKit          3D

 55 58  0  0  0  0  0  0  0  0999 V2000
    6.6672   -3.7295   -2.9469 O   0  0  0  0  0  0  0  0  0  0  0  0
    5.3859   -3.3519   -2.4460 C   0  0  0  0  0  0  0  0  0  0  0  0
    5.5332   -2.2749   -1.3604 C   0  0  0  0  0  0  0  0  0  0  0  0
    4.2854   -1.9745   -0.6395 N   0  0  0  0  0  0  0  0  0  0  0  0
    3.2806   -1.3339   -1.5133 C   0  0  0  0  0  0  0  0  0  0  0  0
    1.9984   -0.9218   -0.7480 C   0  0  0  0  0  0  0  0  0  0  0  0
    2.2798   -0.0302    0.3969 N   0  0  0  0  0  0  0  0  0  0  0  0
    1.0657    0.2774    1.1750 C   0  0  0  0  0  0  0  0  0  0  0  0
    0.0661    1.1744    0.4178 C   0  0  0  0  0  0  0  0  0  0  0  0
   -1.0661    1.6116    1.3177 C   0  0  0  0  0  0  0  0  0  0  0  0
   -2.4018    1.4871    1.1403 C   0  0  0  0  0  0  0  0  0  0  0  0
   -3.2800    1.8178    2.2986 C   0  0  0  0  0  0  0  0  0  0  0  0
   -3.1319    3.0047    3.0342 C   0  0  0  0  0  0  0  0  0  0  0  0
   -3.9715    3.2784    4.1157 C   0  0  0  0  0  0  0  0  0  0  0  0
   -4.9722    2.3758    4.4680 C   0  0  0  0  0  0  0  0  0  0  0  0
   -5.1448    1.2024    3.7323 C   0  0  0  0  0  0  0  0  0  0  0  0
   -4.3123    0.9219    2.6413 C   0  0  0  0  0  0  0  0  0  0  0  0
   -4.5976   -0.5919    1.7200 S   0  0  0  0  0  0  0  0  0  0  0  0
   -4.0056   -0.1092    0.0981 C   0  0  0  0  0  0  0  0  0  0  0  0
   -4.5853   -0.7100   -1.0255 C   0  0  0  0  0  0  0  0  0  0  0  0
   -4.2019   -0.3227   -2.3114 C   0  0  0  0  0  0  0  0  0  0  0  0
   -3.2489    0.6882   -2.4948 C   0  0  0  0  0  0  0  0  0  0  0  0
   -2.8392    1.1084   -3.8851 C   0  0  0  0  0  0  0  0  0  0  0  0
   -3.8812    1.1275   -4.7621 F   0  0  0  0  0  0  0  0  0  0  0  0
   -2.2901    2.3540   -3.9333 F   0  0  0  0  0  0  0  0  0  0  0  0
   -1.9115    0.2696   -4.4237 F   0  0  0  0  0  0  0  0  0  0  0  0
   -2.6592    1.2775   -1.3643 C   0  0  0  0  0  0  0  0  0  0  0  0
   -3.0017    0.8629   -0.0672 C   0  0  0  0  0  0  0  0  0  0  0  0
    3.2823   -0.6823    1.2669 C   0  0  0  0  0  0  0  0  0  0  0  0
    4.5640   -1.0728    0.4987 C   0  0  0  0  0  0  0  0  0  0  0  0
    7.1252   -4.1998   -2.2291 H   0  0  0  0  0  0  0  0  0  0  0  0
    4.8002   -2.9824   -3.2929 H   0  0  0  0  0  0  0  0  0  0  0  0
    4.8953   -4.2491   -2.0528 H   0  0  0  0  0  0  0  0  0  0  0  0
    5.9685   -1.3698   -1.8051 H   0  0  0  0  0  0  0  0  0  0  0  0
    6.2806   -2.6392   -0.6433 H   0  0  0  0  0  0  0  0  0  0  0  0
    3.7055   -0.4456   -2.0001 H   0  0  0  0  0  0  0  0  0  0  0  0
    2.9780   -2.0284   -2.3049 H   0  0  0  0  0  0  0  0  0  0  0  0
    1.3429   -0.4163   -1.4654 H   0  0  0  0  0  0  0  0  0  0  0  0
    1.4787   -1.8286   -0.4100 H   0  0  0  0  0  0  0  0  0  0  0  0
    1.3669    0.8110    2.0868 H   0  0  0  0  0  0  0  0  0  0  0  0
    0.5665   -0.6451    1.5014 H   0  0  0  0  0  0  0  0  0  0  0  0
    0.5795    2.0730    0.0545 H   0  0  0  0  0  0  0  0  0  0  0  0
   -0.3030    0.6319   -0.4540 H   0  0  0  0  0  0  0  0  0  0  0  0
   -0.7066    2.0343    2.2571 H   0  0  0  0  0  0  0  0  0  0  0  0
   -2.3677    3.7299    2.7658 H   0  0  0  0  0  0  0  0  0  0  0  0
   -3.8451    4.1983    4.6816 H   0  0  0  0  0  0  0  0  0  0  0  0
   -5.6248    2.5884    5.3110 H   0  0  0  0  0  0  0  0  0  0  0  0
   -5.9367    0.5119    4.0128 H   0  0  0  0  0  0  0  0  0  0  0  0
   -5.3498   -1.4752   -0.9071 H   0  0  0  0  0  0  0  0  0  0  0  0
   -4.6665   -0.8017   -3.1726 H   0  0  0  0  0  0  0  0  0  0  0  0
   -1.9286    2.0747   -1.4991 H   0  0  0  0  0  0  0  0  0  0  0  0
    2.8586   -1.5798    1.7380 H   0  0  0  0  0  0  0  0  0  0  0  0
    3.5682    0.0057    2.0721 H   0  0  0  0  0  0  0  0  0  0  0  0
    5.0671   -0.1592    0.1532 H   0  0  0  0  0  0  0  0  0  0  0  0
    5.2412   -1.5728    1.2020 H   0  0  0  0  0  0  0  0  0  0  0  0
  1  2  1  0
  2  3  1  0
  3  4  1  0
  4  5  1  0
  5  6  1  0
  6  7  1  0
  7  8  1  0
  8  9  1  0
  9 10  1  0
 10 11  2  3
 11 12  1  0
 12 13  2  0
 13 14  1  0
 14 15  2  0
 15 16  1  0
 16 17  2  0
 17 18  1  0
 18 19  1  0
 19 20  2  0
 20 21  1  0
 21 22  2  0
 22 23  1  0
 23 24  1  0
 23 25  1  0
 23 26  1  0
 22 27  1  0
 27 28  2  0
  7 29  1  0
 29 30  1  0
 30  4  1  0
 28 11  1  0
 17 12  1  0
 28 19  1  0
  1 31  1  0
  2 32  1  0
  2 33  1  0
  3 34  1  0
  3 35  1  0
  5 36  1  0
  5 37  1  0
  6 38  1  0
  6 39  1  0
  8 40  1  0
  8 41  1  0
  9 42  1  0
  9 43  1  0
 10 44  1  0
 13 45  1  0
 14 46  1  0
 15 47  1  0
 16 48  1  0
 20 49  1  0
 21 50  1  0
 27 51  1  0
 29 52  1  0
 29 53  1  0
 30 54  1  0
 30 55  1  0
M  END
$$$$
