
     RDKit          3D

 53 55  0  0  0  0  0  0  0  0999 V2000
   -7.4942    0.7265    1.5501 C   0  0  0  0  0  0  0  0  0  0  0  0
   -6.1775    0.9393    1.0594 O   0  0  0  0  0  0  0  0  0  0  0  0
   -5.5317   -0.1323    0.5020 C   0  0  0  0  0  0  0  0  0  0  0  0
   -4.2330    0.1445    0.0547 C   0  0  0  0  0  0  0  0  0  0  0  0
   -3.4527   -0.8494   -0.5345 C   0  0  0  0  0  0  0  0  0  0  0  0
   -2.1384   -0.6522   -1.0113 N   0  0  0  0  0  0  0  0  0  0  0  0
   -1.3913    0.5141   -0.9718 C   0  0  0  0  0  0  0  0  0  0  0  0
   -1.7350    1.5867   -0.4881 O   0  0  0  0  0  0  0  0  0  0  0  0
   -0.0175    0.3187   -1.5910 C   0  0  0  0  0  0  0  0  0  0  0  0
    0.7605    1.6241   -1.7125 C   0  0  0  0  0  0  0  0  0  0  0  0
    1.1401    2.1146   -0.3784 N   0  0  0  0  0  0  0  0  0  0  0  0
    2.3846    3.2408   -0.2744 S   0  0  0  0  0  6  0  0  0  0  0  0
    2.2455    3.9039    1.0023 O   0  0  0  0  0  0  0  0  0  0  0  0
    2.4439    3.9741   -1.5193 O   0  0  0  0  0  0  0  0  0  0  0  0
    3.8078    2.1821   -0.1673 C   0  0  0  0  0  0  0  0  0  0  0  0
    4.6703    2.0598   -1.2610 C   0  0  0  0  0  0  0  0  0  0  0  0
    5.7991    1.2447   -1.1592 C   0  0  0  0  0  0  0  0  0  0  0  0
    6.0512    0.5557    0.0284 C   0  0  0  0  0  0  0  0  0  0  0  0
    5.1975    0.6884    1.1311 C   0  0  0  0  0  0  0  0  0  0  0  0
    4.0728    1.5151    1.0341 C   0  0  0  0  0  0  0  0  0  0  0  0
    5.5736    0.0351    2.4320 C   0  0  0  0  0  0  0  0  0  0  0  0
    6.3384   -1.2573    2.1985 C   0  0  0  0  0  0  0  0  0  0  0  0
    7.4453   -1.0881    1.1835 C   0  0  0  0  0  0  0  0  0  0  0  0
    8.4890   -1.7349    1.2349 O   0  0  0  0  0  0  0  0  0  0  0  0
    7.1854   -0.2542    0.1284 N   0  0  0  0  0  0  0  0  0  0  0  0
   -3.9940   -2.1320   -0.6723 C   0  0  0  0  0  0  0  0  0  0  0  0
   -5.2891   -2.4224   -0.2307 C   0  0  0  0  0  0  0  0  0  0  0  0
   -5.6764   -3.7199   -0.4335 O   0  0  0  0  0  0  0  0  0  0  0  0
   -6.9852   -4.0793   -0.0085 C   0  0  0  0  0  0  0  0  0  0  0  0
   -6.0588   -1.4178    0.3574 C   0  0  0  0  0  0  0  0  0  0  0  0
   -7.8540    1.6736    1.9636 H   0  0  0  0  0  0  0  0  0  0  0  0
   -7.5000   -0.0131    2.3577 H   0  0  0  0  0  0  0  0  0  0  0  0
   -8.1740    0.4364    0.7422 H   0  0  0  0  0  0  0  0  0  0  0  0
   -3.8622    1.1568    0.1839 H   0  0  0  0  0  0  0  0  0  0  0  0
   -1.6947   -1.4662   -1.4190 H   0  0  0  0  0  0  0  0  0  0  0  0
    0.5376   -0.4025   -0.9794 H   0  0  0  0  0  0  0  0  0  0  0  0
   -0.1527   -0.1071   -2.5923 H   0  0  0  0  0  0  0  0  0  0  0  0
    1.6601    1.4334   -2.3075 H   0  0  0  0  0  0  0  0  0  0  0  0
    0.1592    2.3860   -2.2201 H   0  0  0  0  0  0  0  0  0  0  0  0
    0.3522    2.3720    0.2283 H   0  0  0  0  0  0  0  0  0  0  0  0
    4.4763    2.5990   -2.1858 H   0  0  0  0  0  0  0  0  0  0  0  0
    6.4695    1.1546   -2.0099 H   0  0  0  0  0  0  0  0  0  0  0  0
    3.4138    1.6526    1.8896 H   0  0  0  0  0  0  0  0  0  0  0  0
    4.6784   -0.1795    3.0274 H   0  0  0  0  0  0  0  0  0  0  0  0
    6.1929    0.7392    3.0015 H   0  0  0  0  0  0  0  0  0  0  0  0
    5.6674   -2.0400    1.8238 H   0  0  0  0  0  0  0  0  0  0  0  0
    6.7708   -1.6051    3.1430 H   0  0  0  0  0  0  0  0  0  0  0  0
    7.8821   -0.2480   -0.6060 H   0  0  0  0  0  0  0  0  0  0  0  0
   -3.4154   -2.9323   -1.1267 H   0  0  0  0  0  0  0  0  0  0  0  0
   -7.7463   -3.5114   -0.5540 H   0  0  0  0  0  0  0  0  0  0  0  0
   -7.1316   -5.1392   -0.2385 H   0  0  0  0  0  0  0  0  0  0  0  0
   -7.0973   -3.9545    1.0738 H   0  0  0  0  0  0  0  0  0  0  0  0
   -7.0619   -1.6329    0.7008 H   0  0  0  0  0  0  0  0  0  0  0  0
  1  2  1  0
  2  3  1  0
  3  4  2  0
  4  5  1  0
  5  6  1  0
  6  7  1  0
  7  8  2  0
  7  9  1  0
  9 10  1  0
 10 11  1  0
 11 12  1  0
 12 13  2  0
 12 14  2  0
 12 15  1  0
 15 16  2  0
 16 17  1  0
 17 18  2  0
 18 19  1  0
 19 20  2  0
 19 21  1  0
 21 22  1  0
 22 23  1  0
 23 24  2  0
 23 25  1  0
  5 26  2  0
 26 27  1  0
 27 28  1  0
 28 29  1  0
 27 30  2  0
 30  3  1  0
 20 15  1  0
 25 18  1  0
  1 31  1  0
  1 32  1  0
  1 33  1  0
  4 34  1  0
  6 35  1  0
  9 36  1  0
  9 37  1  0
 10 38  1  0
 10 39  1  0
 11 40  1  0
 16 41  1  0
 17 42  1  0
 20 43  1  0
 21 44  1  0
 21 45  1  0
 22 46  1  0
 22 47  1  0
 25 48  1  0
 26 49  1  0
 29 50  1  0
 29 51  1  0
 29 52  1  0
 30 53  1  0
M  END
$$$$
