
     RDKit          3D

 46 48  0  0  0  0  0  0  0  0999 V2000
    7.1957   -0.1527    2.7391 C   0  0  0  0  0  0  0  0  0  0  0  0
    6.6784   -1.3477    1.9607 C   0  0  0  0  0  0  0  0  0  0  0  0
    5.6864   -0.9281    1.0133 O   0  0  0  0  0  0  0  0  0  0  0  0
    6.1505   -0.5222   -0.1930 C   0  0  0  0  0  0  0  0  0  0  0  0
    7.3225   -0.4842   -0.5345 O   0  0  0  0  0  0  0  0  0  0  0  0
    5.0279   -0.1144   -1.0825 C   0  0  0  0  0  0  0  0  0  0  0  0
    5.3425    0.3045   -2.3816 C   0  0  0  0  0  0  0  0  0  0  0  0
    4.3304    0.6932   -3.2558 C   0  0  0  0  0  0  0  0  0  0  0  0
    3.0003    0.6669   -2.8338 C   0  0  0  0  0  0  0  0  0  0  0  0
    2.6667    0.2563   -1.5358 C   0  0  0  0  0  0  0  0  0  0  0  0
    1.2961    0.2581   -1.1980 N   0  0  0  0  0  0  0  0  0  0  0  0
    0.7338   -0.0211    0.0348 C   0  0  0  0  0  0  0  0  0  0  0  0
    1.3312   -0.2517    1.0788 O   0  0  0  0  0  0  0  0  0  0  0  0
   -0.7563    0.0159    0.0694 C   0  0  0  0  0  0  0  0  0  0  0  0
   -1.5343   -0.4083   -1.0130 C   0  0  0  0  0  0  0  0  0  0  0  0
   -2.9325   -0.3556   -0.9394 C   0  0  0  0  0  0  0  0  0  0  0  0
   -3.5673    0.1088    0.2148 C   0  0  0  0  0  0  0  0  0  0  0  0
   -4.9628    0.1928    0.3659 N   0  0  0  0  0  0  0  0  0  0  0  0
   -5.9496   -0.1213   -0.5524 C   0  0  0  0  0  0  0  0  0  0  0  0
   -5.7563   -0.5305   -1.6925 O   0  0  0  0  0  0  0  0  0  0  0  0
   -7.2868    0.0905   -0.0257 C   0  0  0  0  0  0  0  0  0  0  0  0
   -8.5312   -0.0974   -0.5973 C   0  0  0  0  0  0  0  0  0  0  0  0
   -9.4887    0.2708    0.3776 C   0  0  0  0  0  0  0  0  0  0  0  0
   -8.7758    0.6618    1.4858 C   0  0  0  0  0  0  0  0  0  0  0  0
   -7.4411    0.5583    1.2561 O   0  0  0  0  0  0  0  0  0  0  0  0
   -2.7832    0.5116    1.3032 C   0  0  0  0  0  0  0  0  0  0  0  0
   -1.3873    0.4619    1.2345 C   0  0  0  0  0  0  0  0  0  0  0  0
    3.6868   -0.1373   -0.6650 C   0  0  0  0  0  0  0  0  0  0  0  0
    6.3692    0.3774    3.2237 H   0  0  0  0  0  0  0  0  0  0  0  0
    7.9101   -0.4682    3.5048 H   0  0  0  0  0  0  0  0  0  0  0  0
    7.6886    0.5648    2.0755 H   0  0  0  0  0  0  0  0  0  0  0  0
    6.1909   -2.0499    2.6449 H   0  0  0  0  0  0  0  0  0  0  0  0
    7.4945   -1.8904    1.4698 H   0  0  0  0  0  0  0  0  0  0  0  0
    6.3784    0.3273   -2.7158 H   0  0  0  0  0  0  0  0  0  0  0  0
    4.5777    1.0163   -4.2640 H   0  0  0  0  0  0  0  0  0  0  0  0
    2.2295    0.9759   -3.5357 H   0  0  0  0  0  0  0  0  0  0  0  0
    0.6669    0.5665   -1.9279 H   0  0  0  0  0  0  0  0  0  0  0  0
   -1.0777   -0.8136   -1.9121 H   0  0  0  0  0  0  0  0  0  0  0  0
   -3.4969   -0.7000   -1.8009 H   0  0  0  0  0  0  0  0  0  0  0  0
   -5.3129    0.5283    1.2576 H   0  0  0  0  0  0  0  0  0  0  0  0
   -8.7110   -0.4591   -1.6011 H   0  0  0  0  0  0  0  0  0  0  0  0
  -10.5658    0.2531    0.2843 H   0  0  0  0  0  0  0  0  0  0  0  0
   -9.0563    1.0214    2.4665 H   0  0  0  0  0  0  0  0  0  0  0  0
   -3.2441    0.8675    2.2216 H   0  0  0  0  0  0  0  0  0  0  0  0
   -0.7936    0.7735    2.0921 H   0  0  0  0  0  0  0  0  0  0  0  0
    3.4557   -0.4694    0.3418 H   0  0  0  0  0  0  0  0  0  0  0  0
  1  2  1  0
  2  3  1  0
  3  4  1  0
  4  5  2  0
  4  6  1  0
  6  7  2  0
  7  8  1  0
  8  9  2  0
  9 10  1  0
 10 11  1  0
 11 12  1  0
 12 13  2  0
 12 14  1  0
 14 15  2  0
 15 16  1  0
 16 17  2  0
 17 18  1  0
 18 19  1  0
 19 20  2  0
 19 21  1  0
 21 22  2  0
 22 23  1  0
 23 24  2  0
 24 25  1  0
 17 26  1  0
 26 27  2  0
 10 28  2  0
 28  6  1  0
 27 14  1  0
 25 21  1  0
  1 29  1  0
  1 30  1  0
  1 31  1  0
  2 32  1  0
  2 33  1  0
  7 34  1  0
  8 35  1  0
  9 36  1  0
 11 37  1  0
 15 38  1  0
 16 39  1  0
 18 40  1  0
 22 41  1  0
 23 42  1  0
 24 43  1  0
 26 44  1  0
 27 45  1  0
 28 46  1  0
M  END
$$$$
