
     RDKit          3D

 64 67  0  0  0  0  0  0  0  0999 V2000
    6.2253   -3.5806   -3.8715 C   0  0  0  0  0  0  0  0  0  0  0  0
    6.7463   -2.3089   -3.5097 O   0  0  0  0  0  0  0  0  0  0  0  0
    6.1014   -1.6400   -2.5071 C   0  0  0  0  0  0  0  0  0  0  0  0
    6.6156   -0.3741   -2.2219 C   0  0  0  0  0  0  0  0  0  0  0  0
    6.0504    0.4235   -1.2200 C   0  0  0  0  0  0  0  0  0  0  0  0
    4.9596   -0.0393   -0.4872 C   0  0  0  0  0  0  0  0  0  0  0  0
    4.3239    0.6940    0.5300 N   0  0  0  0  0  0  0  0  0  0  0  0
    4.6006    1.9812    0.9561 C   0  0  0  0  0  0  0  0  0  0  0  0
    5.4819    2.7246    0.5325 O   0  0  0  0  0  0  0  0  0  0  0  0
    3.6581    2.4451    2.0745 C   0  0  0  0  0  0  0  0  0  0  0  0
    2.2843    2.6255    1.5925 N   0  0  0  0  0  0  0  0  0  0  0  0
    2.0053    3.8971    0.9353 C   0  0  0  0  0  0  0  0  0  0  0  0
    1.4480    1.5242    1.6013 C   0  0  0  0  0  0  0  0  0  0  0  0
    1.8665    0.3952    1.8593 O   0  0  0  0  0  0  0  0  0  0  0  0
    0.0148    1.7476    1.2902 C   0  0  0  0  0  0  0  0  0  0  0  0
   -0.7525    0.7113    0.9133 C   0  0  0  0  0  0  0  0  0  0  0  0
   -2.1472    0.7738    0.6105 C   0  0  0  0  0  0  0  0  0  0  0  0
   -2.8507    1.9061    0.2668 C   0  0  0  0  0  0  0  0  0  0  0  0
   -4.1422    1.5131   -0.0043 N   0  0  0  0  0  0  0  0  0  0  0  0
   -5.2368    2.3257   -0.4180 C   0  0  0  0  0  0  0  0  0  0  0  0
   -6.4887    1.7309   -0.6420 C   0  0  0  0  0  0  0  0  0  0  0  0
   -7.5756    2.5063   -1.0515 C   0  0  0  0  0  0  0  0  0  0  0  0
   -7.4217    3.8774   -1.2414 C   0  0  0  0  0  0  0  0  0  0  0  0
   -6.1826    4.4765   -1.0203 C   0  0  0  0  0  0  0  0  0  0  0  0
   -5.0899    3.7068   -0.6094 C   0  0  0  0  0  0  0  0  0  0  0  0
   -4.2952    0.1777    0.1563 N   0  0  0  0  0  0  0  0  0  0  0  0
   -3.0980   -0.2856    0.5461 C   0  0  0  0  0  0  0  0  0  0  0  0
   -2.9211   -1.7113    0.8301 C   0  0  0  0  0  0  0  0  0  0  0  0
   -3.4875   -2.6696   -0.0207 C   0  0  0  0  0  0  0  0  0  0  0  0
   -3.3278   -4.0345    0.2364 C   0  0  0  0  0  0  0  0  0  0  0  0
   -2.6145   -4.4652    1.3598 C   0  0  0  0  0  0  0  0  0  0  0  0
   -2.4201   -5.9296    1.6221 C   0  0  0  0  0  0  0  0  0  0  0  0
   -2.0456   -3.5106    2.2101 C   0  0  0  0  0  0  0  0  0  0  0  0
   -2.2055   -2.1448    1.9529 C   0  0  0  0  0  0  0  0  0  0  0  0
    4.4484   -1.3116   -0.7699 C   0  0  0  0  0  0  0  0  0  0  0  0
    5.0137   -2.1083   -1.7737 C   0  0  0  0  0  0  0  0  0  0  0  0
    6.8369   -3.9718   -4.6903 H   0  0  0  0  0  0  0  0  0  0  0  0
    6.2936   -4.2871   -3.0385 H   0  0  0  0  0  0  0  0  0  0  0  0
    5.1962   -3.4956   -4.2350 H   0  0  0  0  0  0  0  0  0  0  0  0
    7.4662    0.0017   -2.7859 H   0  0  0  0  0  0  0  0  0  0  0  0
    6.4896    1.3993   -1.0399 H   0  0  0  0  0  0  0  0  0  0  0  0
    3.5275    0.2425    0.9843 H   0  0  0  0  0  0  0  0  0  0  0  0
    3.6833    1.7041    2.8823 H   0  0  0  0  0  0  0  0  0  0  0  0
    4.0195    3.3935    2.4876 H   0  0  0  0  0  0  0  0  0  0  0  0
    1.9981    4.6844    1.6948 H   0  0  0  0  0  0  0  0  0  0  0  0
    2.7969    4.1036    0.2082 H   0  0  0  0  0  0  0  0  0  0  0  0
    1.0547    3.8981    0.3999 H   0  0  0  0  0  0  0  0  0  0  0  0
   -0.3947    2.7373    1.4328 H   0  0  0  0  0  0  0  0  0  0  0  0
   -0.2858   -0.2705    0.8277 H   0  0  0  0  0  0  0  0  0  0  0  0
   -2.5391    2.9336    0.1717 H   0  0  0  0  0  0  0  0  0  0  0  0
   -6.6343    0.6610   -0.4991 H   0  0  0  0  0  0  0  0  0  0  0  0
   -8.5411    2.0362   -1.2211 H   0  0  0  0  0  0  0  0  0  0  0  0
   -8.2685    4.4798   -1.5607 H   0  0  0  0  0  0  0  0  0  0  0  0
   -6.0662    5.5473   -1.1698 H   0  0  0  0  0  0  0  0  0  0  0  0
   -4.1458    4.2178   -0.4497 H   0  0  0  0  0  0  0  0  0  0  0  0
   -4.0584   -2.3543   -0.8918 H   0  0  0  0  0  0  0  0  0  0  0  0
   -3.7711   -4.7567   -0.4453 H   0  0  0  0  0  0  0  0  0  0  0  0
   -2.3937   -6.1320    2.6967 H   0  0  0  0  0  0  0  0  0  0  0  0
   -3.2440   -6.5147    1.2027 H   0  0  0  0  0  0  0  0  0  0  0  0
   -1.4832   -6.2694    1.1732 H   0  0  0  0  0  0  0  0  0  0  0  0
   -1.4795   -3.8227    3.0853 H   0  0  0  0  0  0  0  0  0  0  0  0
   -1.7759   -1.4282    2.6485 H   0  0  0  0  0  0  0  0  0  0  0  0
    3.5990   -1.7008   -0.2129 H   0  0  0  0  0  0  0  0  0  0  0  0
    4.5790   -3.0859   -1.9530 H   0  0  0  0  0  0  0  0  0  0  0  0
  1  2  1  0
  2  3  1  0
  3  4  2  0
  4  5  1  0
  5  6  2  0
  6  7  1  0
  7  8  1  0
  8  9  2  0
  8 10  1  0
 10 11  1  0
 11 12  1  0
 11 13  1  0
 13 14  2  0
 13 15  1  0
 15 16  2  3
 16 17  1  0
 17 18  2  0
 18 19  1  0
 19 20  1  0
 20 21  2  0
 21 22  1  0
 22 23  2  0
 23 24  1  0
 24 25  2  0
 19 26  1  0
 26 27  2  0
 27 28  1  0
 28 29  2  0
 29 30  1  0
 30 31  2  0
 31 32  1  0
 31 33  1  0
 33 34  2  0
  6 35  1  0
 35 36  2  0
 36  3  1  0
 27 17  1  0
 34 28  1  0
 25 20  1  0
  1 37  1  0
  1 38  1  0
  1 39  1  0
  4 40  1  0
  5 41  1  0
  7 42  1  0
 10 43  1  0
 10 44  1  0
 12 45  1  0
 12 46  1  0
 12 47  1  0
 15 48  1  0
 16 49  1  0
 18 50  1  0
 21 51  1  0
 22 52  1  0
 23 53  1  0
 24 54  1  0
 25 55  1  0
 29 56  1  0
 30 57  1  0
 32 58  1  0
 32 59  1  0
 32 60  1  0
 33 61  1  0
 34 62  1  0
 35 63  1  0
 36 64  1  0
M  END
$$$$
