
     RDKit          3D

 56 59  0  0  0  0  0  0  0  0999 V2000
    5.9589    2.2542   -1.4187 C   0  0  0  0  0  0  0  0  0  0  0  0
    5.2747    2.4053   -0.1802 O   0  0  0  0  0  0  0  0  0  0  0  0
    4.0845    1.7471   -0.0459 C   0  0  0  0  0  0  0  0  0  0  0  0
    3.4548    0.9822   -1.0295 C   0  0  0  0  0  0  0  0  0  0  0  0
    2.2364    0.3492   -0.7563 C   0  0  0  0  0  0  0  0  0  0  0  0
    1.6634    0.4629    0.5135 C   0  0  0  0  0  0  0  0  0  0  0  0
    0.1136   -0.3455    0.8662 S   0  0  0  0  0  6  0  0  0  0  0  0
   -0.5643   -0.5482   -0.3972 O   0  0  0  0  0  0  0  0  0  0  0  0
   -0.5137    0.3789    1.9514 O   0  0  0  0  0  0  0  0  0  0  0  0
    0.5627   -1.8492    1.4535 N   0  0  0  0  0  0  0  0  0  0  0  0
    1.3218   -1.9560    2.6976 C   0  0  0  0  0  0  0  0  0  0  0  0
    2.6297   -2.5476    2.2291 C   0  0  0  0  0  0  0  0  0  0  0  0
    2.2689   -3.4176    1.1512 O   0  0  0  0  0  0  0  0  0  0  0  0
    1.1086   -2.8414    0.5180 C   0  0  0  0  0  0  0  0  0  0  0  0
    0.0974   -3.9760    0.2301 C   0  0  0  0  0  0  0  0  0  0  0  0
   -1.1391   -3.5425   -0.3897 N   0  0  0  0  0  0  0  0  0  0  0  0
   -2.2217   -3.1420    0.3620 C   0  0  0  0  0  0  0  0  0  0  0  0
   -2.3664   -3.2982    1.5659 O   0  0  0  0  0  0  0  0  0  0  0  0
   -3.2907   -2.3797   -0.4567 C   0  0  0  0  0  0  0  0  0  0  0  0
   -3.3202   -2.4809   -1.6745 O   0  0  0  0  0  0  0  0  0  0  0  0
   -4.1025   -1.5862    0.3222 N   0  0  0  0  0  0  0  0  0  0  0  0
   -4.8910   -0.5283   -0.2512 C   0  0  0  0  0  0  0  0  0  0  0  0
   -4.0624    0.7136   -0.4679 C   0  0  0  0  0  0  0  0  0  0  0  0
   -3.5766    1.4474    0.6403 C   0  0  0  0  0  0  0  0  0  0  0  0
   -2.7627    2.5706    0.4595 C   0  0  0  0  0  0  0  0  0  0  0  0
   -2.4575    2.9400   -0.8325 C   0  0  0  0  0  0  0  0  0  0  0  0
   -2.9299    2.2401   -1.9171 C   0  0  0  0  0  0  0  0  0  0  0  0
   -3.7278    1.1242   -1.7706 C   0  0  0  0  0  0  0  0  0  0  0  0
   -2.5143    2.7716   -3.0999 O   0  0  0  0  0  0  0  0  0  0  0  0
   -1.7185    3.8774   -2.6334 C   0  0  0  0  0  0  0  0  0  0  0  0
   -1.6813    3.9963   -1.1947 O   0  0  0  0  0  0  0  0  0  0  0  0
    2.2655    1.2583    1.4894 C   0  0  0  0  0  0  0  0  0  0  0  0
    3.4771    1.8910    1.2055 C   0  0  0  0  0  0  0  0  0  0  0  0
    6.9039    2.8024   -1.3493 H   0  0  0  0  0  0  0  0  0  0  0  0
    6.1957    1.2029   -1.6145 H   0  0  0  0  0  0  0  0  0  0  0  0
    5.3805    2.6859   -2.2418 H   0  0  0  0  0  0  0  0  0  0  0  0
    3.8784    0.8672   -2.0224 H   0  0  0  0  0  0  0  0  0  0  0  0
    1.7436   -0.2205   -1.5421 H   0  0  0  0  0  0  0  0  0  0  0  0
    1.4586   -1.0174    3.2416 H   0  0  0  0  0  0  0  0  0  0  0  0
    0.7912   -2.6531    3.3566 H   0  0  0  0  0  0  0  0  0  0  0  0
    3.1448   -3.1115    3.0119 H   0  0  0  0  0  0  0  0  0  0  0  0
    3.3074   -1.7820    1.8375 H   0  0  0  0  0  0  0  0  0  0  0  0
    1.4371   -2.3902   -0.4228 H   0  0  0  0  0  0  0  0  0  0  0  0
    0.5573   -4.7078   -0.4429 H   0  0  0  0  0  0  0  0  0  0  0  0
   -0.1357   -4.5067    1.1609 H   0  0  0  0  0  0  0  0  0  0  0  0
   -1.1436   -3.2166   -1.3549 H   0  0  0  0  0  0  0  0  0  0  0  0
   -3.8341   -1.5256    1.3011 H   0  0  0  0  0  0  0  0  0  0  0  0
   -5.3345   -0.8762   -1.1923 H   0  0  0  0  0  0  0  0  0  0  0  0
   -5.7109   -0.3080    0.4398 H   0  0  0  0  0  0  0  0  0  0  0  0
   -3.8113    1.1282    1.6558 H   0  0  0  0  0  0  0  0  0  0  0  0
   -2.3708    3.1180    1.3087 H   0  0  0  0  0  0  0  0  0  0  0  0
   -4.0646    0.5726   -2.6432 H   0  0  0  0  0  0  0  0  0  0  0  0
   -2.1311    4.8038   -3.0507 H   0  0  0  0  0  0  0  0  0  0  0  0
   -0.6924    3.7522   -3.0030 H   0  0  0  0  0  0  0  0  0  0  0  0
    1.8024    1.3990    2.4631 H   0  0  0  0  0  0  0  0  0  0  0  0
    3.9510    2.5113    1.9636 H   0  0  0  0  0  0  0  0  0  0  0  0
  1  2  1  0
  2  3  1  0
  3  4  2  0
  4  5  1  0
  5  6  2  0
  6  7  1  0
  7  8  2  0
  7  9  2  0
  7 10  1  0
 10 11  1  0
 11 12  1  0
 12 13  1  0
 13 14  1  0
 14 15  1  0
 15 16  1  0
 16 17  1  0
 17 18  2  0
 17 19  1  0
 19 20  2  0
 19 21  1  0
 21 22  1  0
 22 23  1  0
 23 24  2  0
 24 25  1  0
 25 26  2  0
 26 27  1  0
 27 28  2  0
 27 29  1  0
 29 30  1  0
 30 31  1  0
  6 32  1  0
 32 33  2  0
 33  3  1  0
 14 10  1  0
 28 23  1  0
 31 26  1  0
  1 34  1  0
  1 35  1  0
  1 36  1  0
  4 37  1  0
  5 38  1  0
 11 39  1  0
 11 40  1  0
 12 41  1  0
 12 42  1  0
 14 43  1  0
 15 44  1  0
 15 45  1  0
 16 46  1  0
 21 47  1  0
 22 48  1  0
 22 49  1  0
 24 50  1  0
 25 51  1  0
 28 52  1  0
 30 53  1  0
 30 54  1  0
 32 55  1  0
 33 56  1  0
M  END
$$$$
