
     RDKit          3D

 38 40  0  0  0  0  0  0  0  0999 V2000
   -5.2682    3.0013    0.8090 C   0  0  0  0  0  0  0  0  0  0  0  0
   -4.4449    1.8419    0.3287 C   0  0  0  0  0  0  0  0  0  0  0  0
   -4.4110    1.5149   -1.0341 C   0  0  0  0  0  0  0  0  0  0  0  0
   -3.6728    0.4175   -1.4801 C   0  0  0  0  0  0  0  0  0  0  0  0
   -2.9672   -0.3576   -0.5567 C   0  0  0  0  0  0  0  0  0  0  0  0
   -2.0398   -1.7589   -1.1236 S   0  0  0  0  0  6  0  0  0  0  0  0
   -2.7539   -2.3245   -2.2499 O   0  0  0  0  0  0  0  0  0  0  0  0
   -1.6766   -2.5781    0.0122 O   0  0  0  0  0  0  0  0  0  0  0  0
   -0.6462   -1.0473   -1.7709 N   0  0  0  0  0  0  0  0  0  0  0  0
    0.3810   -0.6577   -0.8684 C   0  0  0  0  0  0  0  0  0  0  0  0
    0.3530    0.6156   -0.3054 C   0  0  0  0  0  0  0  0  0  0  0  0
    1.3357    0.9866    0.6099 C   0  0  0  0  0  0  0  0  0  0  0  0
    2.3413    0.0848    0.9568 C   0  0  0  0  0  0  0  0  0  0  0  0
    3.2648    0.5443    1.8553 O   0  0  0  0  0  0  0  0  0  0  0  0
    2.3733   -1.2064    0.4093 C   0  0  0  0  0  0  0  0  0  0  0  0
    3.5572   -2.4606    0.8760 S   0  0  0  0  0  0  0  0  0  0  0  0
    5.0573   -1.7720    0.3307 C   0  0  0  0  0  0  0  0  0  0  0  0
    5.5451   -0.5924    0.8335 N   0  0  0  0  0  0  0  0  0  0  0  0
    6.6816   -0.4502    0.1912 C   0  0  0  0  0  0  0  0  0  0  0  0
    6.8639   -1.5032   -0.6492 N   0  0  0  0  0  0  0  0  0  0  0  0
    5.8382   -2.3654   -0.5749 N   0  0  0  0  0  0  0  0  0  0  0  0
    1.3739   -1.5701   -0.5056 C   0  0  0  0  0  0  0  0  0  0  0  0
   -3.0149   -0.0617    0.8076 C   0  0  0  0  0  0  0  0  0  0  0  0
   -3.7540    1.0380    1.2462 C   0  0  0  0  0  0  0  0  0  0  0  0
   -4.8316    3.4430    1.7109 H   0  0  0  0  0  0  0  0  0  0  0  0
   -6.2862    2.6691    1.0342 H   0  0  0  0  0  0  0  0  0  0  0  0
   -5.3121    3.7897    0.0503 H   0  0  0  0  0  0  0  0  0  0  0  0
   -4.9643    2.1128   -1.7556 H   0  0  0  0  0  0  0  0  0  0  0  0
   -3.6554    0.1717   -2.5394 H   0  0  0  0  0  0  0  0  0  0  0  0
   -0.3656   -1.5327   -2.6226 H   0  0  0  0  0  0  0  0  0  0  0  0
   -0.4213    1.3279   -0.5770 H   0  0  0  0  0  0  0  0  0  0  0  0
    1.3232    1.9791    1.0525 H   0  0  0  0  0  0  0  0  0  0  0  0
    4.0883    0.0251    1.7386 H   0  0  0  0  0  0  0  0  0  0  0  0
    7.3887    0.3614    0.2908 H   0  0  0  0  0  0  0  0  0  0  0  0
    7.6351   -1.6977   -1.2788 H   0  0  0  0  0  0  0  0  0  0  0  0
    1.3562   -2.5757   -0.9198 H   0  0  0  0  0  0  0  0  0  0  0  0
   -2.4817   -0.6756    1.5305 H   0  0  0  0  0  0  0  0  0  0  0  0
   -3.7904    1.2630    2.3104 H   0  0  0  0  0  0  0  0  0  0  0  0
  1  2  1  0
  2  3  2  0
  3  4  1  0
  4  5  2  0
  5  6  1  0
  6  7  2  0
  6  8  2  0
  6  9  1  0
  9 10  1  0
 10 11  2  0
 11 12  1  0
 12 13  2  0
 13 14  1  0
 13 15  1  0
 15 16  1  0
 16 17  1  0
 17 18  1  0
 18 19  2  0
 19 20  1  0
 20 21  1  0
 15 22  2  0
  5 23  1  0
 23 24  2  0
 24  2  1  0
 22 10  1  0
 21 17  2  0
  1 25  1  0
  1 26  1  0
  1 27  1  0
  3 28  1  0
  4 29  1  0
  9 30  1  0
 11 31  1  0
 12 32  1  0
 14 33  1  0
 19 34  1  0
 20 35  1  0
 22 36  1  0
 23 37  1  0
 24 38  1  0
M  END
$$$$
