
     RDKit          3D

 51 53  0  0  0  0  0  0  0  0999 V2000
    8.9726    0.2215   -1.1762 C   0  0  0  0  0  0  0  0  0  0  0  0
    8.4069   -0.9497   -1.7493 O   0  0  0  0  0  0  0  0  0  0  0  0
    7.0518   -1.1001   -1.6412 C   0  0  0  0  0  0  0  0  0  0  0  0
    6.5257   -2.1725   -2.3621 C   0  0  0  0  0  0  0  0  0  0  0  0
    5.1573   -2.4363   -2.3369 C   0  0  0  0  0  0  0  0  0  0  0  0
    4.3025   -1.6291   -1.5838 C   0  0  0  0  0  0  0  0  0  0  0  0
    4.8139   -0.5570   -0.8516 C   0  0  0  0  0  0  0  0  0  0  0  0
    4.0200    0.2938   -0.0636 N   0  0  0  0  0  0  0  0  0  0  0  0
    2.6548    0.2580    0.1169 C   0  0  0  0  0  0  0  0  0  0  0  0
    1.8267   -0.5012   -0.3667 O   0  0  0  0  0  0  0  0  0  0  0  0
    2.1755    1.3635    1.0737 C   0  0  0  0  0  0  0  0  0  0  0  0
    3.0043    2.1053    1.5865 O   0  0  0  0  0  0  0  0  0  0  0  0
    0.8039    1.3666    1.2251 N   0  0  0  0  0  0  0  0  0  0  0  0
    0.2040    2.2107    2.1090 N   0  0  0  0  0  0  0  0  0  0  0  0
   -1.0939    2.2522    2.1739 C   0  0  0  0  0  0  0  0  0  0  0  0
   -2.0271    1.5810    1.2825 C   0  0  0  0  0  0  0  0  0  0  0  0
   -1.9479    1.4498   -0.1250 C   0  0  0  0  0  0  0  0  0  0  0  0
   -3.0581    0.7613   -0.5678 C   0  0  0  0  0  0  0  0  0  0  0  0
   -3.3304    0.3061   -1.9628 C   0  0  0  0  0  0  0  0  0  0  0  0
   -3.8597    0.4852    0.5336 N   0  0  0  0  0  0  0  0  0  0  0  0
   -5.1049   -0.2094    0.5072 C   0  0  0  0  0  0  0  0  0  0  0  0
   -5.3674   -1.2193    1.4392 C   0  0  0  0  0  0  0  0  0  0  0  0
   -6.5909   -1.8942    1.4107 C   0  0  0  0  0  0  0  0  0  0  0  0
   -7.5567   -1.5648    0.4558 C   0  0  0  0  0  0  0  0  0  0  0  0
   -9.0468   -2.4387    0.4843 Cl  0  0  0  0  0  0  0  0  0  0  0  0
   -7.2943   -0.5563   -0.4776 C   0  0  0  0  0  0  0  0  0  0  0  0
   -8.4428   -0.0877   -1.6807 Cl  0  0  0  0  0  0  0  0  0  0  0  0
   -6.0691    0.1190   -0.4535 C   0  0  0  0  0  0  0  0  0  0  0  0
   -3.2377    1.0152    1.6670 C   0  0  0  0  0  0  0  0  0  0  0  0
   -3.8589    1.0059    3.0287 C   0  0  0  0  0  0  0  0  0  0  0  0
    6.1936   -0.2982   -0.8837 C   0  0  0  0  0  0  0  0  0  0  0  0
   10.0450    0.2143   -1.3924 H   0  0  0  0  0  0  0  0  0  0  0  0
    8.5477    1.1242   -1.6274 H   0  0  0  0  0  0  0  0  0  0  0  0
    8.8550    0.2276   -0.0881 H   0  0  0  0  0  0  0  0  0  0  0  0
    7.1868   -2.8047   -2.9496 H   0  0  0  0  0  0  0  0  0  0  0  0
    4.7550   -3.2733   -2.9017 H   0  0  0  0  0  0  0  0  0  0  0  0
    3.2439   -1.8690   -1.5856 H   0  0  0  0  0  0  0  0  0  0  0  0
    4.4863    1.0366    0.4546 H   0  0  0  0  0  0  0  0  0  0  0  0
    0.2707    0.6319    0.7626 H   0  0  0  0  0  0  0  0  0  0  0  0
   -1.5349    2.8659    2.9768 H   0  0  0  0  0  0  0  0  0  0  0  0
   -1.1528    1.8161   -0.7639 H   0  0  0  0  0  0  0  0  0  0  0  0
   -3.9928    1.0080   -2.4778 H   0  0  0  0  0  0  0  0  0  0  0  0
   -2.3969    0.2541   -2.5340 H   0  0  0  0  0  0  0  0  0  0  0  0
   -3.7707   -0.6952   -1.9865 H   0  0  0  0  0  0  0  0  0  0  0  0
   -4.6197   -1.5259    2.1666 H   0  0  0  0  0  0  0  0  0  0  0  0
   -6.7811   -2.6851    2.1321 H   0  0  0  0  0  0  0  0  0  0  0  0
   -5.8988    0.9280   -1.1586 H   0  0  0  0  0  0  0  0  0  0  0  0
   -4.9401    1.1709    2.9799 H   0  0  0  0  0  0  0  0  0  0  0  0
   -3.6624    0.0579    3.5385 H   0  0  0  0  0  0  0  0  0  0  0  0
   -3.4513    1.8044    3.6567 H   0  0  0  0  0  0  0  0  0  0  0  0
    6.5841    0.5325   -0.3057 H   0  0  0  0  0  0  0  0  0  0  0  0
  1  2  1  0
  2  3  1  0
  3  4  2  0
  4  5  1  0
  5  6  2  0
  6  7  1  0
  7  8  1  0
  8  9  1  0
  9 10  2  0
  9 11  1  0
 11 12  2  0
 11 13  1  0
 13 14  1  0
 14 15  2  3
 15 16  1  0
 16 17  1  0
 17 18  2  0
 18 19  1  0
 18 20  1  0
 20 21  1  0
 21 22  2  0
 22 23  1  0
 23 24  2  0
 24 25  1  0
 24 26  1  0
 26 27  1  0
 26 28  2  0
 20 29  1  0
 29 30  1  0
  7 31  2  0
 31  3  1  0
 29 16  2  0
 28 21  1  0
  1 32  1  0
  1 33  1  0
  1 34  1  0
  4 35  1  0
  5 36  1  0
  6 37  1  0
  8 38  1  0
 13 39  1  0
 15 40  1  0
 17 41  1  0
 19 42  1  0
 19 43  1  0
 19 44  1  0
 22 45  1  0
 23 46  1  0
 28 47  1  0
 30 48  1  0
 30 49  1  0
 30 50  1  0
 31 51  1  0
M  END
$$$$
