
     RDKit          3D

 37 39  0  0  0  0  0  0  0  0999 V2000
   -1.0966    4.6525    0.9561 C   0  0  0  0  0  0  0  0  0  0  0  0
    0.3358    4.1809   -0.0495 S   0  0  0  0  0  0  0  0  0  0  0  0
    0.2206    2.3991    0.0354 C   0  0  0  0  0  0  0  0  0  0  0  0
    1.2651    1.6471   -0.4572 C   0  0  0  0  0  0  0  0  0  0  0  0
    1.1428    0.2724   -0.3979 C   0  0  0  0  0  0  0  0  0  0  0  0
    2.1871   -0.5445   -0.8771 N   0  0  0  0  0  0  0  0  0  0  0  0
    2.4774   -0.3451   -2.3155 C   0  0  0  0  0  0  0  0  0  0  0  0
    3.6740   -1.2173   -2.7318 C   0  0  0  0  0  0  0  0  0  0  0  0
    3.4467   -2.6044   -2.4382 O   0  0  0  0  0  0  0  0  0  0  0  0
    3.2240   -2.7794   -1.0288 C   0  0  0  0  0  0  0  0  0  0  0  0
    2.0029   -1.9783   -0.5522 C   0  0  0  0  0  0  0  0  0  0  0  0
    0.0549   -0.2924    0.1506 N   0  0  0  0  0  0  0  0  0  0  0  0
   -0.9112    0.5178    0.6221 C   0  0  0  0  0  0  0  0  0  0  0  0
   -2.1139   -0.1260    1.1629 C   0  0  0  0  0  0  0  0  0  0  0  0
   -2.7109   -1.1821    0.4388 C   0  0  0  0  0  0  0  0  0  0  0  0
   -3.8665   -1.8237    0.8920 C   0  0  0  0  0  0  0  0  0  0  0  0
   -4.4536   -1.4280    2.0878 C   0  0  0  0  0  0  0  0  0  0  0  0
   -3.8795   -0.3981    2.8306 C   0  0  0  0  0  0  0  0  0  0  0  0
   -2.7187    0.2466    2.3775 C   0  0  0  0  0  0  0  0  0  0  0  0
   -2.0600    1.4657    3.4183 Cl  0  0  0  0  0  0  0  0  0  0  0  0
   -0.8850    1.8547    0.5597 N   0  0  0  0  0  0  0  0  0  0  0  0
   -1.1446    5.7435    1.0130 H   0  0  0  0  0  0  0  0  0  0  0  0
   -1.0011    4.2610    1.9723 H   0  0  0  0  0  0  0  0  0  0  0  0
   -2.0257    4.2931    0.5053 H   0  0  0  0  0  0  0  0  0  0  0  0
    2.1552    2.1179   -0.8521 H   0  0  0  0  0  0  0  0  0  0  0  0
    2.7216    0.6987   -2.5401 H   0  0  0  0  0  0  0  0  0  0  0  0
    1.5978   -0.6307   -2.9073 H   0  0  0  0  0  0  0  0  0  0  0  0
    3.8387   -1.1300   -3.8104 H   0  0  0  0  0  0  0  0  0  0  0  0
    4.5914   -0.8925   -2.2263 H   0  0  0  0  0  0  0  0  0  0  0  0
    3.0615   -3.8468   -0.8495 H   0  0  0  0  0  0  0  0  0  0  0  0
    4.1288   -2.4818   -0.4854 H   0  0  0  0  0  0  0  0  0  0  0  0
    1.1081   -2.3654   -1.0576 H   0  0  0  0  0  0  0  0  0  0  0  0
    1.8927   -2.1205    0.5296 H   0  0  0  0  0  0  0  0  0  0  0  0
   -2.2669   -1.5063   -0.5025 H   0  0  0  0  0  0  0  0  0  0  0  0
   -4.3040   -2.6305    0.3087 H   0  0  0  0  0  0  0  0  0  0  0  0
   -5.3521   -1.9237    2.4464 H   0  0  0  0  0  0  0  0  0  0  0  0
   -4.3365   -0.1034    3.7725 H   0  0  0  0  0  0  0  0  0  0  0  0
  1  2  1  0
  2  3  1  0
  3  4  2  0
  4  5  1  0
  5  6  1  0
  6  7  1  0
  7  8  1  0
  8  9  1  0
  9 10  1  0
 10 11  1  0
  5 12  2  0
 12 13  1  0
 13 14  1  0
 14 15  2  0
 15 16  1  0
 16 17  2  0
 17 18  1  0
 18 19  2  0
 19 20  1  0
 13 21  2  0
 21  3  1  0
 11  6  1  0
 19 14  1  0
  1 22  1  0
  1 23  1  0
  1 24  1  0
  4 25  1  0
  7 26  1  0
  7 27  1  0
  8 28  1  0
  8 29  1  0
 10 30  1  0
 10 31  1  0
 11 32  1  0
 11 33  1  0
 15 34  1  0
 16 35  1  0
 17 36  1  0
 18 37  1  0
M  END
$$$$
