
     RDKit          3D

 67 72  0  0  0  0  0  0  0  0999 V2000
   -4.9151   -4.1401   -1.4112 C   0  0  0  0  0  0  0  0  0  0  0  0
   -4.0706   -3.3440   -0.4627 C   0  0  0  0  0  0  0  0  0  0  0  0
   -4.1634   -3.5195    0.9318 C   0  0  0  0  0  0  0  0  0  0  0  0
   -5.2583   -4.6715    1.6185 Cl  0  0  0  0  0  0  0  0  0  0  0  0
   -3.3707   -2.7733    1.8268 C   0  0  0  0  0  0  0  0  0  0  0  0
   -2.4644   -1.8230    1.3570 C   0  0  0  0  0  0  0  0  0  0  0  0
   -2.3734   -1.6332   -0.0119 C   0  0  0  0  0  0  0  0  0  0  0  0
   -3.1592   -2.3888   -0.8964 C   0  0  0  0  0  0  0  0  0  0  0  0
   -2.8600   -2.0302   -2.2114 N   0  0  0  0  0  0  0  0  0  0  0  0
   -1.8830   -1.0334   -2.2692 C   0  0  0  0  0  0  0  0  0  0  0  0
   -1.4236   -0.5659   -3.3011 O   0  0  0  0  0  0  0  0  0  0  0  0
   -1.5062   -0.7014   -0.8054 C   0  0  1  0  0  0  0  0  0  0  0  0
   -1.7957    0.7038   -0.4238 C   0  0  0  0  0  0  0  0  0  0  0  0
   -0.6047    1.4463   -0.3545 C   0  0  0  0  0  0  0  0  0  0  0  0
   -0.9083    2.7407   -0.0272 C   0  0  0  0  0  0  0  0  0  0  0  0
   -0.1112    3.7901    0.1541 O   0  0  0  0  0  0  0  0  0  0  0  0
   -2.3049    2.7991    0.1686 N   0  0  0  0  0  0  0  0  0  0  0  0
   -3.0499    3.9197    0.6588 C   0  0  0  0  0  0  0  0  0  0  0  0
   -2.6359    5.2303    0.3927 C   0  0  0  0  0  0  0  0  0  0  0  0
   -3.3768    6.3142    0.8721 C   0  0  0  0  0  0  0  0  0  0  0  0
   -4.5273    6.0991    1.6277 C   0  0  0  0  0  0  0  0  0  0  0  0
   -4.9378    4.7991    1.9120 C   0  0  0  0  0  0  0  0  0  0  0  0
   -4.2025    3.7118    1.4336 C   0  0  0  0  0  0  0  0  0  0  0  0
   -2.8476    1.5461   -0.1910 C   0  0  0  0  0  0  0  0  0  0  0  0
   -4.1484    1.2902   -0.3251 O   0  0  0  0  0  0  0  0  0  0  0  0
    0.5379    0.5847   -0.7265 C   0  0  1  0  0  0  0  0  0  0  0  0
    1.8352    0.6804    0.0659 C   0  0  0  0  0  0  0  0  0  0  0  0
    2.7572   -0.4041   -0.3139 N   0  0  0  0  0  0  0  0  0  0  0  0
    4.1089   -0.2069   -0.0869 C   0  0  0  0  0  0  0  0  0  0  0  0
    4.5880    0.8779    0.2176 O   0  0  0  0  0  0  0  0  0  0  0  0
    4.8257   -1.3486   -0.2435 O   0  0  0  0  0  0  0  0  0  0  0  0
    6.2639   -1.3630   -0.0561 C   0  0  0  0  0  0  0  0  0  0  0  0
    6.9685   -0.4664   -1.0799 C   0  0  0  0  0  0  0  0  0  0  0  0
    6.6736   -2.8206   -0.3174 C   0  0  0  0  0  0  0  0  0  0  0  0
    6.6437   -1.0001    1.3837 C   0  0  0  0  0  0  0  0  0  0  0  0
    2.1796   -1.7586   -0.4232 C   0  0  0  0  0  0  0  0  0  0  0  0
    0.7768   -1.7987   -1.0848 C   0  0  0  0  0  0  0  0  0  0  0  0
   -0.0589   -0.7683   -0.4928 N   0  0  0  0  0  0  0  0  0  0  0  0
   -5.9762   -3.9288   -1.2428 H   0  0  0  0  0  0  0  0  0  0  0  0
   -4.7020   -3.9081   -2.4582 H   0  0  0  0  0  0  0  0  0  0  0  0
   -4.7315   -5.2114   -1.2782 H   0  0  0  0  0  0  0  0  0  0  0  0
   -3.4640   -2.9324    2.8990 H   0  0  0  0  0  0  0  0  0  0  0  0
   -1.8541   -1.2434    2.0430 H   0  0  0  0  0  0  0  0  0  0  0  0
   -3.2802   -2.4133   -3.0438 H   0  0  0  0  0  0  0  0  0  0  0  0
    0.8061    3.5141   -0.0141 H   0  0  0  0  0  0  0  0  0  0  0  0
   -1.7584    5.4385   -0.2130 H   0  0  0  0  0  0  0  0  0  0  0  0
   -3.0524    7.3285    0.6526 H   0  0  0  0  0  0  0  0  0  0  0  0
   -5.0973    6.9452    2.0031 H   0  0  0  0  0  0  0  0  0  0  0  0
   -5.8223    4.6307    2.5215 H   0  0  0  0  0  0  0  0  0  0  0  0
   -4.5194    2.7118    1.7234 H   0  0  0  0  0  0  0  0  0  0  0  0
   -4.6184    2.1339   -0.4563 H   0  0  0  0  0  0  0  0  0  0  0  0
    0.7453    0.7254   -1.7973 H   0  0  0  0  0  0  0  0  0  0  0  0
    1.6567    0.5955    1.1458 H   0  0  0  0  0  0  0  0  0  0  0  0
    2.3117    1.6523   -0.1048 H   0  0  0  0  0  0  0  0  0  0  0  0
    6.7672    0.5942   -0.9025 H   0  0  0  0  0  0  0  0  0  0  0  0
    6.6193   -0.6865   -2.0948 H   0  0  0  0  0  0  0  0  0  0  0  0
    8.0547   -0.6028   -1.0479 H   0  0  0  0  0  0  0  0  0  0  0  0
    7.7533   -2.9663   -0.2068 H   0  0  0  0  0  0  0  0  0  0  0  0
    6.1600   -3.4995    0.3735 H   0  0  0  0  0  0  0  0  0  0  0  0
    6.3839   -3.1316   -1.3280 H   0  0  0  0  0  0  0  0  0  0  0  0
    6.0624   -1.5916    2.1000 H   0  0  0  0  0  0  0  0  0  0  0  0
    7.7089   -1.1747    1.5707 H   0  0  0  0  0  0  0  0  0  0  0  0
    6.4416    0.0515    1.6081 H   0  0  0  0  0  0  0  0  0  0  0  0
    2.1170   -2.1528    0.5991 H   0  0  0  0  0  0  0  0  0  0  0  0
    2.8575   -2.4096   -0.9852 H   0  0  0  0  0  0  0  0  0  0  0  0
    0.8836   -1.6498   -2.1660 H   0  0  0  0  0  0  0  0  0  0  0  0
    0.3456   -2.7933   -0.9266 H   0  0  0  0  0  0  0  0  0  0  0  0
  1  2  1  0
  2  3  2  0
  3  4  1  0
  3  5  1  0
  5  6  2  0
  6  7  1  0
  7  8  2  0
  8  9  1  0
  9 10  1  0
 10 11  2  0
 10 12  1  0
 12 13  1  0
 13 14  1  0
 14 15  2  0
 15 16  1  0
 15 17  1  0
 17 18  1  0
 18 19  2  0
 19 20  1  0
 20 21  2  0
 21 22  1  0
 22 23  2  0
 17 24  1  0
 24 25  1  0
 14 26  1  0
 26 27  1  0
 27 28  1  0
 28 29  1  0
 29 30  2  0
 29 31  1  0
 31 32  1  0
 32 33  1  0
 32 34  1  0
 32 35  1  0
 28 36  1  0
 36 37  1  0
 37 38  1  0
  8  2  1  0
 12 38  1  6
 12  7  1  0
 24 13  2  0
 38 26  1  0
 23 18  1  0
  1 39  1  0
  1 40  1  0
  1 41  1  0
  5 42  1  0
  6 43  1  0
  9 44  1  0
 16 45  1  0
 19 46  1  0
 20 47  1  0
 21 48  1  0
 22 49  1  0
 23 50  1  0
 25 51  1  0
 26 52  1  6
 27 53  1  0
 27 54  1  0
 33 55  1  0
 33 56  1  0
 33 57  1  0
 34 58  1  0
 34 59  1  0
 34 60  1  0
 35 61  1  0
 35 62  1  0
 35 63  1  0
 36 64  1  0
 36 65  1  0
 37 66  1  0
 37 67  1  0
M  END
$$$$
