
     RDKit          3D

 53 55  0  0  0  0  0  0  0  0999 V2000
   -7.9305    0.4951    2.1397 C   0  0  0  0  0  0  0  0  0  0  0  0
   -6.5602    0.1786    2.3462 O   0  0  0  0  0  0  0  0  0  0  0  0
   -5.8174   -0.1369    1.2400 C   0  0  0  0  0  0  0  0  0  0  0  0
   -4.4819   -0.4512    1.5130 C   0  0  0  0  0  0  0  0  0  0  0  0
   -3.5888   -0.7789    0.4857 C   0  0  0  0  0  0  0  0  0  0  0  0
   -2.2584   -1.0669    0.8607 N   0  0  0  0  0  0  0  0  0  0  0  0
   -1.2040   -1.4265    0.0360 C   0  0  0  0  0  0  0  0  0  0  0  0
   -1.2371   -1.5519   -1.1832 O   0  0  0  0  0  0  0  0  0  0  0  0
    0.0780   -1.6281    0.8263 C   0  0  0  0  0  0  0  0  0  0  0  0
    1.1893   -2.2614   -0.0049 C   0  0  0  0  0  0  0  0  0  0  0  0
    1.6641   -1.3146   -1.0242 N   0  0  0  0  0  0  0  0  0  0  0  0
    3.1628   -1.5930   -1.7296 S   0  0  0  0  0  6  0  0  0  0  0  0
    3.4901   -2.9943   -1.5877 O   0  0  0  0  0  0  0  0  0  0  0  0
    3.1468   -0.9364   -3.0179 O   0  0  0  0  0  0  0  0  0  0  0  0
    4.2334   -0.6515   -0.6674 C   0  0  0  0  0  0  0  0  0  0  0  0
    4.9698   -1.3002    0.3290 C   0  0  0  0  0  0  0  0  0  0  0  0
    5.8482   -0.5638    1.1261 C   0  0  0  0  0  0  0  0  0  0  0  0
    5.9802    0.8127    0.9249 C   0  0  0  0  0  0  0  0  0  0  0  0
    5.2545    1.4645   -0.0800 C   0  0  0  0  0  0  0  0  0  0  0  0
    4.3824    0.7242   -0.8874 C   0  0  0  0  0  0  0  0  0  0  0  0
    5.5247    2.9186   -0.3555 C   0  0  0  0  0  0  0  0  0  0  0  0
    5.9311    3.6586    0.9091 C   0  0  0  0  0  0  0  0  0  0  0  0
    6.9825    2.9097    1.6936 C   0  0  0  0  0  0  0  0  0  0  0  0
    7.8374    3.4850    2.3643 O   0  0  0  0  0  0  0  0  0  0  0  0
    6.8758    1.5423    1.7114 N   0  0  0  0  0  0  0  0  0  0  0  0
   -4.0587   -0.7969   -0.8267 C   0  0  0  0  0  0  0  0  0  0  0  0
   -5.3953   -0.4884   -1.1145 C   0  0  0  0  0  0  0  0  0  0  0  0
   -5.7124   -0.5408   -2.4466 O   0  0  0  0  0  0  0  0  0  0  0  0
   -7.0606   -0.2734   -2.8068 C   0  0  0  0  0  0  0  0  0  0  0  0
   -6.2739   -0.1577   -0.0786 C   0  0  0  0  0  0  0  0  0  0  0  0
   -8.3800    0.6982    3.1176 H   0  0  0  0  0  0  0  0  0  0  0  0
   -8.0366    1.3989    1.5292 H   0  0  0  0  0  0  0  0  0  0  0  0
   -8.4684   -0.3493    1.6959 H   0  0  0  0  0  0  0  0  0  0  0  0
   -4.1507   -0.4255    2.5481 H   0  0  0  0  0  0  0  0  0  0  0  0
   -2.0607   -1.0021    1.8516 H   0  0  0  0  0  0  0  0  0  0  0  0
    0.3971   -0.6512    1.2117 H   0  0  0  0  0  0  0  0  0  0  0  0
   -0.1421   -2.2792    1.6825 H   0  0  0  0  0  0  0  0  0  0  0  0
    2.0123   -2.5252    0.6671 H   0  0  0  0  0  0  0  0  0  0  0  0
    0.8311   -3.1714   -0.4957 H   0  0  0  0  0  0  0  0  0  0  0  0
    0.9630   -1.0465   -1.7264 H   0  0  0  0  0  0  0  0  0  0  0  0
    4.8754   -2.3740    0.4798 H   0  0  0  0  0  0  0  0  0  0  0  0
    6.4243   -1.0723    1.8949 H   0  0  0  0  0  0  0  0  0  0  0  0
    3.8370    1.2097   -1.6951 H   0  0  0  0  0  0  0  0  0  0  0  0
    6.3295    2.9800   -1.0994 H   0  0  0  0  0  0  0  0  0  0  0  0
    4.6383    3.3992   -0.7838 H   0  0  0  0  0  0  0  0  0  0  0  0
    6.3208    4.6481    0.6460 H   0  0  0  0  0  0  0  0  0  0  0  0
    5.0666    3.7985    1.5701 H   0  0  0  0  0  0  0  0  0  0  0  0
    7.5108    1.0633    2.3371 H   0  0  0  0  0  0  0  0  0  0  0  0
   -3.4070   -1.0450   -1.6604 H   0  0  0  0  0  0  0  0  0  0  0  0
   -7.7433   -0.9917   -2.3439 H   0  0  0  0  0  0  0  0  0  0  0  0
   -7.3413    0.7534   -2.5518 H   0  0  0  0  0  0  0  0  0  0  0  0
   -7.1467   -0.3835   -3.8912 H   0  0  0  0  0  0  0  0  0  0  0  0
   -7.3015    0.0914   -0.2995 H   0  0  0  0  0  0  0  0  0  0  0  0
  1  2  1  0
  2  3  1  0
  3  4  2  0
  4  5  1  0
  5  6  1  0
  6  7  1  0
  7  8  2  0
  7  9  1  0
  9 10  1  0
 10 11  1  0
 11 12  1  0
 12 13  2  0
 12 14  2  0
 12 15  1  0
 15 16  2  0
 16 17  1  0
 17 18  2  0
 18 19  1  0
 19 20  2  0
 19 21  1  0
 21 22  1  0
 22 23  1  0
 23 24  2  0
 23 25  1  0
  5 26  2  0
 26 27  1  0
 27 28  1  0
 28 29  1  0
 27 30  2  0
 30  3  1  0
 20 15  1  0
 25 18  1  0
  1 31  1  0
  1 32  1  0
  1 33  1  0
  4 34  1  0
  6 35  1  0
  9 36  1  0
  9 37  1  0
 10 38  1  0
 10 39  1  0
 11 40  1  0
 16 41  1  0
 17 42  1  0
 20 43  1  0
 21 44  1  0
 21 45  1  0
 22 46  1  0
 22 47  1  0
 25 48  1  0
 26 49  1  0
 29 50  1  0
 29 51  1  0
 29 52  1  0
 30 53  1  0
M  END
$$$$
