
     RDKit          3D

 58 62  0  0  0  0  0  0  0  0999 V2000
    0.2434   -0.5596    1.6844 O   0  0  0  0  0  0  0  0  0  0  0  0
    0.0222   -0.7934    0.5015 C   0  0  0  0  0  0  0  0  0  0  0  0
   -1.3808   -0.9666   -0.0761 C   0  0  0  0  0  0  0  0  0  0  0  0
   -2.6727   -0.3748    1.0513 S   0  0  0  0  0  0  0  0  0  0  0  0
   -4.0308   -0.2431   -0.0629 C   0  0  0  0  0  0  0  0  0  0  0  0
   -3.9800   -0.9743   -1.1317 N   0  0  0  0  0  0  0  0  0  0  0  0
   -4.9696   -0.8066   -2.1024 C   0  0  0  0  0  0  0  0  0  0  0  0
   -4.9369   -1.6155   -3.2409 C   0  0  0  0  0  0  0  0  0  0  0  0
   -5.8793   -1.4479   -4.2588 C   0  0  0  0  0  0  0  0  0  0  0  0
   -6.8638   -0.4645   -4.1457 C   0  0  0  0  0  0  0  0  0  0  0  0
   -6.9075    0.3449   -3.0129 C   0  0  0  0  0  0  0  0  0  0  0  0
   -5.9584    0.1686   -1.9972 C   0  0  0  0  0  0  0  0  0  0  0  0
   -5.9889    0.9966   -0.7760 C   0  0  0  0  0  0  0  0  0  0  0  0
   -6.8537    1.8724   -0.6882 O   0  0  0  0  0  0  0  0  0  0  0  0
   -5.0315    0.6979    0.1995 N   0  0  0  0  0  0  0  0  0  0  0  0
   -5.1623    1.3609    1.4623 C   0  0  0  0  0  0  0  0  0  0  0  0
   -5.2142    2.7655    1.5349 C   0  0  0  0  0  0  0  0  0  0  0  0
   -5.3548    3.4035    2.7721 C   0  0  0  0  0  0  0  0  0  0  0  0
   -5.4595    2.6407    3.9321 C   0  0  0  0  0  0  0  0  0  0  0  0
   -5.6023    3.2589    5.1135 F   0  0  0  0  0  0  0  0  0  0  0  0
   -5.4384    1.2503    3.8826 C   0  0  0  0  0  0  0  0  0  0  0  0
   -5.2994    0.6206    2.6490 C   0  0  0  0  0  0  0  0  0  0  0  0
   -5.3589   -0.7227    2.6053 F   0  0  0  0  0  0  0  0  0  0  0  0
    0.9928   -0.9563   -0.4845 N   0  0  0  0  0  0  0  0  0  0  0  0
    2.3856   -0.7756   -0.3585 C   0  0  0  0  0  0  0  0  0  0  0  0
    3.1736   -1.0651   -1.4749 C   0  0  0  0  0  0  0  0  0  0  0  0
    4.5647   -0.8835   -1.4438 C   0  0  0  0  0  0  0  0  0  0  0  0
    5.2144   -0.4138   -0.2991 C   0  0  0  0  0  0  0  0  0  0  0  0
    6.5974   -0.1907   -0.2234 N   0  0  0  0  0  0  0  0  0  0  0  0
    7.2772   -0.9991    0.8217 C   0  0  0  0  0  0  0  0  0  0  0  0
    8.7250   -0.5140    1.0054 C   0  0  0  0  0  0  0  0  0  0  0  0
    9.4521   -0.5409   -0.2328 O   0  0  0  0  0  0  0  0  0  0  0  0
    8.8075    0.3104   -1.1972 C   0  0  0  0  0  0  0  0  0  0  0  0
    7.3715   -0.1577   -1.4809 C   0  0  0  0  0  0  0  0  0  0  0  0
    4.4040   -0.1225    0.8099 C   0  0  0  0  0  0  0  0  0  0  0  0
    3.0127   -0.3018    0.7878 C   0  0  0  0  0  0  0  0  0  0  0  0
   -1.5370   -2.0315   -0.2876 H   0  0  0  0  0  0  0  0  0  0  0  0
   -1.4302   -0.3963   -1.0117 H   0  0  0  0  0  0  0  0  0  0  0  0
   -4.1671   -2.3801   -3.3360 H   0  0  0  0  0  0  0  0  0  0  0  0
   -5.8401   -2.0808   -5.1415 H   0  0  0  0  0  0  0  0  0  0  0  0
   -7.5967   -0.3303   -4.9381 H   0  0  0  0  0  0  0  0  0  0  0  0
   -7.6789    1.1088   -2.9208 H   0  0  0  0  0  0  0  0  0  0  0  0
   -5.1380    3.3723    0.6349 H   0  0  0  0  0  0  0  0  0  0  0  0
   -5.3891    4.4896    2.8365 H   0  0  0  0  0  0  0  0  0  0  0  0
   -5.5446    0.6642    4.7884 H   0  0  0  0  0  0  0  0  0  0  0  0
    0.6730   -1.2459   -1.4012 H   0  0  0  0  0  0  0  0  0  0  0  0
    2.7249   -1.4350   -2.3901 H   0  0  0  0  0  0  0  0  0  0  0  0
    5.1221   -1.1282   -2.3387 H   0  0  0  0  0  0  0  0  0  0  0  0
    7.2857   -2.0519    0.5059 H   0  0  0  0  0  0  0  0  0  0  0  0
    6.7686   -0.9402    1.7909 H   0  0  0  0  0  0  0  0  0  0  0  0
    8.7529    0.5032    1.4104 H   0  0  0  0  0  0  0  0  0  0  0  0
    9.2488   -1.1692    1.7102 H   0  0  0  0  0  0  0  0  0  0  0  0
    8.8240    1.3449   -0.8296 H   0  0  0  0  0  0  0  0  0  0  0  0
    9.3966    0.2741   -2.1189 H   0  0  0  0  0  0  0  0  0  0  0  0
    7.4089   -1.1619   -1.9197 H   0  0  0  0  0  0  0  0  0  0  0  0
    6.9134    0.5322   -2.2006 H   0  0  0  0  0  0  0  0  0  0  0  0
    4.8492    0.2919    1.7117 H   0  0  0  0  0  0  0  0  0  0  0  0
    2.4533   -0.0311    1.6813 H   0  0  0  0  0  0  0  0  0  0  0  0
  1  2  2  0
  2  3  1  0
  3  4  1  0
  4  5  1  0
  5  6  2  0
  6  7  1  0
  7  8  2  0
  8  9  1  0
  9 10  2  0
 10 11  1  0
 11 12  2  0
 12 13  1  0
 13 14  2  0
 13 15  1  0
 15 16  1  0
 16 17  2  0
 17 18  1  0
 18 19  2  0
 19 20  1  0
 19 21  1  0
 21 22  2  0
 22 23  1  0
  2 24  1  0
 24 25  1  0
 25 26  2  0
 26 27  1  0
 27 28  2  0
 28 29  1  0
 29 30  1  0
 30 31  1  0
 31 32  1  0
 32 33  1  0
 33 34  1  0
 28 35  1  0
 35 36  2  0
 15  5  1  0
 22 16  1  0
 36 25  1  0
 12  7  1  0
 34 29  1  0
  3 37  1  0
  3 38  1  0
  8 39  1  0
  9 40  1  0
 10 41  1  0
 11 42  1  0
 17 43  1  0
 18 44  1  0
 21 45  1  0
 24 46  1  0
 26 47  1  0
 27 48  1  0
 30 49  1  0
 30 50  1  0
 31 51  1  0
 31 52  1  0
 33 53  1  0
 33 54  1  0
 34 55  1  0
 34 56  1  0
 35 57  1  0
 36 58  1  0
M  END
$$$$
