
     RDKit          3D

 32 33  0  0  0  0  0  0  0  0999 V2000
   -4.1916    1.7669    0.7175 C   0  0  0  0  0  0  0  0  0  0  0  0
   -3.1194    0.6890    0.7632 C   0  0  0  0  0  0  0  0  0  0  0  0
   -3.3922   -0.4126   -0.2617 C   0  0  0  0  0  0  0  0  0  0  0  0
   -2.3707   -1.5546   -0.2051 C   0  0  0  0  0  0  0  0  0  0  0  0
   -1.0276   -1.1356   -0.6074 N   0  0  0  0  0  0  0  0  0  0  0  0
   -0.7230   -0.9478   -1.9196 C   0  0  0  0  0  0  0  0  0  0  0  0
   -1.4293   -1.0757   -2.8987 O   0  0  0  0  0  0  0  0  0  0  0  0
    0.7443   -0.5381   -1.9561 C   0  0  0  0  0  0  0  0  0  0  0  0
    1.3186   -0.2687   -2.9934 O   0  0  0  0  0  0  0  0  0  0  0  0
    1.1581   -0.5231   -0.6470 N   0  0  0  0  0  0  0  0  0  0  0  0
    2.4809   -0.1304   -0.2766 C   0  0  0  0  0  0  0  0  0  0  0  0
    2.7511    0.5538    0.9174 C   0  0  0  0  0  0  0  0  0  0  0  0
    4.0538    0.9390    1.2570 C   0  0  0  0  0  0  0  0  0  0  0  0
    5.1128    0.6569    0.4018 C   0  0  0  0  0  0  0  0  0  0  0  0
    4.8679   -0.0012   -0.7973 C   0  0  0  0  0  0  0  0  0  0  0  0
    3.5651   -0.3846   -1.1344 C   0  0  0  0  0  0  0  0  0  0  0  0
    0.1007   -0.9337    0.1769 C   0  0  0  0  0  0  0  0  0  0  0  0
    0.1394   -1.2492    1.8259 S   0  0  0  0  0  0  0  0  0  0  0  0
   -3.9780    2.5452    1.4568 H   0  0  0  0  0  0  0  0  0  0  0  0
   -4.2322    2.2378   -0.2698 H   0  0  0  0  0  0  0  0  0  0  0  0
   -5.1784    1.3487    0.9402 H   0  0  0  0  0  0  0  0  0  0  0  0
   -3.0863    0.2604    1.7713 H   0  0  0  0  0  0  0  0  0  0  0  0
   -2.1460    1.1533    0.5709 H   0  0  0  0  0  0  0  0  0  0  0  0
   -3.4135    0.0230   -1.2678 H   0  0  0  0  0  0  0  0  0  0  0  0
   -4.3883   -0.8341   -0.0781 H   0  0  0  0  0  0  0  0  0  0  0  0
   -2.6912   -2.3374   -0.9036 H   0  0  0  0  0  0  0  0  0  0  0  0
   -2.3607   -2.0002    0.7930 H   0  0  0  0  0  0  0  0  0  0  0  0
    1.9587    0.8547    1.5956 H   0  0  0  0  0  0  0  0  0  0  0  0
    4.2350    1.4714    2.1878 H   0  0  0  0  0  0  0  0  0  0  0  0
    6.1238    0.9576    0.6644 H   0  0  0  0  0  0  0  0  0  0  0  0
    5.6885   -0.2197   -1.4764 H   0  0  0  0  0  0  0  0  0  0  0  0
    3.4296   -0.9110   -2.0770 H   0  0  0  0  0  0  0  0  0  0  0  0
  1  2  1  0
  2  3  1  0
  3  4  1  0
  4  5  1  0
  5  6  1  0
  6  7  2  0
  6  8  1  0
  8  9  2  0
  8 10  1  0
 10 11  1  0
 11 12  2  0
 12 13  1  0
 13 14  2  0
 14 15  1  0
 15 16  2  0
 10 17  1  0
 17 18  2  0
 17  5  1  0
 16 11  1  0
  1 19  1  0
  1 20  1  0
  1 21  1  0
  2 22  1  0
  2 23  1  0
  3 24  1  0
  3 25  1  0
  4 26  1  0
  4 27  1  0
 12 28  1  0
 13 29  1  0
 14 30  1  0
 15 31  1  0
 16 32  1  0
M  END
$$$$
