
     RDKit          3D

 43 44  0  0  0  0  0  0  0  0999 V2000
   -2.8200    2.2251    1.8027 C   0  0  0  0  0  0  0  0  0  0  0  0
   -2.7908    0.7106    1.7304 C   0  0  0  0  0  0  0  0  0  0  0  0
   -3.2981    0.2639    0.4059 N   0  0  0  0  0  4  0  0  0  0  0  0
   -4.6347    0.0673    0.2732 C   0  0  0  0  0  0  0  0  0  0  0  0
   -5.1922   -0.3898   -0.9189 C   0  0  0  0  0  0  0  0  0  0  0  0
   -6.6765   -0.5662   -1.0516 C   0  0  0  0  0  0  0  0  0  0  0  0
   -4.3514   -0.6239   -2.0004 C   0  0  0  0  0  0  0  0  0  0  0  0
   -2.9849   -0.4208   -1.8597 C   0  0  0  0  0  0  0  0  0  0  0  0
   -2.4592    0.0232   -0.6400 C   0  0  0  0  0  0  0  0  0  0  0  0
   -1.0185    0.2603   -0.5162 C   0  0  0  0  0  0  0  0  0  0  0  0
   -0.1189   -0.7309   -0.6208 C   0  0  0  0  0  0  0  0  0  0  0  0
    1.3329   -0.5244   -0.5284 C   0  0  0  0  0  0  0  0  0  0  0  0
    2.1782   -1.3040   -1.3164 C   0  0  0  0  0  0  0  0  0  0  0  0
    3.5720   -1.1506   -1.2444 C   0  0  0  0  0  0  0  0  0  0  0  0
    4.1853   -0.2348   -0.3737 C   0  0  0  0  0  0  0  0  0  0  0  0
    5.5711   -0.0675   -0.3220 N   0  0  0  0  0  0  0  0  0  0  0  0
    6.1681    0.6380    0.8115 C   0  0  0  0  0  0  0  0  0  0  0  0
    6.4406   -1.0356   -0.9902 C   0  0  0  0  0  0  0  0  0  0  0  0
    3.3105    0.5327    0.4136 C   0  0  0  0  0  0  0  0  0  0  0  0
    1.9146    0.3897    0.3493 C   0  0  0  0  0  0  0  0  0  0  0  0
   -2.1971    2.6755    1.0243 H   0  0  0  0  0  0  0  0  0  0  0  0
   -2.4513    2.5653    2.7751 H   0  0  0  0  0  0  0  0  0  0  0  0
   -3.8381    2.6058    1.6723 H   0  0  0  0  0  0  0  0  0  0  0  0
   -3.4348    0.2709    2.5007 H   0  0  0  0  0  0  0  0  0  0  0  0
   -1.7860    0.3116    1.8932 H   0  0  0  0  0  0  0  0  0  0  0  0
   -5.2543    0.2830    1.1405 H   0  0  0  0  0  0  0  0  0  0  0  0
   -7.1245   -0.8395   -0.0904 H   0  0  0  0  0  0  0  0  0  0  0  0
   -7.1338    0.3637   -1.4034 H   0  0  0  0  0  0  0  0  0  0  0  0
   -6.9124   -1.3676   -1.7596 H   0  0  0  0  0  0  0  0  0  0  0  0
   -4.7514   -0.9616   -2.9565 H   0  0  0  0  0  0  0  0  0  0  0  0
   -2.3291   -0.5996   -2.7111 H   0  0  0  0  0  0  0  0  0  0  0  0
   -0.7118    1.2906   -0.3586 H   0  0  0  0  0  0  0  0  0  0  0  0
   -0.4273   -1.7585   -0.8105 H   0  0  0  0  0  0  0  0  0  0  0  0
    1.7762   -2.0366   -2.0130 H   0  0  0  0  0  0  0  0  0  0  0  0
    4.1669   -1.7790   -1.9012 H   0  0  0  0  0  0  0  0  0  0  0  0
    5.8354    1.6808    0.8478 H   0  0  0  0  0  0  0  0  0  0  0  0
    5.9234    0.1404    1.7565 H   0  0  0  0  0  0  0  0  0  0  0  0
    7.2604    0.6736    0.7311 H   0  0  0  0  0  0  0  0  0  0  0  0
    7.4964   -0.7606   -0.8876 H   0  0  0  0  0  0  0  0  0  0  0  0
    6.3158   -2.0361   -0.5616 H   0  0  0  0  0  0  0  0  0  0  0  0
    6.2431   -1.0684   -2.0671 H   0  0  0  0  0  0  0  0  0  0  0  0
    3.6964    1.2756    1.1056 H   0  0  0  0  0  0  0  0  0  0  0  0
    1.3096    1.0082    1.0052 H   0  0  0  0  0  0  0  0  0  0  0  0
  1  2  1  0
  2  3  1  0
  3  4  2  0
  4  5  1  0
  5  6  1  0
  5  7  2  0
  7  8  1  0
  8  9  2  0
  9 10  1  0
 10 11  2  3
 11 12  1  0
 12 13  2  0
 13 14  1  0
 14 15  2  0
 15 16  1  0
 16 17  1  0
 16 18  1  0
 15 19  1  0
 19 20  2  0
  9  3  1  0
 20 12  1  0
  1 21  1  0
  1 22  1  0
  1 23  1  0
  2 24  1  0
  2 25  1  0
  4 26  1  0
  6 27  1  0
  6 28  1  0
  6 29  1  0
  7 30  1  0
  8 31  1  0
 10 32  1  0
 11 33  1  0
 13 34  1  0
 14 35  1  0
 17 36  1  0
 17 37  1  0
 17 38  1  0
 18 39  1  0
 18 40  1  0
 18 41  1  0
 19 42  1  0
 20 43  1  0
M  CHG  1   3   1
M  END
$$$$
