
     RDKit          3D

 46 49  0  0  0  0  0  0  0  0999 V2000
    4.0488   -0.9267    1.3254 O   0  0  0  0  0  0  0  0  0  0  0  0
    3.4196    0.1168    1.1770 C   0  0  0  0  0  0  0  0  0  0  0  0
    1.9779    0.2356    1.6411 C   0  0  0  0  0  0  0  0  0  0  0  0
    0.8762   -0.1279    0.2416 S   0  0  0  0  0  0  0  0  0  0  0  0
   -0.6551    0.1641    0.9858 C   0  0  0  0  0  0  0  0  0  0  0  0
   -0.8418    0.8250    2.1017 N   0  0  0  0  0  0  0  0  0  0  0  0
   -2.1864    0.8286    2.3627 N   0  0  0  0  0  0  0  0  0  0  0  0
   -2.8016    0.1708    1.3967 C   0  0  0  0  0  0  0  0  0  0  0  0
   -4.2726   -0.0927    1.3391 C   0  0  0  0  0  0  0  0  0  0  0  0
   -4.9863    0.5983    0.2099 C   0  0  0  0  0  0  0  0  0  0  0  0
   -5.7130    0.0211   -0.8152 C   0  0  0  0  0  0  0  0  0  0  0  0
   -6.2630    0.9885   -1.7043 C   0  0  0  0  0  0  0  0  0  0  0  0
   -5.9523    2.2737   -1.3224 C   0  0  0  0  0  0  0  0  0  0  0  0
   -5.0075    2.3102    0.1011 S   0  0  0  0  0  0  0  0  0  0  0  0
   -1.8563   -0.2673    0.4904 N   0  0  0  0  0  0  0  0  0  0  0  0
   -2.0897   -1.0158   -0.7285 C   0  0  0  0  0  0  0  0  0  0  0  0
   -2.2823   -2.4565   -0.4347 C   0  0  0  0  0  0  0  0  0  0  0  0
   -1.4315   -3.4732   -0.0505 C   0  0  0  0  0  0  0  0  0  0  0  0
   -2.2287   -4.6369    0.0681 C   0  0  0  0  0  0  0  0  0  0  0  0
   -3.5102   -4.2598   -0.2558 C   0  0  0  0  0  0  0  0  0  0  0  0
   -3.5528   -2.9385   -0.5647 O   0  0  0  0  0  0  0  0  0  0  0  0
    3.8916    1.2807    0.5850 N   0  0  0  0  0  0  0  0  0  0  0  0
    5.1784    1.5162    0.0559 C   0  0  0  0  0  0  0  0  0  0  0  0
    6.2219    0.5884    0.0919 C   0  0  0  0  0  0  0  0  0  0  0  0
    7.4665    0.9096   -0.4577 C   0  0  0  0  0  0  0  0  0  0  0  0
    8.7448   -0.2435   -0.4074 Cl  0  0  0  0  0  0  0  0  0  0  0  0
    7.6896    2.1502   -1.0460 C   0  0  0  0  0  0  0  0  0  0  0  0
    6.6523    3.0742   -1.0803 C   0  0  0  0  0  0  0  0  0  0  0  0
    6.9066    4.6155   -1.8031 Cl  0  0  0  0  0  0  0  0  0  0  0  0
    5.4043    2.7661   -0.5348 C   0  0  0  0  0  0  0  0  0  0  0  0
    1.8100   -0.4773    2.4551 H   0  0  0  0  0  0  0  0  0  0  0  0
    1.8003    1.2445    2.0285 H   0  0  0  0  0  0  0  0  0  0  0  0
   -4.4437   -1.1739    1.2834 H   0  0  0  0  0  0  0  0  0  0  0  0
   -4.7271    0.2280    2.2860 H   0  0  0  0  0  0  0  0  0  0  0  0
   -5.8421   -1.0500   -0.9256 H   0  0  0  0  0  0  0  0  0  0  0  0
   -6.8623    0.7544   -2.5757 H   0  0  0  0  0  0  0  0  0  0  0  0
   -6.2408    3.1972   -1.8056 H   0  0  0  0  0  0  0  0  0  0  0  0
   -1.2462   -0.8757   -1.4105 H   0  0  0  0  0  0  0  0  0  0  0  0
   -2.9574   -0.5866   -1.2340 H   0  0  0  0  0  0  0  0  0  0  0  0
   -0.3673   -3.3876    0.1264 H   0  0  0  0  0  0  0  0  0  0  0  0
   -1.9087   -5.6296    0.3534 H   0  0  0  0  0  0  0  0  0  0  0  0
   -4.4535   -4.7857   -0.3119 H   0  0  0  0  0  0  0  0  0  0  0  0
    3.2219    2.0362    0.4865 H   0  0  0  0  0  0  0  0  0  0  0  0
    6.0970   -0.3913    0.5422 H   0  0  0  0  0  0  0  0  0  0  0  0
    8.6595    2.3921   -1.4707 H   0  0  0  0  0  0  0  0  0  0  0  0
    4.6129    3.5104   -0.5770 H   0  0  0  0  0  0  0  0  0  0  0  0
  1  2  2  0
  2  3  1  0
  3  4  1  0
  4  5  1  0
  5  6  2  0
  6  7  1  0
  7  8  2  0
  8  9  1  0
  9 10  1  0
 10 11  2  0
 11 12  1  0
 12 13  2  0
 13 14  1  0
  8 15  1  0
 15 16  1  0
 16 17  1  0
 17 18  2  0
 18 19  1  0
 19 20  2  0
 20 21  1  0
  2 22  1  0
 22 23  1  0
 23 24  2  0
 24 25  1  0
 25 26  1  0
 25 27  2  0
 27 28  1  0
 28 29  1  0
 28 30  2  0
 15  5  1  0
 21 17  1  0
 30 23  1  0
 14 10  1  0
  3 31  1  0
  3 32  1  0
  9 33  1  0
  9 34  1  0
 11 35  1  0
 12 36  1  0
 13 37  1  0
 16 38  1  0
 16 39  1  0
 18 40  1  0
 19 41  1  0
 20 42  1  0
 22 43  1  0
 24 44  1  0
 27 45  1  0
 30 46  1  0
M  END
$$$$
