
     RDKit          3D

 48 50  0  0  0  0  0  0  0  0999 V2000
    7.9010    1.9237    2.8859 C   0  0  0  0  0  0  0  0  0  0  0  0
    7.0812    0.9628    2.1058 C   0  0  0  0  0  0  0  0  0  0  0  0
    7.3623   -0.3734    1.8966 C   0  0  0  0  0  0  0  0  0  0  0  0
    6.1358   -1.0822    0.9341 S   0  0  0  0  0  0  0  0  0  0  0  0
    5.3312    0.4148    0.8720 C   0  0  0  0  0  0  0  0  0  0  0  0
    4.1535    0.6141    0.1997 N   0  0  0  0  0  0  0  0  0  0  0  0
    3.4346   -0.3150   -0.5195 C   0  0  0  0  0  0  0  0  0  0  0  0
    3.6999   -1.5018   -0.6721 O   0  0  0  0  0  0  0  0  0  0  0  0
    2.1856    0.3038   -1.1254 C   0  0  0  0  0  0  0  0  0  0  0  0
    1.4639   -0.6450   -2.0763 C   0  0  0  0  0  0  0  0  0  0  0  0
    0.8417   -1.7420   -1.3200 N   0  0  0  0  0  0  0  0  0  0  0  0
   -0.3897   -2.6169   -2.0572 S   0  0  0  0  0  6  0  0  0  0  0  0
   -0.5264   -3.8588   -1.3333 O   0  0  0  0  0  0  0  0  0  0  0  0
   -0.1783   -2.5734   -3.4869 O   0  0  0  0  0  0  0  0  0  0  0  0
   -1.8165   -1.6357   -1.6703 C   0  0  0  0  0  0  0  0  0  0  0  0
   -2.6385   -1.1621   -2.6910 C   0  0  0  0  0  0  0  0  0  0  0  0
   -3.7594   -0.3870   -2.3724 C   0  0  0  0  0  0  0  0  0  0  0  0
   -4.0683   -0.0749   -1.0365 C   0  0  0  0  0  0  0  0  0  0  0  0
   -3.2281   -0.5599   -0.0336 C   0  0  0  0  0  0  0  0  0  0  0  0
   -2.1055   -1.3439   -0.3385 C   0  0  0  0  0  0  0  0  0  0  0  0
   -3.5205   -0.2326    1.3693 C   0  0  0  0  0  0  0  0  0  0  0  0
   -2.7173   -0.5625    2.2391 O   0  0  0  0  0  0  0  0  0  0  0  0
   -4.6952    0.4601    1.6167 N   0  0  0  0  0  0  0  0  0  0  0  0
   -5.0091    0.7731    2.9990 C   0  0  0  0  0  0  0  0  0  0  0  0
   -5.5131    1.0119    0.6385 C   0  0  0  0  0  0  0  0  0  0  0  0
   -6.4693    1.7332    0.9322 O   0  0  0  0  0  0  0  0  0  0  0  0
   -5.1918    0.7200   -0.6851 N   0  0  0  0  0  0  0  0  0  0  0  0
   -6.0489    1.2595   -1.7340 C   0  0  0  0  0  0  0  0  0  0  0  0
    5.9083    1.4045    1.5127 N   0  0  0  0  0  0  0  0  0  0  0  0
    7.9153    1.6418    3.9428 H   0  0  0  0  0  0  0  0  0  0  0  0
    7.4964    2.9371    2.8084 H   0  0  0  0  0  0  0  0  0  0  0  0
    8.9308    1.9398    2.5143 H   0  0  0  0  0  0  0  0  0  0  0  0
    8.2047   -0.9503    2.2506 H   0  0  0  0  0  0  0  0  0  0  0  0
    3.8210    1.5656    0.2774 H   0  0  0  0  0  0  0  0  0  0  0  0
    1.5201    0.6088   -0.3084 H   0  0  0  0  0  0  0  0  0  0  0  0
    2.4849    1.2007   -1.6814 H   0  0  0  0  0  0  0  0  0  0  0  0
    2.1608   -1.0611   -2.8117 H   0  0  0  0  0  0  0  0  0  0  0  0
    0.6911   -0.0779   -2.6070 H   0  0  0  0  0  0  0  0  0  0  0  0
    1.4956   -2.3595   -0.8239 H   0  0  0  0  0  0  0  0  0  0  0  0
   -2.4207   -1.3924   -3.7327 H   0  0  0  0  0  0  0  0  0  0  0  0
   -4.3768   -0.0412   -3.1969 H   0  0  0  0  0  0  0  0  0  0  0  0
   -1.4645   -1.7219    0.4563 H   0  0  0  0  0  0  0  0  0  0  0  0
   -4.6171    1.7705    3.2231 H   0  0  0  0  0  0  0  0  0  0  0  0
   -4.5579    0.0509    3.6857 H   0  0  0  0  0  0  0  0  0  0  0  0
   -6.0917    0.7759    3.1578 H   0  0  0  0  0  0  0  0  0  0  0  0
   -5.4562    1.9039   -2.3911 H   0  0  0  0  0  0  0  0  0  0  0  0
   -6.8696    1.8602   -1.3322 H   0  0  0  0  0  0  0  0  0  0  0  0
   -6.4893    0.4347   -2.3034 H   0  0  0  0  0  0  0  0  0  0  0  0
  1  2  1  0
  2  3  2  0
  3  4  1  0
  4  5  1  0
  5  6  1  0
  6  7  1  0
  7  8  2  0
  7  9  1  0
  9 10  1  0
 10 11  1  0
 11 12  1  0
 12 13  2  0
 12 14  2  0
 12 15  1  0
 15 16  2  0
 16 17  1  0
 17 18  2  0
 18 19  1  0
 19 20  2  0
 19 21  1  0
 21 22  2  0
 21 23  1  0
 23 24  1  0
 23 25  1  0
 25 26  2  0
 25 27  1  0
 27 28  1  0
  5 29  2  0
 29  2  1  0
 20 15  1  0
 27 18  1  0
  1 30  1  0
  1 31  1  0
  1 32  1  0
  3 33  1  0
  6 34  1  0
  9 35  1  0
  9 36  1  0
 10 37  1  0
 10 38  1  0
 11 39  1  0
 16 40  1  0
 17 41  1  0
 20 42  1  0
 24 43  1  0
 24 44  1  0
 24 45  1  0
 28 46  1  0
 28 47  1  0
 28 48  1  0
M  END
$$$$
