
     RDKit          3D

 49 52  0  0  0  0  0  0  0  0999 V2000
   -4.9545    3.7186    1.7458 C   0  0  0  0  0  0  0  0  0  0  0  0
   -3.8926    2.6611    1.6850 C   0  0  0  0  0  0  0  0  0  0  0  0
   -3.3575    2.1324    2.8646 C   0  0  0  0  0  0  0  0  0  0  0  0
   -2.3838    1.1306    2.8174 C   0  0  0  0  0  0  0  0  0  0  0  0
   -1.9410    0.6333    1.5841 C   0  0  0  0  0  0  0  0  0  0  0  0
   -0.9520   -0.3870    1.5506 N   0  0  0  0  0  0  0  0  0  0  0  0
   -0.8849   -1.5147    0.7324 C   0  0  0  0  0  0  0  0  0  0  0  0
   -1.8782   -1.9414   -0.2991 C   0  0  0  0  0  0  0  0  0  0  0  0
   -1.2841   -1.9780   -1.6839 C   0  0  0  0  0  0  0  0  0  0  0  0
   -0.6239   -0.9832   -2.3834 C   0  0  0  0  0  0  0  0  0  0  0  0
   -0.2056   -1.4113   -3.6768 C   0  0  0  0  0  0  0  0  0  0  0  0
   -0.5499   -2.7208   -3.9219 C   0  0  0  0  0  0  0  0  0  0  0  0
   -1.3928   -3.4197   -2.6122 S   0  0  0  0  0  0  0  0  0  0  0  0
    0.1536   -2.2545    1.0883 N   0  0  0  0  0  0  0  0  0  0  0  0
    0.8026   -1.6312    2.1056 N   0  0  0  0  0  0  0  0  0  0  0  0
    0.1805   -0.4998    2.3426 C   0  0  0  0  0  0  0  0  0  0  0  0
    0.8753    0.7737    3.2993 S   0  0  0  0  0  0  0  0  0  0  0  0
    2.6473    0.4010    3.1038 C   0  0  0  0  0  0  0  0  0  0  0  0
    3.1070    0.6839    1.6780 C   0  0  0  0  0  0  0  0  0  0  0  0
    3.5214    1.7959    1.3609 O   0  0  0  0  0  0  0  0  0  0  0  0
    2.9878   -0.4091    0.8331 N   0  0  0  0  0  0  0  0  0  0  0  0
    3.3177   -0.4854   -0.5344 C   0  0  0  0  0  0  0  0  0  0  0  0
    3.9604    0.5379   -1.2420 C   0  0  0  0  0  0  0  0  0  0  0  0
    4.2465    0.3898   -2.6050 C   0  0  0  0  0  0  0  0  0  0  0  0
    3.8965   -0.7863   -3.2569 C   0  0  0  0  0  0  0  0  0  0  0  0
    4.1624   -0.9203   -4.5634 F   0  0  0  0  0  0  0  0  0  0  0  0
    3.2701   -1.8099   -2.5609 C   0  0  0  0  0  0  0  0  0  0  0  0
    2.9359   -2.9447   -3.1910 F   0  0  0  0  0  0  0  0  0  0  0  0
    2.9764   -1.6666   -1.2071 C   0  0  0  0  0  0  0  0  0  0  0  0
   -2.4839    1.1512    0.4040 C   0  0  0  0  0  0  0  0  0  0  0  0
   -3.4566    2.1552    0.4573 C   0  0  0  0  0  0  0  0  0  0  0  0
   -5.9315    3.2578    1.9237 H   0  0  0  0  0  0  0  0  0  0  0  0
   -4.7428    4.4322    2.5493 H   0  0  0  0  0  0  0  0  0  0  0  0
   -5.0008    4.2862    0.8110 H   0  0  0  0  0  0  0  0  0  0  0  0
   -3.6974    2.4974    3.8322 H   0  0  0  0  0  0  0  0  0  0  0  0
   -2.0155    0.7334    3.7611 H   0  0  0  0  0  0  0  0  0  0  0  0
   -2.2267   -2.9437   -0.0147 H   0  0  0  0  0  0  0  0  0  0  0  0
   -2.7797   -1.3254   -0.3076 H   0  0  0  0  0  0  0  0  0  0  0  0
   -0.4268    0.0081   -1.9907 H   0  0  0  0  0  0  0  0  0  0  0  0
    0.3391   -0.7974   -4.3832 H   0  0  0  0  0  0  0  0  0  0  0  0
   -0.3429   -3.3040   -4.8098 H   0  0  0  0  0  0  0  0  0  0  0  0
    2.8712   -0.6314    3.3908 H   0  0  0  0  0  0  0  0  0  0  0  0
    3.2171    1.0486    3.7797 H   0  0  0  0  0  0  0  0  0  0  0  0
    2.4794   -1.2150    1.2057 H   0  0  0  0  0  0  0  0  0  0  0  0
    4.2551    1.4671   -0.7622 H   0  0  0  0  0  0  0  0  0  0  0  0
    4.7399    1.1857   -3.1546 H   0  0  0  0  0  0  0  0  0  0  0  0
    2.4719   -2.4842   -0.6986 H   0  0  0  0  0  0  0  0  0  0  0  0
   -2.1454    0.8339   -0.5760 H   0  0  0  0  0  0  0  0  0  0  0  0
   -3.8644    2.5499   -0.4709 H   0  0  0  0  0  0  0  0  0  0  0  0
  1  2  1  0
  2  3  2  0
  3  4  1  0
  4  5  2  0
  5  6  1  0
  6  7  1  0
  7  8  1  0
  8  9  1  0
  9 10  2  0
 10 11  1  0
 11 12  2  0
 12 13  1  0
  7 14  2  0
 14 15  1  0
 15 16  2  0
 16 17  1  0
 17 18  1  0
 18 19  1  0
 19 20  2  0
 19 21  1  0
 21 22  1  0
 22 23  2  0
 23 24  1  0
 24 25  2  0
 25 26  1  0
 25 27  1  0
 27 28  1  0
 27 29  2  0
  5 30  1  0
 30 31  2  0
 31  2  1  0
 16  6  1  0
 29 22  1  0
 13  9  1  0
  1 32  1  0
  1 33  1  0
  1 34  1  0
  3 35  1  0
  4 36  1  0
  8 37  1  0
  8 38  1  0
 10 39  1  0
 11 40  1  0
 12 41  1  0
 18 42  1  0
 18 43  1  0
 21 44  1  0
 23 45  1  0
 24 46  1  0
 29 47  1  0
 30 48  1  0
 31 49  1  0
M  END
$$$$
