
     RDKit          3D

 63 66  0  0  0  0  0  0  0  0999 V2000
   -6.0203   -2.2261   -2.3385 C   0  0  0  0  0  0  0  0  0  0  0  0
   -4.6940   -1.5665   -2.0841 C   0  0  0  0  0  0  0  0  0  0  0  0
   -3.5571   -2.0712   -2.7302 C   0  0  0  0  0  0  0  0  0  0  0  0
   -2.3019   -1.4868   -2.5373 C   0  0  0  0  0  0  0  0  0  0  0  0
   -2.1463   -0.3860   -1.6896 C   0  0  0  0  0  0  0  0  0  0  0  0
   -0.8419    0.1339   -1.5462 N   0  0  0  0  0  0  0  0  0  0  0  0
   -0.4356    1.1651   -0.7185 C   0  0  0  0  0  0  0  0  0  0  0  0
   -1.1412    1.8272    0.0328 O   0  0  0  0  0  0  0  0  0  0  0  0
    1.0188    1.4878   -0.7758 C   0  0  0  0  0  0  0  0  0  0  0  0
    1.4101    2.8268   -0.6297 C   0  0  0  0  0  0  0  0  0  0  0  0
    2.7608    3.1809   -0.6825 C   0  0  0  0  0  0  0  0  0  0  0  0
    3.7303    2.1969   -0.8668 C   0  0  0  0  0  0  0  0  0  0  0  0
    3.3395    0.8588   -0.9802 C   0  0  0  0  0  0  0  0  0  0  0  0
    4.5921   -0.3871   -1.2080 S   0  0  0  0  0  6  0  0  0  0  0  0
    5.4622    0.1017   -2.2559 O   0  0  0  0  0  0  0  0  0  0  0  0
    3.9130   -1.6628   -1.3311 O   0  0  0  0  0  0  0  0  0  0  0  0
    5.4148   -0.3526    0.2953 N   0  0  0  0  0  0  0  0  0  0  0  0
    4.6107   -0.7698    1.4682 C   0  0  0  0  0  0  0  0  0  0  0  0
    6.7306   -0.9390    0.2555 C   0  0  0  0  0  0  0  0  0  0  0  0
    7.8035   -0.1533    0.6817 C   0  0  0  0  0  0  0  0  0  0  0  0
    9.0904   -0.6918    0.7286 C   0  0  0  0  0  0  0  0  0  0  0  0
    9.3021   -2.0213    0.3672 C   0  0  0  0  0  0  0  0  0  0  0  0
    8.2284   -2.8153   -0.0356 C   0  0  0  0  0  0  0  0  0  0  0  0
    6.9401   -2.2784   -0.0821 C   0  0  0  0  0  0  0  0  0  0  0  0
    1.9896    0.4936   -0.9383 C   0  0  0  0  0  0  0  0  0  0  0  0
   -3.2688    0.1259   -1.0411 C   0  0  0  0  0  0  0  0  0  0  0  0
   -4.5312   -0.4684   -1.2195 C   0  0  0  0  0  0  0  0  0  0  0  0
   -5.9225    0.2095   -0.3282 S   0  0  0  0  0  6  0  0  0  0  0  0
   -6.5066    1.2245   -1.1788 O   0  0  0  0  0  0  0  0  0  0  0  0
   -6.7129   -0.8864    0.1948 O   0  0  0  0  0  0  0  0  0  0  0  0
   -5.2420    0.9829    1.0287 N   0  0  0  0  0  0  0  0  0  0  0  0
   -4.6135    0.0840    2.0529 C   0  0  0  0  0  0  0  0  0  0  0  0
   -5.4769   -0.0010    3.3151 C   0  0  0  0  0  0  0  0  0  0  0  0
   -5.6564    1.2683    3.9610 O   0  0  0  0  0  0  0  0  0  0  0  0
   -5.6473    2.3752    3.0458 C   0  0  0  0  0  0  0  0  0  0  0  0
   -6.1483    2.0018    1.6477 C   0  0  0  0  0  0  0  0  0  0  0  0
   -5.9794   -2.8670   -3.2271 H   0  0  0  0  0  0  0  0  0  0  0  0
   -6.7998   -1.4811   -2.5289 H   0  0  0  0  0  0  0  0  0  0  0  0
   -6.3016   -2.8552   -1.4883 H   0  0  0  0  0  0  0  0  0  0  0  0
   -3.6398   -2.9267   -3.3985 H   0  0  0  0  0  0  0  0  0  0  0  0
   -1.4495   -1.9133   -3.0610 H   0  0  0  0  0  0  0  0  0  0  0  0
   -0.1427   -0.2856   -2.1458 H   0  0  0  0  0  0  0  0  0  0  0  0
    0.6573    3.6000   -0.4818 H   0  0  0  0  0  0  0  0  0  0  0  0
    3.0527    4.2243   -0.5815 H   0  0  0  0  0  0  0  0  0  0  0  0
    4.7827    2.4713   -0.9175 H   0  0  0  0  0  0  0  0  0  0  0  0
    4.2102   -1.7798    1.3430 H   0  0  0  0  0  0  0  0  0  0  0  0
    3.7884   -0.0687    1.6348 H   0  0  0  0  0  0  0  0  0  0  0  0
    5.2257   -0.7563    2.3758 H   0  0  0  0  0  0  0  0  0  0  0  0
    7.6428    0.8823    0.9680 H   0  0  0  0  0  0  0  0  0  0  0  0
    9.9263   -0.0749    1.0480 H   0  0  0  0  0  0  0  0  0  0  0  0
   10.3054   -2.4405    0.4018 H   0  0  0  0  0  0  0  0  0  0  0  0
    8.3938   -3.8538   -0.3112 H   0  0  0  0  0  0  0  0  0  0  0  0
    6.1124   -2.9143   -0.3831 H   0  0  0  0  0  0  0  0  0  0  0  0
    1.7102   -0.5537   -1.0047 H   0  0  0  0  0  0  0  0  0  0  0  0
   -3.1874    1.0003   -0.4041 H   0  0  0  0  0  0  0  0  0  0  0  0
   -3.6321    0.5091    2.2947 H   0  0  0  0  0  0  0  0  0  0  0  0
   -4.4407   -0.9193    1.6518 H   0  0  0  0  0  0  0  0  0  0  0  0
   -6.4690   -0.4045    3.0840 H   0  0  0  0  0  0  0  0  0  0  0  0
   -5.0128   -0.6730    4.0437 H   0  0  0  0  0  0  0  0  0  0  0  0
   -6.2762    3.1607    3.4764 H   0  0  0  0  0  0  0  0  0  0  0  0
   -4.6231    2.7635    2.9992 H   0  0  0  0  0  0  0  0  0  0  0  0
   -7.1647    1.5965    1.7213 H   0  0  0  0  0  0  0  0  0  0  0  0
   -6.1614    2.8946    1.0138 H   0  0  0  0  0  0  0  0  0  0  0  0
  1  2  1  0
  2  3  2  0
  3  4  1  0
  4  5  2  0
  5  6  1  0
  6  7  1  0
  7  8  2  0
  7  9  1  0
  9 10  2  0
 10 11  1  0
 11 12  2  0
 12 13  1  0
 13 14  1  0
 14 15  2  0
 14 16  2  0
 14 17  1  0
 17 18  1  0
 17 19  1  0
 19 20  2  0
 20 21  1  0
 21 22  2  0
 22 23  1  0
 23 24  2  0
 13 25  2  0
  5 26  1  0
 26 27  2  0
 27 28  1  0
 28 29  2  0
 28 30  2  0
 28 31  1  0
 31 32  1  0
 32 33  1  0
 33 34  1  0
 34 35  1  0
 35 36  1  0
 27  2  1  0
 36 31  1  0
 25  9  1  0
 24 19  1  0
  1 37  1  0
  1 38  1  0
  1 39  1  0
  3 40  1  0
  4 41  1  0
  6 42  1  0
 10 43  1  0
 11 44  1  0
 12 45  1  0
 18 46  1  0
 18 47  1  0
 18 48  1  0
 20 49  1  0
 21 50  1  0
 22 51  1  0
 23 52  1  0
 24 53  1  0
 25 54  1  0
 26 55  1  0
 32 56  1  0
 32 57  1  0
 33 58  1  0
 33 59  1  0
 35 60  1  0
 35 61  1  0
 36 62  1  0
 36 63  1  0
M  END
$$$$
