
     RDKit          3D

 56 60  0  0  0  0  0  0  0  0999 V2000
   -3.8778   -0.3465    2.8951 C   0  0  0  0  0  0  0  0  0  0  0  0
   -3.9420   -1.2800    1.7170 C   0  0  0  0  0  0  0  0  0  0  0  0
   -4.9086   -2.2960    1.7112 C   0  0  0  0  0  0  0  0  0  0  0  0
   -5.0201   -3.1649    0.6280 C   0  0  0  0  0  0  0  0  0  0  0  0
   -4.1657   -3.0342   -0.4645 C   0  0  0  0  0  0  0  0  0  0  0  0
   -3.1692   -2.0474   -0.4815 C   0  0  0  0  0  0  0  0  0  0  0  0
   -2.2968   -1.9254   -1.7007 C   0  0  0  0  0  0  0  0  0  0  0  0
   -3.0542   -1.1727    0.6214 C   0  0  0  0  0  0  0  0  0  0  0  0
   -2.0509   -0.1589    0.6215 N   0  0  0  0  0  0  0  0  0  0  0  0
   -0.8428   -0.3101    1.2959 C   0  0  0  0  0  0  0  0  0  0  0  0
   -0.4831   -1.8488    2.0778 S   0  0  0  0  0  0  0  0  0  0  0  0
    1.3268   -1.8862    1.8721 C   0  0  0  0  0  0  0  0  0  0  0  0
    1.7336   -1.6539    0.4113 C   0  0  0  0  0  0  0  0  0  0  0  0
    1.1401   -2.2585   -0.4865 O   0  0  0  0  0  0  0  0  0  0  0  0
    2.7886   -0.7578    0.1775 N   0  0  0  0  0  0  0  0  0  0  0  0
    3.7207   -0.4135    1.2539 C   0  0  0  0  0  0  0  0  0  0  0  0
    5.0839    0.1355    0.8723 C   0  0  0  0  0  0  0  0  0  0  0  0
    6.0017    0.2341    1.6856 O   0  0  0  0  0  0  0  0  0  0  0  0
    5.2189    0.6253   -0.3900 N   0  0  0  0  0  0  0  0  0  0  0  0
    4.2063    0.5590   -1.3495 C   0  0  0  0  0  0  0  0  0  0  0  0
    4.4448    1.1799   -2.5820 C   0  0  0  0  0  0  0  0  0  0  0  0
    3.4727    1.1519   -3.5771 C   0  0  0  0  0  0  0  0  0  0  0  0
    2.2666    0.5045   -3.3390 C   0  0  0  0  0  0  0  0  0  0  0  0
    2.0344   -0.1248   -2.1106 C   0  0  0  0  0  0  0  0  0  0  0  0
    3.0015   -0.1230   -1.0945 C   0  0  0  0  0  0  0  0  0  0  0  0
    0.0617    0.6136    1.3817 N   0  0  0  0  0  0  0  0  0  0  0  0
   -0.1566    1.8210    0.7127 C   0  0  0  0  0  0  0  0  0  0  0  0
    0.8315    2.8073    0.7693 C   0  0  0  0  0  0  0  0  0  0  0  0
    0.6669    4.0205    0.0961 C   0  0  0  0  0  0  0  0  0  0  0  0
   -0.4924    4.2579   -0.6407 C   0  0  0  0  0  0  0  0  0  0  0  0
   -1.4852    3.2814   -0.7042 C   0  0  0  0  0  0  0  0  0  0  0  0
   -1.3092    2.0676   -0.0277 C   0  0  0  0  0  0  0  0  0  0  0  0
   -2.3407    1.0153   -0.0748 C   0  0  0  0  0  0  0  0  0  0  0  0
   -3.3736    1.2375   -0.7045 O   0  0  0  0  0  0  0  0  0  0  0  0
   -3.0324   -0.6014    3.5405 H   0  0  0  0  0  0  0  0  0  0  0  0
   -4.7911   -0.4054    3.4976 H   0  0  0  0  0  0  0  0  0  0  0  0
   -3.7845    0.6932    2.5658 H   0  0  0  0  0  0  0  0  0  0  0  0
   -5.5932   -2.4094    2.5491 H   0  0  0  0  0  0  0  0  0  0  0  0
   -5.7823   -3.9399    0.6301 H   0  0  0  0  0  0  0  0  0  0  0  0
   -4.2805   -3.7114   -1.3083 H   0  0  0  0  0  0  0  0  0  0  0  0
   -1.2738   -1.6479   -1.4365 H   0  0  0  0  0  0  0  0  0  0  0  0
   -2.2354   -2.8783   -2.2372 H   0  0  0  0  0  0  0  0  0  0  0  0
   -2.7073   -1.1716   -2.3794 H   0  0  0  0  0  0  0  0  0  0  0  0
    1.7386   -1.1440    2.5563 H   0  0  0  0  0  0  0  0  0  0  0  0
    1.7004   -2.8692    2.1747 H   0  0  0  0  0  0  0  0  0  0  0  0
    3.9010   -1.3132    1.8538 H   0  0  0  0  0  0  0  0  0  0  0  0
    3.2338    0.3419    1.8817 H   0  0  0  0  0  0  0  0  0  0  0  0
    6.1071    1.0568   -0.6089 H   0  0  0  0  0  0  0  0  0  0  0  0
    5.3829    1.6928   -2.7766 H   0  0  0  0  0  0  0  0  0  0  0  0
    3.6526    1.6358   -4.5336 H   0  0  0  0  0  0  0  0  0  0  0  0
    1.4971    0.4841   -4.1074 H   0  0  0  0  0  0  0  0  0  0  0  0
    1.0656   -0.5954   -1.9771 H   0  0  0  0  0  0  0  0  0  0  0  0
    1.7391    2.6273    1.3393 H   0  0  0  0  0  0  0  0  0  0  0  0
    1.4445    4.7789    0.1469 H   0  0  0  0  0  0  0  0  0  0  0  0
   -0.6228    5.2017   -1.1651 H   0  0  0  0  0  0  0  0  0  0  0  0
   -2.3910    3.4649   -1.2783 H   0  0  0  0  0  0  0  0  0  0  0  0
  1  2  1  0
  2  3  2  0
  3  4  1  0
  4  5  2  0
  5  6  1  0
  6  7  1  0
  6  8  2  0
  8  9  1  0
  9 10  1  0
 10 11  1  0
 11 12  1  0
 12 13  1  0
 13 14  2  0
 13 15  1  0
 15 16  1  0
 16 17  1  0
 17 18  2  0
 17 19  1  0
 19 20  1  0
 20 21  2  0
 21 22  1  0
 22 23  2  0
 23 24  1  0
 24 25  2  0
 10 26  2  0
 26 27  1  0
 27 28  2  0
 28 29  1  0
 29 30  2  0
 30 31  1  0
 31 32  2  0
 32 33  1  0
 33 34  2  0
  8  2  1  0
 33  9  1  0
 25 15  1  0
 32 27  1  0
 25 20  1  0
  1 35  1  0
  1 36  1  0
  1 37  1  0
  3 38  1  0
  4 39  1  0
  5 40  1  0
  7 41  1  0
  7 42  1  0
  7 43  1  0
 12 44  1  0
 12 45  1  0
 16 46  1  0
 16 47  1  0
 19 48  1  0
 21 49  1  0
 22 50  1  0
 23 51  1  0
 24 52  1  0
 28 53  1  0
 29 54  1  0
 30 55  1  0
 31 56  1  0
M  END
$$$$
