
     RDKit          3D

 40 41  0  0  0  0  0  0  0  0999 V2000
   -3.2735   -3.1467   -0.2617 C   0  0  0  0  0  0  0  0  0  0  0  0
   -1.8556   -2.6559   -0.4990 C   0  0  0  0  0  0  0  0  0  0  0  0
   -1.8645   -1.3796   -1.1403 O   0  0  0  0  0  0  0  0  0  0  0  0
   -1.8211   -1.4067   -2.5185 C   0  0  0  0  0  0  0  0  0  0  0  0
   -2.0260   -2.5916   -3.1479 N   0  0  0  0  0  0  0  0  0  0  0  0
   -2.0649   -2.5797   -4.4987 C   0  0  0  0  0  0  0  0  0  0  0  0
   -1.9211   -1.4348   -5.2633 C   0  0  0  0  0  0  0  0  0  0  0  0
   -1.7155   -0.2277   -4.6032 C   0  0  0  0  0  0  0  0  0  0  0  0
   -1.6500   -0.2085   -3.2054 C   0  0  0  0  0  0  0  0  0  0  0  0
   -1.4343    1.0859   -2.5379 C   0  0  0  0  0  0  0  0  0  0  0  0
   -1.9171    2.1329   -2.9409 O   0  0  0  0  0  0  0  0  0  0  0  0
   -0.5707    0.9497   -1.5074 O   0  0  0  0  0  0  0  0  0  0  0  0
   -0.3110    2.1659   -0.8016 C   0  0  0  0  0  0  0  0  0  0  0  0
    0.5434    1.8492    0.4022 C   0  0  0  0  0  0  0  0  0  0  0  0
    1.7341    2.5493    0.6392 C   0  0  0  0  0  0  0  0  0  0  0  0
    2.5146    2.2653    1.7651 C   0  0  0  0  0  0  0  0  0  0  0  0
    2.1110    1.2781    2.6734 C   0  0  0  0  0  0  0  0  0  0  0  0
    2.9029    0.9343    3.8860 C   0  0  0  0  0  0  0  0  0  0  0  0
    2.5646    0.0841    4.6947 O   0  0  0  0  0  0  0  0  0  0  0  0
    4.0285    1.6890    3.9543 O   0  0  0  0  0  0  0  0  0  0  0  0
    4.8424    1.4129    5.0951 C   0  0  0  0  0  0  0  0  0  0  0  0
    0.9180    0.5817    2.4436 C   0  0  0  0  0  0  0  0  0  0  0  0
    0.1400    0.8675    1.3190 C   0  0  0  0  0  0  0  0  0  0  0  0
   -3.2685   -4.0842    0.3017 H   0  0  0  0  0  0  0  0  0  0  0  0
   -3.8024   -3.3111   -1.2054 H   0  0  0  0  0  0  0  0  0  0  0  0
   -3.8480   -2.4019    0.2989 H   0  0  0  0  0  0  0  0  0  0  0  0
   -1.2436   -3.3965   -1.0282 H   0  0  0  0  0  0  0  0  0  0  0  0
   -1.3736   -2.5080    0.4742 H   0  0  0  0  0  0  0  0  0  0  0  0
   -2.2279   -3.5477   -4.9653 H   0  0  0  0  0  0  0  0  0  0  0  0
   -1.9713   -1.4803   -6.3458 H   0  0  0  0  0  0  0  0  0  0  0  0
   -1.6061    0.6931   -5.1719 H   0  0  0  0  0  0  0  0  0  0  0  0
    0.2100    2.8616   -1.4699 H   0  0  0  0  0  0  0  0  0  0  0  0
   -1.2481    2.6228   -0.4606 H   0  0  0  0  0  0  0  0  0  0  0  0
    2.0669    3.3208   -0.0526 H   0  0  0  0  0  0  0  0  0  0  0  0
    3.4349    2.8233    1.9191 H   0  0  0  0  0  0  0  0  0  0  0  0
    5.7293    2.0506    5.0403 H   0  0  0  0  0  0  0  0  0  0  0  0
    5.1677    0.3676    5.0925 H   0  0  0  0  0  0  0  0  0  0  0  0
    4.3012    1.6496    6.0167 H   0  0  0  0  0  0  0  0  0  0  0  0
    0.5887   -0.1883    3.1387 H   0  0  0  0  0  0  0  0  0  0  0  0
   -0.7833    0.3141    1.1546 H   0  0  0  0  0  0  0  0  0  0  0  0
  1  2  1  0
  2  3  1  0
  3  4  1  0
  4  5  2  0
  5  6  1  0
  6  7  2  0
  7  8  1  0
  8  9  2  0
  9 10  1  0
 10 11  2  0
 10 12  1  0
 12 13  1  0
 13 14  1  0
 14 15  2  0
 15 16  1  0
 16 17  2  0
 17 18  1  0
 18 19  2  0
 18 20  1  0
 20 21  1  0
 17 22  1  0
 22 23  2  0
  9  4  1  0
 23 14  1  0
  1 24  1  0
  1 25  1  0
  1 26  1  0
  2 27  1  0
  2 28  1  0
  6 29  1  0
  7 30  1  0
  8 31  1  0
 13 32  1  0
 13 33  1  0
 15 34  1  0
 16 35  1  0
 21 36  1  0
 21 37  1  0
 21 38  1  0
 22 39  1  0
 23 40  1  0
M  END
$$$$
