
     RDKit          3D

 46 48  0  0  0  0  0  0  0  0999 V2000
   -2.0028    3.2522   -0.9348 C   0  0  0  0  0  0  0  0  0  0  0  0
   -2.8151    2.1868   -0.8936 C   0  0  0  0  0  0  0  0  0  0  0  0
   -2.4722    0.8394   -1.4600 C   0  0  0  0  0  0  0  0  0  0  0  0
   -2.3111   -0.1618   -0.4224 N   0  0  0  0  0  0  0  0  0  0  0  0
   -1.1414   -0.5748    0.1617 C   0  0  0  0  0  0  0  0  0  0  0  0
    0.4265    0.0001   -0.2838 S   0  0  0  0  0  0  0  0  0  0  0  0
    1.4493   -0.8268    0.9730 C   0  0  0  0  0  0  0  0  0  0  0  0
    2.9147   -0.5299    0.7602 C   0  0  0  0  0  0  0  0  0  0  0  0
    3.7142   -1.4026    0.0084 C   0  0  0  0  0  0  0  0  0  0  0  0
    5.0666   -1.1215   -0.2072 C   0  0  0  0  0  0  0  0  0  0  0  0
    5.6375    0.0435    0.3207 C   0  0  0  0  0  0  0  0  0  0  0  0
    7.0681    0.3980    0.1113 C   0  0  0  0  0  0  0  0  0  0  0  0
    7.5705    1.4383    0.5063 O   0  0  0  0  0  0  0  0  0  0  0  0
    7.7117   -0.5859   -0.5661 O   0  0  0  0  0  0  0  0  0  0  0  0
    9.0929   -0.3162   -0.8089 C   0  0  0  0  0  0  0  0  0  0  0  0
    4.8408    0.9201    1.0671 C   0  0  0  0  0  0  0  0  0  0  0  0
    3.4898    0.6365    1.2846 C   0  0  0  0  0  0  0  0  0  0  0  0
   -1.3967   -1.4556    1.1006 N   0  0  0  0  0  0  0  0  0  0  0  0
   -2.7567   -1.6264    1.1528 N   0  0  0  0  0  0  0  0  0  0  0  0
   -3.3039   -0.8655    0.2247 C   0  0  0  0  0  0  0  0  0  0  0  0
   -4.7157   -0.7678    0.0293 C   0  0  0  0  0  0  0  0  0  0  0  0
   -5.4805   -1.1405   -1.4571 S   0  0  0  0  0  0  0  0  0  0  0  0
   -7.0049   -0.7906   -0.7584 C   0  0  0  0  0  0  0  0  0  0  0  0
   -8.1422   -0.8868   -1.4692 N   0  0  0  0  0  0  0  0  0  0  0  0
   -6.9807   -0.4453    0.5032 N   0  0  0  0  0  0  0  0  0  0  0  0
   -5.6768   -0.4522    0.9780 C   0  0  0  0  0  0  0  0  0  0  0  0
   -5.4468   -0.1210    2.4105 C   0  0  0  0  0  0  0  0  0  0  0  0
   -1.0135    3.2052   -1.3807 H   0  0  0  0  0  0  0  0  0  0  0  0
   -2.3115    4.2037   -0.5112 H   0  0  0  0  0  0  0  0  0  0  0  0
   -3.7973    2.2966   -0.4373 H   0  0  0  0  0  0  0  0  0  0  0  0
   -1.5576    0.8762   -2.0601 H   0  0  0  0  0  0  0  0  0  0  0  0
   -3.2555    0.5110   -2.1455 H   0  0  0  0  0  0  0  0  0  0  0  0
    1.1473   -0.4925    1.9728 H   0  0  0  0  0  0  0  0  0  0  0  0
    1.2853   -1.9094    0.9308 H   0  0  0  0  0  0  0  0  0  0  0  0
    3.2873   -2.3091   -0.4171 H   0  0  0  0  0  0  0  0  0  0  0  0
    5.6598   -1.8185   -0.7936 H   0  0  0  0  0  0  0  0  0  0  0  0
    9.5297   -1.1944   -1.2928 H   0  0  0  0  0  0  0  0  0  0  0  0
    9.6249   -0.1375    0.1315 H   0  0  0  0  0  0  0  0  0  0  0  0
    9.1984    0.5414   -1.4809 H   0  0  0  0  0  0  0  0  0  0  0  0
    5.2683    1.8314    1.4812 H   0  0  0  0  0  0  0  0  0  0  0  0
    2.8869    1.3353    1.8617 H   0  0  0  0  0  0  0  0  0  0  0  0
   -8.9825   -0.9442   -0.9028 H   0  0  0  0  0  0  0  0  0  0  0  0
   -8.1410   -1.5338   -2.2489 H   0  0  0  0  0  0  0  0  0  0  0  0
   -6.3569    0.2773    2.8695 H   0  0  0  0  0  0  0  0  0  0  0  0
   -5.1462   -1.0171    2.9633 H   0  0  0  0  0  0  0  0  0  0  0  0
   -4.6611    0.6345    2.5126 H   0  0  0  0  0  0  0  0  0  0  0  0
  1  2  2  0
  2  3  1  0
  3  4  1  0
  4  5  1  0
  5  6  1  0
  6  7  1  0
  7  8  1  0
  8  9  2  0
  9 10  1  0
 10 11  2  0
 11 12  1  0
 12 13  2  0
 12 14  1  0
 14 15  1  0
 11 16  1  0
 16 17  2  0
  5 18  2  0
 18 19  1  0
 19 20  2  0
 20 21  1  0
 21 22  1  0
 22 23  1  0
 23 24  1  0
 23 25  2  0
 25 26  1  0
 26 27  1  0
 20  4  1  0
 26 21  2  0
 17  8  1  0
  1 28  1  0
  1 29  1  0
  2 30  1  0
  3 31  1  0
  3 32  1  0
  7 33  1  0
  7 34  1  0
  9 35  1  0
 10 36  1  0
 15 37  1  0
 15 38  1  0
 15 39  1  0
 16 40  1  0
 17 41  1  0
 24 42  1  0
 24 43  1  0
 27 44  1  0
 27 45  1  0
 27 46  1  0
M  END
$$$$
