
     RDKit          3D

 62 66  0  0  0  0  0  0  0  0999 V2000
   -4.0850    5.3082   -4.2202 C   0  0  0  0  0  0  0  0  0  0  0  0
   -3.2856    4.5137   -3.3534 O   0  0  0  0  0  0  0  0  0  0  0  0
   -3.9077    3.4778   -2.7113 C   0  0  0  0  0  0  0  0  0  0  0  0
   -5.2491    3.1376   -2.8197 C   0  0  0  0  0  0  0  0  0  0  0  0
   -5.7686    2.0492   -2.1093 C   0  0  0  0  0  0  0  0  0  0  0  0
   -4.9155    1.2985   -1.2776 C   0  0  0  0  0  0  0  0  0  0  0  0
   -5.3436   -0.0653   -0.3249 S   0  0  0  0  0  0  0  0  0  0  0  0
   -3.7526   -0.2573    0.2699 C   0  0  0  0  0  0  0  0  0  0  0  0
   -3.4923   -1.3419    1.2261 C   0  0  0  0  0  0  0  0  0  0  0  0
   -3.4785   -1.0388    2.5975 C   0  0  0  0  0  0  0  0  0  0  0  0
   -3.2272   -2.0333    3.5407 C   0  0  0  0  0  0  0  0  0  0  0  0
   -2.9847   -3.3377    3.1213 C   0  0  0  0  0  0  0  0  0  0  0  0
   -2.9900   -3.6527    1.7592 C   0  0  0  0  0  0  0  0  0  0  0  0
   -3.2421   -2.6633    0.8011 C   0  0  0  0  0  0  0  0  0  0  0  0
   -3.2447   -2.8810   -0.5542 O   0  0  0  0  0  0  0  0  0  0  0  0
   -3.1187   -4.2225   -1.0040 C   0  0  0  0  0  0  0  0  0  0  0  0
   -2.8955    0.7054   -0.2378 C   0  0  0  0  0  0  0  0  0  0  0  0
   -1.4884    0.7539    0.1427 C   0  0  0  0  0  0  0  0  0  0  0  0
   -0.5986   -0.2283   -0.3043 C   0  0  0  0  0  0  0  0  0  0  0  0
    0.7518   -0.1791    0.0593 C   0  0  0  0  0  0  0  0  0  0  0  0
    1.2226    0.8559    0.8682 C   0  0  0  0  0  0  0  0  0  0  0  0
    2.5116    1.0216    1.2944 O   0  0  0  0  0  0  0  0  0  0  0  0
    3.4737    0.0650    0.8387 C   0  0  0  0  0  0  0  0  0  0  0  0
    4.8411    0.4488    1.4250 C   0  0  0  0  0  0  0  0  0  0  0  0
    5.9147   -0.4856    1.0655 N   0  0  0  0  0  0  0  0  0  0  0  0
    7.1623   -0.1721    1.7669 C   0  0  0  0  0  0  0  0  0  0  0  0
    8.1911   -0.9954    1.0097 C   0  0  0  0  0  0  0  0  0  0  0  0
    7.6317   -1.1218   -0.4024 C   0  0  0  0  0  0  0  0  0  0  0  0
    6.2670   -0.4478   -0.3559 C   0  0  0  0  0  0  0  0  0  0  0  0
    0.3321    1.8382    1.3102 C   0  0  0  0  0  0  0  0  0  0  0  0
   -1.0169    1.7923    0.9500 C   0  0  0  0  0  0  0  0  0  0  0  0
   -3.5632    1.6149   -1.1425 C   0  0  0  0  0  0  0  0  0  0  0  0
   -3.0705    2.7231   -1.8808 C   0  0  0  0  0  0  0  0  0  0  0  0
   -3.4421    6.0804   -4.6537 H   0  0  0  0  0  0  0  0  0  0  0  0
   -4.8846    5.8126   -3.6676 H   0  0  0  0  0  0  0  0  0  0  0  0
   -4.4888    4.7103   -5.0439 H   0  0  0  0  0  0  0  0  0  0  0  0
   -5.9312    3.6965   -3.4520 H   0  0  0  0  0  0  0  0  0  0  0  0
   -6.8190    1.7869   -2.2005 H   0  0  0  0  0  0  0  0  0  0  0  0
   -3.6626   -0.0204    2.9324 H   0  0  0  0  0  0  0  0  0  0  0  0
   -3.2175   -1.7884    4.5995 H   0  0  0  0  0  0  0  0  0  0  0  0
   -2.7849   -4.1141    3.8558 H   0  0  0  0  0  0  0  0  0  0  0  0
   -2.7852   -4.6804    1.4795 H   0  0  0  0  0  0  0  0  0  0  0  0
   -3.9231   -4.8516   -0.6086 H   0  0  0  0  0  0  0  0  0  0  0  0
   -3.2060   -4.2184   -2.0947 H   0  0  0  0  0  0  0  0  0  0  0  0
   -2.1347   -4.6306   -0.7517 H   0  0  0  0  0  0  0  0  0  0  0  0
   -0.9526   -1.0401   -0.9365 H   0  0  0  0  0  0  0  0  0  0  0  0
    1.4037   -0.9656   -0.3050 H   0  0  0  0  0  0  0  0  0  0  0  0
    3.1991   -0.9381    1.1873 H   0  0  0  0  0  0  0  0  0  0  0  0
    3.5183    0.0849   -0.2564 H   0  0  0  0  0  0  0  0  0  0  0  0
    5.0891    1.4775    1.1302 H   0  0  0  0  0  0  0  0  0  0  0  0
    4.7352    0.4730    2.5180 H   0  0  0  0  0  0  0  0  0  0  0  0
    7.4116    0.8944    1.6944 H   0  0  0  0  0  0  0  0  0  0  0  0
    7.1233   -0.4517    2.8244 H   0  0  0  0  0  0  0  0  0  0  0  0
    8.2943   -1.9913    1.4570 H   0  0  0  0  0  0  0  0  0  0  0  0
    9.1771   -0.5202    1.0175 H   0  0  0  0  0  0  0  0  0  0  0  0
    7.5387   -2.1799   -0.6731 H   0  0  0  0  0  0  0  0  0  0  0  0
    8.2855   -0.6430   -1.1388 H   0  0  0  0  0  0  0  0  0  0  0  0
    6.3523    0.5824   -0.7249 H   0  0  0  0  0  0  0  0  0  0  0  0
    5.5429   -0.9821   -0.9786 H   0  0  0  0  0  0  0  0  0  0  0  0
    0.6922    2.6470    1.9411 H   0  0  0  0  0  0  0  0  0  0  0  0
   -1.6925    2.5661    1.3059 H   0  0  0  0  0  0  0  0  0  0  0  0
   -2.0190    2.9920   -1.8049 H   0  0  0  0  0  0  0  0  0  0  0  0
  1  2  1  0
  2  3  1  0
  3  4  2  0
  4  5  1  0
  5  6  2  0
  6  7  1  0
  7  8  1  0
  8  9  1  0
  9 10  2  0
 10 11  1  0
 11 12  2  0
 12 13  1  0
 13 14  2  0
 14 15  1  0
 15 16  1  0
  8 17  2  0
 17 18  1  0
 18 19  2  0
 19 20  1  0
 20 21  2  0
 21 22  1  0
 22 23  1  0
 23 24  1  0
 24 25  1  0
 25 26  1  0
 26 27  1  0
 27 28  1  0
 28 29  1  0
 21 30  1  0
 30 31  2  0
 17 32  1  0
 32 33  2  0
 33  3  1  0
 32  6  1  0
 14  9  1  0
 31 18  1  0
 29 25  1  0
  1 34  1  0
  1 35  1  0
  1 36  1  0
  4 37  1  0
  5 38  1  0
 10 39  1  0
 11 40  1  0
 12 41  1  0
 13 42  1  0
 16 43  1  0
 16 44  1  0
 16 45  1  0
 19 46  1  0
 20 47  1  0
 23 48  1  0
 23 49  1  0
 24 50  1  0
 24 51  1  0
 26 52  1  0
 26 53  1  0
 27 54  1  0
 27 55  1  0
 28 56  1  0
 28 57  1  0
 29 58  1  0
 29 59  1  0
 30 60  1  0
 31 61  1  0
 33 62  1  0
M  END
$$$$
