
     RDKit          3D

 36 38  0  0  0  0  0  0  0  0999 V2000
   -5.7492    0.4246   -0.0057 C   0  0  0  0  0  0  0  0  0  0  0  0
   -4.2715    0.6856   -0.0847 C   0  0  0  0  0  0  0  0  0  0  0  0
   -3.8005    1.9898   -0.3190 C   0  0  0  0  0  0  0  0  0  0  0  0
   -2.4324    2.2566   -0.3624 C   0  0  0  0  0  0  0  0  0  0  0  0
   -1.5492    1.2068   -0.1609 C   0  0  0  0  0  0  0  0  0  0  0  0
   -1.9892   -0.1103    0.0893 C   0  0  0  0  0  0  0  0  0  0  0  0
   -3.3577   -0.3617    0.1324 C   0  0  0  0  0  0  0  0  0  0  0  0
   -0.9400   -1.0400    0.2689 N   0  0  0  0  0  0  0  0  0  0  0  0
   -1.2647   -2.3808    0.7255 C   0  0  0  0  0  0  0  0  0  0  0  0
    0.3115   -0.4227    0.2193 C   0  0  0  0  0  0  0  0  0  0  0  0
    1.5062   -1.0171    0.4001 C   0  0  0  0  0  0  0  0  0  0  0  0
    2.8074   -0.3444    0.3413 C   0  0  0  0  0  0  0  0  0  0  0  0
    3.3778    0.1500    1.5203 C   0  0  0  0  0  0  0  0  0  0  0  0
    4.6011    0.8053    1.4790 C   0  0  0  0  0  0  0  0  0  0  0  0
    5.2404    0.9638    0.2600 C   0  0  0  0  0  0  0  0  0  0  0  0
    4.6485    0.4606   -0.8917 C   0  0  0  0  0  0  0  0  0  0  0  0
    3.4608   -0.1893   -0.8436 N   0  0  0  0  0  4  0  0  0  0  0  0
    2.8818   -0.6978   -2.1041 C   0  0  0  0  0  0  0  0  0  0  0  0
    0.2333    1.3277   -0.1502 S   0  0  0  0  0  0  0  0  0  0  0  0
   -6.0952    0.5465    1.0253 H   0  0  0  0  0  0  0  0  0  0  0  0
   -6.3031    1.1157   -0.6498 H   0  0  0  0  0  0  0  0  0  0  0  0
   -5.9843   -0.5908   -0.3416 H   0  0  0  0  0  0  0  0  0  0  0  0
   -4.5058    2.8063   -0.4665 H   0  0  0  0  0  0  0  0  0  0  0  0
   -2.0759    3.2657   -0.5419 H   0  0  0  0  0  0  0  0  0  0  0  0
   -3.7394   -1.3584    0.3302 H   0  0  0  0  0  0  0  0  0  0  0  0
   -1.9979   -2.8567    0.0648 H   0  0  0  0  0  0  0  0  0  0  0  0
   -1.6656   -2.3560    1.7448 H   0  0  0  0  0  0  0  0  0  0  0  0
   -0.3899   -3.0376    0.7302 H   0  0  0  0  0  0  0  0  0  0  0  0
    1.5672   -2.0760    0.6279 H   0  0  0  0  0  0  0  0  0  0  0  0
    2.8623    0.0374    2.4731 H   0  0  0  0  0  0  0  0  0  0  0  0
    5.0464    1.1983    2.3920 H   0  0  0  0  0  0  0  0  0  0  0  0
    6.1952    1.4830    0.2053 H   0  0  0  0  0  0  0  0  0  0  0  0
    5.1231    0.5776   -1.8623 H   0  0  0  0  0  0  0  0  0  0  0  0
    2.0450   -0.0530   -2.3802 H   0  0  0  0  0  0  0  0  0  0  0  0
    3.6385   -0.6758   -2.8930 H   0  0  0  0  0  0  0  0  0  0  0  0
    2.5647   -1.7330   -1.9556 H   0  0  0  0  0  0  0  0  0  0  0  0
  1  2  1  0
  2  3  2  0
  3  4  1  0
  4  5  2  0
  5  6  1  0
  6  7  2  0
  6  8  1  0
  8  9  1  0
  8 10  1  0
 10 11  2  3
 11 12  1  0
 12 13  2  0
 13 14  1  0
 14 15  2  0
 15 16  1  0
 16 17  2  0
 17 18  1  0
 10 19  1  0
  7  2  1  0
 17 12  1  0
 19  5  1  0
  1 20  1  0
  1 21  1  0
  1 22  1  0
  3 23  1  0
  4 24  1  0
  7 25  1  0
  9 26  1  0
  9 27  1  0
  9 28  1  0
 11 29  1  0
 13 30  1  0
 14 31  1  0
 15 32  1  0
 16 33  1  0
 18 34  1  0
 18 35  1  0
 18 36  1  0
M  CHG  1  17   1
M  END
$$$$
