
     RDKit          3D

 36 38  0  0  0  0  0  0  0  0999 V2000
    5.9635   -0.6858   -0.3184 C   0  0  0  0  0  0  0  0  0  0  0  0
    5.5103    0.3438    0.6970 C   0  0  0  0  0  0  0  0  0  0  0  0
    4.0505    0.5592    0.5606 N   0  0  0  0  0  4  0  0  0  0  0  0
    3.5890    1.5170   -0.2761 C   0  0  0  0  0  0  0  0  0  0  0  0
    2.2238    1.7393   -0.4157 C   0  0  0  0  0  0  0  0  0  0  0  0
    1.3195    0.9604    0.3029 C   0  0  0  0  0  0  0  0  0  0  0  0
   -0.1175    1.2198    0.1656 C   0  0  0  0  0  0  0  0  0  0  0  0
   -1.0417    0.2496    0.0569 C   0  0  0  0  0  0  0  0  0  0  0  0
   -2.4525    0.4437   -0.0829 C   0  0  0  0  0  0  0  0  0  0  0  0
   -3.1192    1.6499   -0.0423 C   0  0  0  0  0  0  0  0  0  0  0  0
   -4.4573    1.4007   -0.2101 N   0  0  0  0  0  0  0  0  0  0  0  0
   -4.6765    0.0510   -0.3583 C   0  0  0  0  0  0  0  0  0  0  0  0
   -5.8744   -0.6478   -0.5513 C   0  0  0  0  0  0  0  0  0  0  0  0
   -5.8027   -2.0378   -0.6726 C   0  0  0  0  0  0  0  0  0  0  0  0
   -4.5806   -2.7005   -0.6037 C   0  0  0  0  0  0  0  0  0  0  0  0
   -3.3919   -1.9866   -0.4100 C   0  0  0  0  0  0  0  0  0  0  0  0
   -3.4333   -0.5805   -0.2831 C   0  0  0  0  0  0  0  0  0  0  0  0
    1.8176   -0.0102    1.1706 C   0  0  0  0  0  0  0  0  0  0  0  0
    3.1907   -0.1966    1.2815 C   0  0  0  0  0  0  0  0  0  0  0  0
    5.4508   -1.6411   -0.1666 H   0  0  0  0  0  0  0  0  0  0  0  0
    5.7504   -0.3528   -1.3392 H   0  0  0  0  0  0  0  0  0  0  0  0
    7.0405   -0.8574   -0.2317 H   0  0  0  0  0  0  0  0  0  0  0  0
    6.0126    1.3052    0.5459 H   0  0  0  0  0  0  0  0  0  0  0  0
    5.7121    0.0136    1.7215 H   0  0  0  0  0  0  0  0  0  0  0  0
    4.3202    2.0983   -0.8310 H   0  0  0  0  0  0  0  0  0  0  0  0
    1.8725    2.5137   -1.0957 H   0  0  0  0  0  0  0  0  0  0  0  0
   -0.4113    2.2665    0.1316 H   0  0  0  0  0  0  0  0  0  0  0  0
   -0.7144   -0.7877    0.0583 H   0  0  0  0  0  0  0  0  0  0  0  0
   -2.7769    2.6664    0.0930 H   0  0  0  0  0  0  0  0  0  0  0  0
   -5.1859    2.1015   -0.2223 H   0  0  0  0  0  0  0  0  0  0  0  0
   -6.8298   -0.1354   -0.6063 H   0  0  0  0  0  0  0  0  0  0  0  0
   -6.7164   -2.6089   -0.8237 H   0  0  0  0  0  0  0  0  0  0  0  0
   -4.5492   -3.7830   -0.7020 H   0  0  0  0  0  0  0  0  0  0  0  0
   -2.4490   -2.5213   -0.3610 H   0  0  0  0  0  0  0  0  0  0  0  0
    1.1453   -0.6193    1.7725 H   0  0  0  0  0  0  0  0  0  0  0  0
    3.6115   -0.9471    1.9449 H   0  0  0  0  0  0  0  0  0  0  0  0
  1  2  1  0
  2  3  1  0
  3  4  2  0
  4  5  1  0
  5  6  2  0
  6  7  1  0
  7  8  2  3
  8  9  1  0
  9 10  2  0
 10 11  1  0
 11 12  1  0
 12 13  2  0
 13 14  1  0
 14 15  2  0
 15 16  1  0
 16 17  2  0
  6 18  1  0
 18 19  2  0
 19  3  1  0
 17  9  1  0
 17 12  1  0
  1 20  1  0
  1 21  1  0
  1 22  1  0
  2 23  1  0
  2 24  1  0
  4 25  1  0
  5 26  1  0
  7 27  1  0
  8 28  1  0
 10 29  1  0
 11 30  1  0
 13 31  1  0
 14 32  1  0
 15 33  1  0
 16 34  1  0
 18 35  1  0
 19 36  1  0
M  CHG  1   3   1
M  END
$$$$
