
     RDKit          3D

 46 49  0  0  0  0  0  0  0  0999 V2000
    2.9198    1.5123   -3.7261 O   0  0  0  0  0  0  0  0  0  0  0  0
    2.4191    0.6162   -3.0420 C   0  0  0  0  0  0  0  0  0  0  0  0
    1.2647   -0.1955   -3.6162 C   0  0  0  0  0  0  0  0  0  0  0  0
    0.3340   -1.2026   -2.4210 S   0  0  0  0  0  0  0  0  0  0  0  0
   -0.5961    0.0285   -1.6400 C   0  0  0  0  0  0  0  0  0  0  0  0
   -0.2361    1.2834   -1.5238 N   0  0  0  0  0  0  0  0  0  0  0  0
   -1.2573    1.9552   -0.9056 N   0  0  0  0  0  0  0  0  0  0  0  0
   -2.2167    1.0912   -0.6319 C   0  0  0  0  0  0  0  0  0  0  0  0
   -3.4967    1.4212    0.0661 C   0  0  0  0  0  0  0  0  0  0  0  0
   -3.5023    1.0549    1.5269 C   0  0  0  0  0  0  0  0  0  0  0  0
   -2.4456    0.9438    2.4139 C   0  0  0  0  0  0  0  0  0  0  0  0
   -2.8677    0.5689    3.7194 C   0  0  0  0  0  0  0  0  0  0  0  0
   -4.2347    0.4463    3.8057 C   0  0  0  0  0  0  0  0  0  0  0  0
   -5.0028    0.7862    2.3159 S   0  0  0  0  0  0  0  0  0  0  0  0
   -1.8368   -0.1560   -1.0901 N   0  0  0  0  0  0  0  0  0  0  0  0
   -2.6407   -1.3621   -1.1104 C   0  0  0  0  0  0  0  0  0  0  0  0
   -2.4896   -2.1539    0.1329 C   0  0  0  0  0  0  0  0  0  0  0  0
   -3.3818   -2.5386    1.1221 C   0  0  0  0  0  0  0  0  0  0  0  0
   -2.6453   -3.3184    2.0475 C   0  0  0  0  0  0  0  0  0  0  0  0
   -1.3548   -3.3698    1.5656 C   0  0  0  0  0  0  0  0  0  0  0  0
   -1.2541   -2.6730    0.4003 O   0  0  0  0  0  0  0  0  0  0  0  0
    2.8851    0.2012   -1.8099 N   0  0  0  0  0  0  0  0  0  0  0  0
    3.9546    0.7310   -1.0514 C   0  0  0  0  0  0  0  0  0  0  0  0
    4.6483    1.8906   -1.4174 C   0  0  0  0  0  0  0  0  0  0  0  0
    5.7111    2.3600   -0.6346 C   0  0  0  0  0  0  0  0  0  0  0  0
    6.0845    1.6743    0.5237 C   0  0  0  0  0  0  0  0  0  0  0  0
    7.3906    2.2558    1.4849 Cl  0  0  0  0  0  0  0  0  0  0  0  0
    5.4004    0.5275    0.9186 C   0  0  0  0  0  0  0  0  0  0  0  0
    4.3377    0.0640    0.1347 C   0  0  0  0  0  0  0  0  0  0  0  0
    3.5134   -1.3680    0.6609 Cl  0  0  0  0  0  0  0  0  0  0  0  0
    0.5777    0.4836   -4.1238 H   0  0  0  0  0  0  0  0  0  0  0  0
    1.6874   -0.8700   -4.3678 H   0  0  0  0  0  0  0  0  0  0  0  0
   -4.3324    0.9414   -0.4567 H   0  0  0  0  0  0  0  0  0  0  0  0
   -3.6691    2.5051   -0.0134 H   0  0  0  0  0  0  0  0  0  0  0  0
   -1.4094    1.0966    2.1326 H   0  0  0  0  0  0  0  0  0  0  0  0
   -2.1923    0.3877    4.5492 H   0  0  0  0  0  0  0  0  0  0  0  0
   -4.8204    0.1777    4.6775 H   0  0  0  0  0  0  0  0  0  0  0  0
   -3.6844   -1.0685   -1.2576 H   0  0  0  0  0  0  0  0  0  0  0  0
   -2.3677   -1.9626   -1.9868 H   0  0  0  0  0  0  0  0  0  0  0  0
   -4.4338   -2.2867    1.1698 H   0  0  0  0  0  0  0  0  0  0  0  0
   -3.0133   -3.7881    2.9509 H   0  0  0  0  0  0  0  0  0  0  0  0
   -0.4428   -3.8414    1.9116 H   0  0  0  0  0  0  0  0  0  0  0  0
    2.3976   -0.5848   -1.3827 H   0  0  0  0  0  0  0  0  0  0  0  0
    4.3745    2.4683   -2.3031 H   0  0  0  0  0  0  0  0  0  0  0  0
    6.2347    3.2660   -0.9370 H   0  0  0  0  0  0  0  0  0  0  0  0
    5.6902    0.0013    1.8282 H   0  0  0  0  0  0  0  0  0  0  0  0
  1  2  2  0
  2  3  1  0
  3  4  1  0
  4  5  1  0
  5  6  2  0
  6  7  1  0
  7  8  2  0
  8  9  1  0
  9 10  1  0
 10 11  2  0
 11 12  1  0
 12 13  2  0
 13 14  1  0
  8 15  1  0
 15 16  1  0
 16 17  1  0
 17 18  2  0
 18 19  1  0
 19 20  2  0
 20 21  1  0
  2 22  1  0
 22 23  1  0
 23 24  2  0
 24 25  1  0
 25 26  2  0
 26 27  1  0
 26 28  1  0
 28 29  2  0
 29 30  1  0
 15  5  1  0
 21 17  1  0
 29 23  1  0
 14 10  1  0
  3 31  1  0
  3 32  1  0
  9 33  1  0
  9 34  1  0
 11 35  1  0
 12 36  1  0
 13 37  1  0
 16 38  1  0
 16 39  1  0
 18 40  1  0
 19 41  1  0
 20 42  1  0
 22 43  1  0
 24 44  1  0
 25 45  1  0
 28 46  1  0
M  END
$$$$
