
     RDKit          3D

 48 50  0  0  0  0  0  0  0  0999 V2000
    3.5346   -4.4832    1.9954 C   0  0  0  0  0  0  0  0  0  0  0  0
    3.5263   -3.1163    1.5987 O   0  0  0  0  0  0  0  0  0  0  0  0
    2.3509   -2.6077    1.1052 C   0  0  0  0  0  0  0  0  0  0  0  0
    1.1837   -3.3597    0.9134 C   0  0  0  0  0  0  0  0  0  0  0  0
    0.0402   -2.7599    0.3778 C   0  0  0  0  0  0  0  0  0  0  0  0
    0.0526   -1.4001    0.0499 C   0  0  0  0  0  0  0  0  0  0  0  0
   -1.1469   -0.7531   -0.5123 C   0  0  0  0  0  0  0  0  0  0  0  0
   -2.0769   -1.4419   -1.1017 N   0  0  0  0  0  0  0  0  0  0  0  0
   -3.1684   -0.7301   -1.5268 N   0  0  0  0  0  0  0  0  0  0  0  0
   -3.9134    0.0890   -0.6832 C   0  0  0  0  0  0  0  0  0  0  0  0
   -3.5305    0.4928    0.4072 O   0  0  0  0  0  0  0  0  0  0  0  0
   -5.2664    0.4422   -1.2491 C   0  0  0  0  0  0  0  0  0  0  0  0
   -5.3957    0.1040   -2.5668 N   0  0  0  0  0  0  0  0  0  0  0  0
   -6.5708    0.4009   -3.1639 C   0  0  0  0  0  0  0  0  0  0  0  0
   -6.6030   -0.1018   -4.8128 Cl  0  0  0  0  0  0  0  0  0  0  0  0
   -7.6380    1.0312   -2.5294 C   0  0  0  0  0  0  0  0  0  0  0  0
   -9.1161    1.3733   -3.3642 Cl  0  0  0  0  0  0  0  0  0  0  0  0
   -7.4865    1.4007   -1.1813 C   0  0  0  0  0  0  0  0  0  0  0  0
   -8.5909    1.9192   -0.4542 N   0  0  0  0  0  0  0  0  0  0  0  0
   -6.2861    1.0563   -0.5155 C   0  0  0  0  0  0  0  0  0  0  0  0
   -6.1733    1.4072    1.1807 Cl  0  0  0  0  0  0  0  0  0  0  0  0
    1.2068   -0.6370    0.2451 C   0  0  0  0  0  0  0  0  0  0  0  0
    2.3712   -1.2321    0.7658 C   0  0  0  0  0  0  0  0  0  0  0  0
    3.6673   -0.4505    0.8908 C   0  0  0  0  0  0  0  0  0  0  0  0
    3.4489    0.9540    0.7822 O   0  0  0  0  0  0  0  0  0  0  0  0
    4.5493    1.7682    0.7747 C   0  0  0  0  0  0  0  0  0  0  0  0
    5.8735    1.3413    0.8951 C   0  0  0  0  0  0  0  0  0  0  0  0
    6.9143    2.2748    0.8696 C   0  0  0  0  0  0  0  0  0  0  0  0
    6.6296    3.6287    0.7293 C   0  0  0  0  0  0  0  0  0  0  0  0
    7.6345    4.5124    0.7081 F   0  0  0  0  0  0  0  0  0  0  0  0
    5.3227    4.0741    0.6125 C   0  0  0  0  0  0  0  0  0  0  0  0
    4.2935    3.1396    0.6356 C   0  0  0  0  0  0  0  0  0  0  0  0
    3.0302    3.5777    0.5186 F   0  0  0  0  0  0  0  0  0  0  0  0
    3.3423   -5.1454    1.1419 H   0  0  0  0  0  0  0  0  0  0  0  0
    4.5357   -4.7146    2.3723 H   0  0  0  0  0  0  0  0  0  0  0  0
    2.8219   -4.6629    2.8089 H   0  0  0  0  0  0  0  0  0  0  0  0
    1.1298   -4.4195    1.1625 H   0  0  0  0  0  0  0  0  0  0  0  0
   -0.8569   -3.3482    0.2300 H   0  0  0  0  0  0  0  0  0  0  0  0
   -1.1881    0.3485   -0.4362 H   0  0  0  0  0  0  0  0  0  0  0  0
   -3.6783   -1.1496   -2.3081 H   0  0  0  0  0  0  0  0  0  0  0  0
   -8.3433    2.3982    0.4133 H   0  0  0  0  0  0  0  0  0  0  0  0
   -9.2748    2.4231   -1.0198 H   0  0  0  0  0  0  0  0  0  0  0  0
    1.2104    0.4220   -0.0340 H   0  0  0  0  0  0  0  0  0  0  0  0
    4.1202   -0.6547    1.8686 H   0  0  0  0  0  0  0  0  0  0  0  0
    4.3272   -0.7862    0.0810 H   0  0  0  0  0  0  0  0  0  0  0  0
    6.1345    0.2918    1.0152 H   0  0  0  0  0  0  0  0  0  0  0  0
    7.9458    1.9540    0.9609 H   0  0  0  0  0  0  0  0  0  0  0  0
    5.1063    5.1291    0.5082 H   0  0  0  0  0  0  0  0  0  0  0  0
  1  2  1  0
  2  3  1  0
  3  4  2  0
  4  5  1  0
  5  6  2  0
  6  7  1  0
  7  8  2  3
  8  9  1  0
  9 10  1  0
 10 11  2  0
 10 12  1  0
 12 13  2  0
 13 14  1  0
 14 15  1  0
 14 16  2  0
 16 17  1  0
 16 18  1  0
 18 19  1  0
 18 20  2  0
 20 21  1  0
  6 22  1  0
 22 23  2  0
 23 24  1  0
 24 25  1  0
 25 26  1  0
 26 27  2  0
 27 28  1  0
 28 29  2  0
 29 30  1  0
 29 31  1  0
 31 32  2  0
 32 33  1  0
 23  3  1  0
 32 26  1  0
 20 12  1  0
  1 34  1  0
  1 35  1  0
  1 36  1  0
  4 37  1  0
  5 38  1  0
  7 39  1  0
  9 40  1  0
 19 41  1  0
 19 42  1  0
 22 43  1  0
 24 44  1  0
 24 45  1  0
 27 46  1  0
 28 47  1  0
 31 48  1  0
M  END
$$$$
