
     RDKit          3D

 31 31  0  0  0  0  0  0  0  0999 V2000
    4.4272    1.1185   -0.0902 C   0  0  0  0  0  0  0  0  0  0  0  0
    4.1385    0.5841    1.1952 O   0  0  0  0  0  0  0  0  0  0  0  0
    2.9135   -0.1519    1.1877 C   0  0  0  0  0  0  0  0  0  0  0  0
    1.7873    0.6992    0.9703 O   0  0  0  0  0  0  0  0  0  0  0  0
    0.6083    0.0272    1.1558 C   0  0  0  0  0  0  0  0  0  0  0  0
   -0.4323    0.0351    0.3074 C   0  0  0  0  0  0  0  0  0  0  0  0
   -0.4665    0.5856   -0.9564 N   0  0  0  0  0  0  0  0  0  0  0  0
    0.5885    0.7827   -1.8288 C   0  0  0  0  0  0  0  0  0  0  0  0
    0.1778    1.5570   -3.0557 C   0  0  0  0  0  0  0  0  0  0  0  0
    1.7270    0.3396   -1.7205 O   0  0  0  0  0  0  0  0  0  0  0  0
   -1.7013   -0.5558    0.7748 C   0  0  0  0  0  0  0  0  0  0  0  0
   -2.4717    0.0828    1.7558 C   0  0  0  0  0  0  0  0  0  0  0  0
   -3.6775   -0.4787    2.1800 C   0  0  0  0  0  0  0  0  0  0  0  0
   -4.1230   -1.6777    1.6245 C   0  0  0  0  0  0  0  0  0  0  0  0
   -3.3642   -2.3186    0.6459 C   0  0  0  0  0  0  0  0  0  0  0  0
   -2.1573   -1.7600    0.2212 C   0  0  0  0  0  0  0  0  0  0  0  0
    4.4931    0.3210   -0.8364 H   0  0  0  0  0  0  0  0  0  0  0  0
    3.6741    1.8555   -0.3837 H   0  0  0  0  0  0  0  0  0  0  0  0
    5.3963    1.6221   -0.0390 H   0  0  0  0  0  0  0  0  0  0  0  0
    2.8386   -0.6261    2.1734 H   0  0  0  0  0  0  0  0  0  0  0  0
    2.9561   -0.9410    0.4262 H   0  0  0  0  0  0  0  0  0  0  0  0
    0.5566   -0.4307    2.1380 H   0  0  0  0  0  0  0  0  0  0  0  0
   -1.3926    0.6821   -1.3571 H   0  0  0  0  0  0  0  0  0  0  0  0
   -0.1399    0.8585   -3.8340 H   0  0  0  0  0  0  0  0  0  0  0  0
    1.0282    2.1453   -3.4127 H   0  0  0  0  0  0  0  0  0  0  0  0
   -0.6391    2.2487   -2.8306 H   0  0  0  0  0  0  0  0  0  0  0  0
   -2.1376    1.0220    2.1917 H   0  0  0  0  0  0  0  0  0  0  0  0
   -4.2681    0.0174    2.9465 H   0  0  0  0  0  0  0  0  0  0  0  0
   -5.0614   -2.1146    1.9572 H   0  0  0  0  0  0  0  0  0  0  0  0
   -3.7104   -3.2555    0.2165 H   0  0  0  0  0  0  0  0  0  0  0  0
   -1.5681   -2.2740   -0.5354 H   0  0  0  0  0  0  0  0  0  0  0  0
  1  2  1  0
  2  3  1  0
  3  4  1  0
  4  5  1  0
  5  6  2  3
  6  7  1  0
  7  8  1  0
  8  9  1  0
  8 10  2  0
  6 11  1  0
 11 12  2  0
 12 13  1  0
 13 14  2  0
 14 15  1  0
 15 16  2  0
 16 11  1  0
  1 17  1  0
  1 18  1  0
  1 19  1  0
  3 20  1  0
  3 21  1  0
  5 22  1  0
  7 23  1  0
  9 24  1  0
  9 25  1  0
  9 26  1  0
 12 27  1  0
 13 28  1  0
 14 29  1  0
 15 30  1  0
 16 31  1  0
M  END
$$$$
