
     RDKit          3D

 56 61  0  0  0  0  0  0  0  0999 V2000
    6.8128    0.3224   -4.0577 C   0  0  0  0  0  0  0  0  0  0  0  0
    5.6988    0.1938   -3.0591 C   0  0  0  0  0  0  0  0  0  0  0  0
    4.5283    0.9435   -3.2086 C   0  0  0  0  0  0  0  0  0  0  0  0
    3.4973    0.8456   -2.2690 C   0  0  0  0  0  0  0  0  0  0  0  0
    3.6291   -0.0028   -1.1628 C   0  0  0  0  0  0  0  0  0  0  0  0
    2.4625   -0.1124   -0.1163 C   0  0  0  0  0  0  0  0  0  0  0  0
    1.2786    0.6146   -0.1239 C   0  0  0  0  0  0  0  0  0  0  0  0
    0.5092    0.2426    0.9764 N   0  0  0  0  0  4  0  0  0  0  0  0
   -0.8288    0.7411    1.3294 C   0  0  0  0  0  0  0  0  0  0  0  0
   -1.9170   -0.3138    1.0557 C   0  0  0  0  0  0  0  0  0  0  0  0
   -1.7011   -1.5090    1.2600 O   0  0  0  0  0  0  0  0  0  0  0  0
   -3.1385    0.2397    0.6577 N   0  0  0  0  0  0  0  0  0  0  0  0
   -3.2208    0.9326   -0.6032 C   0  0  0  0  0  0  0  0  0  0  0  0
   -2.2380    0.6840   -1.5886 C   0  0  0  0  0  0  0  0  0  0  0  0
   -2.2558    1.3340   -2.8259 C   0  0  0  0  0  0  0  0  0  0  0  0
   -3.2640    2.2424   -3.1116 C   0  0  0  0  0  0  0  0  0  0  0  0
   -4.2601    2.4803   -2.1680 C   0  0  0  0  0  0  0  0  0  0  0  0
   -4.2534    1.8229   -0.9259 C   0  0  0  0  0  0  0  0  0  0  0  0
   -5.5667    2.2120    0.1895 S   0  0  0  0  0  0  0  0  0  0  0  0
   -5.4927    0.8056    1.2677 C   0  0  0  0  0  0  0  0  0  0  0  0
   -6.6391    0.5652    2.0469 C   0  0  0  0  0  0  0  0  0  0  0  0
   -6.6575   -0.4503    2.9976 C   0  0  0  0  0  0  0  0  0  0  0  0
   -5.5240   -1.2246    3.1855 C   0  0  0  0  0  0  0  0  0  0  0  0
   -4.3785   -0.9876    2.4166 C   0  0  0  0  0  0  0  0  0  0  0  0
   -4.3385    0.0173    1.4264 C   0  0  0  0  0  0  0  0  0  0  0  0
    1.1936   -0.6799    1.6482 C   0  0  0  0  0  0  0  0  0  0  0  0
    2.3359   -0.9104    1.0055 N   0  0  0  0  0  0  0  0  0  0  0  0
    3.1354   -1.9319    1.6680 C   0  0  0  0  0  0  0  0  0  0  0  0
    2.1625   -2.5360    2.7158 C   0  0  0  0  0  0  0  0  0  0  0  0
    1.0548   -1.4787    2.8886 C   0  0  0  0  0  0  0  0  0  0  0  0
    4.8036   -0.7378   -1.0011 C   0  0  0  0  0  0  0  0  0  0  0  0
    5.8334   -0.6362   -1.9426 C   0  0  0  0  0  0  0  0  0  0  0  0
    7.4652   -0.5572   -4.0361 H   0  0  0  0  0  0  0  0  0  0  0  0
    6.4124    0.4044   -5.0735 H   0  0  0  0  0  0  0  0  0  0  0  0
    7.4147    1.2100   -3.8367 H   0  0  0  0  0  0  0  0  0  0  0  0
    4.4137    1.6079   -4.0651 H   0  0  0  0  0  0  0  0  0  0  0  0
    2.6070    1.4437   -2.4376 H   0  0  0  0  0  0  0  0  0  0  0  0
    0.8839    1.3688   -0.7823 H   0  0  0  0  0  0  0  0  0  0  0  0
   -0.8366    0.9614    2.4027 H   0  0  0  0  0  0  0  0  0  0  0  0
   -1.0122    1.6778    0.7965 H   0  0  0  0  0  0  0  0  0  0  0  0
   -1.4700   -0.0721   -1.4423 H   0  0  0  0  0  0  0  0  0  0  0  0
   -1.5026    1.1095   -3.5775 H   0  0  0  0  0  0  0  0  0  0  0  0
   -3.2958    2.7475   -4.0749 H   0  0  0  0  0  0  0  0  0  0  0  0
   -5.0570    3.1813   -2.4151 H   0  0  0  0  0  0  0  0  0  0  0  0
   -7.5304    1.1799    1.9237 H   0  0  0  0  0  0  0  0  0  0  0  0
   -7.5509   -0.6275    3.5911 H   0  0  0  0  0  0  0  0  0  0  0  0
   -5.5280   -2.0211    3.9266 H   0  0  0  0  0  0  0  0  0  0  0  0
   -3.5378   -1.6487    2.6041 H   0  0  0  0  0  0  0  0  0  0  0  0
    3.4669   -2.6920    0.9570 H   0  0  0  0  0  0  0  0  0  0  0  0
    3.9895   -1.4514    2.1537 H   0  0  0  0  0  0  0  0  0  0  0  0
    1.7223   -3.4523    2.3050 H   0  0  0  0  0  0  0  0  0  0  0  0
    2.6579   -2.7927    3.6560 H   0  0  0  0  0  0  0  0  0  0  0  0
    0.0578   -1.9089    2.9555 H   0  0  0  0  0  0  0  0  0  0  0  0
    1.2568   -0.7972    3.7178 H   0  0  0  0  0  0  0  0  0  0  0  0
    4.9652   -1.3881   -0.1511 H   0  0  0  0  0  0  0  0  0  0  0  0
    6.7466   -1.2114   -1.7987 H   0  0  0  0  0  0  0  0  0  0  0  0
  1  2  1  0
  2  3  2  0
  3  4  1  0
  4  5  2  0
  5  6  1  0
  6  7  2  0
  7  8  1  0
  8  9  1  0
  9 10  1  0
 10 11  2  0
 10 12  1  0
 12 13  1  0
 13 14  2  0
 14 15  1  0
 15 16  2  0
 16 17  1  0
 17 18  2  0
 18 19  1  0
 19 20  1  0
 20 21  2  0
 21 22  1  0
 22 23  2  0
 23 24  1  0
 24 25  2  0
  8 26  2  0
 26 27  1  0
 27 28  1  0
 28 29  1  0
 29 30  1  0
  5 31  1  0
 31 32  2  0
 32  2  1  0
 27  6  1  0
 25 12  1  0
 30 26  1  0
 18 13  1  0
 25 20  1  0
  1 33  1  0
  1 34  1  0
  1 35  1  0
  3 36  1  0
  4 37  1  0
  7 38  1  0
  9 39  1  0
  9 40  1  0
 14 41  1  0
 15 42  1  0
 16 43  1  0
 17 44  1  0
 21 45  1  0
 22 46  1  0
 23 47  1  0
 24 48  1  0
 28 49  1  0
 28 50  1  0
 29 51  1  0
 29 52  1  0
 30 53  1  0
 30 54  1  0
 31 55  1  0
 32 56  1  0
M  CHG  1   8   1
M  END
$$$$
