
     RDKit          3D

 39 42  0  0  0  0  0  0  0  0999 V2000
   -5.6154   -1.5572    2.0013 O   0  0  0  0  0  0  0  0  0  0  0  0
   -6.5004   -1.3996    1.1774 C   0  0  0  0  0  0  0  0  0  0  0  0
   -7.7781   -1.2158    1.5527 O   0  0  0  0  0  0  0  0  0  0  0  0
   -6.3137   -1.3316   -0.3058 C   0  0  0  0  0  0  0  0  0  0  0  0
   -6.0321    0.0985   -0.7518 C   0  0  0  0  0  0  0  0  0  0  0  0
   -4.7264    0.5986   -0.3053 N   0  0  0  0  0  0  0  0  0  0  0  0
   -3.5897    0.1308   -0.9432 C   0  0  0  0  0  0  0  0  0  0  0  0
   -3.5751   -0.6592   -1.8782 O   0  0  0  0  0  0  0  0  0  0  0  0
   -2.3644    0.7271   -0.3425 C   0  0  0  0  0  0  0  0  0  0  0  0
   -1.1567    0.3760   -0.8019 C   0  0  0  0  0  0  0  0  0  0  0  0
    0.1110    0.8329   -0.3427 C   0  0  0  0  0  0  0  0  0  0  0  0
    0.5176    1.9673    0.3473 C   0  0  0  0  0  0  0  0  0  0  0  0
    1.9210    1.8980    0.5189 C   0  0  0  0  0  0  0  0  0  0  0  0
    2.3459    0.7304   -0.0820 C   0  0  0  0  0  0  0  0  0  0  0  0
    3.6864    0.2195   -0.1761 C   0  0  0  0  0  0  0  0  0  0  0  0
    4.7182    0.8593    0.3331 N   0  0  0  0  0  0  0  0  0  0  0  0
    5.8786    0.1413    0.0970 C   0  0  0  0  0  0  0  0  0  0  0  0
    7.1777    0.5160    0.4964 C   0  0  0  0  0  0  0  0  0  0  0  0
    8.2654   -0.3084    0.1898 C   0  0  0  0  0  0  0  0  0  0  0  0
    8.0740   -1.4970   -0.5075 C   0  0  0  0  0  0  0  0  0  0  0  0
    6.7958   -1.8915   -0.9151 C   0  0  0  0  0  0  0  0  0  0  0  0
    5.7108   -1.0558   -0.6017 C   0  0  0  0  0  0  0  0  0  0  0  0
    4.0404   -1.2631   -0.9606 S   0  0  0  0  0  0  0  0  0  0  0  0
    1.2495    0.1006   -0.6075 O   0  0  0  0  0  0  0  0  0  0  0  0
   -2.8043    1.7908    0.9274 S   0  0  0  0  0  0  0  0  0  0  0  0
   -4.5261    1.5000    0.7196 C   0  0  0  0  0  0  0  0  0  0  0  0
   -5.6694    2.2691    1.6607 S   0  0  0  0  0  0  0  0  0  0  0  0
   -7.7536   -1.2431    2.5336 H   0  0  0  0  0  0  0  0  0  0  0  0
   -5.5063   -2.0192   -0.5796 H   0  0  0  0  0  0  0  0  0  0  0  0
   -7.2202   -1.7100   -0.7922 H   0  0  0  0  0  0  0  0  0  0  0  0
   -6.0341    0.1254   -1.8486 H   0  0  0  0  0  0  0  0  0  0  0  0
   -6.8326    0.7654   -0.4187 H   0  0  0  0  0  0  0  0  0  0  0  0
   -1.1042   -0.3657   -1.5983 H   0  0  0  0  0  0  0  0  0  0  0  0
   -0.1144    2.7747    0.6883 H   0  0  0  0  0  0  0  0  0  0  0  0
    2.5600    2.6158    1.0158 H   0  0  0  0  0  0  0  0  0  0  0  0
    7.3229    1.4440    1.0405 H   0  0  0  0  0  0  0  0  0  0  0  0
    9.2658   -0.0154    0.5001 H   0  0  0  0  0  0  0  0  0  0  0  0
    8.9287   -2.1293   -0.7395 H   0  0  0  0  0  0  0  0  0  0  0  0
    6.6475   -2.8194   -1.4591 H   0  0  0  0  0  0  0  0  0  0  0  0
  1  2  2  0
  2  3  1  0
  2  4  1  0
  4  5  1  0
  5  6  1  0
  6  7  1  0
  7  8  2  0
  7  9  1  0
  9 10  2  3
 10 11  1  0
 11 12  2  0
 12 13  1  0
 13 14  2  0
 14 15  1  0
 15 16  2  0
 16 17  1  0
 17 18  2  0
 18 19  1  0
 19 20  2  0
 20 21  1  0
 21 22  2  0
 22 23  1  0
 14 24  1  0
  9 25  1  0
 25 26  1  0
 26 27  2  0
 26  6  1  0
 24 11  1  0
 23 15  1  0
 22 17  1  0
  3 28  1  0
  4 29  1  0
  4 30  1  0
  5 31  1  0
  5 32  1  0
 10 33  1  0
 12 34  1  0
 13 35  1  0
 18 36  1  0
 19 37  1  0
 20 38  1  0
 21 39  1  0
M  END
$$$$
