
     RDKit          3D

 74 78  0  0  0  0  0  0  0  0999 V2000
   -3.2057    0.8698   -2.4577 C   0  0  0  0  0  0  0  0  0  0  0  0
   -2.1061    1.4771   -1.5674 C   0  0  0  0  0  0  0  0  0  0  0  0
   -2.4496    2.9854   -1.3971 C   0  0  0  0  0  0  0  0  0  0  0  0
   -2.7874    3.3876   -0.0337 N   0  0  0  0  0  0  0  0  0  0  0  0
   -4.1846    3.8166    0.2280 C   0  0  0  0  0  0  0  0  0  0  0  0
   -4.4012    5.2722   -0.1994 C   0  0  0  0  0  0  0  0  0  0  0  0
   -4.7037    3.6183    1.6729 C   0  0  0  0  0  0  0  0  0  0  0  0
   -4.3788    2.3149    2.1615 O   0  0  0  0  0  0  0  0  0  0  0  0
   -1.7848    3.6381    0.8939 C   0  0  0  0  0  0  0  0  0  0  0  0
   -1.9778    4.1242    2.0053 O   0  0  0  0  0  0  0  0  0  0  0  0
   -0.3955    3.3309    0.5235 C   0  0  0  0  0  0  0  0  0  0  0  0
    0.4524    4.4508    0.4464 C   0  0  0  0  0  0  0  0  0  0  0  0
    1.8152    4.2875    0.2464 C   0  0  0  0  0  0  0  0  0  0  0  0
    2.3511    3.0018    0.1958 C   0  0  0  0  0  0  0  0  0  0  0  0
    1.5209    1.8800    0.3036 C   0  0  0  0  0  0  0  0  0  0  0  0
    2.0279    0.5674    0.4165 N   0  0  0  0  0  0  0  0  0  0  0  0
    3.3266    0.1201    0.2579 C   0  0  0  0  0  0  0  0  0  0  0  0
    4.2322    0.7822   -0.2305 O   0  0  0  0  0  0  0  0  0  0  0  0
    3.4402   -1.1831    0.7241 N   0  0  0  0  0  0  0  0  0  0  0  0
    4.5715   -2.0241    0.6693 C   0  0  0  0  0  0  0  0  0  0  0  0
    4.4847   -3.2479    1.3726 C   0  0  0  0  0  0  0  0  0  0  0  0
    5.5533   -4.1535    1.3914 C   0  0  0  0  0  0  0  0  0  0  0  0
    6.6865   -3.8077    0.6931 C   0  0  0  0  0  0  0  0  0  0  0  0
    6.7732   -2.6301   -0.0086 C   0  0  0  0  0  0  0  0  0  0  0  0
    5.7378   -1.7163   -0.0399 C   0  0  0  0  0  0  0  0  0  0  0  0
    7.9709   -2.4983   -0.6447 O   0  0  0  0  0  0  0  0  0  0  0  0
    8.6064   -3.7400   -0.2912 C   0  0  0  0  0  0  0  0  0  0  0  0
    7.8139   -4.5633    0.5943 O   0  0  0  0  0  0  0  0  0  0  0  0
    0.1129    2.0335    0.3867 C   0  0  0  0  0  0  0  0  0  0  0  0
   -0.5836    0.8510    0.3890 O   0  0  0  0  0  0  0  0  0  0  0  0
   -1.8955    0.7202   -0.2134 C   0  0  0  0  0  0  0  0  0  0  0  0
   -2.2001   -0.8123   -0.2624 C   0  0  0  0  0  0  0  0  0  0  0  0
   -1.4847   -1.5654   -1.3440 N   0  0  0  0  0  0  0  0  0  0  0  0
   -0.0173   -1.5926   -1.2529 C   0  0  0  0  0  0  0  0  0  0  0  0
   -2.2319   -3.0356   -1.8060 S   0  0  0  0  0  6  0  0  0  0  0  0
   -1.3922   -3.7217   -2.7631 O   0  0  0  0  0  0  0  0  0  0  0  0
   -3.6227   -2.7604   -2.0905 O   0  0  0  0  0  0  0  0  0  0  0  0
   -2.2971   -4.0883   -0.3640 C   0  0  0  0  0  0  0  0  0  0  0  0
   -3.3543   -4.4643    0.4495 C   0  0  0  0  0  0  0  0  0  0  0  0
   -2.9385   -5.3110    1.5194 C   0  0  0  0  0  0  0  0  0  0  0  0
   -1.5835   -5.5868    1.4660 C   0  0  0  0  0  0  0  0  0  0  0  0
   -0.8231   -4.7875    0.1541 S   0  0  0  0  0  0  0  0  0  0  0  0
   -4.1580    0.7928   -1.9156 H   0  0  0  0  0  0  0  0  0  0  0  0
   -3.3651    1.4833   -3.3528 H   0  0  0  0  0  0  0  0  0  0  0  0
   -2.9166   -0.1181   -2.8311 H   0  0  0  0  0  0  0  0  0  0  0  0
   -1.1628    1.4298   -2.1410 H   0  0  0  0  0  0  0  0  0  0  0  0
   -3.2917    3.2677   -2.0531 H   0  0  0  0  0  0  0  0  0  0  0  0
   -1.6106    3.6095   -1.7573 H   0  0  0  0  0  0  0  0  0  0  0  0
   -4.8093    3.1687   -0.4078 H   0  0  0  0  0  0  0  0  0  0  0  0
   -5.4061    5.6247    0.0670 H   0  0  0  0  0  0  0  0  0  0  0  0
   -3.6741    5.9460    0.2669 H   0  0  0  0  0  0  0  0  0  0  0  0
   -4.2899    5.3786   -1.2806 H   0  0  0  0  0  0  0  0  0  0  0  0
   -5.7953    3.7192    1.6761 H   0  0  0  0  0  0  0  0  0  0  0  0
   -4.3138    4.3761    2.3675 H   0  0  0  0  0  0  0  0  0  0  0  0
   -3.4240    2.3665    2.3629 H   0  0  0  0  0  0  0  0  0  0  0  0
    0.0363    5.4510    0.5672 H   0  0  0  0  0  0  0  0  0  0  0  0
    2.4681    5.1545    0.1845 H   0  0  0  0  0  0  0  0  0  0  0  0
    3.4270    2.9072    0.1103 H   0  0  0  0  0  0  0  0  0  0  0  0
    1.3166   -0.1247    0.6036 H   0  0  0  0  0  0  0  0  0  0  0  0
    2.6920   -1.4946    1.3222 H   0  0  0  0  0  0  0  0  0  0  0  0
    3.5779   -3.5120    1.9073 H   0  0  0  0  0  0  0  0  0  0  0  0
    5.4963   -5.0969    1.9233 H   0  0  0  0  0  0  0  0  0  0  0  0
    5.8558   -0.8124   -0.6339 H   0  0  0  0  0  0  0  0  0  0  0  0
    8.8182   -4.3150   -1.2023 H   0  0  0  0  0  0  0  0  0  0  0  0
    9.5534   -3.5106    0.2087 H   0  0  0  0  0  0  0  0  0  0  0  0
   -2.6102    1.0822    0.5278 H   0  0  0  0  0  0  0  0  0  0  0  0
   -3.2791   -0.9352   -0.4050 H   0  0  0  0  0  0  0  0  0  0  0  0
   -1.9570   -1.2612    0.7078 H   0  0  0  0  0  0  0  0  0  0  0  0
    0.4383   -2.2970   -1.9596 H   0  0  0  0  0  0  0  0  0  0  0  0
    0.3107   -1.8444   -0.2415 H   0  0  0  0  0  0  0  0  0  0  0  0
    0.3835   -0.6117   -1.5234 H   0  0  0  0  0  0  0  0  0  0  0  0
   -4.3801   -4.1328    0.2866 H   0  0  0  0  0  0  0  0  0  0  0  0
   -3.5973   -5.7203    2.2755 H   0  0  0  0  0  0  0  0  0  0  0  0
   -1.0108   -6.2106    2.1455 H   0  0  0  0  0  0  0  0  0  0  0  0
  1  2  1  0
  2  3  1  0
  3  4  1  0
  4  5  1  0
  5  6  1  0
  5  7  1  0
  7  8  1  0
  4  9  1  0
  9 10  2  0
  9 11  1  0
 11 12  2  0
 12 13  1  0
 13 14  2  0
 14 15  1  0
 15 16  1  0
 16 17  1  0
 17 18  2  0
 17 19  1  0
 19 20  1  0
 20 21  2  0
 21 22  1  0
 22 23  2  0
 23 24  1  0
 24 25  2  0
 24 26  1  0
 26 27  1  0
 27 28  1  0
 15 29  2  0
 29 30  1  0
 30 31  1  0
 31 32  1  0
 32 33  1  0
 33 34  1  0
 33 35  1  0
 35 36  2  0
 35 37  2  0
 35 38  1  0
 38 39  2  0
 39 40  1  0
 40 41  2  0
 41 42  1  0
 31  2  1  0
 42 38  1  0
 29 11  1  0
 25 20  1  0
 28 23  1  0
  1 43  1  0
  1 44  1  0
  1 45  1  0
  2 46  1  0
  3 47  1  0
  3 48  1  0
  5 49  1  0
  6 50  1  0
  6 51  1  0
  6 52  1  0
  7 53  1  0
  7 54  1  0
  8 55  1  0
 12 56  1  0
 13 57  1  0
 14 58  1  0
 16 59  1  0
 19 60  1  0
 21 61  1  0
 22 62  1  0
 25 63  1  0
 27 64  1  0
 27 65  1  0
 31 66  1  0
 32 67  1  0
 32 68  1  0
 34 69  1  0
 34 70  1  0
 34 71  1  0
 39 72  1  0
 40 73  1  0
 41 74  1  0
M  END
$$$$
