
     RDKit          3D

 57 60  0  0  0  0  0  0  0  0999 V2000
    5.5325    3.2882   -0.3121 C   0  0  0  0  0  0  0  0  0  0  0  0
    4.4169    2.3126   -0.1346 C   0  0  0  0  0  0  0  0  0  0  0  0
    3.0647    2.5774   -0.2092 C   0  0  0  0  0  0  0  0  0  0  0  0
    2.3685    1.3554   -0.1041 C   0  0  0  0  0  0  0  0  0  0  0  0
    0.9446    1.2510   -0.1599 C   0  0  0  0  0  0  0  0  0  0  0  0
    0.2448    0.1935   -0.6029 C   0  0  0  0  0  0  0  0  0  0  0  0
   -1.2198    0.1995   -0.6765 C   0  0  0  0  0  0  0  0  0  0  0  0
   -1.8316    1.0379   -1.6102 C   0  0  0  0  0  0  0  0  0  0  0  0
   -3.2083    1.0399   -1.7430 C   0  0  0  0  0  0  0  0  0  0  0  0
   -3.9755    0.1890   -0.9537 C   0  0  0  0  0  0  0  0  0  0  0  0
   -5.3789    0.1711   -1.0903 C   0  0  0  0  0  0  0  0  0  0  0  0
   -6.2108   -0.6730   -0.3364 C   0  0  0  0  0  0  0  0  0  0  0  0
   -7.5966   -0.6588   -0.4651 N   0  0  0  0  0  0  0  0  0  0  0  0
   -8.4049   -1.7127    0.1526 C   0  0  0  0  0  0  0  0  0  0  0  0
   -8.2272    0.0390   -1.5878 C   0  0  0  0  0  0  0  0  0  0  0  0
   -5.5565   -1.5026    0.5832 C   0  0  0  0  0  0  0  0  0  0  0  0
   -4.1606   -1.5030    0.7410 C   0  0  0  0  0  0  0  0  0  0  0  0
   -3.3395   -0.6564   -0.0163 C   0  0  0  0  0  0  0  0  0  0  0  0
   -1.9719   -0.6187    0.1145 N   0  0  0  0  0  4  0  0  0  0  0  0
   -1.3226   -1.4578    1.1498 C   0  0  0  0  0  0  0  0  0  0  0  0
    3.3068    0.3560    0.1071 C   0  0  0  0  0  0  0  0  0  0  0  0
    3.1082   -1.0815    0.4675 C   0  0  0  0  0  0  0  0  0  0  0  0
    4.5795    0.9411    0.0346 N   0  0  0  0  0  0  0  0  0  0  0  0
    5.8238    0.2498    0.1148 C   0  0  0  0  0  0  0  0  0  0  0  0
    6.8512    0.7377    0.9310 C   0  0  0  0  0  0  0  0  0  0  0  0
    8.0666    0.0541    1.0048 C   0  0  0  0  0  0  0  0  0  0  0  0
    8.2613   -1.1109    0.2641 C   0  0  0  0  0  0  0  0  0  0  0  0
    7.2414   -1.5975   -0.5524 C   0  0  0  0  0  0  0  0  0  0  0  0
    6.0221   -0.9213   -0.6284 C   0  0  0  0  0  0  0  0  0  0  0  0
    5.1689    4.1974   -0.8043 H   0  0  0  0  0  0  0  0  0  0  0  0
    6.3301    2.8827   -0.9419 H   0  0  0  0  0  0  0  0  0  0  0  0
    5.9468    3.5850    0.6557 H   0  0  0  0  0  0  0  0  0  0  0  0
    2.6393    3.5619   -0.3648 H   0  0  0  0  0  0  0  0  0  0  0  0
    0.4063    2.1500    0.1444 H   0  0  0  0  0  0  0  0  0  0  0  0
    0.7377   -0.7052   -0.9618 H   0  0  0  0  0  0  0  0  0  0  0  0
   -1.2342    1.6893   -2.2477 H   0  0  0  0  0  0  0  0  0  0  0  0
   -3.6725    1.7007   -2.4751 H   0  0  0  0  0  0  0  0  0  0  0  0
   -5.8247    0.8501   -1.8151 H   0  0  0  0  0  0  0  0  0  0  0  0
   -8.1407   -2.6954   -0.2539 H   0  0  0  0  0  0  0  0  0  0  0  0
   -8.2798   -1.7188    1.2409 H   0  0  0  0  0  0  0  0  0  0  0  0
   -9.4747   -1.5578   -0.0271 H   0  0  0  0  0  0  0  0  0  0  0  0
   -7.9929    1.1087   -1.5683 H   0  0  0  0  0  0  0  0  0  0  0  0
   -9.3198   -0.0312   -1.5438 H   0  0  0  0  0  0  0  0  0  0  0  0
   -7.9070   -0.3906   -2.5433 H   0  0  0  0  0  0  0  0  0  0  0  0
   -6.1241   -2.1808    1.2174 H   0  0  0  0  0  0  0  0  0  0  0  0
   -3.7630   -2.1940    1.4785 H   0  0  0  0  0  0  0  0  0  0  0  0
   -1.8053   -1.2525    2.1097 H   0  0  0  0  0  0  0  0  0  0  0  0
   -0.2637   -1.2321    1.2639 H   0  0  0  0  0  0  0  0  0  0  0  0
   -1.4410   -2.5036    0.8532 H   0  0  0  0  0  0  0  0  0  0  0  0
    3.0574   -1.7011   -0.4327 H   0  0  0  0  0  0  0  0  0  0  0  0
    3.9026   -1.4594    1.1180 H   0  0  0  0  0  0  0  0  0  0  0  0
    2.1773   -1.2167    1.0263 H   0  0  0  0  0  0  0  0  0  0  0  0
    6.7146    1.6212    1.5481 H   0  0  0  0  0  0  0  0  0  0  0  0
    8.8621    0.4276    1.6456 H   0  0  0  0  0  0  0  0  0  0  0  0
    9.2109   -1.6380    0.3212 H   0  0  0  0  0  0  0  0  0  0  0  0
    7.4025   -2.4989   -1.1389 H   0  0  0  0  0  0  0  0  0  0  0  0
    5.2589   -1.2976   -1.3035 H   0  0  0  0  0  0  0  0  0  0  0  0
  1  2  1  0
  2  3  2  0
  3  4  1  0
  4  5  1  0
  5  6  2  3
  6  7  1  0
  7  8  2  0
  8  9  1  0
  9 10  2  0
 10 11  1  0
 11 12  2  0
 12 13  1  0
 13 14  1  0
 13 15  1  0
 12 16  1  0
 16 17  2  0
 17 18  1  0
 18 19  2  0
 19 20  1  0
  4 21  2  0
 21 22  1  0
 21 23  1  0
 23 24  1  0
 24 25  2  0
 25 26  1  0
 26 27  2  0
 27 28  1  0
 28 29  2  0
 23  2  1  0
 29 24  1  0
 19  7  1  0
 18 10  1  0
  1 30  1  0
  1 31  1  0
  1 32  1  0
  3 33  1  0
  5 34  1  0
  6 35  1  0
  8 36  1  0
  9 37  1  0
 11 38  1  0
 14 39  1  0
 14 40  1  0
 14 41  1  0
 15 42  1  0
 15 43  1  0
 15 44  1  0
 16 45  1  0
 17 46  1  0
 20 47  1  0
 20 48  1  0
 20 49  1  0
 22 50  1  0
 22 51  1  0
 22 52  1  0
 25 53  1  0
 26 54  1  0
 27 55  1  0
 28 56  1  0
 29 57  1  0
M  CHG  1  19   1
M  END
$$$$
