
     RDKit          3D

 42 41  0  0  0  0  0  0  0  0999 V2000
   -4.5839   -0.4822    2.3961 C   0  0  0  0  0  0  0  0  0  0  0  0
   -4.0081   -1.7540    1.8370 C   0  0  0  0  0  0  0  0  0  0  0  0
   -4.8948   -2.9608    2.0027 C   0  0  0  0  0  0  0  0  0  0  0  0
   -2.8144   -1.8584    1.2210 C   0  0  0  0  0  0  0  0  0  0  0  0
   -1.7957   -0.7721    1.0001 C   0  0  0  0  0  0  0  0  0  0  0  0
   -1.8145   -0.2741   -0.4495 C   0  0  0  0  0  0  0  0  0  0  0  0
   -0.7512    0.7752   -0.7181 C   0  0  0  0  0  0  0  0  0  0  0  0
   -1.0696    2.1570   -0.2130 C   0  0  0  0  0  0  0  0  0  0  0  0
    0.3761    0.4453   -1.3799 C   0  0  0  0  0  0  0  0  0  0  0  0
    1.5142    1.3545   -1.7587 C   0  0  0  0  0  0  0  0  0  0  0  0
    2.5938    1.5003   -0.6760 C   0  0  0  0  0  0  0  0  0  0  0  0
    3.4789    0.2819   -0.4761 C   0  0  0  0  0  0  0  0  0  0  0  0
    2.9417   -0.7798    0.4493 C   0  0  0  0  0  0  0  0  0  0  0  0
    4.7096    0.1557   -1.0158 C   0  0  0  0  0  0  0  0  0  0  0  0
    5.4097    1.1313   -1.9110 C   0  0  0  0  0  0  0  0  0  0  0  0
    4.6693    1.3274   -3.1039 O   0  0  0  0  0  0  0  0  0  0  0  0
   -5.5893   -0.3164    1.9939 H   0  0  0  0  0  0  0  0  0  0  0  0
   -4.6561   -0.5493    3.4864 H   0  0  0  0  0  0  0  0  0  0  0  0
   -3.9958    0.4050    2.1509 H   0  0  0  0  0  0  0  0  0  0  0  0
   -5.0944   -3.1404    3.0642 H   0  0  0  0  0  0  0  0  0  0  0  0
   -4.4422   -3.8693    1.5916 H   0  0  0  0  0  0  0  0  0  0  0  0
   -5.8495   -2.8038    1.4901 H   0  0  0  0  0  0  0  0  0  0  0  0
   -2.5109   -2.8333    0.8390 H   0  0  0  0  0  0  0  0  0  0  0  0
   -1.9421    0.0579    1.6978 H   0  0  0  0  0  0  0  0  0  0  0  0
   -0.8063   -1.1847    1.2375 H   0  0  0  0  0  0  0  0  0  0  0  0
   -1.6793   -1.1277   -1.1277 H   0  0  0  0  0  0  0  0  0  0  0  0
   -2.7996    0.1441   -0.6943 H   0  0  0  0  0  0  0  0  0  0  0  0
   -1.2289    2.1427    0.8696 H   0  0  0  0  0  0  0  0  0  0  0  0
   -0.2745    2.8810   -0.4074 H   0  0  0  0  0  0  0  0  0  0  0  0
   -1.9807    2.5313   -0.6911 H   0  0  0  0  0  0  0  0  0  0  0  0
    0.5068   -0.5873   -1.7026 H   0  0  0  0  0  0  0  0  0  0  0  0
    1.9578    0.9785   -2.6886 H   0  0  0  0  0  0  0  0  0  0  0  0
    1.1262    2.3487   -2.0097 H   0  0  0  0  0  0  0  0  0  0  0  0
    2.1341    1.7729    0.2830 H   0  0  0  0  0  0  0  0  0  0  0  0
    3.2154    2.3645   -0.9411 H   0  0  0  0  0  0  0  0  0  0  0  0
    2.0907   -1.2978    0.0002 H   0  0  0  0  0  0  0  0  0  0  0  0
    3.6963   -1.5377    0.6865 H   0  0  0  0  0  0  0  0  0  0  0  0
    2.6212   -0.3346    1.3969 H   0  0  0  0  0  0  0  0  0  0  0  0
    5.2937   -0.7332   -0.7820 H   0  0  0  0  0  0  0  0  0  0  0  0
    6.3951    0.7419   -2.1861 H   0  0  0  0  0  0  0  0  0  0  0  0
    5.5603    2.0938   -1.4133 H   0  0  0  0  0  0  0  0  0  0  0  0
    4.2909    0.4659   -3.3479 H   0  0  0  0  0  0  0  0  0  0  0  0
  1  2  1  0
  2  3  1  0
  2  4  2  3
  4  5  1  0
  5  6  1  0
  6  7  1  0
  7  8  1  0
  7  9  2  3
  9 10  1  0
 10 11  1  0
 11 12  1  0
 12 13  1  0
 12 14  2  3
 14 15  1  0
 15 16  1  0
  1 17  1  0
  1 18  1  0
  1 19  1  0
  3 20  1  0
  3 21  1  0
  3 22  1  0
  4 23  1  0
  5 24  1  0
  5 25  1  0
  6 26  1  0
  6 27  1  0
  8 28  1  0
  8 29  1  0
  8 30  1  0
  9 31  1  0
 10 32  1  0
 10 33  1  0
 11 34  1  0
 11 35  1  0
 13 36  1  0
 13 37  1  0
 13 38  1  0
 14 39  1  0
 15 40  1  0
 15 41  1  0
 16 42  1  0
M  END
$$$$
