
     RDKit          3D

 61 67  0  0  0  0  0  0  0  0999 V2000
    3.2045    1.3739    2.6009 O   0  0  0  0  0  0  0  0  0  0  0  0
    3.1213    0.7865    1.5255 C   0  0  0  0  0  0  0  0  0  0  0  0
    4.3822    0.3748    0.8705 C   0  0  0  0  0  0  0  0  0  0  0  0
    4.6737    0.8026   -0.4429 C   0  0  0  0  0  0  0  0  0  0  0  0
    5.8748    0.4303   -1.0531 C   0  0  0  0  0  0  0  0  0  0  0  0
    6.7477   -0.3488   -0.3223 C   0  0  0  0  0  0  0  0  0  0  0  0
    6.4666   -0.7493    0.9649 C   0  0  0  0  0  0  0  0  0  0  0  0
    5.2957   -0.3959    1.5983 C   0  0  0  0  0  0  0  0  0  0  0  0
    7.4610   -1.5066    1.4998 O   0  0  0  0  0  0  0  0  0  0  0  0
    8.4058   -1.5295    0.4087 C   0  0  0  0  0  0  0  0  0  0  0  0
    7.9547   -0.8037   -0.7543 O   0  0  0  0  0  0  0  0  0  0  0  0
    1.9049    0.5065    0.8838 N   0  0  0  0  0  0  0  0  0  0  0  0
    0.7065    0.9421    1.5898 C   0  0  0  0  0  0  0  0  0  0  0  0
   -0.5024    1.0594    0.6646 C   0  0  0  0  0  0  0  0  0  0  0  0
   -0.7695   -0.2523   -0.1156 C   0  0  0  0  0  0  0  0  0  0  0  0
    0.5447   -0.5816   -0.8775 C   0  0  0  0  0  0  0  0  0  0  0  0
    1.7432   -0.6903    0.0607 C   0  0  0  0  0  0  0  0  0  0  0  0
   -1.0376   -1.2598    0.8900 O   0  0  0  0  0  0  0  0  0  0  0  0
   -1.4853   -2.4636    0.4253 C   0  0  0  0  0  0  0  0  0  0  0  0
   -1.3546   -3.5458    1.2968 C   0  0  0  0  0  0  0  0  0  0  0  0
   -1.7647   -4.8163    0.8928 C   0  0  0  0  0  0  0  0  0  0  0  0
   -2.3070   -4.9932   -0.3761 C   0  0  0  0  0  0  0  0  0  0  0  0
   -2.6987   -6.2152   -0.7586 F   0  0  0  0  0  0  0  0  0  0  0  0
   -2.4601   -3.9220   -1.2471 C   0  0  0  0  0  0  0  0  0  0  0  0
   -2.0558   -2.6510   -0.8344 C   0  0  0  0  0  0  0  0  0  0  0  0
   -2.2379   -1.4823   -1.7163 C   0  0  0  0  0  0  0  0  0  0  0  0
   -2.6174   -1.6484   -2.8713 O   0  0  0  0  0  0  0  0  0  0  0  0
   -1.9873   -0.1216   -1.0727 C   0  0  0  0  0  0  0  0  0  0  0  0
   -3.2937    0.3263   -0.4260 C   0  0  0  0  0  0  0  0  0  0  0  0
   -3.3321    1.7344   -0.9073 C   0  0  0  0  0  0  0  0  0  0  0  0
   -4.3130    2.7180   -0.3897 C   0  0  0  0  0  0  0  0  0  0  0  0
   -5.2766    2.3617    0.5618 C   0  0  0  0  0  0  0  0  0  0  0  0
   -6.2013    3.3106    1.0125 C   0  0  0  0  0  0  0  0  0  0  0  0
   -6.1648    4.6119    0.5130 C   0  0  0  0  0  0  0  0  0  0  0  0
   -7.3125    5.7687    1.0601 Cl  0  0  0  0  0  0  0  0  0  0  0  0
   -5.2081    4.9764   -0.4311 C   0  0  0  0  0  0  0  0  0  0  0  0
   -4.2824    4.0307   -0.8816 C   0  0  0  0  0  0  0  0  0  0  0  0
   -2.4555    2.0213   -1.8150 N   0  0  0  0  0  0  0  0  0  0  0  0
   -1.7250    0.8447   -2.0950 O   0  0  0  0  0  0  0  0  0  0  0  0
    3.9666    1.4307   -0.9790 H   0  0  0  0  0  0  0  0  0  0  0  0
    6.1184    0.7458   -2.0611 H   0  0  0  0  0  0  0  0  0  0  0  0
    5.0920   -0.7004    2.6180 H   0  0  0  0  0  0  0  0  0  0  0  0
    9.3514   -1.0921    0.7521 H   0  0  0  0  0  0  0  0  0  0  0  0
    8.5849   -2.5726    0.1216 H   0  0  0  0  0  0  0  0  0  0  0  0
    0.5152    0.2260    2.3982 H   0  0  0  0  0  0  0  0  0  0  0  0
    0.8904    1.9152    2.0601 H   0  0  0  0  0  0  0  0  0  0  0  0
   -0.3288    1.8868   -0.0341 H   0  0  0  0  0  0  0  0  0  0  0  0
   -1.3631    1.3255    1.2880 H   0  0  0  0  0  0  0  0  0  0  0  0
    0.4673   -1.5269   -1.4246 H   0  0  0  0  0  0  0  0  0  0  0  0
    0.7474    0.2000   -1.6210 H   0  0  0  0  0  0  0  0  0  0  0  0
    1.6310   -1.5429    0.7420 H   0  0  0  0  0  0  0  0  0  0  0  0
    2.6390   -0.8867   -0.5324 H   0  0  0  0  0  0  0  0  0  0  0  0
   -0.9220   -3.4036    2.2844 H   0  0  0  0  0  0  0  0  0  0  0  0
   -1.6626   -5.6703    1.5562 H   0  0  0  0  0  0  0  0  0  0  0  0
   -2.8971   -4.0843   -2.2283 H   0  0  0  0  0  0  0  0  0  0  0  0
   -4.1727   -0.1997   -0.8167 H   0  0  0  0  0  0  0  0  0  0  0  0
   -3.2895    0.2520    0.6639 H   0  0  0  0  0  0  0  0  0  0  0  0
   -5.3385    1.3531    0.9614 H   0  0  0  0  0  0  0  0  0  0  0  0
   -6.9508    3.0269    1.7474 H   0  0  0  0  0  0  0  0  0  0  0  0
   -5.1785    5.9892   -0.8259 H   0  0  0  0  0  0  0  0  0  0  0  0
   -3.5438    4.3247   -1.6263 H   0  0  0  0  0  0  0  0  0  0  0  0
  1  2  2  0
  2  3  1  0
  3  4  2  0
  4  5  1  0
  5  6  2  0
  6  7  1  0
  7  8  2  0
  7  9  1  0
  9 10  1  0
 10 11  1  0
  2 12  1  0
 12 13  1  0
 13 14  1  0
 14 15  1  0
 15 16  1  0
 16 17  1  0
 15 18  1  0
 18 19  1  0
 19 20  2  0
 20 21  1  0
 21 22  2  0
 22 23  1  0
 22 24  1  0
 24 25  2  0
 25 26  1  0
 26 27  2  0
 26 28  1  0
 28 29  1  0
 29 30  1  0
 30 31  1  0
 31 32  2  0
 32 33  1  0
 33 34  2  0
 34 35  1  0
 34 36  1  0
 36 37  2  0
 30 38  2  0
 38 39  1  0
  8  3  1  0
 17 12  1  0
 25 19  1  0
 39 28  1  0
 11  6  1  0
 28 15  1  0
 37 31  1  0
  4 40  1  0
  5 41  1  0
  8 42  1  0
 10 43  1  0
 10 44  1  0
 13 45  1  0
 13 46  1  0
 14 47  1  0
 14 48  1  0
 16 49  1  0
 16 50  1  0
 17 51  1  0
 17 52  1  0
 20 53  1  0
 21 54  1  0
 24 55  1  0
 29 56  1  0
 29 57  1  0
 32 58  1  0
 33 59  1  0
 36 60  1  0
 37 61  1  0
M  END
$$$$
