
     RDKit          3D

 42 41  0  0  0  0  0  0  0  0999 V2000
   -4.6321   -1.8462    2.3331 C   0  0  0  0  0  0  0  0  0  0  0  0
   -3.3388   -1.1246    2.6011 C   0  0  0  0  0  0  0  0  0  0  0  0
   -2.8338   -1.2572    4.0155 C   0  0  0  0  0  0  0  0  0  0  0  0
   -2.6508   -0.4061    1.6922 C   0  0  0  0  0  0  0  0  0  0  0  0
   -3.0360   -0.1147    0.2654 C   0  0  0  0  0  0  0  0  0  0  0  0
   -2.2974   -0.9742   -0.7735 C   0  0  0  0  0  0  0  0  0  0  0  0
   -0.8016   -0.7054   -0.8543 C   0  0  0  0  0  0  0  0  0  0  0  0
    0.0642   -1.5866    0.0058 C   0  0  0  0  0  0  0  0  0  0  0  0
   -0.3373    0.2478   -1.6884 C   0  0  0  0  0  0  0  0  0  0  0  0
    1.0693    0.7463   -1.9162 C   0  0  0  0  0  0  0  0  0  0  0  0
    1.9753    0.8690   -0.6840 C   0  0  0  0  0  0  0  0  0  0  0  0
    3.1630    1.7778   -0.9337 C   0  0  0  0  0  0  0  0  0  0  0  0
    2.9739    3.2094   -0.4973 C   0  0  0  0  0  0  0  0  0  0  0  0
    4.3301    1.3739   -1.4760 C   0  0  0  0  0  0  0  0  0  0  0  0
    4.6933    0.0083   -1.9578 C   0  0  0  0  0  0  0  0  0  0  0  0
    4.9804    0.1027   -3.3463 O   0  0  0  0  0  0  0  0  0  0  0  0
   -5.4496   -1.3683    2.8840 H   0  0  0  0  0  0  0  0  0  0  0  0
   -4.5572   -2.8886    2.6655 H   0  0  0  0  0  0  0  0  0  0  0  0
   -4.9023   -1.8727    1.2748 H   0  0  0  0  0  0  0  0  0  0  0  0
   -1.8824   -0.7356    4.1688 H   0  0  0  0  0  0  0  0  0  0  0  0
   -3.5637   -0.8299    4.7125 H   0  0  0  0  0  0  0  0  0  0  0  0
   -2.6813   -2.3110    4.2761 H   0  0  0  0  0  0  0  0  0  0  0  0
   -1.7198    0.0672    2.0021 H   0  0  0  0  0  0  0  0  0  0  0  0
   -2.8425    0.9482    0.0699 H   0  0  0  0  0  0  0  0  0  0  0  0
   -4.1141   -0.2397    0.1214 H   0  0  0  0  0  0  0  0  0  0  0  0
   -2.7491   -0.7767   -1.7564 H   0  0  0  0  0  0  0  0  0  0  0  0
   -2.4815   -2.0387   -0.5860 H   0  0  0  0  0  0  0  0  0  0  0  0
    0.9994   -1.8456   -0.4985 H   0  0  0  0  0  0  0  0  0  0  0  0
   -0.4319   -2.5387    0.2306 H   0  0  0  0  0  0  0  0  0  0  0  0
    0.2857   -1.0898    0.9563 H   0  0  0  0  0  0  0  0  0  0  0  0
   -1.0729    0.7817   -2.2921 H   0  0  0  0  0  0  0  0  0  0  0  0
    0.9706    1.7444   -2.3655 H   0  0  0  0  0  0  0  0  0  0  0  0
    1.5455    0.1213   -2.6811 H   0  0  0  0  0  0  0  0  0  0  0  0
    2.3371   -0.1150   -0.3698 H   0  0  0  0  0  0  0  0  0  0  0  0
    1.4028    1.2554    0.1690 H   0  0  0  0  0  0  0  0  0  0  0  0
    2.1396    3.6675   -1.0422 H   0  0  0  0  0  0  0  0  0  0  0  0
    2.7572    3.2531    0.5760 H   0  0  0  0  0  0  0  0  0  0  0  0
    3.8650    3.8223   -0.6790 H   0  0  0  0  0  0  0  0  0  0  0  0
    5.1297    2.1064   -1.5972 H   0  0  0  0  0  0  0  0  0  0  0  0
    3.9066   -0.7394   -1.8193 H   0  0  0  0  0  0  0  0  0  0  0  0
    5.5918   -0.3433   -1.4441 H   0  0  0  0  0  0  0  0  0  0  0  0
    4.1960    0.5048   -3.7613 H   0  0  0  0  0  0  0  0  0  0  0  0
  1  2  1  0
  2  3  1  0
  2  4  2  3
  4  5  1  0
  5  6  1  0
  6  7  1  0
  7  8  1  0
  7  9  2  3
  9 10  1  0
 10 11  1  0
 11 12  1  0
 12 13  1  0
 12 14  2  3
 14 15  1  0
 15 16  1  0
  1 17  1  0
  1 18  1  0
  1 19  1  0
  3 20  1  0
  3 21  1  0
  3 22  1  0
  4 23  1  0
  5 24  1  0
  5 25  1  0
  6 26  1  0
  6 27  1  0
  8 28  1  0
  8 29  1  0
  8 30  1  0
  9 31  1  0
 10 32  1  0
 10 33  1  0
 11 34  1  0
 11 35  1  0
 13 36  1  0
 13 37  1  0
 13 38  1  0
 14 39  1  0
 15 40  1  0
 15 41  1  0
 16 42  1  0
M  END
$$$$
