
     RDKit          3D

 57 61  0  0  0  0  0  0  0  0999 V2000
    1.7222   -3.6133    1.4028 O   0  0  0  0  0  0  0  0  0  0  0  0
    0.7400   -3.2120    0.7890 C   0  0  0  0  0  0  0  0  0  0  0  0
    0.7191   -1.9744    0.1527 N   0  0  0  0  0  0  0  0  0  0  0  0
   -0.3780   -1.4694   -0.5370 C   0  0  0  0  0  0  0  0  0  0  0  0
   -0.2227   -0.0997   -1.1879 C   0  0  0  0  0  0  0  0  0  0  0  0
    0.7628   -0.1454   -2.3627 C   0  0  0  0  0  0  0  0  0  0  0  0
    2.1815    0.2768   -2.0031 C   0  0  0  0  0  0  0  0  0  0  0  0
    2.2350    1.5590   -1.2501 N   0  0  0  0  0  0  0  0  0  0  0  0
    3.3175    2.7085   -1.8990 S   0  0  0  0  0  6  0  0  0  0  0  0
    4.5472    2.0565   -2.2880 O   0  0  0  0  0  0  0  0  0  0  0  0
    2.5525    3.4862   -2.8549 O   0  0  0  0  0  0  0  0  0  0  0  0
    3.6943    3.7524   -0.5017 C   0  0  0  0  0  0  0  0  0  0  0  0
    3.5103    5.1382   -0.6754 C   0  0  0  0  0  0  0  0  0  0  0  0
    3.7538    6.0160    0.3777 C   0  0  0  0  0  0  0  0  0  0  0  0
    4.1890    5.5208    1.6035 C   0  0  0  0  0  0  0  0  0  0  0  0
    4.3731    4.1447    1.7790 C   0  0  0  0  0  0  0  0  0  0  0  0
    4.1331    3.2301    0.7317 C   0  0  0  0  0  0  0  0  0  0  0  0
    4.3048    1.7549    1.0229 C   0  0  0  0  0  0  0  0  0  0  0  0
    3.1197    1.1360    1.2874 F   0  0  0  0  0  0  0  0  0  0  0  0
    4.9070    1.0355    0.0468 F   0  0  0  0  0  0  0  0  0  0  0  0
    5.0644    1.5336    2.1364 F   0  0  0  0  0  0  0  0  0  0  0  0
    0.9216    2.1038   -0.8166 C   0  0  0  0  0  0  0  0  0  0  0  0
    0.1063    0.9944   -0.1686 C   0  0  0  0  0  0  0  0  0  0  0  0
   -1.5106   -2.1050   -0.6791 N   0  0  0  0  0  0  0  0  0  0  0  0
   -1.5175   -3.3138   -0.0652 C   0  0  0  0  0  0  0  0  0  0  0  0
   -0.5040   -3.9183    0.6389 C   0  0  0  0  0  0  0  0  0  0  0  0
   -0.8976   -5.1403    1.0926 N   0  0  0  0  0  0  0  0  0  0  0  0
   -2.1580   -5.3240    0.6949 N   0  0  0  0  0  0  0  0  0  0  0  0
   -2.5438   -4.2126    0.0186 N   0  0  0  0  0  0  0  0  0  0  0  0
   -3.8756   -4.1035   -0.5384 C   0  0  0  0  0  0  0  0  0  0  0  0
   -4.7891   -3.3199    0.3716 C   0  0  0  0  0  0  0  0  0  0  0  0
   -5.3787   -3.9339    1.4864 C   0  0  0  0  0  0  0  0  0  0  0  0
   -6.2032   -3.2030    2.3438 C   0  0  0  0  0  0  0  0  0  0  0  0
   -6.4472   -1.8516    2.0936 C   0  0  0  0  0  0  0  0  0  0  0  0
   -5.8655   -1.2292    0.9880 C   0  0  0  0  0  0  0  0  0  0  0  0
   -5.0361   -1.9579    0.1344 C   0  0  0  0  0  0  0  0  0  0  0  0
    1.5641   -1.4320    0.2791 H   0  0  0  0  0  0  0  0  0  0  0  0
   -1.2068    0.1416   -1.6204 H   0  0  0  0  0  0  0  0  0  0  0  0
    0.3976    0.5367   -3.1425 H   0  0  0  0  0  0  0  0  0  0  0  0
    0.7826   -1.1427   -2.8177 H   0  0  0  0  0  0  0  0  0  0  0  0
    2.6609   -0.4868   -1.3818 H   0  0  0  0  0  0  0  0  0  0  0  0
    2.7635    0.3345   -2.9296 H   0  0  0  0  0  0  0  0  0  0  0  0
    3.1669    5.5434   -1.6293 H   0  0  0  0  0  0  0  0  0  0  0  0
    3.6026    7.0863    0.2417 H   0  0  0  0  0  0  0  0  0  0  0  0
    4.3833    6.2044    2.4295 H   0  0  0  0  0  0  0  0  0  0  0  0
    4.7055    3.7830    2.7564 H   0  0  0  0  0  0  0  0  0  0  0  0
    0.3797    2.5286   -1.6692 H   0  0  0  0  0  0  0  0  0  0  0  0
    1.0722    2.8981   -0.0789 H   0  0  0  0  0  0  0  0  0  0  0  0
    0.6492    0.5950    0.6990 H   0  0  0  0  0  0  0  0  0  0  0  0
   -0.8304    1.4130    0.2287 H   0  0  0  0  0  0  0  0  0  0  0  0
   -4.2665   -5.1149   -0.7021 H   0  0  0  0  0  0  0  0  0  0  0  0
   -3.7914   -3.6298   -1.5226 H   0  0  0  0  0  0  0  0  0  0  0  0
   -5.1934   -4.9838    1.6961 H   0  0  0  0  0  0  0  0  0  0  0  0
   -6.6494   -3.6859    3.2089 H   0  0  0  0  0  0  0  0  0  0  0  0
   -7.0897   -1.2825    2.7613 H   0  0  0  0  0  0  0  0  0  0  0  0
   -6.0525   -0.1732    0.7966 H   0  0  0  0  0  0  0  0  0  0  0  0
   -4.5757   -1.4534   -0.7142 H   0  0  0  0  0  0  0  0  0  0  0  0
  1  2  2  0
  2  3  1  0
  3  4  1  0
  4  5  1  0
  5  6  1  0
  6  7  1  0
  7  8  1  0
  8  9  1  0
  9 10  2  0
  9 11  2  0
  9 12  1  0
 12 13  2  0
 13 14  1  0
 14 15  2  0
 15 16  1  0
 16 17  2  0
 17 18  1  0
 18 19  1  0
 18 20  1  0
 18 21  1  0
  8 22  1  0
 22 23  1  0
  4 24  2  0
 24 25  1  0
 25 26  2  0
 26 27  1  0
 27 28  2  0
 28 29  1  0
 29 30  1  0
 30 31  1  0
 31 32  2  0
 32 33  1  0
 33 34  2  0
 34 35  1  0
 35 36  2  0
 26  2  1  0
 36 31  1  0
 23  5  1  0
 29 25  1  0
 17 12  1  0
  3 37  1  0
  5 38  1  0
  6 39  1  0
  6 40  1  0
  7 41  1  0
  7 42  1  0
 13 43  1  0
 14 44  1  0
 15 45  1  0
 16 46  1  0
 22 47  1  0
 22 48  1  0
 23 49  1  0
 23 50  1  0
 30 51  1  0
 30 52  1  0
 32 53  1  0
 33 54  1  0
 34 55  1  0
 35 56  1  0
 36 57  1  0
M  END
$$$$
