
     RDKit          3D

 51 53  0  0  0  0  0  0  0  0999 V2000
    4.2821   -4.2420    1.5955 C   0  0  0  0  0  0  0  0  0  0  0  0
    4.1453   -2.9170    1.0961 O   0  0  0  0  0  0  0  0  0  0  0  0
    2.8738   -2.4204    0.9623 C   0  0  0  0  0  0  0  0  0  0  0  0
    1.7067   -3.1457    1.2268 C   0  0  0  0  0  0  0  0  0  0  0  0
    0.4528   -2.5471    1.0791 C   0  0  0  0  0  0  0  0  0  0  0  0
    0.3590   -1.2188    0.6661 C   0  0  0  0  0  0  0  0  0  0  0  0
   -0.9555   -0.5579    0.5207 C   0  0  0  0  0  0  0  0  0  0  0  0
   -2.0557   -1.1631    0.8382 N   0  0  0  0  0  0  0  0  0  0  0  0
   -3.2373   -0.4948    0.6409 N   0  0  0  0  0  0  0  0  0  0  0  0
   -3.5266    0.3559   -0.4187 C   0  0  0  0  0  0  0  0  0  0  0  0
   -2.7150    0.7345   -1.2616 O   0  0  0  0  0  0  0  0  0  0  0  0
   -4.9446    0.8461   -0.5109 C   0  0  0  0  0  0  0  0  0  0  0  0
   -5.1609    1.9700   -1.3310 C   0  0  0  0  0  0  0  0  0  0  0  0
   -6.4353    2.5143   -1.4819 C   0  0  0  0  0  0  0  0  0  0  0  0
   -7.5113    1.9416   -0.8146 C   0  0  0  0  0  0  0  0  0  0  0  0
   -7.3177    0.8201   -0.0041 C   0  0  0  0  0  0  0  0  0  0  0  0
   -6.0426    0.2544    0.1490 C   0  0  0  0  0  0  0  0  0  0  0  0
   -5.8032   -0.8511    0.9264 O   0  0  0  0  0  0  0  0  0  0  0  0
   -6.9261   -1.6332    1.3220 C   0  0  0  0  0  0  0  0  0  0  0  0
    1.5168   -0.4881    0.3885 C   0  0  0  0  0  0  0  0  0  0  0  0
    2.7856   -1.0815    0.5263 C   0  0  0  0  0  0  0  0  0  0  0  0
    4.0594   -0.2975    0.2623 C   0  0  0  0  0  0  0  0  0  0  0  0
    3.7757    0.9327   -0.4112 O   0  0  0  0  0  0  0  0  0  0  0  0
    4.8250    1.7571   -0.7147 C   0  0  0  0  0  0  0  0  0  0  0  0
    6.1736    1.5432   -0.4191 C   0  0  0  0  0  0  0  0  0  0  0  0
    6.5785    0.4413    0.2276 F   0  0  0  0  0  0  0  0  0  0  0  0
    7.1399    2.4784   -0.7892 C   0  0  0  0  0  0  0  0  0  0  0  0
    8.4283    2.2559   -0.4924 F   0  0  0  0  0  0  0  0  0  0  0  0
    6.7761    3.6371   -1.4581 C   0  0  0  0  0  0  0  0  0  0  0  0
    7.7100    4.5322   -1.8101 F   0  0  0  0  0  0  0  0  0  0  0  0
    5.4442    3.8658   -1.7605 C   0  0  0  0  0  0  0  0  0  0  0  0
    5.0860    4.9839   -2.4066 F   0  0  0  0  0  0  0  0  0  0  0  0
    4.4785    2.9339   -1.3904 C   0  0  0  0  0  0  0  0  0  0  0  0
    3.1935    3.1754   -1.6905 F   0  0  0  0  0  0  0  0  0  0  0  0
    3.8544   -4.3308    2.6000 H   0  0  0  0  0  0  0  0  0  0  0  0
    3.8396   -4.9697    0.9084 H   0  0  0  0  0  0  0  0  0  0  0  0
    5.3515   -4.4622    1.6692 H   0  0  0  0  0  0  0  0  0  0  0  0
    1.7342   -4.1810    1.5530 H   0  0  0  0  0  0  0  0  0  0  0  0
   -0.4461   -3.1221    1.2892 H   0  0  0  0  0  0  0  0  0  0  0  0
   -0.9288    0.4860    0.1660 H   0  0  0  0  0  0  0  0  0  0  0  0
   -4.0322   -0.9164    1.1186 H   0  0  0  0  0  0  0  0  0  0  0  0
   -4.3259    2.4319   -1.8569 H   0  0  0  0  0  0  0  0  0  0  0  0
   -6.5827    3.3843   -2.1168 H   0  0  0  0  0  0  0  0  0  0  0  0
   -8.5063    2.3671   -0.9240 H   0  0  0  0  0  0  0  0  0  0  0  0
   -8.1887    0.4145    0.5018 H   0  0  0  0  0  0  0  0  0  0  0  0
   -6.5463   -2.5452    1.7931 H   0  0  0  0  0  0  0  0  0  0  0  0
   -7.5289   -1.1018    2.0655 H   0  0  0  0  0  0  0  0  0  0  0  0
   -7.5286   -1.9305    0.4576 H   0  0  0  0  0  0  0  0  0  0  0  0
    1.4309    0.5480    0.0636 H   0  0  0  0  0  0  0  0  0  0  0  0
    4.7181   -0.9011   -0.3737 H   0  0  0  0  0  0  0  0  0  0  0  0
    4.5265   -0.0866    1.2321 H   0  0  0  0  0  0  0  0  0  0  0  0
  1  2  1  0
  2  3  1  0
  3  4  2  0
  4  5  1  0
  5  6  2  0
  6  7  1  0
  7  8  2  3
  8  9  1  0
  9 10  1  0
 10 11  2  0
 10 12  1  0
 12 13  2  0
 13 14  1  0
 14 15  2  0
 15 16  1  0
 16 17  2  0
 17 18  1  0
 18 19  1  0
  6 20  1  0
 20 21  2  0
 21 22  1  0
 22 23  1  0
 23 24  1  0
 24 25  2  0
 25 26  1  0
 25 27  1  0
 27 28  1  0
 27 29  2  0
 29 30  1  0
 29 31  1  0
 31 32  1  0
 31 33  2  0
 33 34  1  0
 21  3  1  0
 33 24  1  0
 17 12  1  0
  1 35  1  0
  1 36  1  0
  1 37  1  0
  4 38  1  0
  5 39  1  0
  7 40  1  0
  9 41  1  0
 13 42  1  0
 14 43  1  0
 15 44  1  0
 16 45  1  0
 19 46  1  0
 19 47  1  0
 19 48  1  0
 20 49  1  0
 22 50  1  0
 22 51  1  0
M  END
$$$$
