
     RDKit          3D

 54 57  0  0  0  0  0  0  0  0999 V2000
    6.4656   -1.0083    3.3478 C   0  0  0  0  0  0  0  0  0  0  0  0
    6.9284   -1.0616    1.8897 C   0  0  0  0  0  0  0  0  0  0  0  0
    8.1031   -0.1085    1.6551 C   0  0  0  0  0  0  0  0  0  0  0  0
    5.7847   -0.7836    0.9310 C   0  0  0  0  0  0  0  0  0  0  0  0
    5.1055    0.4409    0.9253 C   0  0  0  0  0  0  0  0  0  0  0  0
    4.0546    0.6697    0.0308 C   0  0  0  0  0  0  0  0  0  0  0  0
    3.6582   -0.3184   -0.8768 C   0  0  0  0  0  0  0  0  0  0  0  0
    2.5927   -0.0034   -1.7415 N   0  0  0  0  0  0  0  0  0  0  0  0
    1.9889   -0.8191   -2.6822 C   0  0  0  0  0  0  0  0  0  0  0  0
    2.2774   -1.9861   -2.9322 O   0  0  0  0  0  0  0  0  0  0  0  0
    0.8665   -0.1105   -3.4515 C   0  0  0  0  0  0  0  0  0  0  0  0
   -0.3448    0.0424   -2.7080 O   0  0  0  0  0  0  0  0  0  0  0  0
   -0.3623    1.0687   -1.8272 C   0  0  0  0  0  0  0  0  0  0  0  0
    0.5684    1.8306   -1.6111 O   0  0  0  0  0  0  0  0  0  0  0  0
   -1.6740    1.1469   -1.1295 C   0  0  0  0  0  0  0  0  0  0  0  0
   -1.8559    2.1484   -0.1687 C   0  0  0  0  0  0  0  0  0  0  0  0
   -3.0730    2.2626    0.5141 C   0  0  0  0  0  0  0  0  0  0  0  0
   -4.1329    1.3801    0.2509 C   0  0  0  0  0  0  0  0  0  0  0  0
   -3.9396    0.3929   -0.7045 C   0  0  0  0  0  0  0  0  0  0  0  0
   -2.7242    0.2632   -1.3973 C   0  0  0  0  0  0  0  0  0  0  0  0
   -5.2225   -0.7331   -1.0861 S   0  0  0  0  0  6  0  0  0  0  0  0
   -4.7382   -2.0420   -0.6975 O   0  0  0  0  0  0  0  0  0  0  0  0
   -5.6246   -0.4369   -2.4463 O   0  0  0  0  0  0  0  0  0  0  0  0
   -6.6015   -0.3890   -0.0705 C   0  0  0  0  0  0  0  0  0  0  0  0
   -7.7338   -1.2057   -0.1976 C   0  0  0  0  0  0  0  0  0  0  0  0
   -8.8530   -0.9612    0.5942 C   0  0  0  0  0  0  0  0  0  0  0  0
   -8.8378    0.0921    1.5051 C   0  0  0  0  0  0  0  0  0  0  0  0
   -7.7027    0.8996    1.6237 C   0  0  0  0  0  0  0  0  0  0  0  0
   -6.5663    0.6644    0.8324 C   0  0  0  0  0  0  0  0  0  0  0  0
   -5.3952    1.5552    1.0074 C   0  0  0  0  0  0  0  0  0  0  0  0
   -5.4696    2.4779    1.8147 O   0  0  0  0  0  0  0  0  0  0  0  0
    4.3316   -1.5382   -0.8766 C   0  0  0  0  0  0  0  0  0  0  0  0
    5.3837   -1.7685    0.0187 C   0  0  0  0  0  0  0  0  0  0  0  0
    7.2818   -1.2917    4.0211 H   0  0  0  0  0  0  0  0  0  0  0  0
    5.6337   -1.7003    3.5196 H   0  0  0  0  0  0  0  0  0  0  0  0
    6.1306   -0.0058    3.6353 H   0  0  0  0  0  0  0  0  0  0  0  0
    7.2981   -2.0793    1.7063 H   0  0  0  0  0  0  0  0  0  0  0  0
    8.4423   -0.1539    0.6142 H   0  0  0  0  0  0  0  0  0  0  0  0
    7.8372    0.9312    1.8745 H   0  0  0  0  0  0  0  0  0  0  0  0
    8.9502   -0.3770    2.2955 H   0  0  0  0  0  0  0  0  0  0  0  0
    5.3864    1.2316    1.6171 H   0  0  0  0  0  0  0  0  0  0  0  0
    3.5508    1.6329    0.0568 H   0  0  0  0  0  0  0  0  0  0  0  0
    2.1808    0.9230   -1.6218 H   0  0  0  0  0  0  0  0  0  0  0  0
    0.6299   -0.7175   -4.3326 H   0  0  0  0  0  0  0  0  0  0  0  0
    1.2233    0.8551   -3.8316 H   0  0  0  0  0  0  0  0  0  0  0  0
   -1.0526    2.8488    0.0579 H   0  0  0  0  0  0  0  0  0  0  0  0
   -3.1852    3.0524    1.2577 H   0  0  0  0  0  0  0  0  0  0  0  0
   -2.6139   -0.5277   -2.1386 H   0  0  0  0  0  0  0  0  0  0  0  0
   -7.7451   -2.0291   -0.9102 H   0  0  0  0  0  0  0  0  0  0  0  0
   -9.7359   -1.5901    0.5019 H   0  0  0  0  0  0  0  0  0  0  0  0
   -9.7094    0.2880    2.1262 H   0  0  0  0  0  0  0  0  0  0  0  0
   -7.7135    1.7178    2.3436 H   0  0  0  0  0  0  0  0  0  0  0  0
    4.0664   -2.3370   -1.5617 H   0  0  0  0  0  0  0  0  0  0  0  0
    5.8868   -2.7331   -0.0085 H   0  0  0  0  0  0  0  0  0  0  0  0
  1  2  1  0
  2  3  1  0
  2  4  1  0
  4  5  2  0
  5  6  1  0
  6  7  2  0
  7  8  1  0
  8  9  1  0
  9 10  2  0
  9 11  1  0
 11 12  1  0
 12 13  1  0
 13 14  2  0
 13 15  1  0
 15 16  2  0
 16 17  1  0
 17 18  2  0
 18 19  1  0
 19 20  2  0
 19 21  1  0
 21 22  2  0
 21 23  2  0
 21 24  1  0
 24 25  2  0
 25 26  1  0
 26 27  2  0
 27 28  1  0
 28 29  2  0
 29 30  1  0
 30 31  2  0
  7 32  1  0
 32 33  2  0
 33  4  1  0
 20 15  1  0
 29 24  1  0
 30 18  1  0
  1 34  1  0
  1 35  1  0
  1 36  1  0
  2 37  1  0
  3 38  1  0
  3 39  1  0
  3 40  1  0
  5 41  1  0
  6 42  1  0
  8 43  1  0
 11 44  1  0
 11 45  1  0
 16 46  1  0
 17 47  1  0
 20 48  1  0
 25 49  1  0
 26 50  1  0
 27 51  1  0
 28 52  1  0
 32 53  1  0
 33 54  1  0
M  END
$$$$
