
     RDKit          3D

 38 39  0  0  0  0  0  0  0  0999 V2000
    1.9750    1.2972   -2.9036 O   0  0  0  0  0  0  0  0  0  0  0  0
    0.9615    1.2330   -2.2154 C   0  0  0  0  0  0  0  0  0  0  0  0
   -0.4403    1.4983   -2.7731 C   0  0  0  0  0  0  0  0  0  0  0  0
   -1.4498    0.9746   -1.9006 O   0  0  0  0  0  0  0  0  0  0  0  0
   -2.0749    1.8735   -1.1110 C   0  0  0  0  0  0  0  0  0  0  0  0
   -1.9885    3.0874   -1.1827 O   0  0  0  0  0  0  0  0  0  0  0  0
   -2.8936    1.1754   -0.0940 C   0  0  0  0  0  0  0  0  0  0  0  0
   -4.1512    1.7182    0.2003 C   0  0  0  0  0  0  0  0  0  0  0  0
   -4.9549    1.1353    1.1833 C   0  0  0  0  0  0  0  0  0  0  0  0
   -4.4980    0.0121    1.8625 C   0  0  0  0  0  0  0  0  0  0  0  0
   -5.2456   -0.5846    2.8361 O   0  0  0  0  0  0  0  0  0  0  0  0
   -3.2514   -0.5392    1.5842 C   0  0  0  0  0  0  0  0  0  0  0  0
   -2.4400    0.0541    0.6145 C   0  0  0  0  0  0  0  0  0  0  0  0
   -1.1770   -0.4410    0.4117 O   0  0  0  0  0  0  0  0  0  0  0  0
    0.9858    0.9275   -0.8739 N   0  0  0  0  0  0  0  0  0  0  0  0
    2.1847    0.4731   -0.2052 C   0  0  0  0  0  0  0  0  0  0  0  0
    2.5522   -0.9625   -0.5985 C   0  0  0  0  0  0  0  0  0  0  0  0
    3.1933   -1.6776    0.4909 N   0  0  0  0  0  0  0  0  0  0  0  0
    4.5474   -1.6535    0.7192 C   0  0  0  0  0  0  0  0  0  0  0  0
    5.3508   -0.9630   -0.1412 O   0  0  0  0  0  0  0  0  0  0  0  0
    4.9358   -2.3196    1.8148 C   0  0  0  0  0  0  0  0  0  0  0  0
    3.5681   -3.0200    2.6430 S   0  0  0  0  0  0  0  0  0  0  0  0
    2.4393   -2.3255    1.4622 C   0  0  0  0  0  0  0  0  0  0  0  0
    1.2211   -2.4063    1.5473 O   0  0  0  0  0  0  0  0  0  0  0  0
   -0.5320    0.9679   -3.7263 H   0  0  0  0  0  0  0  0  0  0  0  0
   -0.5493    2.5747   -2.9602 H   0  0  0  0  0  0  0  0  0  0  0  0
   -4.4984    2.6020   -0.3292 H   0  0  0  0  0  0  0  0  0  0  0  0
   -5.9215    1.5768    1.4072 H   0  0  0  0  0  0  0  0  0  0  0  0
   -6.0411   -0.0493    2.9904 H   0  0  0  0  0  0  0  0  0  0  0  0
   -2.9232   -1.4073    2.1458 H   0  0  0  0  0  0  0  0  0  0  0  0
   -1.0264   -1.2088    0.9946 H   0  0  0  0  0  0  0  0  0  0  0  0
    0.1052    0.5941   -0.4880 H   0  0  0  0  0  0  0  0  0  0  0  0
    3.0104    1.1557   -0.4333 H   0  0  0  0  0  0  0  0  0  0  0  0
    1.9756    0.5522    0.8694 H   0  0  0  0  0  0  0  0  0  0  0  0
    1.6407   -1.5238   -0.8645 H   0  0  0  0  0  0  0  0  0  0  0  0
    3.1891   -0.9648   -1.4943 H   0  0  0  0  0  0  0  0  0  0  0  0
    6.2719   -1.0162    0.1734 H   0  0  0  0  0  0  0  0  0  0  0  0
    5.9494   -2.4202    2.1762 H   0  0  0  0  0  0  0  0  0  0  0  0
  1  2  2  0
  2  3  1  0
  3  4  1  0
  4  5  1  0
  5  6  2  0
  5  7  1  0
  7  8  2  0
  8  9  1  0
  9 10  2  0
 10 11  1  0
 10 12  1  0
 12 13  2  0
 13 14  1  0
  2 15  1  0
 15 16  1  0
 16 17  1  0
 17 18  1  0
 18 19  1  0
 19 20  1  0
 19 21  2  0
 21 22  1  0
 22 23  1  0
 23 24  2  0
 13  7  1  0
 23 18  1  0
  3 25  1  0
  3 26  1  0
  8 27  1  0
  9 28  1  0
 11 29  1  0
 12 30  1  0
 14 31  1  0
 15 32  1  0
 16 33  1  0
 16 34  1  0
 17 35  1  0
 17 36  1  0
 20 37  1  0
 21 38  1  0
M  END
$$$$
