
     RDKit          3D

 42 41  0  0  0  0  0  0  0  0999 V2000
   -4.6935   -1.9090    1.0954 C   0  0  0  0  0  0  0  0  0  0  0  0
   -4.1609   -0.6456    1.7128 C   0  0  0  0  0  0  0  0  0  0  0  0
   -5.1896    0.1639    2.4577 C   0  0  0  0  0  0  0  0  0  0  0  0
   -2.8851   -0.2215    1.6249 C   0  0  0  0  0  0  0  0  0  0  0  0
   -1.7310   -0.9152    0.9523 C   0  0  0  0  0  0  0  0  0  0  0  0
   -1.4504   -0.4155   -0.4721 C   0  0  0  0  0  0  0  0  0  0  0  0
   -0.9122    1.0004   -0.5533 C   0  0  0  0  0  0  0  0  0  0  0  0
   -1.9377    2.0670   -0.8420 C   0  0  0  0  0  0  0  0  0  0  0  0
    0.3924    1.3209   -0.4376 C   0  0  0  0  0  0  0  0  0  0  0  0
    1.5400    0.3853   -0.1628 C   0  0  0  0  0  0  0  0  0  0  0  0
    2.4571    0.2553   -1.3837 C   0  0  0  0  0  0  0  0  0  0  0  0
    3.6277   -0.6690   -1.1226 C   0  0  0  0  0  0  0  0  0  0  0  0
    3.3498   -2.1317   -1.3581 C   0  0  0  0  0  0  0  0  0  0  0  0
    4.8532   -0.2604   -0.7349 C   0  0  0  0  0  0  0  0  0  0  0  0
    5.3128    1.1292   -0.4408 C   0  0  0  0  0  0  0  0  0  0  0  0
    6.4188    1.4024   -1.2860 O   0  0  0  0  0  0  0  0  0  0  0  0
   -3.9677   -2.4176    0.4564 H   0  0  0  0  0  0  0  0  0  0  0  0
   -5.0032   -2.6090    1.8781 H   0  0  0  0  0  0  0  0  0  0  0  0
   -5.5641   -1.6837    0.4700 H   0  0  0  0  0  0  0  0  0  0  0  0
   -5.6203   -0.4285    3.2716 H   0  0  0  0  0  0  0  0  0  0  0  0
   -5.9963    0.4667    1.7821 H   0  0  0  0  0  0  0  0  0  0  0  0
   -4.7653    1.0729    2.8969 H   0  0  0  0  0  0  0  0  0  0  0  0
   -2.6161    0.7220    2.1000 H   0  0  0  0  0  0  0  0  0  0  0  0
   -1.9008   -1.9971    0.9195 H   0  0  0  0  0  0  0  0  0  0  0  0
   -0.8416   -0.7846    1.5815 H   0  0  0  0  0  0  0  0  0  0  0  0
   -0.7338   -1.0996   -0.9447 H   0  0  0  0  0  0  0  0  0  0  0  0
   -2.3589   -0.4998   -1.0830 H   0  0  0  0  0  0  0  0  0  0  0  0
   -1.4861    3.0606   -0.9338 H   0  0  0  0  0  0  0  0  0  0  0  0
   -2.4525    1.8522   -1.7843 H   0  0  0  0  0  0  0  0  0  0  0  0
   -2.6826    2.1187   -0.0431 H   0  0  0  0  0  0  0  0  0  0  0  0
    0.6822    2.3670   -0.5370 H   0  0  0  0  0  0  0  0  0  0  0  0
    1.1866   -0.6024    0.1498 H   0  0  0  0  0  0  0  0  0  0  0  0
    2.1066    0.7863    0.6872 H   0  0  0  0  0  0  0  0  0  0  0  0
    2.8073    1.2458   -1.6967 H   0  0  0  0  0  0  0  0  0  0  0  0
    1.8858   -0.1251   -2.2413 H   0  0  0  0  0  0  0  0  0  0  0  0
    3.0479   -2.2981   -2.3973 H   0  0  0  0  0  0  0  0  0  0  0  0
    2.5457   -2.4792   -0.7019 H   0  0  0  0  0  0  0  0  0  0  0  0
    4.2275   -2.7575   -1.1645 H   0  0  0  0  0  0  0  0  0  0  0  0
    5.6317   -1.0103   -0.5982 H   0  0  0  0  0  0  0  0  0  0  0  0
    5.6453    1.1950    0.5999 H   0  0  0  0  0  0  0  0  0  0  0  0
    4.5465    1.8888   -0.6076 H   0  0  0  0  0  0  0  0  0  0  0  0
    6.6848    2.3196   -1.1091 H   0  0  0  0  0  0  0  0  0  0  0  0
  1  2  1  0
  2  3  1  0
  2  4  2  3
  4  5  1  0
  5  6  1  0
  6  7  1  0
  7  8  1  0
  7  9  2  3
  9 10  1  0
 10 11  1  0
 11 12  1  0
 12 13  1  0
 12 14  2  3
 14 15  1  0
 15 16  1  0
  1 17  1  0
  1 18  1  0
  1 19  1  0
  3 20  1  0
  3 21  1  0
  3 22  1  0
  4 23  1  0
  5 24  1  0
  5 25  1  0
  6 26  1  0
  6 27  1  0
  8 28  1  0
  8 29  1  0
  8 30  1  0
  9 31  1  0
 10 32  1  0
 10 33  1  0
 11 34  1  0
 11 35  1  0
 13 36  1  0
 13 37  1  0
 13 38  1  0
 14 39  1  0
 15 40  1  0
 15 41  1  0
 16 42  1  0
M  END
$$$$
