
     RDKit          3D

 40 42  0  0  0  0  0  0  0  0999 V2000
    5.3776   -0.9953    0.3806 N   0  0  0  0  0  0  0  0  0  0  0  0
    4.0708   -0.5852    0.8785 C   0  0  0  0  0  0  0  0  0  0  0  0
    3.0728   -0.4270   -0.2678 C   0  0  0  0  0  0  0  0  0  0  0  0
    1.6985    0.0010    0.2513 C   0  0  0  0  0  0  0  0  0  0  0  0
    0.6992    0.1663   -0.9036 C   0  0  0  0  0  0  0  0  0  0  0  0
   -0.6397    0.5673   -0.4145 N   0  0  0  0  0  0  0  0  0  0  0  0
   -0.9206    1.9653   -0.3669 C   0  0  0  0  0  0  0  0  0  0  0  0
    0.1006    2.9425   -0.4177 C   0  0  0  0  0  0  0  0  0  0  0  0
   -0.1636    4.3167   -0.3582 C   0  0  0  0  0  0  0  0  0  0  0  0
   -1.4673    4.7661   -0.2416 C   0  0  0  0  0  0  0  0  0  0  0  0
   -2.4988    3.8370   -0.1822 C   0  0  0  0  0  0  0  0  0  0  0  0
   -2.2372    2.4530   -0.2392 C   0  0  0  0  0  0  0  0  0  0  0  0
   -3.6714    1.4068   -0.1789 S   0  0  0  0  0  0  0  0  0  0  0  0
   -2.9547   -0.2083   -0.0025 C   0  0  0  0  0  0  0  0  0  0  0  0
   -3.8684   -1.2447    0.2723 C   0  0  0  0  0  0  0  0  0  0  0  0
   -3.4436   -2.5614    0.4135 C   0  0  0  0  0  0  0  0  0  0  0  0
   -2.0921   -2.8658    0.2762 C   0  0  0  0  0  0  0  0  0  0  0  0
   -1.5955   -4.2792    0.4539 C   0  0  0  0  0  0  0  0  0  0  0  0
   -0.5245   -4.5676   -0.3381 F   0  0  0  0  0  0  0  0  0  0  0  0
   -1.1937   -4.5298    1.7299 F   0  0  0  0  0  0  0  0  0  0  0  0
   -2.5355   -5.2210    0.1634 F   0  0  0  0  0  0  0  0  0  0  0  0
   -1.1836   -1.8215    0.0079 C   0  0  0  0  0  0  0  0  0  0  0  0
   -1.5786   -0.4721   -0.1499 C   0  0  0  0  0  0  0  0  0  0  0  0
    5.7223   -0.3151   -0.2956 H   0  0  0  0  0  0  0  0  0  0  0  0
    5.2967   -1.8785   -0.1219 H   0  0  0  0  0  0  0  0  0  0  0  0
    3.7122   -1.3331    1.5939 H   0  0  0  0  0  0  0  0  0  0  0  0
    4.1781    0.3602    1.4212 H   0  0  0  0  0  0  0  0  0  0  0  0
    2.9782   -1.3753   -0.8117 H   0  0  0  0  0  0  0  0  0  0  0  0
    3.4424    0.3203   -0.9813 H   0  0  0  0  0  0  0  0  0  0  0  0
    1.3350   -0.7403    0.9718 H   0  0  0  0  0  0  0  0  0  0  0  0
    1.7965    0.9373    0.8117 H   0  0  0  0  0  0  0  0  0  0  0  0
    0.6427   -0.7581   -1.4932 H   0  0  0  0  0  0  0  0  0  0  0  0
    1.0834    0.8849   -1.6394 H   0  0  0  0  0  0  0  0  0  0  0  0
    1.1478    2.6689   -0.4888 H   0  0  0  0  0  0  0  0  0  0  0  0
    0.6568    5.0289   -0.3986 H   0  0  0  0  0  0  0  0  0  0  0  0
   -1.6833    5.8296   -0.1945 H   0  0  0  0  0  0  0  0  0  0  0  0
   -3.5215    4.1982   -0.0912 H   0  0  0  0  0  0  0  0  0  0  0  0
   -4.9296   -1.0243    0.3788 H   0  0  0  0  0  0  0  0  0  0  0  0
   -4.1716   -3.3411    0.6306 H   0  0  0  0  0  0  0  0  0  0  0  0
   -0.1369   -2.1061   -0.0583 H   0  0  0  0  0  0  0  0  0  0  0  0
  1  2  1  0
  2  3  1  0
  3  4  1  0
  4  5  1  0
  5  6  1  0
  6  7  1  0
  7  8  2  0
  8  9  1  0
  9 10  2  0
 10 11  1  0
 11 12  2  0
 12 13  1  0
 13 14  1  0
 14 15  2  0
 15 16  1  0
 16 17  2  0
 17 18  1  0
 18 19  1  0
 18 20  1  0
 18 21  1  0
 17 22  1  0
 22 23  2  0
 23  6  1  0
 12  7  1  0
 23 14  1  0
  1 24  1  0
  1 25  1  0
  2 26  1  0
  2 27  1  0
  3 28  1  0
  3 29  1  0
  4 30  1  0
  4 31  1  0
  5 32  1  0
  5 33  1  0
  8 34  1  0
  9 35  1  0
 10 36  1  0
 11 37  1  0
 15 38  1  0
 16 39  1  0
 22 40  1  0
M  END
$$$$
