
     RDKit          3D

 51 55  0  0  0  0  0  0  0  0999 V2000
    1.2413    3.1563    0.1515 O   0  0  0  0  0  0  0  0  0  0  0  0
    0.6790    2.1663    0.6141 C   0  0  0  0  0  0  0  0  0  0  0  0
   -0.8409    2.1574    0.8262 C   0  0  0  0  0  0  0  0  0  0  0  0
   -1.5460    1.3221   -0.1550 N   0  0  0  0  0  0  0  0  0  0  0  0
   -1.5484   -0.0546    0.0586 C   0  0  0  0  0  0  0  0  0  0  0  0
   -0.9779   -0.5513    1.0366 O   0  0  0  0  0  0  0  0  0  0  0  0
   -2.1261   -0.9434   -1.0210 C   0  0  0  0  0  0  0  0  0  0  0  0
   -3.6424   -1.0680   -0.9936 C   0  0  0  0  0  0  0  0  0  0  0  0
   -4.1126   -2.0975   -0.0149 C   0  0  0  0  0  0  0  0  0  0  0  0
   -4.9278   -3.2064   -0.1333 C   0  0  0  0  0  0  0  0  0  0  0  0
   -4.9966   -3.7930    1.1534 C   0  0  0  0  0  0  0  0  0  0  0  0
   -4.2224   -3.0081    1.9738 C   0  0  0  0  0  0  0  0  0  0  0  0
   -3.6841   -1.9777    1.2750 O   0  0  0  0  0  0  0  0  0  0  0  0
   -4.5588    0.4892   -0.7175 S   0  0  0  0  0  0  0  0  0  0  0  0
   -3.5292    1.6286   -1.6309 C   0  0  0  0  0  0  0  0  0  0  0  0
   -4.1397    2.3065   -2.6978 C   0  0  0  0  0  0  0  0  0  0  0  0
   -3.4638    3.3163   -3.3800 C   0  0  0  0  0  0  0  0  0  0  0  0
   -2.1803    3.6737   -2.9862 C   0  0  0  0  0  0  0  0  0  0  0  0
   -1.5676    3.0155   -1.9172 C   0  0  0  0  0  0  0  0  0  0  0  0
   -2.2194    1.9741   -1.2353 C   0  0  0  0  0  0  0  0  0  0  0  0
    1.2836    0.9781    0.9856 N   0  0  0  0  0  0  0  0  0  0  0  0
    2.6497    0.6428    0.9335 C   0  0  0  0  0  0  0  0  0  0  0  0
    3.6563    1.5254    0.5336 C   0  0  0  0  0  0  0  0  0  0  0  0
    4.9946    1.1160    0.5181 C   0  0  0  0  0  0  0  0  0  0  0  0
    5.3331   -0.1763    0.9064 C   0  0  0  0  0  0  0  0  0  0  0  0
    4.3308   -1.0727    1.2826 C   0  0  0  0  0  0  0  0  0  0  0  0
    2.9980   -0.6608    1.3110 C   0  0  0  0  0  0  0  0  0  0  0  0
    4.5825   -2.3718    1.6459 O   0  0  0  0  0  0  0  0  0  0  0  0
    5.9015   -2.7745    1.2593 C   0  0  0  0  0  0  0  0  0  0  0  0
    6.9175   -1.7039    1.6211 C   0  0  0  0  0  0  0  0  0  0  0  0
    6.6651   -0.4998    0.8882 O   0  0  0  0  0  0  0  0  0  0  0  0
   -1.2158    3.1874    0.7995 H   0  0  0  0  0  0  0  0  0  0  0  0
   -1.0485    1.7833    1.8368 H   0  0  0  0  0  0  0  0  0  0  0  0
   -1.6562   -1.9319   -0.9262 H   0  0  0  0  0  0  0  0  0  0  0  0
   -1.7868   -0.5714   -1.9965 H   0  0  0  0  0  0  0  0  0  0  0  0
   -3.9480   -1.4167   -1.9890 H   0  0  0  0  0  0  0  0  0  0  0  0
   -5.4148   -3.5470   -1.0365 H   0  0  0  0  0  0  0  0  0  0  0  0
   -5.5437   -4.6771    1.4488 H   0  0  0  0  0  0  0  0  0  0  0  0
   -3.9658   -3.0431    3.0234 H   0  0  0  0  0  0  0  0  0  0  0  0
   -5.1600    2.0678   -2.9921 H   0  0  0  0  0  0  0  0  0  0  0  0
   -3.9467    3.8356   -4.2041 H   0  0  0  0  0  0  0  0  0  0  0  0
   -1.6501    4.4676   -3.5076 H   0  0  0  0  0  0  0  0  0  0  0  0
   -0.5556    3.3152   -1.6554 H   0  0  0  0  0  0  0  0  0  0  0  0
    0.6487    0.2342    1.2875 H   0  0  0  0  0  0  0  0  0  0  0  0
    3.4359    2.5449    0.2337 H   0  0  0  0  0  0  0  0  0  0  0  0
    5.7698    1.8138    0.2140 H   0  0  0  0  0  0  0  0  0  0  0  0
    2.2363   -1.3724    1.6194 H   0  0  0  0  0  0  0  0  0  0  0  0
    6.1306   -3.7068    1.7847 H   0  0  0  0  0  0  0  0  0  0  0  0
    5.9012   -2.9802    0.1818 H   0  0  0  0  0  0  0  0  0  0  0  0
    6.8924   -1.4716    2.6931 H   0  0  0  0  0  0  0  0  0  0  0  0
    7.9280   -2.0401    1.3686 H   0  0  0  0  0  0  0  0  0  0  0  0
  1  2  2  0
  2  3  1  0
  3  4  1  0
  4  5  1  0
  5  6  2  0
  5  7  1  0
  7  8  1  0
  8  9  1  0
  9 10  2  0
 10 11  1  0
 11 12  2  0
 12 13  1  0
  8 14  1  0
 14 15  1  0
 15 16  2  0
 16 17  1  0
 17 18  2  0
 18 19  1  0
 19 20  2  0
  2 21  1  0
 21 22  1  0
 22 23  2  0
 23 24  1  0
 24 25  2  0
 25 26  1  0
 26 27  2  0
 26 28  1  0
 28 29  1  0
 29 30  1  0
 30 31  1  0
 20  4  1  0
 27 22  1  0
 13  9  1  0
 20 15  1  0
 31 25  1  0
  3 32  1  0
  3 33  1  0
  7 34  1  0
  7 35  1  0
  8 36  1  0
 10 37  1  0
 11 38  1  0
 12 39  1  0
 16 40  1  0
 17 41  1  0
 18 42  1  0
 19 43  1  0
 21 44  1  0
 23 45  1  0
 24 46  1  0
 27 47  1  0
 29 48  1  0
 29 49  1  0
 30 50  1  0
 30 51  1  0
M  END
$$$$
