
     RDKit          3D

 48 51  0  0  0  0  0  0  0  0999 V2000
    2.6846   -2.0567   -2.5189 C   0  0  0  0  0  0  0  0  0  0  0  0
    2.9004   -2.3303   -1.0380 C   0  0  0  0  0  0  0  0  0  0  0  0
    2.7143   -1.1133   -0.2529 N   0  0  0  0  0  0  0  0  0  0  0  0
    1.5280   -0.6368    0.3120 C   0  0  0  0  0  0  0  0  0  0  0  0
    0.3098   -1.2022    0.2047 C   0  0  0  0  0  0  0  0  0  0  0  0
   -0.9265   -0.6888    0.8193 C   0  0  0  0  0  0  0  0  0  0  0  0
   -1.2022   -1.1483    2.1000 C   0  0  0  0  0  0  0  0  0  0  0  0
   -2.3406   -0.7309    2.7431 C   0  0  0  0  0  0  0  0  0  0  0  0
   -3.1967    0.1519    2.1061 C   0  0  0  0  0  0  0  0  0  0  0  0
   -4.3339    0.5319    2.8247 C   0  0  0  0  0  0  0  0  0  0  0  0
   -5.2477    1.4133    2.2825 C   0  0  0  0  0  0  0  0  0  0  0  0
   -5.0228    1.9245    1.0158 C   0  0  0  0  0  0  0  0  0  0  0  0
   -3.8857    1.5681    0.2439 C   0  0  0  0  0  0  0  0  0  0  0  0
   -3.8395    2.2893   -1.0808 C   0  0  0  0  0  0  0  0  0  0  0  0
   -2.9254    0.6504    0.7772 C   0  0  0  0  0  0  0  0  0  0  0  0
   -1.7660    0.1790    0.1615 N   0  0  0  0  0  4  0  0  0  0  0  0
   -1.3824    0.5555   -1.2286 C   0  0  0  0  0  0  0  0  0  0  0  0
   -2.0040   -0.4188   -2.2138 C   0  0  0  0  0  0  0  0  0  0  0  0
    1.7217    0.8996    1.2061 S   0  0  0  0  0  0  0  0  0  0  0  0
    3.4508    0.8976    0.7536 C   0  0  0  0  0  0  0  0  0  0  0  0
    4.3759    1.8755    1.0924 C   0  0  0  0  0  0  0  0  0  0  0  0
    5.6876    1.7276    0.6471 C   0  0  0  0  0  0  0  0  0  0  0  0
    6.0495    0.6166   -0.1241 C   0  0  0  0  0  0  0  0  0  0  0  0
    5.1066   -0.3643   -0.4591 C   0  0  0  0  0  0  0  0  0  0  0  0
    3.7934   -0.2348   -0.0192 C   0  0  0  0  0  0  0  0  0  0  0  0
    3.4005   -1.3201   -2.8975 H   0  0  0  0  0  0  0  0  0  0  0  0
    2.8084   -2.9783   -3.0961 H   0  0  0  0  0  0  0  0  0  0  0  0
    1.6773   -1.6705   -2.7070 H   0  0  0  0  0  0  0  0  0  0  0  0
    2.1943   -3.1025   -0.7103 H   0  0  0  0  0  0  0  0  0  0  0  0
    3.8902   -2.7707   -0.8738 H   0  0  0  0  0  0  0  0  0  0  0  0
    0.1812   -2.1296   -0.3446 H   0  0  0  0  0  0  0  0  0  0  0  0
   -0.5236   -1.8334    2.6069 H   0  0  0  0  0  0  0  0  0  0  0  0
   -2.5431   -1.0998    3.7488 H   0  0  0  0  0  0  0  0  0  0  0  0
   -4.5268    0.1473    3.8268 H   0  0  0  0  0  0  0  0  0  0  0  0
   -6.1302    1.7094    2.8469 H   0  0  0  0  0  0  0  0  0  0  0  0
   -5.7601    2.6296    0.6261 H   0  0  0  0  0  0  0  0  0  0  0  0
   -3.7592    1.5963   -1.9183 H   0  0  0  0  0  0  0  0  0  0  0  0
   -4.7604    2.8536   -1.2729 H   0  0  0  0  0  0  0  0  0  0  0  0
   -3.0326    3.0279   -1.0850 H   0  0  0  0  0  0  0  0  0  0  0  0
   -0.2960    0.5486   -1.3392 H   0  0  0  0  0  0  0  0  0  0  0  0
   -1.6294    1.5935   -1.4149 H   0  0  0  0  0  0  0  0  0  0  0  0
   -3.0839   -0.5159   -2.0716 H   0  0  0  0  0  0  0  0  0  0  0  0
   -1.5755   -1.4196   -2.1004 H   0  0  0  0  0  0  0  0  0  0  0  0
   -1.8168   -0.0896   -3.2403 H   0  0  0  0  0  0  0  0  0  0  0  0
    4.0923    2.7359    1.6899 H   0  0  0  0  0  0  0  0  0  0  0  0
    6.4351    2.4771    0.8988 H   0  0  0  0  0  0  0  0  0  0  0  0
    7.0780    0.5140   -0.4661 H   0  0  0  0  0  0  0  0  0  0  0  0
    5.4314   -1.2058   -1.0610 H   0  0  0  0  0  0  0  0  0  0  0  0
  1  2  1  0
  2  3  1  0
  3  4  1  0
  4  5  2  3
  5  6  1  0
  6  7  2  0
  7  8  1  0
  8  9  2  0
  9 10  1  0
 10 11  2  0
 11 12  1  0
 12 13  2  0
 13 14  1  0
 13 15  1  0
 15 16  2  0
 16 17  1  0
 17 18  1  0
  4 19  1  0
 19 20  1  0
 20 21  2  0
 21 22  1  0
 22 23  2  0
 23 24  1  0
 24 25  2  0
 25  3  1  0
 16  6  1  0
 25 20  1  0
 15  9  1  0
  1 26  1  0
  1 27  1  0
  1 28  1  0
  2 29  1  0
  2 30  1  0
  5 31  1  0
  7 32  1  0
  8 33  1  0
 10 34  1  0
 11 35  1  0
 12 36  1  0
 14 37  1  0
 14 38  1  0
 14 39  1  0
 17 40  1  0
 17 41  1  0
 18 42  1  0
 18 43  1  0
 18 44  1  0
 21 45  1  0
 22 46  1  0
 23 47  1  0
 24 48  1  0
M  CHG  1  16   1
M  END
$$$$
