
     RDKit          3D

 40 42  0  0  0  0  0  0  0  0999 V2000
   -6.1830    1.0540   -1.0232 C   0  0  0  0  0  0  0  0  0  0  0  0
   -5.1089    0.2563   -0.9490 C   0  0  0  0  0  0  0  0  0  0  0  0
   -4.5669   -0.3232    0.3253 C   0  0  0  0  0  0  0  0  0  0  0  0
   -3.1551    0.0021    0.5122 N   0  0  0  0  0  0  0  0  0  0  0  0
   -2.1192   -0.8366    0.1802 C   0  0  0  0  0  0  0  0  0  0  0  0
   -0.9382   -0.2065    0.5050 C   0  0  0  0  0  0  0  0  0  0  0  0
    0.3377   -0.8039    0.2683 C   0  0  0  0  0  0  0  0  0  0  0  0
    1.4508   -0.1366   -0.0797 C   0  0  0  0  0  0  0  0  0  0  0  0
    2.7499   -0.7706   -0.3284 C   0  0  0  0  0  0  0  0  0  0  0  0
    2.8732   -1.9740   -1.0212 C   0  0  0  0  0  0  0  0  0  0  0  0
    4.1348   -2.5110   -1.2527 C   0  0  0  0  0  0  0  0  0  0  0  0
    5.2446   -1.8758   -0.8152 N   0  0  0  0  0  4  0  0  0  0  0  0
    6.5705   -2.4596   -1.0800 C   0  0  0  0  0  0  0  0  0  0  0  0
    5.1518   -0.6964   -0.1617 C   0  0  0  0  0  0  0  0  0  0  0  0
    3.9107   -0.1221    0.0895 C   0  0  0  0  0  0  0  0  0  0  0  0
   -1.2676    1.0515    1.0998 C   0  0  0  0  0  0  0  0  0  0  0  0
   -0.5239    2.1077    1.6741 C   0  0  0  0  0  0  0  0  0  0  0  0
   -1.1810    3.2369    2.1747 C   0  0  0  0  0  0  0  0  0  0  0  0
   -2.5663    3.3294    2.1181 C   0  0  0  0  0  0  0  0  0  0  0  0
   -3.3311    2.2961    1.5726 C   0  0  0  0  0  0  0  0  0  0  0  0
   -2.6641    1.1627    1.0773 C   0  0  0  0  0  0  0  0  0  0  0  0
   -6.7474    1.3438   -0.1419 H   0  0  0  0  0  0  0  0  0  0  0  0
   -6.5219    1.4409   -1.9802 H   0  0  0  0  0  0  0  0  0  0  0  0
   -4.5826   -0.0009   -1.8659 H   0  0  0  0  0  0  0  0  0  0  0  0
   -5.1089    0.0261    1.2109 H   0  0  0  0  0  0  0  0  0  0  0  0
   -4.6519   -1.4156    0.2991 H   0  0  0  0  0  0  0  0  0  0  0  0
   -2.3137   -1.7999   -0.2733 H   0  0  0  0  0  0  0  0  0  0  0  0
    0.3684   -1.8871    0.3636 H   0  0  0  0  0  0  0  0  0  0  0  0
    1.4193    0.9450   -0.1958 H   0  0  0  0  0  0  0  0  0  0  0  0
    1.9951   -2.4953   -1.3978 H   0  0  0  0  0  0  0  0  0  0  0  0
    4.2661   -3.4445   -1.7928 H   0  0  0  0  0  0  0  0  0  0  0  0
    6.9129   -2.0707   -2.0422 H   0  0  0  0  0  0  0  0  0  0  0  0
    7.2550   -2.1727   -0.2775 H   0  0  0  0  0  0  0  0  0  0  0  0
    6.4833   -3.5488   -1.1083 H   0  0  0  0  0  0  0  0  0  0  0  0
    6.0752   -0.2184    0.1532 H   0  0  0  0  0  0  0  0  0  0  0  0
    3.8570    0.8278    0.6189 H   0  0  0  0  0  0  0  0  0  0  0  0
    0.5569    2.0503    1.7431 H   0  0  0  0  0  0  0  0  0  0  0  0
   -0.6044    4.0471    2.6140 H   0  0  0  0  0  0  0  0  0  0  0  0
   -3.0644    4.2142    2.5087 H   0  0  0  0  0  0  0  0  0  0  0  0
   -4.4130    2.3784    1.5383 H   0  0  0  0  0  0  0  0  0  0  0  0
  1  2  2  0
  2  3  1  0
  3  4  1  0
  4  5  1  0
  5  6  2  0
  6  7  1  0
  7  8  2  3
  8  9  1  0
  9 10  2  0
 10 11  1  0
 11 12  2  0
 12 13  1  0
 12 14  1  0
 14 15  2  0
  6 16  1  0
 16 17  2  0
 17 18  1  0
 18 19  2  0
 19 20  1  0
 20 21  2  0
 21  4  1  0
 15  9  1  0
 21 16  1  0
  1 22  1  0
  1 23  1  0
  2 24  1  0
  3 25  1  0
  3 26  1  0
  5 27  1  0
  7 28  1  0
  8 29  1  0
 10 30  1  0
 11 31  1  0
 13 32  1  0
 13 33  1  0
 13 34  1  0
 14 35  1  0
 15 36  1  0
 17 37  1  0
 18 38  1  0
 19 39  1  0
 20 40  1  0
M  CHG  1  12   1
M  END
$$$$
