
     RDKit          3D

 53 56  0  0  0  0  0  0  0  0999 V2000
    9.3919   -1.0311    1.3865 C   0  0  0  0  0  0  0  0  0  0  0  0
    8.5787   -1.5241    0.3290 O   0  0  0  0  0  0  0  0  0  0  0  0
    7.3623   -0.9248    0.1569 C   0  0  0  0  0  0  0  0  0  0  0  0
    6.8451    0.1210    0.9184 C   0  0  0  0  0  0  0  0  0  0  0  0
    5.5760    0.6465    0.6338 C   0  0  0  0  0  0  0  0  0  0  0  0
    4.8101    0.1329   -0.4128 C   0  0  0  0  0  0  0  0  0  0  0  0
    3.5305    0.6070   -0.7632 N   0  0  0  0  0  0  0  0  0  0  0  0
    2.7890    1.5953   -0.1314 C   0  0  0  0  0  0  0  0  0  0  0  0
    3.1186    2.2272    0.8683 O   0  0  0  0  0  0  0  0  0  0  0  0
    1.4596    1.8594   -0.8189 C   0  0  0  0  0  0  0  0  0  0  0  0
    0.2953    0.5250   -0.4112 S   0  0  0  0  0  0  0  0  0  0  0  0
   -1.0896    1.0429   -1.3192 C   0  0  0  0  0  0  0  0  0  0  0  0
   -1.0305    1.8879   -2.3221 N   0  0  0  0  0  0  0  0  0  0  0  0
   -2.2762    1.9706   -2.8753 N   0  0  0  0  0  0  0  0  0  0  0  0
   -3.0883    1.1838   -2.1928 C   0  0  0  0  0  0  0  0  0  0  0  0
   -4.5726    1.1470   -2.3764 C   0  0  0  0  0  0  0  0  0  0  0  0
   -5.3295    1.7371   -1.2170 C   0  0  0  0  0  0  0  0  0  0  0  0
   -6.0908    1.0854   -0.2650 C   0  0  0  0  0  0  0  0  0  0  0  0
   -6.6557    1.9818    0.6875 C   0  0  0  0  0  0  0  0  0  0  0  0
   -6.3199    3.2903    0.4257 C   0  0  0  0  0  0  0  0  0  0  0  0
   -5.3318    3.4344   -0.9606 S   0  0  0  0  0  0  0  0  0  0  0  0
   -2.3650    0.5151   -1.2099 N   0  0  0  0  0  0  0  0  0  0  0  0
   -2.8406   -0.4759   -0.3147 C   0  0  0  0  0  0  0  0  0  0  0  0
   -2.5467   -0.3937    1.0501 C   0  0  0  0  0  0  0  0  0  0  0  0
   -3.0308   -1.3686    1.9259 C   0  0  0  0  0  0  0  0  0  0  0  0
   -3.8116   -2.4291    1.4517 C   0  0  0  0  0  0  0  0  0  0  0  0
   -4.2961   -3.4932    2.3922 C   0  0  0  0  0  0  0  0  0  0  0  0
   -4.0809   -2.5174    0.0813 C   0  0  0  0  0  0  0  0  0  0  0  0
   -3.6047   -1.5435   -0.8000 C   0  0  0  0  0  0  0  0  0  0  0  0
    5.3342   -0.9158   -1.1759 C   0  0  0  0  0  0  0  0  0  0  0  0
    6.5993   -1.4390   -0.8913 C   0  0  0  0  0  0  0  0  0  0  0  0
   10.3210   -1.6093    1.3910 H   0  0  0  0  0  0  0  0  0  0  0  0
    8.9064   -1.1740    2.3576 H   0  0  0  0  0  0  0  0  0  0  0  0
    9.6547    0.0198    1.2257 H   0  0  0  0  0  0  0  0  0  0  0  0
    7.3974    0.5576    1.7439 H   0  0  0  0  0  0  0  0  0  0  0  0
    5.2188    1.4624    1.2544 H   0  0  0  0  0  0  0  0  0  0  0  0
    3.0799    0.1351   -1.5386 H   0  0  0  0  0  0  0  0  0  0  0  0
    1.6217    1.9215   -1.9004 H   0  0  0  0  0  0  0  0  0  0  0  0
    1.0688    2.8221   -0.4733 H   0  0  0  0  0  0  0  0  0  0  0  0
   -4.8270    1.7090   -3.2854 H   0  0  0  0  0  0  0  0  0  0  0  0
   -4.9152    0.1264   -2.5717 H   0  0  0  0  0  0  0  0  0  0  0  0
   -6.2328    0.0115   -0.2412 H   0  0  0  0  0  0  0  0  0  0  0  0
   -7.2778    1.6817    1.5217 H   0  0  0  0  0  0  0  0  0  0  0  0
   -6.6087    4.1727    0.9803 H   0  0  0  0  0  0  0  0  0  0  0  0
   -1.9769    0.4352    1.4641 H   0  0  0  0  0  0  0  0  0  0  0  0
   -2.7970   -1.2910    2.9862 H   0  0  0  0  0  0  0  0  0  0  0  0
   -4.4811   -3.0787    3.3887 H   0  0  0  0  0  0  0  0  0  0  0  0
   -5.2389   -3.9253    2.0405 H   0  0  0  0  0  0  0  0  0  0  0  0
   -3.5498   -4.2895    2.4725 H   0  0  0  0  0  0  0  0  0  0  0  0
   -4.6565   -3.3543   -0.3096 H   0  0  0  0  0  0  0  0  0  0  0  0
   -3.8008   -1.6686   -1.8617 H   0  0  0  0  0  0  0  0  0  0  0  0
    4.7715   -1.3442   -2.0009 H   0  0  0  0  0  0  0  0  0  0  0  0
    6.9930   -2.2548   -1.4927 H   0  0  0  0  0  0  0  0  0  0  0  0
  1  2  1  0
  2  3  1  0
  3  4  2  0
  4  5  1  0
  5  6  2  0
  6  7  1  0
  7  8  1  0
  8  9  2  0
  8 10  1  0
 10 11  1  0
 11 12  1  0
 12 13  2  0
 13 14  1  0
 14 15  2  0
 15 16  1  0
 16 17  1  0
 17 18  2  0
 18 19  1  0
 19 20  2  0
 20 21  1  0
 15 22  1  0
 22 23  1  0
 23 24  2  0
 24 25  1  0
 25 26  2  0
 26 27  1  0
 26 28  1  0
 28 29  2  0
  6 30  1  0
 30 31  2  0
 31  3  1  0
 22 12  1  0
 29 23  1  0
 21 17  1  0
  1 32  1  0
  1 33  1  0
  1 34  1  0
  4 35  1  0
  5 36  1  0
  7 37  1  0
 10 38  1  0
 10 39  1  0
 16 40  1  0
 16 41  1  0
 18 42  1  0
 19 43  1  0
 20 44  1  0
 24 45  1  0
 25 46  1  0
 27 47  1  0
 27 48  1  0
 27 49  1  0
 28 50  1  0
 29 51  1  0
 30 52  1  0
 31 53  1  0
M  END
$$$$
