
     RDKit          3D

 36 37  0  0  0  0  0  0  0  0999 V2000
    4.3750   -0.1766    1.5203 C   0  0  0  0  0  0  0  0  0  0  0  0
    4.3655   -0.7232    0.1442 N   0  0  0  0  0  0  0  0  0  0  0  0
    5.6714   -1.3309   -0.2031 C   0  0  0  0  0  0  0  0  0  0  0  0
    3.7994    0.3583   -1.0589 S   0  0  0  0  0  6  0  0  0  0  0  0
    3.8298   -0.3243   -2.3345 O   0  0  0  0  0  0  0  0  0  0  0  0
    4.4827    1.6196   -0.8628 O   0  0  0  0  0  0  0  0  0  0  0  0
    2.0899    0.5664   -0.6204 C   0  0  0  0  0  0  0  0  0  0  0  0
    1.6217    1.8063   -0.1800 C   0  0  0  0  0  0  0  0  0  0  0  0
    0.2725    1.9493    0.1542 C   0  0  0  0  0  0  0  0  0  0  0  0
   -0.6084    0.8615    0.0423 C   0  0  0  0  0  0  0  0  0  0  0  0
   -2.0333    1.0743    0.4170 C   0  0  0  0  0  0  0  0  0  0  0  0
   -2.4616    2.1228    0.8710 O   0  0  0  0  0  0  0  0  0  0  0  0
   -2.7605   -0.0516    0.2062 O   0  0  0  0  0  0  0  0  0  0  0  0
   -4.1549    0.1112    0.4161 C   0  0  0  0  0  0  0  0  0  0  0  0
   -4.8156   -1.2385    0.5752 C   0  0  0  0  0  0  0  0  0  0  0  0
   -6.2442   -0.9241    0.2146 C   0  0  0  0  0  0  0  0  0  0  0  0
   -6.1650    0.0620   -0.8159 O   0  0  0  0  0  0  0  0  0  0  0  0
   -4.9272    0.6521   -0.7764 C   0  0  0  0  0  0  0  0  0  0  0  0
   -4.5363    1.4666   -1.5960 O   0  0  0  0  0  0  0  0  0  0  0  0
   -0.1262   -0.3754   -0.4127 C   0  0  0  0  0  0  0  0  0  0  0  0
    1.2229   -0.5237   -0.7460 C   0  0  0  0  0  0  0  0  0  0  0  0
    5.1050    0.6322    1.6199 H   0  0  0  0  0  0  0  0  0  0  0  0
    4.6386   -0.9693    2.2285 H   0  0  0  0  0  0  0  0  0  0  0  0
    3.3847    0.1857    1.8067 H   0  0  0  0  0  0  0  0  0  0  0  0
    5.9615   -2.0560    0.5644 H   0  0  0  0  0  0  0  0  0  0  0  0
    6.4528   -0.5683   -0.2747 H   0  0  0  0  0  0  0  0  0  0  0  0
    5.6012   -1.8772   -1.1481 H   0  0  0  0  0  0  0  0  0  0  0  0
    2.2905    2.6607   -0.0985 H   0  0  0  0  0  0  0  0  0  0  0  0
   -0.0933    2.9171    0.4953 H   0  0  0  0  0  0  0  0  0  0  0  0
   -4.3721    0.7345    1.2932 H   0  0  0  0  0  0  0  0  0  0  0  0
   -4.3864   -1.9609   -0.1306 H   0  0  0  0  0  0  0  0  0  0  0  0
   -4.7073   -1.6578    1.5795 H   0  0  0  0  0  0  0  0  0  0  0  0
   -6.8039   -0.5043    1.0572 H   0  0  0  0  0  0  0  0  0  0  0  0
   -6.7736   -1.8051   -0.1592 H   0  0  0  0  0  0  0  0  0  0  0  0
   -0.7885   -1.2312   -0.5182 H   0  0  0  0  0  0  0  0  0  0  0  0
    1.5935   -1.4821   -1.1053 H   0  0  0  0  0  0  0  0  0  0  0  0
  1  2  1  0
  2  3  1  0
  2  4  1  0
  4  5  2  0
  4  6  2  0
  4  7  1  0
  7  8  2  0
  8  9  1  0
  9 10  2  0
 10 11  1  0
 11 12  2  0
 11 13  1  0
 13 14  1  0
 14 15  1  0
 15 16  1  0
 16 17  1  0
 17 18  1  0
 18 19  2  0
 10 20  1  0
 20 21  2  0
 21  7  1  0
 18 14  1  0
  1 22  1  0
  1 23  1  0
  1 24  1  0
  3 25  1  0
  3 26  1  0
  3 27  1  0
  8 28  1  0
  9 29  1  0
 14 30  1  0
 15 31  1  0
 15 32  1  0
 16 33  1  0
 16 34  1  0
 20 35  1  0
 21 36  1  0
M  END
$$$$
