
     RDKit          3D

 36 38  0  0  0  0  0  0  0  0999 V2000
   -4.7734   -1.6761   -1.2561 C   0  0  0  0  0  0  0  0  0  0  0  0
   -3.6088   -1.0549   -0.6631 N   0  0  0  0  0  0  0  0  0  0  0  0
   -2.3123   -1.3781   -0.9661 C   0  0  0  0  0  0  0  0  0  0  0  0
   -1.4848   -0.5690   -0.2184 C   0  0  0  0  0  0  0  0  0  0  0  0
   -0.0604   -0.6387   -0.3054 C   0  0  0  0  0  0  0  0  0  0  0  0
    0.7747    0.4061   -0.1757 C   0  0  0  0  0  0  0  0  0  0  0  0
    2.2360    0.3143   -0.2681 C   0  0  0  0  0  0  0  0  0  0  0  0
    2.8773   -0.4858   -1.2125 C   0  0  0  0  0  0  0  0  0  0  0  0
    4.2666   -0.5074   -1.2694 C   0  0  0  0  0  0  0  0  0  0  0  0
    5.0028    0.2426   -0.4196 N   0  0  0  0  0  4  0  0  0  0  0  0
    6.4728    0.2101   -0.5046 C   0  0  0  0  0  0  0  0  0  0  0  0
    4.4037    1.0438    0.4891 C   0  0  0  0  0  0  0  0  0  0  0  0
    3.0173    1.0981    0.5796 C   0  0  0  0  0  0  0  0  0  0  0  0
   -2.3143    0.2549    0.6050 C   0  0  0  0  0  0  0  0  0  0  0  0
   -2.0761    1.2286    1.5985 C   0  0  0  0  0  0  0  0  0  0  0  0
   -3.1578    1.8558    2.2146 C   0  0  0  0  0  0  0  0  0  0  0  0
   -2.9216    2.7831    3.1528 F   0  0  0  0  0  0  0  0  0  0  0  0
   -4.4664    1.5424    1.8832 C   0  0  0  0  0  0  0  0  0  0  0  0
   -4.7349    0.5714    0.9165 C   0  0  0  0  0  0  0  0  0  0  0  0
   -3.6443   -0.0627    0.2950 C   0  0  0  0  0  0  0  0  0  0  0  0
   -5.3528   -2.1530   -0.4615 H   0  0  0  0  0  0  0  0  0  0  0  0
   -4.4571   -2.4267   -1.9849 H   0  0  0  0  0  0  0  0  0  0  0  0
   -5.3615   -0.9015   -1.7549 H   0  0  0  0  0  0  0  0  0  0  0  0
   -2.0887   -2.1441   -1.6976 H   0  0  0  0  0  0  0  0  0  0  0  0
    0.3448   -1.6271   -0.5122 H   0  0  0  0  0  0  0  0  0  0  0  0
    0.3742    1.4005    0.0112 H   0  0  0  0  0  0  0  0  0  0  0  0
    2.3060   -1.0858   -1.9181 H   0  0  0  0  0  0  0  0  0  0  0  0
    4.7975   -1.1165   -1.9958 H   0  0  0  0  0  0  0  0  0  0  0  0
    6.7899   -0.7758   -0.8544 H   0  0  0  0  0  0  0  0  0  0  0  0
    6.8929    0.3935    0.4877 H   0  0  0  0  0  0  0  0  0  0  0  0
    6.7772    0.9896   -1.2073 H   0  0  0  0  0  0  0  0  0  0  0  0
    5.0409    1.6395    1.1368 H   0  0  0  0  0  0  0  0  0  0  0  0
    2.5541    1.7487    1.3198 H   0  0  0  0  0  0  0  0  0  0  0  0
   -1.0720    1.4953    1.9044 H   0  0  0  0  0  0  0  0  0  0  0  0
   -5.2815    2.0532    2.3875 H   0  0  0  0  0  0  0  0  0  0  0  0
   -5.7599    0.3172    0.6638 H   0  0  0  0  0  0  0  0  0  0  0  0
  1  2  1  0
  2  3  1  0
  3  4  2  0
  4  5  1  0
  5  6  2  3
  6  7  1  0
  7  8  2  0
  8  9  1  0
  9 10  2  0
 10 11  1  0
 10 12  1  0
 12 13  2  0
  4 14  1  0
 14 15  2  0
 15 16  1  0
 16 17  1  0
 16 18  2  0
 18 19  1  0
 19 20  2  0
 20  2  1  0
 13  7  1  0
 20 14  1  0
  1 21  1  0
  1 22  1  0
  1 23  1  0
  3 24  1  0
  5 25  1  0
  6 26  1  0
  8 27  1  0
  9 28  1  0
 11 29  1  0
 11 30  1  0
 11 31  1  0
 12 32  1  0
 13 33  1  0
 15 34  1  0
 18 35  1  0
 19 36  1  0
M  CHG  1  10   1
M  END
$$$$
