
     RDKit          3D

 39 41  0  0  0  0  0  0  0  0999 V2000
   -3.7488    1.4688   -1.8932 C   0  0  0  0  0  0  0  0  0  0  0  0
   -3.9956    0.4701   -0.7705 C   0  0  0  0  0  0  0  0  0  0  0  0
   -2.7963    0.2516    0.0340 N   0  0  0  0  0  0  0  0  0  0  0  0
   -2.5836    1.1100    1.1022 C   0  0  0  0  0  0  0  0  0  0  0  0
   -3.3381    2.0336    1.4006 O   0  0  0  0  0  0  0  0  0  0  0  0
   -1.3731    0.8829    1.9039 C   0  0  0  0  0  0  0  0  0  0  0  0
   -1.1376    1.6883    3.0305 C   0  0  0  0  0  0  0  0  0  0  0  0
   -0.0003    1.4894    3.8058 C   0  0  0  0  0  0  0  0  0  0  0  0
    0.8970    0.4881    3.4552 C   0  0  0  0  0  0  0  0  0  0  0  0
    0.6579   -0.3112    2.3306 C   0  0  0  0  0  0  0  0  0  0  0  0
   -0.4831   -0.1243    1.5335 C   0  0  0  0  0  0  0  0  0  0  0  0
   -0.7552   -0.9098    0.3772 N   0  0  0  0  0  0  0  0  0  0  0  0
    0.1851   -1.9447   -0.0672 C   0  0  0  0  0  0  0  0  0  0  0  0
    1.4072   -1.3986   -0.7844 C   0  0  0  0  0  0  0  0  0  0  0  0
    2.6922   -1.8307   -0.4160 C   0  0  0  0  0  0  0  0  0  0  0  0
    3.8251   -1.3503   -1.0790 C   0  0  0  0  0  0  0  0  0  0  0  0
    3.6752   -0.4388   -2.1310 C   0  0  0  0  0  0  0  0  0  0  0  0
    4.8625    0.0686   -2.8292 N   0  0  0  0  0  4  0  0  0  0  0  0
    4.6880    0.8662   -3.7614 O   0  0  0  0  0  0  0  0  0  0  0  0
    5.9714   -0.3296   -2.4436 O   0  0  0  0  0  1  0  0  0  0  0  0
    2.4021   -0.0138   -2.5259 C   0  0  0  0  0  0  0  0  0  0  0  0
    1.2758   -0.4998   -1.8563 C   0  0  0  0  0  0  0  0  0  0  0  0
   -1.9000   -0.7190   -0.3929 C   0  0  0  0  0  0  0  0  0  0  0  0
   -2.1041   -1.3740   -1.4186 O   0  0  0  0  0  0  0  0  0  0  0  0
   -4.6614    1.6143   -2.4791 H   0  0  0  0  0  0  0  0  0  0  0  0
   -3.4389    2.4408   -1.4957 H   0  0  0  0  0  0  0  0  0  0  0  0
   -2.9611    1.1186   -2.5681 H   0  0  0  0  0  0  0  0  0  0  0  0
   -4.8060    0.8363   -0.1299 H   0  0  0  0  0  0  0  0  0  0  0  0
   -4.3326   -0.4821   -1.1960 H   0  0  0  0  0  0  0  0  0  0  0  0
   -1.8424    2.4718    3.3033 H   0  0  0  0  0  0  0  0  0  0  0  0
    0.1833    2.1127    4.6775 H   0  0  0  0  0  0  0  0  0  0  0  0
    1.7895    0.3261    4.0558 H   0  0  0  0  0  0  0  0  0  0  0  0
    1.3963   -1.0740    2.1104 H   0  0  0  0  0  0  0  0  0  0  0  0
   -0.3070   -2.6473   -0.7509 H   0  0  0  0  0  0  0  0  0  0  0  0
    0.4679   -2.5545    0.7994 H   0  0  0  0  0  0  0  0  0  0  0  0
    2.8227   -2.5481    0.3925 H   0  0  0  0  0  0  0  0  0  0  0  0
    4.8086   -1.6975   -0.7684 H   0  0  0  0  0  0  0  0  0  0  0  0
    2.2673    0.6850   -3.3491 H   0  0  0  0  0  0  0  0  0  0  0  0
    0.2898   -0.1749   -2.1856 H   0  0  0  0  0  0  0  0  0  0  0  0
  1  2  1  0
  2  3  1  0
  3  4  1  0
  4  5  2  0
  4  6  1  0
  6  7  2  0
  7  8  1  0
  8  9  2  0
  9 10  1  0
 10 11  2  0
 11 12  1  0
 12 13  1  0
 13 14  1  0
 14 15  2  0
 15 16  1  0
 16 17  2  0
 17 18  1  0
 18 19  2  0
 18 20  1  0
 17 21  1  0
 21 22  2  0
 12 23  1  0
 23 24  2  0
 23  3  1  0
 11  6  1  0
 22 14  1  0
  1 25  1  0
  1 26  1  0
  1 27  1  0
  2 28  1  0
  2 29  1  0
  7 30  1  0
  8 31  1  0
  9 32  1  0
 10 33  1  0
 13 34  1  0
 13 35  1  0
 15 36  1  0
 16 37  1  0
 21 38  1  0
 22 39  1  0
M  CHG  2  18   1  20  -1
M  END
$$$$
