
     RDKit          3D

 37 39  0  0  0  0  0  0  0  0999 V2000
   -2.1594    1.9793   -0.4194 O   0  0  0  0  0  0  0  0  0  0  0  0
   -2.5384    0.8881   -0.0053 C   0  0  0  0  0  0  0  0  0  0  0  0
   -2.0989    0.3242    1.1775 N   0  0  0  0  0  0  0  0  0  0  0  0
   -0.9692    0.8996    1.7769 N   0  0  0  0  0  0  0  0  0  0  0  0
    0.2839    0.5021    1.3391 C   0  0  0  0  0  0  0  0  0  0  0  0
    0.5002   -0.4112    0.5541 O   0  0  0  0  0  0  0  0  0  0  0  0
    1.3217    1.3391    2.0132 C   0  0  0  0  0  0  0  0  0  0  0  0
    2.6528    1.3072    1.8500 C   0  0  0  0  0  0  0  0  0  0  0  0
    3.4168    0.4470    0.9391 C   0  0  0  0  0  0  0  0  0  0  0  0
    4.4406   -0.3566    1.4675 C   0  0  0  0  0  0  0  0  0  0  0  0
    5.2193   -1.1588    0.6295 C   0  0  0  0  0  0  0  0  0  0  0  0
    4.9740   -1.1484   -0.7344 C   0  0  0  0  0  0  0  0  0  0  0  0
    5.7320   -1.9332   -1.5550 O   0  0  0  0  0  0  0  0  0  0  0  0
    3.9684   -0.3493   -1.2709 C   0  0  0  0  0  0  0  0  0  0  0  0
    3.7773   -0.3918   -2.6252 O   0  0  0  0  0  0  0  0  0  0  0  0
    3.1942    0.4601   -0.4455 C   0  0  0  0  0  0  0  0  0  0  0  0
    0.5631    2.4310    3.1319 S   0  0  0  0  0  0  0  0  0  0  0  0
   -1.0631    1.8920    2.7282 C   0  0  0  0  0  0  0  0  0  0  0  0
   -2.4372    2.4967    3.4550 S   0  0  0  0  0  0  0  0  0  0  0  0
   -3.5407    0.1019   -0.7666 C   0  0  0  0  0  0  0  0  0  0  0  0
   -3.4772   -1.2952   -0.8454 C   0  0  0  0  0  0  0  0  0  0  0  0
   -4.4428   -1.9934   -1.5737 C   0  0  0  0  0  0  0  0  0  0  0  0
   -5.4633   -1.3013   -2.2271 C   0  0  0  0  0  0  0  0  0  0  0  0
   -5.5166    0.0911   -2.1655 C   0  0  0  0  0  0  0  0  0  0  0  0
   -4.5532    0.7942   -1.4413 C   0  0  0  0  0  0  0  0  0  0  0  0
   -2.3144   -0.6291    1.4405 H   0  0  0  0  0  0  0  0  0  0  0  0
    3.2799    1.9694    2.4463 H   0  0  0  0  0  0  0  0  0  0  0  0
    4.6399   -0.3676    2.5368 H   0  0  0  0  0  0  0  0  0  0  0  0
    6.0080   -1.7836    1.0368 H   0  0  0  0  0  0  0  0  0  0  0  0
    5.3766   -1.7617   -2.4500 H   0  0  0  0  0  0  0  0  0  0  0  0
    2.9838    0.1335   -2.8308 H   0  0  0  0  0  0  0  0  0  0  0  0
    2.4184    1.0918   -0.8675 H   0  0  0  0  0  0  0  0  0  0  0  0
   -2.6686   -1.8526   -0.3806 H   0  0  0  0  0  0  0  0  0  0  0  0
   -4.3944   -3.0777   -1.6433 H   0  0  0  0  0  0  0  0  0  0  0  0
   -6.2125   -1.8476   -2.7957 H   0  0  0  0  0  0  0  0  0  0  0  0
   -6.3061    0.6297   -2.6844 H   0  0  0  0  0  0  0  0  0  0  0  0
   -4.5949    1.8811   -1.4005 H   0  0  0  0  0  0  0  0  0  0  0  0
  1  2  2  0
  2  3  1  0
  3  4  1  0
  4  5  1  0
  5  6  2  0
  5  7  1  0
  7  8  2  3
  8  9  1  0
  9 10  2  0
 10 11  1  0
 11 12  2  0
 12 13  1  0
 12 14  1  0
 14 15  1  0
 14 16  2  0
  7 17  1  0
 17 18  1  0
 18 19  2  0
  2 20  1  0
 20 21  2  0
 21 22  1  0
 22 23  2  0
 23 24  1  0
 24 25  2  0
 18  4  1  0
 25 20  1  0
 16  9  1  0
  3 26  1  0
  8 27  1  0
 10 28  1  0
 11 29  1  0
 13 30  1  0
 15 31  1  0
 16 32  1  0
 21 33  1  0
 22 34  1  0
 23 35  1  0
 24 36  1  0
 25 37  1  0
M  END
$$$$
