
     RDKit          3D

 55 58  0  0  0  0  0  0  0  0999 V2000
    3.1618    0.0843   -4.0094 O   0  0  0  0  0  0  0  0  0  0  0  0
    2.4230    0.9043   -3.4600 C   0  0  0  0  0  0  0  0  0  0  0  0
    1.1798    1.4461   -4.1440 C   0  0  0  0  0  0  0  0  0  0  0  0
   -0.0798    2.0912   -3.0009 S   0  0  0  0  0  0  0  0  0  0  0  0
   -0.6357    0.6317   -2.2603 C   0  0  0  0  0  0  0  0  0  0  0  0
   -0.0965   -0.5540   -2.4206 N   0  0  0  0  0  0  0  0  0  0  0  0
   -0.8454   -1.4469   -1.6958 N   0  0  0  0  0  0  0  0  0  0  0  0
   -1.8421   -0.7932   -1.1217 C   0  0  0  0  0  0  0  0  0  0  0  0
   -2.8842   -1.3933   -0.2951 C   0  0  0  0  0  0  0  0  0  0  0  0
   -2.5162   -2.0749    0.8742 C   0  0  0  0  0  0  0  0  0  0  0  0
   -3.4856   -2.6584    1.6934 C   0  0  0  0  0  0  0  0  0  0  0  0
   -4.8319   -2.5789    1.3454 C   0  0  0  0  0  0  0  0  0  0  0  0
   -5.2116   -1.9226    0.1759 C   0  0  0  0  0  0  0  0  0  0  0  0
   -4.2401   -1.3367   -0.6396 C   0  0  0  0  0  0  0  0  0  0  0  0
   -4.6225   -0.6944   -1.7873 O   0  0  0  0  0  0  0  0  0  0  0  0
   -1.6923    0.5540   -1.3936 N   0  0  0  0  0  0  0  0  0  0  0  0
   -2.4611    1.6427   -0.8220 C   0  0  0  0  0  0  0  0  0  0  0  0
   -2.2250    1.7898    0.6627 C   0  0  0  0  0  0  0  0  0  0  0  0
   -3.2896    1.6422    1.5651 C   0  0  0  0  0  0  0  0  0  0  0  0
   -3.0755    1.7557    2.9392 C   0  0  0  0  0  0  0  0  0  0  0  0
   -1.7977    2.0279    3.4273 C   0  0  0  0  0  0  0  0  0  0  0  0
   -0.7335    2.1903    2.5429 C   0  0  0  0  0  0  0  0  0  0  0  0
   -0.9438    2.0736    1.1690 C   0  0  0  0  0  0  0  0  0  0  0  0
    2.7409    1.4651   -2.2347 N   0  0  0  0  0  0  0  0  0  0  0  0
    3.6775    0.7587   -1.4535 N   0  0  0  0  0  0  0  0  0  0  0  0
    3.3825    0.6293   -0.1094 C   0  0  0  0  0  0  0  0  0  0  0  0
    2.4755    1.2671    0.4295 O   0  0  0  0  0  0  0  0  0  0  0  0
    4.1829   -0.3424    0.6876 C   0  0  0  0  0  0  0  0  0  0  0  0
    5.3761   -0.8955    0.1944 C   0  0  0  0  0  0  0  0  0  0  0  0
    6.1007   -1.8144    0.9609 C   0  0  0  0  0  0  0  0  0  0  0  0
    5.6498   -2.1800    2.2275 C   0  0  0  0  0  0  0  0  0  0  0  0
    4.4761   -1.6224    2.7362 C   0  0  0  0  0  0  0  0  0  0  0  0
    3.7509   -0.7067    1.9741 C   0  0  0  0  0  0  0  0  0  0  0  0
    2.6193   -0.2036    2.5623 O   0  0  0  0  0  0  0  0  0  0  0  0
    1.4927    2.2624   -4.8029 H   0  0  0  0  0  0  0  0  0  0  0  0
    0.7403    0.6585   -4.7622 H   0  0  0  0  0  0  0  0  0  0  0  0
   -1.4679   -2.1432    1.1546 H   0  0  0  0  0  0  0  0  0  0  0  0
   -3.1891   -3.1722    2.6011 H   0  0  0  0  0  0  0  0  0  0  0  0
   -5.5853   -3.0346    1.9839 H   0  0  0  0  0  0  0  0  0  0  0  0
   -6.2644   -1.8733   -0.0789 H   0  0  0  0  0  0  0  0  0  0  0  0
   -5.5423   -0.9427   -1.9900 H   0  0  0  0  0  0  0  0  0  0  0  0
   -2.2026    2.5832   -1.3155 H   0  0  0  0  0  0  0  0  0  0  0  0
   -3.5169    1.4635   -1.0465 H   0  0  0  0  0  0  0  0  0  0  0  0
   -4.2938    1.4225    1.2068 H   0  0  0  0  0  0  0  0  0  0  0  0
   -3.9053    1.6257    3.6294 H   0  0  0  0  0  0  0  0  0  0  0  0
   -1.6281    2.1093    4.4984 H   0  0  0  0  0  0  0  0  0  0  0  0
    0.2643    2.4021    2.9220 H   0  0  0  0  0  0  0  0  0  0  0  0
   -0.0941    2.2001    0.4998 H   0  0  0  0  0  0  0  0  0  0  0  0
    1.9881    1.9000   -1.6977 H   0  0  0  0  0  0  0  0  0  0  0  0
    4.1548    0.0156   -1.9580 H   0  0  0  0  0  0  0  0  0  0  0  0
    5.7771   -0.6199   -0.7756 H   0  0  0  0  0  0  0  0  0  0  0  0
    7.0212   -2.2432    0.5677 H   0  0  0  0  0  0  0  0  0  0  0  0
    6.2144   -2.8949    2.8233 H   0  0  0  0  0  0  0  0  0  0  0  0
    4.1269   -1.9003    3.7266 H   0  0  0  0  0  0  0  0  0  0  0  0
    2.2231    0.4455    1.9432 H   0  0  0  0  0  0  0  0  0  0  0  0
  1  2  2  0
  2  3  1  0
  3  4  1  0
  4  5  1  0
  5  6  2  0
  6  7  1  0
  7  8  2  0
  8  9  1  0
  9 10  2  0
 10 11  1  0
 11 12  2  0
 12 13  1  0
 13 14  2  0
 14 15  1  0
  8 16  1  0
 16 17  1  0
 17 18  1  0
 18 19  2  0
 19 20  1  0
 20 21  2  0
 21 22  1  0
 22 23  2  0
  2 24  1  0
 24 25  1  0
 25 26  1  0
 26 27  2  0
 26 28  1  0
 28 29  2  0
 29 30  1  0
 30 31  2  0
 31 32  1  0
 32 33  2  0
 33 34  1  0
 16  5  1  0
 23 18  1  0
 33 28  1  0
 14  9  1  0
  3 35  1  0
  3 36  1  0
 10 37  1  0
 11 38  1  0
 12 39  1  0
 13 40  1  0
 15 41  1  0
 17 42  1  0
 17 43  1  0
 19 44  1  0
 20 45  1  0
 21 46  1  0
 22 47  1  0
 23 48  1  0
 24 49  1  0
 25 50  1  0
 29 51  1  0
 30 52  1  0
 31 53  1  0
 32 54  1  0
 34 55  1  0
M  END
$$$$
