
     RDKit          3D

 37 40  0  0  0  0  0  0  0  0999 V2000
   -1.3912   -2.9507    0.7351 C   0  0  0  0  0  0  0  0  0  0  0  0
   -0.5766   -1.7474    0.3506 C   0  0  0  0  0  0  0  0  0  0  0  0
    0.8265   -1.8345    0.3246 C   0  0  0  0  0  0  0  0  0  0  0  0
    1.6029   -0.7127   -0.0379 C   0  0  0  0  0  0  0  0  0  0  0  0
    0.9499    0.4760   -0.3695 C   0  0  0  0  0  0  0  0  0  0  0  0
    1.9334    1.3894   -0.6787 N   0  0  0  0  0  0  0  0  0  0  0  0
    3.1864    0.8375   -0.5595 C   0  0  0  0  0  0  0  0  0  0  0  0
    4.4478    1.4051   -0.7753 C   0  0  0  0  0  0  0  0  0  0  0  0
    5.5662    0.5911   -0.5730 C   0  0  0  0  0  0  0  0  0  0  0  0
    5.4255   -0.7352   -0.1717 C   0  0  0  0  0  0  0  0  0  0  0  0
    4.1558   -1.2851    0.0392 C   0  0  0  0  0  0  0  0  0  0  0  0
    3.0114   -0.4845   -0.1579 C   0  0  0  0  0  0  0  0  0  0  0  0
   -0.4505    0.5871   -0.3507 C   0  0  0  0  0  0  0  0  0  0  0  0
   -1.2007   -0.5377    0.0171 C   0  0  0  0  0  0  0  0  0  0  0  0
   -2.5707   -0.5252    0.0526 O   0  0  0  0  0  0  0  0  0  0  0  0
   -3.2695    0.7219   -0.1330 C   0  0  0  0  0  0  0  0  0  0  0  0
   -4.3613    0.4408   -1.1727 C   0  0  0  0  0  0  0  0  0  0  0  0
   -3.9167    1.0709    1.2123 C   0  0  0  0  0  0  0  0  0  0  0  0
   -2.4271    1.8866   -0.6029 C   0  0  0  0  0  0  0  0  0  0  0  0
   -1.0967    1.8340   -0.7127 C   0  0  0  0  0  0  0  0  0  0  0  0
   -0.7535   -3.8086    0.9732 H   0  0  0  0  0  0  0  0  0  0  0  0
   -1.9963   -2.7316    1.6208 H   0  0  0  0  0  0  0  0  0  0  0  0
   -2.0474   -3.2438   -0.0908 H   0  0  0  0  0  0  0  0  0  0  0  0
    1.3245   -2.7653    0.5821 H   0  0  0  0  0  0  0  0  0  0  0  0
    1.7603    2.3432   -0.9560 H   0  0  0  0  0  0  0  0  0  0  0  0
    4.5616    2.4378   -1.0881 H   0  0  0  0  0  0  0  0  0  0  0  0
    6.5613    1.0006   -0.7319 H   0  0  0  0  0  0  0  0  0  0  0  0
    6.3085   -1.3511   -0.0201 H   0  0  0  0  0  0  0  0  0  0  0  0
    4.0550   -2.3200    0.3521 H   0  0  0  0  0  0  0  0  0  0  0  0
   -3.9194    0.1481   -2.1329 H   0  0  0  0  0  0  0  0  0  0  0  0
   -5.0035    1.3123   -1.3410 H   0  0  0  0  0  0  0  0  0  0  0  0
   -4.9944   -0.3970   -0.8574 H   0  0  0  0  0  0  0  0  0  0  0  0
   -4.5444    0.2459    1.5692 H   0  0  0  0  0  0  0  0  0  0  0  0
   -3.1536    1.2323    1.9832 H   0  0  0  0  0  0  0  0  0  0  0  0
   -4.5361    1.9724    1.1483 H   0  0  0  0  0  0  0  0  0  0  0  0
   -2.9432    2.8103   -0.8510 H   0  0  0  0  0  0  0  0  0  0  0  0
   -0.5242    2.6872   -1.0498 H   0  0  0  0  0  0  0  0  0  0  0  0
  1  2  1  0
  2  3  2  0
  3  4  1  0
  4  5  2  0
  5  6  1  0
  6  7  1  0
  7  8  2  0
  8  9  1  0
  9 10  2  0
 10 11  1  0
 11 12  2  0
  5 13  1  0
 13 14  2  0
 14 15  1  0
 15 16  1  0
 16 17  1  0
 16 18  1  0
 16 19  1  0
 19 20  2  0
 14  2  1  0
 12  4  1  0
 20 13  1  0
 12  7  1  0
  1 21  1  0
  1 22  1  0
  1 23  1  0
  3 24  1  0
  6 25  1  0
  8 26  1  0
  9 27  1  0
 10 28  1  0
 11 29  1  0
 17 30  1  0
 17 31  1  0
 17 32  1  0
 18 33  1  0
 18 34  1  0
 18 35  1  0
 19 36  1  0
 20 37  1  0
M  END
$$$$
