
     RDKit          3D

 50 53  0  0  0  0  0  0  0  0999 V2000
   -3.9771    1.5601    4.4598 C   0  0  0  0  0  0  0  0  0  0  0  0
   -3.2291    1.7776    3.1537 C   0  0  0  0  0  0  0  0  0  0  0  0
   -1.7189    1.6887    3.3312 C   0  0  0  0  0  0  0  0  0  0  0  0
   -1.2174    1.7266    4.4560 O   0  0  0  0  0  0  0  0  0  0  0  0
   -0.9417    1.5883    2.1759 N   0  0  0  0  0  0  0  0  0  0  0  0
   -1.4492    1.9425    0.8431 C   0  0  0  0  0  0  0  0  0  0  0  0
   -1.5758    0.7854   -0.1228 C   0  0  0  0  0  0  0  0  0  0  0  0
   -1.2941    0.9868   -1.4825 C   0  0  0  0  0  0  0  0  0  0  0  0
   -1.3970   -0.0634   -2.3983 C   0  0  0  0  0  0  0  0  0  0  0  0
   -1.8100   -1.3314   -1.9794 C   0  0  0  0  0  0  0  0  0  0  0  0
   -1.8748   -2.4707   -2.9519 C   0  0  0  0  0  0  0  0  0  0  0  0
   -2.1034   -1.5354   -0.6278 C   0  0  0  0  0  0  0  0  0  0  0  0
   -1.9995   -0.4852    0.2882 C   0  0  0  0  0  0  0  0  0  0  0  0
    0.5137    1.4883    2.3711 C   0  0  0  0  0  0  0  0  0  0  0  0
    1.1899    0.5999    1.3693 C   0  0  0  0  0  0  0  0  0  0  0  0
    1.9014    1.0693    0.3276 C   0  0  0  0  0  0  0  0  0  0  0  0
    2.5039    0.1591   -0.6461 C   0  0  0  0  0  0  0  0  0  0  0  0
    3.1997    0.6445   -1.7587 C   0  0  0  0  0  0  0  0  0  0  0  0
    3.7197   -0.2810   -2.6399 C   0  0  0  0  0  0  0  0  0  0  0  0
    3.5706   -1.6359   -2.4481 C   0  0  0  0  0  0  0  0  0  0  0  0
    2.8937   -2.1490   -1.3628 C   0  0  0  0  0  0  0  0  0  0  0  0
    2.3571   -1.2322   -0.4571 C   0  0  0  0  0  0  0  0  0  0  0  0
    1.6626   -1.6936    0.6650 N   0  0  0  0  0  0  0  0  0  0  0  0
    1.0812   -0.8743    1.5962 C   0  0  0  0  0  0  0  0  0  0  0  0
    0.5027   -1.3466    2.5699 O   0  0  0  0  0  0  0  0  0  0  0  0
    4.1576   -2.3660   -3.4341 O   0  0  0  0  0  0  0  0  0  0  0  0
    4.6978   -1.3181   -4.2660 C   0  0  0  0  0  0  0  0  0  0  0  0
    4.4187    0.0081   -3.7704 O   0  0  0  0  0  0  0  0  0  0  0  0
   -3.7400    0.5809    4.8890 H   0  0  0  0  0  0  0  0  0  0  0  0
   -3.7129    2.3239    5.1986 H   0  0  0  0  0  0  0  0  0  0  0  0
   -5.0576    1.6085    4.2922 H   0  0  0  0  0  0  0  0  0  0  0  0
   -3.4767    2.7739    2.7732 H   0  0  0  0  0  0  0  0  0  0  0  0
   -3.5602    1.0249    2.4327 H   0  0  0  0  0  0  0  0  0  0  0  0
   -0.7713    2.7051    0.4390 H   0  0  0  0  0  0  0  0  0  0  0  0
   -2.4282    2.4239    0.9089 H   0  0  0  0  0  0  0  0  0  0  0  0
   -0.9725    1.9625   -1.8399 H   0  0  0  0  0  0  0  0  0  0  0  0
   -1.1489    0.1150   -3.4422 H   0  0  0  0  0  0  0  0  0  0  0  0
   -2.1366   -2.1145   -3.9540 H   0  0  0  0  0  0  0  0  0  0  0  0
   -2.6404   -3.1952   -2.6549 H   0  0  0  0  0  0  0  0  0  0  0  0
   -0.9063   -2.9781   -2.9980 H   0  0  0  0  0  0  0  0  0  0  0  0
   -2.4068   -2.5175   -0.2718 H   0  0  0  0  0  0  0  0  0  0  0  0
   -2.2175   -0.6850    1.3355 H   0  0  0  0  0  0  0  0  0  0  0  0
    0.7529    1.1395    3.3823 H   0  0  0  0  0  0  0  0  0  0  0  0
    0.9042    2.5124    2.3085 H   0  0  0  0  0  0  0  0  0  0  0  0
    2.0109    2.1353    0.1594 H   0  0  0  0  0  0  0  0  0  0  0  0
    3.3308    1.7054   -1.9379 H   0  0  0  0  0  0  0  0  0  0  0  0
    2.7887   -3.2188   -1.2324 H   0  0  0  0  0  0  0  0  0  0  0  0
    1.5504   -2.6845    0.8278 H   0  0  0  0  0  0  0  0  0  0  0  0
    5.7844   -1.4468   -4.3311 H   0  0  0  0  0  0  0  0  0  0  0  0
    4.2712   -1.4135   -5.2711 H   0  0  0  0  0  0  0  0  0  0  0  0
  1  2  1  0
  2  3  1  0
  3  4  2  0
  3  5  1  0
  5  6  1  0
  6  7  1  0
  7  8  2  0
  8  9  1  0
  9 10  2  0
 10 11  1  0
 10 12  1  0
 12 13  2  0
  5 14  1  0
 14 15  1  0
 15 16  2  0
 16 17  1  0
 17 18  2  0
 18 19  1  0
 19 20  2  0
 20 21  1  0
 21 22  2  0
 22 23  1  0
 23 24  1  0
 24 25  2  0
 20 26  1  0
 26 27  1  0
 27 28  1  0
 13  7  1  0
 24 15  1  0
 22 17  1  0
 28 19  1  0
  1 29  1  0
  1 30  1  0
  1 31  1  0
  2 32  1  0
  2 33  1  0
  6 34  1  0
  6 35  1  0
  8 36  1  0
  9 37  1  0
 11 38  1  0
 11 39  1  0
 11 40  1  0
 12 41  1  0
 13 42  1  0
 14 43  1  0
 14 44  1  0
 16 45  1  0
 18 46  1  0
 21 47  1  0
 23 48  1  0
 27 49  1  0
 27 50  1  0
M  END
$$$$
