
     RDKit          3D

 37 39  0  0  0  0  0  0  0  0999 V2000
   -4.8182   -2.2430    1.1086 C   0  0  0  0  0  0  0  0  0  0  0  0
   -4.4199   -1.5083   -0.1591 C   0  0  0  0  0  0  0  0  0  0  0  0
   -4.1212   -0.1067    0.0873 N   0  0  0  0  0  0  0  0  0  0  0  0
   -5.1408    0.7810    0.0138 N   0  0  0  0  0  0  0  0  0  0  0  0
   -4.5632    1.9520    0.2789 C   0  0  0  0  0  0  0  0  0  0  0  0
   -3.1876    1.8144    0.4931 C   0  0  0  0  0  0  0  0  0  0  0  0
   -2.0789    3.2520    0.9512 Br  0  0  0  0  0  0  0  0  0  0  0  0
   -2.8937    0.4731    0.3437 C   0  0  0  0  0  0  0  0  0  0  0  0
   -1.6499   -0.2646    0.4560 C   0  0  0  0  0  0  0  0  0  0  0  0
   -1.6460   -1.4349    0.8198 O   0  0  0  0  0  0  0  0  0  0  0  0
   -0.5391    0.4570    0.0651 N   0  0  0  0  0  0  0  0  0  0  0  0
    0.7917    0.0590    0.0932 C   0  0  0  0  0  0  0  0  0  0  0  0
    1.2650   -1.3989    0.8597 S   0  0  0  0  0  0  0  0  0  0  0  0
    2.8662   -1.0917    0.5269 C   0  0  0  0  0  0  0  0  0  0  0  0
    3.0845    0.0728   -0.1558 C   0  0  0  0  0  0  0  0  0  0  0  0
    1.8723    0.7709   -0.4447 C   0  0  0  0  0  0  0  0  0  0  0  0
    1.6874    2.0294   -1.1644 C   0  0  0  0  0  0  0  0  0  0  0  0
    2.7680    2.5260   -1.8330 N   0  0  0  0  0  0  0  0  0  0  0  0
    0.6109    2.6188   -1.2184 O   0  0  0  0  0  0  0  0  0  0  0  0
    4.5423    0.2694   -0.3820 C   0  0  0  0  0  0  0  0  0  0  0  0
    5.1832   -0.7792    0.5789 C   0  0  0  0  0  0  0  0  0  0  0  0
    4.0922   -1.8536    0.8569 C   0  0  0  0  0  0  0  0  0  0  0  0
   -5.0341   -3.2926    0.8868 H   0  0  0  0  0  0  0  0  0  0  0  0
   -4.0225   -2.2088    1.8594 H   0  0  0  0  0  0  0  0  0  0  0  0
   -5.7138   -1.7983    1.5555 H   0  0  0  0  0  0  0  0  0  0  0  0
   -5.2393   -1.5437   -0.8870 H   0  0  0  0  0  0  0  0  0  0  0  0
   -3.5538   -1.9732   -0.6384 H   0  0  0  0  0  0  0  0  0  0  0  0
   -5.1744    2.8447    0.3089 H   0  0  0  0  0  0  0  0  0  0  0  0
   -0.6929    1.3826   -0.3338 H   0  0  0  0  0  0  0  0  0  0  0  0
    3.5689    1.9527   -2.0435 H   0  0  0  0  0  0  0  0  0  0  0  0
    2.5898    3.3210   -2.4321 H   0  0  0  0  0  0  0  0  0  0  0  0
    4.8025    0.0398   -1.4206 H   0  0  0  0  0  0  0  0  0  0  0  0
    4.8788    1.2800   -0.1348 H   0  0  0  0  0  0  0  0  0  0  0  0
    6.1011   -1.2124    0.1699 H   0  0  0  0  0  0  0  0  0  0  0  0
    5.4451   -0.2834    1.5231 H   0  0  0  0  0  0  0  0  0  0  0  0
    4.1268   -2.1952    1.8949 H   0  0  0  0  0  0  0  0  0  0  0  0
    4.2127   -2.7080    0.1830 H   0  0  0  0  0  0  0  0  0  0  0  0
  1  2  1  0
  2  3  1  0
  3  4  1  0
  4  5  2  0
  5  6  1  0
  6  7  1  0
  6  8  2  0
  8  9  1  0
  9 10  2  0
  9 11  1  0
 11 12  1  0
 12 13  1  0
 13 14  1  0
 14 15  2  0
 15 16  1  0
 16 17  1  0
 17 18  1  0
 17 19  2  0
 15 20  1  0
 20 21  1  0
 21 22  1  0
  8  3  1  0
 16 12  2  0
 22 14  1  0
  1 23  1  0
  1 24  1  0
  1 25  1  0
  2 26  1  0
  2 27  1  0
  5 28  1  0
 11 29  1  0
 18 30  1  0
 18 31  1  0
 20 32  1  0
 20 33  1  0
 21 34  1  0
 21 35  1  0
 22 36  1  0
 22 37  1  0
M  END
$$$$
