
     RDKit          3D

 46 49  0  0  0  0  0  0  0  0999 V2000
    3.8230    1.3998    3.0939 O   0  0  0  0  0  0  0  0  0  0  0  0
    2.9294    1.2037    2.2674 C   0  0  0  0  0  0  0  0  0  0  0  0
    1.4925    0.9927    2.7301 C   0  0  0  0  0  0  0  0  0  0  0  0
    0.8159   -0.6125    2.1707 S   0  0  0  0  0  0  0  0  0  0  0  0
   -0.0112   -0.0982    0.7453 C   0  0  0  0  0  0  0  0  0  0  0  0
    0.4636    0.7809   -0.0994 N   0  0  0  0  0  0  0  0  0  0  0  0
   -0.4991    1.0083   -1.0390 N   0  0  0  0  0  0  0  0  0  0  0  0
   -1.5468    0.2543   -0.7558 C   0  0  0  0  0  0  0  0  0  0  0  0
   -2.8294    0.2446   -1.5271 C   0  0  0  0  0  0  0  0  0  0  0  0
   -3.9941    0.8112   -0.7639 C   0  0  0  0  0  0  0  0  0  0  0  0
   -5.1482    0.1698   -0.3508 C   0  0  0  0  0  0  0  0  0  0  0  0
   -6.0133    1.0269    0.3962 C   0  0  0  0  0  0  0  0  0  0  0  0
   -5.5100    2.3039    0.4917 C   0  0  0  0  0  0  0  0  0  0  0  0
   -4.0082    2.4657   -0.3132 S   0  0  0  0  0  0  0  0  0  0  0  0
   -1.2542   -0.5119    0.3516 N   0  0  0  0  0  0  0  0  0  0  0  0
   -2.1064   -1.4934    1.0010 C   0  0  0  0  0  0  0  0  0  0  0  0
   -2.1533   -2.7517    0.2149 C   0  0  0  0  0  0  0  0  0  0  0  0
   -1.2842   -3.8208    0.0713 C   0  0  0  0  0  0  0  0  0  0  0  0
   -1.9058   -4.7235   -0.8264 C   0  0  0  0  0  0  0  0  0  0  0  0
   -3.1109   -4.1554   -1.1680 C   0  0  0  0  0  0  0  0  0  0  0  0
   -3.2735   -2.9700   -0.5277 O   0  0  0  0  0  0  0  0  0  0  0  0
    3.0865    1.2054    0.9014 N   0  0  0  0  0  0  0  0  0  0  0  0
    4.2722    1.3809    0.1573 C   0  0  0  0  0  0  0  0  0  0  0  0
    4.1701    1.2475   -1.2338 C   0  0  0  0  0  0  0  0  0  0  0  0
    5.3044    1.3808   -2.0418 C   0  0  0  0  0  0  0  0  0  0  0  0
    5.1805    1.1405   -3.7322 Cl  0  0  0  0  0  0  0  0  0  0  0  0
    6.5413    1.6792   -1.4781 C   0  0  0  0  0  0  0  0  0  0  0  0
    6.6398    1.8235   -0.0937 C   0  0  0  0  0  0  0  0  0  0  0  0
    8.1678    2.2083    0.6103 Cl  0  0  0  0  0  0  0  0  0  0  0  0
    5.5176    1.6668    0.7243 C   0  0  0  0  0  0  0  0  0  0  0  0
    0.8685    1.8397    2.4104 H   0  0  0  0  0  0  0  0  0  0  0  0
    1.4889    0.9781    3.8320 H   0  0  0  0  0  0  0  0  0  0  0  0
   -3.0551   -0.7728   -1.8590 H   0  0  0  0  0  0  0  0  0  0  0  0
   -2.6960    0.8288   -2.4447 H   0  0  0  0  0  0  0  0  0  0  0  0
   -5.3557   -0.8737   -0.5512 H   0  0  0  0  0  0  0  0  0  0  0  0
   -6.9547    0.7262    0.8387 H   0  0  0  0  0  0  0  0  0  0  0  0
   -5.9550    3.1581    1.0001 H   0  0  0  0  0  0  0  0  0  0  0  0
   -1.7317   -1.7019    2.0046 H   0  0  0  0  0  0  0  0  0  0  0  0
   -3.1007   -1.0537    1.1294 H   0  0  0  0  0  0  0  0  0  0  0  0
   -0.3198   -3.9353    0.5533 H   0  0  0  0  0  0  0  0  0  0  0  0
   -1.5217   -5.6664   -1.1881 H   0  0  0  0  0  0  0  0  0  0  0  0
   -3.9229   -4.4556   -1.8167 H   0  0  0  0  0  0  0  0  0  0  0  0
    2.2352    1.0509    0.3494 H   0  0  0  0  0  0  0  0  0  0  0  0
    3.2090    1.0265   -1.6986 H   0  0  0  0  0  0  0  0  0  0  0  0
    7.4206    1.7923   -2.1073 H   0  0  0  0  0  0  0  0  0  0  0  0
    5.6353    1.8014    1.7893 H   0  0  0  0  0  0  0  0  0  0  0  0
  1  2  2  0
  2  3  1  0
  3  4  1  0
  4  5  1  0
  5  6  2  0
  6  7  1  0
  7  8  2  0
  8  9  1  0
  9 10  1  0
 10 11  2  0
 11 12  1  0
 12 13  2  0
 13 14  1  0
  8 15  1  0
 15 16  1  0
 16 17  1  0
 17 18  2  0
 18 19  1  0
 19 20  2  0
 20 21  1  0
  2 22  1  0
 22 23  1  0
 23 24  2  0
 24 25  1  0
 25 26  1  0
 25 27  2  0
 27 28  1  0
 28 29  1  0
 28 30  2  0
 15  5  1  0
 21 17  1  0
 30 23  1  0
 14 10  1  0
  3 31  1  0
  3 32  1  0
  9 33  1  0
  9 34  1  0
 11 35  1  0
 12 36  1  0
 13 37  1  0
 16 38  1  0
 16 39  1  0
 18 40  1  0
 19 41  1  0
 20 42  1  0
 22 43  1  0
 24 44  1  0
 27 45  1  0
 30 46  1  0
M  END
$$$$
