
     RDKit          3D

 69 75  0  0  0  0  0  0  0  0999 V2000
   -4.8784    4.9834    1.4701 C   0  0  0  0  0  0  0  0  0  0  0  0
   -4.1212    4.0382    0.5859 C   0  0  0  0  0  0  0  0  0  0  0  0
   -4.2995    4.0320   -0.8112 C   0  0  0  0  0  0  0  0  0  0  0  0
   -5.4144    5.1115   -1.5769 Cl  0  0  0  0  0  0  0  0  0  0  0  0
   -3.5777    3.1548   -1.6456 C   0  0  0  0  0  0  0  0  0  0  0  0
   -2.6521    2.2588   -1.1114 C   0  0  0  0  0  0  0  0  0  0  0  0
   -2.4683    2.2570    0.2609 C   0  0  0  0  0  0  0  0  0  0  0  0
   -3.1863    3.1392    1.0839 C   0  0  0  0  0  0  0  0  0  0  0  0
   -2.7991    2.9583    2.4116 N   0  0  0  0  0  0  0  0  0  0  0  0
   -1.8099    1.9792    2.5380 C   0  0  0  0  0  0  0  0  0  0  0  0
   -1.2702    1.6622    3.5873 O   0  0  0  0  0  0  0  0  0  0  0  0
   -1.5499    1.4331    1.1127 C   0  0  1  0  0  0  0  0  0  0  0  0
   -1.8943   -0.0080    0.9716 C   0  0  0  0  0  0  0  0  0  0  0  0
   -0.7201   -0.7739    0.8908 C   0  0  0  0  0  0  0  0  0  0  0  0
   -1.0574   -2.0956    0.7889 C   0  0  0  0  0  0  0  0  0  0  0  0
   -0.2745   -3.1719    0.7846 O   0  0  0  0  0  0  0  0  0  0  0  0
   -2.4700   -2.1710    0.7538 N   0  0  0  0  0  0  0  0  0  0  0  0
   -3.2520   -3.3714    0.6181 C   0  0  0  0  0  0  0  0  0  0  0  0
   -4.5711   -3.4296    1.0913 C   0  0  0  0  0  0  0  0  0  0  0  0
   -5.3291   -4.5978    0.9564 C   0  0  0  0  0  0  0  0  0  0  0  0
   -4.7817   -5.7218    0.3459 C   0  0  0  0  0  0  0  0  0  0  0  0
   -3.4747   -5.6791   -0.1297 C   0  0  0  0  0  0  0  0  0  0  0  0
   -2.7135   -4.5131    0.0060 C   0  0  0  0  0  0  0  0  0  0  0  0
   -2.9713   -0.8530    0.8791 C   0  0  0  0  0  0  0  0  0  0  0  0
   -4.2715   -0.5695    0.8390 O   0  0  0  0  0  0  0  0  0  0  0  0
    0.4727    0.0960    0.9948 C   0  0  1  0  0  0  0  0  0  0  0  0
    1.6017   -0.1239   -0.0185 C   0  0  0  0  0  0  0  0  0  0  0  0
    2.4808    1.0593   -0.1520 N   0  0  0  0  0  0  0  0  0  0  0  0
    3.4759    1.2013   -1.1000 C   0  0  0  0  0  0  0  0  0  0  0  0
    4.1545    2.2199   -1.2035 O   0  0  0  0  0  0  0  0  0  0  0  0
    3.6342    0.1291   -1.9378 N   0  0  0  0  0  0  0  0  0  0  0  0
    4.6799    0.1056   -2.9371 C   0  0  0  0  0  0  0  0  0  0  0  0
    5.8628   -0.6964   -2.4569 C   0  0  0  0  0  0  0  0  0  0  0  0
    6.0264   -2.0347   -2.8413 C   0  0  0  0  0  0  0  0  0  0  0  0
    7.1132   -2.7762   -2.3745 C   0  0  0  0  0  0  0  0  0  0  0  0
    8.0411   -2.1905   -1.5148 C   0  0  0  0  0  0  0  0  0  0  0  0
    7.8833   -0.8638   -1.1191 C   0  0  0  0  0  0  0  0  0  0  0  0
    6.7986   -0.1206   -1.5856 C   0  0  0  0  0  0  0  0  0  0  0  0
    2.2459    2.1581    0.8020 C   0  0  0  0  0  0  0  0  0  0  0  0
    0.7465    2.5427    0.9476 C   0  0  0  0  0  0  0  0  0  0  0  0
   -0.1366    1.4169    0.7048 N   0  0  0  0  0  0  0  0  0  0  0  0
   -5.9559    4.8888    1.3001 H   0  0  0  0  0  0  0  0  0  0  0  0
   -4.7120    4.7854    2.5323 H   0  0  0  0  0  0  0  0  0  0  0  0
   -4.5680    6.0146    1.2738 H   0  0  0  0  0  0  0  0  0  0  0  0
   -3.7349    3.1754   -2.7224 H   0  0  0  0  0  0  0  0  0  0  0  0
   -2.0884    1.5877   -1.7537 H   0  0  0  0  0  0  0  0  0  0  0  0
   -3.1372    3.4770    3.2086 H   0  0  0  0  0  0  0  0  0  0  0  0
    0.6300   -2.8943    1.0038 H   0  0  0  0  0  0  0  0  0  0  0  0
   -5.0309   -2.5918    1.6063 H   0  0  0  0  0  0  0  0  0  0  0  0
   -6.3470   -4.6269    1.3368 H   0  0  0  0  0  0  0  0  0  0  0  0
   -5.3716   -6.6280    0.2412 H   0  0  0  0  0  0  0  0  0  0  0  0
   -3.0440   -6.5516   -0.6137 H   0  0  0  0  0  0  0  0  0  0  0  0
   -1.7115   -4.5177   -0.4120 H   0  0  0  0  0  0  0  0  0  0  0  0
   -4.3755    0.3971    0.8112 H   0  0  0  0  0  0  0  0  0  0  0  0
    0.8554    0.0676    2.0239 H   0  0  0  0  0  0  0  0  0  0  0  0
    2.2224   -0.9734    0.2897 H   0  0  0  0  0  0  0  0  0  0  0  0
    1.1987   -0.3554   -1.0127 H   0  0  0  0  0  0  0  0  0  0  0  0
    3.3624   -0.7705   -1.5825 H   0  0  0  0  0  0  0  0  0  0  0  0
    4.2524   -0.3541   -3.8353 H   0  0  0  0  0  0  0  0  0  0  0  0
    4.9914    1.1196   -3.2120 H   0  0  0  0  0  0  0  0  0  0  0  0
    5.3113   -2.5074   -3.5107 H   0  0  0  0  0  0  0  0  0  0  0  0
    7.2373   -3.8115   -2.6822 H   0  0  0  0  0  0  0  0  0  0  0  0
    8.8878   -2.7674   -1.1530 H   0  0  0  0  0  0  0  0  0  0  0  0
    8.6041   -0.4057   -0.4466 H   0  0  0  0  0  0  0  0  0  0  0  0
    6.6796    0.9137   -1.2657 H   0  0  0  0  0  0  0  0  0  0  0  0
    2.6234    1.8013    1.7687 H   0  0  0  0  0  0  0  0  0  0  0  0
    2.8265    3.0488    0.5417 H   0  0  0  0  0  0  0  0  0  0  0  0
    0.5143    3.3255    0.2165 H   0  0  0  0  0  0  0  0  0  0  0  0
    0.6069    2.9785    1.9429 H   0  0  0  0  0  0  0  0  0  0  0  0
  1  2  1  0
  2  3  2  0
  3  4  1  0
  3  5  1  0
  5  6  2  0
  6  7  1  0
  7  8  2  0
  8  9  1  0
  9 10  1  0
 10 11  2  0
 10 12  1  0
 12 13  1  0
 13 14  1  0
 14 15  2  0
 15 16  1  0
 15 17  1  0
 17 18  1  0
 18 19  2  0
 19 20  1  0
 20 21  2  0
 21 22  1  0
 22 23  2  0
 17 24  1  0
 24 25  1  0
 14 26  1  0
 26 27  1  0
 27 28  1  0
 28 29  1  0
 29 30  2  0
 29 31  1  0
 31 32  1  0
 32 33  1  0
 33 34  2  0
 34 35  1  0
 35 36  2  0
 36 37  1  0
 37 38  2  0
 28 39  1  0
 39 40  1  0
 40 41  1  0
  8  2  1  0
 12 41  1  6
 12  7  1  0
 24 13  2  0
 41 26  1  0
 23 18  1  0
 38 33  1  0
  1 42  1  0
  1 43  1  0
  1 44  1  0
  5 45  1  0
  6 46  1  0
  9 47  1  0
 16 48  1  0
 19 49  1  0
 20 50  1  0
 21 51  1  0
 22 52  1  0
 23 53  1  0
 25 54  1  0
 26 55  1  1
 27 56  1  0
 27 57  1  0
 31 58  1  0
 32 59  1  0
 32 60  1  0
 34 61  1  0
 35 62  1  0
 36 63  1  0
 37 64  1  0
 38 65  1  0
 39 66  1  0
 39 67  1  0
 40 68  1  0
 40 69  1  0
M  END
$$$$
