
     RDKit          3D

 57 60  0  0  0  0  0  0  0  0999 V2000
   -9.0341    2.4305    0.3726 C   0  0  0  0  0  0  0  0  0  0  0  0
   -8.0267    2.2555    1.4984 C   0  0  0  0  0  0  0  0  0  0  0  0
   -6.7381    1.6472    1.0084 C   0  0  0  0  0  0  0  0  0  0  0  0
   -6.5800    0.2597    0.9599 C   0  0  0  0  0  0  0  0  0  0  0  0
   -5.3887   -0.3022    0.4876 C   0  0  0  0  0  0  0  0  0  0  0  0
   -4.3179    0.4983    0.0508 C   0  0  0  0  0  0  0  0  0  0  0  0
   -3.0654   -0.1169   -0.4357 C   0  0  0  0  0  0  0  0  0  0  0  0
   -1.8243    0.4738   -0.2775 C   0  0  0  0  0  0  0  0  0  0  0  0
   -0.7011   -0.1952   -0.7647 C   0  0  0  0  0  0  0  0  0  0  0  0
    0.6051    0.4546   -0.5119 C   0  0  0  0  0  0  0  0  0  0  0  0
    0.7753    1.5880   -0.9393 O   0  0  0  0  0  0  0  0  0  0  0  0
    1.4743   -0.3085    0.2435 N   0  0  0  0  0  0  0  0  0  0  0  0
    2.7811    0.0304    0.6475 C   0  0  0  0  0  0  0  0  0  0  0  0
    3.4745   -0.9122    1.4198 C   0  0  0  0  0  0  0  0  0  0  0  0
    4.7777   -0.6587    1.8560 C   0  0  0  0  0  0  0  0  0  0  0  0
    5.3983    0.5412    1.5087 C   0  0  0  0  0  0  0  0  0  0  0  0
    7.0408    0.8848    2.0824 S   0  0  0  0  0  6  0  0  0  0  0  0
    7.3468    0.0242    3.2023 O   0  0  0  0  0  0  0  0  0  0  0  0
    7.1696    2.3234    2.1968 O   0  0  0  0  0  0  0  0  0  0  0  0
    7.9940    0.4643    0.7893 N   0  0  0  0  0  0  0  0  0  0  0  0
    8.1401   -0.8302    0.2805 C   0  0  0  0  0  0  0  0  0  0  0  0
    9.1300   -0.9348   -0.8451 C   0  0  0  0  0  0  0  0  0  0  0  0
    7.5028   -1.7914    0.6841 O   0  0  0  0  0  0  0  0  0  0  0  0
    4.7146    1.4968    0.7551 C   0  0  0  0  0  0  0  0  0  0  0  0
    3.4101    1.2351    0.3214 C   0  0  0  0  0  0  0  0  0  0  0  0
   -0.8170   -1.4255   -1.4453 C   0  0  0  0  0  0  0  0  0  0  0  0
    0.2583   -2.1374   -2.0383 C   0  0  0  0  0  0  0  0  0  0  0  0
    0.0460   -3.3562   -2.6793 C   0  0  0  0  0  0  0  0  0  0  0  0
   -1.2380   -3.8766   -2.7457 C   0  0  0  0  0  0  0  0  0  0  0  0
   -2.3012   -3.1688   -2.1805 C   0  0  0  0  0  0  0  0  0  0  0  0
   -2.1174   -1.9510   -1.5394 C   0  0  0  0  0  0  0  0  0  0  0  0
   -3.1959   -1.3260   -1.0378 N   0  0  0  0  0  0  0  0  0  0  0  0
   -4.5009    1.8920    0.0913 C   0  0  0  0  0  0  0  0  0  0  0  0
   -5.6915    2.4591    0.5621 C   0  0  0  0  0  0  0  0  0  0  0  0
   -8.6433    3.0879   -0.4114 H   0  0  0  0  0  0  0  0  0  0  0  0
   -9.9583    2.8736    0.7574 H   0  0  0  0  0  0  0  0  0  0  0  0
   -9.2851    1.4697   -0.0894 H   0  0  0  0  0  0  0  0  0  0  0  0
   -7.8226    3.2262    1.9663 H   0  0  0  0  0  0  0  0  0  0  0  0
   -8.4560    1.6241    2.2858 H   0  0  0  0  0  0  0  0  0  0  0  0
   -7.3825   -0.3981    1.2856 H   0  0  0  0  0  0  0  0  0  0  0  0
   -5.2974   -1.3871    0.4630 H   0  0  0  0  0  0  0  0  0  0  0  0
   -1.7099    1.4243    0.2342 H   0  0  0  0  0  0  0  0  0  0  0  0
    1.1318   -1.2078    0.5627 H   0  0  0  0  0  0  0  0  0  0  0  0
    3.0138   -1.8583    1.6937 H   0  0  0  0  0  0  0  0  0  0  0  0
    5.3035   -1.4034    2.4512 H   0  0  0  0  0  0  0  0  0  0  0  0
    8.4981    1.2513    0.3946 H   0  0  0  0  0  0  0  0  0  0  0  0
    9.2636   -1.9843   -1.1219 H   0  0  0  0  0  0  0  0  0  0  0  0
    8.7605   -0.3807   -1.7119 H   0  0  0  0  0  0  0  0  0  0  0  0
   10.0953   -0.5287   -0.5305 H   0  0  0  0  0  0  0  0  0  0  0  0
    5.1787    2.4479    0.5037 H   0  0  0  0  0  0  0  0  0  0  0  0
    2.9084    1.9988   -0.2654 H   0  0  0  0  0  0  0  0  0  0  0  0
    1.2705   -1.7371   -2.0233 H   0  0  0  0  0  0  0  0  0  0  0  0
    0.8780   -3.8904   -3.1317 H   0  0  0  0  0  0  0  0  0  0  0  0
   -1.4219   -4.8245   -3.2453 H   0  0  0  0  0  0  0  0  0  0  0  0
   -3.3078   -3.5766   -2.2500 H   0  0  0  0  0  0  0  0  0  0  0  0
   -3.7228    2.5640   -0.2646 H   0  0  0  0  0  0  0  0  0  0  0  0
   -5.7958    3.5420    0.5700 H   0  0  0  0  0  0  0  0  0  0  0  0
  1  2  1  0
  2  3  1  0
  3  4  2  0
  4  5  1  0
  5  6  2  0
  6  7  1  0
  7  8  2  0
  8  9  1  0
  9 10  1  0
 10 11  2  0
 10 12  1  0
 12 13  1  0
 13 14  2  0
 14 15  1  0
 15 16  2  0
 16 17  1  0
 17 18  2  0
 17 19  2  0
 17 20  1  0
 20 21  1  0
 21 22  1  0
 21 23  2  0
 16 24  1  0
 24 25  2  0
  9 26  2  0
 26 27  1  0
 27 28  2  0
 28 29  1  0
 29 30  2  0
 30 31  1  0
 31 32  2  0
  6 33  1  0
 33 34  2  0
 34  3  1  0
 32  7  1  0
 25 13  1  0
 31 26  1  0
  1 35  1  0
  1 36  1  0
  1 37  1  0
  2 38  1  0
  2 39  1  0
  4 40  1  0
  5 41  1  0
  8 42  1  0
 12 43  1  0
 14 44  1  0
 15 45  1  0
 20 46  1  0
 22 47  1  0
 22 48  1  0
 22 49  1  0
 24 50  1  0
 25 51  1  0
 27 52  1  0
 28 53  1  0
 29 54  1  0
 30 55  1  0
 33 56  1  0
 34 57  1  0
M  END
$$$$
