
     RDKit          3D

 37 39  0  0  0  0  0  0  0  0999 V2000
    6.0003    0.9932   -0.6120 C   0  0  0  0  0  0  0  0  0  0  0  0
    4.6224    0.9893   -0.9693 O   0  0  0  0  0  0  0  0  0  0  0  0
    3.7639    0.3290   -0.1322 C   0  0  0  0  0  0  0  0  0  0  0  0
    4.1164   -0.3103    1.0640 C   0  0  0  0  0  0  0  0  0  0  0  0
    3.1436   -0.9461    1.8409 C   0  0  0  0  0  0  0  0  0  0  0  0
    1.8281   -0.9316    1.4035 C   0  0  0  0  0  0  0  0  0  0  0  0
    1.4519   -0.3038    0.1999 C   0  0  0  0  0  0  0  0  0  0  0  0
    2.4284    0.3326   -0.5611 C   0  0  0  0  0  0  0  0  0  0  0  0
    0.0533   -0.3737   -0.0957 N   0  0  0  0  0  0  0  0  0  0  0  0
   -0.2073   -0.5935   -1.5223 C   0  0  0  0  0  0  0  0  0  0  0  0
   -0.6143   -1.0616    0.9303 C   0  0  0  0  0  0  0  0  0  0  0  0
   -1.9382   -1.2006    1.1263 C   0  0  0  0  0  0  0  0  0  0  0  0
   -2.9910   -0.5916    0.3153 C   0  0  0  0  0  0  0  0  0  0  0  0
   -3.8662   -1.4284   -0.3897 C   0  0  0  0  0  0  0  0  0  0  0  0
   -4.8642   -0.8820   -1.1857 C   0  0  0  0  0  0  0  0  0  0  0  0
   -4.9818    0.4957   -1.2680 C   0  0  0  0  0  0  0  0  0  0  0  0
   -4.1106    1.2989   -0.5438 C   0  0  0  0  0  0  0  0  0  0  0  0
   -3.1466    0.7610    0.2423 N   0  0  0  0  0  4  0  0  0  0  0  0
   -2.2894    1.6860    1.0169 C   0  0  0  0  0  0  0  0  0  0  0  0
    0.4418   -1.6945    2.2212 S   0  0  0  0  0  0  0  0  0  0  0  0
    6.1586    1.5130    0.3386 H   0  0  0  0  0  0  0  0  0  0  0  0
    6.4023   -0.0249   -0.5792 H   0  0  0  0  0  0  0  0  0  0  0  0
    6.5446    1.5418   -1.3866 H   0  0  0  0  0  0  0  0  0  0  0  0
    5.1425   -0.3296    1.4191 H   0  0  0  0  0  0  0  0  0  0  0  0
    3.4200   -1.4434    2.7660 H   0  0  0  0  0  0  0  0  0  0  0  0
    2.1837    0.8514   -1.4820 H   0  0  0  0  0  0  0  0  0  0  0  0
   -1.2737   -0.7181   -1.7252 H   0  0  0  0  0  0  0  0  0  0  0  0
    0.1135    0.2657   -2.1208 H   0  0  0  0  0  0  0  0  0  0  0  0
    0.3010   -1.4952   -1.8843 H   0  0  0  0  0  0  0  0  0  0  0  0
   -2.3084   -1.7722    1.9765 H   0  0  0  0  0  0  0  0  0  0  0  0
   -3.7635   -2.5113   -0.3305 H   0  0  0  0  0  0  0  0  0  0  0  0
   -5.5423   -1.5288   -1.7410 H   0  0  0  0  0  0  0  0  0  0  0  0
   -5.7542    0.9441   -1.8900 H   0  0  0  0  0  0  0  0  0  0  0  0
   -4.1820    2.3829   -0.5841 H   0  0  0  0  0  0  0  0  0  0  0  0
   -2.8293    2.6243    1.1751 H   0  0  0  0  0  0  0  0  0  0  0  0
   -1.3855    1.8755    0.4351 H   0  0  0  0  0  0  0  0  0  0  0  0
   -2.0680    1.2571    1.9962 H   0  0  0  0  0  0  0  0  0  0  0  0
  1  2  1  0
  2  3  1  0
  3  4  2  0
  4  5  1  0
  5  6  2  0
  6  7  1  0
  7  8  2  0
  7  9  1  0
  9 10  1  0
  9 11  1  0
 11 12  2  3
 12 13  1  0
 13 14  2  0
 14 15  1  0
 15 16  2  0
 16 17  1  0
 17 18  2  0
 18 19  1  0
 11 20  1  0
  8  3  1  0
 18 13  1  0
 20  6  1  0
  1 21  1  0
  1 22  1  0
  1 23  1  0
  4 24  1  0
  5 25  1  0
  8 26  1  0
 10 27  1  0
 10 28  1  0
 10 29  1  0
 12 30  1  0
 14 31  1  0
 15 32  1  0
 16 33  1  0
 17 34  1  0
 19 35  1  0
 19 36  1  0
 19 37  1  0
M  CHG  1  18   1
M  END
$$$$
