
     RDKit          3D

 50 52  0  0  0  0  0  0  0  0999 V2000
    6.6316   -2.7654    1.6587 C   0  0  0  0  0  0  0  0  0  0  0  0
    7.4229   -1.5474    1.6722 N   0  0  0  0  0  0  0  0  0  0  0  0
    7.1966   -0.3931    2.8601 S   0  0  0  0  0  6  0  0  0  0  0  0
    8.0333    0.7312    2.5036 O   0  0  0  0  0  0  0  0  0  0  0  0
    7.2931   -1.0410    4.1485 O   0  0  0  0  0  0  0  0  0  0  0  0
    5.5046    0.0895    2.6039 C   0  0  0  0  0  0  0  0  0  0  0  0
    4.4969   -0.4522    3.4059 C   0  0  0  0  0  0  0  0  0  0  0  0
    3.1726   -0.0563    3.2049 C   0  0  0  0  0  0  0  0  0  0  0  0
    2.8541    0.8801    2.2098 C   0  0  0  0  0  0  0  0  0  0  0  0
    1.4245    1.2674    2.0367 C   0  0  0  0  0  0  0  0  0  0  0  0
    0.6256    1.1032    2.9517 O   0  0  0  0  0  0  0  0  0  0  0  0
    1.0679    1.7701    0.8025 N   0  0  0  0  0  0  0  0  0  0  0  0
   -0.3347    1.9350    0.4647 C   0  0  0  0  0  0  0  0  0  0  0  0
   -0.8062    0.7187   -0.3358 C   0  0  0  0  0  0  0  0  0  0  0  0
   -0.0476    0.0652   -1.0521 O   0  0  0  0  0  0  0  0  0  0  0  0
   -2.1538    0.4569   -0.2374 N   0  0  0  0  0  0  0  0  0  0  0  0
   -2.7853   -0.6013   -1.0117 C   0  0  0  0  0  0  0  0  0  0  0  0
   -3.0390   -0.1801   -2.4713 C   0  0  0  0  0  0  0  0  0  0  0  0
   -3.4985   -1.3472   -3.3416 C   0  0  0  0  0  0  0  0  0  0  0  0
   -4.7496   -1.8767   -2.8926 O   0  0  0  0  0  0  0  0  0  0  0  0
   -5.6611   -0.8715   -2.6966 C   0  0  0  0  0  0  0  0  0  0  0  0
   -7.0035   -1.2415   -2.6449 C   0  0  0  0  0  0  0  0  0  0  0  0
   -7.9854   -0.2675   -2.4579 C   0  0  0  0  0  0  0  0  0  0  0  0
   -7.6226    1.0731   -2.3177 C   0  0  0  0  0  0  0  0  0  0  0  0
   -6.2764    1.4407   -2.3530 C   0  0  0  0  0  0  0  0  0  0  0  0
   -5.2947    0.4672   -2.5292 C   0  0  0  0  0  0  0  0  0  0  0  0
   -3.9938    0.8992   -2.5158 O   0  0  0  0  0  0  0  0  0  0  0  0
    3.8780    1.4415    1.4326 C   0  0  0  0  0  0  0  0  0  0  0  0
    5.2047    1.0466    1.6290 C   0  0  0  0  0  0  0  0  0  0  0  0
    7.2218   -3.5690    1.2091 H   0  0  0  0  0  0  0  0  0  0  0  0
    5.7318   -2.6225    1.0546 H   0  0  0  0  0  0  0  0  0  0  0  0
    6.3488   -3.0829    2.6655 H   0  0  0  0  0  0  0  0  0  0  0  0
    7.8607   -1.2146    0.8161 H   0  0  0  0  0  0  0  0  0  0  0  0
    4.7305   -1.1731    4.1869 H   0  0  0  0  0  0  0  0  0  0  0  0
    2.3857   -0.4773    3.8293 H   0  0  0  0  0  0  0  0  0  0  0  0
    1.6674    1.5424    0.0183 H   0  0  0  0  0  0  0  0  0  0  0  0
   -0.9439    2.0695    1.3630 H   0  0  0  0  0  0  0  0  0  0  0  0
   -0.4224    2.8188   -0.1741 H   0  0  0  0  0  0  0  0  0  0  0  0
   -2.7563    1.1076    0.2522 H   0  0  0  0  0  0  0  0  0  0  0  0
   -2.1336   -1.4817   -0.9806 H   0  0  0  0  0  0  0  0  0  0  0  0
   -3.7170   -0.8420   -0.4901 H   0  0  0  0  0  0  0  0  0  0  0  0
   -2.1114    0.2172   -2.8998 H   0  0  0  0  0  0  0  0  0  0  0  0
   -2.7645   -2.1597   -3.3166 H   0  0  0  0  0  0  0  0  0  0  0  0
   -3.6115   -1.0355   -4.3882 H   0  0  0  0  0  0  0  0  0  0  0  0
   -7.2849   -2.2844   -2.7605 H   0  0  0  0  0  0  0  0  0  0  0  0
   -9.0338   -0.5537   -2.4253 H   0  0  0  0  0  0  0  0  0  0  0  0
   -8.3887    1.8314   -2.1764 H   0  0  0  0  0  0  0  0  0  0  0  0
   -5.9941    2.4830   -2.2348 H   0  0  0  0  0  0  0  0  0  0  0  0
    3.6651    2.2077    0.6920 H   0  0  0  0  0  0  0  0  0  0  0  0
    5.9959    1.4961    1.0321 H   0  0  0  0  0  0  0  0  0  0  0  0
  1  2  1  0
  2  3  1  0
  3  4  2  0
  3  5  2  0
  3  6  1  0
  6  7  2  0
  7  8  1  0
  8  9  2  0
  9 10  1  0
 10 11  2  0
 10 12  1  0
 12 13  1  0
 13 14  1  0
 14 15  2  0
 14 16  1  0
 16 17  1  0
 17 18  1  0
 18 19  1  0
 19 20  1  0
 20 21  1  0
 21 22  2  0
 22 23  1  0
 23 24  2  0
 24 25  1  0
 25 26  2  0
 26 27  1  0
  9 28  1  0
 28 29  2  0
 29  6  1  0
 27 18  1  0
 26 21  1  0
  1 30  1  0
  1 31  1  0
  1 32  1  0
  2 33  1  0
  7 34  1  0
  8 35  1  0
 12 36  1  0
 13 37  1  0
 13 38  1  0
 16 39  1  0
 17 40  1  0
 17 41  1  0
 18 42  1  0
 19 43  1  0
 19 44  1  0
 22 45  1  0
 23 46  1  0
 24 47  1  0
 25 48  1  0
 28 49  1  0
 29 50  1  0
M  END
$$$$
