
     RDKit          3D

 49 52  0  0  0  0  0  0  0  0999 V2000
   -4.5953   -4.7773    2.6236 C   0  0  0  0  0  0  0  0  0  0  0  0
   -3.9961   -3.8923    1.6764 O   0  0  0  0  0  0  0  0  0  0  0  0
   -3.7508   -2.6353    2.1520 C   0  0  0  0  0  0  0  0  0  0  0  0
   -4.0100   -2.2793    3.2966 O   0  0  0  0  0  0  0  0  0  0  0  0
   -3.1613   -1.7907    1.1369 C   0  0  0  0  0  0  0  0  0  0  0  0
   -2.7618   -2.3543   -0.4370 S   0  0  0  0  0  0  0  0  0  0  0  0
   -2.1977   -0.8088   -0.8652 C   0  0  0  0  0  0  0  0  0  0  0  0
   -1.6937   -0.5042   -2.1027 N   0  0  0  0  0  0  0  0  0  0  0  0
   -1.5242   -1.3525   -3.1736 C   0  0  0  0  0  0  0  0  0  0  0  0
   -1.7714   -2.5557   -3.2038 O   0  0  0  0  0  0  0  0  0  0  0  0
   -0.9963   -0.6534   -4.4184 C   0  0  0  0  0  0  0  0  0  0  0  0
    0.8112   -0.4924   -4.3610 S   0  0  0  0  0  0  0  0  0  0  0  0
    0.9851    0.8852   -3.3336 C   0  0  0  0  0  0  0  0  0  0  0  0
   -0.0071    1.6025   -2.8521 N   0  0  0  0  0  0  0  0  0  0  0  0
    0.5266    2.5309   -2.0022 N   0  0  0  0  0  0  0  0  0  0  0  0
    1.8369    2.3660   -1.9798 C   0  0  0  0  0  0  0  0  0  0  0  0
    2.7804    3.1362   -1.1329 C   0  0  0  0  0  0  0  0  0  0  0  0
    3.3808    2.2925   -0.1261 N   0  0  0  0  0  0  0  0  0  0  0  0
    4.6799    1.9343   -0.2395 N   0  0  0  0  0  0  0  0  0  0  0  0
    4.9792    1.1768    0.8091 N   0  0  0  0  0  0  0  0  0  0  0  0
    3.8556    1.0595    1.5872 C   0  0  0  0  0  0  0  0  0  0  0  0
    3.6476    0.3798    2.7960 C   0  0  0  0  0  0  0  0  0  0  0  0
    2.3718    0.4187    3.3730 C   0  0  0  0  0  0  0  0  0  0  0  0
    1.3288    1.1086    2.7572 C   0  0  0  0  0  0  0  0  0  0  0  0
    1.5194    1.7922    1.5513 C   0  0  0  0  0  0  0  0  0  0  0  0
    2.8049    1.7529    1.0003 C   0  0  0  0  0  0  0  0  0  0  0  0
    2.1749    1.3528   -2.8522 N   0  0  0  0  0  0  0  0  0  0  0  0
    3.4960    0.8467   -3.1245 C   0  0  0  0  0  0  0  0  0  0  0  0
   -2.2896    0.1084    0.0674 N   0  0  0  0  0  0  0  0  0  0  0  0
   -2.8382   -0.4457    1.2241 C   0  0  0  0  0  0  0  0  0  0  0  0
   -3.0209    0.4452    2.4048 C   0  0  0  0  0  0  0  0  0  0  0  0
   -3.9652   -4.8787    3.5122 H   0  0  0  0  0  0  0  0  0  0  0  0
   -4.6933   -5.7590    2.1507 H   0  0  0  0  0  0  0  0  0  0  0  0
   -5.5923   -4.4235    2.8944 H   0  0  0  0  0  0  0  0  0  0  0  0
   -1.3849    0.4661   -2.1803 H   0  0  0  0  0  0  0  0  0  0  0  0
   -1.4908    0.3134   -4.5591 H   0  0  0  0  0  0  0  0  0  0  0  0
   -1.2565   -1.2688   -5.2859 H   0  0  0  0  0  0  0  0  0  0  0  0
    2.2585    3.9448   -0.6097 H   0  0  0  0  0  0  0  0  0  0  0  0
    3.5750    3.5854   -1.7389 H   0  0  0  0  0  0  0  0  0  0  0  0
    4.4565   -0.1640    3.2663 H   0  0  0  0  0  0  0  0  0  0  0  0
    2.1932   -0.0976    4.3138 H   0  0  0  0  0  0  0  0  0  0  0  0
    0.3461    1.1141    3.2257 H   0  0  0  0  0  0  0  0  0  0  0  0
    0.6997    2.3270    1.0692 H   0  0  0  0  0  0  0  0  0  0  0  0
    4.2126    1.6694   -3.0831 H   0  0  0  0  0  0  0  0  0  0  0  0
    3.5310    0.4127   -4.1265 H   0  0  0  0  0  0  0  0  0  0  0  0
    3.7384    0.0877   -2.3771 H   0  0  0  0  0  0  0  0  0  0  0  0
   -2.4686    1.3848    2.2845 H   0  0  0  0  0  0  0  0  0  0  0  0
   -2.6445   -0.0370    3.3164 H   0  0  0  0  0  0  0  0  0  0  0  0
   -4.0797    0.6759    2.5455 H   0  0  0  0  0  0  0  0  0  0  0  0
  1  2  1  0
  2  3  1  0
  3  4  2  0
  3  5  1  0
  5  6  1  0
  6  7  1  0
  7  8  1  0
  8  9  1  0
  9 10  2  0
  9 11  1  0
 11 12  1  0
 12 13  1  0
 13 14  2  0
 14 15  1  0
 15 16  2  0
 16 17  1  0
 17 18  1  0
 18 19  1  0
 19 20  2  0
 20 21  1  0
 21 22  2  0
 22 23  1  0
 23 24  2  0
 24 25  1  0
 25 26  2  0
 16 27  1  0
 27 28  1  0
  7 29  2  0
 29 30  1  0
 30 31  1  0
 30  5  2  0
 27 13  1  0
 26 18  1  0
 26 21  1  0
  1 32  1  0
  1 33  1  0
  1 34  1  0
  8 35  1  0
 11 36  1  0
 11 37  1  0
 17 38  1  0
 17 39  1  0
 22 40  1  0
 23 41  1  0
 24 42  1  0
 25 43  1  0
 28 44  1  0
 28 45  1  0
 28 46  1  0
 31 47  1  0
 31 48  1  0
 31 49  1  0
M  END
$$$$
