
     RDKit          3D

 55 57  0  0  0  0  0  0  0  0999 V2000
   -3.1517   -2.7662    2.0872 C   0  0  0  0  0  0  0  0  0  0  0  0
   -3.1726   -2.2231    0.7740 O   0  0  0  0  0  0  0  0  0  0  0  0
   -3.4395   -0.8832    0.6336 C   0  0  0  0  0  0  0  0  0  0  0  0
   -3.5906    0.0104    1.7006 C   0  0  0  0  0  0  0  0  0  0  0  0
   -3.8355    1.3672    1.4522 C   0  0  0  0  0  0  0  0  0  0  0  0
   -4.0002    2.3618    2.5537 C   0  0  0  0  0  0  0  0  0  0  0  0
   -4.1334    1.8709    3.9712 C   0  0  0  0  0  0  0  0  0  0  0  0
   -4.0173    3.5625    2.2923 O   0  0  0  0  0  0  0  0  0  0  0  0
   -3.9183    1.8230    0.1315 C   0  0  0  0  0  0  0  0  0  0  0  0
   -3.7712    0.9364   -0.9383 C   0  0  0  0  0  0  0  0  0  0  0  0
   -3.5365   -0.4185   -0.6958 C   0  0  0  0  0  0  0  0  0  0  0  0
   -3.3733   -1.3736   -1.6676 O   0  0  0  0  0  0  0  0  0  0  0  0
   -3.3379   -0.9802   -3.0314 C   0  0  0  0  0  0  0  0  0  0  0  0
   -2.0067   -0.3615   -3.4720 C   0  0  0  0  0  0  0  0  0  0  0  0
   -1.9456    0.3577   -4.4649 O   0  0  0  0  0  0  0  0  0  0  0  0
   -0.9501   -0.7415   -2.6599 N   0  0  0  0  0  0  0  0  0  0  0  0
    0.4066   -0.3979   -2.7859 C   0  0  0  0  0  0  0  0  0  0  0  0
    0.9238    0.3597   -3.8351 C   0  0  0  0  0  0  0  0  0  0  0  0
    2.2925    0.6475   -3.8948 C   0  0  0  0  0  0  0  0  0  0  0  0
    3.1660    0.1856   -2.9055 C   0  0  0  0  0  0  0  0  0  0  0  0
    4.8277    0.6122   -3.0761 Cl  0  0  0  0  0  0  0  0  0  0  0  0
    2.6517   -0.5660   -1.8511 C   0  0  0  0  0  0  0  0  0  0  0  0
    3.6928   -1.1922   -0.5650 S   0  0  0  0  0  6  0  0  0  0  0  0
    4.7403   -1.9720   -1.1858 O   0  0  0  0  0  0  0  0  0  0  0  0
    2.8464   -1.7876    0.4515 O   0  0  0  0  0  0  0  0  0  0  0  0
    4.3713    0.2019    0.1348 N   0  0  0  0  0  0  0  0  0  0  0  0
    3.4014    1.1781    0.7274 C   0  0  0  0  0  0  0  0  0  0  0  0
    4.1234    2.1378    1.6782 C   0  0  0  0  0  0  0  0  0  0  0  0
    4.7143    1.4710    2.8020 O   0  0  0  0  0  0  0  0  0  0  0  0
    5.1396    0.1322    2.5097 C   0  0  0  0  0  0  0  0  0  0  0  0
    5.5332   -0.0685    1.0443 C   0  0  0  0  0  0  0  0  0  0  0  0
    1.2779   -0.8615   -1.7951 C   0  0  0  0  0  0  0  0  0  0  0  0
   -2.3268   -2.3471    2.6713 H   0  0  0  0  0  0  0  0  0  0  0  0
   -4.1112   -2.6191    2.5930 H   0  0  0  0  0  0  0  0  0  0  0  0
   -2.9837   -3.8429    1.9984 H   0  0  0  0  0  0  0  0  0  0  0  0
   -3.5057   -0.3408    2.7217 H   0  0  0  0  0  0  0  0  0  0  0  0
   -3.1718    1.4968    4.3320 H   0  0  0  0  0  0  0  0  0  0  0  0
   -4.9029    1.0971    4.0390 H   0  0  0  0  0  0  0  0  0  0  0  0
   -4.4449    2.7040    4.6103 H   0  0  0  0  0  0  0  0  0  0  0  0
   -4.1010    2.8771   -0.0751 H   0  0  0  0  0  0  0  0  0  0  0  0
   -3.8454    1.3470   -1.9411 H   0  0  0  0  0  0  0  0  0  0  0  0
   -4.1758   -0.3197   -3.2873 H   0  0  0  0  0  0  0  0  0  0  0  0
   -3.4654   -1.8916   -3.6282 H   0  0  0  0  0  0  0  0  0  0  0  0
   -1.2134   -1.3132   -1.8598 H   0  0  0  0  0  0  0  0  0  0  0  0
    0.2914    0.7391   -4.6335 H   0  0  0  0  0  0  0  0  0  0  0  0
    2.6682    1.2368   -4.7291 H   0  0  0  0  0  0  0  0  0  0  0  0
    2.6208    0.6454    1.2811 H   0  0  0  0  0  0  0  0  0  0  0  0
    2.9372    1.7505   -0.0812 H   0  0  0  0  0  0  0  0  0  0  0  0
    3.4211    2.8786    2.0731 H   0  0  0  0  0  0  0  0  0  0  0  0
    4.9167    2.6825    1.1517 H   0  0  0  0  0  0  0  0  0  0  0  0
    5.9895   -0.0899    3.1623 H   0  0  0  0  0  0  0  0  0  0  0  0
    4.3260   -0.5469    2.7893 H   0  0  0  0  0  0  0  0  0  0  0  0
    5.9271   -1.0796    0.9029 H   0  0  0  0  0  0  0  0  0  0  0  0
    6.3307    0.6292    0.7637 H   0  0  0  0  0  0  0  0  0  0  0  0
    0.8907   -1.4631   -0.9747 H   0  0  0  0  0  0  0  0  0  0  0  0
  1  2  1  0
  2  3  1  0
  3  4  2  0
  4  5  1  0
  5  6  1  0
  6  7  1  0
  6  8  2  0
  5  9  2  0
  9 10  1  0
 10 11  2  0
 11 12  1  0
 12 13  1  0
 13 14  1  0
 14 15  2  0
 14 16  1  0
 16 17  1  0
 17 18  2  0
 18 19  1  0
 19 20  2  0
 20 21  1  0
 20 22  1  0
 22 23  1  0
 23 24  2  0
 23 25  2  0
 23 26  1  0
 26 27  1  0
 27 28  1  0
 28 29  1  0
 29 30  1  0
 30 31  1  0
 22 32  2  0
 11  3  1  0
 32 17  1  0
 31 26  1  0
  1 33  1  0
  1 34  1  0
  1 35  1  0
  4 36  1  0
  7 37  1  0
  7 38  1  0
  7 39  1  0
  9 40  1  0
 10 41  1  0
 13 42  1  0
 13 43  1  0
 16 44  1  0
 18 45  1  0
 19 46  1  0
 27 47  1  0
 27 48  1  0
 28 49  1  0
 28 50  1  0
 30 51  1  0
 30 52  1  0
 31 53  1  0
 31 54  1  0
 32 55  1  0
M  END
$$$$
