
     RDKit          3D

 37 37  0  0  0  0  0  0  0  0999 V2000
   -2.8349   -2.9578   -1.5193 C   0  0  0  0  0  0  0  0  0  0  0  0
   -2.5676   -1.5572   -1.4436 O   0  0  0  0  0  0  0  0  0  0  0  0
   -1.6886   -1.2126   -0.4621 C   0  0  0  0  0  0  0  0  0  0  0  0
   -1.1979   -1.9878    0.3520 O   0  0  0  0  0  0  0  0  0  0  0  0
   -1.4378    0.2996   -0.4665 C   0  0  0  0  0  0  0  0  0  0  0  0
   -2.3628    0.9955    0.5382 C   0  0  0  0  0  0  0  0  0  0  0  0
   -3.8215    0.9774    0.0835 C   0  0  0  0  0  0  0  0  0  0  0  0
   -4.8916    1.9594    1.1867 S   0  0  0  0  0  0  0  0  0  0  0  0
   -4.9419    0.8595    2.6239 C   0  0  0  0  0  0  0  0  0  0  0  0
   -0.0376    0.5195   -0.0872 N   0  0  0  0  0  0  0  0  0  0  0  0
    0.9352    0.4210   -1.0494 C   0  0  0  0  0  0  0  0  0  0  0  0
    0.7116    0.2601   -2.2401 O   0  0  0  0  0  0  0  0  0  0  0  0
    2.1828    0.5191   -0.4989 N   0  0  0  0  0  0  0  0  0  0  0  0
    3.3344    0.5530   -1.3701 C   0  0  0  0  0  0  0  0  0  0  0  0
    4.5630    0.4862   -0.5231 C   0  0  0  0  0  0  0  0  0  0  0  0
    5.1955   -0.6356   -0.0222 C   0  0  0  0  0  0  0  0  0  0  0  0
    6.3464   -0.3099    0.7515 C   0  0  0  0  0  0  0  0  0  0  0  0
    6.5544    1.0493    0.8177 C   0  0  0  0  0  0  0  0  0  0  0  0
    5.3664    1.9237   -0.0467 S   0  0  0  0  0  0  0  0  0  0  0  0
   -3.3226   -3.3026   -0.6022 H   0  0  0  0  0  0  0  0  0  0  0  0
   -3.5149   -3.1281   -2.3585 H   0  0  0  0  0  0  0  0  0  0  0  0
   -1.9119   -3.5167   -1.7025 H   0  0  0  0  0  0  0  0  0  0  0  0
   -1.5893    0.6942   -1.4779 H   0  0  0  0  0  0  0  0  0  0  0  0
   -2.0301    2.0351    0.6597 H   0  0  0  0  0  0  0  0  0  0  0  0
   -2.2635    0.5152    1.5196 H   0  0  0  0  0  0  0  0  0  0  0  0
   -3.9033    1.4143   -0.9174 H   0  0  0  0  0  0  0  0  0  0  0  0
   -4.2180   -0.0409    0.0299 H   0  0  0  0  0  0  0  0  0  0  0  0
   -5.2746   -0.1396    2.3310 H   0  0  0  0  0  0  0  0  0  0  0  0
   -5.6516    1.2597    3.3531 H   0  0  0  0  0  0  0  0  0  0  0  0
   -3.9609    0.7991    3.1006 H   0  0  0  0  0  0  0  0  0  0  0  0
    0.2401    0.0787    0.7819 H   0  0  0  0  0  0  0  0  0  0  0  0
    2.2321    1.1060    0.3212 H   0  0  0  0  0  0  0  0  0  0  0  0
    3.2887   -0.2990   -2.0582 H   0  0  0  0  0  0  0  0  0  0  0  0
    3.2914    1.4692   -1.9698 H   0  0  0  0  0  0  0  0  0  0  0  0
    4.8444   -1.6451   -0.2026 H   0  0  0  0  0  0  0  0  0  0  0  0
    6.9888   -1.0359    1.2348 H   0  0  0  0  0  0  0  0  0  0  0  0
    7.3477    1.5737    1.3328 H   0  0  0  0  0  0  0  0  0  0  0  0
  1  2  1  0
  2  3  1  0
  3  4  2  0
  3  5  1  0
  5  6  1  0
  6  7  1  0
  7  8  1  0
  8  9  1  0
  5 10  1  0
 10 11  1  0
 11 12  2  0
 11 13  1  0
 13 14  1  0
 14 15  1  0
 15 16  2  0
 16 17  1  0
 17 18  2  0
 18 19  1  0
 19 15  1  0
  1 20  1  0
  1 21  1  0
  1 22  1  0
  5 23  1  0
  6 24  1  0
  6 25  1  0
  7 26  1  0
  7 27  1  0
  9 28  1  0
  9 29  1  0
  9 30  1  0
 10 31  1  0
 13 32  1  0
 14 33  1  0
 14 34  1  0
 16 35  1  0
 17 36  1  0
 18 37  1  0
M  END
$$$$
