
     RDKit          3D

 60 65  0  0  0  0  0  0  0  0999 V2000
    1.1058   -3.7203   -0.4517 O   0  0  0  0  0  0  0  0  0  0  0  0
    1.6497   -2.6234   -0.5010 C   0  0  0  0  0  0  0  0  0  0  0  0
    0.9627   -1.4513   -0.2049 N   0  0  0  0  0  0  0  0  0  0  0  0
    1.5257   -0.1798   -0.2565 C   0  0  0  0  0  0  0  0  0  0  0  0
    0.6112    0.9850    0.0999 C   0  0  0  0  0  0  0  0  0  0  0  0
   -0.5368    1.1042   -0.9073 C   0  0  0  0  0  0  0  0  0  0  0  0
   -1.5605    2.1389   -0.4579 C   0  0  0  0  0  0  0  0  0  0  0  0
   -2.0255    1.8894    0.9251 N   0  0  0  0  0  0  0  0  0  0  0  0
   -3.6362    2.2848    1.2983 S   0  0  0  0  0  6  0  0  0  0  0  0
   -3.7960    2.2210    2.7359 O   0  0  0  0  0  0  0  0  0  0  0  0
   -3.9899    3.4745    0.5544 O   0  0  0  0  0  0  0  0  0  0  0  0
   -4.5457    0.9182    0.6037 C   0  0  0  0  0  0  0  0  0  0  0  0
   -4.8150   -0.2046    1.3963 C   0  0  0  0  0  0  0  0  0  0  0  0
   -5.5532   -1.2633    0.8634 C   0  0  0  0  0  0  0  0  0  0  0  0
   -6.0322   -1.1875   -0.4447 C   0  0  0  0  0  0  0  0  0  0  0  0
   -5.7558   -0.0639   -1.2333 C   0  0  0  0  0  0  0  0  0  0  0  0
   -5.0325    1.0032   -0.7045 C   0  0  0  0  0  0  0  0  0  0  0  0
   -6.1743    0.0633   -2.5334 O   0  0  0  0  0  0  0  0  0  0  0  0
   -6.6348   -1.1848   -3.0674 C   0  0  0  0  0  0  0  0  0  0  0  0
   -7.5191   -1.9096   -2.0649 C   0  0  0  0  0  0  0  0  0  0  0  0
   -6.7705   -2.2529   -0.8925 O   0  0  0  0  0  0  0  0  0  0  0  0
   -1.4008    0.7711    1.6517 C   0  0  0  0  0  0  0  0  0  0  0  0
    0.1173    0.8927    1.5528 C   0  0  0  0  0  0  0  0  0  0  0  0
    2.7663    0.0573   -0.5876 N   0  0  0  0  0  0  0  0  0  0  0  0
    3.4621   -1.0722   -0.8695 C   0  0  0  0  0  0  0  0  0  0  0  0
    3.0193   -2.3729   -0.8582 C   0  0  0  0  0  0  0  0  0  0  0  0
    4.0200   -3.2241   -1.2132 N   0  0  0  0  0  0  0  0  0  0  0  0
    5.1046   -2.4845   -1.4482 N   0  0  0  0  0  0  0  0  0  0  0  0
    4.7768   -1.1872   -1.2234 N   0  0  0  0  0  0  0  0  0  0  0  0
    5.7481   -0.1302   -1.4181 C   0  0  0  0  0  0  0  0  0  0  0  0
    6.4642    0.2048   -0.1336 C   0  0  0  0  0  0  0  0  0  0  0  0
    7.5963   -0.5250    0.2644 C   0  0  0  0  0  0  0  0  0  0  0  0
    8.2528   -0.2245    1.4617 C   0  0  0  0  0  0  0  0  0  0  0  0
    7.7811    0.8034    2.2761 C   0  0  0  0  0  0  0  0  0  0  0  0
    6.6556    1.5197    1.8890 C   0  0  0  0  0  0  0  0  0  0  0  0
    6.1984    2.5042    2.6745 F   0  0  0  0  0  0  0  0  0  0  0  0
    5.9940    1.2310    0.6991 C   0  0  0  0  0  0  0  0  0  0  0  0
   -0.0027   -1.5920    0.0513 H   0  0  0  0  0  0  0  0  0  0  0  0
    1.2213    1.8968    0.0206 H   0  0  0  0  0  0  0  0  0  0  0  0
   -0.1392    1.3810   -1.8915 H   0  0  0  0  0  0  0  0  0  0  0  0
   -1.0392    0.1388   -1.0484 H   0  0  0  0  0  0  0  0  0  0  0  0
   -1.1125    3.1403   -0.4857 H   0  0  0  0  0  0  0  0  0  0  0  0
   -2.3931    2.1333   -1.1685 H   0  0  0  0  0  0  0  0  0  0  0  0
   -4.4690   -0.2554    2.4274 H   0  0  0  0  0  0  0  0  0  0  0  0
   -5.7765   -2.1357    1.4730 H   0  0  0  0  0  0  0  0  0  0  0  0
   -4.8549    1.8869   -1.3128 H   0  0  0  0  0  0  0  0  0  0  0  0
   -7.1980   -0.9670   -3.9802 H   0  0  0  0  0  0  0  0  0  0  0  0
   -5.7601   -1.7880   -3.3415 H   0  0  0  0  0  0  0  0  0  0  0  0
   -8.3766   -1.2941   -1.7640 H   0  0  0  0  0  0  0  0  0  0  0  0
   -7.9021   -2.8386   -2.4993 H   0  0  0  0  0  0  0  0  0  0  0  0
   -1.6773    0.7980    2.7106 H   0  0  0  0  0  0  0  0  0  0  0  0
   -1.7380   -0.1865    1.2401 H   0  0  0  0  0  0  0  0  0  0  0  0
    0.5891    0.0621    2.0930 H   0  0  0  0  0  0  0  0  0  0  0  0
    0.4264    1.8075    2.0788 H   0  0  0  0  0  0  0  0  0  0  0  0
    5.2241    0.7459   -1.8167 H   0  0  0  0  0  0  0  0  0  0  0  0
    6.4586   -0.4535   -2.1887 H   0  0  0  0  0  0  0  0  0  0  0  0
    7.9698   -1.3417   -0.3538 H   0  0  0  0  0  0  0  0  0  0  0  0
    9.1275   -0.7968    1.7604 H   0  0  0  0  0  0  0  0  0  0  0  0
    8.2786    1.0464    3.2097 H   0  0  0  0  0  0  0  0  0  0  0  0
    5.1110    1.8077    0.4376 H   0  0  0  0  0  0  0  0  0  0  0  0
  1  2  2  0
  2  3  1  0
  3  4  1  0
  4  5  1  0
  5  6  1  0
  6  7  1  0
  7  8  1  0
  8  9  1  0
  9 10  2  0
  9 11  2  0
  9 12  1  0
 12 13  2  0
 13 14  1  0
 14 15  2  0
 15 16  1  0
 16 17  2  0
 16 18  1  0
 18 19  1  0
 19 20  1  0
 20 21  1  0
  8 22  1  0
 22 23  1  0
  4 24  2  0
 24 25  1  0
 25 26  2  0
 26 27  1  0
 27 28  2  0
 28 29  1  0
 29 30  1  0
 30 31  1  0
 31 32  2  0
 32 33  1  0
 33 34  2  0
 34 35  1  0
 35 36  1  0
 35 37  2  0
 26  2  1  0
 37 31  1  0
 23  5  1  0
 29 25  1  0
 17 12  1  0
 21 15  1  0
  3 38  1  0
  5 39  1  0
  6 40  1  0
  6 41  1  0
  7 42  1  0
  7 43  1  0
 13 44  1  0
 14 45  1  0
 17 46  1  0
 19 47  1  0
 19 48  1  0
 20 49  1  0
 20 50  1  0
 22 51  1  0
 22 52  1  0
 23 53  1  0
 23 54  1  0
 30 55  1  0
 30 56  1  0
 32 57  1  0
 33 58  1  0
 34 59  1  0
 37 60  1  0
M  END
$$$$
