
     RDKit          3D

 36 37  0  0  0  0  0  0  0  0999 V2000
    0.9940    0.6737   -2.1463 O   0  0  0  0  0  0  0  0  0  0  0  0
    0.4402    1.1482   -1.1587 C   0  0  0  0  0  0  0  0  0  0  0  0
   -0.7889    2.0536   -1.2651 C   0  0  0  0  0  0  0  0  0  0  0  0
   -2.0213    1.3579   -1.0709 O   0  0  0  0  0  0  0  0  0  0  0  0
   -2.3343    1.0842    0.2178 C   0  0  0  0  0  0  0  0  0  0  0  0
   -1.6484    1.3675    1.1888 O   0  0  0  0  0  0  0  0  0  0  0  0
   -3.6399    0.3761    0.3082 C   0  0  0  0  0  0  0  0  0  0  0  0
   -4.1435    0.0769    1.5828 C   0  0  0  0  0  0  0  0  0  0  0  0
   -5.3643   -0.5894    1.7212 C   0  0  0  0  0  0  0  0  0  0  0  0
   -6.0829   -0.9579    0.5852 C   0  0  0  0  0  0  0  0  0  0  0  0
   -7.7334   -1.8596    0.7710 Br  0  0  0  0  0  0  0  0  0  0  0  0
   -5.5930   -0.6672   -0.6875 C   0  0  0  0  0  0  0  0  0  0  0  0
   -4.3716   -0.0006   -0.8274 C   0  0  0  0  0  0  0  0  0  0  0  0
    0.8685    0.9228    0.1317 N   0  0  0  0  0  0  0  0  0  0  0  0
    1.9431   -0.0050    0.4323 C   0  0  0  0  0  0  0  0  0  0  0  0
    3.3291    0.5268    0.0489 C   0  0  0  0  0  0  0  0  0  0  0  0
    4.3953   -0.3316    0.5374 N   0  0  0  0  0  0  0  0  0  0  0  0
    4.8814   -1.4104   -0.1586 C   0  0  0  0  0  0  0  0  0  0  0  0
    4.3727   -1.6826   -1.3909 O   0  0  0  0  0  0  0  0  0  0  0  0
    5.8295   -2.1039    0.4815 C   0  0  0  0  0  0  0  0  0  0  0  0
    6.1586   -1.4231    2.0464 S   0  0  0  0  0  0  0  0  0  0  0  0
    4.9356   -0.1600    1.8011 C   0  0  0  0  0  0  0  0  0  0  0  0
    4.6505    0.6784    2.6395 O   0  0  0  0  0  0  0  0  0  0  0  0
   -0.6992    2.9006   -0.5738 H   0  0  0  0  0  0  0  0  0  0  0  0
   -0.8059    2.4788   -2.2746 H   0  0  0  0  0  0  0  0  0  0  0  0
   -3.5879    0.3611    2.4751 H   0  0  0  0  0  0  0  0  0  0  0  0
   -5.7426   -0.8148    2.7153 H   0  0  0  0  0  0  0  0  0  0  0  0
   -6.1512   -0.9552   -1.5752 H   0  0  0  0  0  0  0  0  0  0  0  0
   -4.0041    0.2142   -1.8284 H   0  0  0  0  0  0  0  0  0  0  0  0
    0.2153    1.1554    0.8821 H   0  0  0  0  0  0  0  0  0  0  0  0
    1.8967   -0.2009    1.5095 H   0  0  0  0  0  0  0  0  0  0  0  0
    1.7405   -0.9504   -0.0840 H   0  0  0  0  0  0  0  0  0  0  0  0
    3.4637    1.5231    0.4892 H   0  0  0  0  0  0  0  0  0  0  0  0
    3.4259    0.6520   -1.0354 H   0  0  0  0  0  0  0  0  0  0  0  0
    4.8337   -2.4560   -1.7564 H   0  0  0  0  0  0  0  0  0  0  0  0
    6.3380   -2.9825    0.1136 H   0  0  0  0  0  0  0  0  0  0  0  0
  1  2  2  0
  2  3  1  0
  3  4  1  0
  4  5  1  0
  5  6  2  0
  5  7  1  0
  7  8  2  0
  8  9  1  0
  9 10  2  0
 10 11  1  0
 10 12  1  0
 12 13  2  0
  2 14  1  0
 14 15  1  0
 15 16  1  0
 16 17  1  0
 17 18  1  0
 18 19  1  0
 18 20  2  0
 20 21  1  0
 21 22  1  0
 22 23  2  0
 13  7  1  0
 22 17  1  0
  3 24  1  0
  3 25  1  0
  8 26  1  0
  9 27  1  0
 12 28  1  0
 13 29  1  0
 14 30  1  0
 15 31  1  0
 15 32  1  0
 16 33  1  0
 16 34  1  0
 19 35  1  0
 20 36  1  0
M  END
$$$$
