
     RDKit          3D

 33 33  0  0  0  0  0  0  0  0999 V2000
   -4.4791    0.0330    0.2725 C   0  0  0  0  0  0  0  0  0  0  0  0
   -3.1396   -0.5645    0.7082 C   0  0  0  0  0  0  0  0  0  0  0  0
   -2.6796    0.0919    2.0118 C   0  0  0  0  0  0  0  0  0  0  0  0
   -2.1844   -0.3661   -0.3906 N   0  0  0  0  0  0  0  0  0  0  0  0
   -0.9539   -1.1393   -0.2219 C   0  0  0  0  0  0  0  0  0  0  0  0
   -0.0705   -1.0729   -1.4732 C   0  0  0  0  0  0  0  0  0  0  0  0
    0.3874    0.3355   -1.8561 C   0  0  0  0  0  0  0  0  0  0  0  0
    0.9153    1.0602   -0.7464 O   0  0  0  0  0  0  0  0  0  0  0  0
    2.1757    0.7891   -0.2910 C   0  0  0  0  0  0  0  0  0  0  0  0
    3.1346    0.0525   -0.9922 C   0  0  0  0  0  0  0  0  0  0  0  0
    4.4040   -0.1620   -0.4433 C   0  0  0  0  0  0  0  0  0  0  0  0
    4.7218    0.3623    0.8070 C   0  0  0  0  0  0  0  0  0  0  0  0
    6.2843    0.0927    1.4735 Cl  0  0  0  0  0  0  0  0  0  0  0  0
    3.7839    1.1022    1.5184 C   0  0  0  0  0  0  0  0  0  0  0  0
    2.5170    1.3147    0.9679 C   0  0  0  0  0  0  0  0  0  0  0  0
    1.2683    2.3211    1.9912 Br  0  0  0  0  0  0  0  0  0  0  0  0
   -5.2414   -0.1243    1.0434 H   0  0  0  0  0  0  0  0  0  0  0  0
   -4.8389   -0.4397   -0.6484 H   0  0  0  0  0  0  0  0  0  0  0  0
   -4.4013    1.1113    0.0922 H   0  0  0  0  0  0  0  0  0  0  0  0
   -3.2948   -1.6371    0.8775 H   0  0  0  0  0  0  0  0  0  0  0  0
   -3.4496   -0.0070    2.7848 H   0  0  0  0  0  0  0  0  0  0  0  0
   -2.4802    1.1606    1.8745 H   0  0  0  0  0  0  0  0  0  0  0  0
   -1.7696   -0.3764    2.3998 H   0  0  0  0  0  0  0  0  0  0  0  0
   -1.9496    0.6267   -0.4452 H   0  0  0  0  0  0  0  0  0  0  0  0
   -1.2002   -2.1932   -0.0446 H   0  0  0  0  0  0  0  0  0  0  0  0
   -0.3865   -0.7871    0.6459 H   0  0  0  0  0  0  0  0  0  0  0  0
   -0.5961   -1.5200   -2.3260 H   0  0  0  0  0  0  0  0  0  0  0  0
    0.8090   -1.7008   -1.2877 H   0  0  0  0  0  0  0  0  0  0  0  0
    1.0801    0.3231   -2.7044 H   0  0  0  0  0  0  0  0  0  0  0  0
   -0.4786    0.9075   -2.2093 H   0  0  0  0  0  0  0  0  0  0  0  0
    2.9351   -0.3662   -1.9727 H   0  0  0  0  0  0  0  0  0  0  0  0
    5.1400   -0.7369   -1.0004 H   0  0  0  0  0  0  0  0  0  0  0  0
    4.0375    1.5092    2.4933 H   0  0  0  0  0  0  0  0  0  0  0  0
  1  2  1  0
  2  3  1  0
  2  4  1  0
  4  5  1  0
  5  6  1  0
  6  7  1  0
  7  8  1  0
  8  9  1  0
  9 10  2  0
 10 11  1  0
 11 12  2  0
 12 13  1  0
 12 14  1  0
 14 15  2  0
 15 16  1  0
 15  9  1  0
  1 17  1  0
  1 18  1  0
  1 19  1  0
  2 20  1  0
  3 21  1  0
  3 22  1  0
  3 23  1  0
  4 24  1  0
  5 25  1  0
  5 26  1  0
  6 27  1  0
  6 28  1  0
  7 29  1  0
  7 30  1  0
 10 31  1  0
 11 32  1  0
 14 33  1  0
M  END
$$$$
