
     RDKit          3D

 60 63  0  0  0  0  0  0  0  0999 V2000
   -4.8433    5.6051    2.0326 C   0  0  0  0  0  0  0  0  0  0  0  0
   -4.0810    4.9229    3.0205 O   0  0  0  0  0  0  0  0  0  0  0  0
   -3.4642    3.7658    2.6344 C   0  0  0  0  0  0  0  0  0  0  0  0
   -3.4378    3.2412    1.3426 C   0  0  0  0  0  0  0  0  0  0  0  0
   -2.7697    2.0389    1.0830 C   0  0  0  0  0  0  0  0  0  0  0  0
   -2.1266    1.3532    2.1167 C   0  0  0  0  0  0  0  0  0  0  0  0
   -1.4571    0.1334    1.8503 N   0  0  0  0  0  0  0  0  0  0  0  0
   -1.9279   -0.9666    1.1385 C   0  0  0  0  0  0  0  0  0  0  0  0
   -3.3174   -1.1630    0.6178 C   0  0  0  0  0  0  0  0  0  0  0  0
   -3.5277   -0.7641   -0.8154 C   0  0  0  0  0  0  0  0  0  0  0  0
   -4.4885    0.0924   -1.3339 C   0  0  0  0  0  0  0  0  0  0  0  0
   -4.3023    0.1713   -2.7303 C   0  0  0  0  0  0  0  0  0  0  0  0
   -3.2536   -0.6598   -3.0442 C   0  0  0  0  0  0  0  0  0  0  0  0
   -2.8081   -1.2509   -1.8877 N   0  0  0  0  0  0  0  0  0  0  0  0
   -1.7561   -2.2462   -1.8574 C   0  0  0  0  0  0  0  0  0  0  0  0
   -1.0070   -1.9162    1.1480 N   0  0  0  0  0  0  0  0  0  0  0  0
    0.0759   -1.4689    1.8467 N   0  0  0  0  0  0  0  0  0  0  0  0
   -0.1943   -0.2552    2.2614 C   0  0  0  0  0  0  0  0  0  0  0  0
    0.9852    0.7475    3.0442 S   0  0  0  0  0  0  0  0  0  0  0  0
    1.6401    1.6602    1.6161 C   0  0  0  0  0  0  0  0  0  0  0  0
    2.2703    0.7905    0.5373 C   0  0  0  0  0  0  0  0  0  0  0  0
    2.2991    1.1656   -0.6348 O   0  0  0  0  0  0  0  0  0  0  0  0
    2.8689   -0.3765    0.9599 N   0  0  0  0  0  0  0  0  0  0  0  0
    3.3881   -1.3400    0.0055 C   0  0  0  0  0  0  0  0  0  0  0  0
    4.7589   -0.9359   -0.5465 C   0  0  0  0  0  0  0  0  0  0  0  0
    5.3108   -1.9853   -1.4797 C   0  0  0  0  0  0  0  0  0  0  0  0
    5.0000   -1.9505   -2.8476 C   0  0  0  0  0  0  0  0  0  0  0  0
    5.4890   -2.9350   -3.7074 C   0  0  0  0  0  0  0  0  0  0  0  0
    6.2882   -3.9637   -3.2081 C   0  0  0  0  0  0  0  0  0  0  0  0
    6.5997   -4.0090   -1.8484 C   0  0  0  0  0  0  0  0  0  0  0  0
    6.1122   -3.0254   -0.9866 C   0  0  0  0  0  0  0  0  0  0  0  0
   -2.1336    1.8853    3.4098 C   0  0  0  0  0  0  0  0  0  0  0  0
   -2.8038    3.0856    3.6605 C   0  0  0  0  0  0  0  0  0  0  0  0
   -4.2019    5.9724    1.2250 H   0  0  0  0  0  0  0  0  0  0  0  0
   -5.3083    6.4730    2.5098 H   0  0  0  0  0  0  0  0  0  0  0  0
   -5.6458    4.9699    1.6432 H   0  0  0  0  0  0  0  0  0  0  0  0
   -3.9134    3.7483    0.5087 H   0  0  0  0  0  0  0  0  0  0  0  0
   -2.7179    1.6921    0.0542 H   0  0  0  0  0  0  0  0  0  0  0  0
   -4.0331   -0.6338    1.2584 H   0  0  0  0  0  0  0  0  0  0  0  0
   -3.5762   -2.2257    0.7147 H   0  0  0  0  0  0  0  0  0  0  0  0
   -5.2393    0.6189   -0.7568 H   0  0  0  0  0  0  0  0  0  0  0  0
   -4.8731    0.7633   -3.4339 H   0  0  0  0  0  0  0  0  0  0  0  0
   -2.7988   -0.8884   -3.9992 H   0  0  0  0  0  0  0  0  0  0  0  0
   -1.6651   -2.7003   -2.8486 H   0  0  0  0  0  0  0  0  0  0  0  0
   -2.0184   -3.0244   -1.1378 H   0  0  0  0  0  0  0  0  0  0  0  0
   -0.8206   -1.7489   -1.5907 H   0  0  0  0  0  0  0  0  0  0  0  0
    0.8283    2.2409    1.1649 H   0  0  0  0  0  0  0  0  0  0  0  0
    2.4044    2.3591    1.9715 H   0  0  0  0  0  0  0  0  0  0  0  0
    2.5226   -0.7544    1.8359 H   0  0  0  0  0  0  0  0  0  0  0  0
    3.4561   -2.2995    0.5326 H   0  0  0  0  0  0  0  0  0  0  0  0
    2.6575   -1.4578   -0.8054 H   0  0  0  0  0  0  0  0  0  0  0  0
    4.7011    0.0263   -1.0722 H   0  0  0  0  0  0  0  0  0  0  0  0
    5.4634   -0.7741    0.2820 H   0  0  0  0  0  0  0  0  0  0  0  0
    4.3740   -1.1544   -3.2490 H   0  0  0  0  0  0  0  0  0  0  0  0
    5.2458   -2.8988   -4.7670 H   0  0  0  0  0  0  0  0  0  0  0  0
    6.6686   -4.7297   -3.8783 H   0  0  0  0  0  0  0  0  0  0  0  0
    7.2223   -4.8113   -1.4584 H   0  0  0  0  0  0  0  0  0  0  0  0
    6.3619   -3.0753    0.0729 H   0  0  0  0  0  0  0  0  0  0  0  0
   -1.6619    1.3736    4.2457 H   0  0  0  0  0  0  0  0  0  0  0  0
   -2.8189    3.4925    4.6696 H   0  0  0  0  0  0  0  0  0  0  0  0
  1  2  1  0
  2  3  1  0
  3  4  2  0
  4  5  1  0
  5  6  2  0
  6  7  1  0
  7  8  1  0
  8  9  1  0
  9 10  1  0
 10 11  2  0
 11 12  1  0
 12 13  2  0
 13 14  1  0
 14 15  1  0
  8 16  2  0
 16 17  1  0
 17 18  2  0
 18 19  1  0
 19 20  1  0
 20 21  1  0
 21 22  2  0
 21 23  1  0
 23 24  1  0
 24 25  1  0
 25 26  1  0
 26 27  2  0
 27 28  1  0
 28 29  2  0
 29 30  1  0
 30 31  2  0
  6 32  1  0
 32 33  2  0
 33  3  1  0
 18  7  1  0
 31 26  1  0
 14 10  1  0
  1 34  1  0
  1 35  1  0
  1 36  1  0
  4 37  1  0
  5 38  1  0
  9 39  1  0
  9 40  1  0
 11 41  1  0
 12 42  1  0
 13 43  1  0
 15 44  1  0
 15 45  1  0
 15 46  1  0
 20 47  1  0
 20 48  1  0
 23 49  1  0
 24 50  1  0
 24 51  1  0
 25 52  1  0
 25 53  1  0
 27 54  1  0
 28 55  1  0
 29 56  1  0
 30 57  1  0
 31 58  1  0
 32 59  1  0
 33 60  1  0
M  END
$$$$
