
     RDKit          3D

 39 41  0  0  0  0  0  0  0  0999 V2000
   -1.4726   -2.4809    0.5136 O   0  0  0  0  0  0  0  0  0  0  0  0
   -1.3143   -1.5741   -0.6033 S   0  0  0  0  0  6  0  0  0  0  0  0
   -0.9050   -2.0363   -1.9109 O   0  0  0  0  0  0  0  0  0  0  0  0
   -0.2753   -0.3351   -0.1621 N   0  0  0  0  0  0  0  0  0  0  0  0
   -0.0292   -0.1179    1.2761 C   0  0  0  0  0  0  0  0  0  0  0  0
    0.9560    1.0352    1.4822 C   0  0  0  0  0  0  0  0  0  0  0  0
    2.3188    0.7310    0.9530 C   0  0  0  0  0  0  0  0  0  0  0  0
    3.5349    0.7809    1.6024 C   0  0  0  0  0  0  0  0  0  0  0  0
    4.4693    0.3954    0.6762 N   0  0  0  0  0  0  0  0  0  0  0  0
    5.8489    0.2652    0.8065 C   0  0  0  0  0  0  0  0  0  0  0  0
    6.5719   -0.1327   -0.2551 C   0  0  0  0  0  0  0  0  0  0  0  0
    5.8869   -0.4153   -1.5080 C   0  0  0  0  0  0  0  0  0  0  0  0
    4.5508   -0.2873   -1.6261 C   0  0  0  0  0  0  0  0  0  0  0  0
    3.7794    0.1324   -0.5050 C   0  0  0  0  0  0  0  0  0  0  0  0
    2.4853    0.3286   -0.3572 N   0  0  0  0  0  0  0  0  0  0  0  0
   -2.8456   -0.6879   -0.8100 C   0  0  0  0  0  0  0  0  0  0  0  0
   -3.1874   -0.1819   -2.0679 C   0  0  0  0  0  0  0  0  0  0  0  0
   -4.4111    0.4650   -2.2355 C   0  0  0  0  0  0  0  0  0  0  0  0
   -5.2789    0.5974   -1.1527 C   0  0  0  0  0  0  0  0  0  0  0  0
   -6.4524    1.2148   -1.3422 F   0  0  0  0  0  0  0  0  0  0  0  0
   -4.9527    0.0968    0.1074 C   0  0  0  0  0  0  0  0  0  0  0  0
   -5.9321    0.2526    1.2330 C   0  0  0  0  0  0  0  0  0  0  0  0
   -5.4232   -0.1406    2.4363 F   0  0  0  0  0  0  0  0  0  0  0  0
   -6.3355    1.5391    1.4161 F   0  0  0  0  0  0  0  0  0  0  0  0
   -7.0637   -0.4832    1.0545 F   0  0  0  0  0  0  0  0  0  0  0  0
   -3.7245   -0.5643    0.2751 C   0  0  0  0  0  0  0  0  0  0  0  0
    0.5823   -0.3190   -0.7349 H   0  0  0  0  0  0  0  0  0  0  0  0
    0.3851   -1.0304    1.7176 H   0  0  0  0  0  0  0  0  0  0  0  0
   -0.9756    0.1220    1.7742 H   0  0  0  0  0  0  0  0  0  0  0  0
    0.5826    1.9459    1.0010 H   0  0  0  0  0  0  0  0  0  0  0  0
    1.0244    1.2411    2.5563 H   0  0  0  0  0  0  0  0  0  0  0  0
    3.8086    1.0470    2.6128 H   0  0  0  0  0  0  0  0  0  0  0  0
    6.2847    0.4950    1.7712 H   0  0  0  0  0  0  0  0  0  0  0  0
    7.6489   -0.2502   -0.2070 H   0  0  0  0  0  0  0  0  0  0  0  0
    6.4894   -0.7338   -2.3539 H   0  0  0  0  0  0  0  0  0  0  0  0
    4.0407   -0.4931   -2.5574 H   0  0  0  0  0  0  0  0  0  0  0  0
   -2.5126   -0.2936   -2.9155 H   0  0  0  0  0  0  0  0  0  0  0  0
   -4.7000    0.8578   -3.2053 H   0  0  0  0  0  0  0  0  0  0  0  0
   -3.4572   -0.9857    1.2444 H   0  0  0  0  0  0  0  0  0  0  0  0
  1  2  2  0
  2  3  2  0
  2  4  1  0
  4  5  1  0
  5  6  1  0
  6  7  1  0
  7  8  2  0
  8  9  1  0
  9 10  1  0
 10 11  2  0
 11 12  1  0
 12 13  2  0
 13 14  1  0
 14 15  2  0
  2 16  1  0
 16 17  2  0
 17 18  1  0
 18 19  2  0
 19 20  1  0
 19 21  1  0
 21 22  1  0
 22 23  1  0
 22 24  1  0
 22 25  1  0
 21 26  2  0
 15  7  1  0
 26 16  1  0
 14  9  1  0
  4 27  1  0
  5 28  1  0
  5 29  1  0
  6 30  1  0
  6 31  1  0
  8 32  1  0
 10 33  1  0
 11 34  1  0
 12 35  1  0
 13 36  1  0
 17 37  1  0
 18 38  1  0
 26 39  1  0
M  END
$$$$
