
     RDKit          3D

 39 40  0  0  0  0  0  0  0  0999 V2000
    6.7948    2.1999   -0.5197 C   0  0  0  0  0  0  0  0  0  0  0  0
    5.3529    2.0262   -0.0644 C   0  0  0  0  0  0  0  0  0  0  0  0
    4.6037    0.9089   -0.8121 C   0  0  0  0  0  0  0  0  0  0  0  0
    5.1779   -0.4748   -0.5012 C   0  0  0  0  0  0  0  0  0  0  0  0
    3.1081    0.9360   -0.4645 C   0  0  0  0  0  0  0  0  0  0  0  0
    2.6845    1.5600    0.5020 O   0  0  0  0  0  0  0  0  0  0  0  0
    2.3585    0.1850   -1.3441 N   0  0  0  0  0  0  0  0  0  0  0  0
    1.0011   -0.0135   -1.3146 C   0  0  0  0  0  0  0  0  0  0  0  0
    0.3872   -0.7469   -2.2171 N   0  0  0  0  0  0  0  0  0  0  0  0
   -0.9740   -0.8144   -1.9980 N   0  0  0  0  0  0  0  0  0  0  0  0
   -1.3341   -0.1272   -0.9338 C   0  0  0  0  0  0  0  0  0  0  0  0
   -2.7344   -0.0099   -0.4312 C   0  0  0  0  0  0  0  0  0  0  0  0
   -3.1140   -1.2229    0.4193 C   0  0  0  0  0  0  0  0  0  0  0  0
   -4.5287   -1.1185    0.9328 C   0  0  0  0  0  0  0  0  0  0  0  0
   -4.7945   -0.5031    2.1633 C   0  0  0  0  0  0  0  0  0  0  0  0
   -6.1061   -0.3880    2.6264 C   0  0  0  0  0  0  0  0  0  0  0  0
   -7.1622   -0.8823    1.8633 C   0  0  0  0  0  0  0  0  0  0  0  0
   -6.9084   -1.4915    0.6358 C   0  0  0  0  0  0  0  0  0  0  0  0
   -5.5978   -1.6079    0.1706 C   0  0  0  0  0  0  0  0  0  0  0  0
   -0.0286    0.6462   -0.1303 S   0  0  0  0  0  0  0  0  0  0  0  0
    7.4043    1.3272   -0.2685 H   0  0  0  0  0  0  0  0  0  0  0  0
    6.8491    2.3626   -1.6007 H   0  0  0  0  0  0  0  0  0  0  0  0
    7.2420    3.0679   -0.0244 H   0  0  0  0  0  0  0  0  0  0  0  0
    4.8293    2.9782   -0.2200 H   0  0  0  0  0  0  0  0  0  0  0  0
    5.3368    1.8374    1.0163 H   0  0  0  0  0  0  0  0  0  0  0  0
    4.6908    1.0976   -1.8905 H   0  0  0  0  0  0  0  0  0  0  0  0
    5.1366   -0.6837    0.5736 H   0  0  0  0  0  0  0  0  0  0  0  0
    6.2189   -0.5578   -0.8271 H   0  0  0  0  0  0  0  0  0  0  0  0
    4.6171   -1.2672   -1.0079 H   0  0  0  0  0  0  0  0  0  0  0  0
    2.8101   -0.2781   -2.1206 H   0  0  0  0  0  0  0  0  0  0  0  0
   -3.4101    0.0707   -1.2925 H   0  0  0  0  0  0  0  0  0  0  0  0
   -2.8622    0.9160    0.1439 H   0  0  0  0  0  0  0  0  0  0  0  0
   -2.4264   -1.3278    1.2690 H   0  0  0  0  0  0  0  0  0  0  0  0
   -3.0053   -2.1485   -0.1616 H   0  0  0  0  0  0  0  0  0  0  0  0
   -3.9819   -0.1104    2.7706 H   0  0  0  0  0  0  0  0  0  0  0  0
   -6.3041    0.0879    3.5834 H   0  0  0  0  0  0  0  0  0  0  0  0
   -8.1831   -0.7927    2.2249 H   0  0  0  0  0  0  0  0  0  0  0  0
   -7.7319   -1.8764    0.0400 H   0  0  0  0  0  0  0  0  0  0  0  0
   -5.4162   -2.0842   -0.7906 H   0  0  0  0  0  0  0  0  0  0  0  0
  1  2  1  0
  2  3  1  0
  3  4  1  0
  3  5  1  0
  5  6  2  0
  5  7  1  0
  7  8  1  0
  8  9  2  0
  9 10  1  0
 10 11  2  0
 11 12  1  0
 12 13  1  0
 13 14  1  0
 14 15  2  0
 15 16  1  0
 16 17  2  0
 17 18  1  0
 18 19  2  0
 11 20  1  0
 20  8  1  0
 19 14  1  0
  1 21  1  0
  1 22  1  0
  1 23  1  0
  2 24  1  0
  2 25  1  0
  3 26  1  0
  4 27  1  0
  4 28  1  0
  4 29  1  0
  7 30  1  0
 12 31  1  0
 12 32  1  0
 13 33  1  0
 13 34  1  0
 15 35  1  0
 16 36  1  0
 17 37  1  0
 18 38  1  0
 19 39  1  0
M  END
$$$$
