
     RDKit          3D

 25 26  0  0  0  0  0  0  0  0999 V2000
    4.8059   -1.0929    1.9309 O   0  0  0  0  0  0  0  0  0  0  0  0
    4.6041   -0.9719    0.7146 N   0  0  0  0  0  4  0  0  0  0  0  0
    5.4271   -1.2549   -0.1670 O   0  0  0  0  0  1  0  0  0  0  0  0
    3.3081   -0.4626    0.2929 C   0  0  0  0  0  0  0  0  0  0  0  0
    2.3249   -0.1329    1.2229 C   0  0  0  0  0  0  0  0  0  0  0  0
    1.1016    0.3519    0.7573 C   0  0  0  0  0  0  0  0  0  0  0  0
    0.8920    0.4864   -0.6150 C   0  0  0  0  0  0  0  0  0  0  0  0
   -0.3116    0.9913   -1.1403 N   0  0  0  0  0  0  0  0  0  0  0  0
   -1.5886    0.6090   -0.6768 C   0  0  0  0  0  0  0  0  0  0  0  0
   -2.1827   -0.5802   -1.1149 C   0  0  0  0  0  0  0  0  0  0  0  0
   -3.4248   -0.9764   -0.6143 C   0  0  0  0  0  0  0  0  0  0  0  0
   -4.0765   -0.1918    0.3359 C   0  0  0  0  0  0  0  0  0  0  0  0
   -3.4858    0.9865    0.7890 C   0  0  0  0  0  0  0  0  0  0  0  0
   -2.2437    1.3812    0.2886 C   0  0  0  0  0  0  0  0  0  0  0  0
    1.8482    0.1739   -1.5188 N   0  0  0  0  0  0  0  0  0  0  0  0
    3.0347   -0.2955   -1.0539 C   0  0  0  0  0  0  0  0  0  0  0  0
    2.4881   -0.2411    2.2921 H   0  0  0  0  0  0  0  0  0  0  0  0
    0.3243    0.6222    1.4646 H   0  0  0  0  0  0  0  0  0  0  0  0
   -0.2199    0.8342   -2.1435 H   0  0  0  0  0  0  0  0  0  0  0  0
   -1.6788   -1.2083   -1.8452 H   0  0  0  0  0  0  0  0  0  0  0  0
   -3.8813   -1.8991   -0.9632 H   0  0  0  0  0  0  0  0  0  0  0  0
   -5.0437   -0.4999    0.7249 H   0  0  0  0  0  0  0  0  0  0  0  0
   -3.9914    1.5988    1.5311 H   0  0  0  0  0  0  0  0  0  0  0  0
   -1.7889    2.3021    0.6448 H   0  0  0  0  0  0  0  0  0  0  0  0
    3.7586   -0.5300   -1.8306 H   0  0  0  0  0  0  0  0  0  0  0  0
  1  2  2  0
  2  3  1  0
  2  4  1  0
  4  5  2  0
  5  6  1  0
  6  7  2  0
  7  8  1  0
  8  9  1  0
  9 10  2  0
 10 11  1  0
 11 12  2  0
 12 13  1  0
 13 14  2  0
  7 15  1  0
 15 16  2  0
 16  4  1  0
 14  9  1  0
  5 17  1  0
  6 18  1  0
  8 19  1  0
 10 20  1  0
 11 21  1  0
 12 22  1  0
 13 23  1  0
 14 24  1  0
 16 25  1  0
M  CHG  2   2   1   3  -1
M  END
$$$$
