
     RDKit          3D

 50 53  0  0  0  0  0  0  0  0999 V2000
   -6.7003   -2.5940    0.8817 C   0  0  0  0  0  0  0  0  0  0  0  0
   -5.5330   -3.1855    0.1109 C   0  0  0  0  0  0  0  0  0  0  0  0
   -5.1341   -2.3151   -0.9464 O   0  0  0  0  0  0  0  0  0  0  0  0
   -4.1612   -1.3875   -0.7015 C   0  0  0  0  0  0  0  0  0  0  0  0
   -3.6940   -0.7248   -1.8393 C   0  0  0  0  0  0  0  0  0  0  0  0
   -2.7001    0.2526   -1.7415 C   0  0  0  0  0  0  0  0  0  0  0  0
   -2.1695    0.5901   -0.4930 C   0  0  0  0  0  0  0  0  0  0  0  0
   -1.1297    1.6056   -0.3822 C   0  0  0  0  0  0  0  0  0  0  0  0
    0.2398    1.4646   -0.1975 C   0  0  0  0  0  0  0  0  0  0  0  0
    1.0244    0.2420   -0.0365 C   0  0  0  0  0  0  0  0  0  0  0  0
    0.5206   -0.8756    0.0023 O   0  0  0  0  0  0  0  0  0  0  0  0
    2.3837    0.5079    0.0727 N   0  0  0  0  0  0  0  0  0  0  0  0
    3.2829   -0.5031    0.2368 N   0  0  0  0  0  0  0  0  0  0  0  0
    4.5217   -0.1374    0.3216 C   0  0  0  0  0  0  0  0  0  0  0  0
    5.6110   -1.1179    0.5008 C   0  0  0  0  0  0  0  0  0  0  0  0
    5.3365   -2.4865    0.5843 C   0  0  0  0  0  0  0  0  0  0  0  0
    6.3839   -3.3930    0.7540 C   0  0  0  0  0  0  0  0  0  0  0  0
    7.6920   -2.9276    0.8387 C   0  0  0  0  0  0  0  0  0  0  0  0
    8.6822   -3.8496    1.0043 O   0  0  0  0  0  0  0  0  0  0  0  0
    7.9753   -1.5665    0.7565 C   0  0  0  0  0  0  0  0  0  0  0  0
    6.9291   -0.6556    0.5866 C   0  0  0  0  0  0  0  0  0  0  0  0
    0.8276    2.7043   -0.1923 N   0  0  0  0  0  0  0  0  0  0  0  0
   -0.1157    3.6123   -0.3573 N   0  0  0  0  0  0  0  0  0  0  0  0
   -1.3291    2.9876   -0.4532 N   0  0  0  0  0  0  0  0  0  0  0  0
   -2.5311    3.7316   -0.5729 C   0  0  0  0  0  0  0  0  0  0  0  0
   -3.7219    3.1327   -0.5745 N   0  0  0  0  0  0  0  0  0  0  0  0
   -4.6324    4.1810   -0.6844 O   0  0  0  0  0  0  0  0  0  0  0  0
   -3.9824    5.4096   -0.7396 N   0  0  0  0  0  0  0  0  0  0  0  0
   -2.6819    5.1276   -0.6767 C   0  0  0  0  0  0  0  0  0  0  0  0
   -1.7039    6.0533   -0.7117 N   0  0  0  0  0  0  0  0  0  0  0  0
   -2.6360   -0.0726    0.6469 C   0  0  0  0  0  0  0  0  0  0  0  0
   -3.6295   -1.0542    0.5433 C   0  0  0  0  0  0  0  0  0  0  0  0
   -6.4246   -1.6530    1.3668 H   0  0  0  0  0  0  0  0  0  0  0  0
   -7.0506   -3.2914    1.6479 H   0  0  0  0  0  0  0  0  0  0  0  0
   -7.5312   -2.3692    0.2047 H   0  0  0  0  0  0  0  0  0  0  0  0
   -5.8685   -4.1148   -0.3636 H   0  0  0  0  0  0  0  0  0  0  0  0
   -4.6998   -3.4673    0.7642 H   0  0  0  0  0  0  0  0  0  0  0  0
   -4.1042   -0.9781   -2.8139 H   0  0  0  0  0  0  0  0  0  0  0  0
   -2.3514    0.7407   -2.6477 H   0  0  0  0  0  0  0  0  0  0  0  0
    2.6987    1.4724    0.0286 H   0  0  0  0  0  0  0  0  0  0  0  0
    4.8176    0.9257    0.2633 H   0  0  0  0  0  0  0  0  0  0  0  0
    4.3139   -2.8526    0.5177 H   0  0  0  0  0  0  0  0  0  0  0  0
    6.1784   -4.4580    0.8194 H   0  0  0  0  0  0  0  0  0  0  0  0
    9.5372   -3.3910    1.0442 H   0  0  0  0  0  0  0  0  0  0  0  0
    8.9953   -1.2005    0.8221 H   0  0  0  0  0  0  0  0  0  0  0  0
    7.1535    0.4057    0.5227 H   0  0  0  0  0  0  0  0  0  0  0  0
   -1.9498    7.0286   -0.5762 H   0  0  0  0  0  0  0  0  0  0  0  0
   -0.7479    5.8190   -0.4506 H   0  0  0  0  0  0  0  0  0  0  0  0
   -2.2280    0.1604    1.6276 H   0  0  0  0  0  0  0  0  0  0  0  0
   -3.9634   -1.5327    1.4569 H   0  0  0  0  0  0  0  0  0  0  0  0
  1  2  1  0
  2  3  1  0
  3  4  1  0
  4  5  2  0
  5  6  1  0
  6  7  2  0
  7  8  1  0
  8  9  2  0
  9 10  1  0
 10 11  2  0
 10 12  1  0
 12 13  1  0
 13 14  2  3
 14 15  1  0
 15 16  2  0
 16 17  1  0
 17 18  2  0
 18 19  1  0
 18 20  1  0
 20 21  2  0
  9 22  1  0
 22 23  2  0
 23 24  1  0
 24 25  1  0
 25 26  2  0
 26 27  1  0
 27 28  1  0
 28 29  2  0
 29 30  1  0
  7 31  1  0
 31 32  2  0
 32  4  1  0
 24  8  1  0
 29 25  1  0
 21 15  1  0
  1 33  1  0
  1 34  1  0
  1 35  1  0
  2 36  1  0
  2 37  1  0
  5 38  1  0
  6 39  1  0
 12 40  1  0
 14 41  1  0
 16 42  1  0
 17 43  1  0
 19 44  1  0
 20 45  1  0
 21 46  1  0
 30 47  1  0
 30 48  1  0
 31 49  1  0
 32 50  1  0
M  END
$$$$
