
     RDKit          3D

 59 62  0  0  0  0  0  0  0  0999 V2000
   -2.0569    0.1280   -2.9032 C   0  0  0  0  0  0  0  0  0  0  0  0
   -2.4468   -0.2404   -1.5752 O   0  0  0  0  0  0  0  0  0  0  0  0
   -3.7617    0.0978   -1.3578 C   0  0  0  0  0  0  0  0  0  0  0  0
   -4.7312   -0.9130   -1.4962 C   0  0  0  0  0  0  0  0  0  0  0  0
   -4.3485   -2.3195   -1.8631 C   0  0  0  0  0  0  0  0  0  0  0  0
   -6.0828   -0.5841   -1.3163 C   0  0  0  0  0  0  0  0  0  0  0  0
   -6.4524    0.7168   -0.9729 C   0  0  0  0  0  0  0  0  0  0  0  0
   -8.2814    1.1343   -0.7310 Br  0  0  0  0  0  0  0  0  0  0  0  0
   -5.4884    1.7044   -0.7911 C   0  0  0  0  0  0  0  0  0  0  0  0
   -4.1299    1.3973   -0.9612 C   0  0  0  0  0  0  0  0  0  0  0  0
   -3.1498    2.4935   -0.6974 C   0  0  0  0  0  0  0  0  0  0  0  0
   -3.5034    3.6506   -0.9050 O   0  0  0  0  0  0  0  0  0  0  0  0
   -1.9304    2.0869   -0.2082 N   0  0  0  0  0  0  0  0  0  0  0  0
   -0.8156    2.8704    0.1545 C   0  0  0  0  0  0  0  0  0  0  0  0
   -0.7797    4.2629    0.0718 C   0  0  0  0  0  0  0  0  0  0  0  0
    0.3717    4.9570    0.4514 C   0  0  0  0  0  0  0  0  0  0  0  0
    1.4898    4.2644    0.9123 C   0  0  0  0  0  0  0  0  0  0  0  0
    1.4628    2.8710    0.9975 C   0  0  0  0  0  0  0  0  0  0  0  0
    0.3142    2.1560    0.6258 C   0  0  0  0  0  0  0  0  0  0  0  0
    0.2472    0.7420    0.6874 N   0  0  0  0  0  0  0  0  0  0  0  0
    1.0913    0.0671   -0.3255 C   0  0  0  0  0  0  0  0  0  0  0  0
    2.3208   -0.6342    0.2801 C   0  0  0  0  0  0  0  0  0  0  0  0
    1.9907   -1.5318    1.4012 N   0  0  0  0  0  0  0  0  0  0  0  0
    2.9166   -2.3532    2.0390 C   0  0  0  0  0  0  0  0  0  0  0  0
    2.7115   -2.9178    3.1101 O   0  0  0  0  0  0  0  0  0  0  0  0
    4.2363   -2.5493    1.4052 C   0  0  0  0  0  0  0  0  0  0  0  0
    4.3466   -3.2896    0.2237 C   0  0  0  0  0  0  0  0  0  0  0  0
    5.6022   -3.4757   -0.3554 C   0  0  0  0  0  0  0  0  0  0  0  0
    6.7391   -2.9384    0.2549 C   0  0  0  0  0  0  0  0  0  0  0  0
    6.6265   -2.2220    1.4489 C   0  0  0  0  0  0  0  0  0  0  0  0
    5.3731   -2.0309    2.0319 C   0  0  0  0  0  0  0  0  0  0  0  0
    0.6974   -1.2883    2.0564 C   0  0  0  0  0  0  0  0  0  0  0  0
    0.3447    0.2094    2.0681 C   0  0  0  0  0  0  0  0  0  0  0  0
   -1.0248   -0.2046   -3.0509 H   0  0  0  0  0  0  0  0  0  0  0  0
   -2.6839   -0.3668   -3.6533 H   0  0  0  0  0  0  0  0  0  0  0  0
   -2.0848    1.2137   -3.0449 H   0  0  0  0  0  0  0  0  0  0  0  0
   -4.0681   -2.3708   -2.9200 H   0  0  0  0  0  0  0  0  0  0  0  0
   -5.1798   -3.0138   -1.6948 H   0  0  0  0  0  0  0  0  0  0  0  0
   -3.5100   -2.6653   -1.2472 H   0  0  0  0  0  0  0  0  0  0  0  0
   -6.8483   -1.3471   -1.4411 H   0  0  0  0  0  0  0  0  0  0  0  0
   -5.7835    2.7125   -0.5040 H   0  0  0  0  0  0  0  0  0  0  0  0
   -1.7594    1.0887   -0.0866 H   0  0  0  0  0  0  0  0  0  0  0  0
   -1.6325    4.8328   -0.2834 H   0  0  0  0  0  0  0  0  0  0  0  0
    0.3908    6.0422    0.3861 H   0  0  0  0  0  0  0  0  0  0  0  0
    2.3828    4.8106    1.2070 H   0  0  0  0  0  0  0  0  0  0  0  0
    2.3449    2.3511    1.3596 H   0  0  0  0  0  0  0  0  0  0  0  0
    0.4618   -0.6943   -0.8057 H   0  0  0  0  0  0  0  0  0  0  0  0
    1.4047    0.7515   -1.1254 H   0  0  0  0  0  0  0  0  0  0  0  0
    2.8291   -1.1995   -0.5042 H   0  0  0  0  0  0  0  0  0  0  0  0
    3.0297    0.1085    0.6645 H   0  0  0  0  0  0  0  0  0  0  0  0
    3.4618   -3.7233   -0.2371 H   0  0  0  0  0  0  0  0  0  0  0  0
    5.6977   -4.0481   -1.2753 H   0  0  0  0  0  0  0  0  0  0  0  0
    7.7183   -3.0896   -0.1942 H   0  0  0  0  0  0  0  0  0  0  0  0
    7.5166   -1.8226    1.9291 H   0  0  0  0  0  0  0  0  0  0  0  0
    5.2814   -1.4896    2.9701 H   0  0  0  0  0  0  0  0  0  0  0  0
    0.6963   -1.6766    3.0798 H   0  0  0  0  0  0  0  0  0  0  0  0
   -0.0542   -1.8499    1.4885 H   0  0  0  0  0  0  0  0  0  0  0  0
   -0.6201    0.3527    2.5711 H   0  0  0  0  0  0  0  0  0  0  0  0
    1.1100    0.7400    2.6512 H   0  0  0  0  0  0  0  0  0  0  0  0
  1  2  1  0
  2  3  1  0
  3  4  2  0
  4  5  1  0
  4  6  1  0
  6  7  2  0
  7  8  1  0
  7  9  1  0
  9 10  2  0
 10 11  1  0
 11 12  2  0
 11 13  1  0
 13 14  1  0
 14 15  2  0
 15 16  1  0
 16 17  2  0
 17 18  1  0
 18 19  2  0
 19 20  1  0
 20 21  1  0
 21 22  1  0
 22 23  1  0
 23 24  1  0
 24 25  2  0
 24 26  1  0
 26 27  2  0
 27 28  1  0
 28 29  2  0
 29 30  1  0
 30 31  2  0
 23 32  1  0
 32 33  1  0
 10  3  1  0
 19 14  1  0
 33 20  1  0
 31 26  1  0
  1 34  1  0
  1 35  1  0
  1 36  1  0
  5 37  1  0
  5 38  1  0
  5 39  1  0
  6 40  1  0
  9 41  1  0
 13 42  1  0
 15 43  1  0
 16 44  1  0
 17 45  1  0
 18 46  1  0
 21 47  1  0
 21 48  1  0
 22 49  1  0
 22 50  1  0
 27 51  1  0
 28 52  1  0
 29 53  1  0
 30 54  1  0
 31 55  1  0
 32 56  1  0
 32 57  1  0
 33 58  1  0
 33 59  1  0
M  END
$$$$
