
     RDKit          3D

 68 69  0  0  0  0  0  0  0  0999 V2000
   -4.8893    0.9543    0.3467 C   0  0  0  0  0  0  0  0  0  0  0  0
   -4.1439    1.0510   -0.8614 O   0  0  0  0  0  0  0  0  0  0  0  0
   -2.8310    1.5826   -0.6568 C   0  0  0  0  0  0  0  0  0  0  0  0
   -1.8263    0.4672   -0.3336 C   0  0  0  0  0  0  0  0  0  0  0  0
   -0.4987    0.9582    0.0726 N   0  0  0  0  0  0  0  0  0  0  0  0
    0.3433    1.4127   -0.9286 C   0  0  0  0  0  0  0  0  0  0  0  0
   -0.0495    1.5562   -2.0889 O   0  0  0  0  0  0  0  0  0  0  0  0
    1.7826    1.7570   -0.5762 C   0  0  0  0  0  0  0  0  0  0  0  0
    2.6726    1.5824   -1.8072 C   0  0  0  0  0  0  0  0  0  0  0  0
    2.7061    0.1164   -2.2167 C   0  0  0  0  0  0  0  0  0  0  0  0
    2.3564   -0.7633   -1.4347 O   0  0  0  0  0  0  0  0  0  0  0  0
    3.1845   -0.0508   -3.4984 N   0  0  0  0  0  0  0  0  0  0  0  0
    3.3511   -1.2764   -4.1158 C   0  0  0  0  0  0  0  0  0  0  0  0
    3.7764   -1.4219   -5.4591 C   0  0  0  0  0  0  0  0  0  0  0  0
    3.8159   -2.7779   -5.6690 C   0  0  0  0  0  0  0  0  0  0  0  0
    4.1647   -3.6357   -6.8151 C   0  0  0  0  0  0  0  0  0  0  0  0
    3.4436   -3.4115   -4.5271 O   0  0  0  0  0  0  0  0  0  0  0  0
    3.1542   -2.4735   -3.5558 N   0  0  0  0  0  0  0  0  0  0  0  0
   -0.1329    0.8575    1.5094 C   0  0  0  0  0  0  0  0  0  0  0  0
    0.2162   -0.5956    1.9686 C   0  0  0  0  0  0  0  0  0  0  0  0
    0.3619   -0.8809    3.1559 O   0  0  0  0  0  0  0  0  0  0  0  0
    0.4048   -1.5143    0.9500 N   0  0  0  0  0  0  0  0  0  0  0  0
    0.8256   -2.9121    1.1467 C   0  0  0  0  0  0  0  0  0  0  0  0
    0.7755   -3.6272   -0.2176 C   0  0  0  0  0  0  0  0  0  0  0  0
    2.2622   -2.9700    1.6864 C   0  0  0  0  0  0  0  0  0  0  0  0
   -0.1289   -3.6583    2.0982 C   0  0  0  0  0  0  0  0  0  0  0  0
   -1.1506    1.5876    2.3872 C   0  0  0  0  0  0  0  0  0  0  0  0
   -2.1513    0.9213    3.1069 C   0  0  0  0  0  0  0  0  0  0  0  0
   -3.0889    1.6406    3.8545 C   0  0  0  0  0  0  0  0  0  0  0  0
   -3.0527    3.0349    3.8987 C   0  0  0  0  0  0  0  0  0  0  0  0
   -4.0341    3.6097    4.6578 O   0  0  0  0  0  0  0  0  0  0  0  0
   -3.9923    5.0243    4.7970 C   0  0  0  0  0  0  0  0  0  0  0  0
   -2.0640    3.7097    3.1865 C   0  0  0  0  0  0  0  0  0  0  0  0
   -1.1230    2.9931    2.4374 C   0  0  0  0  0  0  0  0  0  0  0  0
   -5.0484    1.9494    0.7734 H   0  0  0  0  0  0  0  0  0  0  0  0
   -5.8639    0.5182    0.1120 H   0  0  0  0  0  0  0  0  0  0  0  0
   -4.3875    0.3082    1.0708 H   0  0  0  0  0  0  0  0  0  0  0  0
   -2.8503    2.3587    0.1146 H   0  0  0  0  0  0  0  0  0  0  0  0
   -2.5418    2.0780   -1.5897 H   0  0  0  0  0  0  0  0  0  0  0  0
   -2.2161   -0.2117    0.4311 H   0  0  0  0  0  0  0  0  0  0  0  0
   -1.7044   -0.1562   -1.2287 H   0  0  0  0  0  0  0  0  0  0  0  0
    2.1657    1.1124    0.2190 H   0  0  0  0  0  0  0  0  0  0  0  0
    1.8094    2.7963   -0.2330 H   0  0  0  0  0  0  0  0  0  0  0  0
    2.3171    2.1977   -2.6418 H   0  0  0  0  0  0  0  0  0  0  0  0
    3.6972    1.8885   -1.5687 H   0  0  0  0  0  0  0  0  0  0  0  0
    3.3696    0.7645   -4.0636 H   0  0  0  0  0  0  0  0  0  0  0  0
    4.0181   -0.6512   -6.1745 H   0  0  0  0  0  0  0  0  0  0  0  0
    5.1134   -4.1482   -6.6322 H   0  0  0  0  0  0  0  0  0  0  0  0
    4.2676   -3.0449   -7.7319 H   0  0  0  0  0  0  0  0  0  0  0  0
    3.3904   -4.3906   -6.9830 H   0  0  0  0  0  0  0  0  0  0  0  0
    0.8063    1.3975    1.6730 H   0  0  0  0  0  0  0  0  0  0  0  0
    0.6119   -1.1266    0.0315 H   0  0  0  0  0  0  0  0  0  0  0  0
   -0.2310   -3.5789   -0.6508 H   0  0  0  0  0  0  0  0  0  0  0  0
    1.0522   -4.6833   -0.1232 H   0  0  0  0  0  0  0  0  0  0  0  0
    1.4617   -3.1696   -0.9390 H   0  0  0  0  0  0  0  0  0  0  0  0
    2.9529   -2.4358    1.0232 H   0  0  0  0  0  0  0  0  0  0  0  0
    2.6093   -4.0060    1.7758 H   0  0  0  0  0  0  0  0  0  0  0  0
    2.3431   -2.5121    2.6779 H   0  0  0  0  0  0  0  0  0  0  0  0
   -1.1720   -3.5516    1.7747 H   0  0  0  0  0  0  0  0  0  0  0  0
    0.1056   -4.7279    2.1323 H   0  0  0  0  0  0  0  0  0  0  0  0
   -0.0618   -3.2859    3.1248 H   0  0  0  0  0  0  0  0  0  0  0  0
   -2.2175   -0.1653    3.1015 H   0  0  0  0  0  0  0  0  0  0  0  0
   -3.8558    1.1049    4.4099 H   0  0  0  0  0  0  0  0  0  0  0  0
   -3.0512    5.3482    5.2553 H   0  0  0  0  0  0  0  0  0  0  0  0
   -4.1541    5.5181    3.8326 H   0  0  0  0  0  0  0  0  0  0  0  0
   -4.8068    5.3204    5.4657 H   0  0  0  0  0  0  0  0  0  0  0  0
   -1.9994    4.7923    3.1840 H   0  0  0  0  0  0  0  0  0  0  0  0
   -0.3694    3.5453    1.8785 H   0  0  0  0  0  0  0  0  0  0  0  0
  1  2  1  0
  2  3  1  0
  3  4  1  0
  4  5  1  0
  5  6  1  0
  6  7  2  0
  6  8  1  0
  8  9  1  0
  9 10  1  0
 10 11  2  0
 10 12  1  0
 12 13  1  0
 13 14  1  0
 14 15  2  0
 15 16  1  0
 15 17  1  0
 17 18  1  0
  5 19  1  0
 19 20  1  0
 20 21  2  0
 20 22  1  0
 22 23  1  0
 23 24  1  0
 23 25  1  0
 23 26  1  0
 19 27  1  0
 27 28  2  0
 28 29  1  0
 29 30  2  0
 30 31  1  0
 31 32  1  0
 30 33  1  0
 33 34  2  0
 18 13  2  0
 34 27  1  0
  1 35  1  0
  1 36  1  0
  1 37  1  0
  3 38  1  0
  3 39  1  0
  4 40  1  0
  4 41  1  0
  8 42  1  0
  8 43  1  0
  9 44  1  0
  9 45  1  0
 12 46  1  0
 14 47  1  0
 16 48  1  0
 16 49  1  0
 16 50  1  0
 19 51  1  0
 22 52  1  0
 24 53  1  0
 24 54  1  0
 24 55  1  0
 25 56  1  0
 25 57  1  0
 25 58  1  0
 26 59  1  0
 26 60  1  0
 26 61  1  0
 28 62  1  0
 29 63  1  0
 32 64  1  0
 32 65  1  0
 32 66  1  0
 33 67  1  0
 34 68  1  0
M  END
$$$$
