
     RDKit          3D

 44 46  0  0  0  0  0  0  0  0999 V2000
    4.2718    1.8336    0.1799 C   0  0  0  0  0  0  0  0  0  0  0  0
    3.3130    0.7850   -0.3144 C   0  0  0  0  0  0  0  0  0  0  0  0
    3.6515   -0.5694   -0.1855 C   0  0  0  0  0  0  0  0  0  0  0  0
    2.7855   -1.5675   -0.6352 C   0  0  0  0  0  0  0  0  0  0  0  0
    1.5604   -1.2316   -1.2194 C   0  0  0  0  0  0  0  0  0  0  0  0
    0.6782   -2.3398   -1.6959 C   0  0  0  0  0  0  0  0  0  0  0  0
    1.1210   -3.4886   -1.7542 O   0  0  0  0  0  0  0  0  0  0  0  0
   -0.7515   -2.0310   -2.1389 C   0  0  0  0  0  0  0  0  0  0  0  0
   -1.5536   -1.2802   -1.2452 O   0  0  0  0  0  0  0  0  0  0  0  0
   -1.7776   -1.7994    0.0063 C   0  0  0  0  0  0  0  0  0  0  0  0
   -1.7534   -3.1710    0.2898 C   0  0  0  0  0  0  0  0  0  0  0  0
   -1.9909   -3.6304    1.5864 C   0  0  0  0  0  0  0  0  0  0  0  0
   -2.2632   -2.7273    2.6072 C   0  0  0  0  0  0  0  0  0  0  0  0
   -2.3003   -1.3606    2.3314 C   0  0  0  0  0  0  0  0  0  0  0  0
   -2.0626   -0.8706    1.0326 C   0  0  0  0  0  0  0  0  0  0  0  0
   -2.1014    0.5853    0.7958 C   0  0  0  0  0  0  0  0  0  0  0  0
   -3.0341    1.1535   -0.0866 C   0  0  0  0  0  0  0  0  0  0  0  0
   -3.0775    2.5342   -0.2970 C   0  0  0  0  0  0  0  0  0  0  0  0
   -2.1902    3.3703    0.3764 C   0  0  0  0  0  0  0  0  0  0  0  0
   -1.2582    2.8269    1.2569 C   0  0  0  0  0  0  0  0  0  0  0  0
   -1.2126    1.4455    1.4622 C   0  0  0  0  0  0  0  0  0  0  0  0
    1.2168    0.1187   -1.3532 C   0  0  0  0  0  0  0  0  0  0  0  0
    2.0817    1.1336   -0.9038 C   0  0  0  0  0  0  0  0  0  0  0  0
    1.6748    2.5728   -1.0742 C   0  0  0  0  0  0  0  0  0  0  0  0
    5.1807    1.3845    0.5943 H   0  0  0  0  0  0  0  0  0  0  0  0
    3.8079    2.4295    0.9722 H   0  0  0  0  0  0  0  0  0  0  0  0
    4.5747    2.4898   -0.6422 H   0  0  0  0  0  0  0  0  0  0  0  0
    4.5974   -0.8612    0.2666 H   0  0  0  0  0  0  0  0  0  0  0  0
    3.0745   -2.6110   -0.5246 H   0  0  0  0  0  0  0  0  0  0  0  0
   -0.6789   -1.4614   -3.0735 H   0  0  0  0  0  0  0  0  0  0  0  0
   -1.2600   -2.9625   -2.4155 H   0  0  0  0  0  0  0  0  0  0  0  0
   -1.5565   -3.9125   -0.4783 H   0  0  0  0  0  0  0  0  0  0  0  0
   -1.9644   -4.6970    1.7960 H   0  0  0  0  0  0  0  0  0  0  0  0
   -2.4509   -3.0840    3.6165 H   0  0  0  0  0  0  0  0  0  0  0  0
   -2.5255   -0.6674    3.1400 H   0  0  0  0  0  0  0  0  0  0  0  0
   -3.7378    0.5140   -0.6159 H   0  0  0  0  0  0  0  0  0  0  0  0
   -3.8076    2.9537   -0.9839 H   0  0  0  0  0  0  0  0  0  0  0  0
   -2.2263    4.4444    0.2156 H   0  0  0  0  0  0  0  0  0  0  0  0
   -0.5624    3.4750    1.7829 H   0  0  0  0  0  0  0  0  0  0  0  0
   -0.4682    1.0371    2.1431 H   0  0  0  0  0  0  0  0  0  0  0  0
    0.2714    0.4090   -1.8049 H   0  0  0  0  0  0  0  0  0  0  0  0
    0.6716    2.6603   -1.5043 H   0  0  0  0  0  0  0  0  0  0  0  0
    1.6632    3.0837   -0.1065 H   0  0  0  0  0  0  0  0  0  0  0  0
    2.3693    3.0842   -1.7481 H   0  0  0  0  0  0  0  0  0  0  0  0
  1  2  1  0
  2  3  2  0
  3  4  1  0
  4  5  2  0
  5  6  1  0
  6  7  2  0
  6  8  1  0
  8  9  1  0
  9 10  1  0
 10 11  2  0
 11 12  1  0
 12 13  2  0
 13 14  1  0
 14 15  2  0
 15 16  1  0
 16 17  2  0
 17 18  1  0
 18 19  2  0
 19 20  1  0
 20 21  2  0
  5 22  1  0
 22 23  2  0
 23 24  1  0
 23  2  1  0
 15 10  1  0
 21 16  1  0
  1 25  1  0
  1 26  1  0
  1 27  1  0
  3 28  1  0
  4 29  1  0
  8 30  1  0
  8 31  1  0
 11 32  1  0
 12 33  1  0
 13 34  1  0
 14 35  1  0
 17 36  1  0
 18 37  1  0
 19 38  1  0
 20 39  1  0
 21 40  1  0
 22 41  1  0
 24 42  1  0
 24 43  1  0
 24 44  1  0
M  END
$$$$
