
     RDKit          3D

 61 65  0  0  0  0  0  0  0  0999 V2000
    6.4320   -4.2951    1.9986 C   0  0  0  0  0  0  0  0  0  0  0  0
    5.2147   -3.5100    1.6065 C   0  0  0  0  0  0  0  0  0  0  0  0
    4.0575   -3.5591    2.3880 C   0  0  0  0  0  0  0  0  0  0  0  0
    2.9329   -2.8038    2.0399 C   0  0  0  0  0  0  0  0  0  0  0  0
    2.9402   -1.9719    0.9086 C   0  0  0  0  0  0  0  0  0  0  0  0
    1.7576   -1.1785    0.5432 C   0  0  0  0  0  0  0  0  0  0  0  0
    1.8451    0.1922    0.3119 C   0  0  0  0  0  0  0  0  0  0  0  0
    0.7140    0.9452   -0.0335 C   0  0  0  0  0  0  0  0  0  0  0  0
    0.8218    2.3923   -0.2430 C   0  0  0  0  0  0  0  0  0  0  0  0
    1.2936    2.9049   -1.4625 C   0  0  0  0  0  0  0  0  0  0  0  0
    1.4001    4.2833   -1.6642 C   0  0  0  0  0  0  0  0  0  0  0  0
    1.0596    5.1774   -0.6449 C   0  0  0  0  0  0  0  0  0  0  0  0
    1.1451    6.6592   -0.8727 C   0  0  0  0  0  0  0  0  0  0  0  0
    0.5939    4.6746    0.5737 C   0  0  0  0  0  0  0  0  0  0  0  0
    0.4871    3.2966    0.7777 C   0  0  0  0  0  0  0  0  0  0  0  0
   -0.5073    0.3405   -0.1570 N   0  0  0  0  0  4  0  0  0  0  0  0
   -1.6685    1.1190   -0.5160 C   0  0  0  0  0  0  0  0  0  0  0  0
   -1.8645    1.4571   -1.8563 C   0  0  0  0  0  0  0  0  0  0  0  0
   -2.9870    2.2093   -2.1947 C   0  0  0  0  0  0  0  0  0  0  0  0
   -3.8874    2.6072   -1.2018 C   0  0  0  0  0  0  0  0  0  0  0  0
   -3.6744    2.2582    0.1352 C   0  0  0  0  0  0  0  0  0  0  0  0
   -2.5560    1.5074    0.4895 C   0  0  0  0  0  0  0  0  0  0  0  0
   -0.6234   -1.0055    0.0612 C   0  0  0  0  0  0  0  0  0  0  0  0
   -1.9317   -1.6471   -0.1012 C   0  0  0  0  0  0  0  0  0  0  0  0
   -2.7262   -1.9443    1.0181 C   0  0  0  0  0  0  0  0  0  0  0  0
   -3.9731   -2.5560    0.8662 C   0  0  0  0  0  0  0  0  0  0  0  0
   -4.4512   -2.8850   -0.4056 C   0  0  0  0  0  0  0  0  0  0  0  0
   -5.7756   -3.5742   -0.5661 C   0  0  0  0  0  0  0  0  0  0  0  0
   -3.6504   -2.6247   -1.5216 C   0  0  0  0  0  0  0  0  0  0  0  0
   -2.4031   -2.0132   -1.3721 C   0  0  0  0  0  0  0  0  0  0  0  0
    0.5012   -1.7652    0.4131 C   0  0  0  0  0  0  0  0  0  0  0  0
    4.1142   -1.9192    0.1399 C   0  0  0  0  0  0  0  0  0  0  0  0
    5.2390   -2.6746    0.4868 C   0  0  0  0  0  0  0  0  0  0  0  0
    6.1501   -5.2296    2.4950 H   0  0  0  0  0  0  0  0  0  0  0  0
    7.0540   -3.7056    2.6792 H   0  0  0  0  0  0  0  0  0  0  0  0
    7.0256   -4.5619    1.1179 H   0  0  0  0  0  0  0  0  0  0  0  0
    4.0249   -4.1868    3.2768 H   0  0  0  0  0  0  0  0  0  0  0  0
    2.0551   -2.8673    2.6795 H   0  0  0  0  0  0  0  0  0  0  0  0
    2.8056    0.6988    0.4206 H   0  0  0  0  0  0  0  0  0  0  0  0
    1.5839    2.2406   -2.2751 H   0  0  0  0  0  0  0  0  0  0  0  0
    1.7586    4.6591   -2.6218 H   0  0  0  0  0  0  0  0  0  0  0  0
    1.3682    7.1854    0.0614 H   0  0  0  0  0  0  0  0  0  0  0  0
    0.1962    7.0310   -1.2711 H   0  0  0  0  0  0  0  0  0  0  0  0
    1.9455    6.9002   -1.5802 H   0  0  0  0  0  0  0  0  0  0  0  0
    0.3192    5.3581    1.3761 H   0  0  0  0  0  0  0  0  0  0  0  0
    0.1413    2.9447    1.7483 H   0  0  0  0  0  0  0  0  0  0  0  0
   -1.1713    1.1467   -2.6312 H   0  0  0  0  0  0  0  0  0  0  0  0
   -3.1693    2.4906   -3.2306 H   0  0  0  0  0  0  0  0  0  0  0  0
   -4.7641    3.1950   -1.4728 H   0  0  0  0  0  0  0  0  0  0  0  0
   -4.3868    2.5766    0.8946 H   0  0  0  0  0  0  0  0  0  0  0  0
   -2.3926    1.2431    1.5292 H   0  0  0  0  0  0  0  0  0  0  0  0
   -2.3870   -1.7073    2.0254 H   0  0  0  0  0  0  0  0  0  0  0  0
   -4.5714   -2.7802    1.7484 H   0  0  0  0  0  0  0  0  0  0  0  0
   -5.6373   -4.6597   -0.5447 H   0  0  0  0  0  0  0  0  0  0  0  0
   -6.2474   -3.2946   -1.5141 H   0  0  0  0  0  0  0  0  0  0  0  0
   -6.4646   -3.2889    0.2359 H   0  0  0  0  0  0  0  0  0  0  0  0
   -3.9947   -2.9040   -2.5165 H   0  0  0  0  0  0  0  0  0  0  0  0
   -1.8054   -1.8366   -2.2649 H   0  0  0  0  0  0  0  0  0  0  0  0
    0.3877   -2.8398    0.5663 H   0  0  0  0  0  0  0  0  0  0  0  0
    4.1706   -1.2954   -0.7498 H   0  0  0  0  0  0  0  0  0  0  0  0
    6.1358   -2.6093   -0.1269 H   0  0  0  0  0  0  0  0  0  0  0  0
  1  2  1  0
  2  3  2  0
  3  4  1  0
  4  5  2  0
  5  6  1  0
  6  7  2  0
  7  8  1  0
  8  9  1  0
  9 10  2  0
 10 11  1  0
 11 12  2  0
 12 13  1  0
 12 14  1  0
 14 15  2  0
  8 16  2  0
 16 17  1  0
 17 18  2  0
 18 19  1  0
 19 20  2  0
 20 21  1  0
 21 22  2  0
 16 23  1  0
 23 24  1  0
 24 25  2  0
 25 26  1  0
 26 27  2  0
 27 28  1  0
 27 29  1  0
 29 30  2  0
 23 31  2  0
  5 32  1  0
 32 33  2  0
 33  2  1  0
 31  6  1  0
 15  9  1  0
 22 17  1  0
 30 24  1  0
  1 34  1  0
  1 35  1  0
  1 36  1  0
  3 37  1  0
  4 38  1  0
  7 39  1  0
 10 40  1  0
 11 41  1  0
 13 42  1  0
 13 43  1  0
 13 44  1  0
 14 45  1  0
 15 46  1  0
 18 47  1  0
 19 48  1  0
 20 49  1  0
 21 50  1  0
 22 51  1  0
 25 52  1  0
 26 53  1  0
 28 54  1  0
 28 55  1  0
 28 56  1  0
 29 57  1  0
 30 58  1  0
 31 59  1  0
 32 60  1  0
 33 61  1  0
M  CHG  1  16   1
M  END
$$$$
