
     RDKit          3D

 33 35  0  0  0  0  0  0  0  0999 V2000
    6.0032    0.5919    0.7908 C   0  0  0  0  0  0  0  0  0  0  0  0
    4.6070    0.1834    0.5604 N   0  0  0  0  0  4  0  0  0  0  0  0
    3.6228    0.7057    1.3255 C   0  0  0  0  0  0  0  0  0  0  0  0
    2.2988    0.3292    1.1306 C   0  0  0  0  0  0  0  0  0  0  0  0
    1.9821   -0.5938    0.1350 C   0  0  0  0  0  0  0  0  0  0  0  0
    0.6073   -1.0492   -0.0974 C   0  0  0  0  0  0  0  0  0  0  0  0
   -0.4536   -0.2244   -0.1342 C   0  0  0  0  0  0  0  0  0  0  0  0
   -1.8126   -0.6116   -0.3601 C   0  0  0  0  0  0  0  0  0  0  0  0
   -2.2838   -1.9006   -0.4913 C   0  0  0  0  0  0  0  0  0  0  0  0
   -3.6394   -1.8385   -0.6897 N   0  0  0  0  0  0  0  0  0  0  0  0
   -4.0623   -0.5298   -0.6891 C   0  0  0  0  0  0  0  0  0  0  0  0
   -5.3489   -0.0024   -0.8536 C   0  0  0  0  0  0  0  0  0  0  0  0
   -5.4916    1.3867   -0.8082 C   0  0  0  0  0  0  0  0  0  0  0  0
   -4.3903    2.2135   -0.6066 C   0  0  0  0  0  0  0  0  0  0  0  0
   -3.1104    1.6698   -0.4435 C   0  0  0  0  0  0  0  0  0  0  0  0
   -2.9354    0.2689   -0.4839 C   0  0  0  0  0  0  0  0  0  0  0  0
    3.0169   -1.1376   -0.6233 C   0  0  0  0  0  0  0  0  0  0  0  0
    4.3266   -0.7301   -0.3956 C   0  0  0  0  0  0  0  0  0  0  0  0
    6.4251   -0.0899    1.5332 H   0  0  0  0  0  0  0  0  0  0  0  0
    6.5541    0.5320   -0.1513 H   0  0  0  0  0  0  0  0  0  0  0  0
    6.0195    1.6227    1.1540 H   0  0  0  0  0  0  0  0  0  0  0  0
    3.9047    1.4194    2.0947 H   0  0  0  0  0  0  0  0  0  0  0  0
    1.5237    0.7513    1.7679 H   0  0  0  0  0  0  0  0  0  0  0  0
    0.4812   -2.1161   -0.2668 H   0  0  0  0  0  0  0  0  0  0  0  0
   -0.2923    0.8425    0.0032 H   0  0  0  0  0  0  0  0  0  0  0  0
   -1.7909   -2.8623   -0.4602 H   0  0  0  0  0  0  0  0  0  0  0  0
   -4.2491   -2.6349   -0.8171 H   0  0  0  0  0  0  0  0  0  0  0  0
   -6.2108   -0.6430   -1.0117 H   0  0  0  0  0  0  0  0  0  0  0  0
   -6.4788    1.8269   -0.9332 H   0  0  0  0  0  0  0  0  0  0  0  0
   -4.5254    3.2921   -0.5761 H   0  0  0  0  0  0  0  0  0  0  0  0
   -2.2641    2.3312   -0.2894 H   0  0  0  0  0  0  0  0  0  0  0  0
    2.8102   -1.8721   -1.4001 H   0  0  0  0  0  0  0  0  0  0  0  0
    5.1563   -1.1309   -0.9712 H   0  0  0  0  0  0  0  0  0  0  0  0
  1  2  1  0
  2  3  2  0
  3  4  1  0
  4  5  2  0
  5  6  1  0
  6  7  2  3
  7  8  1  0
  8  9  2  0
  9 10  1  0
 10 11  1  0
 11 12  2  0
 12 13  1  0
 13 14  2  0
 14 15  1  0
 15 16  2  0
  5 17  1  0
 17 18  2  0
 18  2  1  0
 16  8  1  0
 16 11  1  0
  1 19  1  0
  1 20  1  0
  1 21  1  0
  3 22  1  0
  4 23  1  0
  6 24  1  0
  7 25  1  0
  9 26  1  0
 10 27  1  0
 12 28  1  0
 13 29  1  0
 14 30  1  0
 15 31  1  0
 17 32  1  0
 18 33  1  0
M  CHG  1   2   1
M  END
$$$$
