
     RDKit          3D

 64 69  0  0  0  0  0  0  0  0999 V2000
   -4.8719    5.2153    2.8282 C   0  0  0  0  0  0  0  0  0  0  0  0
   -3.9622    4.1586    3.1060 O   0  0  0  0  0  0  0  0  0  0  0  0
   -4.0188    3.0632    2.2895 C   0  0  0  0  0  0  0  0  0  0  0  0
   -3.1057    2.0541    2.6024 C   0  0  0  0  0  0  0  0  0  0  0  0
   -3.0556    0.8778    1.8492 C   0  0  0  0  0  0  0  0  0  0  0  0
   -3.9220    0.6934    0.7662 C   0  0  0  0  0  0  0  0  0  0  0  0
   -3.8589   -0.5356   -0.0356 C   0  0  0  0  0  0  0  0  0  0  0  0
   -5.2286   -1.5605   -0.0573 S   0  0  0  0  0  0  0  0  0  0  0  0
   -4.4728   -2.7114   -1.0848 C   0  0  0  0  0  0  0  0  0  0  0  0
   -5.0476   -3.9106   -1.5612 C   0  0  0  0  0  0  0  0  0  0  0  0
   -4.2605   -4.6889   -2.3842 C   0  0  0  0  0  0  0  0  0  0  0  0
   -2.9874   -4.3293   -2.7306 C   0  0  0  0  0  0  0  0  0  0  0  0
   -2.4061   -3.1618   -2.2763 C   0  0  0  0  0  0  0  0  0  0  0  0
   -3.1671   -2.3189   -1.4181 C   0  0  0  0  0  0  0  0  0  0  0  0
   -2.8229   -1.0559   -0.7968 C   0  0  0  0  0  0  0  0  0  0  0  0
   -1.5420   -0.3672   -0.9293 C   0  0  0  0  0  0  0  0  0  0  0  0
   -1.4534    0.8485   -1.6116 C   0  0  0  0  0  0  0  0  0  0  0  0
   -0.2196    1.4930   -1.7311 C   0  0  0  0  0  0  0  0  0  0  0  0
    0.9376    0.9326   -1.1831 C   0  0  0  0  0  0  0  0  0  0  0  0
    2.0693    1.6742   -1.3749 O   0  0  0  0  0  0  0  0  0  0  0  0
    3.3293    1.1215   -0.9811 C   0  0  0  0  0  0  0  0  0  0  0  0
    3.6467    1.4727    0.4844 C   0  0  0  0  0  0  0  0  0  0  0  0
    4.9286    1.0001    1.0229 N   0  0  0  0  0  0  0  0  0  0  0  0
    5.1133   -0.4445    0.9541 C   0  0  0  0  0  0  0  0  0  0  0  0
    6.2568   -0.8729    1.8812 C   0  0  0  0  0  0  0  0  0  0  0  0
    7.4268    0.1146    1.8976 C   0  0  0  0  0  0  0  0  0  0  0  0
    7.4154    1.0025    0.6616 C   0  0  0  0  0  0  0  0  0  0  0  0
    6.0837    1.7533    0.5208 C   0  0  0  0  0  0  0  0  0  0  0  0
    0.8481   -0.2810   -0.5015 C   0  0  0  0  0  0  0  0  0  0  0  0
   -0.3862   -0.9296   -0.3769 C   0  0  0  0  0  0  0  0  0  0  0  0
   -2.3931   -5.2380   -3.5504 O   0  0  0  0  0  0  0  0  0  0  0  0
   -3.4468   -6.2139   -3.6821 C   0  0  0  0  0  0  0  0  0  0  0  0
   -4.6359   -5.8730   -2.9407 O   0  0  0  0  0  0  0  0  0  0  0  0
   -4.8355    1.7093    0.4540 C   0  0  0  0  0  0  0  0  0  0  0  0
   -4.8852    2.8866    1.2112 C   0  0  0  0  0  0  0  0  0  0  0  0
   -4.6992    6.0070    3.5637 H   0  0  0  0  0  0  0  0  0  0  0  0
   -5.9093    4.8816    2.9357 H   0  0  0  0  0  0  0  0  0  0  0  0
   -4.6932    5.6394    1.8346 H   0  0  0  0  0  0  0  0  0  0  0  0
   -2.4250    2.1845    3.4401 H   0  0  0  0  0  0  0  0  0  0  0  0
   -2.3351    0.1089    2.1171 H   0  0  0  0  0  0  0  0  0  0  0  0
   -6.0563   -4.2039   -1.2952 H   0  0  0  0  0  0  0  0  0  0  0  0
   -1.3962   -2.8983   -2.5731 H   0  0  0  0  0  0  0  0  0  0  0  0
   -2.3372    1.3041   -2.0512 H   0  0  0  0  0  0  0  0  0  0  0  0
   -0.1602    2.4422   -2.2585 H   0  0  0  0  0  0  0  0  0  0  0  0
    4.0740    1.5874   -1.6352 H   0  0  0  0  0  0  0  0  0  0  0  0
    3.3821    0.0475   -1.1900 H   0  0  0  0  0  0  0  0  0  0  0  0
    2.8460    1.0878    1.1280 H   0  0  0  0  0  0  0  0  0  0  0  0
    3.5791    2.5619    0.6097 H   0  0  0  0  0  0  0  0  0  0  0  0
    5.3261   -0.7652   -0.0736 H   0  0  0  0  0  0  0  0  0  0  0  0
    4.2048   -0.9714    1.2705 H   0  0  0  0  0  0  0  0  0  0  0  0
    6.6136   -1.8600    1.5634 H   0  0  0  0  0  0  0  0  0  0  0  0
    5.8847   -0.9936    2.9062 H   0  0  0  0  0  0  0  0  0  0  0  0
    8.3751   -0.4290    1.9728 H   0  0  0  0  0  0  0  0  0  0  0  0
    7.3554    0.7447    2.7932 H   0  0  0  0  0  0  0  0  0  0  0  0
    8.2422    1.7205    0.7044 H   0  0  0  0  0  0  0  0  0  0  0  0
    7.5804    0.3802   -0.2273 H   0  0  0  0  0  0  0  0  0  0  0  0
    6.1444    2.6921    1.0845 H   0  0  0  0  0  0  0  0  0  0  0  0
    5.9703    2.0266   -0.5342 H   0  0  0  0  0  0  0  0  0  0  0  0
    1.7120   -0.7496   -0.0436 H   0  0  0  0  0  0  0  0  0  0  0  0
   -0.4388   -1.8729    0.1625 H   0  0  0  0  0  0  0  0  0  0  0  0
   -3.0756   -7.1815   -3.3249 H   0  0  0  0  0  0  0  0  0  0  0  0
   -3.7086   -6.3070   -4.7424 H   0  0  0  0  0  0  0  0  0  0  0  0
   -5.5150    1.5953   -0.3879 H   0  0  0  0  0  0  0  0  0  0  0  0
   -5.6103    3.6423    0.9291 H   0  0  0  0  0  0  0  0  0  0  0  0
  1  2  1  0
  2  3  1  0
  3  4  2  0
  4  5  1  0
  5  6  2  0
  6  7  1  0
  7  8  1  0
  8  9  1  0
  9 10  2  0
 10 11  1  0
 11 12  2  0
 12 13  1  0
 13 14  2  0
 14 15  1  0
 15 16  1  0
 16 17  2  0
 17 18  1  0
 18 19  2  0
 19 20  1  0
 20 21  1  0
 21 22  1  0
 22 23  1  0
 23 24  1  0
 24 25  1  0
 25 26  1  0
 26 27  1  0
 27 28  1  0
 19 29  1  0
 29 30  2  0
 12 31  1  0
 31 32  1  0
 32 33  1  0
  6 34  1  0
 34 35  2  0
 35  3  1  0
 15  7  2  0
 30 16  1  0
 14  9  1  0
 28 23  1  0
 33 11  1  0
  1 36  1  0
  1 37  1  0
  1 38  1  0
  4 39  1  0
  5 40  1  0
 10 41  1  0
 13 42  1  0
 17 43  1  0
 18 44  1  0
 21 45  1  0
 21 46  1  0
 22 47  1  0
 22 48  1  0
 24 49  1  0
 24 50  1  0
 25 51  1  0
 25 52  1  0
 26 53  1  0
 26 54  1  0
 27 55  1  0
 27 56  1  0
 28 57  1  0
 28 58  1  0
 29 59  1  0
 30 60  1  0
 32 61  1  0
 32 62  1  0
 34 63  1  0
 35 64  1  0
M  END
$$$$
