
     RDKit          3D

 52 53  0  0  0  0  0  0  0  0999 V2000
    6.1738   -3.8005   -1.2826 C   0  0  0  0  0  0  0  0  0  0  0  0
    5.0403   -2.9860   -1.8873 C   0  0  0  0  0  0  0  0  0  0  0  0
    4.4939   -1.9630   -0.8900 C   0  0  0  0  0  0  0  0  0  0  0  0
    3.3970   -1.2135   -1.5000 N   0  0  0  0  0  0  0  0  0  0  0  0
    2.9771   -0.0307   -0.7311 C   0  0  0  0  0  0  0  0  0  0  0  0
    2.4670   -0.3106    0.7051 C   0  0  0  0  0  0  0  0  0  0  0  0
    3.5499   -0.6213    1.5950 O   0  0  0  0  0  0  0  0  0  0  0  0
    1.7088    0.8965    1.2821 C   0  0  0  0  0  0  0  0  0  0  0  0
    0.5566    1.1661    0.4854 O   0  0  0  0  0  0  0  0  0  0  0  0
   -0.2950    2.1550    0.8964 C   0  0  0  0  0  0  0  0  0  0  0  0
   -0.0316    3.0297    1.9588 C   0  0  0  0  0  0  0  0  0  0  0  0
   -0.9286    4.0560    2.2788 C   0  0  0  0  0  0  0  0  0  0  0  0
   -2.0949    4.2263    1.5379 C   0  0  0  0  0  0  0  0  0  0  0  0
   -2.3717    3.3629    0.4802 C   0  0  0  0  0  0  0  0  0  0  0  0
   -1.4845    2.3212    0.1680 C   0  0  0  0  0  0  0  0  0  0  0  0
   -1.8620    1.4400   -0.9688 C   0  0  0  0  0  0  0  0  0  0  0  0
   -2.3490    1.9507   -1.9786 O   0  0  0  0  0  0  0  0  0  0  0  0
   -1.6742   -0.0590   -0.8290 C   0  0  0  0  0  0  0  0  0  0  0  0
   -2.9128   -0.8235   -1.2946 C   0  0  0  0  0  0  0  0  0  0  0  0
   -4.0688   -0.6772   -0.3323 C   0  0  0  0  0  0  0  0  0  0  0  0
   -4.1645   -1.5034    0.7961 C   0  0  0  0  0  0  0  0  0  0  0  0
   -5.2193   -1.3507    1.6975 C   0  0  0  0  0  0  0  0  0  0  0  0
   -6.1843   -0.3682    1.4823 C   0  0  0  0  0  0  0  0  0  0  0  0
   -6.0951    0.4627    0.3656 C   0  0  0  0  0  0  0  0  0  0  0  0
   -5.0429    0.3087   -0.5379 C   0  0  0  0  0  0  0  0  0  0  0  0
    6.5466   -4.5278   -2.0121 H   0  0  0  0  0  0  0  0  0  0  0  0
    7.0098   -3.1545   -0.9924 H   0  0  0  0  0  0  0  0  0  0  0  0
    5.8364   -4.3468   -0.3955 H   0  0  0  0  0  0  0  0  0  0  0  0
    5.4109   -2.4760   -2.7837 H   0  0  0  0  0  0  0  0  0  0  0  0
    4.2408   -3.6648   -2.2088 H   0  0  0  0  0  0  0  0  0  0  0  0
    5.3033   -1.2878   -0.5911 H   0  0  0  0  0  0  0  0  0  0  0  0
    4.1367   -2.4973   -0.0024 H   0  0  0  0  0  0  0  0  0  0  0  0
    3.6663   -0.9143   -2.4372 H   0  0  0  0  0  0  0  0  0  0  0  0
    2.1756    0.4392   -1.3150 H   0  0  0  0  0  0  0  0  0  0  0  0
    3.8086    0.6845   -0.6994 H   0  0  0  0  0  0  0  0  0  0  0  0
    1.7871   -1.1715    0.6848 H   0  0  0  0  0  0  0  0  0  0  0  0
    4.2867   -0.0186    1.3996 H   0  0  0  0  0  0  0  0  0  0  0  0
    2.3772    1.7676    1.3013 H   0  0  0  0  0  0  0  0  0  0  0  0
    1.4101    0.6627    2.3108 H   0  0  0  0  0  0  0  0  0  0  0  0
    0.8724    2.9536    2.5546 H   0  0  0  0  0  0  0  0  0  0  0  0
   -0.7020    4.7348    3.0971 H   0  0  0  0  0  0  0  0  0  0  0  0
   -2.7822    5.0353    1.7764 H   0  0  0  0  0  0  0  0  0  0  0  0
   -3.2818    3.4977   -0.1027 H   0  0  0  0  0  0  0  0  0  0  0  0
   -0.8139   -0.3377   -1.4471 H   0  0  0  0  0  0  0  0  0  0  0  0
   -1.4477   -0.3282    0.2080 H   0  0  0  0  0  0  0  0  0  0  0  0
   -2.6652   -1.8890   -1.3843 H   0  0  0  0  0  0  0  0  0  0  0  0
   -3.2213   -0.5036   -2.2981 H   0  0  0  0  0  0  0  0  0  0  0  0
   -3.4168   -2.2720    0.9784 H   0  0  0  0  0  0  0  0  0  0  0  0
   -5.2884   -1.9995    2.5674 H   0  0  0  0  0  0  0  0  0  0  0  0
   -7.0064   -0.2501    2.1837 H   0  0  0  0  0  0  0  0  0  0  0  0
   -6.8453    1.2305    0.1961 H   0  0  0  0  0  0  0  0  0  0  0  0
   -4.9826    0.9653   -1.4052 H   0  0  0  0  0  0  0  0  0  0  0  0
  1  2  1  0
  2  3  1  0
  3  4  1  0
  4  5  1  0
  5  6  1  0
  6  7  1  0
  6  8  1  0
  8  9  1  0
  9 10  1  0
 10 11  2  0
 11 12  1  0
 12 13  2  0
 13 14  1  0
 14 15  2  0
 15 16  1  0
 16 17  2  0
 16 18  1  0
 18 19  1  0
 19 20  1  0
 20 21  2  0
 21 22  1  0
 22 23  2  0
 23 24  1  0
 24 25  2  0
 15 10  1  0
 25 20  1  0
  1 26  1  0
  1 27  1  0
  1 28  1  0
  2 29  1  0
  2 30  1  0
  3 31  1  0
  3 32  1  0
  4 33  1  0
  5 34  1  0
  5 35  1  0
  6 36  1  0
  7 37  1  0
  8 38  1  0
  8 39  1  0
 11 40  1  0
 12 41  1  0
 13 42  1  0
 14 43  1  0
 18 44  1  0
 18 45  1  0
 19 46  1  0
 19 47  1  0
 21 48  1  0
 22 49  1  0
 23 50  1  0
 24 51  1  0
 25 52  1  0
M  END
$$$$
