
     RDKit          3D

 39 41  0  0  0  0  0  0  0  0999 V2000
   -1.1277    1.6042   -1.9601 O   0  0  0  0  0  0  0  0  0  0  0  0
   -1.3209    1.6350   -0.5268 S   0  0  0  0  0  6  0  0  0  0  0  0
   -1.2141    2.8626    0.2316 O   0  0  0  0  0  0  0  0  0  0  0  0
   -0.2983    0.4904    0.1411 N   0  0  0  0  0  0  0  0  0  0  0  0
    0.1242    0.6612    1.5447 C   0  0  0  0  0  0  0  0  0  0  0  0
    1.0646   -0.4752    1.9554 C   0  0  0  0  0  0  0  0  0  0  0  0
    2.3521   -0.4303    1.2018 C   0  0  0  0  0  0  0  0  0  0  0  0
    3.6016   -0.0290    1.6296 C   0  0  0  0  0  0  0  0  0  0  0  0
    4.4251   -0.1539    0.5389 N   0  0  0  0  0  0  0  0  0  0  0  0
    5.7828    0.1333    0.4116 C   0  0  0  0  0  0  0  0  0  0  0  0
    6.3856   -0.0731   -0.7712 C   0  0  0  0  0  0  0  0  0  0  0  0
    5.6002   -0.5990   -1.8815 C   0  0  0  0  0  0  0  0  0  0  0  0
    4.2858   -0.8700   -1.7516 C   0  0  0  0  0  0  0  0  0  0  0  0
    3.6397   -0.6412   -0.5026 C   0  0  0  0  0  0  0  0  0  0  0  0
    2.3876   -0.8012   -0.1262 N   0  0  0  0  0  0  0  0  0  0  0  0
   -2.9164    0.9152   -0.1967 C   0  0  0  0  0  0  0  0  0  0  0  0
   -3.6591    1.3494    0.9061 C   0  0  0  0  0  0  0  0  0  0  0  0
   -4.9267    0.8110    1.1317 C   0  0  0  0  0  0  0  0  0  0  0  0
   -5.4414   -0.1424    0.2553 C   0  0  0  0  0  0  0  0  0  0  0  0
   -6.6659   -0.6385    0.4899 F   0  0  0  0  0  0  0  0  0  0  0  0
   -4.7165   -0.5782   -0.8550 C   0  0  0  0  0  0  0  0  0  0  0  0
   -5.3286   -1.5926   -1.7738 C   0  0  0  0  0  0  0  0  0  0  0  0
   -6.4607   -1.1412   -2.3771 F   0  0  0  0  0  0  0  0  0  0  0  0
   -4.4965   -1.9645   -2.7893 F   0  0  0  0  0  0  0  0  0  0  0  0
   -5.6672   -2.7485   -1.1387 F   0  0  0  0  0  0  0  0  0  0  0  0
   -3.4401   -0.0359   -1.0832 C   0  0  0  0  0  0  0  0  0  0  0  0
    0.4433    0.1840   -0.5022 H   0  0  0  0  0  0  0  0  0  0  0  0
    0.6407    1.6196    1.6586 H   0  0  0  0  0  0  0  0  0  0  0  0
   -0.7588    0.6550    2.1919 H   0  0  0  0  0  0  0  0  0  0  0  0
    0.5797   -1.4459    1.7751 H   0  0  0  0  0  0  0  0  0  0  0  0
    1.2654   -0.4111    3.0316 H   0  0  0  0  0  0  0  0  0  0  0  0
    3.9653    0.3278    2.5818 H   0  0  0  0  0  0  0  0  0  0  0  0
    6.2973    0.5222    1.2825 H   0  0  0  0  0  0  0  0  0  0  0  0
    7.4410    0.1374   -0.9242 H   0  0  0  0  0  0  0  0  0  0  0  0
    6.1046   -0.7670   -2.8279 H   0  0  0  0  0  0  0  0  0  0  0  0
    3.7011   -1.2635   -2.5761 H   0  0  0  0  0  0  0  0  0  0  0  0
   -3.2631    2.1028    1.5813 H   0  0  0  0  0  0  0  0  0  0  0  0
   -5.5263    1.1376    1.9768 H   0  0  0  0  0  0  0  0  0  0  0  0
   -2.8594   -0.3464   -1.9533 H   0  0  0  0  0  0  0  0  0  0  0  0
  1  2  2  0
  2  3  2  0
  2  4  1  0
  4  5  1  0
  5  6  1  0
  6  7  1  0
  7  8  2  0
  8  9  1  0
  9 10  1  0
 10 11  2  0
 11 12  1  0
 12 13  2  0
 13 14  1  0
 14 15  2  0
  2 16  1  0
 16 17  2  0
 17 18  1  0
 18 19  2  0
 19 20  1  0
 19 21  1  0
 21 22  1  0
 22 23  1  0
 22 24  1  0
 22 25  1  0
 21 26  2  0
 15  7  1  0
 26 16  1  0
 14  9  1  0
  4 27  1  0
  5 28  1  0
  5 29  1  0
  6 30  1  0
  6 31  1  0
  8 32  1  0
 10 33  1  0
 11 34  1  0
 12 35  1  0
 13 36  1  0
 17 37  1  0
 18 38  1  0
 26 39  1  0
M  END
$$$$
