
     RDKit          3D

 46 48  0  0  0  0  0  0  0  0999 V2000
   -2.7565    1.1091    2.1184 C   0  0  0  0  0  0  0  0  0  0  0  0
   -2.7844    0.7033    0.6566 C   0  0  0  0  0  0  0  0  0  0  0  0
   -2.7286   -0.7856    0.5389 N   0  0  0  0  0  4  0  0  0  0  0  0
   -1.5174   -1.3936    0.3561 C   0  0  0  0  0  0  0  0  0  0  0  0
   -0.2699   -0.6201    0.3761 C   0  0  0  0  0  0  0  0  0  0  0  0
    0.4671   -0.4303   -0.7303 C   0  0  0  0  0  0  0  0  0  0  0  0
    1.7294    0.3233   -0.7628 C   0  0  0  0  0  0  0  0  0  0  0  0
    1.9961    1.4030    0.0787 C   0  0  0  0  0  0  0  0  0  0  0  0
    3.2066    2.1092   -0.0211 C   0  0  0  0  0  0  0  0  0  0  0  0
    4.1999    1.7774   -0.9575 C   0  0  0  0  0  0  0  0  0  0  0  0
    5.3907    2.5006   -1.0632 N   0  0  0  0  0  0  0  0  0  0  0  0
    5.8154    3.3438    0.0545 C   0  0  0  0  0  0  0  0  0  0  0  0
    6.4689    1.9943   -1.9125 C   0  0  0  0  0  0  0  0  0  0  0  0
    3.8938    0.7050   -1.8106 C   0  0  0  0  0  0  0  0  0  0  0  0
    2.6880   -0.0090   -1.7198 C   0  0  0  0  0  0  0  0  0  0  0  0
   -1.4308   -2.7739    0.1740 C   0  0  0  0  0  0  0  0  0  0  0  0
   -2.5755   -3.5476    0.1788 C   0  0  0  0  0  0  0  0  0  0  0  0
   -3.8081   -2.9400    0.3806 C   0  0  0  0  0  0  0  0  0  0  0  0
   -4.9702   -3.7256    0.3992 C   0  0  0  0  0  0  0  0  0  0  0  0
   -6.2170   -3.1443    0.6099 C   0  0  0  0  0  0  0  0  0  0  0  0
   -6.3144   -1.7741    0.8077 C   0  0  0  0  0  0  0  0  0  0  0  0
   -5.1641   -0.9776    0.7900 C   0  0  0  0  0  0  0  0  0  0  0  0
   -3.8864   -1.5317    0.5706 C   0  0  0  0  0  0  0  0  0  0  0  0
   -1.8444    0.7598    2.6115 H   0  0  0  0  0  0  0  0  0  0  0  0
   -3.6055    0.6935    2.6691 H   0  0  0  0  0  0  0  0  0  0  0  0
   -2.7949    2.1990    2.2081 H   0  0  0  0  0  0  0  0  0  0  0  0
   -1.9484    1.1482    0.1101 H   0  0  0  0  0  0  0  0  0  0  0  0
   -3.6782    1.0678    0.1428 H   0  0  0  0  0  0  0  0  0  0  0  0
    0.0347   -0.2294    1.3429 H   0  0  0  0  0  0  0  0  0  0  0  0
    0.1618   -0.8557   -1.6862 H   0  0  0  0  0  0  0  0  0  0  0  0
    1.2761    1.7377    0.8190 H   0  0  0  0  0  0  0  0  0  0  0  0
    3.3434    2.9471    0.6565 H   0  0  0  0  0  0  0  0  0  0  0  0
    5.9229    2.7549    0.9721 H   0  0  0  0  0  0  0  0  0  0  0  0
    5.1079    4.1625    0.2233 H   0  0  0  0  0  0  0  0  0  0  0  0
    6.7822    3.8188   -0.1470 H   0  0  0  0  0  0  0  0  0  0  0  0
    6.8295    1.0245   -1.5525 H   0  0  0  0  0  0  0  0  0  0  0  0
    7.3219    2.6821   -1.9247 H   0  0  0  0  0  0  0  0  0  0  0  0
    6.1433    1.9033   -2.9544 H   0  0  0  0  0  0  0  0  0  0  0  0
    4.5910    0.3897   -2.5816 H   0  0  0  0  0  0  0  0  0  0  0  0
    2.5245   -0.8297   -2.4150 H   0  0  0  0  0  0  0  0  0  0  0  0
   -0.4632   -3.2551    0.0336 H   0  0  0  0  0  0  0  0  0  0  0  0
   -2.4928   -4.6247    0.0346 H   0  0  0  0  0  0  0  0  0  0  0  0
   -4.9198   -4.8047    0.2518 H   0  0  0  0  0  0  0  0  0  0  0  0
   -7.1127   -3.7640    0.6238 H   0  0  0  0  0  0  0  0  0  0  0  0
   -7.2912   -1.3229    0.9793 H   0  0  0  0  0  0  0  0  0  0  0  0
   -5.3206    0.0820    0.9660 H   0  0  0  0  0  0  0  0  0  0  0  0
  1  2  1  0
  2  3  1  0
  3  4  2  0
  4  5  1  0
  5  6  2  3
  6  7  1  0
  7  8  2  0
  8  9  1  0
  9 10  2  0
 10 11  1  0
 11 12  1  0
 11 13  1  0
 10 14  1  0
 14 15  2  0
  4 16  1  0
 16 17  2  0
 17 18  1  0
 18 19  2  0
 19 20  1  0
 20 21  2  0
 21 22  1  0
 22 23  2  0
 23  3  1  0
 15  7  1  0
 23 18  1  0
  1 24  1  0
  1 25  1  0
  1 26  1  0
  2 27  1  0
  2 28  1  0
  5 29  1  0
  6 30  1  0
  8 31  1  0
  9 32  1  0
 12 33  1  0
 12 34  1  0
 12 35  1  0
 13 36  1  0
 13 37  1  0
 13 38  1  0
 14 39  1  0
 15 40  1  0
 16 41  1  0
 17 42  1  0
 19 43  1  0
 20 44  1  0
 21 45  1  0
 22 46  1  0
M  CHG  1   3   1
M  END
$$$$
