
     RDKit          3D

 46 49  0  0  0  0  0  0  0  0999 V2000
    2.1376    2.8970   -1.9817 O   0  0  0  0  0  0  0  0  0  0  0  0
    1.2394    2.1805   -2.4208 C   0  0  0  0  0  0  0  0  0  0  0  0
    0.0620    2.7923   -3.1640 C   0  0  0  0  0  0  0  0  0  0  0  0
   -1.2513    3.2374   -1.9799 S   0  0  0  0  0  0  0  0  0  0  0  0
   -1.8582    1.6632   -1.6238 C   0  0  0  0  0  0  0  0  0  0  0  0
   -1.9697    0.6930   -2.4964 N   0  0  0  0  0  0  0  0  0  0  0  0
   -2.4303   -0.4099   -1.8314 N   0  0  0  0  0  0  0  0  0  0  0  0
   -2.5489   -0.1093   -0.5519 C   0  0  0  0  0  0  0  0  0  0  0  0
   -3.0046   -1.0490    0.5182 C   0  0  0  0  0  0  0  0  0  0  0  0
   -1.9988   -2.1260    0.8189 C   0  0  0  0  0  0  0  0  0  0  0  0
   -0.8870   -2.0682    1.6385 C   0  0  0  0  0  0  0  0  0  0  0  0
   -0.1950   -3.3105    1.7084 C   0  0  0  0  0  0  0  0  0  0  0  0
   -0.7801   -4.2714    0.9176 C   0  0  0  0  0  0  0  0  0  0  0  0
   -2.1716   -3.6844    0.1231 S   0  0  0  0  0  0  0  0  0  0  0  0
   -2.2403    1.2272   -0.3864 N   0  0  0  0  0  0  0  0  0  0  0  0
   -2.3683    2.0157    0.8226 C   0  0  0  0  0  0  0  0  0  0  0  0
   -1.2378    1.8066    1.7586 C   0  0  0  0  0  0  0  0  0  0  0  0
   -1.1723    1.5779    3.1186 C   0  0  0  0  0  0  0  0  0  0  0  0
    0.2049    1.5070    3.4490 C   0  0  0  0  0  0  0  0  0  0  0  0
    0.8914    1.6974    2.2726 C   0  0  0  0  0  0  0  0  0  0  0  0
    0.0231    1.8822    1.2440 O   0  0  0  0  0  0  0  0  0  0  0  0
    1.1624    0.8038   -2.2907 N   0  0  0  0  0  0  0  0  0  0  0  0
    2.0281   -0.0422   -1.5590 C   0  0  0  0  0  0  0  0  0  0  0  0
    3.1566    0.4249   -0.8805 C   0  0  0  0  0  0  0  0  0  0  0  0
    3.9642   -0.4529   -0.1463 C   0  0  0  0  0  0  0  0  0  0  0  0
    3.6474   -1.8065   -0.0894 C   0  0  0  0  0  0  0  0  0  0  0  0
    4.6306   -2.8769    0.8293 Cl  0  0  0  0  0  0  0  0  0  0  0  0
    2.5397   -2.2981   -0.7666 C   0  0  0  0  0  0  0  0  0  0  0  0
    1.7416   -1.4204   -1.5044 C   0  0  0  0  0  0  0  0  0  0  0  0
    0.4153   -2.0976   -2.3810 Cl  0  0  0  0  0  0  0  0  0  0  0  0
    0.4090    3.7027   -3.6625 H   0  0  0  0  0  0  0  0  0  0  0  0
   -0.3050    2.1196   -3.9465 H   0  0  0  0  0  0  0  0  0  0  0  0
   -3.9552   -1.4954    0.1944 H   0  0  0  0  0  0  0  0  0  0  0  0
   -3.2359   -0.5159    1.4479 H   0  0  0  0  0  0  0  0  0  0  0  0
   -0.5815   -1.1795    2.1766 H   0  0  0  0  0  0  0  0  0  0  0  0
    0.6933   -3.4870    2.3027 H   0  0  0  0  0  0  0  0  0  0  0  0
   -0.4609   -5.2937    0.7698 H   0  0  0  0  0  0  0  0  0  0  0  0
   -2.4457    3.0733    0.5612 H   0  0  0  0  0  0  0  0  0  0  0  0
   -3.3197    1.7428    1.2899 H   0  0  0  0  0  0  0  0  0  0  0  0
   -2.0105    1.4831    3.7956 H   0  0  0  0  0  0  0  0  0  0  0  0
    0.6359    1.3443    4.4263 H   0  0  0  0  0  0  0  0  0  0  0  0
    1.9404    1.7326    2.0017 H   0  0  0  0  0  0  0  0  0  0  0  0
    0.3323    0.3408   -2.6686 H   0  0  0  0  0  0  0  0  0  0  0  0
    3.4428    1.4709   -0.8968 H   0  0  0  0  0  0  0  0  0  0  0  0
    4.8344   -0.0662    0.3796 H   0  0  0  0  0  0  0  0  0  0  0  0
    2.2961   -3.3550   -0.7269 H   0  0  0  0  0  0  0  0  0  0  0  0
  1  2  2  0
  2  3  1  0
  3  4  1  0
  4  5  1  0
  5  6  2  0
  6  7  1  0
  7  8  2  0
  8  9  1  0
  9 10  1  0
 10 11  2  0
 11 12  1  0
 12 13  2  0
 13 14  1  0
  8 15  1  0
 15 16  1  0
 16 17  1  0
 17 18  2  0
 18 19  1  0
 19 20  2  0
 20 21  1  0
  2 22  1  0
 22 23  1  0
 23 24  2  0
 24 25  1  0
 25 26  2  0
 26 27  1  0
 26 28  1  0
 28 29  2  0
 29 30  1  0
 15  5  1  0
 21 17  1  0
 29 23  1  0
 14 10  1  0
  3 31  1  0
  3 32  1  0
  9 33  1  0
  9 34  1  0
 11 35  1  0
 12 36  1  0
 13 37  1  0
 16 38  1  0
 16 39  1  0
 18 40  1  0
 19 41  1  0
 20 42  1  0
 22 43  1  0
 24 44  1  0
 25 45  1  0
 28 46  1  0
M  END
$$$$
