
     RDKit          3D

 40 41  0  0  0  0  0  0  0  0999 V2000
   -6.8267   -1.1494   -0.4536 C   0  0  0  0  0  0  0  0  0  0  0  0
   -5.3564   -0.8494   -0.4329 C   0  0  0  0  0  0  0  0  0  0  0  0
   -4.4480   -1.7164   -1.0303 C   0  0  0  0  0  0  0  0  0  0  0  0
   -3.0957   -1.3994   -1.0264 C   0  0  0  0  0  0  0  0  0  0  0  0
   -2.6543   -0.2122   -0.4311 C   0  0  0  0  0  0  0  0  0  0  0  0
   -1.2308    0.1361   -0.4517 C   0  0  0  0  0  0  0  0  0  0  0  0
   -0.3023   -0.6103    0.1675 C   0  0  0  0  0  0  0  0  0  0  0  0
    1.1350   -0.3061    0.1435 C   0  0  0  0  0  0  0  0  0  0  0  0
    2.0481   -1.3589    0.1108 C   0  0  0  0  0  0  0  0  0  0  0  0
    3.4303   -1.1116    0.1052 C   0  0  0  0  0  0  0  0  0  0  0  0
    3.9636    0.1869    0.1540 C   0  0  0  0  0  0  0  0  0  0  0  0
    5.3386    0.4305    0.1238 N   0  0  0  0  0  0  0  0  0  0  0  0
    6.2729   -0.6803    0.3057 C   0  0  0  0  0  0  0  0  0  0  0  0
    5.8437    1.7477    0.5099 C   0  0  0  0  0  0  0  0  0  0  0  0
    3.0213    1.2284    0.1934 C   0  0  0  0  0  0  0  0  0  0  0  0
    1.6363    0.9938    0.1974 C   0  0  0  0  0  0  0  0  0  0  0  0
   -3.5584    0.6319    0.1362 N   0  0  0  0  0  4  0  0  0  0  0  0
   -3.1158    1.8807    0.7887 C   0  0  0  0  0  0  0  0  0  0  0  0
   -4.8798    0.3313    0.1346 C   0  0  0  0  0  0  0  0  0  0  0  0
   -7.2790   -0.7412   -1.3626 H   0  0  0  0  0  0  0  0  0  0  0  0
   -7.3263   -0.7126    0.4175 H   0  0  0  0  0  0  0  0  0  0  0  0
   -7.0049   -2.2295   -0.4227 H   0  0  0  0  0  0  0  0  0  0  0  0
   -4.7846   -2.6389   -1.5033 H   0  0  0  0  0  0  0  0  0  0  0  0
   -2.3868   -2.0770   -1.5005 H   0  0  0  0  0  0  0  0  0  0  0  0
   -0.9611    1.0233   -1.0187 H   0  0  0  0  0  0  0  0  0  0  0  0
   -0.5724   -1.5163    0.7091 H   0  0  0  0  0  0  0  0  0  0  0  0
    1.7099   -2.3922    0.0746 H   0  0  0  0  0  0  0  0  0  0  0  0
    4.0814   -1.9800    0.0601 H   0  0  0  0  0  0  0  0  0  0  0  0
    7.3128   -0.3432    0.2298 H   0  0  0  0  0  0  0  0  0  0  0  0
    6.1456   -1.1425    1.2908 H   0  0  0  0  0  0  0  0  0  0  0  0
    6.1457   -1.4371   -0.4759 H   0  0  0  0  0  0  0  0  0  0  0  0
    6.9377    1.7873    0.4616 H   0  0  0  0  0  0  0  0  0  0  0  0
    5.4846    2.5246   -0.1735 H   0  0  0  0  0  0  0  0  0  0  0  0
    5.5500    1.9954    1.5359 H   0  0  0  0  0  0  0  0  0  0  0  0
    3.3436    2.2654    0.2187 H   0  0  0  0  0  0  0  0  0  0  0  0
    0.9755    1.8537    0.2483 H   0  0  0  0  0  0  0  0  0  0  0  0
   -3.9686    2.3877    1.2471 H   0  0  0  0  0  0  0  0  0  0  0  0
   -2.3912    1.6259    1.5665 H   0  0  0  0  0  0  0  0  0  0  0  0
   -2.6781    2.5272    0.0236 H   0  0  0  0  0  0  0  0  0  0  0  0
   -5.5551    1.0468    0.5970 H   0  0  0  0  0  0  0  0  0  0  0  0
  1  2  1  0
  2  3  2  0
  3  4  1  0
  4  5  2  0
  5  6  1  0
  6  7  2  3
  7  8  1  0
  8  9  2  0
  9 10  1  0
 10 11  2  0
 11 12  1  0
 12 13  1  0
 12 14  1  0
 11 15  1  0
 15 16  2  0
  5 17  1  0
 17 18  1  0
 17 19  2  0
 19  2  1  0
 16  8  1  0
  1 20  1  0
  1 21  1  0
  1 22  1  0
  3 23  1  0
  4 24  1  0
  6 25  1  0
  7 26  1  0
  9 27  1  0
 10 28  1  0
 13 29  1  0
 13 30  1  0
 13 31  1  0
 14 32  1  0
 14 33  1  0
 14 34  1  0
 15 35  1  0
 16 36  1  0
 18 37  1  0
 18 38  1  0
 18 39  1  0
 19 40  1  0
M  CHG  1  17   1
M  END
$$$$
