
     RDKit          3D

 31 33  0  0  0  0  0  0  0  0999 V2000
    1.8490    1.9115   -2.2109 O   0  0  0  0  0  0  0  0  0  0  0  0
    1.0862    0.7069   -1.9419 S   0  0  0  0  0  6  0  0  0  0  0  0
    0.8959   -0.2811   -2.9843 O   0  0  0  0  0  0  0  0  0  0  0  0
    1.8794   -0.1185   -0.5710 C   0  0  0  0  0  0  0  0  0  0  0  0
    1.6477   -1.4801   -0.3537 C   0  0  0  0  0  0  0  0  0  0  0  0
    2.2901   -2.1288    0.7011 C   0  0  0  0  0  0  0  0  0  0  0  0
    3.1738   -1.4248    1.5203 C   0  0  0  0  0  0  0  0  0  0  0  0
    3.4271   -0.0732    1.2827 C   0  0  0  0  0  0  0  0  0  0  0  0
    2.7873    0.5824    0.2305 C   0  0  0  0  0  0  0  0  0  0  0  0
   -0.4142    1.1880   -1.3163 N   0  0  0  0  0  0  0  0  0  0  0  0
   -0.4084    2.2895   -0.3067 C   0  0  0  0  0  0  0  0  0  0  0  0
   -1.6360    2.0646    0.5927 C   0  0  0  0  0  0  0  0  0  0  0  0
   -2.0890    0.6962    0.2010 C   0  0  0  0  0  0  0  0  0  0  0  0
   -3.1164   -0.0435    0.7677 C   0  0  0  0  0  0  0  0  0  0  0  0
   -3.4425   -1.2725    0.1930 C   0  0  0  0  0  0  0  0  0  0  0  0
   -2.7617   -1.7275   -0.9453 C   0  0  0  0  0  0  0  0  0  0  0  0
   -1.7329   -0.9679   -1.5104 C   0  0  0  0  0  0  0  0  0  0  0  0
   -1.3780    0.2217   -0.8992 C   0  0  0  0  0  0  0  0  0  0  0  0
    0.9787   -2.0421   -1.0003 H   0  0  0  0  0  0  0  0  0  0  0  0
    2.1091   -3.1862    0.8791 H   0  0  0  0  0  0  0  0  0  0  0  0
    3.6774   -1.9352    2.3381 H   0  0  0  0  0  0  0  0  0  0  0  0
    4.1315    0.4658    1.9118 H   0  0  0  0  0  0  0  0  0  0  0  0
    3.0062    1.6306    0.0396 H   0  0  0  0  0  0  0  0  0  0  0  0
   -0.4624    3.2612   -0.8080 H   0  0  0  0  0  0  0  0  0  0  0  0
    0.4964    2.2705    0.3078 H   0  0  0  0  0  0  0  0  0  0  0  0
   -1.3673    2.1206    1.6518 H   0  0  0  0  0  0  0  0  0  0  0  0
   -2.4164    2.8008    0.3738 H   0  0  0  0  0  0  0  0  0  0  0  0
   -3.6686    0.3275    1.6255 H   0  0  0  0  0  0  0  0  0  0  0  0
   -4.2473   -1.8710    0.6140 H   0  0  0  0  0  0  0  0  0  0  0  0
   -3.0481   -2.6713   -1.4039 H   0  0  0  0  0  0  0  0  0  0  0  0
   -1.2469   -1.3141   -2.4160 H   0  0  0  0  0  0  0  0  0  0  0  0
  1  2  2  0
  2  3  2  0
  2  4  1  0
  4  5  2  0
  5  6  1  0
  6  7  2  0
  7  8  1  0
  8  9  2  0
  2 10  1  0
 10 11  1  0
 11 12  1  0
 12 13  1  0
 13 14  2  0
 14 15  1  0
 15 16  2  0
 16 17  1  0
 17 18  2  0
  9  4  1  0
 18 10  1  0
 18 13  1  0
  5 19  1  0
  6 20  1  0
  7 21  1  0
  8 22  1  0
  9 23  1  0
 11 24  1  0
 11 25  1  0
 12 26  1  0
 12 27  1  0
 14 28  1  0
 15 29  1  0
 16 30  1  0
 17 31  1  0
M  END
$$$$
