
     RDKit          3D

 36 37  0  0  0  0  0  0  0  0999 V2000
    4.3598    1.6080    0.9288 C   0  0  0  0  0  0  0  0  0  0  0  0
    4.7013    0.4455    0.0929 N   0  0  0  0  0  0  0  0  0  0  0  0
    4.9125   -0.7887    0.8677 C   0  0  0  0  0  0  0  0  0  0  0  0
    3.8907    0.2971   -1.3950 S   0  0  0  0  0  6  0  0  0  0  0  0
    4.4175   -0.8587   -2.0890 O   0  0  0  0  0  0  0  0  0  0  0  0
    3.8595    1.5995   -2.0267 O   0  0  0  0  0  0  0  0  0  0  0  0
    2.2196   -0.0935   -0.9069 C   0  0  0  0  0  0  0  0  0  0  0  0
    1.2861    0.9360   -0.7488 C   0  0  0  0  0  0  0  0  0  0  0  0
   -0.0309    0.6281   -0.3945 C   0  0  0  0  0  0  0  0  0  0  0  0
   -0.4188   -0.7078   -0.2103 C   0  0  0  0  0  0  0  0  0  0  0  0
   -1.8052   -1.0920    0.1724 C   0  0  0  0  0  0  0  0  0  0  0  0
   -2.1448   -2.2397    0.4095 O   0  0  0  0  0  0  0  0  0  0  0  0
   -2.6070    0.0004    0.2399 O   0  0  0  0  0  0  0  0  0  0  0  0
   -3.9765   -0.2995    0.4638 C   0  0  0  0  0  0  0  0  0  0  0  0
   -4.7080    0.9368    0.9325 C   0  0  0  0  0  0  0  0  0  0  0  0
   -6.1319    0.6066    0.5674 C   0  0  0  0  0  0  0  0  0  0  0  0
   -6.0470   -0.1324   -0.6522 O   0  0  0  0  0  0  0  0  0  0  0  0
   -4.7757   -0.6296   -0.7865 C   0  0  0  0  0  0  0  0  0  0  0  0
   -4.3787   -1.2232   -1.7755 O   0  0  0  0  0  0  0  0  0  0  0  0
    0.5222   -1.7326   -0.3951 C   0  0  0  0  0  0  0  0  0  0  0  0
    1.8386   -1.4293   -0.7521 C   0  0  0  0  0  0  0  0  0  0  0  0
    3.4056    1.4572    1.4413 H   0  0  0  0  0  0  0  0  0  0  0  0
    4.3141    2.5246    0.3345 H   0  0  0  0  0  0  0  0  0  0  0  0
    5.1380    1.7592    1.6841 H   0  0  0  0  0  0  0  0  0  0  0  0
    3.9981   -1.0885    1.3871 H   0  0  0  0  0  0  0  0  0  0  0  0
    5.6962   -0.6235    1.6145 H   0  0  0  0  0  0  0  0  0  0  0  0
    5.2537   -1.6066    0.2275 H   0  0  0  0  0  0  0  0  0  0  0  0
    1.5722    1.9740   -0.9082 H   0  0  0  0  0  0  0  0  0  0  0  0
   -0.7448    1.4398   -0.2762 H   0  0  0  0  0  0  0  0  0  0  0  0
   -4.1096   -1.1073    1.1951 H   0  0  0  0  0  0  0  0  0  0  0  0
   -4.3602    1.8200    0.3816 H   0  0  0  0  0  0  0  0  0  0  0  0
   -4.5732    1.1417    1.9984 H   0  0  0  0  0  0  0  0  0  0  0  0
   -6.7320    1.5075    0.4107 H   0  0  0  0  0  0  0  0  0  0  0  0
   -6.6209   -0.0193    1.3215 H   0  0  0  0  0  0  0  0  0  0  0  0
    0.2278   -2.7747   -0.2749 H   0  0  0  0  0  0  0  0  0  0  0  0
    2.5517   -2.2351   -0.9147 H   0  0  0  0  0  0  0  0  0  0  0  0
  1  2  1  0
  2  3  1  0
  2  4  1  0
  4  5  2  0
  4  6  2  0
  4  7  1  0
  7  8  2  0
  8  9  1  0
  9 10  2  0
 10 11  1  0
 11 12  2  0
 11 13  1  0
 13 14  1  0
 14 15  1  0
 15 16  1  0
 16 17  1  0
 17 18  1  0
 18 19  2  0
 10 20  1  0
 20 21  2  0
 21  7  1  0
 18 14  1  0
  1 22  1  0
  1 23  1  0
  1 24  1  0
  3 25  1  0
  3 26  1  0
  3 27  1  0
  8 28  1  0
  9 29  1  0
 14 30  1  0
 15 31  1  0
 15 32  1  0
 16 33  1  0
 16 34  1  0
 20 35  1  0
 21 36  1  0
M  END
$$$$
