
     RDKit          3D

 43 45  0  0  0  0  0  0  0  0999 V2000
   -7.3577    1.3529    1.2523 C   0  0  0  0  0  0  0  0  0  0  0  0
   -6.0307    0.8034    1.0359 N   0  0  0  0  0  0  0  0  0  0  0  0
   -5.8631   -0.6090    1.3504 C   0  0  0  0  0  0  0  0  0  0  0  0
   -4.9868    1.6861    0.7655 C   0  0  0  0  0  0  0  0  0  0  0  0
   -5.0999    2.9088    0.8252 O   0  0  0  0  0  0  0  0  0  0  0  0
   -3.6669    1.1443    0.3662 C   0  0  0  0  0  0  0  0  0  0  0  0
   -3.5523    0.2271   -0.6818 C   0  0  0  0  0  0  0  0  0  0  0  0
   -2.2916   -0.2473   -1.0625 C   0  0  0  0  0  0  0  0  0  0  0  0
   -1.1389    0.2041   -0.4143 C   0  0  0  0  0  0  0  0  0  0  0  0
    0.1625   -0.2193   -0.7388 N   0  0  0  0  0  0  0  0  0  0  0  0
    0.5558   -1.1440   -1.6903 C   0  0  0  0  0  0  0  0  0  0  0  0
   -0.1971   -1.7800   -2.4203 O   0  0  0  0  0  0  0  0  0  0  0  0
    1.9984   -1.3048   -1.7463 C   0  0  0  0  0  0  0  0  0  0  0  0
    2.7925   -2.1063   -2.5407 C   0  0  0  0  0  0  0  0  0  0  0  0
    4.1331   -1.8507   -2.1646 C   0  0  0  0  0  0  0  0  0  0  0  0
    4.0944   -0.9063   -1.1566 C   0  0  0  0  0  0  0  0  0  0  0  0
    5.1098   -0.2262   -0.3538 C   0  0  0  0  0  0  0  0  0  0  0  0
    4.7553    0.6965    0.6443 C   0  0  0  0  0  0  0  0  0  0  0  0
    5.7328    1.3449    1.4074 C   0  0  0  0  0  0  0  0  0  0  0  0
    7.0788    1.0761    1.1796 C   0  0  0  0  0  0  0  0  0  0  0  0
    8.2821    1.8716    2.1158 Cl  0  0  0  0  0  0  0  0  0  0  0  0
    7.4545    0.1654    0.1965 C   0  0  0  0  0  0  0  0  0  0  0  0
    6.4744   -0.4811   -0.5654 C   0  0  0  0  0  0  0  0  0  0  0  0
    2.7921   -0.5735   -0.9000 O   0  0  0  0  0  0  0  0  0  0  0  0
   -1.2629    1.1461    0.6170 C   0  0  0  0  0  0  0  0  0  0  0  0
   -2.5197    1.6211    1.0028 C   0  0  0  0  0  0  0  0  0  0  0  0
   -7.4486    2.3625    0.8423 H   0  0  0  0  0  0  0  0  0  0  0  0
   -8.0946    0.7078    0.7648 H   0  0  0  0  0  0  0  0  0  0  0  0
   -7.5528    1.3866    2.3283 H   0  0  0  0  0  0  0  0  0  0  0  0
   -6.3412   -1.1993    0.5637 H   0  0  0  0  0  0  0  0  0  0  0  0
   -4.8149   -0.8967    1.4432 H   0  0  0  0  0  0  0  0  0  0  0  0
   -6.3528   -0.8183    2.3067 H   0  0  0  0  0  0  0  0  0  0  0  0
   -4.4360   -0.1124   -1.2161 H   0  0  0  0  0  0  0  0  0  0  0  0
   -2.2465   -0.9592   -1.8808 H   0  0  0  0  0  0  0  0  0  0  0  0
    0.9270    0.1966   -0.2179 H   0  0  0  0  0  0  0  0  0  0  0  0
    2.4343   -2.7892   -3.2997 H   0  0  0  0  0  0  0  0  0  0  0  0
    5.0194   -2.3059   -2.5837 H   0  0  0  0  0  0  0  0  0  0  0  0
    3.7101    0.9232    0.8411 H   0  0  0  0  0  0  0  0  0  0  0  0
    5.4346    2.0552    2.1743 H   0  0  0  0  0  0  0  0  0  0  0  0
    8.5050   -0.0465    0.0150 H   0  0  0  0  0  0  0  0  0  0  0  0
    6.7971   -1.1862   -1.3281 H   0  0  0  0  0  0  0  0  0  0  0  0
   -0.3848    1.5296    1.1305 H   0  0  0  0  0  0  0  0  0  0  0  0
   -2.6042    2.3643    1.7926 H   0  0  0  0  0  0  0  0  0  0  0  0
  1  2  1  0
  2  3  1  0
  2  4  1  0
  4  5  2  0
  4  6  1  0
  6  7  2  0
  7  8  1  0
  8  9  2  0
  9 10  1  0
 10 11  1  0
 11 12  2  0
 11 13  1  0
 13 14  2  0
 14 15  1  0
 15 16  2  0
 16 17  1  0
 17 18  2  0
 18 19  1  0
 19 20  2  0
 20 21  1  0
 20 22  1  0
 22 23  2  0
 16 24  1  0
  9 25  1  0
 25 26  2  0
 26  6  1  0
 24 13  1  0
 23 17  1  0
  1 27  1  0
  1 28  1  0
  1 29  1  0
  3 30  1  0
  3 31  1  0
  3 32  1  0
  7 33  1  0
  8 34  1  0
 10 35  1  0
 14 36  1  0
 15 37  1  0
 18 38  1  0
 19 39  1  0
 22 40  1  0
 23 41  1  0
 25 42  1  0
 26 43  1  0
M  END
$$$$
