
     RDKit          3D

 59 62  0  0  0  0  0  0  0  0999 V2000
    3.9921   -4.6990   -0.9281 C   0  0  0  0  0  0  0  0  0  0  0  0
    2.9874   -3.8863   -0.1313 C   0  0  0  0  0  0  0  0  0  0  0  0
    3.5591   -2.6476    0.2884 O   0  0  0  0  0  0  0  0  0  0  0  0
    3.4783   -1.6044   -0.6810 C   0  0  0  0  0  0  0  0  0  0  0  0
    2.1503   -0.8645   -0.5733 C   0  0  0  0  0  0  0  0  0  0  0  0
    1.9695   -0.2366    0.8111 C   0  0  0  0  0  0  0  0  0  0  0  0
    0.6309    0.3767    0.9205 N   0  0  0  0  0  0  0  0  0  0  0  0
   -0.4833   -0.3941    1.3032 C   0  0  0  0  0  0  0  0  0  0  0  0
   -0.4375   -1.6708    1.5317 N   0  0  0  0  0  0  0  0  0  0  0  0
   -1.8144    0.2668    1.4495 C   0  0  0  0  0  0  0  0  0  0  0  0
   -3.2292   -0.5569    2.0053 S   0  0  0  0  0  6  0  0  0  0  0  0
   -4.4001    0.2826    1.7871 O   0  0  0  0  0  0  0  0  0  0  0  0
   -3.0076   -1.0989    3.3355 O   0  0  0  0  0  0  0  0  0  0  0  0
   -3.4314   -1.9207    0.8735 C   0  0  0  0  0  0  0  0  0  0  0  0
   -3.8906   -1.6667   -0.4229 C   0  0  0  0  0  0  0  0  0  0  0  0
   -4.0857   -2.7311   -1.3046 C   0  0  0  0  0  0  0  0  0  0  0  0
   -3.8251   -4.0471   -0.8982 C   0  0  0  0  0  0  0  0  0  0  0  0
   -4.0707   -5.1926   -1.8360 C   0  0  0  0  0  0  0  0  0  0  0  0
   -3.3952   -4.2884    0.4140 C   0  0  0  0  0  0  0  0  0  0  0  0
   -3.1997   -3.2291    1.3019 C   0  0  0  0  0  0  0  0  0  0  0  0
   -1.8800    1.5768    1.1610 C   0  0  0  0  0  0  0  0  0  0  0  0
   -0.7259    2.3288    0.6959 C   0  0  0  0  0  0  0  0  0  0  0  0
   -0.8839    3.7681    0.3399 C   0  0  0  0  0  0  0  0  0  0  0  0
   -1.9916    4.3020    0.4254 O   0  0  0  0  0  0  0  0  0  0  0  0
    0.2613    4.4196   -0.0815 N   0  0  0  0  0  0  0  0  0  0  0  0
    0.1966    5.7672   -0.4225 C   0  0  0  0  0  0  0  0  0  0  0  0
    1.2724    6.4497   -0.8456 C   0  0  0  0  0  0  0  0  0  0  0  0
    1.2308    7.9001   -1.2175 C   0  0  0  0  0  0  0  0  0  0  0  0
    2.5401    5.7632   -0.9520 C   0  0  0  0  0  0  0  0  0  0  0  0
    2.6444    4.4673   -0.6350 C   0  0  0  0  0  0  0  0  0  0  0  0
    1.4469    3.7177   -0.1659 C   0  0  0  0  0  0  0  0  0  0  0  0
    1.5798    2.4652    0.1318 N   0  0  0  0  0  0  0  0  0  0  0  0
    0.4911    1.7503    0.5791 C   0  0  0  0  0  0  0  0  0  0  0  0
    4.2665   -4.1924   -1.8581 H   0  0  0  0  0  0  0  0  0  0  0  0
    4.9153   -4.8366   -0.3556 H   0  0  0  0  0  0  0  0  0  0  0  0
    3.5822   -5.6819   -1.1780 H   0  0  0  0  0  0  0  0  0  0  0  0
    2.0650   -3.7280   -0.6997 H   0  0  0  0  0  0  0  0  0  0  0  0
    2.7230   -4.4394    0.7759 H   0  0  0  0  0  0  0  0  0  0  0  0
    4.3012   -0.9102   -0.4787 H   0  0  0  0  0  0  0  0  0  0  0  0
    3.6250   -1.9932   -1.6943 H   0  0  0  0  0  0  0  0  0  0  0  0
    2.1073   -0.0864   -1.3445 H   0  0  0  0  0  0  0  0  0  0  0  0
    1.3233   -1.5542   -0.7750 H   0  0  0  0  0  0  0  0  0  0  0  0
    2.7603    0.5035    0.9879 H   0  0  0  0  0  0  0  0  0  0  0  0
    2.1137   -0.9723    1.6104 H   0  0  0  0  0  0  0  0  0  0  0  0
    0.4987   -2.0547    1.4108 H   0  0  0  0  0  0  0  0  0  0  0  0
   -4.1139   -0.6529   -0.7464 H   0  0  0  0  0  0  0  0  0  0  0  0
   -4.4515   -2.5300   -2.3093 H   0  0  0  0  0  0  0  0  0  0  0  0
   -3.3905   -6.0240   -1.6232 H   0  0  0  0  0  0  0  0  0  0  0  0
   -5.1022   -5.5439   -1.7353 H   0  0  0  0  0  0  0  0  0  0  0  0
   -3.8988   -4.8906   -2.8745 H   0  0  0  0  0  0  0  0  0  0  0  0
   -3.2107   -5.3050    0.7548 H   0  0  0  0  0  0  0  0  0  0  0  0
   -2.8574   -3.4286    2.3150 H   0  0  0  0  0  0  0  0  0  0  0  0
   -2.8138    2.1270    1.2665 H   0  0  0  0  0  0  0  0  0  0  0  0
   -0.7760    6.2455   -0.3283 H   0  0  0  0  0  0  0  0  0  0  0  0
    0.2266    8.3218   -1.1007 H   0  0  0  0  0  0  0  0  0  0  0  0
    1.9097    8.4798   -0.5829 H   0  0  0  0  0  0  0  0  0  0  0  0
    1.5289    8.0383   -2.2623 H   0  0  0  0  0  0  0  0  0  0  0  0
    3.4101    6.3167   -1.2930 H   0  0  0  0  0  0  0  0  0  0  0  0
    3.5789    3.9245   -0.7018 H   0  0  0  0  0  0  0  0  0  0  0  0
  1  2  1  0
  2  3  1  0
  3  4  1  0
  4  5  1  0
  5  6  1  0
  6  7  1  0
  7  8  1  0
  8  9  2  3
  8 10  1  0
 10 11  1  0
 11 12  2  0
 11 13  2  0
 11 14  1  0
 14 15  2  0
 15 16  1  0
 16 17  2  0
 17 18  1  0
 17 19  1  0
 19 20  2  0
 10 21  2  0
 21 22  1  0
 22 23  1  0
 23 24  2  0
 23 25  1  0
 25 26  1  0
 26 27  2  0
 27 28  1  0
 27 29  1  0
 29 30  2  0
 30 31  1  0
 31 32  2  0
 32 33  1  0
 33  7  1  0
 20 14  1  0
 33 22  2  0
 31 25  1  0
  1 34  1  0
  1 35  1  0
  1 36  1  0
  2 37  1  0
  2 38  1  0
  4 39  1  0
  4 40  1  0
  5 41  1  0
  5 42  1  0
  6 43  1  0
  6 44  1  0
  9 45  1  0
 15 46  1  0
 16 47  1  0
 18 48  1  0
 18 49  1  0
 18 50  1  0
 19 51  1  0
 20 52  1  0
 21 53  1  0
 26 54  1  0
 28 55  1  0
 28 56  1  0
 28 57  1  0
 29 58  1  0
 30 59  1  0
M  END
$$$$
