
     RDKit          3D

 47 51  0  0  0  0  0  0  0  0999 V2000
   -2.0145   -3.0389   -2.0784 C   0  0  0  0  0  0  0  0  0  0  0  0
   -2.2951   -1.7357   -1.3967 C   0  0  0  0  0  0  0  0  0  0  0  0
   -3.5371   -1.3708   -1.2106 N   0  0  0  0  0  0  0  0  0  0  0  0
   -3.7557   -0.1709   -0.5917 C   0  0  0  0  0  0  0  0  0  0  0  0
   -5.3274    0.4409   -0.3153 S   0  0  0  0  0  0  0  0  0  0  0  0
   -4.7167    1.8518    0.4292 C   0  0  0  0  0  0  0  0  0  0  0  0
   -3.3350    1.8763    0.4912 C   0  0  0  0  0  0  0  0  0  0  0  0
   -2.8124    0.7154   -0.1176 C   0  0  0  0  0  0  0  0  0  0  0  0
   -1.3754    0.2487   -0.3664 C   0  0  0  0  0  0  0  0  0  0  0  0
   -0.2389    0.8320   -0.0895 N   0  0  0  0  0  0  0  0  0  0  0  0
    0.7518   -0.0000   -0.5505 N   0  0  0  0  0  0  0  0  0  0  0  0
    0.1858   -1.0658   -1.0769 C   0  0  0  0  0  0  0  0  0  0  0  0
    1.0876   -2.3921   -1.7203 S   0  0  0  0  0  0  0  0  0  0  0  0
    2.2171   -1.5234   -2.8514 C   0  0  0  0  0  0  0  0  0  0  0  0
    3.3372   -0.7510   -2.1730 C   0  0  0  0  0  0  0  0  0  0  0  0
    3.8539    0.2183   -2.7276 O   0  0  0  0  0  0  0  0  0  0  0  0
    3.8124   -1.2749   -0.9948 N   0  0  0  0  0  0  0  0  0  0  0  0
    4.7783   -0.5524   -0.2026 C   0  0  0  0  0  0  0  0  0  0  0  0
    5.4242   -1.5111    0.7213 C   0  0  0  0  0  0  0  0  0  0  0  0
    6.6496   -2.1431    0.7240 C   0  0  0  0  0  0  0  0  0  0  0  0
    6.6746   -2.9581    1.8787 C   0  0  0  0  0  0  0  0  0  0  0  0
    5.4612   -2.7807    2.5001 C   0  0  0  0  0  0  0  0  0  0  0  0
    4.6924   -1.9087    1.8023 O   0  0  0  0  0  0  0  0  0  0  0  0
   -1.1855   -0.9630   -0.9972 N   0  0  0  0  0  0  0  0  0  0  0  0
   -2.5779    3.0149    1.1022 C   0  0  0  0  0  0  0  0  0  0  0  0
   -3.4894    3.8928    1.9775 C   0  0  0  0  0  0  0  0  0  0  0  0
   -4.8282    4.1918    1.2848 C   0  0  0  0  0  0  0  0  0  0  0  0
   -5.6201    2.9081    0.9855 C   0  0  0  0  0  0  0  0  0  0  0  0
   -1.4699   -3.7116   -1.4114 H   0  0  0  0  0  0  0  0  0  0  0  0
   -1.4631   -2.8733   -3.0072 H   0  0  0  0  0  0  0  0  0  0  0  0
   -2.9585   -3.5292   -2.3416 H   0  0  0  0  0  0  0  0  0  0  0  0
    1.6405   -0.8375   -3.4816 H   0  0  0  0  0  0  0  0  0  0  0  0
    2.6810   -2.2749   -3.5002 H   0  0  0  0  0  0  0  0  0  0  0  0
    3.1993   -1.9002   -0.4860 H   0  0  0  0  0  0  0  0  0  0  0  0
    4.2493    0.2269    0.3502 H   0  0  0  0  0  0  0  0  0  0  0  0
    5.5150   -0.0746   -0.8546 H   0  0  0  0  0  0  0  0  0  0  0  0
    7.4249   -2.0282   -0.0193 H   0  0  0  0  0  0  0  0  0  0  0  0
    7.4759   -3.5997    2.2140 H   0  0  0  0  0  0  0  0  0  0  0  0
    5.0152   -3.1827    3.3958 H   0  0  0  0  0  0  0  0  0  0  0  0
   -2.1477    3.6240    0.2963 H   0  0  0  0  0  0  0  0  0  0  0  0
   -1.7465    2.6413    1.7133 H   0  0  0  0  0  0  0  0  0  0  0  0
   -3.6873    3.3831    2.9305 H   0  0  0  0  0  0  0  0  0  0  0  0
   -2.9726    4.8287    2.2192 H   0  0  0  0  0  0  0  0  0  0  0  0
   -4.6313    4.7332    0.3494 H   0  0  0  0  0  0  0  0  0  0  0  0
   -5.4359    4.8521    1.9148 H   0  0  0  0  0  0  0  0  0  0  0  0
   -6.0686    2.5387    1.9148 H   0  0  0  0  0  0  0  0  0  0  0  0
   -6.4365    3.1332    0.2913 H   0  0  0  0  0  0  0  0  0  0  0  0
  1  2  1  0
  2  3  2  0
  3  4  1  0
  4  5  1  0
  5  6  1  0
  6  7  2  0
  7  8  1  0
  8  9  1  0
  9 10  2  0
 10 11  1  0
 11 12  2  0
 12 13  1  0
 13 14  1  0
 14 15  1  0
 15 16  2  0
 15 17  1  0
 17 18  1  0
 18 19  1  0
 19 20  2  0
 20 21  1  0
 21 22  2  0
 22 23  1  0
 12 24  1  0
  7 25  1  0
 25 26  1  0
 26 27  1  0
 27 28  1  0
 24  2  1  0
  8  4  2  0
 24  9  1  0
 28  6  1  0
 23 19  1  0
  1 29  1  0
  1 30  1  0
  1 31  1  0
 14 32  1  0
 14 33  1  0
 17 34  1  0
 18 35  1  0
 18 36  1  0
 20 37  1  0
 21 38  1  0
 22 39  1  0
 25 40  1  0
 25 41  1  0
 26 42  1  0
 26 43  1  0
 27 44  1  0
 27 45  1  0
 28 46  1  0
 28 47  1  0
M  END
$$$$
