
     RDKit          3D

 49 51  0  0  0  0  0  0  0  0999 V2000
    4.0502    5.0429    0.7158 C   0  0  0  0  0  0  0  0  0  0  0  0
    4.3098    4.0650   -0.2809 O   0  0  0  0  0  0  0  0  0  0  0  0
    3.2395    3.3692   -0.7869 C   0  0  0  0  0  0  0  0  0  0  0  0
    1.9230    3.5036   -0.3276 C   0  0  0  0  0  0  0  0  0  0  0  0
    0.8965    2.7488   -0.8973 C   0  0  0  0  0  0  0  0  0  0  0  0
    1.1931    1.8513   -1.9229 C   0  0  0  0  0  0  0  0  0  0  0  0
   -0.1021    0.8828   -2.6546 S   0  0  0  0  0  6  0  0  0  0  0  0
    0.1376    0.8730   -4.0826 O   0  0  0  0  0  0  0  0  0  0  0  0
   -1.3710    1.3165   -2.1115 O   0  0  0  0  0  0  0  0  0  0  0  0
    0.2505   -0.6793   -2.1051 N   0  0  0  0  0  0  0  0  0  0  0  0
   -0.2074   -1.0437   -0.8063 C   0  0  0  0  0  0  0  0  0  0  0  0
    0.5337   -0.6945    0.3135 C   0  0  0  0  0  0  0  0  0  0  0  0
    0.0419   -1.0001    1.5778 C   0  0  0  0  0  0  0  0  0  0  0  0
   -1.1879   -1.6680    1.7292 C   0  0  0  0  0  0  0  0  0  0  0  0
   -1.9502   -2.0301    0.5954 C   0  0  0  0  0  0  0  0  0  0  0  0
   -1.4402   -1.6884   -0.6675 C   0  0  0  0  0  0  0  0  0  0  0  0
   -3.2266   -2.6892    0.7570 N   0  0  0  0  0  0  0  0  0  0  0  0
   -3.9431   -3.2277   -0.3234 C   0  0  0  0  0  0  0  0  0  0  0  0
   -5.4129   -3.5007   -0.0903 C   0  0  0  0  0  0  0  0  0  0  0  0
   -3.4670   -3.5083   -1.4247 O   0  0  0  0  0  0  0  0  0  0  0  0
   -3.7666   -2.7552    2.1207 C   0  0  0  0  0  0  0  0  0  0  0  0
   -2.6964   -3.0428    3.1573 C   0  0  0  0  0  0  0  0  0  0  0  0
   -1.6665   -1.9338    3.1319 C   0  0  0  0  0  0  0  0  0  0  0  0
    2.4990    1.7121   -2.4033 C   0  0  0  0  0  0  0  0  0  0  0  0
    3.5283    2.4682   -1.8360 C   0  0  0  0  0  0  0  0  0  0  0  0
    4.8435    2.3974   -2.2245 O   0  0  0  0  0  0  0  0  0  0  0  0
    5.1539    1.6015   -3.3599 C   0  0  0  0  0  0  0  0  0  0  0  0
    3.6556    4.5814    1.6268 H   0  0  0  0  0  0  0  0  0  0  0  0
    3.3772    5.8215    0.3417 H   0  0  0  0  0  0  0  0  0  0  0  0
    5.0010    5.5207    0.9712 H   0  0  0  0  0  0  0  0  0  0  0  0
    1.6637    4.1880    0.4735 H   0  0  0  0  0  0  0  0  0  0  0  0
   -0.1226    2.8623   -0.5331 H   0  0  0  0  0  0  0  0  0  0  0  0
    0.0844   -1.3564   -2.8511 H   0  0  0  0  0  0  0  0  0  0  0  0
    1.4928   -0.1948    0.2166 H   0  0  0  0  0  0  0  0  0  0  0  0
    0.6240   -0.7173    2.4528 H   0  0  0  0  0  0  0  0  0  0  0  0
   -2.0044   -1.8809   -1.5732 H   0  0  0  0  0  0  0  0  0  0  0  0
   -5.9259   -3.5380   -1.0567 H   0  0  0  0  0  0  0  0  0  0  0  0
   -5.5387   -4.4649    0.4084 H   0  0  0  0  0  0  0  0  0  0  0  0
   -5.8774   -2.6999    0.4910 H   0  0  0  0  0  0  0  0  0  0  0  0
   -4.5168   -3.5473    2.1962 H   0  0  0  0  0  0  0  0  0  0  0  0
   -4.2721   -1.8029    2.3232 H   0  0  0  0  0  0  0  0  0  0  0  0
   -2.2181   -4.0063    2.9384 H   0  0  0  0  0  0  0  0  0  0  0  0
   -3.1415   -3.1182    4.1555 H   0  0  0  0  0  0  0  0  0  0  0  0
   -2.0986   -1.0089    3.5335 H   0  0  0  0  0  0  0  0  0  0  0  0
   -0.8247   -2.2163    3.7752 H   0  0  0  0  0  0  0  0  0  0  0  0
    2.6847    1.0093   -3.2091 H   0  0  0  0  0  0  0  0  0  0  0  0
    4.6115    1.9458   -4.2467 H   0  0  0  0  0  0  0  0  0  0  0  0
    4.9594    0.5424   -3.1621 H   0  0  0  0  0  0  0  0  0  0  0  0
    6.2239    1.7103   -3.5619 H   0  0  0  0  0  0  0  0  0  0  0  0
  1  2  1  0
  2  3  1  0
  3  4  2  0
  4  5  1  0
  5  6  2  0
  6  7  1  0
  7  8  2  0
  7  9  2  0
  7 10  1  0
 10 11  1  0
 11 12  2  0
 12 13  1  0
 13 14  2  0
 14 15  1  0
 15 16  2  0
 15 17  1  0
 17 18  1  0
 18 19  1  0
 18 20  2  0
 17 21  1  0
 21 22  1  0
 22 23  1  0
  6 24  1  0
 24 25  2  0
 25 26  1  0
 26 27  1  0
 25  3  1  0
 16 11  1  0
 23 14  1  0
  1 28  1  0
  1 29  1  0
  1 30  1  0
  4 31  1  0
  5 32  1  0
 10 33  1  0
 12 34  1  0
 13 35  1  0
 16 36  1  0
 19 37  1  0
 19 38  1  0
 19 39  1  0
 21 40  1  0
 21 41  1  0
 22 42  1  0
 22 43  1  0
 23 44  1  0
 23 45  1  0
 24 46  1  0
 27 47  1  0
 27 48  1  0
 27 49  1  0
M  END
$$$$
