
     RDKit          3D

 45 46  0  0  0  0  0  0  0  0999 V2000
    6.8514    0.8289    3.1514 C   0  0  0  0  0  0  0  0  0  0  0  0
    6.7738   -0.1933    2.1664 O   0  0  0  0  0  0  0  0  0  0  0  0
    5.6101   -0.2880    1.4556 C   0  0  0  0  0  0  0  0  0  0  0  0
    4.4923    0.5346    1.5988 C   0  0  0  0  0  0  0  0  0  0  0  0
    3.3537    0.3291    0.8059 C   0  0  0  0  0  0  0  0  0  0  0  0
    3.3187   -0.7092   -0.1351 C   0  0  0  0  0  0  0  0  0  0  0  0
    2.1261   -0.9678   -0.9878 C   0  0  0  0  0  0  0  0  0  0  0  0
    2.2641   -1.6031   -2.0319 O   0  0  0  0  0  0  0  0  0  0  0  0
    0.7905   -0.4976   -0.5315 C   0  0  0  0  0  0  0  0  0  0  0  0
   -0.2539   -0.5710   -1.3710 C   0  0  0  0  0  0  0  0  0  0  0  0
   -1.6172   -0.1705   -0.9991 C   0  0  0  0  0  0  0  0  0  0  0  0
   -2.6834   -1.0134   -1.3467 C   0  0  0  0  0  0  0  0  0  0  0  0
   -3.9983   -0.6694   -1.0237 C   0  0  0  0  0  0  0  0  0  0  0  0
   -5.1010   -1.4320   -1.3104 O   0  0  0  0  0  0  0  0  0  0  0  0
   -4.9134   -2.5659   -2.1459 C   0  0  0  0  0  0  0  0  0  0  0  0
   -4.2343    0.5349   -0.3397 C   0  0  0  0  0  0  0  0  0  0  0  0
   -5.5298    0.9062   -0.0515 O   0  0  0  0  0  0  0  0  0  0  0  0
   -5.8987    0.4107    1.2341 C   0  0  0  0  0  0  0  0  0  0  0  0
   -3.1838    1.4121   -0.0232 C   0  0  0  0  0  0  0  0  0  0  0  0
   -3.5304    2.5728    0.6195 O   0  0  0  0  0  0  0  0  0  0  0  0
   -2.5649    3.6151    0.6388 C   0  0  0  0  0  0  0  0  0  0  0  0
   -1.8757    1.0463   -0.3502 C   0  0  0  0  0  0  0  0  0  0  0  0
    4.4586   -1.5118   -0.2896 C   0  0  0  0  0  0  0  0  0  0  0  0
    4.5419   -2.5259   -1.2081 O   0  0  0  0  0  0  0  0  0  0  0  0
    5.5867   -1.3096    0.5049 C   0  0  0  0  0  0  0  0  0  0  0  0
    7.8347    0.7615    3.6268 H   0  0  0  0  0  0  0  0  0  0  0  0
    6.0944    0.6857    3.9295 H   0  0  0  0  0  0  0  0  0  0  0  0
    6.7685    1.8216    2.6967 H   0  0  0  0  0  0  0  0  0  0  0  0
    4.4754    1.3505    2.3147 H   0  0  0  0  0  0  0  0  0  0  0  0
    2.5183    1.0111    0.9329 H   0  0  0  0  0  0  0  0  0  0  0  0
    0.6760   -0.1463    0.4853 H   0  0  0  0  0  0  0  0  0  0  0  0
   -0.1327   -0.9702   -2.3772 H   0  0  0  0  0  0  0  0  0  0  0  0
   -2.4605   -1.9441   -1.8597 H   0  0  0  0  0  0  0  0  0  0  0  0
   -5.8970   -3.0037   -2.3411 H   0  0  0  0  0  0  0  0  0  0  0  0
   -4.3054   -3.3258   -1.6444 H   0  0  0  0  0  0  0  0  0  0  0  0
   -4.4780   -2.2826   -3.1100 H   0  0  0  0  0  0  0  0  0  0  0  0
   -5.2608    0.8278    2.0211 H   0  0  0  0  0  0  0  0  0  0  0  0
   -5.8707   -0.6839    1.2647 H   0  0  0  0  0  0  0  0  0  0  0  0
   -6.9274    0.7268    1.4317 H   0  0  0  0  0  0  0  0  0  0  0  0
   -2.2042    3.8470   -0.3691 H   0  0  0  0  0  0  0  0  0  0  0  0
   -1.7350    3.3647    1.3073 H   0  0  0  0  0  0  0  0  0  0  0  0
   -3.0498    4.5130    1.0337 H   0  0  0  0  0  0  0  0  0  0  0  0
   -1.0435    1.6997   -0.1122 H   0  0  0  0  0  0  0  0  0  0  0  0
    3.7585   -2.4651   -1.8002 H   0  0  0  0  0  0  0  0  0  0  0  0
    6.4560   -1.9497    0.3754 H   0  0  0  0  0  0  0  0  0  0  0  0
  1  2  1  0
  2  3  1  0
  3  4  2  0
  4  5  1  0
  5  6  2  0
  6  7  1  0
  7  8  2  0
  7  9  1  0
  9 10  2  0
 10 11  1  0
 11 12  2  0
 12 13  1  0
 13 14  1  0
 14 15  1  0
 13 16  2  0
 16 17  1  0
 17 18  1  0
 16 19  1  0
 19 20  1  0
 20 21  1  0
 19 22  2  0
  6 23  1  0
 23 24  1  0
 23 25  2  0
 25  3  1  0
 22 11  1  0
  1 26  1  0
  1 27  1  0
  1 28  1  0
  4 29  1  0
  5 30  1  0
  9 31  1  0
 10 32  1  0
 12 33  1  0
 15 34  1  0
 15 35  1  0
 15 36  1  0
 18 37  1  0
 18 38  1  0
 18 39  1  0
 21 40  1  0
 21 41  1  0
 21 42  1  0
 22 43  1  0
 24 44  1  0
 25 45  1  0
M  END
$$$$
