
     RDKit          3D

 57 60  0  0  0  0  0  0  0  0999 V2000
   -8.4719    2.3540   -1.1844 C   0  0  0  0  0  0  0  0  0  0  0  0
   -8.1070    0.9838   -1.0644 O   0  0  0  0  0  0  0  0  0  0  0  0
   -6.8433    0.7183   -0.6121 C   0  0  0  0  0  0  0  0  0  0  0  0
   -5.8962    1.6649   -0.2255 C   0  0  0  0  0  0  0  0  0  0  0  0
   -4.6319    1.2599    0.2175 C   0  0  0  0  0  0  0  0  0  0  0  0
   -4.3052   -0.0945    0.2768 C   0  0  0  0  0  0  0  0  0  0  0  0
   -3.0504   -0.5838    0.7037 N   0  0  0  0  0  0  0  0  0  0  0  0
   -1.9605    0.1352    1.1631 C   0  0  0  0  0  0  0  0  0  0  0  0
   -1.9220    1.3505    1.3311 O   0  0  0  0  0  0  0  0  0  0  0  0
   -0.7678   -0.7474    1.4852 C   0  0  0  0  0  0  0  0  0  0  0  0
    0.4426   -0.3176    0.7984 N   0  0  0  0  0  0  0  0  0  0  0  0
    1.5205    0.2553    1.4195 C   0  0  0  0  0  0  0  0  0  0  0  0
    2.4897    0.4783    0.4630 C   0  0  0  0  0  0  0  0  0  0  0  0
    4.0615    1.1500    0.7494 S   0  0  0  0  0  6  0  0  0  0  0  0
    4.2661    2.0702   -0.3515 O   0  0  0  0  0  0  0  0  0  0  0  0
    4.0165    1.5809    2.1340 O   0  0  0  0  0  0  0  0  0  0  0  0
    5.1251   -0.2798    0.5844 C   0  0  0  0  0  0  0  0  0  0  0  0
    6.5532    0.1327    0.8250 C   0  0  0  0  0  0  0  0  0  0  0  0
    7.0936    0.1079    2.1189 C   0  0  0  0  0  0  0  0  0  0  0  0
    8.4155    0.4971    2.3412 C   0  0  0  0  0  0  0  0  0  0  0  0
    9.2088    0.9164    1.2755 C   0  0  0  0  0  0  0  0  0  0  0  0
    8.6808    0.9507   -0.0134 C   0  0  0  0  0  0  0  0  0  0  0  0
    7.3591    0.5628   -0.2390 C   0  0  0  0  0  0  0  0  0  0  0  0
    1.9889    0.0177   -0.7886 C   0  0  0  0  0  0  0  0  0  0  0  0
    2.4924   -0.0206   -2.1075 C   0  0  0  0  0  0  0  0  0  0  0  0
    1.7193   -0.5737   -3.1329 C   0  0  0  0  0  0  0  0  0  0  0  0
    0.4551   -1.0853   -2.8660 C   0  0  0  0  0  0  0  0  0  0  0  0
   -0.0739   -1.0553   -1.5730 C   0  0  0  0  0  0  0  0  0  0  0  0
    0.7074   -0.4972   -0.5471 C   0  0  0  0  0  0  0  0  0  0  0  0
   -5.2599   -1.0559   -0.1153 C   0  0  0  0  0  0  0  0  0  0  0  0
   -4.8442   -2.3666   -0.0293 O   0  0  0  0  0  0  0  0  0  0  0  0
   -5.7878   -3.3644   -0.4057 C   0  0  0  0  0  0  0  0  0  0  0  0
   -6.5208   -0.6413   -0.5536 C   0  0  0  0  0  0  0  0  0  0  0  0
   -8.4747    2.8476   -0.2072 H   0  0  0  0  0  0  0  0  0  0  0  0
   -7.8192    2.8773   -1.8911 H   0  0  0  0  0  0  0  0  0  0  0  0
   -9.4902    2.3934   -1.5814 H   0  0  0  0  0  0  0  0  0  0  0  0
   -6.1021    2.7304   -0.2554 H   0  0  0  0  0  0  0  0  0  0  0  0
   -3.9232    2.0317    0.5026 H   0  0  0  0  0  0  0  0  0  0  0  0
   -2.9911   -1.5971    0.6610 H   0  0  0  0  0  0  0  0  0  0  0  0
   -0.5906   -0.7137    2.5663 H   0  0  0  0  0  0  0  0  0  0  0  0
   -0.9395   -1.7935    1.2088 H   0  0  0  0  0  0  0  0  0  0  0  0
    1.5166    0.4748    2.4807 H   0  0  0  0  0  0  0  0  0  0  0  0
    4.8071   -1.0314    1.3141 H   0  0  0  0  0  0  0  0  0  0  0  0
    5.0065   -0.6938   -0.4210 H   0  0  0  0  0  0  0  0  0  0  0  0
    6.4861   -0.2018    2.9674 H   0  0  0  0  0  0  0  0  0  0  0  0
    8.8235    0.4819    3.3486 H   0  0  0  0  0  0  0  0  0  0  0  0
   10.2359    1.2256    1.4511 H   0  0  0  0  0  0  0  0  0  0  0  0
    9.2963    1.2887   -0.8431 H   0  0  0  0  0  0  0  0  0  0  0  0
    6.9617    0.6118   -1.2511 H   0  0  0  0  0  0  0  0  0  0  0  0
    3.4688    0.3962   -2.3424 H   0  0  0  0  0  0  0  0  0  0  0  0
    2.1073   -0.5901   -4.1489 H   0  0  0  0  0  0  0  0  0  0  0  0
   -0.1380   -1.5017   -3.6774 H   0  0  0  0  0  0  0  0  0  0  0  0
   -1.0708   -1.4422   -1.3891 H   0  0  0  0  0  0  0  0  0  0  0  0
   -6.6674   -3.3420    0.2463 H   0  0  0  0  0  0  0  0  0  0  0  0
   -6.0687   -3.2647   -1.4593 H   0  0  0  0  0  0  0  0  0  0  0  0
   -5.3074   -4.3394   -0.2816 H   0  0  0  0  0  0  0  0  0  0  0  0
   -7.2803   -1.3511   -0.8634 H   0  0  0  0  0  0  0  0  0  0  0  0
  1  2  1  0
  2  3  1  0
  3  4  2  0
  4  5  1  0
  5  6  2  0
  6  7  1  0
  7  8  1  0
  8  9  2  0
  8 10  1  0
 10 11  1  0
 11 12  1  0
 12 13  2  0
 13 14  1  0
 14 15  2  0
 14 16  2  0
 14 17  1  0
 17 18  1  0
 18 19  2  0
 19 20  1  0
 20 21  2  0
 21 22  1  0
 22 23  2  0
 13 24  1  0
 24 25  2  0
 25 26  1  0
 26 27  2  0
 27 28  1  0
 28 29  2  0
  6 30  1  0
 30 31  1  0
 31 32  1  0
 30 33  2  0
 33  3  1  0
 29 11  1  0
 23 18  1  0
 29 24  1  0
  1 34  1  0
  1 35  1  0
  1 36  1  0
  4 37  1  0
  5 38  1  0
  7 39  1  0
 10 40  1  0
 10 41  1  0
 12 42  1  0
 17 43  1  0
 17 44  1  0
 19 45  1  0
 20 46  1  0
 21 47  1  0
 22 48  1  0
 23 49  1  0
 25 50  1  0
 26 51  1  0
 27 52  1  0
 28 53  1  0
 32 54  1  0
 32 55  1  0
 32 56  1  0
 33 57  1  0
M  END
$$$$
