
     RDKit          3D

 46 49  0  0  0  0  0  0  0  0999 V2000
   -3.8657    5.6089    1.3828 N   0  0  0  0  0  0  0  0  0  0  0  0
   -4.3286    4.3842    1.0750 C   0  0  0  0  0  0  0  0  0  0  0  0
   -5.6148    4.0380    1.1001 N   0  0  0  0  0  0  0  0  0  0  0  0
   -5.6473    2.6966    0.7371 O   0  0  0  0  0  0  0  0  0  0  0  0
   -4.3673    2.2136    0.4693 N   0  0  0  0  0  0  0  0  0  0  0  0
   -3.5726    3.2635    0.6792 C   0  0  0  0  0  0  0  0  0  0  0  0
   -2.1680    3.1751    0.5000 N   0  0  0  0  0  0  0  0  0  0  0  0
   -1.3665    4.2603    0.6880 N   0  0  0  0  0  0  0  0  0  0  0  0
   -0.1081    3.9152    0.4868 N   0  0  0  0  0  0  0  0  0  0  0  0
   -0.0671    2.5851    0.1745 C   0  0  0  0  0  0  0  0  0  0  0  0
    1.2042    1.9030   -0.0856 C   0  0  0  0  0  0  0  0  0  0  0  0
    2.1651    2.5057   -0.5547 O   0  0  0  0  0  0  0  0  0  0  0  0
    1.2027    0.5551    0.2721 N   0  0  0  0  0  0  0  0  0  0  0  0
    2.2696   -0.3071    0.2165 N   0  0  0  0  0  0  0  0  0  0  0  0
    3.1540   -0.1431   -0.7163 C   0  0  0  0  0  0  0  0  0  0  0  0
    4.3479   -1.0096   -0.8106 C   0  0  0  0  0  0  0  0  0  0  0  0
    4.5666   -2.0383    0.1106 C   0  0  0  0  0  0  0  0  0  0  0  0
    5.7011   -2.8430   -0.0053 C   0  0  0  0  0  0  0  0  0  0  0  0
    6.6133   -2.6195   -1.0372 C   0  0  0  0  0  0  0  0  0  0  0  0
    6.3953   -1.5911   -1.9550 C   0  0  0  0  0  0  0  0  0  0  0  0
    5.2622   -0.7833   -1.8439 C   0  0  0  0  0  0  0  0  0  0  0  0
   -1.3689    2.0952    0.1197 C   0  0  0  0  0  0  0  0  0  0  0  0
   -1.8739    0.7557   -0.2776 C   0  0  0  0  0  0  0  0  0  0  0  0
   -1.9106   -0.3386    1.1793 S   0  0  0  0  0  0  0  0  0  0  0  0
   -2.2516   -1.8728    0.3429 C   0  0  0  0  0  0  0  0  0  0  0  0
   -3.5679   -2.2345    0.0437 C   0  0  0  0  0  0  0  0  0  0  0  0
   -3.8311   -3.4341   -0.6202 C   0  0  0  0  0  0  0  0  0  0  0  0
   -2.7804   -4.2758   -0.9834 C   0  0  0  0  0  0  0  0  0  0  0  0
   -1.4664   -3.9214   -0.6805 C   0  0  0  0  0  0  0  0  0  0  0  0
   -1.2011   -2.7226   -0.0160 C   0  0  0  0  0  0  0  0  0  0  0  0
   -2.8967    5.8773    1.2159 H   0  0  0  0  0  0  0  0  0  0  0  0
   -4.5123    6.3815    1.4995 H   0  0  0  0  0  0  0  0  0  0  0  0
    0.4829    0.2485    0.9239 H   0  0  0  0  0  0  0  0  0  0  0  0
    3.0574    0.6196   -1.5070 H   0  0  0  0  0  0  0  0  0  0  0  0
    3.8621   -2.2157    0.9193 H   0  0  0  0  0  0  0  0  0  0  0  0
    5.8746   -3.6421    0.7110 H   0  0  0  0  0  0  0  0  0  0  0  0
    7.4977   -3.2462   -1.1242 H   0  0  0  0  0  0  0  0  0  0  0  0
    7.1106   -1.4174   -2.7553 H   0  0  0  0  0  0  0  0  0  0  0  0
    5.1057    0.0180   -2.5614 H   0  0  0  0  0  0  0  0  0  0  0  0
   -1.1971    0.3246   -1.0248 H   0  0  0  0  0  0  0  0  0  0  0  0
   -2.8520    0.7908   -0.7614 H   0  0  0  0  0  0  0  0  0  0  0  0
   -4.3974   -1.5906    0.3274 H   0  0  0  0  0  0  0  0  0  0  0  0
   -4.8562   -3.7138   -0.8500 H   0  0  0  0  0  0  0  0  0  0  0  0
   -2.9862   -5.2112   -1.4979 H   0  0  0  0  0  0  0  0  0  0  0  0
   -0.6472   -4.5801   -0.9583 H   0  0  0  0  0  0  0  0  0  0  0  0
   -0.1701   -2.4634    0.2162 H   0  0  0  0  0  0  0  0  0  0  0  0
  1  2  1  0
  2  3  2  0
  3  4  1  0
  4  5  1  0
  5  6  2  0
  6  7  1  0
  7  8  1  0
  8  9  2  0
  9 10  1  0
 10 11  1  0
 11 12  2  0
 11 13  1  0
 13 14  1  0
 14 15  2  3
 15 16  1  0
 16 17  2  0
 17 18  1  0
 18 19  2  0
 19 20  1  0
 20 21  2  0
 10 22  2  0
 22 23  1  0
 23 24  1  0
 24 25  1  0
 25 26  2  0
 26 27  1  0
 27 28  2  0
 28 29  1  0
 29 30  2  0
  6  2  1  0
 22  7  1  0
 30 25  1  0
 21 16  1  0
  1 31  1  0
  1 32  1  0
 13 33  1  0
 15 34  1  0
 17 35  1  0
 18 36  1  0
 19 37  1  0
 20 38  1  0
 21 39  1  0
 23 40  1  0
 23 41  1  0
 26 42  1  0
 27 43  1  0
 28 44  1  0
 29 45  1  0
 30 46  1  0
M  END
$$$$
