
     RDKit          3D

 56 60  0  0  0  0  0  0  0  0999 V2000
   -0.4589    3.4397   -0.5446 C   0  0  0  0  0  0  0  0  0  0  0  0
   -1.4981    2.8859   -1.4822 C   0  0  0  0  0  0  0  0  0  0  0  0
   -1.7117    3.5740   -2.6898 C   0  0  0  0  0  0  0  0  0  0  0  0
   -2.6834    3.1468   -3.5923 C   0  0  0  0  0  0  0  0  0  0  0  0
   -3.4698    2.0372   -3.2946 C   0  0  0  0  0  0  0  0  0  0  0  0
   -3.2867    1.3264   -2.0977 C   0  0  0  0  0  0  0  0  0  0  0  0
   -4.2463    0.2099   -1.7757 C   0  0  0  0  0  0  0  0  0  0  0  0
   -2.2753    1.7399   -1.1970 C   0  0  0  0  0  0  0  0  0  0  0  0
   -2.0574    1.0060    0.0103 N   0  0  0  0  0  0  0  0  0  0  0  0
   -1.4307   -0.2375    0.0260 C   0  0  0  0  0  0  0  0  0  0  0  0
   -0.6972   -0.8780   -1.4382 S   0  0  0  0  0  0  0  0  0  0  0  0
    0.9273   -0.0653   -1.3839 C   0  0  0  0  0  0  0  0  0  0  0  0
    1.5507   -0.1135    0.0078 C   0  0  0  0  0  0  0  0  0  0  0  0
    1.1892    0.6957    0.8718 O   0  0  0  0  0  0  0  0  0  0  0  0
    2.4177   -1.1524    0.3133 N   0  0  0  0  0  0  0  0  0  0  0  0
    2.4268   -1.5990    1.7083 C   0  0  0  0  0  0  0  0  0  0  0  0
    2.8937   -3.0336    1.9298 C   0  0  0  0  0  0  0  0  0  0  0  0
    2.6927   -3.6461    2.9792 O   0  0  0  0  0  0  0  0  0  0  0  0
    3.6851   -3.5795    0.9570 N   0  0  0  0  0  0  0  0  0  0  0  0
    4.0538   -2.8894   -0.2020 C   0  0  0  0  0  0  0  0  0  0  0  0
    5.0390   -3.4485   -1.0253 C   0  0  0  0  0  0  0  0  0  0  0  0
    5.4754   -2.7555   -2.1534 C   0  0  0  0  0  0  0  0  0  0  0  0
    4.9397   -1.5025   -2.4466 C   0  0  0  0  0  0  0  0  0  0  0  0
    3.9429   -0.9534   -1.6307 C   0  0  0  0  0  0  0  0  0  0  0  0
    3.4536   -1.6574   -0.5236 C   0  0  0  0  0  0  0  0  0  0  0  0
   -1.3275   -0.9996    1.0673 N   0  0  0  0  0  0  0  0  0  0  0  0
   -1.8116   -0.5150    2.2868 C   0  0  0  0  0  0  0  0  0  0  0  0
   -1.6497   -1.3009    3.4310 C   0  0  0  0  0  0  0  0  0  0  0  0
   -2.0930   -0.8457    4.6738 C   0  0  0  0  0  0  0  0  0  0  0  0
   -2.7069    0.4014    4.7836 C   0  0  0  0  0  0  0  0  0  0  0  0
   -2.8728    1.1948    3.6490 C   0  0  0  0  0  0  0  0  0  0  0  0
   -2.4203    0.7308    2.4077 C   0  0  0  0  0  0  0  0  0  0  0  0
   -2.5850    1.5426    1.1860 C   0  0  0  0  0  0  0  0  0  0  0  0
   -3.1825    2.6151    1.2741 O   0  0  0  0  0  0  0  0  0  0  0  0
   -0.2584    2.7874    0.3079 H   0  0  0  0  0  0  0  0  0  0  0  0
    0.4907    3.5764   -1.0722 H   0  0  0  0  0  0  0  0  0  0  0  0
   -0.7941    4.4077   -0.1582 H   0  0  0  0  0  0  0  0  0  0  0  0
   -1.1274    4.4617   -2.9254 H   0  0  0  0  0  0  0  0  0  0  0  0
   -2.8446    3.6956   -4.5160 H   0  0  0  0  0  0  0  0  0  0  0  0
   -4.2489    1.7402   -3.9944 H   0  0  0  0  0  0  0  0  0  0  0  0
   -4.8912   -0.0231   -2.6323 H   0  0  0  0  0  0  0  0  0  0  0  0
   -4.8942    0.5087   -0.9443 H   0  0  0  0  0  0  0  0  0  0  0  0
   -3.7232   -0.7157   -1.5140 H   0  0  0  0  0  0  0  0  0  0  0  0
    1.5250   -0.5728   -2.1393 H   0  0  0  0  0  0  0  0  0  0  0  0
    0.8437    0.9818   -1.6902 H   0  0  0  0  0  0  0  0  0  0  0  0
    3.0852   -0.9284    2.2744 H   0  0  0  0  0  0  0  0  0  0  0  0
    1.4132   -1.5153    2.1187 H   0  0  0  0  0  0  0  0  0  0  0  0
    4.0829   -4.4876    1.1638 H   0  0  0  0  0  0  0  0  0  0  0  0
    5.4949   -4.4089   -0.7885 H   0  0  0  0  0  0  0  0  0  0  0  0
    6.2496   -3.1791   -2.7944 H   0  0  0  0  0  0  0  0  0  0  0  0
    5.3038   -0.9416   -3.3061 H   0  0  0  0  0  0  0  0  0  0  0  0
    3.5928    0.0490   -1.8685 H   0  0  0  0  0  0  0  0  0  0  0  0
   -1.1683   -2.2723    3.3494 H   0  0  0  0  0  0  0  0  0  0  0  0
   -1.9540   -1.4626    5.5586 H   0  0  0  0  0  0  0  0  0  0  0  0
   -3.0527    0.7555    5.7522 H   0  0  0  0  0  0  0  0  0  0  0  0
   -3.3474    2.1705    3.7331 H   0  0  0  0  0  0  0  0  0  0  0  0
  1  2  1  0
  2  3  2  0
  3  4  1  0
  4  5  2  0
  5  6  1  0
  6  7  1  0
  6  8  2  0
  8  9  1  0
  9 10  1  0
 10 11  1  0
 11 12  1  0
 12 13  1  0
 13 14  2  0
 13 15  1  0
 15 16  1  0
 16 17  1  0
 17 18  2  0
 17 19  1  0
 19 20  1  0
 20 21  2  0
 21 22  1  0
 22 23  2  0
 23 24  1  0
 24 25  2  0
 10 26  2  0
 26 27  1  0
 27 28  2  0
 28 29  1  0
 29 30  2  0
 30 31  1  0
 31 32  2  0
 32 33  1  0
 33 34  2  0
  8  2  1  0
 33  9  1  0
 25 15  1  0
 32 27  1  0
 25 20  1  0
  1 35  1  0
  1 36  1  0
  1 37  1  0
  3 38  1  0
  4 39  1  0
  5 40  1  0
  7 41  1  0
  7 42  1  0
  7 43  1  0
 12 44  1  0
 12 45  1  0
 16 46  1  0
 16 47  1  0
 19 48  1  0
 21 49  1  0
 22 50  1  0
 23 51  1  0
 24 52  1  0
 28 53  1  0
 29 54  1  0
 30 55  1  0
 31 56  1  0
M  END
$$$$
