
     RDKit          3D

 43 45  0  0  0  0  0  0  0  0999 V2000
   -5.2218    2.4076    0.6792 C   0  0  0  0  0  0  0  0  0  0  0  0
   -5.7528    1.1852    1.2670 N   0  0  0  0  0  0  0  0  0  0  0  0
   -7.0686    1.2911    1.8732 C   0  0  0  0  0  0  0  0  0  0  0  0
   -5.2509   -0.0918    1.0173 C   0  0  0  0  0  0  0  0  0  0  0  0
   -5.8924   -1.1230    1.2049 O   0  0  0  0  0  0  0  0  0  0  0  0
   -3.8628   -0.2326    0.5237 C   0  0  0  0  0  0  0  0  0  0  0  0
   -2.7954    0.3284    1.2291 C   0  0  0  0  0  0  0  0  0  0  0  0
   -1.4898    0.1569    0.7597 C   0  0  0  0  0  0  0  0  0  0  0  0
   -1.2384   -0.5822   -0.4058 C   0  0  0  0  0  0  0  0  0  0  0  0
    0.1043   -0.7024   -0.8071 N   0  0  0  0  0  0  0  0  0  0  0  0
    0.6170   -1.3493   -1.9181 C   0  0  0  0  0  0  0  0  0  0  0  0
   -0.0423   -1.9325   -2.7717 O   0  0  0  0  0  0  0  0  0  0  0  0
    2.0655   -1.2655   -1.9901 C   0  0  0  0  0  0  0  0  0  0  0  0
    2.9578   -1.7556   -2.9217 C   0  0  0  0  0  0  0  0  0  0  0  0
    4.2498   -1.3732   -2.4876 C   0  0  0  0  0  0  0  0  0  0  0  0
    4.0856   -0.6697   -1.3098 C   0  0  0  0  0  0  0  0  0  0  0  0
    4.9993   -0.0142   -0.3756 C   0  0  0  0  0  0  0  0  0  0  0  0
    6.3703    0.0770   -0.6650 C   0  0  0  0  0  0  0  0  0  0  0  0
    7.2536    0.7020    0.2229 C   0  0  0  0  0  0  0  0  0  0  0  0
    6.7735    1.2422    1.4121 C   0  0  0  0  0  0  0  0  0  0  0  0
    7.8576    2.0105    2.5038 Cl  0  0  0  0  0  0  0  0  0  0  0  0
    5.4190    1.1628    1.7209 C   0  0  0  0  0  0  0  0  0  0  0  0
    4.5384    0.5378    0.8309 C   0  0  0  0  0  0  0  0  0  0  0  0
    2.7531   -0.6027   -1.0057 O   0  0  0  0  0  0  0  0  0  0  0  0
   -2.3130   -1.1584   -1.0887 C   0  0  0  0  0  0  0  0  0  0  0  0
   -3.6219   -0.9932   -0.6214 C   0  0  0  0  0  0  0  0  0  0  0  0
   -4.9903    3.1094    1.4854 H   0  0  0  0  0  0  0  0  0  0  0  0
   -5.9869    2.8436    0.0289 H   0  0  0  0  0  0  0  0  0  0  0  0
   -4.3295    2.2380    0.0754 H   0  0  0  0  0  0  0  0  0  0  0  0
   -7.0873    2.1565    2.5420 H   0  0  0  0  0  0  0  0  0  0  0  0
   -7.3159    0.3956    2.4502 H   0  0  0  0  0  0  0  0  0  0  0  0
   -7.8115    1.4208    1.0806 H   0  0  0  0  0  0  0  0  0  0  0  0
   -2.9754    0.8860    2.1445 H   0  0  0  0  0  0  0  0  0  0  0  0
   -0.6733    0.6033    1.3218 H   0  0  0  0  0  0  0  0  0  0  0  0
    0.8041   -0.2612   -0.2207 H   0  0  0  0  0  0  0  0  0  0  0  0
    2.6942   -2.3207   -3.8060 H   0  0  0  0  0  0  0  0  0  0  0  0
    5.1874   -1.5915   -2.9793 H   0  0  0  0  0  0  0  0  0  0  0  0
    6.7725   -0.3343   -1.5879 H   0  0  0  0  0  0  0  0  0  0  0  0
    8.3109    0.7622   -0.0219 H   0  0  0  0  0  0  0  0  0  0  0  0
    5.0401    1.5816    2.6493 H   0  0  0  0  0  0  0  0  0  0  0  0
    3.4850    0.4843    1.0957 H   0  0  0  0  0  0  0  0  0  0  0  0
   -2.1698   -1.7547   -1.9847 H   0  0  0  0  0  0  0  0  0  0  0  0
   -4.4490   -1.4620   -1.1499 H   0  0  0  0  0  0  0  0  0  0  0  0
  1  2  1  0
  2  3  1  0
  2  4  1  0
  4  5  2  0
  4  6  1  0
  6  7  2  0
  7  8  1  0
  8  9  2  0
  9 10  1  0
 10 11  1  0
 11 12  2  0
 11 13  1  0
 13 14  2  0
 14 15  1  0
 15 16  2  0
 16 17  1  0
 17 18  2  0
 18 19  1  0
 19 20  2  0
 20 21  1  0
 20 22  1  0
 22 23  2  0
 16 24  1  0
  9 25  1  0
 25 26  2  0
 26  6  1  0
 24 13  1  0
 23 17  1  0
  1 27  1  0
  1 28  1  0
  1 29  1  0
  3 30  1  0
  3 31  1  0
  3 32  1  0
  7 33  1  0
  8 34  1  0
 10 35  1  0
 14 36  1  0
 15 37  1  0
 18 38  1  0
 19 39  1  0
 22 40  1  0
 23 41  1  0
 25 42  1  0
 26 43  1  0
M  END
$$$$
