
     RDKit          3D

 63 67  0  0  0  0  0  0  0  0999 V2000
    2.5354    5.8655   -1.9067 C   0  0  0  0  0  0  0  0  0  0  0  0
    3.5817    5.2354   -1.1807 O   0  0  0  0  0  0  0  0  0  0  0  0
    3.6070    3.8684   -1.1942 C   0  0  0  0  0  0  0  0  0  0  0  0
    4.6024    3.2945   -0.4005 C   0  0  0  0  0  0  0  0  0  0  0  0
    4.7381    1.9058   -0.3187 C   0  0  0  0  0  0  0  0  0  0  0  0
    3.8790    1.0671   -1.0382 C   0  0  0  0  0  0  0  0  0  0  0  0
    3.9989   -0.3935   -0.9443 C   0  0  0  0  0  0  0  0  0  0  0  0
    5.4394   -1.1301   -1.5019 S   0  0  0  0  0  0  0  0  0  0  0  0
    4.8880   -2.7113   -1.1244 C   0  0  0  0  0  0  0  0  0  0  0  0
    5.5872   -3.9166   -1.3190 C   0  0  0  0  0  0  0  0  0  0  0  0
    4.9802   -5.1171   -0.9413 C   0  0  0  0  0  0  0  0  0  0  0  0
    3.7105   -5.1349   -0.3770 C   0  0  0  0  0  0  0  0  0  0  0  0
    3.2477   -6.3803   -0.0502 O   0  0  0  0  0  0  0  0  0  0  0  0
    1.9802   -6.4483    0.5916 C   0  0  0  0  0  0  0  0  0  0  0  0
    3.0235   -3.9315   -0.1932 C   0  0  0  0  0  0  0  0  0  0  0  0
    3.6067   -2.6895   -0.5730 C   0  0  0  0  0  0  0  0  0  0  0  0
    3.0934   -1.3384   -0.4846 C   0  0  0  0  0  0  0  0  0  0  0  0
    1.7804   -0.9612    0.0289 C   0  0  0  0  0  0  0  0  0  0  0  0
    0.6278   -1.2916   -0.6926 C   0  0  0  0  0  0  0  0  0  0  0  0
   -0.6363   -0.9316   -0.2116 C   0  0  0  0  0  0  0  0  0  0  0  0
   -0.7561   -0.2417    0.9952 C   0  0  0  0  0  0  0  0  0  0  0  0
   -1.9259    0.1648    1.5751 O   0  0  0  0  0  0  0  0  0  0  0  0
   -3.1166    0.0412    0.7900 C   0  0  0  0  0  0  0  0  0  0  0  0
   -4.2815    0.6305    1.6024 C   0  0  0  0  0  0  0  0  0  0  0  0
   -5.5655    0.6010    0.8833 N   0  0  0  0  0  0  0  0  0  0  0  0
   -6.6927    0.7180    1.8370 C   0  0  0  0  0  0  0  0  0  0  0  0
   -7.9773    1.1988    1.1458 C   0  0  0  0  0  0  0  0  0  0  0  0
   -7.8542    2.5233    0.6083 O   0  0  0  0  0  0  0  0  0  0  0  0
   -6.5065    2.8638    0.2585 C   0  0  0  0  0  0  0  0  0  0  0  0
   -5.6657    1.6457   -0.1615 C   0  0  0  0  0  0  0  0  0  0  0  0
    0.3957    0.0743    1.7204 C   0  0  0  0  0  0  0  0  0  0  0  0
    1.6596   -0.2803    1.2427 C   0  0  0  0  0  0  0  0  0  0  0  0
    2.8861    1.6475   -1.8378 C   0  0  0  0  0  0  0  0  0  0  0  0
    2.7495    3.0390   -1.9156 C   0  0  0  0  0  0  0  0  0  0  0  0
    2.6381    6.9464   -1.7686 H   0  0  0  0  0  0  0  0  0  0  0  0
    2.6175    5.6569   -2.9781 H   0  0  0  0  0  0  0  0  0  0  0  0
    1.5531    5.5717   -1.5207 H   0  0  0  0  0  0  0  0  0  0  0  0
    5.2763    3.9344    0.1638 H   0  0  0  0  0  0  0  0  0  0  0  0
    5.5153    1.4870    0.3161 H   0  0  0  0  0  0  0  0  0  0  0  0
    6.5829   -3.9176   -1.7533 H   0  0  0  0  0  0  0  0  0  0  0  0
    5.5151   -6.0532   -1.0874 H   0  0  0  0  0  0  0  0  0  0  0  0
    1.7721   -7.5003    0.8097 H   0  0  0  0  0  0  0  0  0  0  0  0
    1.9891   -5.9067    1.5434 H   0  0  0  0  0  0  0  0  0  0  0  0
    1.1853   -6.0816   -0.0661 H   0  0  0  0  0  0  0  0  0  0  0  0
    2.0320   -3.9111    0.2457 H   0  0  0  0  0  0  0  0  0  0  0  0
    0.7065   -1.8273   -1.6361 H   0  0  0  0  0  0  0  0  0  0  0  0
   -1.5038   -1.2095   -0.8004 H   0  0  0  0  0  0  0  0  0  0  0  0
   -3.3226   -1.0168    0.5846 H   0  0  0  0  0  0  0  0  0  0  0  0
   -2.9910    0.5861   -0.1527 H   0  0  0  0  0  0  0  0  0  0  0  0
   -4.3577    0.0313    2.5207 H   0  0  0  0  0  0  0  0  0  0  0  0
   -4.0350    1.6476    1.9361 H   0  0  0  0  0  0  0  0  0  0  0  0
   -6.4454    1.4321    2.6338 H   0  0  0  0  0  0  0  0  0  0  0  0
   -6.8681   -0.2585    2.3016 H   0  0  0  0  0  0  0  0  0  0  0  0
   -8.2604    0.5230    0.3297 H   0  0  0  0  0  0  0  0  0  0  0  0
   -8.8074    1.2116    1.8595 H   0  0  0  0  0  0  0  0  0  0  0  0
   -6.5554    3.5868   -0.5625 H   0  0  0  0  0  0  0  0  0  0  0  0
   -6.0484    3.3750    1.1136 H   0  0  0  0  0  0  0  0  0  0  0  0
   -4.6820    1.9830   -0.5037 H   0  0  0  0  0  0  0  0  0  0  0  0
   -6.1510    1.1785   -1.0283 H   0  0  0  0  0  0  0  0  0  0  0  0
    0.3097    0.6077    2.6637 H   0  0  0  0  0  0  0  0  0  0  0  0
    2.5420   -0.0195    1.8219 H   0  0  0  0  0  0  0  0  0  0  0  0
    2.2084    1.0183   -2.4100 H   0  0  0  0  0  0  0  0  0  0  0  0
    1.9652    3.4380   -2.5493 H   0  0  0  0  0  0  0  0  0  0  0  0
  1  2  1  0
  2  3  1  0
  3  4  2  0
  4  5  1  0
  5  6  2  0
  6  7  1  0
  7  8  1  0
  8  9  1  0
  9 10  2  0
 10 11  1  0
 11 12  2  0
 12 13  1  0
 13 14  1  0
 12 15  1  0
 15 16  2  0
 16 17  1  0
 17 18  1  0
 18 19  2  0
 19 20  1  0
 20 21  2  0
 21 22  1  0
 22 23  1  0
 23 24  1  0
 24 25  1  0
 25 26  1  0
 26 27  1  0
 27 28  1  0
 28 29  1  0
 29 30  1  0
 21 31  1  0
 31 32  2  0
  6 33  1  0
 33 34  2  0
 34  3  1  0
 17  7  2  0
 32 18  1  0
 16  9  1  0
 30 25  1  0
  1 35  1  0
  1 36  1  0
  1 37  1  0
  4 38  1  0
  5 39  1  0
 10 40  1  0
 11 41  1  0
 14 42  1  0
 14 43  1  0
 14 44  1  0
 15 45  1  0
 19 46  1  0
 20 47  1  0
 23 48  1  0
 23 49  1  0
 24 50  1  0
 24 51  1  0
 26 52  1  0
 26 53  1  0
 27 54  1  0
 27 55  1  0
 29 56  1  0
 29 57  1  0
 30 58  1  0
 30 59  1  0
 31 60  1  0
 32 61  1  0
 33 62  1  0
 34 63  1  0
M  END
$$$$
