
     RDKit          3D

 61 67  0  0  0  0  0  0  0  0999 V2000
    3.3680   -3.2864   -0.9357 O   0  0  0  0  0  0  0  0  0  0  0  0
    3.0166   -2.1090   -0.9116 C   0  0  0  0  0  0  0  0  0  0  0  0
    4.0275   -1.0991   -0.5322 C   0  0  0  0  0  0  0  0  0  0  0  0
    5.2503   -1.0686   -1.2338 C   0  0  0  0  0  0  0  0  0  0  0  0
    6.2364   -0.1403   -0.8880 C   0  0  0  0  0  0  0  0  0  0  0  0
    5.9692    0.7163    0.1598 C   0  0  0  0  0  0  0  0  0  0  0  0
    4.7827    0.6678    0.8575 C   0  0  0  0  0  0  0  0  0  0  0  0
    3.7907   -0.2355    0.5458 C   0  0  0  0  0  0  0  0  0  0  0  0
    4.7291    1.5923    1.8534 O   0  0  0  0  0  0  0  0  0  0  0  0
    6.0172    2.2278    1.7049 C   0  0  0  0  0  0  0  0  0  0  0  0
    6.8077    1.6776    0.6314 O   0  0  0  0  0  0  0  0  0  0  0  0
    1.7181   -1.6927   -1.1972 N   0  0  0  0  0  0  0  0  0  0  0  0
    1.3354   -0.3421   -1.5785 C   0  0  0  0  0  0  0  0  0  0  0  0
    0.0762    0.1104   -0.8342 C   0  0  0  0  0  0  0  0  0  0  0  0
   -0.9386   -1.0416   -0.5431 C   0  0  0  0  0  0  0  0  0  0  0  0
   -0.6898   -2.1709   -1.5799 C   0  0  0  0  0  0  0  0  0  0  0  0
    0.7313   -2.7280   -1.4700 C   0  0  0  0  0  0  0  0  0  0  0  0
   -0.5981   -1.5143    0.7881 O   0  0  0  0  0  0  0  0  0  0  0  0
   -1.4797   -2.3877    1.3589 C   0  0  0  0  0  0  0  0  0  0  0  0
   -0.9879   -3.1565    2.4145 C   0  0  0  0  0  0  0  0  0  0  0  0
   -1.8182   -4.0853    3.0438 C   0  0  0  0  0  0  0  0  0  0  0  0
   -3.1343   -4.2334    2.6164 C   0  0  0  0  0  0  0  0  0  0  0  0
   -3.9263   -5.1255    3.2239 F   0  0  0  0  0  0  0  0  0  0  0  0
   -3.6410   -3.4657    1.5757 C   0  0  0  0  0  0  0  0  0  0  0  0
   -2.8065   -2.5334    0.9542 C   0  0  0  0  0  0  0  0  0  0  0  0
   -3.3199   -1.6729   -0.1280 C   0  0  0  0  0  0  0  0  0  0  0  0
   -4.4397   -1.8775   -0.5851 O   0  0  0  0  0  0  0  0  0  0  0  0
   -2.4051   -0.5286   -0.5538 C   0  0  0  0  0  0  0  0  0  0  0  0
   -2.6942    0.6546    0.3638 C   0  0  0  0  0  0  0  0  0  0  0  0
   -2.9017    1.7177   -0.6563 C   0  0  0  0  0  0  0  0  0  0  0  0
   -3.0590    3.1432   -0.2824 C   0  0  0  0  0  0  0  0  0  0  0  0
   -3.1747    4.1019   -1.2983 C   0  0  0  0  0  0  0  0  0  0  0  0
   -3.3172    5.4552   -0.9790 C   0  0  0  0  0  0  0  0  0  0  0  0
   -3.3460    5.8511    0.3560 C   0  0  0  0  0  0  0  0  0  0  0  0
   -3.5214    7.5157    0.7522 Cl  0  0  0  0  0  0  0  0  0  0  0  0
   -3.2358    4.9049    1.3741 C   0  0  0  0  0  0  0  0  0  0  0  0
   -3.0931    3.5497    1.0572 C   0  0  0  0  0  0  0  0  0  0  0  0
   -2.9262    1.3038   -1.8816 N   0  0  0  0  0  0  0  0  0  0  0  0
   -2.7710   -0.1001   -1.8699 O   0  0  0  0  0  0  0  0  0  0  0  0
    5.4269   -1.7739   -2.0439 H   0  0  0  0  0  0  0  0  0  0  0  0
    7.1812   -0.0989   -1.4184 H   0  0  0  0  0  0  0  0  0  0  0  0
    2.8706   -0.2775    1.1170 H   0  0  0  0  0  0  0  0  0  0  0  0
    5.8602    3.2951    1.5120 H   0  0  0  0  0  0  0  0  0  0  0  0
    6.5726    2.1181    2.6434 H   0  0  0  0  0  0  0  0  0  0  0  0
    1.1468   -0.3598   -2.6596 H   0  0  0  0  0  0  0  0  0  0  0  0
    2.1392    0.3825   -1.4338 H   0  0  0  0  0  0  0  0  0  0  0  0
    0.3838    0.5695    0.1145 H   0  0  0  0  0  0  0  0  0  0  0  0
   -0.3675    0.9066   -1.4386 H   0  0  0  0  0  0  0  0  0  0  0  0
   -1.3867   -3.0078   -1.4623 H   0  0  0  0  0  0  0  0  0  0  0  0
   -0.8511   -1.7790   -2.5927 H   0  0  0  0  0  0  0  0  0  0  0  0
    1.0082   -3.2335   -2.4029 H   0  0  0  0  0  0  0  0  0  0  0  0
    0.7890   -3.4751   -0.6691 H   0  0  0  0  0  0  0  0  0  0  0  0
    0.0450   -3.0452    2.7371 H   0  0  0  0  0  0  0  0  0  0  0  0
   -1.4465   -4.6979    3.8603 H   0  0  0  0  0  0  0  0  0  0  0  0
   -4.6741   -3.5947    1.2654 H   0  0  0  0  0  0  0  0  0  0  0  0
   -3.6133    0.5380    0.9479 H   0  0  0  0  0  0  0  0  0  0  0  0
   -1.8689    0.8939    1.0387 H   0  0  0  0  0  0  0  0  0  0  0  0
   -3.1577    3.8031   -2.3454 H   0  0  0  0  0  0  0  0  0  0  0  0
   -3.4074    6.1894   -1.7751 H   0  0  0  0  0  0  0  0  0  0  0  0
   -3.2636    5.2157    2.4158 H   0  0  0  0  0  0  0  0  0  0  0  0
   -3.0174    2.8362    1.8722 H   0  0  0  0  0  0  0  0  0  0  0  0
  1  2  2  0
  2  3  1  0
  3  4  2  0
  4  5  1  0
  5  6  2  0
  6  7  1  0
  7  8  2  0
  7  9  1  0
  9 10  1  0
 10 11  1  0
  2 12  1  0
 12 13  1  0
 13 14  1  0
 14 15  1  0
 15 16  1  0
 16 17  1  0
 15 18  1  0
 18 19  1  0
 19 20  2  0
 20 21  1  0
 21 22  2  0
 22 23  1  0
 22 24  1  0
 24 25  2  0
 25 26  1  0
 26 27  2  0
 26 28  1  0
 28 29  1  0
 29 30  1  0
 30 31  1  0
 31 32  2  0
 32 33  1  0
 33 34  2  0
 34 35  1  0
 34 36  1  0
 36 37  2  0
 30 38  2  0
 38 39  1  0
  8  3  1  0
 17 12  1  0
 25 19  1  0
 39 28  1  0
 11  6  1  0
 28 15  1  0
 37 31  1  0
  4 40  1  0
  5 41  1  0
  8 42  1  0
 10 43  1  0
 10 44  1  0
 13 45  1  0
 13 46  1  0
 14 47  1  0
 14 48  1  0
 16 49  1  0
 16 50  1  0
 17 51  1  0
 17 52  1  0
 20 53  1  0
 21 54  1  0
 24 55  1  0
 29 56  1  0
 29 57  1  0
 32 58  1  0
 33 59  1  0
 36 60  1  0
 37 61  1  0
M  END
$$$$
