
     RDKit          3D

 56 58  0  0  0  0  0  0  0  0999 V2000
    9.0667    2.9273   -0.4498 C   0  0  0  0  0  0  0  0  0  0  0  0
    8.1653    2.3030   -1.3551 O   0  0  0  0  0  0  0  0  0  0  0  0
    7.4947    1.2017   -0.8986 C   0  0  0  0  0  0  0  0  0  0  0  0
    7.6124    0.6355    0.3709 C   0  0  0  0  0  0  0  0  0  0  0  0
    6.8636   -0.4980    0.7093 C   0  0  0  0  0  0  0  0  0  0  0  0
    5.9935   -1.0842   -0.2195 C   0  0  0  0  0  0  0  0  0  0  0  0
    5.1706   -2.2907    0.1473 C   0  0  0  0  0  0  0  0  0  0  0  0
    3.8671   -1.9005    0.6166 N   0  0  0  0  0  0  0  0  0  0  0  0
    2.7638   -1.8830   -0.2023 C   0  0  0  0  0  0  0  0  0  0  0  0
    2.7022   -2.3060   -1.3486 O   0  0  0  0  0  0  0  0  0  0  0  0
    1.5163   -1.2535    0.4597 C   0  0  0  0  0  0  0  0  0  0  0  0
    1.5505   -0.9153    1.6342 O   0  0  0  0  0  0  0  0  0  0  0  0
    0.4364   -1.1507   -0.3849 N   0  0  0  0  0  0  0  0  0  0  0  0
   -0.8887   -0.8111    0.1051 C   0  0  0  0  0  0  0  0  0  0  0  0
   -1.8554   -0.4312   -1.0321 C   0  0  0  0  0  0  0  0  0  0  0  0
   -1.9117   -1.5294   -1.9754 O   0  0  0  0  0  0  0  0  0  0  0  0
   -3.2042   -2.1271   -1.8522 C   0  0  0  0  0  0  0  0  0  0  0  0
   -4.1050   -0.9932   -1.4246 C   0  0  0  0  0  0  0  0  0  0  0  0
   -3.2278   -0.2403   -0.5174 N   0  0  0  0  0  0  0  0  0  0  0  0
   -3.6220    1.3711   -0.2081 S   0  0  0  0  0  6  0  0  0  0  0  0
   -2.6638    1.8848    0.7447 O   0  0  0  0  0  0  0  0  0  0  0  0
   -3.8354    2.0253   -1.4808 O   0  0  0  0  0  0  0  0  0  0  0  0
   -5.1825    1.2231    0.6214 C   0  0  0  0  0  0  0  0  0  0  0  0
   -5.2076    0.7683    1.9421 C   0  0  0  0  0  0  0  0  0  0  0  0
   -6.4296    0.6529    2.6056 C   0  0  0  0  0  0  0  0  0  0  0  0
   -7.6253    0.9853    1.9539 C   0  0  0  0  0  0  0  0  0  0  0  0
   -8.9348    0.8977    2.6828 C   0  0  0  0  0  0  0  0  0  0  0  0
   -7.5812    1.4626    0.6357 C   0  0  0  0  0  0  0  0  0  0  0  0
   -6.3623    1.5817   -0.0341 C   0  0  0  0  0  0  0  0  0  0  0  0
    5.8718   -0.5043   -1.4882 C   0  0  0  0  0  0  0  0  0  0  0  0
    6.6198    0.6266   -1.8226 C   0  0  0  0  0  0  0  0  0  0  0  0
    9.5176    3.7821   -0.9635 H   0  0  0  0  0  0  0  0  0  0  0  0
    9.8755    2.2457   -0.1644 H   0  0  0  0  0  0  0  0  0  0  0  0
    8.5407    3.3090    0.4316 H   0  0  0  0  0  0  0  0  0  0  0  0
    8.2747    1.0518    1.1228 H   0  0  0  0  0  0  0  0  0  0  0  0
    6.9666   -0.9192    1.7070 H   0  0  0  0  0  0  0  0  0  0  0  0
    5.0820   -2.9640   -0.7127 H   0  0  0  0  0  0  0  0  0  0  0  0
    5.6553   -2.8543    0.9519 H   0  0  0  0  0  0  0  0  0  0  0  0
    3.7759   -1.4132    1.5034 H   0  0  0  0  0  0  0  0  0  0  0  0
    0.5160   -1.6457   -1.2719 H   0  0  0  0  0  0  0  0  0  0  0  0
   -0.8000   -0.0055    0.8404 H   0  0  0  0  0  0  0  0  0  0  0  0
   -1.2559   -1.6992    0.6335 H   0  0  0  0  0  0  0  0  0  0  0  0
   -1.4859    0.4379   -1.5868 H   0  0  0  0  0  0  0  0  0  0  0  0
   -3.5048   -2.5766   -2.8023 H   0  0  0  0  0  0  0  0  0  0  0  0
   -3.1499   -2.9103   -1.0883 H   0  0  0  0  0  0  0  0  0  0  0  0
   -5.0046   -1.3598   -0.9241 H   0  0  0  0  0  0  0  0  0  0  0  0
   -4.3833   -0.3889   -2.2948 H   0  0  0  0  0  0  0  0  0  0  0  0
   -4.2843    0.5120    2.4576 H   0  0  0  0  0  0  0  0  0  0  0  0
   -6.4440    0.3080    3.6382 H   0  0  0  0  0  0  0  0  0  0  0  0
   -8.9023    0.1211    3.4546 H   0  0  0  0  0  0  0  0  0  0  0  0
   -9.1632    1.8571    3.1573 H   0  0  0  0  0  0  0  0  0  0  0  0
   -9.7463    0.6379    1.9948 H   0  0  0  0  0  0  0  0  0  0  0  0
   -8.4991    1.7503    0.1263 H   0  0  0  0  0  0  0  0  0  0  0  0
   -6.3436    1.9580   -1.0550 H   0  0  0  0  0  0  0  0  0  0  0  0
    5.1894   -0.9282   -2.2232 H   0  0  0  0  0  0  0  0  0  0  0  0
    6.5163    1.0658   -2.8120 H   0  0  0  0  0  0  0  0  0  0  0  0
  1  2  1  0
  2  3  1  0
  3  4  2  0
  4  5  1  0
  5  6  2  0
  6  7  1  0
  7  8  1  0
  8  9  1  0
  9 10  2  0
  9 11  1  0
 11 12  2  0
 11 13  1  0
 13 14  1  0
 14 15  1  0
 15 16  1  0
 16 17  1  0
 17 18  1  0
 18 19  1  0
 19 20  1  0
 20 21  2  0
 20 22  2  0
 20 23  1  0
 23 24  2  0
 24 25  1  0
 25 26  2  0
 26 27  1  0
 26 28  1  0
 28 29  2  0
  6 30  1  0
 30 31  2  0
 31  3  1  0
 19 15  1  0
 29 23  1  0
  1 32  1  0
  1 33  1  0
  1 34  1  0
  4 35  1  0
  5 36  1  0
  7 37  1  0
  7 38  1  0
  8 39  1  0
 13 40  1  0
 14 41  1  0
 14 42  1  0
 15 43  1  0
 17 44  1  0
 17 45  1  0
 18 46  1  0
 18 47  1  0
 24 48  1  0
 25 49  1  0
 27 50  1  0
 27 51  1  0
 27 52  1  0
 28 53  1  0
 29 54  1  0
 30 55  1  0
 31 56  1  0
M  END
$$$$
