
     RDKit          3D

 61 67  0  0  0  0  0  0  0  0999 V2000
    3.0456    2.1646   -2.0016 O   0  0  0  0  0  0  0  0  0  0  0  0
    3.0693    1.2281   -1.2066 C   0  0  0  0  0  0  0  0  0  0  0  0
    4.3305    0.9737   -0.4749 C   0  0  0  0  0  0  0  0  0  0  0  0
    4.9357   -0.3011   -0.5121 C   0  0  0  0  0  0  0  0  0  0  0  0
    6.1376   -0.5294    0.1643 C   0  0  0  0  0  0  0  0  0  0  0  0
    6.7008    0.5311    0.8431 C   0  0  0  0  0  0  0  0  0  0  0  0
    6.1186    1.7787    0.8592 C   0  0  0  0  0  0  0  0  0  0  0  0
    4.9356    2.0387    0.2030 C   0  0  0  0  0  0  0  0  0  0  0  0
    6.8424    2.6780    1.5779 O   0  0  0  0  0  0  0  0  0  0  0  0
    7.9518    1.8594    2.0030 C   0  0  0  0  0  0  0  0  0  0  0  0
    7.8620    0.4922    1.5495 O   0  0  0  0  0  0  0  0  0  0  0  0
    1.9700    0.4011   -0.9709 N   0  0  0  0  0  0  0  0  0  0  0  0
    1.8335   -0.4668    0.2010 C   0  0  0  0  0  0  0  0  0  0  0  0
    0.3897   -0.5106    0.6926 C   0  0  0  0  0  0  0  0  0  0  0  0
   -0.5602   -1.0766   -0.3975 C   0  0  0  0  0  0  0  0  0  0  0  0
   -0.1156   -0.6214   -1.8153 C   0  0  0  0  0  0  0  0  0  0  0  0
    0.7880    0.6050   -1.7973 C   0  0  0  0  0  0  0  0  0  0  0  0
   -0.3237   -2.5130   -0.3123 O   0  0  0  0  0  0  0  0  0  0  0  0
   -1.2734   -3.3488   -0.8171 C   0  0  0  0  0  0  0  0  0  0  0  0
   -0.8982   -4.6848   -0.9616 C   0  0  0  0  0  0  0  0  0  0  0  0
   -1.7978   -5.6135   -1.4910 C   0  0  0  0  0  0  0  0  0  0  0  0
   -3.0747   -5.2027   -1.8725 C   0  0  0  0  0  0  0  0  0  0  0  0
   -4.1773   -6.3469   -2.5300 Cl  0  0  0  0  0  0  0  0  0  0  0  0
   -3.4622   -3.8744   -1.7212 C   0  0  0  0  0  0  0  0  0  0  0  0
   -2.5558   -2.9558   -1.1808 C   0  0  0  0  0  0  0  0  0  0  0  0
   -2.9437   -1.5532   -0.9884 C   0  0  0  0  0  0  0  0  0  0  0  0
   -3.9382   -1.1152   -1.5612 O   0  0  0  0  0  0  0  0  0  0  0  0
   -2.0416   -0.7259   -0.0781 C   0  0  0  0  0  0  0  0  0  0  0  0
   -2.3952    0.7526   -0.1611 C   0  0  0  0  0  0  0  0  0  0  0  0
   -3.3085    0.8368    1.0150 C   0  0  0  0  0  0  0  0  0  0  0  0
   -4.1739    2.0154    1.2563 C   0  0  0  0  0  0  0  0  0  0  0  0
   -5.0646    1.9917    2.3370 C   0  0  0  0  0  0  0  0  0  0  0  0
   -5.8900    3.0881    2.5937 C   0  0  0  0  0  0  0  0  0  0  0  0
   -5.8287    4.2132    1.7738 C   0  0  0  0  0  0  0  0  0  0  0  0
   -4.9429    4.2441    0.6976 C   0  0  0  0  0  0  0  0  0  0  0  0
   -4.1149    3.1486    0.4371 C   0  0  0  0  0  0  0  0  0  0  0  0
   -3.2542   -0.1786    1.8176 N   0  0  0  0  0  0  0  0  0  0  0  0
   -2.3402   -1.1068    1.2753 O   0  0  0  0  0  0  0  0  0  0  0  0
    4.4779   -1.1068   -1.0807 H   0  0  0  0  0  0  0  0  0  0  0  0
    6.6186   -1.5010    0.1488 H   0  0  0  0  0  0  0  0  0  0  0  0
    4.4943    3.0292    0.2098 H   0  0  0  0  0  0  0  0  0  0  0  0
    7.9906    1.8632    3.0983 H   0  0  0  0  0  0  0  0  0  0  0  0
    8.8795    2.2970    1.6164 H   0  0  0  0  0  0  0  0  0  0  0  0
    2.4773   -0.1094    1.0106 H   0  0  0  0  0  0  0  0  0  0  0  0
    2.1744   -1.4673   -0.0877 H   0  0  0  0  0  0  0  0  0  0  0  0
    0.1015    0.5020    0.9932 H   0  0  0  0  0  0  0  0  0  0  0  0
    0.3486   -1.1355    1.5938 H   0  0  0  0  0  0  0  0  0  0  0  0
   -0.9816   -0.4112   -2.4534 H   0  0  0  0  0  0  0  0  0  0  0  0
    0.4282   -1.4366   -2.3122 H   0  0  0  0  0  0  0  0  0  0  0  0
    0.2582    1.4814   -1.4086 H   0  0  0  0  0  0  0  0  0  0  0  0
    1.0985    0.8478   -2.8202 H   0  0  0  0  0  0  0  0  0  0  0  0
    0.0985   -5.0053   -0.6675 H   0  0  0  0  0  0  0  0  0  0  0  0
   -1.4967   -6.6522   -1.6037 H   0  0  0  0  0  0  0  0  0  0  0  0
   -4.4615   -3.5557   -2.0091 H   0  0  0  0  0  0  0  0  0  0  0  0
   -1.5524    1.4210    0.0267 H   0  0  0  0  0  0  0  0  0  0  0  0
   -2.8789    1.0454   -1.0957 H   0  0  0  0  0  0  0  0  0  0  0  0
   -5.1241    1.1190    2.9846 H   0  0  0  0  0  0  0  0  0  0  0  0
   -6.5806    3.0615    3.4330 H   0  0  0  0  0  0  0  0  0  0  0  0
   -6.4727    5.0663    1.9736 H   0  0  0  0  0  0  0  0  0  0  0  0
   -4.8976    5.1236    0.0596 H   0  0  0  0  0  0  0  0  0  0  0  0
   -3.4350    3.2076   -0.4070 H   0  0  0  0  0  0  0  0  0  0  0  0
  1  2  2  0
  2  3  1  0
  3  4  2  0
  4  5  1  0
  5  6  2  0
  6  7  1  0
  7  8  2  0
  7  9  1  0
  9 10  1  0
 10 11  1  0
  2 12  1  0
 12 13  1  0
 13 14  1  0
 14 15  1  0
 15 16  1  0
 16 17  1  0
 15 18  1  0
 18 19  1  0
 19 20  2  0
 20 21  1  0
 21 22  2  0
 22 23  1  0
 22 24  1  0
 24 25  2  0
 25 26  1  0
 26 27  2  0
 26 28  1  0
 28 29  1  0
 29 30  1  0
 30 31  1  0
 31 32  2  0
 32 33  1  0
 33 34  2  0
 34 35  1  0
 35 36  2  0
 30 37  2  0
 37 38  1  0
  8  3  1  0
 17 12  1  0
 25 19  1  0
 38 28  1  0
 11  6  1  0
 28 15  1  0
 36 31  1  0
  4 39  1  0
  5 40  1  0
  8 41  1  0
 10 42  1  0
 10 43  1  0
 13 44  1  0
 13 45  1  0
 14 46  1  0
 14 47  1  0
 16 48  1  0
 16 49  1  0
 17 50  1  0
 17 51  1  0
 20 52  1  0
 21 53  1  0
 24 54  1  0
 29 55  1  0
 29 56  1  0
 32 57  1  0
 33 58  1  0
 34 59  1  0
 35 60  1  0
 36 61  1  0
M  END
$$$$
