
     RDKit          3D

 53 55  0  0  0  0  0  0  0  0999 V2000
   -5.5978   -3.3204   -1.3511 C   0  0  0  0  0  0  0  0  0  0  0  0
   -5.3495   -2.6048   -0.1477 O   0  0  0  0  0  0  0  0  0  0  0  0
   -5.5834   -1.2536   -0.1583 C   0  0  0  0  0  0  0  0  0  0  0  0
   -6.1326   -0.5491   -1.2351 C   0  0  0  0  0  0  0  0  0  0  0  0
   -6.3180    0.8337   -1.1586 C   0  0  0  0  0  0  0  0  0  0  0  0
   -5.9506    1.5271   -0.0089 C   0  0  0  0  0  0  0  0  0  0  0  0
   -5.4070    0.8352    1.0701 C   0  0  0  0  0  0  0  0  0  0  0  0
   -5.2321   -0.5595    1.0153 C   0  0  0  0  0  0  0  0  0  0  0  0
   -4.6323   -1.2704    2.2038 C   0  0  0  0  0  0  0  0  0  0  0  0
   -3.2114   -1.4438    2.0485 N   0  0  0  0  0  0  0  0  0  0  0  0
   -2.3052   -0.5021    2.4705 C   0  0  0  0  0  0  0  0  0  0  0  0
   -2.5509    0.5019    3.1255 O   0  0  0  0  0  0  0  0  0  0  0  0
   -0.8547   -0.7961    2.0222 C   0  0  0  0  0  0  0  0  0  0  0  0
   -0.6023   -1.7770    1.3379 O   0  0  0  0  0  0  0  0  0  0  0  0
    0.0546    0.1471    2.4409 N   0  0  0  0  0  0  0  0  0  0  0  0
    1.4301    0.1479    1.9689 C   0  0  0  0  0  0  0  0  0  0  0  0
    1.5679    0.5053    0.4682 C   0  0  0  0  0  0  0  0  0  0  0  0
    0.8763    1.7668    0.2608 O   0  0  0  0  0  0  0  0  0  0  0  0
    1.7465    2.6149   -0.4928 C   0  0  0  0  0  0  0  0  0  0  0  0
    3.1362    2.1672   -0.1100 C   0  0  0  0  0  0  0  0  0  0  0  0
    2.9514    0.7153   -0.0251 N   0  0  0  0  0  0  0  0  0  0  0  0
    4.1780   -0.2181    0.6333 S   0  0  0  0  0  6  0  0  0  0  0  0
    3.7971   -1.6092    0.5222 O   0  0  0  0  0  0  0  0  0  0  0  0
    4.5366    0.3656    1.9084 O   0  0  0  0  0  0  0  0  0  0  0  0
    5.5163    0.0571   -0.5031 C   0  0  0  0  0  0  0  0  0  0  0  0
    5.4707   -0.5477   -1.7650 C   0  0  0  0  0  0  0  0  0  0  0  0
    6.5195   -0.3445   -2.6641 C   0  0  0  0  0  0  0  0  0  0  0  0
    7.6022    0.4550   -2.2928 C   0  0  0  0  0  0  0  0  0  0  0  0
    9.0213    0.7309   -3.5122 Br  0  0  0  0  0  0  0  0  0  0  0  0
    7.6511    1.0498   -1.0293 C   0  0  0  0  0  0  0  0  0  0  0  0
    6.6061    0.8477   -0.1253 C   0  0  0  0  0  0  0  0  0  0  0  0
   -6.6618   -3.3008   -1.6077 H   0  0  0  0  0  0  0  0  0  0  0  0
   -4.9827   -2.9390   -2.1736 H   0  0  0  0  0  0  0  0  0  0  0  0
   -5.3167   -4.3640   -1.1822 H   0  0  0  0  0  0  0  0  0  0  0  0
   -6.4290   -1.0467   -2.1527 H   0  0  0  0  0  0  0  0  0  0  0  0
   -6.7454    1.3716   -2.0000 H   0  0  0  0  0  0  0  0  0  0  0  0
   -6.0850    2.6035    0.0479 H   0  0  0  0  0  0  0  0  0  0  0  0
   -5.1105    1.3866    1.9615 H   0  0  0  0  0  0  0  0  0  0  0  0
   -5.0817   -2.2619    2.3358 H   0  0  0  0  0  0  0  0  0  0  0  0
   -4.8352   -0.7100    3.1245 H   0  0  0  0  0  0  0  0  0  0  0  0
   -2.8758   -2.1367    1.3842 H   0  0  0  0  0  0  0  0  0  0  0  0
   -0.3440    1.0037    2.8209 H   0  0  0  0  0  0  0  0  0  0  0  0
    1.9535    0.8863    2.5862 H   0  0  0  0  0  0  0  0  0  0  0  0
    1.8486   -0.8421    2.1750 H   0  0  0  0  0  0  0  0  0  0  0  0
    1.0735   -0.2418   -0.1622 H   0  0  0  0  0  0  0  0  0  0  0  0
    1.5471    2.4476   -1.5569 H   0  0  0  0  0  0  0  0  0  0  0  0
    1.5538    3.6636   -0.2530 H   0  0  0  0  0  0  0  0  0  0  0  0
    3.8717    2.4584   -0.8644 H   0  0  0  0  0  0  0  0  0  0  0  0
    3.4129    2.5775    0.8669 H   0  0  0  0  0  0  0  0  0  0  0  0
    4.6282   -1.1769   -2.0470 H   0  0  0  0  0  0  0  0  0  0  0  0
    6.4887   -0.8165   -3.6421 H   0  0  0  0  0  0  0  0  0  0  0  0
    8.5031    1.6636   -0.7355 H   0  0  0  0  0  0  0  0  0  0  0  0
    6.6529    1.3021    0.8637 H   0  0  0  0  0  0  0  0  0  0  0  0
  1  2  1  0
  2  3  1  0
  3  4  2  0
  4  5  1  0
  5  6  2  0
  6  7  1  0
  7  8  2  0
  8  9  1  0
  9 10  1  0
 10 11  1  0
 11 12  2  0
 11 13  1  0
 13 14  2  0
 13 15  1  0
 15 16  1  0
 16 17  1  0
 17 18  1  0
 18 19  1  0
 19 20  1  0
 20 21  1  0
 21 22  1  0
 22 23  2  0
 22 24  2  0
 22 25  1  0
 25 26  2  0
 26 27  1  0
 27 28  2  0
 28 29  1  0
 28 30  1  0
 30 31  2  0
  8  3  1  0
 21 17  1  0
 31 25  1  0
  1 32  1  0
  1 33  1  0
  1 34  1  0
  4 35  1  0
  5 36  1  0
  6 37  1  0
  7 38  1  0
  9 39  1  0
  9 40  1  0
 10 41  1  0
 15 42  1  0
 16 43  1  0
 16 44  1  0
 17 45  1  0
 19 46  1  0
 19 47  1  0
 20 48  1  0
 20 49  1  0
 26 50  1  0
 27 51  1  0
 30 52  1  0
 31 53  1  0
M  END
$$$$
