
     RDKit          3D

 31 32  0  0  0  0  0  0  0  0999 V2000
   -3.3556    2.2077    0.0239 C   0  0  0  0  0  0  0  0  0  0  0  0
   -3.2331    0.7205    0.2254 C   0  0  0  0  0  0  0  0  0  0  0  0
   -4.2556    0.0670    0.4486 O   0  0  0  0  0  0  0  0  0  0  0  0
   -1.9078    0.0760    0.1488 C   0  0  0  0  0  0  0  0  0  0  0  0
   -1.7313   -1.3036    0.0880 C   0  0  0  0  0  0  0  0  0  0  0  0
   -2.7222   -2.4153    0.0870 C   0  0  0  0  0  0  0  0  0  0  0  0
   -0.3902   -1.5625    0.0119 N   0  0  0  0  0  0  0  0  0  0  0  0
    0.3273   -0.3948    0.0174 C   0  0  0  0  0  0  0  0  0  0  0  0
    1.7847   -0.4049   -0.0829 C   0  0  0  0  0  0  0  0  0  0  0  0
    2.5582   -1.0559    0.8862 C   0  0  0  0  0  0  0  0  0  0  0  0
    3.9509   -1.0742    0.7822 C   0  0  0  0  0  0  0  0  0  0  0  0
    4.5787   -0.4442   -0.2917 C   0  0  0  0  0  0  0  0  0  0  0  0
    3.8161    0.2056   -1.2613 C   0  0  0  0  0  0  0  0  0  0  0  0
    2.4237    0.2251   -1.1574 C   0  0  0  0  0  0  0  0  0  0  0  0
   -0.5812    0.6538    0.1228 C   0  0  0  0  0  0  0  0  0  0  0  0
   -0.2136    2.0972    0.2165 C   0  0  0  0  0  0  0  0  0  0  0  0
   -2.8371    2.5142   -0.8873 H   0  0  0  0  0  0  0  0  0  0  0  0
   -4.4121    2.4697   -0.0935 H   0  0  0  0  0  0  0  0  0  0  0  0
   -2.9691    2.7391    0.8958 H   0  0  0  0  0  0  0  0  0  0  0  0
   -3.2656   -2.4435    1.0366 H   0  0  0  0  0  0  0  0  0  0  0  0
   -3.4419   -2.2893   -0.7282 H   0  0  0  0  0  0  0  0  0  0  0  0
   -2.2354   -3.3870   -0.0479 H   0  0  0  0  0  0  0  0  0  0  0  0
    0.0222   -2.4835   -0.0600 H   0  0  0  0  0  0  0  0  0  0  0  0
    2.0824   -1.5389    1.7364 H   0  0  0  0  0  0  0  0  0  0  0  0
    4.5453   -1.5761    1.5415 H   0  0  0  0  0  0  0  0  0  0  0  0
    5.6625   -0.4577   -0.3720 H   0  0  0  0  0  0  0  0  0  0  0  0
    4.3047    0.6967   -2.0992 H   0  0  0  0  0  0  0  0  0  0  0  0
    1.8381    0.7284   -1.9232 H   0  0  0  0  0  0  0  0  0  0  0  0
   -0.7129    2.5678    1.0682 H   0  0  0  0  0  0  0  0  0  0  0  0
    0.8609    2.2382    0.3686 H   0  0  0  0  0  0  0  0  0  0  0  0
   -0.4909    2.6244   -0.7010 H   0  0  0  0  0  0  0  0  0  0  0  0
  1  2  1  0
  2  3  2  0
  2  4  1  0
  4  5  2  0
  5  6  1  0
  5  7  1  0
  7  8  1  0
  8  9  1  0
  9 10  2  0
 10 11  1  0
 11 12  2  0
 12 13  1  0
 13 14  2  0
  8 15  2  0
 15 16  1  0
 15  4  1  0
 14  9  1  0
  1 17  1  0
  1 18  1  0
  1 19  1  0
  6 20  1  0
  6 21  1  0
  6 22  1  0
  7 23  1  0
 10 24  1  0
 11 25  1  0
 12 26  1  0
 13 27  1  0
 14 28  1  0
 16 29  1  0
 16 30  1  0
 16 31  1  0
M  END
$$$$
