
     RDKit          3D

 43 45  0  0  0  0  0  0  0  0999 V2000
    6.0830    3.0077   -0.7879 C   0  0  0  0  0  0  0  0  0  0  0  0
    5.9325    1.5936   -0.8292 O   0  0  0  0  0  0  0  0  0  0  0  0
    4.7435    1.0859   -0.3811 C   0  0  0  0  0  0  0  0  0  0  0  0
    3.6852    1.8232    0.1435 C   0  0  0  0  0  0  0  0  0  0  0  0
    2.5179    1.1776    0.5687 C   0  0  0  0  0  0  0  0  0  0  0  0
    2.3825   -0.2097    0.4655 C   0  0  0  0  0  0  0  0  0  0  0  0
    1.2407   -0.9217    0.9061 N   0  0  0  0  0  0  0  0  0  0  0  0
   -0.0349   -0.4658    1.1173 C   0  0  0  0  0  0  0  0  0  0  0  0
   -0.4404    0.7512    0.9270 N   0  0  0  0  0  0  0  0  0  0  0  0
   -1.7702    0.9704    1.2075 C   0  0  0  0  0  0  0  0  0  0  0  0
   -2.2748    2.0871    1.1503 O   0  0  0  0  0  0  0  0  0  0  0  0
   -2.6783   -0.1763    1.6460 C   0  0  0  0  0  0  0  0  0  0  0  0
   -4.1410    0.1144    1.8457 C   0  0  0  0  0  0  0  0  0  0  0  0
   -4.9219   -0.0026    0.5606 C   0  0  0  0  0  0  0  0  0  0  0  0
   -5.3504   -1.2565    0.1029 C   0  0  0  0  0  0  0  0  0  0  0  0
   -6.0538   -1.3687   -1.0972 C   0  0  0  0  0  0  0  0  0  0  0  0
   -6.3298   -0.2313   -1.8534 C   0  0  0  0  0  0  0  0  0  0  0  0
   -5.9005    1.0187   -1.4119 C   0  0  0  0  0  0  0  0  0  0  0  0
   -5.1977    1.1336   -0.2116 C   0  0  0  0  0  0  0  0  0  0  0  0
   -2.1948   -1.3730    1.8331 N   0  0  0  0  0  0  0  0  0  0  0  0
   -0.8617   -1.4790    1.5652 N   0  0  0  0  0  0  0  0  0  0  0  0
    3.4686   -0.9546   -0.0510 C   0  0  0  0  0  0  0  0  0  0  0  0
    3.2630   -2.3172   -0.0983 O   0  0  0  0  0  0  0  0  0  0  0  0
    4.3238   -3.1071   -0.6246 C   0  0  0  0  0  0  0  0  0  0  0  0
    4.6325   -0.3043   -0.4727 C   0  0  0  0  0  0  0  0  0  0  0  0
    7.0701    3.2503   -1.1933 H   0  0  0  0  0  0  0  0  0  0  0  0
    6.0460    3.3780    0.2418 H   0  0  0  0  0  0  0  0  0  0  0  0
    5.3346    3.5035   -1.4149 H   0  0  0  0  0  0  0  0  0  0  0  0
    3.7291    2.9028    0.2433 H   0  0  0  0  0  0  0  0  0  0  0  0
    1.7233    1.7874    0.9894 H   0  0  0  0  0  0  0  0  0  0  0  0
    1.3440   -1.9041    0.6713 H   0  0  0  0  0  0  0  0  0  0  0  0
   -4.5439   -0.5959    2.5789 H   0  0  0  0  0  0  0  0  0  0  0  0
   -4.2722    1.1063    2.2922 H   0  0  0  0  0  0  0  0  0  0  0  0
   -5.1348   -2.1548    0.6781 H   0  0  0  0  0  0  0  0  0  0  0  0
   -6.3836   -2.3446   -1.4438 H   0  0  0  0  0  0  0  0  0  0  0  0
   -6.8757   -0.3190   -2.7890 H   0  0  0  0  0  0  0  0  0  0  0  0
   -6.1089    1.9061   -2.0040 H   0  0  0  0  0  0  0  0  0  0  0  0
   -4.8615    2.1172    0.1131 H   0  0  0  0  0  0  0  0  0  0  0  0
   -0.4229   -2.3575    1.8276 H   0  0  0  0  0  0  0  0  0  0  0  0
    5.2253   -3.0176   -0.0097 H   0  0  0  0  0  0  0  0  0  0  0  0
    4.0050   -4.1536   -0.5959 H   0  0  0  0  0  0  0  0  0  0  0  0
    4.5264   -2.8503   -1.6696 H   0  0  0  0  0  0  0  0  0  0  0  0
    5.4770   -0.8500   -0.8796 H   0  0  0  0  0  0  0  0  0  0  0  0
  1  2  1  0
  2  3  1  0
  3  4  2  0
  4  5  1  0
  5  6  2  0
  6  7  1  0
  7  8  1  0
  8  9  2  0
  9 10  1  0
 10 11  2  0
 10 12  1  0
 12 13  1  0
 13 14  1  0
 14 15  2  0
 15 16  1  0
 16 17  2  0
 17 18  1  0
 18 19  2  0
 12 20  2  0
 20 21  1  0
  6 22  1  0
 22 23  1  0
 23 24  1  0
 22 25  2  0
 25  3  1  0
 21  8  1  0
 19 14  1  0
  1 26  1  0
  1 27  1  0
  1 28  1  0
  4 29  1  0
  5 30  1  0
  7 31  1  0
 13 32  1  0
 13 33  1  0
 15 34  1  0
 16 35  1  0
 17 36  1  0
 18 37  1  0
 19 38  1  0
 21 39  1  0
 24 40  1  0
 24 41  1  0
 24 42  1  0
 25 43  1  0
M  END
$$$$
