
     RDKit          3D

 56 59  0  0  0  0  0  0  0  0999 V2000
    4.5196    4.7356   -1.8650 C   0  0  0  0  0  0  0  0  0  0  0  0
    5.5090    3.8010   -1.1908 C   0  0  0  0  0  0  0  0  0  0  0  0
    4.9716    3.2824    0.0241 O   0  0  0  0  0  0  0  0  0  0  0  0
    4.2343    2.1328   -0.0166 C   0  0  0  0  0  0  0  0  0  0  0  0
    3.8501    1.4340   -1.1601 C   0  0  0  0  0  0  0  0  0  0  0  0
    3.0871    0.2648   -1.0499 C   0  0  0  0  0  0  0  0  0  0  0  0
    2.7043   -0.2174    0.2060 C   0  0  0  0  0  0  0  0  0  0  0  0
    1.9090   -1.4326    0.3166 C   0  0  0  0  0  0  0  0  0  0  0  0
    0.5307   -1.5960    0.3539 C   0  0  0  0  0  0  0  0  0  0  0  0
   -0.5145   -0.5766    0.2944 C   0  0  0  0  0  0  0  0  0  0  0  0
   -0.2727    0.6231    0.2076 O   0  0  0  0  0  0  0  0  0  0  0  0
   -1.7863   -1.1327    0.3422 N   0  0  0  0  0  0  0  0  0  0  0  0
   -2.8899   -0.3393    0.2918 N   0  0  0  0  0  0  0  0  0  0  0  0
   -4.0641   -0.8964    0.2636 C   0  0  0  0  0  0  0  0  0  0  0  0
   -4.3182   -2.3853    0.2903 C   0  0  0  0  0  0  0  0  0  0  0  0
   -5.2584   -0.0215    0.2142 C   0  0  0  0  0  0  0  0  0  0  0  0
   -6.1765   -0.0693    1.2696 C   0  0  0  0  0  0  0  0  0  0  0  0
   -7.3049    0.7525    1.2430 C   0  0  0  0  0  0  0  0  0  0  0  0
   -7.5184    1.6136    0.1649 C   0  0  0  0  0  0  0  0  0  0  0  0
   -6.6025    1.6609   -0.8881 C   0  0  0  0  0  0  0  0  0  0  0  0
   -5.4624    0.8557   -0.8557 C   0  0  0  0  0  0  0  0  0  0  0  0
   -4.6101    0.8649   -1.9279 O   0  0  0  0  0  0  0  0  0  0  0  0
   -3.7397    1.9977   -1.8598 C   0  0  0  0  0  0  0  0  0  0  0  0
    0.2347   -2.9315    0.4592 N   0  0  0  0  0  0  0  0  0  0  0  0
    1.3681   -3.6074    0.4887 N   0  0  0  0  0  0  0  0  0  0  0  0
    2.4157   -2.7320    0.4018 N   0  0  0  0  0  0  0  0  0  0  0  0
    3.7593   -3.1869    0.4200 C   0  0  0  0  0  0  0  0  0  0  0  0
    4.7825   -2.3331    0.3825 N   0  0  0  0  0  0  0  0  0  0  0  0
    5.9104   -3.1486    0.4349 O   0  0  0  0  0  0  0  0  0  0  0  0
    5.5585   -4.4925    0.5053 N   0  0  0  0  0  0  0  0  0  0  0  0
    4.2266   -4.5133    0.4879 C   0  0  0  0  0  0  0  0  0  0  0  0
    3.4864   -5.6375    0.5284 N   0  0  0  0  0  0  0  0  0  0  0  0
    3.0760    0.4907    1.3514 C   0  0  0  0  0  0  0  0  0  0  0  0
    3.8376    1.6566    1.2359 C   0  0  0  0  0  0  0  0  0  0  0  0
    4.2165    5.5326   -1.1778 H   0  0  0  0  0  0  0  0  0  0  0  0
    3.6073    4.2088   -2.1603 H   0  0  0  0  0  0  0  0  0  0  0  0
    4.9627    5.1897   -2.7559 H   0  0  0  0  0  0  0  0  0  0  0  0
    5.8670    3.0133   -1.8629 H   0  0  0  0  0  0  0  0  0  0  0  0
    6.3960    4.3815   -0.9127 H   0  0  0  0  0  0  0  0  0  0  0  0
    4.1137    1.7723   -2.1557 H   0  0  0  0  0  0  0  0  0  0  0  0
    2.7922   -0.2581   -1.9565 H   0  0  0  0  0  0  0  0  0  0  0  0
   -1.8742   -2.1417    0.3867 H   0  0  0  0  0  0  0  0  0  0  0  0
   -5.3830   -2.6139    0.1903 H   0  0  0  0  0  0  0  0  0  0  0  0
   -3.7918   -2.8623   -0.5418 H   0  0  0  0  0  0  0  0  0  0  0  0
   -3.9577   -2.8004    1.2359 H   0  0  0  0  0  0  0  0  0  0  0  0
   -6.0131   -0.7294    2.1171 H   0  0  0  0  0  0  0  0  0  0  0  0
   -8.0188    0.7230    2.0627 H   0  0  0  0  0  0  0  0  0  0  0  0
   -8.4024    2.2465    0.1419 H   0  0  0  0  0  0  0  0  0  0  0  0
   -6.7829    2.3171   -1.7350 H   0  0  0  0  0  0  0  0  0  0  0  0
   -4.2676    2.9000   -2.1862 H   0  0  0  0  0  0  0  0  0  0  0  0
   -3.3255    2.1473   -0.8564 H   0  0  0  0  0  0  0  0  0  0  0  0
   -2.9083    1.8222   -2.5488 H   0  0  0  0  0  0  0  0  0  0  0  0
    2.4844   -5.6062    0.7073 H   0  0  0  0  0  0  0  0  0  0  0  0
    3.9341   -6.5126    0.7799 H   0  0  0  0  0  0  0  0  0  0  0  0
    2.7771    0.1512    2.3395 H   0  0  0  0  0  0  0  0  0  0  0  0
    4.1217    2.2027    2.1323 H   0  0  0  0  0  0  0  0  0  0  0  0
  1  2  1  0
  2  3  1  0
  3  4  1  0
  4  5  2  0
  5  6  1  0
  6  7  2  0
  7  8  1  0
  8  9  2  0
  9 10  1  0
 10 11  2  0
 10 12  1  0
 12 13  1  0
 13 14  2  3
 14 15  1  0
 14 16  1  0
 16 17  2  0
 17 18  1  0
 18 19  2  0
 19 20  1  0
 20 21  2  0
 21 22  1  0
 22 23  1  0
  9 24  1  0
 24 25  2  0
 25 26  1  0
 26 27  1  0
 27 28  2  0
 28 29  1  0
 29 30  1  0
 30 31  2  0
 31 32  1  0
  7 33  1  0
 33 34  2  0
 34  4  1  0
 26  8  1  0
 31 27  1  0
 21 16  1  0
  1 35  1  0
  1 36  1  0
  1 37  1  0
  2 38  1  0
  2 39  1  0
  5 40  1  0
  6 41  1  0
 12 42  1  0
 15 43  1  0
 15 44  1  0
 15 45  1  0
 17 46  1  0
 18 47  1  0
 19 48  1  0
 20 49  1  0
 23 50  1  0
 23 51  1  0
 23 52  1  0
 32 53  1  0
 32 54  1  0
 33 55  1  0
 34 56  1  0
M  END
$$$$
