
     RDKit          3D

 24 26  0  0  0  0  0  0  0  0999 V2000
   -4.3910   -1.3598   -1.4315 F   0  0  0  0  0  0  0  0  0  0  0  0
   -3.2689   -0.7715   -1.0024 C   0  0  0  0  0  0  0  0  0  0  0  0
   -3.1313   -0.4576    0.3447 C   0  0  0  0  0  0  0  0  0  0  0  0
   -1.9600    0.1547    0.7962 C   0  0  0  0  0  0  0  0  0  0  0  0
   -0.9288    0.4469   -0.1090 C   0  0  0  0  0  0  0  0  0  0  0  0
    0.2946    1.0620    0.3572 C   0  0  0  0  0  0  0  0  0  0  0  0
    0.3771    2.3662    0.8116 C   0  0  0  0  0  0  0  0  0  0  0  0
    2.0108    2.7403    1.2596 S   0  0  0  0  0  0  0  0  0  0  0  0
    2.5124    1.1810    0.8530 C   0  0  0  0  0  0  0  0  0  0  0  0
    1.5228    0.4468    0.4120 N   0  0  0  0  0  4  0  0  0  0  0  0
    1.8798   -0.9103    0.0230 C   0  0  0  0  0  0  0  0  0  0  0  0
    3.2546   -1.2307    0.6338 C   0  0  0  0  0  0  0  0  0  0  0  0
    4.0464    0.3958    0.9341 S   0  0  0  0  0  0  0  0  0  0  0  0
   -1.0821    0.1290   -1.4669 C   0  0  0  0  0  0  0  0  0  0  0  0
   -2.2569   -0.4823   -1.9109 C   0  0  0  0  0  0  0  0  0  0  0  0
   -3.9419   -0.6896    1.0312 H   0  0  0  0  0  0  0  0  0  0  0  0
   -1.8732    0.3955    1.8548 H   0  0  0  0  0  0  0  0  0  0  0  0
   -0.4019    3.1144    0.8959 H   0  0  0  0  0  0  0  0  0  0  0  0
    1.9284   -0.9508   -1.0718 H   0  0  0  0  0  0  0  0  0  0  0  0
    1.1260   -1.6247    0.3689 H   0  0  0  0  0  0  0  0  0  0  0  0
    3.8608   -1.8598   -0.0231 H   0  0  0  0  0  0  0  0  0  0  0  0
    3.1337   -1.7339    1.5983 H   0  0  0  0  0  0  0  0  0  0  0  0
   -0.3120    0.3666   -2.1986 H   0  0  0  0  0  0  0  0  0  0  0  0
   -2.3993   -0.7282   -2.9603 H   0  0  0  0  0  0  0  0  0  0  0  0
  1  2  1  0
  2  3  2  0
  3  4  1  0
  4  5  2  0
  5  6  1  0
  6  7  2  0
  7  8  1  0
  8  9  1  0
  9 10  2  0
 10 11  1  0
 11 12  1  0
 12 13  1  0
  5 14  1  0
 14 15  2  0
 15  2  1  0
 10  6  1  0
 13  9  1  0
  3 16  1  0
  4 17  1  0
  7 18  1  0
 11 19  1  0
 11 20  1  0
 12 21  1  0
 12 22  1  0
 14 23  1  0
 15 24  1  0
M  CHG  1  10   1
M  END
$$$$
