
     RDKit          3D

 46 49  0  0  0  0  0  0  0  0999 V2000
   -7.2808   -0.4158   -0.0111 C   0  0  0  0  0  0  0  0  0  0  0  0
   -6.0881    0.3148   -0.6017 C   0  0  0  0  0  0  0  0  0  0  0  0
   -4.9047   -0.2856   -0.0837 O   0  0  0  0  0  0  0  0  0  0  0  0
   -3.6977    0.2311   -0.4796 C   0  0  0  0  0  0  0  0  0  0  0  0
   -3.5416    1.2918   -1.3713 C   0  0  0  0  0  0  0  0  0  0  0  0
   -2.2661    1.7404   -1.7070 C   0  0  0  0  0  0  0  0  0  0  0  0
   -1.1378    1.1304   -1.1543 C   0  0  0  0  0  0  0  0  0  0  0  0
   -1.2440    0.0538   -0.2497 C   0  0  0  0  0  0  0  0  0  0  0  0
   -0.0230   -0.5674    0.3068 C   0  0  0  0  0  0  0  0  0  0  0  0
   -0.1548   -1.7793    0.9052 N   0  0  0  0  0  0  0  0  0  0  0  0
    0.9849   -2.3425    1.3868 C   0  0  0  0  0  0  0  0  0  0  0  0
    0.8725   -3.6962    1.9988 C   0  0  0  0  0  0  0  0  0  0  0  0
   -0.3569   -4.2950    1.9260 N   0  0  0  0  0  0  0  0  0  0  0  0
    1.8274   -4.2532    2.5262 O   0  0  0  0  0  0  0  0  0  0  0  0
    2.1910   -1.7131    1.3037 C   0  0  0  0  0  0  0  0  0  0  0  0
    3.4694   -2.0754    1.6966 N   0  0  0  0  0  0  0  0  0  0  0  0
    4.3550   -1.0494    1.3416 C   0  0  0  0  0  0  0  0  0  0  0  0
    5.5522   -1.0883    1.5703 O   0  0  0  0  0  0  0  0  0  0  0  0
    3.5685   -0.0325    0.7184 N   0  0  0  0  0  0  0  0  0  0  0  0
    4.0322    1.2017    0.1887 C   0  0  0  0  0  0  0  0  0  0  0  0
    3.1651    2.2525   -0.1561 C   0  0  0  0  0  0  0  0  0  0  0  0
    3.6427    3.4629   -0.6762 C   0  0  0  0  0  0  0  0  0  0  0  0
    5.0062    3.6523   -0.8621 C   0  0  0  0  0  0  0  0  0  0  0  0
    5.8835    2.6308   -0.5214 C   0  0  0  0  0  0  0  0  0  0  0  0
    7.5754    2.8560   -0.7504 Cl  0  0  0  0  0  0  0  0  0  0  0  0
    5.4070    1.4232   -0.0002 C   0  0  0  0  0  0  0  0  0  0  0  0
    2.2221   -0.4779    0.7034 C   0  0  0  0  0  0  0  0  0  0  0  0
    1.1393    0.1105    0.1840 N   0  0  0  0  0  0  0  0  0  0  0  0
   -2.5517   -0.3769    0.0725 C   0  0  0  0  0  0  0  0  0  0  0  0
   -2.7710   -1.4125    0.9570 O   0  0  0  0  0  0  0  0  0  0  0  0
   -7.2479   -1.4794   -0.2696 H   0  0  0  0  0  0  0  0  0  0  0  0
   -7.2686   -0.3530    1.0821 H   0  0  0  0  0  0  0  0  0  0  0  0
   -8.2192    0.0084   -0.3790 H   0  0  0  0  0  0  0  0  0  0  0  0
   -6.1164    0.2202   -1.6933 H   0  0  0  0  0  0  0  0  0  0  0  0
   -6.1377    1.3710   -0.3129 H   0  0  0  0  0  0  0  0  0  0  0  0
   -4.3919    1.7911   -1.8234 H   0  0  0  0  0  0  0  0  0  0  0  0
   -2.1479    2.5671   -2.4040 H   0  0  0  0  0  0  0  0  0  0  0  0
   -0.1577    1.5054   -1.4476 H   0  0  0  0  0  0  0  0  0  0  0  0
   -0.4527   -5.2422    2.2687 H   0  0  0  0  0  0  0  0  0  0  0  0
   -1.1138   -3.8972    1.3840 H   0  0  0  0  0  0  0  0  0  0  0  0
    3.7272   -2.9373    2.1642 H   0  0  0  0  0  0  0  0  0  0  0  0
    2.0935    2.1842   -0.0040 H   0  0  0  0  0  0  0  0  0  0  0  0
    2.9441    4.2577   -0.9265 H   0  0  0  0  0  0  0  0  0  0  0  0
    5.3767    4.5908   -1.2647 H   0  0  0  0  0  0  0  0  0  0  0  0
    6.1402    0.6571    0.2341 H   0  0  0  0  0  0  0  0  0  0  0  0
   -1.9042   -1.7349    1.2633 H   0  0  0  0  0  0  0  0  0  0  0  0
  1  2  1  0
  2  3  1  0
  3  4  1  0
  4  5  2  0
  5  6  1  0
  6  7  2  0
  7  8  1  0
  8  9  1  0
  9 10  2  0
 10 11  1  0
 11 12  1  0
 12 13  1  0
 12 14  2  0
 11 15  2  0
 15 16  1  0
 16 17  1  0
 17 18  2  0
 17 19  1  0
 19 20  1  0
 20 21  2  0
 21 22  1  0
 22 23  2  0
 23 24  1  0
 24 25  1  0
 24 26  2  0
 19 27  1  0
 27 28  2  0
  8 29  2  0
 29 30  1  0
 29  4  1  0
 28  9  1  0
 27 15  1  0
 26 20  1  0
  1 31  1  0
  1 32  1  0
  1 33  1  0
  2 34  1  0
  2 35  1  0
  5 36  1  0
  6 37  1  0
  7 38  1  0
 13 39  1  0
 13 40  1  0
 16 41  1  0
 21 42  1  0
 22 43  1  0
 23 44  1  0
 26 45  1  0
 30 46  1  0
M  END
$$$$
