
     RDKit          3D

 59 61  0  0  0  0  0  0  0  0999 V2000
   -6.7698    1.3428   -4.6384 C   0  0  0  0  0  0  0  0  0  0  0  0
   -6.5946    0.3019   -3.5463 C   0  0  0  0  0  0  0  0  0  0  0  0
   -6.0557    0.9005   -2.3699 O   0  0  0  0  0  0  0  0  0  0  0  0
   -4.7036    0.8486   -2.1452 C   0  0  0  0  0  0  0  0  0  0  0  0
   -3.7497    0.5514   -3.1251 C   0  0  0  0  0  0  0  0  0  0  0  0
   -2.3937    0.5421   -2.7952 C   0  0  0  0  0  0  0  0  0  0  0  0
   -1.4436    0.2379   -3.7674 N   0  0  0  0  0  0  0  0  0  0  0  0
   -0.0931    0.2187   -3.5446 C   0  0  0  0  0  0  0  0  0  0  0  0
    0.8622   -0.1973   -4.8597 S   0  0  0  0  0  0  0  0  0  0  0  0
    0.3381    0.5395   -2.2587 N   0  0  0  0  0  0  0  0  0  0  0  0
    1.7684    0.5623   -1.9015 C   0  0  0  0  0  0  0  0  0  0  0  0
    2.2356   -0.7814   -1.3467 C   0  0  0  0  0  0  0  0  0  0  0  0
    3.7060   -0.7425   -0.9966 C   0  0  0  0  0  0  0  0  0  0  0  0
    4.4218    0.2332   -1.1919 O   0  0  0  0  0  0  0  0  0  0  0  0
    4.1575   -1.9246   -0.4516 N   0  0  0  0  0  0  0  0  0  0  0  0
    5.5024   -2.0600    0.0621 C   0  0  0  0  0  0  0  0  0  0  0  0
    5.5165   -1.9110    1.5614 C   0  0  0  0  0  0  0  0  0  0  0  0
    5.5443   -3.0345    2.3955 C   0  0  0  0  0  0  0  0  0  0  0  0
    5.5330   -2.8807    3.7844 C   0  0  0  0  0  0  0  0  0  0  0  0
    5.4869   -1.6101    4.3631 C   0  0  0  0  0  0  0  0  0  0  0  0
    5.4782   -1.6048    5.7309 O   0  0  0  0  0  0  0  0  0  0  0  0
    5.4245   -0.3336    6.3658 C   0  0  0  0  0  0  0  0  0  0  0  0
    5.4522   -0.4874    3.5370 C   0  0  0  0  0  0  0  0  0  0  0  0
    5.4651   -0.6379    2.1458 C   0  0  0  0  0  0  0  0  0  0  0  0
   -0.5426    0.8006   -1.1973 C   0  0  0  0  0  0  0  0  0  0  0  0
   -0.1830    0.9835   -0.0356 O   0  0  0  0  0  0  0  0  0  0  0  0
   -1.9841    0.8297   -1.5039 C   0  0  0  0  0  0  0  0  0  0  0  0
   -2.9245    1.1378   -0.5154 C   0  0  0  0  0  0  0  0  0  0  0  0
   -4.2862    1.1544   -0.8309 C   0  0  0  0  0  0  0  0  0  0  0  0
   -5.2851    1.4446    0.0647 O   0  0  0  0  0  0  0  0  0  0  0  0
   -4.9087    1.8010    1.3929 C   0  0  0  0  0  0  0  0  0  0  0  0
   -6.1753    2.1099    2.1706 C   0  0  0  0  0  0  0  0  0  0  0  0
   -7.4000    2.1658   -4.2848 H   0  0  0  0  0  0  0  0  0  0  0  0
   -5.8113    1.7827   -4.9298 H   0  0  0  0  0  0  0  0  0  0  0  0
   -7.2349    0.9002   -5.5245 H   0  0  0  0  0  0  0  0  0  0  0  0
   -7.5834   -0.0847   -3.2741 H   0  0  0  0  0  0  0  0  0  0  0  0
   -6.0165   -0.5651   -3.8853 H   0  0  0  0  0  0  0  0  0  0  0  0
   -4.0424    0.3412   -4.1471 H   0  0  0  0  0  0  0  0  0  0  0  0
   -1.7428    0.0182   -4.7117 H   0  0  0  0  0  0  0  0  0  0  0  0
    1.9333    1.3479   -1.1526 H   0  0  0  0  0  0  0  0  0  0  0  0
    2.3704    0.8531   -2.7683 H   0  0  0  0  0  0  0  0  0  0  0  0
    1.6689   -1.0390   -0.4445 H   0  0  0  0  0  0  0  0  0  0  0  0
    2.0747   -1.5783   -2.0813 H   0  0  0  0  0  0  0  0  0  0  0  0
    3.4780   -2.6090   -0.1479 H   0  0  0  0  0  0  0  0  0  0  0  0
    5.8595   -3.0546   -0.2269 H   0  0  0  0  0  0  0  0  0  0  0  0
    6.1741   -1.3269   -0.3985 H   0  0  0  0  0  0  0  0  0  0  0  0
    5.5768   -4.0370    1.9754 H   0  0  0  0  0  0  0  0  0  0  0  0
    5.5589   -3.7600    4.4237 H   0  0  0  0  0  0  0  0  0  0  0  0
    6.3091    0.2652    6.1255 H   0  0  0  0  0  0  0  0  0  0  0  0
    5.4194   -0.5007    7.4471 H   0  0  0  0  0  0  0  0  0  0  0  0
    4.5032    0.1993    6.1071 H   0  0  0  0  0  0  0  0  0  0  0  0
    5.4120    0.5198    3.9380 H   0  0  0  0  0  0  0  0  0  0  0  0
    5.4300    0.2492    1.5139 H   0  0  0  0  0  0  0  0  0  0  0  0
   -2.5683    1.3594    0.4857 H   0  0  0  0  0  0  0  0  0  0  0  0
   -4.3874    0.9668    1.8762 H   0  0  0  0  0  0  0  0  0  0  0  0
   -4.2698    2.6915    1.3830 H   0  0  0  0  0  0  0  0  0  0  0  0
   -6.7247    2.9329    1.7011 H   0  0  0  0  0  0  0  0  0  0  0  0
   -5.9414    2.3849    3.2030 H   0  0  0  0  0  0  0  0  0  0  0  0
   -6.8446    1.2431    2.1780 H   0  0  0  0  0  0  0  0  0  0  0  0
  1  2  1  0
  2  3  1  0
  3  4  1  0
  4  5  2  0
  5  6  1  0
  6  7  1  0
  7  8  1  0
  8  9  2  0
  8 10  1  0
 10 11  1  0
 11 12  1  0
 12 13  1  0
 13 14  2  0
 13 15  1  0
 15 16  1  0
 16 17  1  0
 17 18  2  0
 18 19  1  0
 19 20  2  0
 20 21  1  0
 21 22  1  0
 20 23  1  0
 23 24  2  0
 10 25  1  0
 25 26  2  0
 25 27  1  0
 27 28  1  0
 28 29  2  0
 29 30  1  0
 30 31  1  0
 31 32  1  0
 29  4  1  0
 27  6  2  0
 24 17  1  0
  1 33  1  0
  1 34  1  0
  1 35  1  0
  2 36  1  0
  2 37  1  0
  5 38  1  0
  7 39  1  0
 11 40  1  0
 11 41  1  0
 12 42  1  0
 12 43  1  0
 15 44  1  0
 16 45  1  0
 16 46  1  0
 18 47  1  0
 19 48  1  0
 22 49  1  0
 22 50  1  0
 22 51  1  0
 23 52  1  0
 24 53  1  0
 28 54  1  0
 31 55  1  0
 31 56  1  0
 32 57  1  0
 32 58  1  0
 32 59  1  0
M  END
$$$$
