
     RDKit          3D

 36 37  0  0  0  0  0  0  0  0999 V2000
    0.1508    2.1457   -1.7425 O   0  0  0  0  0  0  0  0  0  0  0  0
   -0.3942    1.3112   -1.0314 C   0  0  0  0  0  0  0  0  0  0  0  0
   -1.8739    1.2173   -1.0031 C   0  0  0  0  0  0  0  0  0  0  0  0
   -2.5377    0.0688   -0.7994 C   0  0  0  0  0  0  0  0  0  0  0  0
   -4.0075   -0.0144   -0.7886 C   0  0  0  0  0  0  0  0  0  0  0  0
   -4.7425    0.5212   -1.8590 C   0  0  0  0  0  0  0  0  0  0  0  0
   -6.1369    0.4325   -1.8851 C   0  0  0  0  0  0  0  0  0  0  0  0
   -6.8165   -0.1989   -0.8466 C   0  0  0  0  0  0  0  0  0  0  0  0
   -6.1025   -0.7462    0.2186 C   0  0  0  0  0  0  0  0  0  0  0  0
   -4.7065   -0.6595    0.2476 C   0  0  0  0  0  0  0  0  0  0  0  0
   -3.8894   -1.3544    1.6074 Cl  0  0  0  0  0  0  0  0  0  0  0  0
    0.2607    0.4653   -0.1719 N   0  0  0  0  0  0  0  0  0  0  0  0
    1.6915    0.5885    0.0435 C   0  0  0  0  0  0  0  0  0  0  0  0
    2.2883   -0.7032    0.6005 C   0  0  0  0  0  0  0  0  0  0  0  0
    3.7664   -0.5746    0.8661 C   0  0  0  0  0  0  0  0  0  0  0  0
    4.2327   -0.2118    2.1367 C   0  0  0  0  0  0  0  0  0  0  0  0
    5.6014   -0.0757    2.3747 C   0  0  0  0  0  0  0  0  0  0  0  0
    6.5147   -0.2964    1.3456 C   0  0  0  0  0  0  0  0  0  0  0  0
    6.0609   -0.6520    0.0770 C   0  0  0  0  0  0  0  0  0  0  0  0
    4.6929   -0.7889   -0.1633 C   0  0  0  0  0  0  0  0  0  0  0  0
   -2.3810    2.1520   -1.2188 H   0  0  0  0  0  0  0  0  0  0  0  0
   -2.0135   -0.8678   -0.6281 H   0  0  0  0  0  0  0  0  0  0  0  0
   -4.2348    1.0055   -2.6914 H   0  0  0  0  0  0  0  0  0  0  0  0
   -6.6909    0.8539   -2.7210 H   0  0  0  0  0  0  0  0  0  0  0  0
   -7.9015   -0.2680   -0.8678 H   0  0  0  0  0  0  0  0  0  0  0  0
   -6.6395   -1.2398    1.0249 H   0  0  0  0  0  0  0  0  0  0  0  0
   -0.2873    0.0236    0.5548 H   0  0  0  0  0  0  0  0  0  0  0  0
    2.1745    0.8636   -0.9015 H   0  0  0  0  0  0  0  0  0  0  0  0
    1.8418    1.4211    0.7409 H   0  0  0  0  0  0  0  0  0  0  0  0
    2.1124   -1.5313   -0.0985 H   0  0  0  0  0  0  0  0  0  0  0  0
    1.7712   -0.9885    1.5259 H   0  0  0  0  0  0  0  0  0  0  0  0
    3.5338   -0.0319    2.9503 H   0  0  0  0  0  0  0  0  0  0  0  0
    5.9553    0.2046    3.3633 H   0  0  0  0  0  0  0  0  0  0  0  0
    7.5801   -0.1889    1.5314 H   0  0  0  0  0  0  0  0  0  0  0  0
    6.7724   -0.8204   -0.7272 H   0  0  0  0  0  0  0  0  0  0  0  0
    4.3542   -1.0621   -1.1605 H   0  0  0  0  0  0  0  0  0  0  0  0
  1  2  2  0
  2  3  1  0
  3  4  2  3
  4  5  1  0
  5  6  2  0
  6  7  1  0
  7  8  2  0
  8  9  1  0
  9 10  2  0
 10 11  1  0
  2 12  1  0
 12 13  1  0
 13 14  1  0
 14 15  1  0
 15 16  2  0
 16 17  1  0
 17 18  2  0
 18 19  1  0
 19 20  2  0
 10  5  1  0
 20 15  1  0
  3 21  1  0
  4 22  1  0
  6 23  1  0
  7 24  1  0
  8 25  1  0
  9 26  1  0
 12 27  1  0
 13 28  1  0
 13 29  1  0
 14 30  1  0
 14 31  1  0
 16 32  1  0
 17 33  1  0
 18 34  1  0
 19 35  1  0
 20 36  1  0
M  END
$$$$
