
     RDKit          3D

 38 40  0  0  0  0  0  0  0  0999 V2000
   -3.8281    0.9905   -3.0234 C   0  0  0  0  0  0  0  0  0  0  0  0
   -3.4234    0.7187   -1.6038 C   0  0  0  0  0  0  0  0  0  0  0  0
   -3.4219    1.7533   -0.6580 C   0  0  0  0  0  0  0  0  0  0  0  0
   -3.0729    1.4982    0.6691 C   0  0  0  0  0  0  0  0  0  0  0  0
   -2.7248    0.2000    1.0508 C   0  0  0  0  0  0  0  0  0  0  0  0
   -2.2729   -0.1238    2.7401 S   0  0  0  0  0  6  0  0  0  0  0  0
   -2.9160    0.8790    3.5640 O   0  0  0  0  0  0  0  0  0  0  0  0
   -2.4583   -1.5356    2.9977 O   0  0  0  0  0  0  0  0  0  0  0  0
   -0.6206    0.2419    2.7663 N   0  0  0  0  0  0  0  0  0  0  0  0
    0.2423   -0.3974    1.8327 C   0  0  0  0  0  0  0  0  0  0  0  0
    0.4725   -1.7695    1.9038 C   0  0  0  0  0  0  0  0  0  0  0  0
    1.2816   -2.3870    0.9514 C   0  0  0  0  0  0  0  0  0  0  0  0
    1.8604   -1.6303   -0.0657 C   0  0  0  0  0  0  0  0  0  0  0  0
    2.6422   -2.3185   -0.9527 O   0  0  0  0  0  0  0  0  0  0  0  0
    1.6338   -0.2492   -0.1540 C   0  0  0  0  0  0  0  0  0  0  0  0
    2.2573    0.7721   -1.4808 S   0  0  0  0  0  0  0  0  0  0  0  0
    3.9744    0.6951   -1.2131 C   0  0  0  0  0  0  0  0  0  0  0  0
    4.7182    1.7464   -0.7596 N   0  0  0  0  0  0  0  0  0  0  0  0
    5.9327    1.2516   -0.7168 C   0  0  0  0  0  0  0  0  0  0  0  0
    5.9117   -0.0421   -1.1330 N   0  0  0  0  0  0  0  0  0  0  0  0
    4.6647   -0.4257   -1.4617 N   0  0  0  0  0  0  0  0  0  0  0  0
    0.8152    0.3602    0.8078 C   0  0  0  0  0  0  0  0  0  0  0  0
   -2.7575   -0.8479    0.1276 C   0  0  0  0  0  0  0  0  0  0  0  0
   -3.1044   -0.5845   -1.1981 C   0  0  0  0  0  0  0  0  0  0  0  0
   -4.9095    0.8652   -3.1345 H   0  0  0  0  0  0  0  0  0  0  0  0
   -3.3192    0.3077   -3.7119 H   0  0  0  0  0  0  0  0  0  0  0  0
   -3.5572    2.0098   -3.3182 H   0  0  0  0  0  0  0  0  0  0  0  0
   -3.6970    2.7643   -0.9519 H   0  0  0  0  0  0  0  0  0  0  0  0
   -3.0811    2.3100    1.3927 H   0  0  0  0  0  0  0  0  0  0  0  0
   -0.4596    1.2277    2.9666 H   0  0  0  0  0  0  0  0  0  0  0  0
    0.0287   -2.3669    2.6969 H   0  0  0  0  0  0  0  0  0  0  0  0
    1.4630   -3.4574    1.0020 H   0  0  0  0  0  0  0  0  0  0  0  0
    3.2398   -1.6766   -1.3935 H   0  0  0  0  0  0  0  0  0  0  0  0
    6.8324    1.7637   -0.4060 H   0  0  0  0  0  0  0  0  0  0  0  0
    6.6784   -0.7013   -1.2169 H   0  0  0  0  0  0  0  0  0  0  0  0
    0.6099    1.4258    0.7435 H   0  0  0  0  0  0  0  0  0  0  0  0
   -2.5096   -1.8638    0.4273 H   0  0  0  0  0  0  0  0  0  0  0  0
   -3.1250   -1.4035   -1.9145 H   0  0  0  0  0  0  0  0  0  0  0  0
  1  2  1  0
  2  3  2  0
  3  4  1  0
  4  5  2  0
  5  6  1  0
  6  7  2  0
  6  8  2  0
  6  9  1  0
  9 10  1  0
 10 11  2  0
 11 12  1  0
 12 13  2  0
 13 14  1  0
 13 15  1  0
 15 16  1  0
 16 17  1  0
 17 18  1  0
 18 19  2  0
 19 20  1  0
 20 21  1  0
 15 22  2  0
  5 23  1  0
 23 24  2  0
 24  2  1  0
 22 10  1  0
 21 17  2  0
  1 25  1  0
  1 26  1  0
  1 27  1  0
  3 28  1  0
  4 29  1  0
  9 30  1  0
 11 31  1  0
 12 32  1  0
 14 33  1  0
 19 34  1  0
 20 35  1  0
 22 36  1  0
 23 37  1  0
 24 38  1  0
M  END
$$$$
