
     RDKit          3D

 31 32  0  0  0  0  0  0  0  0999 V2000
   -2.3858   -0.9505   -2.1504 C   0  0  0  0  0  0  0  0  0  0  0  0
   -2.9242   -0.0294   -1.1294 N   0  0  0  0  0  4  0  0  0  0  0  0
   -4.2658    0.1473   -1.0568 C   0  0  0  0  0  0  0  0  0  0  0  0
   -4.8312    0.9810   -0.1005 C   0  0  0  0  0  0  0  0  0  0  0  0
   -4.0087    1.6445    0.7948 C   0  0  0  0  0  0  0  0  0  0  0  0
   -2.6346    1.4611    0.7135 C   0  0  0  0  0  0  0  0  0  0  0  0
   -2.0931    0.6110   -0.2606 C   0  0  0  0  0  0  0  0  0  0  0  0
   -0.6389    0.4429   -0.3652 C   0  0  0  0  0  0  0  0  0  0  0  0
    0.1000   -0.0586    0.6381 C   0  0  0  0  0  0  0  0  0  0  0  0
    1.5627   -0.2121    0.5873 C   0  0  0  0  0  0  0  0  0  0  0  0
    2.2960   -0.0406    1.7716 C   0  0  0  0  0  0  0  0  0  0  0  0
    3.6863   -0.1996    1.7851 C   0  0  0  0  0  0  0  0  0  0  0  0
    4.3523   -0.5454    0.6045 C   0  0  0  0  0  0  0  0  0  0  0  0
    5.8113   -0.7152    0.6102 N   0  0  0  0  0  4  0  0  0  0  0  0
    6.3557   -1.0229   -0.4591 O   0  0  0  0  0  0  0  0  0  0  0  0
    6.4056   -0.5401    1.6823 O   0  0  0  0  0  1  0  0  0  0  0  0
    3.6342   -0.7361   -0.5821 C   0  0  0  0  0  0  0  0  0  0  0  0
    2.2438   -0.5740   -0.5846 C   0  0  0  0  0  0  0  0  0  0  0  0
   -1.7787   -0.3669   -2.8472 H   0  0  0  0  0  0  0  0  0  0  0  0
   -1.7954   -1.7192   -1.6450 H   0  0  0  0  0  0  0  0  0  0  0  0
   -3.2046   -1.4284   -2.6942 H   0  0  0  0  0  0  0  0  0  0  0  0
   -4.8880   -0.3863   -1.7706 H   0  0  0  0  0  0  0  0  0  0  0  0
   -5.9106    1.1126   -0.0547 H   0  0  0  0  0  0  0  0  0  0  0  0
   -4.4329    2.3055    1.5496 H   0  0  0  0  0  0  0  0  0  0  0  0
   -1.9845    1.9926    1.4075 H   0  0  0  0  0  0  0  0  0  0  0  0
   -0.1856    0.7746   -1.2955 H   0  0  0  0  0  0  0  0  0  0  0  0
   -0.3614   -0.3609    1.5785 H   0  0  0  0  0  0  0  0  0  0  0  0
    1.7969    0.2280    2.7018 H   0  0  0  0  0  0  0  0  0  0  0  0
    4.2292   -0.0527    2.7176 H   0  0  0  0  0  0  0  0  0  0  0  0
    4.1393   -1.0147   -1.5057 H   0  0  0  0  0  0  0  0  0  0  0  0
    1.7106   -0.7475   -1.5157 H   0  0  0  0  0  0  0  0  0  0  0  0
  1  2  1  0
  2  3  2  0
  3  4  1  0
  4  5  2  0
  5  6  1  0
  6  7  2  0
  7  8  1  0
  8  9  2  3
  9 10  1  0
 10 11  2  0
 11 12  1  0
 12 13  2  0
 13 14  1  0
 14 15  2  0
 14 16  1  0
 13 17  1  0
 17 18  2  0
  7  2  1  0
 18 10  1  0
  1 19  1  0
  1 20  1  0
  1 21  1  0
  3 22  1  0
  4 23  1  0
  5 24  1  0
  6 25  1  0
  8 26  1  0
  9 27  1  0
 11 28  1  0
 12 29  1  0
 17 30  1  0
 18 31  1  0
M  CHG  3   2   1  14   1  16  -1
M  END
$$$$
