
     RDKit          3D

 59 62  0  0  0  0  0  0  0  0999 V2000
   -9.2949    3.5838    1.3663 C   0  0  0  0  0  0  0  0  0  0  0  0
   -8.3561    2.4499    1.0730 C   0  0  0  0  0  0  0  0  0  0  0  0
   -8.1157    2.0558   -0.2511 C   0  0  0  0  0  0  0  0  0  0  0  0
   -7.2721    0.9782   -0.5256 C   0  0  0  0  0  0  0  0  0  0  0  0
   -6.6641    0.2941    0.5284 C   0  0  0  0  0  0  0  0  0  0  0  0
   -5.7863   -0.8525    0.2245 C   0  0  0  0  0  0  0  0  0  0  0  0
   -6.3087   -1.8515   -0.2632 O   0  0  0  0  0  0  0  0  0  0  0  0
   -4.4264   -0.7407    0.4862 N   0  0  0  0  0  0  0  0  0  0  0  0
   -3.6000   -1.9494    0.4161 C   0  0  0  0  0  0  0  0  0  0  0  0
   -2.1987   -1.6829   -0.1617 C   0  0  0  0  0  0  0  0  0  0  0  0
   -1.5458   -0.5517    0.5479 N   0  0  0  0  0  0  0  0  0  0  0  0
   -0.1775   -0.4317    0.2517 C   0  0  0  0  0  0  0  0  0  0  0  0
    0.6987   -1.4640    0.6189 C   0  0  0  0  0  0  0  0  0  0  0  0
    2.0720   -1.3954    0.3526 C   0  0  0  0  0  0  0  0  0  0  0  0
    2.6173   -0.2800   -0.2856 C   0  0  0  0  0  0  0  0  0  0  0  0
    4.0040   -0.2868   -0.5246 N   0  0  0  0  0  0  0  0  0  0  0  0
    4.7820    0.7091   -1.0821 C   0  0  0  0  0  0  0  0  0  0  0  0
    4.3753    1.8008   -1.4773 O   0  0  0  0  0  0  0  0  0  0  0  0
    6.2544    0.3507   -1.2659 C   0  0  0  0  0  0  0  0  0  0  0  0
    6.8269   -0.9816   -0.1530 S   0  0  0  0  0  0  0  0  0  0  0  0
    8.4924   -1.1778   -0.7559 C   0  0  0  0  0  0  0  0  0  0  0  0
    9.4207   -0.1337   -0.6814 C   0  0  0  0  0  0  0  0  0  0  0  0
   10.7247   -0.3146   -1.1512 C   0  0  0  0  0  0  0  0  0  0  0  0
   11.1032   -1.5430   -1.6883 C   0  0  0  0  0  0  0  0  0  0  0  0
   12.7078   -1.7658   -2.2658 Cl  0  0  0  0  0  0  0  0  0  0  0  0
   10.1902   -2.5932   -1.7554 C   0  0  0  0  0  0  0  0  0  0  0  0
    8.8867   -2.4113   -1.2852 C   0  0  0  0  0  0  0  0  0  0  0  0
    1.7652    0.7593   -0.6468 C   0  0  0  0  0  0  0  0  0  0  0  0
    0.3892    0.6836   -0.3769 C   0  0  0  0  0  0  0  0  0  0  0  0
   -2.3657    0.6784    0.5047 C   0  0  0  0  0  0  0  0  0  0  0  0
   -3.7669    0.4244    1.0940 C   0  0  0  0  0  0  0  0  0  0  0  0
   -6.9225    0.6524    1.8542 C   0  0  0  0  0  0  0  0  0  0  0  0
   -7.7669    1.7310    2.1230 C   0  0  0  0  0  0  0  0  0  0  0  0
  -10.3132    3.2028    1.4937 H   0  0  0  0  0  0  0  0  0  0  0  0
   -9.2905    4.3162    0.5517 H   0  0  0  0  0  0  0  0  0  0  0  0
   -8.9958    4.1112    2.2785 H   0  0  0  0  0  0  0  0  0  0  0  0
   -8.5917    2.5815   -1.0763 H   0  0  0  0  0  0  0  0  0  0  0  0
   -7.0965    0.6680   -1.5525 H   0  0  0  0  0  0  0  0  0  0  0  0
   -4.0951   -2.7266   -0.1751 H   0  0  0  0  0  0  0  0  0  0  0  0
   -3.5121   -2.3264    1.4425 H   0  0  0  0  0  0  0  0  0  0  0  0
   -1.6194   -2.6090   -0.0767 H   0  0  0  0  0  0  0  0  0  0  0  0
   -2.2834   -1.4396   -1.2291 H   0  0  0  0  0  0  0  0  0  0  0  0
    0.3157   -2.3342    1.1467 H   0  0  0  0  0  0  0  0  0  0  0  0
    2.7012   -2.2250    0.6635 H   0  0  0  0  0  0  0  0  0  0  0  0
    4.5143   -1.1026   -0.1994 H   0  0  0  0  0  0  0  0  0  0  0  0
    6.8424    1.2527   -1.0707 H   0  0  0  0  0  0  0  0  0  0  0  0
    6.3957    0.0435   -2.3069 H   0  0  0  0  0  0  0  0  0  0  0  0
    9.1467    0.8253   -0.2480 H   0  0  0  0  0  0  0  0  0  0  0  0
   11.4386    0.5029   -1.0894 H   0  0  0  0  0  0  0  0  0  0  0  0
   10.4855   -3.5544   -2.1677 H   0  0  0  0  0  0  0  0  0  0  0  0
    8.1853   -3.2412   -1.3377 H   0  0  0  0  0  0  0  0  0  0  0  0
    2.1316    1.6507   -1.1460 H   0  0  0  0  0  0  0  0  0  0  0  0
   -0.2224    1.5221   -0.6945 H   0  0  0  0  0  0  0  0  0  0  0  0
   -1.8917    1.4781    1.0865 H   0  0  0  0  0  0  0  0  0  0  0  0
   -2.4766    1.0192   -0.5330 H   0  0  0  0  0  0  0  0  0  0  0  0
   -4.3686    1.3274    0.9632 H   0  0  0  0  0  0  0  0  0  0  0  0
   -3.6911    0.2203    2.1686 H   0  0  0  0  0  0  0  0  0  0  0  0
   -6.4803    0.0898    2.6719 H   0  0  0  0  0  0  0  0  0  0  0  0
   -7.9712    2.0032    3.1564 H   0  0  0  0  0  0  0  0  0  0  0  0
  1  2  1  0
  2  3  2  0
  3  4  1  0
  4  5  2  0
  5  6  1  0
  6  7  2  0
  6  8  1  0
  8  9  1  0
  9 10  1  0
 10 11  1  0
 11 12  1  0
 12 13  2  0
 13 14  1  0
 14 15  2  0
 15 16  1  0
 16 17  1  0
 17 18  2  0
 17 19  1  0
 19 20  1  0
 20 21  1  0
 21 22  2  0
 22 23  1  0
 23 24  2  0
 24 25  1  0
 24 26  1  0
 26 27  2  0
 15 28  1  0
 28 29  2  0
 11 30  1  0
 30 31  1  0
  5 32  1  0
 32 33  2  0
 33  2  1  0
 31  8  1  0
 29 12  1  0
 27 21  1  0
  1 34  1  0
  1 35  1  0
  1 36  1  0
  3 37  1  0
  4 38  1  0
  9 39  1  0
  9 40  1  0
 10 41  1  0
 10 42  1  0
 13 43  1  0
 14 44  1  0
 16 45  1  0
 19 46  1  0
 19 47  1  0
 22 48  1  0
 23 49  1  0
 26 50  1  0
 27 51  1  0
 28 52  1  0
 29 53  1  0
 30 54  1  0
 30 55  1  0
 31 56  1  0
 31 57  1  0
 32 58  1  0
 33 59  1  0
M  END
$$$$
