
     RDKit          3D

 40 42  0  0  0  0  0  0  0  0999 V2000
   -1.4408    3.9342    1.9248 C   0  0  0  0  0  0  0  0  0  0  0  0
   -2.4115    3.1500    2.6031 O   0  0  0  0  0  0  0  0  0  0  0  0
   -2.3187    1.7903    2.4731 C   0  0  0  0  0  0  0  0  0  0  0  0
   -3.2433    1.0759    3.2312 C   0  0  0  0  0  0  0  0  0  0  0  0
   -3.2724   -0.3210    3.2225 C   0  0  0  0  0  0  0  0  0  0  0  0
   -2.3441   -0.9927    2.4142 C   0  0  0  0  0  0  0  0  0  0  0  0
   -1.4155   -0.3105    1.6194 C   0  0  0  0  0  0  0  0  0  0  0  0
   -1.4019    1.1057    1.6668 C   0  0  0  0  0  0  0  0  0  0  0  0
   -0.6534   -1.3036    0.9265 C   0  0  0  0  0  0  0  0  0  0  0  0
    0.4061   -1.1540   -0.0196 C   0  0  0  0  0  0  0  0  0  0  0  0
    0.4723   -0.1985   -0.9619 C   0  0  0  0  0  0  0  0  0  0  0  0
    1.5598   -0.0782   -1.9395 C   0  0  0  0  0  0  0  0  0  0  0  0
    2.1290   -1.1881   -2.5627 C   0  0  0  0  0  0  0  0  0  0  0  0
    3.1357   -1.0105   -3.5055 C   0  0  0  0  0  0  0  0  0  0  0  0
    3.5667    0.2292   -3.8273 N   0  0  0  0  0  4  0  0  0  0  0  0
    4.6279    0.3926   -4.8356 C   0  0  0  0  0  0  0  0  0  0  0  0
    3.0142    1.3216   -3.2546 C   0  0  0  0  0  0  0  0  0  0  0  0
    2.0036    1.1906   -2.3083 C   0  0  0  0  0  0  0  0  0  0  0  0
   -1.0997   -2.5392    1.3426 C   0  0  0  0  0  0  0  0  0  0  0  0
   -2.1284   -2.3415    2.2251 N   0  0  0  0  0  0  0  0  0  0  0  0
   -2.8742   -3.3983    2.8735 C   0  0  0  0  0  0  0  0  0  0  0  0
   -1.5274    3.8158    0.8397 H   0  0  0  0  0  0  0  0  0  0  0  0
   -1.6341    4.9850    2.1611 H   0  0  0  0  0  0  0  0  0  0  0  0
   -0.4286    3.6963    2.2685 H   0  0  0  0  0  0  0  0  0  0  0  0
   -3.9541    1.6160    3.8538 H   0  0  0  0  0  0  0  0  0  0  0  0
   -3.9929   -0.8573    3.8320 H   0  0  0  0  0  0  0  0  0  0  0  0
   -0.6663    1.6367    1.0785 H   0  0  0  0  0  0  0  0  0  0  0  0
    1.1889   -1.9076    0.0380 H   0  0  0  0  0  0  0  0  0  0  0  0
   -0.3202    0.5437   -1.0367 H   0  0  0  0  0  0  0  0  0  0  0  0
    1.7870   -2.1955   -2.3332 H   0  0  0  0  0  0  0  0  0  0  0  0
    3.5969   -1.8538   -4.0120 H   0  0  0  0  0  0  0  0  0  0  0  0
    5.2932   -0.4739   -4.7988 H   0  0  0  0  0  0  0  0  0  0  0  0
    4.1426    0.4705   -5.8116 H   0  0  0  0  0  0  0  0  0  0  0  0
    5.1994    1.2968   -4.6109 H   0  0  0  0  0  0  0  0  0  0  0  0
    3.3845    2.2957   -3.5620 H   0  0  0  0  0  0  0  0  0  0  0  0
    1.5724    2.0831   -1.8582 H   0  0  0  0  0  0  0  0  0  0  0  0
   -0.7849   -3.5391    1.0730 H   0  0  0  0  0  0  0  0  0  0  0  0
   -2.4949   -4.3691    2.5446 H   0  0  0  0  0  0  0  0  0  0  0  0
   -3.9265   -3.2991    2.5954 H   0  0  0  0  0  0  0  0  0  0  0  0
   -2.7466   -3.2983    3.9543 H   0  0  0  0  0  0  0  0  0  0  0  0
  1  2  1  0
  2  3  1  0
  3  4  2  0
  4  5  1  0
  5  6  2  0
  6  7  1  0
  7  8  2  0
  7  9  1  0
  9 10  1  0
 10 11  2  3
 11 12  1  0
 12 13  2  0
 13 14  1  0
 14 15  2  0
 15 16  1  0
 15 17  1  0
 17 18  2  0
  9 19  2  0
 19 20  1  0
 20 21  1  0
  8  3  1  0
 18 12  1  0
 20  6  1  0
  1 22  1  0
  1 23  1  0
  1 24  1  0
  4 25  1  0
  5 26  1  0
  8 27  1  0
 10 28  1  0
 11 29  1  0
 13 30  1  0
 14 31  1  0
 16 32  1  0
 16 33  1  0
 16 34  1  0
 17 35  1  0
 18 36  1  0
 19 37  1  0
 21 38  1  0
 21 39  1  0
 21 40  1  0
M  CHG  1  15   1
M  END
$$$$
