
     RDKit          3D

 51 55  0  0  0  0  0  0  0  0999 V2000
    7.3579    2.3307    3.0944 F   0  0  0  0  0  0  0  0  0  0  0  0
    6.2370    1.8766    2.5185 C   0  0  0  0  0  0  0  0  0  0  0  0
    5.6244    2.6303    1.5248 C   0  0  0  0  0  0  0  0  0  0  0  0
    4.4554    2.1601    0.9261 C   0  0  0  0  0  0  0  0  0  0  0  0
    3.8987    0.9355    1.3255 C   0  0  0  0  0  0  0  0  0  0  0  0
    2.6396    0.4185    0.6667 C   0  0  0  0  0  0  0  0  0  0  0  0
    2.9614   -0.4907   -0.5340 C   0  0  0  0  0  0  0  0  0  0  0  0
    1.8268   -1.0314   -1.2985 N   0  0  0  0  0  0  0  0  0  0  0  0
    0.9220   -1.8717   -0.4895 C   0  0  0  0  0  0  0  0  0  0  0  0
   -0.2095   -2.4918   -1.3434 C   0  0  0  0  0  0  0  0  0  0  0  0
   -0.9865   -1.4361   -2.0260 N   0  0  0  0  0  0  0  0  0  0  0  0
   -2.0331   -0.8332   -1.3287 C   0  0  0  0  0  0  0  0  0  0  0  0
   -1.9836    0.4514   -1.0796 N   0  0  0  0  0  0  0  0  0  0  0  0
   -3.0083    1.0809   -0.3459 C   0  0  0  0  0  0  0  0  0  0  0  0
   -2.8956    2.4489   -0.0905 C   0  0  0  0  0  0  0  0  0  0  0  0
   -3.8768    3.1209    0.6430 C   0  0  0  0  0  0  0  0  0  0  0  0
   -4.9855    2.4272    1.1303 C   0  0  0  0  0  0  0  0  0  0  0  0
   -5.1197    1.0599    0.8858 C   0  0  0  0  0  0  0  0  0  0  0  0
   -4.1291    0.4012    0.1516 C   0  0  0  0  0  0  0  0  0  0  0  0
   -4.1889   -0.9691   -0.1479 N   0  0  0  0  0  0  0  0  0  0  0  0
   -5.1552   -1.8946    0.1684 C   0  0  0  0  0  0  0  0  0  0  0  0
   -4.7991   -3.0993   -0.3994 C   0  0  0  0  0  0  0  0  0  0  0  0
   -3.5714   -2.8989   -1.0713 C   0  0  0  0  0  0  0  0  0  0  0  0
   -3.1932   -1.5829   -0.8737 C   0  0  0  0  0  0  0  0  0  0  0  0
   -0.0983   -0.5822   -2.8446 C   0  0  0  0  0  0  0  0  0  0  0  0
    1.0525    0.0145   -2.0009 C   0  0  0  0  0  0  0  0  0  0  0  0
    4.5364    0.1855    2.3259 C   0  0  0  0  0  0  0  0  0  0  0  0
    5.7050    0.6587    2.9234 C   0  0  0  0  0  0  0  0  0  0  0  0
    6.0591    3.5779    1.2244 H   0  0  0  0  0  0  0  0  0  0  0  0
    3.9802    2.7533    0.1476 H   0  0  0  0  0  0  0  0  0  0  0  0
    2.0289    1.2744    0.3582 H   0  0  0  0  0  0  0  0  0  0  0  0
    2.0505   -0.1216    1.4173 H   0  0  0  0  0  0  0  0  0  0  0  0
    3.6160    0.0493   -1.2315 H   0  0  0  0  0  0  0  0  0  0  0  0
    3.5669   -1.3388   -0.1865 H   0  0  0  0  0  0  0  0  0  0  0  0
    0.4675   -1.2887    0.3206 H   0  0  0  0  0  0  0  0  0  0  0  0
    1.4925   -2.6885   -0.0322 H   0  0  0  0  0  0  0  0  0  0  0  0
    0.2187   -3.1620   -2.0993 H   0  0  0  0  0  0  0  0  0  0  0  0
   -0.8418   -3.1102   -0.6993 H   0  0  0  0  0  0  0  0  0  0  0  0
   -2.0332    2.9924   -0.4674 H   0  0  0  0  0  0  0  0  0  0  0  0
   -3.7742    4.1862    0.8331 H   0  0  0  0  0  0  0  0  0  0  0  0
   -5.7466    2.9548    1.7000 H   0  0  0  0  0  0  0  0  0  0  0  0
   -5.9912    0.5420    1.2711 H   0  0  0  0  0  0  0  0  0  0  0  0
   -6.0258   -1.6331    0.7524 H   0  0  0  0  0  0  0  0  0  0  0  0
   -5.3695   -4.0174   -0.3452 H   0  0  0  0  0  0  0  0  0  0  0  0
   -3.0201   -3.6341   -1.6433 H   0  0  0  0  0  0  0  0  0  0  0  0
    0.3221   -1.1939   -3.6534 H   0  0  0  0  0  0  0  0  0  0  0  0
   -0.6675    0.2189   -3.3315 H   0  0  0  0  0  0  0  0  0  0  0  0
    0.6399    0.7359   -1.2875 H   0  0  0  0  0  0  0  0  0  0  0  0
    1.7170    0.5671   -2.6759 H   0  0  0  0  0  0  0  0  0  0  0  0
    4.1250   -0.7697    2.6450 H   0  0  0  0  0  0  0  0  0  0  0  0
    6.2024    0.0871    3.7001 H   0  0  0  0  0  0  0  0  0  0  0  0
  1  2  1  0
  2  3  2  0
  3  4  1  0
  4  5  2  0
  5  6  1  0
  6  7  1  0
  7  8  1  0
  8  9  1  0
  9 10  1  0
 10 11  1  0
 11 12  1  0
 12 13  2  0
 13 14  1  0
 14 15  2  0
 15 16  1  0
 16 17  2  0
 17 18  1  0
 18 19  2  0
 19 20  1  0
 20 21  1  0
 21 22  2  0
 22 23  1  0
 23 24  2  0
 11 25  1  0
 25 26  1  0
  5 27  1  0
 27 28  2  0
 28  2  1  0
 26  8  1  0
 24 12  1  0
 19 14  1  0
 24 20  1  0
  3 29  1  0
  4 30  1  0
  6 31  1  0
  6 32  1  0
  7 33  1  0
  7 34  1  0
  9 35  1  0
  9 36  1  0
 10 37  1  0
 10 38  1  0
 15 39  1  0
 16 40  1  0
 17 41  1  0
 18 42  1  0
 21 43  1  0
 22 44  1  0
 23 45  1  0
 25 46  1  0
 25 47  1  0
 26 48  1  0
 26 49  1  0
 27 50  1  0
 28 51  1  0
M  END
$$$$
