
     RDKit          3D

 33 34  0  0  0  0  0  0  0  0999 V2000
   -1.1234    2.8199    0.7172 C   0  0  0  0  0  0  0  0  0  0  0  0
   -1.8004    2.1084   -0.4464 C   0  0  0  0  0  0  0  0  0  0  0  0
   -1.7010    0.6380   -0.3758 N   0  0  0  0  0  0  0  0  0  0  0  0
   -2.4805   -0.0032    0.6961 C   0  0  0  0  0  0  0  0  0  0  0  0
   -2.7338   -1.4778    0.4114 C   0  0  0  0  0  0  0  0  0  0  0  0
   -0.4067    0.1444   -0.6826 C   0  0  0  0  0  0  0  0  0  0  0  0
   -0.0931    0.1119   -2.0593 C   0  0  0  0  0  0  0  0  0  0  0  0
    1.1262   -0.3625   -2.5106 C   0  0  0  0  0  0  0  0  0  0  0  0
    2.0483   -0.8110   -1.5681 C   0  0  0  0  0  0  0  0  0  0  0  0
    3.3080   -1.3116   -2.0864 N   0  0  0  0  0  4  0  0  0  0  0  0
    4.0145   -0.5114   -2.7138 O   0  0  0  0  0  0  0  0  0  0  0  0
    3.5754   -2.5029   -1.8809 O   0  0  0  0  0  1  0  0  0  0  0  0
    1.8018   -0.7840   -0.1725 C   0  0  0  0  0  0  0  0  0  0  0  0
    2.7384   -1.1980    0.8095 C   0  0  0  0  0  0  0  0  0  0  0  0
    2.4369   -1.1280    2.1608 C   0  0  0  0  0  0  0  0  0  0  0  0
    1.2028   -0.6383    2.5072 C   0  0  0  0  0  0  0  0  0  0  0  0
    0.2858   -0.2308    1.6067 N   0  0  0  0  0  0  0  0  0  0  0  0
    0.5494   -0.2965    0.2787 C   0  0  0  0  0  0  0  0  0  0  0  0
   -0.0445    2.6383    0.7282 H   0  0  0  0  0  0  0  0  0  0  0  0
   -1.2762    3.9007    0.6333 H   0  0  0  0  0  0  0  0  0  0  0  0
   -1.5322    2.4981    1.6799 H   0  0  0  0  0  0  0  0  0  0  0  0
   -1.3858    2.4805   -1.3915 H   0  0  0  0  0  0  0  0  0  0  0  0
   -2.8614    2.3869   -0.4621 H   0  0  0  0  0  0  0  0  0  0  0  0
   -3.4634    0.4836    0.7411 H   0  0  0  0  0  0  0  0  0  0  0  0
   -2.0415    0.1381    1.6872 H   0  0  0  0  0  0  0  0  0  0  0  0
   -1.8109   -2.0647    0.4364 H   0  0  0  0  0  0  0  0  0  0  0  0
   -3.4124   -1.8943    1.1626 H   0  0  0  0  0  0  0  0  0  0  0  0
   -3.1925   -1.6133   -0.5738 H   0  0  0  0  0  0  0  0  0  0  0  0
   -0.8367    0.4450   -2.7815 H   0  0  0  0  0  0  0  0  0  0  0  0
    1.3418   -0.3865   -3.5759 H   0  0  0  0  0  0  0  0  0  0  0  0
    3.7192   -1.5810    0.5332 H   0  0  0  0  0  0  0  0  0  0  0  0
    3.1470   -1.4451    2.9158 H   0  0  0  0  0  0  0  0  0  0  0  0
    0.9008   -0.5530    3.5469 H   0  0  0  0  0  0  0  0  0  0  0  0
  1  2  1  0
  2  3  1  0
  3  4  1  0
  4  5  1  0
  3  6  1  0
  6  7  2  0
  7  8  1  0
  8  9  2  0
  9 10  1  0
 10 11  2  0
 10 12  1  0
  9 13  1  0
 13 14  2  0
 14 15  1  0
 15 16  2  0
 16 17  1  0
 17 18  2  0
 18  6  1  0
 18 13  1  0
  1 19  1  0
  1 20  1  0
  1 21  1  0
  2 22  1  0
  2 23  1  0
  4 24  1  0
  4 25  1  0
  5 26  1  0
  5 27  1  0
  5 28  1  0
  7 29  1  0
  8 30  1  0
 14 31  1  0
 15 32  1  0
 16 33  1  0
M  CHG  2  10   1  12  -1
M  END
$$$$
