
     RDKit          3D

 40 41  0  0  0  0  0  0  0  0999 V2000
   -6.9078   -0.6427    0.0689 C   0  0  0  0  0  0  0  0  0  0  0  0
   -5.4240   -0.4180    0.0750 C   0  0  0  0  0  0  0  0  0  0  0  0
   -4.7052   -0.4493    1.2647 C   0  0  0  0  0  0  0  0  0  0  0  0
   -3.3381   -0.2046    1.2447 C   0  0  0  0  0  0  0  0  0  0  0  0
   -2.6927    0.0794    0.0361 C   0  0  0  0  0  0  0  0  0  0  0  0
   -1.2562    0.3682    0.0175 C   0  0  0  0  0  0  0  0  0  0  0  0
   -0.3377   -0.5255    0.4170 C   0  0  0  0  0  0  0  0  0  0  0  0
    1.1046   -0.2561    0.3776 C   0  0  0  0  0  0  0  0  0  0  0  0
    1.9733   -1.2590   -0.0490 C   0  0  0  0  0  0  0  0  0  0  0  0
    3.3589   -1.0362   -0.0894 C   0  0  0  0  0  0  0  0  0  0  0  0
    3.9391    0.1791    0.3128 C   0  0  0  0  0  0  0  0  0  0  0  0
    5.3170    0.4054    0.2468 N   0  0  0  0  0  0  0  0  0  0  0  0
    5.8908    1.5316    0.9852 C   0  0  0  0  0  0  0  0  0  0  0  0
    6.2198   -0.7262    0.0321 C   0  0  0  0  0  0  0  0  0  0  0  0
    3.0392    1.1684    0.7458 C   0  0  0  0  0  0  0  0  0  0  0  0
    1.6516    0.9586    0.7888 C   0  0  0  0  0  0  0  0  0  0  0  0
   -3.4142    0.1199   -1.1176 N   0  0  0  0  0  4  0  0  0  0  0  0
   -2.7546    0.4004   -2.4093 C   0  0  0  0  0  0  0  0  0  0  0  0
   -4.7482   -0.1177   -1.1068 C   0  0  0  0  0  0  0  0  0  0  0  0
   -7.2200   -1.1511   -0.8510 H   0  0  0  0  0  0  0  0  0  0  0  0
   -7.4305    0.3171    0.1419 H   0  0  0  0  0  0  0  0  0  0  0  0
   -7.2134   -1.2742    0.9114 H   0  0  0  0  0  0  0  0  0  0  0  0
   -5.2010   -0.6611    2.2118 H   0  0  0  0  0  0  0  0  0  0  0  0
   -2.7785   -0.2249    2.1788 H   0  0  0  0  0  0  0  0  0  0  0  0
   -0.9645    1.3470   -0.3543 H   0  0  0  0  0  0  0  0  0  0  0  0
   -0.6158   -1.5196    0.7638 H   0  0  0  0  0  0  0  0  0  0  0  0
    1.5963   -2.2281   -0.3696 H   0  0  0  0  0  0  0  0  0  0  0  0
    3.9754   -1.8555   -0.4481 H   0  0  0  0  0  0  0  0  0  0  0  0
    5.5026    2.4876    0.6165 H   0  0  0  0  0  0  0  0  0  0  0  0
    6.9778    1.5806    0.8559 H   0  0  0  0  0  0  0  0  0  0  0  0
    5.6892    1.4410    2.0587 H   0  0  0  0  0  0  0  0  0  0  0  0
    7.2657   -0.4002   -0.0046 H   0  0  0  0  0  0  0  0  0  0  0  0
    6.0236   -1.2114   -0.9303 H   0  0  0  0  0  0  0  0  0  0  0  0
    6.1300   -1.4614    0.8405 H   0  0  0  0  0  0  0  0  0  0  0  0
    3.3968    2.1430    1.0655 H   0  0  0  0  0  0  0  0  0  0  0  0
    1.0224    1.7641    1.1587 H   0  0  0  0  0  0  0  0  0  0  0  0
   -1.9546   -0.3301   -2.5552 H   0  0  0  0  0  0  0  0  0  0  0  0
   -2.3696    1.4229   -2.3787 H   0  0  0  0  0  0  0  0  0  0  0  0
   -3.4754    0.3086   -3.2259 H   0  0  0  0  0  0  0  0  0  0  0  0
   -5.2722   -0.0702   -2.0589 H   0  0  0  0  0  0  0  0  0  0  0  0
  1  2  1  0
  2  3  2  0
  3  4  1  0
  4  5  2  0
  5  6  1  0
  6  7  2  3
  7  8  1  0
  8  9  2  0
  9 10  1  0
 10 11  2  0
 11 12  1  0
 12 13  1  0
 12 14  1  0
 11 15  1  0
 15 16  2  0
  5 17  1  0
 17 18  1  0
 17 19  2  0
 19  2  1  0
 16  8  1  0
  1 20  1  0
  1 21  1  0
  1 22  1  0
  3 23  1  0
  4 24  1  0
  6 25  1  0
  7 26  1  0
  9 27  1  0
 10 28  1  0
 13 29  1  0
 13 30  1  0
 13 31  1  0
 14 32  1  0
 14 33  1  0
 14 34  1  0
 15 35  1  0
 16 36  1  0
 18 37  1  0
 18 38  1  0
 18 39  1  0
 19 40  1  0
M  CHG  1  17   1
M  END
$$$$
