
     RDKit          3D

 61 66  0  0  0  0  0  0  0  0999 V2000
    6.1544    3.9132   -0.0658 F   0  0  0  0  0  0  0  0  0  0  0  0
    7.1256    3.0206   -0.4104 C   0  0  0  0  0  0  0  0  0  0  0  0
    8.1064    3.1587    0.5239 F   0  0  0  0  0  0  0  0  0  0  0  0
    7.6534    3.4819   -1.5787 F   0  0  0  0  0  0  0  0  0  0  0  0
    6.6124    1.6050   -0.5009 C   0  0  0  0  0  0  0  0  0  0  0  0
    7.0789    0.7340   -1.4965 C   0  0  0  0  0  0  0  0  0  0  0  0
    6.6087   -0.5770   -1.5657 C   0  0  0  0  0  0  0  0  0  0  0  0
    5.6728   -1.0333   -0.6383 C   0  0  0  0  0  0  0  0  0  0  0  0
    5.1968   -0.1861    0.3721 C   0  0  0  0  0  0  0  0  0  0  0  0
    4.1809   -0.6903    1.3768 C   0  0  0  0  0  0  0  0  0  0  0  0
    2.8977   -1.0659    0.7647 N   0  0  0  0  0  0  0  0  0  0  0  0
    2.2219    0.1012    0.1508 C   0  0  0  0  0  0  0  0  0  0  0  0
    0.7101   -0.1103   -0.0792 C   0  0  0  0  0  0  0  0  0  0  0  0
   -0.0166   -0.4011    1.1803 N   0  0  0  0  0  0  0  0  0  0  0  0
   -1.2688   -1.0055    1.0524 C   0  0  0  0  0  0  0  0  0  0  0  0
   -1.4595   -2.1940    1.5686 N   0  0  0  0  0  0  0  0  0  0  0  0
   -2.6967   -2.8509    1.4214 C   0  0  0  0  0  0  0  0  0  0  0  0
   -2.8426   -4.1221    1.9800 C   0  0  0  0  0  0  0  0  0  0  0  0
   -4.0453   -4.8226    1.8557 C   0  0  0  0  0  0  0  0  0  0  0  0
   -5.1181   -4.2549    1.1672 C   0  0  0  0  0  0  0  0  0  0  0  0
   -4.9949   -2.9858    0.6004 C   0  0  0  0  0  0  0  0  0  0  0  0
   -3.7853   -2.2975    0.7327 C   0  0  0  0  0  0  0  0  0  0  0  0
   -3.5790   -1.0122    0.2055 N   0  0  0  0  0  0  0  0  0  0  0  0
   -4.4461   -0.2038   -0.4908 C   0  0  0  0  0  0  0  0  0  0  0  0
   -3.8184    1.0027   -0.7402 C   0  0  0  0  0  0  0  0  0  0  0  0
   -4.4369    2.1162   -1.4452 C   0  0  0  0  0  0  0  0  0  0  0  0
   -5.8027    2.3971   -1.3027 C   0  0  0  0  0  0  0  0  0  0  0  0
   -6.3813    3.4746   -1.9792 C   0  0  0  0  0  0  0  0  0  0  0  0
   -5.6008    4.2820   -2.8038 C   0  0  0  0  0  0  0  0  0  0  0  0
   -4.2417    4.0145   -2.9520 C   0  0  0  0  0  0  0  0  0  0  0  0
   -3.6620    2.9382   -2.2748 C   0  0  0  0  0  0  0  0  0  0  0  0
   -2.5128    0.8981   -0.1871 C   0  0  0  0  0  0  0  0  0  0  0  0
   -2.3758   -0.3638    0.3620 C   0  0  0  0  0  0  0  0  0  0  0  0
    0.8676   -0.8502    2.2765 C   0  0  0  0  0  0  0  0  0  0  0  0
    2.0072   -1.7387    1.7417 C   0  0  0  0  0  0  0  0  0  0  0  0
    5.6766    1.1310    0.4347 C   0  0  0  0  0  0  0  0  0  0  0  0
    7.8104    1.0760   -2.2272 H   0  0  0  0  0  0  0  0  0  0  0  0
    6.9685   -1.2449   -2.3446 H   0  0  0  0  0  0  0  0  0  0  0  0
    5.3037   -2.0556   -0.7060 H   0  0  0  0  0  0  0  0  0  0  0  0
    4.6331   -1.5670    1.8594 H   0  0  0  0  0  0  0  0  0  0  0  0
    4.0291    0.0511    2.1723 H   0  0  0  0  0  0  0  0  0  0  0  0
    2.3457    0.9930    0.7806 H   0  0  0  0  0  0  0  0  0  0  0  0
    2.6889    0.3199   -0.8166 H   0  0  0  0  0  0  0  0  0  0  0  0
    0.3043    0.7953   -0.5391 H   0  0  0  0  0  0  0  0  0  0  0  0
    0.5679   -0.9368   -0.7877 H   0  0  0  0  0  0  0  0  0  0  0  0
   -2.0081   -4.5679    2.5146 H   0  0  0  0  0  0  0  0  0  0  0  0
   -4.1428   -5.8113    2.2964 H   0  0  0  0  0  0  0  0  0  0  0  0
   -6.0521   -4.8035    1.0736 H   0  0  0  0  0  0  0  0  0  0  0  0
   -5.8436   -2.5649    0.0720 H   0  0  0  0  0  0  0  0  0  0  0  0
   -5.4391   -0.5398   -0.7514 H   0  0  0  0  0  0  0  0  0  0  0  0
   -6.4280    1.7909   -0.6522 H   0  0  0  0  0  0  0  0  0  0  0  0
   -7.4406    3.6845   -1.8575 H   0  0  0  0  0  0  0  0  0  0  0  0
   -6.0512    5.1203   -3.3291 H   0  0  0  0  0  0  0  0  0  0  0  0
   -3.6309    4.6420   -3.5956 H   0  0  0  0  0  0  0  0  0  0  0  0
   -2.6017    2.7421   -2.4122 H   0  0  0  0  0  0  0  0  0  0  0  0
   -1.7579    1.6722   -0.1768 H   0  0  0  0  0  0  0  0  0  0  0  0
    0.3123   -1.3826    3.0573 H   0  0  0  0  0  0  0  0  0  0  0  0
    1.2877    0.0363    2.7684 H   0  0  0  0  0  0  0  0  0  0  0  0
    2.5759   -2.1481    2.5856 H   0  0  0  0  0  0  0  0  0  0  0  0
    1.5662   -2.6049    1.2316 H   0  0  0  0  0  0  0  0  0  0  0  0
    5.3163    1.8008    1.2151 H   0  0  0  0  0  0  0  0  0  0  0  0
  1  2  1  0
  2  3  1  0
  2  4  1  0
  2  5  1  0
  5  6  2  0
  6  7  1  0
  7  8  2  0
  8  9  1  0
  9 10  1  0
 10 11  1  0
 11 12  1  0
 12 13  1  0
 13 14  1  0
 14 15  1  0
 15 16  2  0
 16 17  1  0
 17 18  2  0
 18 19  1  0
 19 20  2  0
 20 21  1  0
 21 22  2  0
 22 23  1  0
 23 24  1  0
 24 25  2  0
 25 26  1  0
 26 27  2  0
 27 28  1  0
 28 29  2  0
 29 30  1  0
 30 31  2  0
 25 32  1  0
 32 33  2  0
 14 34  1  0
 34 35  1  0
  9 36  2  0
 36  5  1  0
 35 11  1  0
 33 15  1  0
 22 17  1  0
 33 23  1  0
 31 26  1  0
  6 37  1  0
  7 38  1  0
  8 39  1  0
 10 40  1  0
 10 41  1  0
 12 42  1  0
 12 43  1  0
 13 44  1  0
 13 45  1  0
 18 46  1  0
 19 47  1  0
 20 48  1  0
 21 49  1  0
 24 50  1  0
 27 51  1  0
 28 52  1  0
 29 53  1  0
 30 54  1  0
 31 55  1  0
 32 56  1  0
 34 57  1  0
 34 58  1  0
 35 59  1  0
 35 60  1  0
 36 61  1  0
M  END
$$$$
