
     RDKit          3D

 84 89  0  0  0  0  0  0  0  0999 V2000
   13.2058    0.6867   -0.6540 C   0  0  0  0  0  0  0  0  0  0  0  0
   12.0227    0.9897   -1.3947 O   0  0  0  0  0  0  0  0  0  0  0  0
   10.8891    1.0210   -0.6365 C   0  0  0  0  0  0  0  0  0  0  0  0
   10.8455    0.8230    0.5699 O   0  0  0  0  0  0  0  0  0  0  0  0
    9.7096    1.3733   -1.5135 C   0  0  0  0  0  0  0  0  0  0  0  0
    8.3592    1.0969   -0.8515 C   0  0  0  0  0  0  0  0  0  0  0  0
    8.0518   -0.4019   -0.7546 C   0  0  0  0  0  0  0  0  0  0  0  0
    6.7115   -0.7034   -0.0756 C   0  0  0  0  0  0  0  0  0  0  0  0
    5.5048   -0.2478   -0.8981 C   0  0  0  0  0  0  0  0  0  0  0  0
    4.1843   -0.6558   -0.2381 C   0  0  0  0  0  0  0  0  0  0  0  0
    2.9917   -0.1364   -1.0480 C   0  0  0  0  0  0  0  0  0  0  0  0
    1.6387   -0.5051   -0.4347 C   0  0  0  0  0  0  0  0  0  0  0  0
    1.2629    0.3421    0.7767 C   0  0  0  0  0  0  0  0  0  0  0  0
    2.0634    1.1184    1.2950 O   0  0  0  0  0  0  0  0  0  0  0  0
   -0.0269    0.1898    1.2621 N   0  0  0  0  0  0  0  0  0  0  0  0
   -0.4611    1.0049    2.4042 C   0  0  0  0  0  0  0  0  0  0  0  0
   -1.9099    1.4935    2.2274 C   0  0  0  0  0  0  0  0  0  0  0  0
   -2.8494    0.3839    2.1178 N   0  0  0  0  0  0  0  0  0  0  0  0
   -2.2958   -0.8774    1.5293 C   0  0  2  0  0  0  0  0  0  0  0  0
   -1.0537   -0.6658    0.6414 C   0  0  0  0  0  0  0  0  0  0  0  0
   -3.4682   -1.4238    0.8145 C   0  0  0  0  0  0  0  0  0  0  0  0
   -4.5703   -0.5702    0.8818 C   0  0  0  0  0  0  0  0  0  0  0  0
   -5.6100   -1.1447    0.1936 C   0  0  0  0  0  0  0  0  0  0  0  0
   -6.8556   -0.7160    0.0072 O   0  0  0  0  0  0  0  0  0  0  0  0
   -5.1569   -2.3921   -0.2802 N   0  0  0  0  0  0  0  0  0  0  0  0
   -5.9439   -3.3796   -0.9524 C   0  0  0  0  0  0  0  0  0  0  0  0
   -6.9958   -3.0031   -1.7971 C   0  0  0  0  0  0  0  0  0  0  0  0
   -7.7539   -3.9764   -2.4538 C   0  0  0  0  0  0  0  0  0  0  0  0
   -7.4750   -5.3283   -2.2641 C   0  0  0  0  0  0  0  0  0  0  0  0
   -6.4418   -5.7120   -1.4118 C   0  0  0  0  0  0  0  0  0  0  0  0
   -5.6777   -4.7436   -0.7556 C   0  0  0  0  0  0  0  0  0  0  0  0
   -3.7874   -2.5017    0.0376 C   0  0  0  0  0  0  0  0  0  0  0  0
   -2.9704   -3.4524   -0.4114 O   0  0  0  0  0  0  0  0  0  0  0  0
   -4.2282    0.6597    1.6310 C   0  0  1  0  0  0  0  0  0  0  0  0
   -5.1880    0.9881    2.8027 C   0  0  0  0  0  0  0  0  0  0  0  0
   -5.4167    0.3489    3.8175 O   0  0  0  0  0  0  0  0  0  0  0  0
   -5.7998    2.2052    2.4913 N   0  0  0  0  0  0  0  0  0  0  0  0
   -5.3812    2.7029    1.2600 C   0  0  0  0  0  0  0  0  0  0  0  0
   -4.4539    1.8178    0.6869 C   0  0  0  0  0  0  0  0  0  0  0  0
   -3.9134    2.0784   -0.5637 C   0  0  0  0  0  0  0  0  0  0  0  0
   -4.3033    3.2458   -1.2191 C   0  0  0  0  0  0  0  0  0  0  0  0
   -5.2250    4.1323   -0.6286 C   0  0  0  0  0  0  0  0  0  0  0  0
   -5.6367    5.5549   -1.5246 Cl  0  0  0  0  0  0  0  0  0  0  0  0
   -5.7934    3.8736    0.6335 C   0  0  0  0  0  0  0  0  0  0  0  0
   -6.7729    4.8206    1.2606 C   0  0  0  0  0  0  0  0  0  0  0  0
   14.0455    0.6606   -1.3535 H   0  0  0  0  0  0  0  0  0  0  0  0
   13.3979    1.4655    0.0906 H   0  0  0  0  0  0  0  0  0  0  0  0
   13.1225   -0.2952   -0.1756 H   0  0  0  0  0  0  0  0  0  0  0  0
    9.7807    0.8146   -2.4532 H   0  0  0  0  0  0  0  0  0  0  0  0
    9.7863    2.4421   -1.7418 H   0  0  0  0  0  0  0  0  0  0  0  0
    8.3266    1.5472    0.1476 H   0  0  0  0  0  0  0  0  0  0  0  0
    7.5876    1.5902   -1.4524 H   0  0  0  0  0  0  0  0  0  0  0  0
    8.0638   -0.8493   -1.7562 H   0  0  0  0  0  0  0  0  0  0  0  0
    8.8425   -0.8987   -0.1800 H   0  0  0  0  0  0  0  0  0  0  0  0
    6.6443   -1.7855    0.0876 H   0  0  0  0  0  0  0  0  0  0  0  0
    6.6868   -0.2326    0.9137 H   0  0  0  0  0  0  0  0  0  0  0  0
    5.5217    0.8411   -1.0152 H   0  0  0  0  0  0  0  0  0  0  0  0
    5.5598   -0.6841   -1.9027 H   0  0  0  0  0  0  0  0  0  0  0  0
    4.1532   -0.2627    0.7844 H   0  0  0  0  0  0  0  0  0  0  0  0
    4.1315   -1.7490   -0.1650 H   0  0  0  0  0  0  0  0  0  0  0  0
    3.0426   -0.5686   -2.0558 H   0  0  0  0  0  0  0  0  0  0  0  0
    3.0647    0.9521   -1.1654 H   0  0  0  0  0  0  0  0  0  0  0  0
    1.6317   -1.5625   -0.1463 H   0  0  0  0  0  0  0  0  0  0  0  0
    0.8742   -0.3494   -1.2049 H   0  0  0  0  0  0  0  0  0  0  0  0
   -0.3735    0.3802    3.3009 H   0  0  0  0  0  0  0  0  0  0  0  0
    0.2009    1.8664    2.5390 H   0  0  0  0  0  0  0  0  0  0  0  0
   -2.1890    2.1221    3.0804 H   0  0  0  0  0  0  0  0  0  0  0  0
   -1.9229    2.1237    1.3332 H   0  0  0  0  0  0  0  0  0  0  0  0
   -2.0295   -1.5374    2.3638 H   0  0  0  0  0  0  0  0  0  0  0  0
   -0.6093   -1.6333    0.3864 H   0  0  0  0  0  0  0  0  0  0  0  0
   -1.3353   -0.1814   -0.3017 H   0  0  0  0  0  0  0  0  0  0  0  0
   -6.9688    0.1214    0.4908 H   0  0  0  0  0  0  0  0  0  0  0  0
   -7.2269   -1.9577   -1.9858 H   0  0  0  0  0  0  0  0  0  0  0  0
   -8.5647   -3.6751   -3.1136 H   0  0  0  0  0  0  0  0  0  0  0  0
   -8.0729   -6.0825   -2.7702 H   0  0  0  0  0  0  0  0  0  0  0  0
   -6.2433   -6.7681   -1.2418 H   0  0  0  0  0  0  0  0  0  0  0  0
   -4.9189   -5.0783   -0.0509 H   0  0  0  0  0  0  0  0  0  0  0  0
   -3.3904   -3.8946   -1.1723 H   0  0  0  0  0  0  0  0  0  0  0  0
   -6.4613    2.6357    3.1209 H   0  0  0  0  0  0  0  0  0  0  0  0
   -3.2062    1.3962   -1.0263 H   0  0  0  0  0  0  0  0  0  0  0  0
   -3.8861    3.4685   -2.1992 H   0  0  0  0  0  0  0  0  0  0  0  0
   -7.6215    4.9934    0.5909 H   0  0  0  0  0  0  0  0  0  0  0  0
   -6.2829    5.7742    1.4848 H   0  0  0  0  0  0  0  0  0  0  0  0
   -7.1863    4.4371    2.1974 H   0  0  0  0  0  0  0  0  0  0  0  0
  1  2  1  0
  2  3  1  0
  3  4  2  0
  3  5  1  0
  5  6  1  0
  6  7  1  0
  7  8  1  0
  8  9  1  0
  9 10  1  0
 10 11  1  0
 11 12  1  0
 12 13  1  0
 13 14  2  0
 13 15  1  0
 15 16  1  0
 16 17  1  0
 17 18  1  0
 18 19  1  0
 19 20  1  0
 19 21  1  0
 21 22  1  0
 22 23  2  0
 23 24  1  0
 23 25  1  0
 25 26  1  0
 26 27  2  0
 27 28  1  0
 28 29  2  0
 29 30  1  0
 30 31  2  0
 25 32  1  0
 32 33  1  0
 22 34  1  0
 34 35  1  0
 35 36  2  0
 35 37  1  0
 37 38  1  0
 38 39  2  0
 39 40  1  0
 40 41  2  0
 41 42  1  0
 42 43  1  0
 42 44  2  0
 44 45  1  0
 20 15  1  0
 32 21  2  0
 39 34  1  0
 34 18  1  1
 44 38  1  0
 31 26  1  0
  1 46  1  0
  1 47  1  0
  1 48  1  0
  5 49  1  0
  5 50  1  0
  6 51  1  0
  6 52  1  0
  7 53  1  0
  7 54  1  0
  8 55  1  0
  8 56  1  0
  9 57  1  0
  9 58  1  0
 10 59  1  0
 10 60  1  0
 11 61  1  0
 11 62  1  0
 12 63  1  0
 12 64  1  0
 16 65  1  0
 16 66  1  0
 17 67  1  0
 17 68  1  0
 19 69  1  1
 20 70  1  0
 20 71  1  0
 24 72  1  0
 27 73  1  0
 28 74  1  0
 29 75  1  0
 30 76  1  0
 31 77  1  0
 33 78  1  0
 37 79  1  0
 40 80  1  0
 41 81  1  0
 45 82  1  0
 45 83  1  0
 45 84  1  0
M  END
$$$$
