
     RDKit          3D

 67 72  0  0  0  0  0  0  0  0999 V2000
   -4.2838   -4.5100    1.7782 C   0  0  0  0  0  0  0  0  0  0  0  0
   -3.4292   -3.2922    1.9597 C   0  0  0  0  0  0  0  0  0  0  0  0
   -3.2648   -2.6878    3.2214 C   0  0  0  0  0  0  0  0  0  0  0  0
   -4.0423   -3.3284    4.6295 Cl  0  0  0  0  0  0  0  0  0  0  0  0
   -2.4621   -1.5426    3.3956 C   0  0  0  0  0  0  0  0  0  0  0  0
   -1.8058   -0.9587    2.3125 C   0  0  0  0  0  0  0  0  0  0  0  0
   -1.9739   -1.5345    1.0642 C   0  0  0  0  0  0  0  0  0  0  0  0
   -2.7646   -2.6830    0.9021 C   0  0  0  0  0  0  0  0  0  0  0  0
   -2.7460   -3.0791   -0.4358 N   0  0  0  0  0  0  0  0  0  0  0  0
   -1.9596   -2.2297   -1.2186 C   0  0  0  0  0  0  0  0  0  0  0  0
   -1.7560   -2.3753   -2.4154 O   0  0  0  0  0  0  0  0  0  0  0  0
   -1.4072   -1.1414   -0.2676 C   0  0  1  0  0  0  0  0  0  0  0  0
   -1.8606    0.2270   -0.6215 C   0  0  0  0  0  0  0  0  0  0  0  0
   -0.7979    0.9615   -1.1689 C   0  0  0  0  0  0  0  0  0  0  0  0
   -1.2289    2.2234   -1.4621 C   0  0  0  0  0  0  0  0  0  0  0  0
   -0.5075    3.2533   -1.8994 O   0  0  0  0  0  0  0  0  0  0  0  0
   -2.6012    2.2678   -1.1461 N   0  0  0  0  0  0  0  0  0  0  0  0
   -3.4600    3.3954   -1.3084 C   0  0  0  0  0  0  0  0  0  0  0  0
   -3.3296    4.2230   -2.4341 C   0  0  0  0  0  0  0  0  0  0  0  0
   -4.1748    5.3238   -2.5886 C   0  0  0  0  0  0  0  0  0  0  0  0
   -5.1383    5.5931   -1.6232 C   0  0  0  0  0  0  0  0  0  0  0  0
   -5.9464    6.6499   -1.7749 F   0  0  0  0  0  0  0  0  0  0  0  0
   -5.2764    4.7816   -0.5027 C   0  0  0  0  0  0  0  0  0  0  0  0
   -4.4376    3.6771   -0.3414 C   0  0  0  0  0  0  0  0  0  0  0  0
   -2.9865    1.0053   -0.6501 C   0  0  0  0  0  0  0  0  0  0  0  0
   -4.2355    0.6542   -0.3479 O   0  0  0  0  0  0  0  0  0  0  0  0
    0.4243    0.1368   -1.2394 C   0  0  1  0  0  0  0  0  0  0  0  0
    1.7376    0.7520   -0.7573 C   0  0  0  0  0  0  0  0  0  0  0  0
    2.7462   -0.2727   -0.4256 N   0  0  0  0  0  0  0  0  0  0  0  0
    4.0040    0.1542   -0.0502 C   0  0  0  0  0  0  0  0  0  0  0  0
    4.2933    1.3327    0.1135 O   0  0  0  0  0  0  0  0  0  0  0  0
    4.8707   -0.8788    0.1058 O   0  0  0  0  0  0  0  0  0  0  0  0
    6.2476   -0.6484    0.4984 C   0  0  0  0  0  0  0  0  0  0  0  0
    6.9997    0.1688   -0.5577 C   0  0  0  0  0  0  0  0  0  0  0  0
    6.3332   -0.0091    1.8888 C   0  0  0  0  0  0  0  0  0  0  0  0
    6.8703   -2.0515    0.5661 C   0  0  0  0  0  0  0  0  0  0  0  0
    2.4181   -1.6770   -0.7254 C   0  0  0  0  0  0  0  0  0  0  0  0
    0.9665   -2.0886   -0.3442 C   0  0  0  0  0  0  0  0  0  0  0  0
    0.0584   -0.9604   -0.3045 N   0  0  0  0  0  0  0  0  0  0  0  0
   -4.2528   -4.8948    0.7551 H   0  0  0  0  0  0  0  0  0  0  0  0
   -5.3289   -4.2765    2.0072 H   0  0  0  0  0  0  0  0  0  0  0  0
   -3.9401   -5.3197    2.4308 H   0  0  0  0  0  0  0  0  0  0  0  0
   -2.3497   -1.1020    4.3838 H   0  0  0  0  0  0  0  0  0  0  0  0
   -1.1854   -0.0769    2.4414 H   0  0  0  0  0  0  0  0  0  0  0  0
   -3.2280   -3.8721   -0.8293 H   0  0  0  0  0  0  0  0  0  0  0  0
   -0.9459    4.0836   -1.6409 H   0  0  0  0  0  0  0  0  0  0  0  0
   -2.6126    4.0012   -3.2232 H   0  0  0  0  0  0  0  0  0  0  0  0
   -4.0963    5.9662   -3.4609 H   0  0  0  0  0  0  0  0  0  0  0  0
   -6.0301    5.0200    0.2417 H   0  0  0  0  0  0  0  0  0  0  0  0
   -4.5312    3.0784    0.5636 H   0  0  0  0  0  0  0  0  0  0  0  0
   -4.8547    1.2410   -0.8171 H   0  0  0  0  0  0  0  0  0  0  0  0
    0.5329   -0.2592   -2.2585 H   0  0  0  0  0  0  0  0  0  0  0  0
    2.1546    1.4113   -1.5283 H   0  0  0  0  0  0  0  0  0  0  0  0
    1.5897    1.3647    0.1416 H   0  0  0  0  0  0  0  0  0  0  0  0
    8.0742    0.1996   -0.3467 H   0  0  0  0  0  0  0  0  0  0  0  0
    6.8526   -0.2579   -1.5562 H   0  0  0  0  0  0  0  0  0  0  0  0
    6.6464    1.2032   -0.6035 H   0  0  0  0  0  0  0  0  0  0  0  0
    5.9718    1.0235    1.8878 H   0  0  0  0  0  0  0  0  0  0  0  0
    5.7146   -0.5578    2.6079 H   0  0  0  0  0  0  0  0  0  0  0  0
    7.3647    0.0065    2.2570 H   0  0  0  0  0  0  0  0  0  0  0  0
    7.9252   -2.0153    0.8575 H   0  0  0  0  0  0  0  0  0  0  0  0
    6.3335   -2.6813    1.2851 H   0  0  0  0  0  0  0  0  0  0  0  0
    6.7961   -2.5580   -0.4034 H   0  0  0  0  0  0  0  0  0  0  0  0
    2.5523   -1.7889   -1.8088 H   0  0  0  0  0  0  0  0  0  0  0  0
    3.1237   -2.3591   -0.2411 H   0  0  0  0  0  0  0  0  0  0  0  0
    0.6431   -2.8628   -1.0485 H   0  0  0  0  0  0  0  0  0  0  0  0
    0.9867   -2.5491    0.6503 H   0  0  0  0  0  0  0  0  0  0  0  0
  1  2  1  0
  2  3  2  0
  3  4  1  0
  3  5  1  0
  5  6  2  0
  6  7  1  0
  7  8  2  0
  8  9  1  0
  9 10  1  0
 10 11  2  0
 10 12  1  0
 12 13  1  0
 13 14  1  0
 14 15  2  0
 15 16  1  0
 15 17  1  0
 17 18  1  0
 18 19  2  0
 19 20  1  0
 20 21  2  0
 21 22  1  0
 21 23  1  0
 23 24  2  0
 17 25  1  0
 25 26  1  0
 14 27  1  0
 27 28  1  0
 28 29  1  0
 29 30  1  0
 30 31  2  0
 30 32  1  0
 32 33  1  0
 33 34  1  0
 33 35  1  0
 33 36  1  0
 29 37  1  0
 37 38  1  0
 38 39  1  0
  8  2  1  0
 12 39  1  1
 12  7  1  0
 25 13  2  0
 39 27  1  0
 24 18  1  0
  1 40  1  0
  1 41  1  0
  1 42  1  0
  5 43  1  0
  6 44  1  0
  9 45  1  0
 16 46  1  0
 19 47  1  0
 20 48  1  0
 23 49  1  0
 24 50  1  0
 26 51  1  0
 27 52  1  6
 28 53  1  0
 28 54  1  0
 34 55  1  0
 34 56  1  0
 34 57  1  0
 35 58  1  0
 35 59  1  0
 35 60  1  0
 36 61  1  0
 36 62  1  0
 36 63  1  0
 37 64  1  0
 37 65  1  0
 38 66  1  0
 38 67  1  0
M  END
$$$$
