
     RDKit          3D

 60 63  0  0  0  0  0  0  0  0999 V2000
    5.6214    5.2840    2.0457 C   0  0  0  0  0  0  0  0  0  0  0  0
    6.3829    4.1986    1.3048 C   0  0  0  0  0  0  0  0  0  0  0  0
    5.4531    3.1729    0.9440 O   0  0  0  0  0  0  0  0  0  0  0  0
    5.9418    2.0663    0.2987 C   0  0  0  0  0  0  0  0  0  0  0  0
    7.2701    1.9171   -0.1190 C   0  0  0  0  0  0  0  0  0  0  0  0
    7.6828    0.7555   -0.7815 C   0  0  0  0  0  0  0  0  0  0  0  0
    6.7754   -0.2704   -1.0346 C   0  0  0  0  0  0  0  0  0  0  0  0
    5.4505   -0.1377   -0.6246 C   0  0  0  0  0  0  0  0  0  0  0  0
    5.0325    1.0260    0.0386 C   0  0  0  0  0  0  0  0  0  0  0  0
    3.6213    1.1433    0.4695 C   0  0  0  0  0  0  0  0  0  0  0  0
    2.7683    0.1859    0.2746 N   0  0  0  0  0  0  0  0  0  0  0  0
    1.5073    0.4303    0.7322 N   0  0  0  0  0  0  0  0  0  0  0  0
    0.5059   -0.5239    0.6108 C   0  0  0  0  0  0  0  0  0  0  0  0
    0.6433   -1.6286    0.0939 O   0  0  0  0  0  0  0  0  0  0  0  0
   -0.7483   -0.0788    1.2184 C   0  0  0  0  0  0  0  0  0  0  0  0
   -0.8248    1.0619    1.9726 N   0  0  0  0  0  0  0  0  0  0  0  0
   -2.0615    1.1800    2.4177 N   0  0  0  0  0  0  0  0  0  0  0  0
   -2.8045    0.1179    1.9771 N   0  0  0  0  0  0  0  0  0  0  0  0
   -4.1648   -0.0183    2.3613 C   0  0  0  0  0  0  0  0  0  0  0  0
   -4.9119   -1.0410    1.9458 N   0  0  0  0  0  0  0  0  0  0  0  0
   -6.1624   -0.8054    2.5121 O   0  0  0  0  0  0  0  0  0  0  0  0
   -6.1616    0.3583    3.2706 N   0  0  0  0  0  0  0  0  0  0  0  0
   -4.9220    0.8387    3.1867 C   0  0  0  0  0  0  0  0  0  0  0  0
   -4.5023    1.9601    3.8010 N   0  0  0  0  0  0  0  0  0  0  0  0
   -2.0009   -0.6765    1.1638 C   0  0  0  0  0  0  0  0  0  0  0  0
   -2.4197   -1.8955    0.4217 C   0  0  0  0  0  0  0  0  0  0  0  0
   -2.5148   -1.6152   -1.0177 N   0  0  0  0  0  0  0  0  0  0  0  0
   -3.7581   -0.9433   -1.4172 C   0  0  0  0  0  0  0  0  0  0  0  0
   -4.8098   -1.9027   -1.9717 C   0  0  0  0  0  0  0  0  0  0  0  0
   -4.3018   -2.6004   -3.2439 C   0  0  0  0  0  0  0  0  0  0  0  0
   -5.0151   -3.9396   -3.4406 C   0  0  0  0  0  0  0  0  0  0  0  0
   -2.7725   -2.7700   -3.2193 C   0  0  0  0  0  0  0  0  0  0  0  0
   -2.2384   -2.8396   -1.7891 C   0  0  0  0  0  0  0  0  0  0  0  0
    5.1340    4.8732    2.9376 H   0  0  0  0  0  0  0  0  0  0  0  0
    6.2921    6.0939    2.3515 H   0  0  0  0  0  0  0  0  0  0  0  0
    4.8299    5.7012    1.4123 H   0  0  0  0  0  0  0  0  0  0  0  0
    6.8354    4.6339    0.4045 H   0  0  0  0  0  0  0  0  0  0  0  0
    7.1607    3.7919    1.9643 H   0  0  0  0  0  0  0  0  0  0  0  0
    8.0152    2.6882    0.0497 H   0  0  0  0  0  0  0  0  0  0  0  0
    8.7166    0.6535   -1.1033 H   0  0  0  0  0  0  0  0  0  0  0  0
    7.0951   -1.1720   -1.5527 H   0  0  0  0  0  0  0  0  0  0  0  0
    4.7449   -0.9419   -0.8265 H   0  0  0  0  0  0  0  0  0  0  0  0
    3.3202    2.0811    0.9691 H   0  0  0  0  0  0  0  0  0  0  0  0
    1.2959    1.3018    1.2075 H   0  0  0  0  0  0  0  0  0  0  0  0
   -3.5939    2.3745    3.5975 H   0  0  0  0  0  0  0  0  0  0  0  0
   -5.1799    2.5912    4.2172 H   0  0  0  0  0  0  0  0  0  0  0  0
   -1.6405   -2.6495    0.6037 H   0  0  0  0  0  0  0  0  0  0  0  0
   -3.3321   -2.3658    0.7929 H   0  0  0  0  0  0  0  0  0  0  0  0
   -3.5065   -0.2117   -2.1979 H   0  0  0  0  0  0  0  0  0  0  0  0
   -4.1875   -0.3486   -0.6049 H   0  0  0  0  0  0  0  0  0  0  0  0
   -5.7302   -1.3536   -2.2024 H   0  0  0  0  0  0  0  0  0  0  0  0
   -5.0732   -2.6374   -1.1998 H   0  0  0  0  0  0  0  0  0  0  0  0
   -4.5495   -1.9713   -4.1094 H   0  0  0  0  0  0  0  0  0  0  0  0
   -4.7788   -4.6412   -2.6324 H   0  0  0  0  0  0  0  0  0  0  0  0
   -4.7173   -4.4016   -4.3875 H   0  0  0  0  0  0  0  0  0  0  0  0
   -6.1014   -3.8023   -3.4656 H   0  0  0  0  0  0  0  0  0  0  0  0
   -2.3079   -1.9167   -3.7318 H   0  0  0  0  0  0  0  0  0  0  0  0
   -2.4673   -3.6628   -3.7779 H   0  0  0  0  0  0  0  0  0  0  0  0
   -1.1540   -2.9999   -1.8182 H   0  0  0  0  0  0  0  0  0  0  0  0
   -2.6813   -3.7181   -1.2998 H   0  0  0  0  0  0  0  0  0  0  0  0
  1  2  1  0
  2  3  1  0
  3  4  1  0
  4  5  2  0
  5  6  1  0
  6  7  2  0
  7  8  1  0
  8  9  2  0
  9 10  1  0
 10 11  2  3
 11 12  1  0
 12 13  1  0
 13 14  2  0
 13 15  1  0
 15 16  1  0
 16 17  2  0
 17 18  1  0
 18 19  1  0
 19 20  2  0
 20 21  1  0
 21 22  1  0
 22 23  2  0
 23 24  1  0
 18 25  1  0
 25 26  1  0
 26 27  1  0
 27 28  1  0
 28 29  1  0
 29 30  1  0
 30 31  1  0
 30 32  1  0
 32 33  1  0
  9  4  1  0
 25 15  2  0
 33 27  1  0
 23 19  1  0
  1 34  1  0
  1 35  1  0
  1 36  1  0
  2 37  1  0
  2 38  1  0
  5 39  1  0
  6 40  1  0
  7 41  1  0
  8 42  1  0
 10 43  1  0
 12 44  1  0
 24 45  1  0
 24 46  1  0
 26 47  1  0
 26 48  1  0
 28 49  1  0
 28 50  1  0
 29 51  1  0
 29 52  1  0
 30 53  1  0
 31 54  1  0
 31 55  1  0
 31 56  1  0
 32 57  1  0
 32 58  1  0
 33 59  1  0
 33 60  1  0
M  END
$$$$
