
     RDKit          3D

 40 42  0  0  0  0  0  0  0  0999 V2000
    1.1156   -2.5957    2.0375 O   0  0  0  0  0  0  0  0  0  0  0  0
    1.4581   -2.1650    0.9389 C   0  0  0  0  0  0  0  0  0  0  0  0
    2.8643   -2.3484    0.3962 C   0  0  0  0  0  0  0  0  0  0  0  0
    3.5983   -1.0421    0.2079 C   0  0  0  0  0  0  0  0  0  0  0  0
    3.8948   -0.2332    1.3143 C   0  0  0  0  0  0  0  0  0  0  0  0
    4.5693    0.9764    1.1456 C   0  0  0  0  0  0  0  0  0  0  0  0
    4.9543    1.3892   -0.1280 C   0  0  0  0  0  0  0  0  0  0  0  0
    4.6689    0.5905   -1.2340 C   0  0  0  0  0  0  0  0  0  0  0  0
    3.9949   -0.6207   -1.0690 C   0  0  0  0  0  0  0  0  0  0  0  0
    0.6000   -1.5090    0.0829 N   0  0  0  0  0  0  0  0  0  0  0  0
   -0.7167   -1.0827    0.5319 C   0  0  0  0  0  0  0  0  0  0  0  0
   -1.5898   -0.6006   -0.6460 C   0  0  0  0  0  0  0  0  0  0  0  0
   -0.8540    0.3635   -1.4352 O   0  0  0  0  0  0  0  0  0  0  0  0
   -0.9037    1.6836   -0.8922 C   0  0  0  0  0  0  0  0  0  0  0  0
   -2.3270    2.2197   -0.9619 C   0  0  0  0  0  0  0  0  0  0  0  0
   -3.2879    1.2639   -0.3072 C   0  0  0  0  0  0  0  0  0  0  0  0
   -4.5436    1.7121    0.1235 C   0  0  0  0  0  0  0  0  0  0  0  0
   -5.4530    0.8193    0.6888 C   0  0  0  0  0  0  0  0  0  0  0  0
   -5.1219   -0.5282    0.8124 C   0  0  0  0  0  0  0  0  0  0  0  0
   -3.8784   -0.9850    0.3744 C   0  0  0  0  0  0  0  0  0  0  0  0
   -2.9475   -0.0962   -0.1873 C   0  0  0  0  0  0  0  0  0  0  0  0
    2.7971   -2.9035   -0.5479 H   0  0  0  0  0  0  0  0  0  0  0  0
    3.4310   -2.9817    1.0900 H   0  0  0  0  0  0  0  0  0  0  0  0
    3.6019   -0.5431    2.3159 H   0  0  0  0  0  0  0  0  0  0  0  0
    4.7962    1.5955    2.0106 H   0  0  0  0  0  0  0  0  0  0  0  0
    5.4813    2.3303   -0.2579 H   0  0  0  0  0  0  0  0  0  0  0  0
    4.9755    0.9098   -2.2271 H   0  0  0  0  0  0  0  0  0  0  0  0
    3.7867   -1.2331   -1.9432 H   0  0  0  0  0  0  0  0  0  0  0  0
    1.0137   -0.9475   -0.6552 H   0  0  0  0  0  0  0  0  0  0  0  0
   -0.5547   -0.2803    1.2610 H   0  0  0  0  0  0  0  0  0  0  0  0
   -1.1923   -1.9136    1.0671 H   0  0  0  0  0  0  0  0  0  0  0  0
   -1.7549   -1.4468   -1.3236 H   0  0  0  0  0  0  0  0  0  0  0  0
   -0.2431    2.3154   -1.4939 H   0  0  0  0  0  0  0  0  0  0  0  0
   -0.5138    1.6897    0.1326 H   0  0  0  0  0  0  0  0  0  0  0  0
   -2.6289    2.3298   -2.0101 H   0  0  0  0  0  0  0  0  0  0  0  0
   -2.3710    3.2035   -0.4820 H   0  0  0  0  0  0  0  0  0  0  0  0
   -4.8195    2.7588    0.0184 H   0  0  0  0  0  0  0  0  0  0  0  0
   -6.4242    1.1732    1.0254 H   0  0  0  0  0  0  0  0  0  0  0  0
   -5.8338   -1.2248    1.2475 H   0  0  0  0  0  0  0  0  0  0  0  0
   -3.6425   -2.0431    0.4726 H   0  0  0  0  0  0  0  0  0  0  0  0
  1  2  2  0
  2  3  1  0
  3  4  1  0
  4  5  2  0
  5  6  1  0
  6  7  2  0
  7  8  1  0
  8  9  2  0
  2 10  1  0
 10 11  1  0
 11 12  1  0
 12 13  1  0
 13 14  1  0
 14 15  1  0
 15 16  1  0
 16 17  2  0
 17 18  1  0
 18 19  2  0
 19 20  1  0
 20 21  2  0
  9  4  1  0
 21 12  1  0
 21 16  1  0
  3 22  1  0
  3 23  1  0
  5 24  1  0
  6 25  1  0
  7 26  1  0
  8 27  1  0
  9 28  1  0
 10 29  1  0
 11 30  1  0
 11 31  1  0
 12 32  1  0
 14 33  1  0
 14 34  1  0
 15 35  1  0
 15 36  1  0
 17 37  1  0
 18 38  1  0
 19 39  1  0
 20 40  1  0
M  END
$$$$
