
     RDKit          3D

 44 47  0  0  0  0  0  0  0  0999 V2000
   -5.3840   -3.0114    1.3098 C   0  0  0  0  0  0  0  0  0  0  0  0
   -4.4257   -2.0672    0.6065 C   0  0  0  0  0  0  0  0  0  0  0  0
   -4.5747   -0.7687    1.1959 O   0  0  0  0  0  0  0  0  0  0  0  0
   -3.4167   -0.0387    1.1560 C   0  0  0  0  0  0  0  0  0  0  0  0
   -2.9815    0.4841    2.3731 C   0  0  0  0  0  0  0  0  0  0  0  0
   -1.8003    1.2282    2.4369 C   0  0  0  0  0  0  0  0  0  0  0  0
   -1.0439    1.4570    1.2800 C   0  0  0  0  0  0  0  0  0  0  0  0
    0.1773    2.2629    1.3736 C   0  0  0  0  0  0  0  0  0  0  0  0
    1.4229    1.8712    1.0648 C   0  0  0  0  0  0  0  0  0  0  0  0
    2.7915    2.9780    1.2202 S   0  0  0  0  0  0  0  0  0  0  0  0
    3.8416    1.7544    0.6444 C   0  0  0  0  0  0  0  0  0  0  0  0
    5.1167    1.6729    0.3977 N   0  0  0  0  0  0  0  0  0  0  0  0
    5.2231    0.3646   -0.0561 C   0  0  0  0  0  0  0  0  0  0  0  0
    6.5887   -0.2455   -0.5113 C   0  0  0  0  0  0  0  0  0  0  0  0
    7.8019    0.4161   -0.5056 C   0  0  0  0  0  0  0  0  0  0  0  0
    8.7661   -0.4966   -1.0000 C   0  0  0  0  0  0  0  0  0  0  0  0
    8.0846   -1.6578   -1.2752 C   0  0  0  0  0  0  0  0  0  0  0  0
    6.7667   -1.5167   -0.9821 O   0  0  0  0  0  0  0  0  0  0  0  0
    4.0682   -0.3306   -0.0810 N   0  0  0  0  0  0  0  0  0  0  0  0
    3.2092    0.5962    0.3737 N   0  0  0  0  0  0  0  0  0  0  0  0
    1.8470    0.5159    0.5763 C   0  0  0  0  0  0  0  0  0  0  0  0
    1.1992   -0.4931    0.3737 O   0  0  0  0  0  0  0  0  0  0  0  0
   -1.5065    0.9691    0.0533 C   0  0  0  0  0  0  0  0  0  0  0  0
   -2.7003    0.2455   -0.0106 C   0  0  0  0  0  0  0  0  0  0  0  0
   -3.1088   -0.1880   -1.2443 O   0  0  0  0  0  0  0  0  0  0  0  0
   -4.1244    0.6813   -1.7622 C   0  0  0  0  0  0  0  0  0  0  0  0
   -4.5022    0.1863   -3.1463 C   0  0  0  0  0  0  0  0  0  0  0  0
   -6.4139   -2.6501    1.2268 H   0  0  0  0  0  0  0  0  0  0  0  0
   -5.3278   -4.0164    0.8805 H   0  0  0  0  0  0  0  0  0  0  0  0
   -5.1515   -3.0718    2.3789 H   0  0  0  0  0  0  0  0  0  0  0  0
   -3.4034   -2.4517    0.7123 H   0  0  0  0  0  0  0  0  0  0  0  0
   -4.6909   -2.0197   -0.4537 H   0  0  0  0  0  0  0  0  0  0  0  0
   -3.5543    0.2963    3.2768 H   0  0  0  0  0  0  0  0  0  0  0  0
   -1.4757    1.6169    3.3999 H   0  0  0  0  0  0  0  0  0  0  0  0
    0.0046    3.2719    1.7461 H   0  0  0  0  0  0  0  0  0  0  0  0
    7.9614    1.4361   -0.1830 H   0  0  0  0  0  0  0  0  0  0  0  0
    9.8250   -0.3294   -1.1387 H   0  0  0  0  0  0  0  0  0  0  0  0
    8.3741   -2.6244   -1.6643 H   0  0  0  0  0  0  0  0  0  0  0  0
   -0.9503    1.1426   -0.8632 H   0  0  0  0  0  0  0  0  0  0  0  0
   -5.0129    0.6667   -1.1201 H   0  0  0  0  0  0  0  0  0  0  0  0
   -3.7461    1.7084   -1.8337 H   0  0  0  0  0  0  0  0  0  0  0  0
   -5.2691    0.8231   -3.5935 H   0  0  0  0  0  0  0  0  0  0  0  0
   -3.6249    0.1744   -3.8035 H   0  0  0  0  0  0  0  0  0  0  0  0
   -4.8800   -0.8420   -3.0982 H   0  0  0  0  0  0  0  0  0  0  0  0
  1  2  1  0
  2  3  1  0
  3  4  1  0
  4  5  2  0
  5  6  1  0
  6  7  2  0
  7  8  1  0
  8  9  2  3
  9 10  1  0
 10 11  1  0
 11 12  2  0
 12 13  1  0
 13 14  1  0
 14 15  2  0
 15 16  1  0
 16 17  2  0
 17 18  1  0
 13 19  2  0
 19 20  1  0
 20 21  1  0
 21 22  2  0
  7 23  1  0
 23 24  2  0
 24 25  1  0
 25 26  1  0
 26 27  1  0
 24  4  1  0
 21  9  1  0
 20 11  1  0
 18 14  1  0
  1 28  1  0
  1 29  1  0
  1 30  1  0
  2 31  1  0
  2 32  1  0
  5 33  1  0
  6 34  1  0
  8 35  1  0
 15 36  1  0
 16 37  1  0
 17 38  1  0
 23 39  1  0
 26 40  1  0
 26 41  1  0
 27 42  1  0
 27 43  1  0
 27 44  1  0
M  END
$$$$
