
     RDKit          3D

 61 66  0  0  0  0  0  0  0  0999 V2000
   10.4644   -0.2261    1.9753 Cl  0  0  0  0  0  0  0  0  0  0  0  0
    8.7723   -0.1742    1.6299 C   0  0  0  0  0  0  0  0  0  0  0  0
    8.3250    0.7780    0.7096 C   0  0  0  0  0  0  0  0  0  0  0  0
    6.9677    0.8667    0.3908 C   0  0  0  0  0  0  0  0  0  0  0  0
    6.0408    0.0066    0.9927 C   0  0  0  0  0  0  0  0  0  0  0  0
    4.5732    0.0900    0.6370 C   0  0  0  0  0  0  0  0  0  0  0  0
    4.2182   -0.8545   -0.5264 C   0  0  0  0  0  0  0  0  0  0  0  0
    2.8251   -0.8601   -0.9922 N   0  0  0  0  0  0  0  0  0  0  0  0
    1.8621   -1.2979    0.0377 C   0  0  0  0  0  0  0  0  0  0  0  0
    0.4125   -1.3701   -0.4986 C   0  0  0  0  0  0  0  0  0  0  0  0
    0.0043   -0.0628   -1.0850 N   0  0  0  0  0  0  0  0  0  0  0  0
   -1.3354    0.0466   -1.3670 C   0  0  0  0  0  0  0  0  0  0  0  0
   -1.9848   -0.0468   -2.5846 C   0  0  0  0  0  0  0  0  0  0  0  0
   -3.3752   -0.0349   -2.3431 C   0  0  0  0  0  0  0  0  0  0  0  0
   -3.5597    0.0757   -0.9785 C   0  0  0  0  0  0  0  0  0  0  0  0
   -4.7517    0.0921   -0.1575 C   0  0  0  0  0  0  0  0  0  0  0  0
   -6.0813   -0.2383   -0.7352 C   0  0  0  0  0  0  0  0  0  0  0  0
   -7.1788    0.5651   -0.4046 C   0  0  0  0  0  0  0  0  0  0  0  0
   -8.4415    0.2677   -0.9192 C   0  0  0  0  0  0  0  0  0  0  0  0
   -8.6119   -0.8378   -1.7528 C   0  0  0  0  0  0  0  0  0  0  0  0
   -7.5239   -1.6532   -2.0667 C   0  0  0  0  0  0  0  0  0  0  0  0
   -6.2590   -1.3596   -1.5538 C   0  0  0  0  0  0  0  0  0  0  0  0
   -4.6852    0.3977    1.1048 N   0  0  0  0  0  0  0  0  0  0  0  0
   -3.4341    0.7050    1.6746 C   0  0  0  0  0  0  0  0  0  0  0  0
   -3.4102    1.0829    3.0204 C   0  0  0  0  0  0  0  0  0  0  0  0
   -2.2104    1.4256    3.6456 C   0  0  0  0  0  0  0  0  0  0  0  0
   -1.0200    1.4038    2.9221 C   0  0  0  0  0  0  0  0  0  0  0  0
   -1.0234    1.0268    1.5776 C   0  0  0  0  0  0  0  0  0  0  0  0
   -2.2233    0.6567    0.9623 C   0  0  0  0  0  0  0  0  0  0  0  0
   -2.3161    0.2710   -0.3985 N   0  0  0  0  0  0  0  0  0  0  0  0
    0.9570    0.3628   -2.1378 C   0  0  0  0  0  0  0  0  0  0  0  0
    2.3933    0.4293   -1.5673 C   0  0  0  0  0  0  0  0  0  0  0  0
    6.4961   -0.9512    1.9111 C   0  0  0  0  0  0  0  0  0  0  0  0
    7.8557   -1.0421    2.2316 C   0  0  0  0  0  0  0  0  0  0  0  0
    8.3326   -2.2483    3.3738 Cl  0  0  0  0  0  0  0  0  0  0  0  0
    9.0306    1.4559    0.2346 H   0  0  0  0  0  0  0  0  0  0  0  0
    6.6398    1.6134   -0.3307 H   0  0  0  0  0  0  0  0  0  0  0  0
    3.9838   -0.1512    1.5295 H   0  0  0  0  0  0  0  0  0  0  0  0
    4.3322    1.1290    0.3840 H   0  0  0  0  0  0  0  0  0  0  0  0
    4.4857   -1.8827   -0.2471 H   0  0  0  0  0  0  0  0  0  0  0  0
    4.8630   -0.6245   -1.3856 H   0  0  0  0  0  0  0  0  0  0  0  0
    2.1417   -2.2929    0.4035 H   0  0  0  0  0  0  0  0  0  0  0  0
    1.8775   -0.6141    0.8947 H   0  0  0  0  0  0  0  0  0  0  0  0
   -0.2512   -1.6491    0.3287 H   0  0  0  0  0  0  0  0  0  0  0  0
    0.3375   -2.1567   -1.2614 H   0  0  0  0  0  0  0  0  0  0  0  0
   -1.5073   -0.1779   -3.5460 H   0  0  0  0  0  0  0  0  0  0  0  0
   -4.1523   -0.1245   -3.0909 H   0  0  0  0  0  0  0  0  0  0  0  0
   -7.0501    1.4217    0.2531 H   0  0  0  0  0  0  0  0  0  0  0  0
   -9.2923    0.8945   -0.6645 H   0  0  0  0  0  0  0  0  0  0  0  0
   -9.5971   -1.0707   -2.1496 H   0  0  0  0  0  0  0  0  0  0  0  0
   -7.6636   -2.5237   -2.7028 H   0  0  0  0  0  0  0  0  0  0  0  0
   -5.4261   -2.0196   -1.7807 H   0  0  0  0  0  0  0  0  0  0  0  0
   -4.3416    1.1144    3.5801 H   0  0  0  0  0  0  0  0  0  0  0  0
   -2.2098    1.7213    4.6914 H   0  0  0  0  0  0  0  0  0  0  0  0
   -0.0881    1.6918    3.4019 H   0  0  0  0  0  0  0  0  0  0  0  0
   -0.0875    1.0588    1.0320 H   0  0  0  0  0  0  0  0  0  0  0  0
    0.6844    1.3584   -2.5089 H   0  0  0  0  0  0  0  0  0  0  0  0
    0.9295   -0.3357   -2.9844 H   0  0  0  0  0  0  0  0  0  0  0  0
    2.4280    1.2221   -0.8100 H   0  0  0  0  0  0  0  0  0  0  0  0
    3.0713    0.7157   -2.3797 H   0  0  0  0  0  0  0  0  0  0  0  0
    5.7875   -1.6313    2.3804 H   0  0  0  0  0  0  0  0  0  0  0  0
  1  2  1  0
  2  3  2  0
  3  4  1  0
  4  5  2  0
  5  6  1  0
  6  7  1  0
  7  8  1  0
  8  9  1  0
  9 10  1  0
 10 11  1  0
 11 12  1  0
 12 13  2  0
 13 14  1  0
 14 15  2  0
 15 16  1  0
 16 17  1  0
 17 18  2  0
 18 19  1  0
 19 20  2  0
 20 21  1  0
 21 22  2  0
 16 23  2  0
 23 24  1  0
 24 25  2  0
 25 26  1  0
 26 27  2  0
 27 28  1  0
 28 29  2  0
 29 30  1  0
 11 31  1  0
 31 32  1  0
  5 33  1  0
 33 34  2  0
 34 35  1  0
 34  2  1  0
 32  8  1  0
 30 12  1  0
 30 15  1  0
 22 17  1  0
 29 24  1  0
  3 36  1  0
  4 37  1  0
  6 38  1  0
  6 39  1  0
  7 40  1  0
  7 41  1  0
  9 42  1  0
  9 43  1  0
 10 44  1  0
 10 45  1  0
 13 46  1  0
 14 47  1  0
 18 48  1  0
 19 49  1  0
 20 50  1  0
 21 51  1  0
 22 52  1  0
 25 53  1  0
 26 54  1  0
 27 55  1  0
 28 56  1  0
 31 57  1  0
 31 58  1  0
 32 59  1  0
 32 60  1  0
 33 61  1  0
M  END
$$$$
