
     RDKit          3D

 49 50  0  0  0  0  0  0  0  0999 V2000
    5.8819   -3.0856    0.7679 C   0  0  0  0  0  0  0  0  0  0  0  0
    5.3811   -1.7760    1.3472 C   0  0  0  0  0  0  0  0  0  0  0  0
    4.0297   -1.5346    0.9342 O   0  0  0  0  0  0  0  0  0  0  0  0
    3.8745   -0.9368   -0.2846 C   0  0  0  0  0  0  0  0  0  0  0  0
    4.8136   -0.6000   -0.9982 O   0  0  0  0  0  0  0  0  0  0  0  0
    2.4674   -0.7059   -0.6425 C   0  0  0  0  0  0  0  0  0  0  0  0
    1.9996    0.2025   -1.6549 C   0  0  0  0  0  0  0  0  0  0  0  0
    2.8642    1.0612   -2.5172 C   0  0  0  0  0  0  0  0  0  0  0  0
    0.6152    0.1366   -1.6736 C   0  0  0  0  0  0  0  0  0  0  0  0
   -0.3548    0.8655   -2.5452 C   0  0  0  0  0  0  0  0  0  0  0  0
    0.2204   -0.7270   -0.6691 N   0  0  0  0  0  0  0  0  0  0  0  0
   -1.1770   -0.9791   -0.2883 C   0  0  0  0  0  0  0  0  0  0  0  0
   -1.8238    0.2077    0.3935 C   0  0  0  0  0  0  0  0  0  0  0  0
   -1.1828    0.8413    1.4708 C   0  0  0  0  0  0  0  0  0  0  0  0
   -1.7762    1.9242    2.1143 C   0  0  0  0  0  0  0  0  0  0  0  0
   -3.0171    2.3982    1.6911 C   0  0  0  0  0  0  0  0  0  0  0  0
   -3.6831    1.7876    0.6241 C   0  0  0  0  0  0  0  0  0  0  0  0
   -4.8875    2.2193    0.1310 O   0  0  0  0  0  0  0  0  0  0  0  0
   -5.3100    3.5261    0.4992 C   0  0  0  0  0  0  0  0  0  0  0  0
   -3.0995    0.6625    0.0063 C   0  0  0  0  0  0  0  0  0  0  0  0
   -3.6900    0.0005   -1.0453 O   0  0  0  0  0  0  0  0  0  0  0  0
   -5.0111   -0.4576   -0.7597 C   0  0  0  0  0  0  0  0  0  0  0  0
    1.3368   -1.3223   -0.1033 C   0  0  0  0  0  0  0  0  0  0  0  0
    1.2377   -2.4154    0.9109 C   0  0  0  0  0  0  0  0  0  0  0  0
    6.8899   -3.3086    1.1294 H   0  0  0  0  0  0  0  0  0  0  0  0
    5.9045   -3.0489   -0.3255 H   0  0  0  0  0  0  0  0  0  0  0  0
    5.2156   -3.9092    1.0443 H   0  0  0  0  0  0  0  0  0  0  0  0
    6.0363   -0.9393    1.0778 H   0  0  0  0  0  0  0  0  0  0  0  0
    5.3747   -1.8372    2.4406 H   0  0  0  0  0  0  0  0  0  0  0  0
    3.5814    1.6209   -1.9072 H   0  0  0  0  0  0  0  0  0  0  0  0
    3.4173    0.4442   -3.2327 H   0  0  0  0  0  0  0  0  0  0  0  0
    2.2813    1.7946   -3.0820 H   0  0  0  0  0  0  0  0  0  0  0  0
   -0.7265    1.7600   -2.0360 H   0  0  0  0  0  0  0  0  0  0  0  0
   -1.2050    0.2355   -2.8215 H   0  0  0  0  0  0  0  0  0  0  0  0
    0.1161    1.1811   -3.4813 H   0  0  0  0  0  0  0  0  0  0  0  0
   -1.2234   -1.8312    0.3934 H   0  0  0  0  0  0  0  0  0  0  0  0
   -1.6871   -1.2856   -1.2068 H   0  0  0  0  0  0  0  0  0  0  0  0
   -0.2067    0.5000    1.8097 H   0  0  0  0  0  0  0  0  0  0  0  0
   -1.2635    2.4080    2.9422 H   0  0  0  0  0  0  0  0  0  0  0  0
   -3.4384    3.2484    2.2167 H   0  0  0  0  0  0  0  0  0  0  0  0
   -5.6060    3.5578    1.5525 H   0  0  0  0  0  0  0  0  0  0  0  0
   -6.1915    3.7743   -0.1008 H   0  0  0  0  0  0  0  0  0  0  0  0
   -4.5392    4.2735    0.2816 H   0  0  0  0  0  0  0  0  0  0  0  0
   -5.1657   -0.6753    0.3039 H   0  0  0  0  0  0  0  0  0  0  0  0
   -5.1647   -1.3879   -1.3149 H   0  0  0  0  0  0  0  0  0  0  0  0
   -5.7490    0.2647   -1.1203 H   0  0  0  0  0  0  0  0  0  0  0  0
    0.4255   -3.1113    0.6795 H   0  0  0  0  0  0  0  0  0  0  0  0
    1.0707   -1.9946    1.9075 H   0  0  0  0  0  0  0  0  0  0  0  0
    2.1437   -3.0272    0.9376 H   0  0  0  0  0  0  0  0  0  0  0  0
  1  2  1  0
  2  3  1  0
  3  4  1  0
  4  5  2  0
  4  6  1  0
  6  7  1  0
  7  8  1  0
  7  9  2  0
  9 10  1  0
  9 11  1  0
 11 12  1  0
 12 13  1  0
 13 14  2  0
 14 15  1  0
 15 16  2  0
 16 17  1  0
 17 18  1  0
 18 19  1  0
 17 20  2  0
 20 21  1  0
 21 22  1  0
 11 23  1  0
 23 24  1  0
 23  6  2  0
 20 13  1  0
  1 25  1  0
  1 26  1  0
  1 27  1  0
  2 28  1  0
  2 29  1  0
  8 30  1  0
  8 31  1  0
  8 32  1  0
 10 33  1  0
 10 34  1  0
 10 35  1  0
 12 36  1  0
 12 37  1  0
 14 38  1  0
 15 39  1  0
 16 40  1  0
 19 41  1  0
 19 42  1  0
 19 43  1  0
 22 44  1  0
 22 45  1  0
 22 46  1  0
 24 47  1  0
 24 48  1  0
 24 49  1  0
M  END
$$$$
