
     RDKit          3D

 25 26  0  0  0  0  0  0  0  0999 V2000
   -1.8013    1.5176   -2.0977 O   0  0  0  0  0  0  0  0  0  0  0  0
   -1.7103    0.7896   -1.1168 C   0  0  0  0  0  0  0  0  0  0  0  0
   -0.5300    0.3733   -0.5773 O   0  0  0  0  0  0  0  0  0  0  0  0
    0.6202    0.8667   -1.2652 C   0  0  0  0  0  0  0  0  0  0  0  0
    1.8383    0.3274   -0.5619 C   0  0  0  0  0  0  0  0  0  0  0  0
    2.3854   -0.9088   -0.9336 C   0  0  0  0  0  0  0  0  0  0  0  0
    3.5019   -1.4174   -0.2677 C   0  0  0  0  0  0  0  0  0  0  0  0
    4.0764   -0.7003    0.7801 C   0  0  0  0  0  0  0  0  0  0  0  0
    3.5332    0.5236    1.1664 C   0  0  0  0  0  0  0  0  0  0  0  0
    2.4168    1.0341    0.5020 C   0  0  0  0  0  0  0  0  0  0  0  0
   -2.8068    0.2403   -0.3545 C   0  0  0  0  0  0  0  0  0  0  0  0
   -2.8538   -0.5831    0.7582 C   0  0  0  0  0  0  0  0  0  0  0  0
   -4.2223   -0.7883    1.0607 C   0  0  0  0  0  0  0  0  0  0  0  0
   -4.9320   -0.0810    0.1189 C   0  0  0  0  0  0  0  0  0  0  0  0
   -6.8286    0.0188    0.0191 Br  0  0  0  0  0  0  0  0  0  0  0  0
   -4.0862    0.5441   -0.7407 O   0  0  0  0  0  0  0  0  0  0  0  0
    0.6332    1.9636   -1.2486 H   0  0  0  0  0  0  0  0  0  0  0  0
    0.6126    0.5321   -2.3100 H   0  0  0  0  0  0  0  0  0  0  0  0
    1.9432   -1.4841   -1.7441 H   0  0  0  0  0  0  0  0  0  0  0  0
    3.9220   -2.3748   -0.5649 H   0  0  0  0  0  0  0  0  0  0  0  0
    4.9453   -1.0973    1.2984 H   0  0  0  0  0  0  0  0  0  0  0  0
    3.9778    1.0799    1.9876 H   0  0  0  0  0  0  0  0  0  0  0  0
    1.9993    1.9868    0.8205 H   0  0  0  0  0  0  0  0  0  0  0  0
   -1.9969   -0.9841    1.2836 H   0  0  0  0  0  0  0  0  0  0  0  0
   -4.6374   -1.3787    1.8656 H   0  0  0  0  0  0  0  0  0  0  0  0
  1  2  2  0
  2  3  1  0
  3  4  1  0
  4  5  1  0
  5  6  2  0
  6  7  1  0
  7  8  2  0
  8  9  1  0
  9 10  2  0
  2 11  1  0
 11 12  2  0
 12 13  1  0
 13 14  2  0
 14 15  1  0
 14 16  1  0
 10  5  1  0
 16 11  1  0
  4 17  1  0
  4 18  1  0
  6 19  1  0
  7 20  1  0
  8 21  1  0
  9 22  1  0
 10 23  1  0
 12 24  1  0
 13 25  1  0
M  END
$$$$
