
     RDKit          3D

 48 50  0  0  0  0  0  0  0  0999 V2000
    8.8344    2.0907   -0.2581 C   0  0  0  0  0  0  0  0  0  0  0  0
    7.4536    1.9903    0.2785 C   0  0  0  0  0  0  0  0  0  0  0  0
    6.7988    2.9300    1.0549 C   0  0  0  0  0  0  0  0  0  0  0  0
    5.2223    2.3785    1.4289 S   0  0  0  0  0  0  0  0  0  0  0  0
    5.5171    0.9566    0.5447 C   0  0  0  0  0  0  0  0  0  0  0  0
    4.5979   -0.0508    0.4057 N   0  0  0  0  0  0  0  0  0  0  0  0
    3.3028   -0.0731    0.8737 C   0  0  0  0  0  0  0  0  0  0  0  0
    2.7228    0.8062    1.5008 O   0  0  0  0  0  0  0  0  0  0  0  0
    2.6170   -1.3820    0.5300 C   0  0  0  0  0  0  0  0  0  0  0  0
    1.1608   -1.3727    0.9743 C   0  0  0  0  0  0  0  0  0  0  0  0
    0.5253   -2.6583    0.6729 N   0  0  0  0  0  0  0  0  0  0  0  0
   -0.2787   -2.8993   -0.7716 S   0  0  0  0  0  6  0  0  0  0  0  0
    0.4568   -2.2211   -1.8153 O   0  0  0  0  0  0  0  0  0  0  0  0
   -0.5715   -4.3132   -0.8401 O   0  0  0  0  0  0  0  0  0  0  0  0
   -1.8110   -2.0493   -0.4942 C   0  0  0  0  0  0  0  0  0  0  0  0
   -2.7942   -2.6506    0.2925 C   0  0  0  0  0  0  0  0  0  0  0  0
   -4.0139   -1.9951    0.5006 C   0  0  0  0  0  0  0  0  0  0  0  0
   -4.2694   -0.7408   -0.0804 C   0  0  0  0  0  0  0  0  0  0  0  0
   -3.2746   -0.1654   -0.8737 C   0  0  0  0  0  0  0  0  0  0  0  0
   -2.0451   -0.8112   -1.0887 C   0  0  0  0  0  0  0  0  0  0  0  0
   -3.5211    1.1437   -1.4979 C   0  0  0  0  0  0  0  0  0  0  0  0
   -2.6201    1.6736   -2.1478 O   0  0  0  0  0  0  0  0  0  0  0  0
   -4.7751    1.7036   -1.3006 N   0  0  0  0  0  0  0  0  0  0  0  0
   -5.0426    2.9904   -1.9166 C   0  0  0  0  0  0  0  0  0  0  0  0
   -5.7576    1.1854   -0.4653 C   0  0  0  0  0  0  0  0  0  0  0  0
   -6.8077    1.7961   -0.2522 O   0  0  0  0  0  0  0  0  0  0  0  0
   -5.4942   -0.0503    0.1209 N   0  0  0  0  0  0  0  0  0  0  0  0
   -6.5188   -0.6339    0.9789 C   0  0  0  0  0  0  0  0  0  0  0  0
    6.7051    0.8588   -0.0064 N   0  0  0  0  0  0  0  0  0  0  0  0
    9.4879    2.6279    0.4363 H   0  0  0  0  0  0  0  0  0  0  0  0
    9.2607    1.0955   -0.4193 H   0  0  0  0  0  0  0  0  0  0  0  0
    8.8305    2.6240   -1.2153 H   0  0  0  0  0  0  0  0  0  0  0  0
    7.1590    3.8858    1.4071 H   0  0  0  0  0  0  0  0  0  0  0  0
    4.9465   -0.8163   -0.1539 H   0  0  0  0  0  0  0  0  0  0  0  0
    3.1572   -2.1975    1.0272 H   0  0  0  0  0  0  0  0  0  0  0  0
    2.6899   -1.5425   -0.5526 H   0  0  0  0  0  0  0  0  0  0  0  0
    0.6109   -0.5490    0.5088 H   0  0  0  0  0  0  0  0  0  0  0  0
    1.0957   -1.2161    2.0574 H   0  0  0  0  0  0  0  0  0  0  0  0
    0.8019   -3.5015    1.1716 H   0  0  0  0  0  0  0  0  0  0  0  0
   -2.6216   -3.6268    0.7431 H   0  0  0  0  0  0  0  0  0  0  0  0
   -4.7506   -2.4972    1.1229 H   0  0  0  0  0  0  0  0  0  0  0  0
   -1.2851   -0.3461   -1.7166 H   0  0  0  0  0  0  0  0  0  0  0  0
   -4.3933    3.1700   -2.7788 H   0  0  0  0  0  0  0  0  0  0  0  0
   -6.0845    3.0452   -2.2477 H   0  0  0  0  0  0  0  0  0  0  0  0
   -4.8695    3.7724   -1.1695 H   0  0  0  0  0  0  0  0  0  0  0  0
   -6.1160   -0.7613    1.9882 H   0  0  0  0  0  0  0  0  0  0  0  0
   -6.8298   -1.5996    0.5675 H   0  0  0  0  0  0  0  0  0  0  0  0
   -7.4087   -0.0041    1.0529 H   0  0  0  0  0  0  0  0  0  0  0  0
  1  2  1  0
  2  3  2  0
  3  4  1  0
  4  5  1  0
  5  6  1  0
  6  7  1  0
  7  8  2  0
  7  9  1  0
  9 10  1  0
 10 11  1  0
 11 12  1  0
 12 13  2  0
 12 14  2  0
 12 15  1  0
 15 16  2  0
 16 17  1  0
 17 18  2  0
 18 19  1  0
 19 20  2  0
 19 21  1  0
 21 22  2  0
 21 23  1  0
 23 24  1  0
 23 25  1  0
 25 26  2  0
 25 27  1  0
 27 28  1  0
  5 29  2  0
 29  2  1  0
 20 15  1  0
 27 18  1  0
  1 30  1  0
  1 31  1  0
  1 32  1  0
  3 33  1  0
  6 34  1  0
  9 35  1  0
  9 36  1  0
 10 37  1  0
 10 38  1  0
 11 39  1  0
 16 40  1  0
 17 41  1  0
 20 42  1  0
 24 43  1  0
 24 44  1  0
 24 45  1  0
 28 46  1  0
 28 47  1  0
 28 48  1  0
M  END
$$$$
