
     RDKit          3D

 57 60  0  0  0  0  0  0  0  0999 V2000
   -8.4426    1.2128    1.4264 C   0  0  0  0  0  0  0  0  0  0  0  0
   -7.2147    1.9288    1.4207 O   0  0  0  0  0  0  0  0  0  0  0  0
   -6.1756    1.3874    0.7148 C   0  0  0  0  0  0  0  0  0  0  0  0
   -4.9939    2.1282    0.7679 C   0  0  0  0  0  0  0  0  0  0  0  0
   -3.8471    1.7005    0.0947 C   0  0  0  0  0  0  0  0  0  0  0  0
   -3.8734    0.5197   -0.6437 C   0  0  0  0  0  0  0  0  0  0  0  0
   -2.7624    0.0100   -1.3536 N   0  0  0  0  0  0  0  0  0  0  0  0
   -1.4911    0.5466   -1.4569 C   0  0  0  0  0  0  0  0  0  0  0  0
   -1.1146    1.6052   -0.9612 O   0  0  0  0  0  0  0  0  0  0  0  0
   -0.5549   -0.3116   -2.2886 C   0  0  0  0  0  0  0  0  0  0  0  0
    0.6774   -0.6171   -1.5764 N   0  0  0  0  0  0  0  0  0  0  0  0
    1.8855   -0.0280   -1.8375 C   0  0  0  0  0  0  0  0  0  0  0  0
    2.8211   -0.5966   -0.9985 C   0  0  0  0  0  0  0  0  0  0  0  0
    4.4914   -0.1484   -0.8976 S   0  0  0  0  0  6  0  0  0  0  0  0
    4.6977    0.7088   -2.0500 O   0  0  0  0  0  0  0  0  0  0  0  0
    5.1902   -1.4077   -0.7314 O   0  0  0  0  0  0  0  0  0  0  0  0
    4.5402    0.8111    0.6127 C   0  0  0  0  0  0  0  0  0  0  0  0
    5.9456    1.3014    0.8417 C   0  0  0  0  0  0  0  0  0  0  0  0
    6.3587    2.5410    0.3324 C   0  0  0  0  0  0  0  0  0  0  0  0
    7.6635    2.9909    0.5386 C   0  0  0  0  0  0  0  0  0  0  0  0
    8.5682    2.2077    1.2522 C   0  0  0  0  0  0  0  0  0  0  0  0
    8.1705    0.9719    1.7581 C   0  0  0  0  0  0  0  0  0  0  0  0
    6.8663    0.5191    1.5537 C   0  0  0  0  0  0  0  0  0  0  0  0
    2.1627   -1.5767   -0.2013 C   0  0  0  0  0  0  0  0  0  0  0  0
    2.5704   -2.4747    0.8094 C   0  0  0  0  0  0  0  0  0  0  0  0
    1.6319   -3.3169    1.4142 C   0  0  0  0  0  0  0  0  0  0  0  0
    0.2969   -3.2779    1.0290 C   0  0  0  0  0  0  0  0  0  0  0  0
   -0.1366   -2.4048    0.0280 C   0  0  0  0  0  0  0  0  0  0  0  0
    0.8123   -1.5634   -0.5776 C   0  0  0  0  0  0  0  0  0  0  0  0
   -5.0653   -0.2362   -0.7021 C   0  0  0  0  0  0  0  0  0  0  0  0
   -4.9879   -1.3877   -1.4569 O   0  0  0  0  0  0  0  0  0  0  0  0
   -6.1596   -2.1907   -1.5383 C   0  0  0  0  0  0  0  0  0  0  0  0
   -6.2104    0.2022   -0.0232 C   0  0  0  0  0  0  0  0  0  0  0  0
   -8.8587    1.1355    0.4167 H   0  0  0  0  0  0  0  0  0  0  0  0
   -8.3216    0.2244    1.8819 H   0  0  0  0  0  0  0  0  0  0  0  0
   -9.1553    1.7757    2.0374 H   0  0  0  0  0  0  0  0  0  0  0  0
   -4.9623    3.0525    1.3409 H   0  0  0  0  0  0  0  0  0  0  0  0
   -2.9555    2.3139    0.1701 H   0  0  0  0  0  0  0  0  0  0  0  0
   -2.9681   -0.8649   -1.8278 H   0  0  0  0  0  0  0  0  0  0  0  0
   -1.0096   -1.2649   -2.5774 H   0  0  0  0  0  0  0  0  0  0  0  0
   -0.3054    0.2315   -3.2065 H   0  0  0  0  0  0  0  0  0  0  0  0
    1.9910    0.7501   -2.5845 H   0  0  0  0  0  0  0  0  0  0  0  0
    3.8432    1.6494    0.5117 H   0  0  0  0  0  0  0  0  0  0  0  0
    4.2113    0.1767    1.4417 H   0  0  0  0  0  0  0  0  0  0  0  0
    5.6714    3.1619   -0.2397 H   0  0  0  0  0  0  0  0  0  0  0  0
    7.9763    3.9508    0.1348 H   0  0  0  0  0  0  0  0  0  0  0  0
    9.5857    2.5569    1.4068 H   0  0  0  0  0  0  0  0  0  0  0  0
    8.8792    0.3562    2.3057 H   0  0  0  0  0  0  0  0  0  0  0  0
    6.5797   -0.4552    1.9451 H   0  0  0  0  0  0  0  0  0  0  0  0
    3.6124   -2.5326    1.1147 H   0  0  0  0  0  0  0  0  0  0  0  0
    1.9527   -4.0095    2.1888 H   0  0  0  0  0  0  0  0  0  0  0  0
   -0.4203   -3.9384    1.5118 H   0  0  0  0  0  0  0  0  0  0  0  0
   -1.1833   -2.3867   -0.2571 H   0  0  0  0  0  0  0  0  0  0  0  0
   -5.9267   -3.0579   -2.1645 H   0  0  0  0  0  0  0  0  0  0  0  0
   -6.4534   -2.5622   -0.5511 H   0  0  0  0  0  0  0  0  0  0  0  0
   -6.9784   -1.6444   -2.0184 H   0  0  0  0  0  0  0  0  0  0  0  0
   -7.1248   -0.3739   -0.0689 H   0  0  0  0  0  0  0  0  0  0  0  0
  1  2  1  0
  2  3  1  0
  3  4  2  0
  4  5  1  0
  5  6  2  0
  6  7  1  0
  7  8  1  0
  8  9  2  0
  8 10  1  0
 10 11  1  0
 11 12  1  0
 12 13  2  0
 13 14  1  0
 14 15  2  0
 14 16  2  0
 14 17  1  0
 17 18  1  0
 18 19  2  0
 19 20  1  0
 20 21  2  0
 21 22  1  0
 22 23  2  0
 13 24  1  0
 24 25  2  0
 25 26  1  0
 26 27  2  0
 27 28  1  0
 28 29  2  0
  6 30  1  0
 30 31  1  0
 31 32  1  0
 30 33  2  0
 33  3  1  0
 29 11  1  0
 23 18  1  0
 29 24  1  0
  1 34  1  0
  1 35  1  0
  1 36  1  0
  4 37  1  0
  5 38  1  0
  7 39  1  0
 10 40  1  0
 10 41  1  0
 12 42  1  0
 17 43  1  0
 17 44  1  0
 19 45  1  0
 20 46  1  0
 21 47  1  0
 22 48  1  0
 23 49  1  0
 25 50  1  0
 26 51  1  0
 27 52  1  0
 28 53  1  0
 32 54  1  0
 32 55  1  0
 32 56  1  0
 33 57  1  0
M  END
$$$$
