
     RDKit          3D

 51 55  0  0  0  0  0  0  0  0999 V2000
    1.9413    1.8806   -1.4173 O   0  0  0  0  0  0  0  0  0  0  0  0
    1.3118    1.7918   -0.3664 C   0  0  0  0  0  0  0  0  0  0  0  0
   -0.0522    2.4759   -0.2112 C   0  0  0  0  0  0  0  0  0  0  0  0
   -1.1641    1.5182   -0.2412 N   0  0  0  0  0  0  0  0  0  0  0  0
   -1.4291    0.7944    0.9159 C   0  0  0  0  0  0  0  0  0  0  0  0
   -0.7995    0.9823    1.9625 O   0  0  0  0  0  0  0  0  0  0  0  0
   -2.4520   -0.3109    0.8359 C   0  0  0  0  0  0  0  0  0  0  0  0
   -3.8532    0.2176    1.0880 C   0  0  0  0  0  0  0  0  0  0  0  0
   -4.8842   -0.8554    0.9353 C   0  0  0  0  0  0  0  0  0  0  0  0
   -5.9471   -1.2579    1.7198 C   0  0  0  0  0  0  0  0  0  0  0  0
   -6.5631   -2.3354    1.0392 C   0  0  0  0  0  0  0  0  0  0  0  0
   -5.8403   -2.5235   -0.1147 C   0  0  0  0  0  0  0  0  0  0  0  0
   -4.8195   -1.6325   -0.1866 O   0  0  0  0  0  0  0  0  0  0  0  0
   -4.3294    1.6751    0.0836 S   0  0  0  0  0  0  0  0  0  0  0  0
   -3.3661    1.3975   -1.4010 C   0  0  0  0  0  0  0  0  0  0  0  0
   -4.0867    1.3003   -2.6011 C   0  0  0  0  0  0  0  0  0  0  0  0
   -3.4249    1.2384   -3.8262 C   0  0  0  0  0  0  0  0  0  0  0  0
   -2.0368    1.2969   -3.8645 C   0  0  0  0  0  0  0  0  0  0  0  0
   -1.3075    1.4031   -2.6781 C   0  0  0  0  0  0  0  0  0  0  0  0
   -1.9539    1.4348   -1.4312 C   0  0  0  0  0  0  0  0  0  0  0  0
    1.6990    1.1008    0.7694 N   0  0  0  0  0  0  0  0  0  0  0  0
    2.8838    0.3702    0.9805 C   0  0  0  0  0  0  0  0  0  0  0  0
    3.0047   -0.2964    2.2086 C   0  0  0  0  0  0  0  0  0  0  0  0
    4.1495   -1.0390    2.5095 C   0  0  0  0  0  0  0  0  0  0  0  0
    5.1847   -1.1167    1.5844 C   0  0  0  0  0  0  0  0  0  0  0  0
    5.0620   -0.4766    0.3480 C   0  0  0  0  0  0  0  0  0  0  0  0
    3.9228    0.2768    0.0524 C   0  0  0  0  0  0  0  0  0  0  0  0
    6.0295   -0.5370   -0.6244 O   0  0  0  0  0  0  0  0  0  0  0  0
    6.9646   -1.5898   -0.3663 C   0  0  0  0  0  0  0  0  0  0  0  0
    7.3992   -1.5738    1.0895 C   0  0  0  0  0  0  0  0  0  0  0  0
    6.2879   -1.8429    1.9521 O   0  0  0  0  0  0  0  0  0  0  0  0
   -0.0646    3.0155    0.7442 H   0  0  0  0  0  0  0  0  0  0  0  0
   -0.1685    3.2349   -0.9936 H   0  0  0  0  0  0  0  0  0  0  0  0
   -2.3525   -0.8467   -0.1160 H   0  0  0  0  0  0  0  0  0  0  0  0
   -2.1942   -1.0577    1.5994 H   0  0  0  0  0  0  0  0  0  0  0  0
   -3.8970    0.5725    2.1259 H   0  0  0  0  0  0  0  0  0  0  0  0
   -6.2434   -0.8216    2.6639 H   0  0  0  0  0  0  0  0  0  0  0  0
   -7.4291   -2.9035    1.3484 H   0  0  0  0  0  0  0  0  0  0  0  0
   -5.9195   -3.2112   -0.9451 H   0  0  0  0  0  0  0  0  0  0  0  0
   -5.1749    1.2873   -2.5902 H   0  0  0  0  0  0  0  0  0  0  0  0
   -3.9943    1.1603   -4.7489 H   0  0  0  0  0  0  0  0  0  0  0  0
   -1.5153    1.2560   -4.8181 H   0  0  0  0  0  0  0  0  0  0  0  0
   -0.2225    1.4209   -2.7521 H   0  0  0  0  0  0  0  0  0  0  0  0
    1.0151    1.0774    1.5287 H   0  0  0  0  0  0  0  0  0  0  0  0
    2.2092   -0.2438    2.9488 H   0  0  0  0  0  0  0  0  0  0  0  0
    4.2358   -1.5451    3.4668 H   0  0  0  0  0  0  0  0  0  0  0  0
    3.8752    0.7708   -0.9120 H   0  0  0  0  0  0  0  0  0  0  0  0
    6.4982   -2.5453   -0.6364 H   0  0  0  0  0  0  0  0  0  0  0  0
    7.8280   -1.4345   -1.0208 H   0  0  0  0  0  0  0  0  0  0  0  0
    7.8313   -0.6050    1.3695 H   0  0  0  0  0  0  0  0  0  0  0  0
    8.1523   -2.3477    1.2683 H   0  0  0  0  0  0  0  0  0  0  0  0
  1  2  2  0
  2  3  1  0
  3  4  1  0
  4  5  1  0
  5  6  2  0
  5  7  1  0
  7  8  1  0
  8  9  1  0
  9 10  2  0
 10 11  1  0
 11 12  2  0
 12 13  1  0
  8 14  1  0
 14 15  1  0
 15 16  2  0
 16 17  1  0
 17 18  2  0
 18 19  1  0
 19 20  2  0
  2 21  1  0
 21 22  1  0
 22 23  2  0
 23 24  1  0
 24 25  2  0
 25 26  1  0
 26 27  2  0
 26 28  1  0
 28 29  1  0
 29 30  1  0
 30 31  1  0
 20  4  1  0
 27 22  1  0
 13  9  1  0
 20 15  1  0
 31 25  1  0
  3 32  1  0
  3 33  1  0
  7 34  1  0
  7 35  1  0
  8 36  1  0
 10 37  1  0
 11 38  1  0
 12 39  1  0
 16 40  1  0
 17 41  1  0
 18 42  1  0
 19 43  1  0
 21 44  1  0
 23 45  1  0
 24 46  1  0
 27 47  1  0
 29 48  1  0
 29 49  1  0
 30 50  1  0
 30 51  1  0
M  END
$$$$
