
     RDKit          3D

 56 61  0  0  0  0  0  0  0  0999 V2000
    6.4636    0.4433   -0.4046 C   0  0  0  0  0  0  0  0  0  0  0  0
    5.2722    0.0924    0.4343 C   0  0  0  0  0  0  0  0  0  0  0  0
    5.3354    0.0893    1.8414 C   0  0  0  0  0  0  0  0  0  0  0  0
    6.7976    0.4990    2.6733 Cl  0  0  0  0  0  0  0  0  0  0  0  0
    4.2204   -0.2531    2.6324 C   0  0  0  0  0  0  0  0  0  0  0  0
    3.0055   -0.6009    2.0422 C   0  0  0  0  0  0  0  0  0  0  0  0
    2.9293   -0.5955    0.6590 C   0  0  0  0  0  0  0  0  0  0  0  0
    4.0490   -0.2647   -0.1205 C   0  0  0  0  0  0  0  0  0  0  0  0
    3.7259   -0.3767   -1.4730 N   0  0  0  0  0  0  0  0  0  0  0  0
    2.4046   -0.7838   -1.6559 C   0  0  0  0  0  0  0  0  0  0  0  0
    1.8863   -1.0289   -2.7359 O   0  0  0  0  0  0  0  0  0  0  0  0
    1.7768   -0.9207   -0.2469 C   0  0  0  0  0  0  0  0  0  0  0  0
    1.1794   -2.2800   -0.0175 N   0  0  0  0  0  0  0  0  0  0  0  0
   -0.3262   -2.1513    0.0981 C   0  0  2  0  0  0  0  0  0  0  0  0
   -1.0104   -2.7657   -1.1421 C   0  0  0  0  0  0  0  0  0  0  0  0
   -2.5194   -2.8319   -1.0768 C   0  0  0  0  0  0  0  0  0  0  0  0
   -3.2992   -2.0967   -1.9811 C   0  0  0  0  0  0  0  0  0  0  0  0
   -4.6927   -2.1630   -1.9331 C   0  0  0  0  0  0  0  0  0  0  0  0
   -5.3205   -2.9662   -0.9836 C   0  0  0  0  0  0  0  0  0  0  0  0
   -4.5558   -3.7052   -0.0830 C   0  0  0  0  0  0  0  0  0  0  0  0
   -3.1620   -3.6414   -0.1302 C   0  0  0  0  0  0  0  0  0  0  0  0
   -0.5116   -0.6892    0.2351 C   0  0  0  0  0  0  0  0  0  0  0  0
    0.6699    0.0081    0.0073 C   0  0  0  0  0  0  0  0  0  0  0  0
    0.4247    1.3505    0.1239 C   0  0  0  0  0  0  0  0  0  0  0  0
    1.2980    2.3539    0.0509 O   0  0  0  0  0  0  0  0  0  0  0  0
   -0.9420    1.4918    0.4296 N   0  0  0  0  0  0  0  0  0  0  0  0
   -1.6343    2.7258    0.6163 C   0  0  0  0  0  0  0  0  0  0  0  0
   -1.3296    3.8307   -0.1942 C   0  0  0  0  0  0  0  0  0  0  0  0
   -2.0107    5.0361   -0.0122 C   0  0  0  0  0  0  0  0  0  0  0  0
   -2.9858    5.1337    0.9738 C   0  0  0  0  0  0  0  0  0  0  0  0
   -3.6355    6.2918    1.1461 F   0  0  0  0  0  0  0  0  0  0  0  0
   -3.2969    4.0472    1.7832 C   0  0  0  0  0  0  0  0  0  0  0  0
   -2.6230    2.8371    1.6059 C   0  0  0  0  0  0  0  0  0  0  0  0
   -1.5050    0.2065    0.5241 C   0  0  0  0  0  0  0  0  0  0  0  0
   -2.7862   -0.0434    0.7812 O   0  0  0  0  0  0  0  0  0  0  0  0
    6.8429    1.4346   -0.1352 H   0  0  0  0  0  0  0  0  0  0  0  0
    7.2557   -0.2996   -0.2661 H   0  0  0  0  0  0  0  0  0  0  0  0
    6.2289    0.4765   -1.4721 H   0  0  0  0  0  0  0  0  0  0  0  0
    4.3013   -0.2508    3.7173 H   0  0  0  0  0  0  0  0  0  0  0  0
    2.1445   -0.8696    2.6468 H   0  0  0  0  0  0  0  0  0  0  0  0
    4.3500   -0.2207   -2.2490 H   0  0  0  0  0  0  0  0  0  0  0  0
    1.3961   -2.8445   -0.8379 H   0  0  0  0  0  0  0  0  0  0  0  0
   -0.6345   -2.6656    1.0148 H   0  0  0  0  0  0  0  0  0  0  0  0
   -0.6511   -3.7942   -1.2859 H   0  0  0  0  0  0  0  0  0  0  0  0
   -0.7087   -2.2181   -2.0455 H   0  0  0  0  0  0  0  0  0  0  0  0
   -2.8240   -1.4641   -2.7275 H   0  0  0  0  0  0  0  0  0  0  0  0
   -5.2872   -1.5890   -2.6386 H   0  0  0  0  0  0  0  0  0  0  0  0
   -6.4051   -3.0183   -0.9461 H   0  0  0  0  0  0  0  0  0  0  0  0
   -5.0444   -4.3330    0.6573 H   0  0  0  0  0  0  0  0  0  0  0  0
   -2.5822   -4.2287    0.5778 H   0  0  0  0  0  0  0  0  0  0  0  0
    0.9596    3.1074    0.5665 H   0  0  0  0  0  0  0  0  0  0  0  0
   -0.6027    3.7601   -1.0019 H   0  0  0  0  0  0  0  0  0  0  0  0
   -1.7956    5.8957   -0.6400 H   0  0  0  0  0  0  0  0  0  0  0  0
   -4.0554    4.1522    2.5533 H   0  0  0  0  0  0  0  0  0  0  0  0
   -2.8508    2.0111    2.2779 H   0  0  0  0  0  0  0  0  0  0  0  0
   -3.3292    0.6797    0.4214 H   0  0  0  0  0  0  0  0  0  0  0  0
  1  2  1  0
  2  3  2  0
  3  4  1  0
  3  5  1  0
  5  6  2  0
  6  7  1  0
  7  8  2  0
  8  9  1  0
  9 10  1  0
 10 11  2  0
 10 12  1  0
 12 13  1  0
 13 14  1  0
 14 15  1  0
 15 16  1  0
 16 17  2  0
 17 18  1  0
 18 19  2  0
 19 20  1  0
 20 21  2  0
 14 22  1  0
 22 23  1  0
 23 24  2  0
 24 25  1  0
 24 26  1  0
 26 27  1  0
 27 28  2  0
 28 29  1  0
 29 30  2  0
 30 31  1  0
 30 32  1  0
 32 33  2  0
 26 34  1  0
 34 35  1  0
  8  2  1  0
 23 12  1  0
 33 27  1  0
 12  7  1  0
 21 16  1  0
 34 22  2  0
  1 36  1  0
  1 37  1  0
  1 38  1  0
  5 39  1  0
  6 40  1  0
  9 41  1  0
 13 42  1  0
 14 43  1  1
 15 44  1  0
 15 45  1  0
 17 46  1  0
 18 47  1  0
 19 48  1  0
 20 49  1  0
 21 50  1  0
 25 51  1  0
 28 52  1  0
 29 53  1  0
 32 54  1  0
 33 55  1  0
 35 56  1  0
M  END
$$$$
