
     RDKit          3D

 56 58  0  0  0  0  0  0  0  0999 V2000
    0.8805    3.2942   -0.9166 C   0  0  0  0  0  0  0  0  0  0  0  0
    1.7463    2.3290   -0.3373 O   0  0  0  0  0  0  0  0  0  0  0  0
    1.2381    1.0706   -0.1323 C   0  0  0  0  0  0  0  0  0  0  0  0
   -0.0058    0.6217   -0.5861 C   0  0  0  0  0  0  0  0  0  0  0  0
   -0.4260   -0.6968   -0.3254 C   0  0  0  0  0  0  0  0  0  0  0  0
   -1.7149   -1.1840   -0.8197 C   0  0  0  0  0  0  0  0  0  0  0  0
   -2.8794   -0.6763   -0.3915 C   0  0  0  0  0  0  0  0  0  0  0  0
   -4.1525   -1.2254   -0.9290 C   0  0  0  0  0  0  0  0  0  0  0  0
   -4.2065   -2.0750   -1.8112 O   0  0  0  0  0  0  0  0  0  0  0  0
   -5.3954   -0.6691   -0.3657 C   0  0  0  0  0  0  0  0  0  0  0  0
   -5.7632   -0.9423    0.9680 C   0  0  0  0  0  0  0  0  0  0  0  0
   -4.8822   -1.6831    1.7111 O   0  0  0  0  0  0  0  0  0  0  0  0
   -5.3536   -2.2256    2.9382 C   0  0  0  0  0  0  0  0  0  0  0  0
   -6.9787   -0.4387    1.4637 C   0  0  0  0  0  0  0  0  0  0  0  0
   -7.8267    0.3133    0.6436 C   0  0  0  0  0  0  0  0  0  0  0  0
   -7.4420    0.5620   -0.6654 C   0  0  0  0  0  0  0  0  0  0  0  0
   -8.2638    1.3137   -1.5026 O   0  0  0  0  0  0  0  0  0  0  0  0
   -7.6178    1.4213   -2.7335 C   0  0  0  0  0  0  0  0  0  0  0  0
   -8.0959    2.0434   -3.6753 O   0  0  0  0  0  0  0  0  0  0  0  0
   -6.0520    0.6127   -2.8441 S   0  0  0  0  0  0  0  0  0  0  0  0
   -6.2409    0.0821   -1.1779 C   0  0  0  0  0  0  0  0  0  0  0  0
    0.4035   -1.5710    0.3956 C   0  0  0  0  0  0  0  0  0  0  0  0
    1.6433   -1.1344    0.8539 C   0  0  0  0  0  0  0  0  0  0  0  0
    2.0597    0.1717    0.5732 C   0  0  0  0  0  0  0  0  0  0  0  0
    3.2836    0.5663    1.0592 O   0  0  0  0  0  0  0  0  0  0  0  0
    4.3167    0.2523    0.1071 C   0  0  0  0  0  0  0  0  0  0  0  0
    5.4740   -0.3770    0.8720 C   0  0  0  0  0  0  0  0  0  0  0  0
    6.5791   -0.9901   -0.0087 C   0  0  0  0  0  0  0  0  0  0  0  0
    7.3907   -0.1246   -0.8804 N   0  0  0  0  0  0  0  0  0  0  0  0
    6.7978    0.1290   -2.1933 C   0  0  0  0  0  0  0  0  0  0  0  0
    7.8482    1.0989   -0.2418 C   0  0  0  0  0  0  0  0  0  0  0  0
    0.6507    3.0424   -1.9579 H   0  0  0  0  0  0  0  0  0  0  0  0
   -0.0383    3.4155   -0.3276 H   0  0  0  0  0  0  0  0  0  0  0  0
    1.4057    4.2522   -0.9136 H   0  0  0  0  0  0  0  0  0  0  0  0
   -0.6590    1.2709   -1.1628 H   0  0  0  0  0  0  0  0  0  0  0  0
   -1.6806   -2.0016   -1.5397 H   0  0  0  0  0  0  0  0  0  0  0  0
   -2.9286    0.1151    0.3485 H   0  0  0  0  0  0  0  0  0  0  0  0
   -6.2666   -2.8136    2.7896 H   0  0  0  0  0  0  0  0  0  0  0  0
   -4.5798   -2.8983    3.3241 H   0  0  0  0  0  0  0  0  0  0  0  0
   -5.5096   -1.4366    3.6796 H   0  0  0  0  0  0  0  0  0  0  0  0
   -7.2926   -0.6142    2.4901 H   0  0  0  0  0  0  0  0  0  0  0  0
   -8.7685    0.6987    1.0284 H   0  0  0  0  0  0  0  0  0  0  0  0
    0.0866   -2.5931    0.6087 H   0  0  0  0  0  0  0  0  0  0  0  0
    2.2884   -1.8088    1.4255 H   0  0  0  0  0  0  0  0  0  0  0  0
    3.9819   -0.4302   -0.6837 H   0  0  0  0  0  0  0  0  0  0  0  0
    4.6215    1.1949   -0.3522 H   0  0  0  0  0  0  0  0  0  0  0  0
    5.0763   -1.1745    1.5141 H   0  0  0  0  0  0  0  0  0  0  0  0
    5.8877    0.3557    1.5733 H   0  0  0  0  0  0  0  0  0  0  0  0
    7.2843   -1.4919    0.6794 H   0  0  0  0  0  0  0  0  0  0  0  0
    6.1512   -1.8094   -0.6013 H   0  0  0  0  0  0  0  0  0  0  0  0
    5.8998    0.7591   -2.1477 H   0  0  0  0  0  0  0  0  0  0  0  0
    7.5264    0.6262   -2.8550 H   0  0  0  0  0  0  0  0  0  0  0  0
    6.5331   -0.8126   -2.6846 H   0  0  0  0  0  0  0  0  0  0  0  0
    8.3379    0.8778    0.7167 H   0  0  0  0  0  0  0  0  0  0  0  0
    8.5994    1.5984   -0.8722 H   0  0  0  0  0  0  0  0  0  0  0  0
    7.0286    1.8090   -0.0610 H   0  0  0  0  0  0  0  0  0  0  0  0
  1  2  1  0
  2  3  1  0
  3  4  2  0
  4  5  1  0
  5  6  1  0
  6  7  2  0
  7  8  1  0
  8  9  2  0
  8 10  1  0
 10 11  2  0
 11 12  1  0
 12 13  1  0
 11 14  1  0
 14 15  2  0
 15 16  1  0
 16 17  1  0
 17 18  1  0
 18 19  2  0
 18 20  1  0
 20 21  1  0
  5 22  2  0
 22 23  1  0
 23 24  2  0
 24 25  1  0
 25 26  1  0
 26 27  1  0
 27 28  1  0
 28 29  1  0
 29 30  1  0
 29 31  1  0
 24  3  1  0
 21 10  1  0
 21 16  2  0
  1 32  1  0
  1 33  1  0
  1 34  1  0
  4 35  1  0
  6 36  1  0
  7 37  1  0
 13 38  1  0
 13 39  1  0
 13 40  1  0
 14 41  1  0
 15 42  1  0
 22 43  1  0
 23 44  1  0
 26 45  1  0
 26 46  1  0
 27 47  1  0
 27 48  1  0
 28 49  1  0
 28 50  1  0
 30 51  1  0
 30 52  1  0
 30 53  1  0
 31 54  1  0
 31 55  1  0
 31 56  1  0
M  END
$$$$
