
     RDKit          3D

 46 49  0  0  0  0  0  0  0  0999 V2000
    2.8702    2.7887    1.1644 O   0  0  0  0  0  0  0  0  0  0  0  0
    2.7081    2.0306    0.2125 C   0  0  0  0  0  0  0  0  0  0  0  0
    1.3351    1.8333   -0.4084 C   0  0  0  0  0  0  0  0  0  0  0  0
    0.5241    0.4205    0.3965 S   0  0  0  0  0  0  0  0  0  0  0  0
   -0.9191    0.3259   -0.5475 C   0  0  0  0  0  0  0  0  0  0  0  0
   -1.1009    0.8802   -1.7212 N   0  0  0  0  0  0  0  0  0  0  0  0
   -2.3681    0.5642   -2.1385 N   0  0  0  0  0  0  0  0  0  0  0  0
   -2.9403   -0.1759   -1.2065 C   0  0  0  0  0  0  0  0  0  0  0  0
   -4.3337   -0.7137   -1.2583 C   0  0  0  0  0  0  0  0  0  0  0  0
   -5.3155    0.1821   -0.5513 C   0  0  0  0  0  0  0  0  0  0  0  0
   -5.5597    1.5254   -0.7702 C   0  0  0  0  0  0  0  0  0  0  0  0
   -6.5654    2.0446    0.0942 C   0  0  0  0  0  0  0  0  0  0  0  0
   -7.0654    1.0801    0.9399 C   0  0  0  0  0  0  0  0  0  0  0  0
   -6.3316   -0.4417    0.6813 S   0  0  0  0  0  0  0  0  0  0  0  0
   -2.0434   -0.3603   -0.1751 N   0  0  0  0  0  0  0  0  0  0  0  0
   -2.2693   -1.0797    1.0627 C   0  0  0  0  0  0  0  0  0  0  0  0
   -1.7741   -2.4742    0.9607 C   0  0  0  0  0  0  0  0  0  0  0  0
   -0.6520   -3.1215    1.4373 C   0  0  0  0  0  0  0  0  0  0  0  0
   -0.7546   -4.4667    1.0085 C   0  0  0  0  0  0  0  0  0  0  0  0
   -1.9323   -4.5568    0.3057 C   0  0  0  0  0  0  0  0  0  0  0  0
   -2.5602   -3.3534    0.2745 O   0  0  0  0  0  0  0  0  0  0  0  0
    3.6914    1.2657   -0.4017 N   0  0  0  0  0  0  0  0  0  0  0  0
    5.0650    1.2120   -0.0811 C   0  0  0  0  0  0  0  0  0  0  0  0
    5.8594    0.3363   -0.8324 C   0  0  0  0  0  0  0  0  0  0  0  0
    7.2274    0.2263   -0.5742 C   0  0  0  0  0  0  0  0  0  0  0  0
    8.1840   -0.8550   -1.5108 Cl  0  0  0  0  0  0  0  0  0  0  0  0
    7.8238    0.9808    0.4289 C   0  0  0  0  0  0  0  0  0  0  0  0
    7.0357    1.8527    1.1739 C   0  0  0  0  0  0  0  0  0  0  0  0
    7.7629    2.7944    2.4193 Cl  0  0  0  0  0  0  0  0  0  0  0  0
    5.6650    1.9729    0.9256 C   0  0  0  0  0  0  0  0  0  0  0  0
    1.4399    1.6644   -1.4855 H   0  0  0  0  0  0  0  0  0  0  0  0
    0.7487    2.7465   -0.2641 H   0  0  0  0  0  0  0  0  0  0  0  0
   -4.6395   -0.7951   -2.3099 H   0  0  0  0  0  0  0  0  0  0  0  0
   -4.3617   -1.7329   -0.8578 H   0  0  0  0  0  0  0  0  0  0  0  0
   -5.0322    2.1096   -1.5181 H   0  0  0  0  0  0  0  0  0  0  0  0
   -6.9058    3.0732    0.0927 H   0  0  0  0  0  0  0  0  0  0  0  0
   -7.8334    1.1930    1.6931 H   0  0  0  0  0  0  0  0  0  0  0  0
   -1.7747   -0.5389    1.8763 H   0  0  0  0  0  0  0  0  0  0  0  0
   -3.3379   -1.0683    1.2892 H   0  0  0  0  0  0  0  0  0  0  0  0
    0.1434   -2.6777    2.0203 H   0  0  0  0  0  0  0  0  0  0  0  0
   -0.0581   -5.2733    1.1902 H   0  0  0  0  0  0  0  0  0  0  0  0
   -2.4401   -5.3634   -0.2055 H   0  0  0  0  0  0  0  0  0  0  0  0
    3.3823    0.6521   -1.1486 H   0  0  0  0  0  0  0  0  0  0  0  0
    5.4226   -0.2669   -1.6248 H   0  0  0  0  0  0  0  0  0  0  0  0
    8.8876    0.8940    0.6280 H   0  0  0  0  0  0  0  0  0  0  0  0
    5.0919    2.6661    1.5342 H   0  0  0  0  0  0  0  0  0  0  0  0
  1  2  2  0
  2  3  1  0
  3  4  1  0
  4  5  1  0
  5  6  2  0
  6  7  1  0
  7  8  2  0
  8  9  1  0
  9 10  1  0
 10 11  2  0
 11 12  1  0
 12 13  2  0
 13 14  1  0
  8 15  1  0
 15 16  1  0
 16 17  1  0
 17 18  2  0
 18 19  1  0
 19 20  2  0
 20 21  1  0
  2 22  1  0
 22 23  1  0
 23 24  2  0
 24 25  1  0
 25 26  1  0
 25 27  2  0
 27 28  1  0
 28 29  1  0
 28 30  2  0
 15  5  1  0
 21 17  1  0
 30 23  1  0
 14 10  1  0
  3 31  1  0
  3 32  1  0
  9 33  1  0
  9 34  1  0
 11 35  1  0
 12 36  1  0
 13 37  1  0
 16 38  1  0
 16 39  1  0
 18 40  1  0
 19 41  1  0
 20 42  1  0
 22 43  1  0
 24 44  1  0
 27 45  1  0
 30 46  1  0
M  END
$$$$
