
     RDKit          3D

 71 75  0  0  0  0  0  0  0  0999 V2000
   -6.2373    1.9777    2.2806 C   0  0  0  0  0  0  0  0  0  0  0  0
   -6.7252    0.7183    1.6293 C   0  0  0  0  0  0  0  0  0  0  0  0
   -7.8844    0.7234    0.8540 C   0  0  0  0  0  0  0  0  0  0  0  0
   -8.3118   -0.4426    0.2177 C   0  0  0  0  0  0  0  0  0  0  0  0
   -7.5923   -1.6424    0.3400 C   0  0  0  0  0  0  0  0  0  0  0  0
   -8.0925   -2.8552   -0.3981 C   0  0  0  0  0  0  0  0  0  0  0  0
   -6.4079   -1.6567    1.1060 C   0  0  0  0  0  0  0  0  0  0  0  0
   -5.5473   -2.8920    1.2634 C   0  0  0  0  0  0  0  0  0  0  0  0
   -4.6401   -3.0711    0.1482 N   0  0  0  0  0  0  0  0  0  0  0  0
   -4.8760   -4.0170   -0.7956 N   0  0  0  0  0  0  0  0  0  0  0  0
   -3.8764   -3.9717   -1.6762 N   0  0  0  0  0  0  0  0  0  0  0  0
   -3.0047   -3.0185   -1.2489 C   0  0  0  0  0  0  0  0  0  0  0  0
   -1.7620   -2.5600   -1.8086 C   0  0  0  0  0  0  0  0  0  0  0  0
   -1.2492   -2.9738   -2.8413 O   0  0  0  0  0  0  0  0  0  0  0  0
   -1.1809   -1.5646   -1.0324 N   0  0  0  0  0  0  0  0  0  0  0  0
   -1.7266   -1.0651    0.1431 C   0  0  0  0  0  0  0  0  0  0  0  0
   -0.9380    0.0280    0.8616 C   0  0  0  0  0  0  0  0  0  0  0  0
   -0.6093    1.2073   -0.0677 C   0  0  0  0  0  0  0  0  0  0  0  0
    0.8632    1.2604   -0.4712 C   0  0  0  0  0  0  0  0  0  0  0  0
    1.3447   -0.1220   -0.6841 N   0  0  0  0  0  0  0  0  0  0  0  0
    2.6348   -0.3245   -1.7919 S   0  0  0  0  0  6  0  0  0  0  0  0
    2.3021    0.4150   -2.9895 O   0  0  0  0  0  0  0  0  0  0  0  0
    2.9440   -1.7365   -1.8389 O   0  0  0  0  0  0  0  0  0  0  0  0
    4.0044    0.5057   -1.0122 C   0  0  0  0  0  0  0  0  0  0  0  0
    4.9074   -0.2275   -0.2332 C   0  0  0  0  0  0  0  0  0  0  0  0
    5.9964    0.4195    0.3524 C   0  0  0  0  0  0  0  0  0  0  0  0
    6.1915    1.7870    0.1255 C   0  0  0  0  0  0  0  0  0  0  0  0
    7.5603    2.6233    0.9083 S   0  0  0  0  0  6  0  0  0  0  0  0
    7.1918    4.0182    1.0271 O   0  0  0  0  0  0  0  0  0  0  0  0
    7.9210    1.8453    2.0746 O   0  0  0  0  0  0  0  0  0  0  0  0
    8.8053    2.4882   -0.2391 N   0  0  0  0  0  0  0  0  0  0  0  0
    8.6643    3.2696   -1.4794 C   0  0  0  0  0  0  0  0  0  0  0  0
    9.3754    1.1482   -0.4582 C   0  0  0  0  0  0  0  0  0  0  0  0
    5.2919    2.5195   -0.6579 C   0  0  0  0  0  0  0  0  0  0  0  0
    4.2028    1.8724   -1.2430 C   0  0  0  0  0  0  0  0  0  0  0  0
    1.4352   -0.9142    0.5724 C   0  0  0  0  0  0  0  0  0  0  0  0
    0.3098   -0.5436    1.5416 C   0  0  0  0  0  0  0  0  0  0  0  0
   -2.8472   -1.4847    0.6648 N   0  0  0  0  0  0  0  0  0  0  0  0
   -3.4455   -2.4478   -0.0793 C   0  0  0  0  0  0  0  0  0  0  0  0
   -5.9888   -0.4670    1.7364 C   0  0  0  0  0  0  0  0  0  0  0  0
   -5.5471    2.5015    1.6123 H   0  0  0  0  0  0  0  0  0  0  0  0
   -5.7213    1.7553    3.2205 H   0  0  0  0  0  0  0  0  0  0  0  0
   -7.0725    2.6445    2.5193 H   0  0  0  0  0  0  0  0  0  0  0  0
   -8.4629    1.6363    0.7329 H   0  0  0  0  0  0  0  0  0  0  0  0
   -9.2169   -0.4061   -0.3860 H   0  0  0  0  0  0  0  0  0  0  0  0
   -9.1243   -2.7146   -0.7389 H   0  0  0  0  0  0  0  0  0  0  0  0
   -7.4732   -3.0430   -1.2795 H   0  0  0  0  0  0  0  0  0  0  0  0
   -8.0949   -3.7371    0.2489 H   0  0  0  0  0  0  0  0  0  0  0  0
   -6.1565   -3.7957    1.3687 H   0  0  0  0  0  0  0  0  0  0  0  0
   -4.9375   -2.8311    2.1732 H   0  0  0  0  0  0  0  0  0  0  0  0
   -0.3026   -1.2002   -1.3868 H   0  0  0  0  0  0  0  0  0  0  0  0
   -1.6036    0.4071    1.6501 H   0  0  0  0  0  0  0  0  0  0  0  0
   -1.2361    1.1752   -0.9678 H   0  0  0  0  0  0  0  0  0  0  0  0
   -0.8584    2.1506    0.4346 H   0  0  0  0  0  0  0  0  0  0  0  0
    1.4575    1.7445    0.3127 H   0  0  0  0  0  0  0  0  0  0  0  0
    0.9533    1.8662   -1.3778 H   0  0  0  0  0  0  0  0  0  0  0  0
    4.7696   -1.2961   -0.0772 H   0  0  0  0  0  0  0  0  0  0  0  0
    6.6867   -0.1437    0.9780 H   0  0  0  0  0  0  0  0  0  0  0  0
    7.9623    2.7910   -2.1680 H   0  0  0  0  0  0  0  0  0  0  0  0
    9.6369    3.3491   -1.9762 H   0  0  0  0  0  0  0  0  0  0  0  0
    8.3320    4.2899   -1.2701 H   0  0  0  0  0  0  0  0  0  0  0  0
   10.3459    1.2391   -0.9572 H   0  0  0  0  0  0  0  0  0  0  0  0
    9.5542    0.6329    0.4894 H   0  0  0  0  0  0  0  0  0  0  0  0
    8.7191    0.5396   -1.0866 H   0  0  0  0  0  0  0  0  0  0  0  0
    5.4362    3.5866   -0.8180 H   0  0  0  0  0  0  0  0  0  0  0  0
    3.5193    2.4359   -1.8756 H   0  0  0  0  0  0  0  0  0  0  0  0
    2.3972   -0.7614    1.0697 H   0  0  0  0  0  0  0  0  0  0  0  0
    1.3504   -1.9769    0.3186 H   0  0  0  0  0  0  0  0  0  0  0  0
    0.0562   -1.4181    2.1533 H   0  0  0  0  0  0  0  0  0  0  0  0
    0.6925    0.2126    2.2404 H   0  0  0  0  0  0  0  0  0  0  0  0
   -5.0642   -0.4627    2.3132 H   0  0  0  0  0  0  0  0  0  0  0  0
  1  2  1  0
  2  3  2  0
  3  4  1  0
  4  5  2  0
  5  6  1  0
  5  7  1  0
  7  8  1  0
  8  9  1  0
  9 10  1  0
 10 11  2  0
 11 12  1  0
 12 13  1  0
 13 14  2  0
 13 15  1  0
 15 16  1  0
 16 17  1  0
 17 18  1  0
 18 19  1  0
 19 20  1  0
 20 21  1  0
 21 22  2  0
 21 23  2  0
 21 24  1  0
 24 25  2  0
 25 26  1  0
 26 27  2  0
 27 28  1  0
 28 29  2  0
 28 30  2  0
 28 31  1  0
 31 32  1  0
 31 33  1  0
 27 34  1  0
 34 35  2  0
 20 36  1  0
 36 37  1  0
 16 38  2  0
 38 39  1  0
  7 40  2  0
 40  2  1  0
 39  9  1  0
 39 12  2  0
 37 17  1  0
 35 24  1  0
  1 41  1  0
  1 42  1  0
  1 43  1  0
  3 44  1  0
  4 45  1  0
  6 46  1  0
  6 47  1  0
  6 48  1  0
  8 49  1  0
  8 50  1  0
 15 51  1  0
 17 52  1  0
 18 53  1  0
 18 54  1  0
 19 55  1  0
 19 56  1  0
 25 57  1  0
 26 58  1  0
 32 59  1  0
 32 60  1  0
 32 61  1  0
 33 62  1  0
 33 63  1  0
 33 64  1  0
 34 65  1  0
 35 66  1  0
 36 67  1  0
 36 68  1  0
 37 69  1  0
 37 70  1  0
 40 71  1  0
M  END
$$$$
