
     RDKit          3D

 42 44  0  0  0  0  0  0  0  0999 V2000
   -5.1086    1.4851    0.4466 C   0  0  0  0  0  0  0  0  0  0  0  0
   -4.1032    1.0939   -0.5966 C   0  0  0  0  0  0  0  0  0  0  0  0
   -4.4188    1.1993   -1.9517 C   0  0  0  0  0  0  0  0  0  0  0  0
   -3.4878    0.8731   -2.9434 C   0  0  0  0  0  0  0  0  0  0  0  0
   -2.2117    0.4419   -2.5455 C   0  0  0  0  0  0  0  0  0  0  0  0
   -1.8604    0.3290   -1.2000 C   0  0  0  0  0  0  0  0  0  0  0  0
   -2.8186    0.6726   -0.2181 C   0  0  0  0  0  0  0  0  0  0  0  0
   -0.5093   -0.1322   -1.1538 C   0  0  0  0  0  0  0  0  0  0  0  0
    0.2298   -0.3798    0.0459 C   0  0  0  0  0  0  0  0  0  0  0  0
    1.5217   -0.0643    0.2387 C   0  0  0  0  0  0  0  0  0  0  0  0
    2.2484   -0.3064    1.4890 C   0  0  0  0  0  0  0  0  0  0  0  0
    3.5738   -0.7329    1.4324 C   0  0  0  0  0  0  0  0  0  0  0  0
    4.2828   -0.9418    2.6101 C   0  0  0  0  0  0  0  0  0  0  0  0
    3.7010   -0.7274    3.8111 N   0  0  0  0  0  4  0  0  0  0  0  0
    4.4747   -0.9447    5.0452 C   0  0  0  0  0  0  0  0  0  0  0  0
    2.4251   -0.2889    3.8908 C   0  0  0  0  0  0  0  0  0  0  0  0
    1.6782   -0.0693    2.7389 C   0  0  0  0  0  0  0  0  0  0  0  0
   -0.0779   -0.3383   -2.4548 C   0  0  0  0  0  0  0  0  0  0  0  0
    1.1985   -0.8968   -2.9876 C   0  0  0  0  0  0  0  0  0  0  0  0
   -1.1061    0.0692   -3.2858 N   0  0  0  0  0  0  0  0  0  0  0  0
   -1.0536    0.0856   -4.7346 C   0  0  0  0  0  0  0  0  0  0  0  0
   -6.1283    1.2829    0.1020 H   0  0  0  0  0  0  0  0  0  0  0  0
   -4.9585    0.9126    1.3679 H   0  0  0  0  0  0  0  0  0  0  0  0
   -5.0161    2.5516    0.6736 H   0  0  0  0  0  0  0  0  0  0  0  0
   -5.4068    1.5411   -2.2558 H   0  0  0  0  0  0  0  0  0  0  0  0
   -3.7608    0.9579   -3.9905 H   0  0  0  0  0  0  0  0  0  0  0  0
   -2.5585    0.6065    0.8338 H   0  0  0  0  0  0  0  0  0  0  0  0
   -0.3421   -0.8296    0.8542 H   0  0  0  0  0  0  0  0  0  0  0  0
    2.0892    0.4009   -0.5652 H   0  0  0  0  0  0  0  0  0  0  0  0
    4.0592   -0.9130    0.4746 H   0  0  0  0  0  0  0  0  0  0  0  0
    5.3162   -1.2771    2.6013 H   0  0  0  0  0  0  0  0  0  0  0  0
    4.9689   -0.0018    5.2918 H   0  0  0  0  0  0  0  0  0  0  0  0
    3.7949   -1.2497    5.8449 H   0  0  0  0  0  0  0  0  0  0  0  0
    5.2087   -1.7363    4.8735 H   0  0  0  0  0  0  0  0  0  0  0  0
    2.0124   -0.1104    4.8799 H   0  0  0  0  0  0  0  0  0  0  0  0
    0.6581    0.2996    2.8273 H   0  0  0  0  0  0  0  0  0  0  0  0
    1.0241   -1.5219   -3.8693 H   0  0  0  0  0  0  0  0  0  0  0  0
    1.8809   -0.0868   -3.2631 H   0  0  0  0  0  0  0  0  0  0  0  0
    1.6967   -1.5312   -2.2483 H   0  0  0  0  0  0  0  0  0  0  0  0
   -0.0360    0.3175   -5.0583 H   0  0  0  0  0  0  0  0  0  0  0  0
   -1.3590   -0.8995   -5.0952 H   0  0  0  0  0  0  0  0  0  0  0  0
   -1.7210    0.8597   -5.1197 H   0  0  0  0  0  0  0  0  0  0  0  0
  1  2  1  0
  2  3  2  0
  3  4  1  0
  4  5  2  0
  5  6  1  0
  6  7  2  0
  6  8  1  0
  8  9  1  0
  9 10  2  3
 10 11  1  0
 11 12  2  0
 12 13  1  0
 13 14  2  0
 14 15  1  0
 14 16  1  0
 16 17  2  0
  8 18  2  0
 18 19  1  0
 18 20  1  0
 20 21  1  0
  7  2  1  0
 17 11  1  0
 20  5  1  0
  1 22  1  0
  1 23  1  0
  1 24  1  0
  3 25  1  0
  4 26  1  0
  7 27  1  0
  9 28  1  0
 10 29  1  0
 12 30  1  0
 13 31  1  0
 15 32  1  0
 15 33  1  0
 15 34  1  0
 16 35  1  0
 17 36  1  0
 19 37  1  0
 19 38  1  0
 19 39  1  0
 21 40  1  0
 21 41  1  0
 21 42  1  0
M  CHG  1  14   1
M  END
$$$$
