
     RDKit          3D

 79 84  0  0  0  0  0  0  0  0999 V2000
   -6.3535    2.9954   -2.5752 C   0  0  0  0  0  0  0  0  0  0  0  0
   -5.5066    3.2583   -1.5659 C   0  0  0  0  0  0  0  0  0  0  0  0
   -5.9514    3.1883   -0.1294 C   0  0  0  0  0  0  0  0  0  0  0  0
   -4.0688    3.6718   -1.8209 C   0  0  0  0  0  0  0  0  0  0  0  0
   -2.9869    2.7036   -1.3112 C   0  0  1  0  0  0  0  0  0  0  0  0
   -2.8612    2.8458    0.1104 O   0  0  0  0  0  0  0  0  0  0  0  0
   -3.2530    1.2394   -1.6979 C   0  0  0  0  0  0  0  0  0  0  0  0
   -2.0212    0.5290   -1.5347 O   0  0  0  0  0  0  0  0  0  0  0  0
   -2.0579   -0.8383   -1.5463 C   0  0  0  0  0  0  0  0  0  0  0  0
   -3.1140   -1.5545   -2.1293 C   0  0  0  0  0  0  0  0  0  0  0  0
   -3.0311   -2.9290   -2.1657 C   0  0  0  0  0  0  0  0  0  0  0  0
   -1.9421   -3.5987   -1.6776 C   0  0  0  0  0  0  0  0  0  0  0  0
   -0.8828   -2.9317   -1.1049 C   0  0  0  0  0  0  0  0  0  0  0  0
   -0.9347   -1.5170   -0.9906 C   0  0  0  0  0  0  0  0  0  0  0  0
    0.2649   -0.7828   -0.3111 C   0  0  0  0  0  0  0  0  0  0  0  0
    0.8009   -1.5648    0.9343 C   0  0  0  0  0  0  0  0  0  0  0  0
   -0.1611   -1.9209    1.9210 C   0  0  0  0  0  0  0  0  0  0  0  0
    0.2290   -2.6433    3.0262 C   0  0  0  0  0  0  0  0  0  0  0  0
    1.5251   -3.0347    3.1993 C   0  0  0  0  0  0  0  0  0  0  0  0
    2.5076   -2.7001    2.2937 C   0  0  0  0  0  0  0  0  0  0  0  0
    2.1571   -1.9271    1.1712 C   0  0  0  0  0  0  0  0  0  0  0  0
    3.0883   -1.5323    0.2589 O   0  0  0  0  0  0  0  0  0  0  0  0
    4.4179   -1.2183    0.6773 C   0  0  0  0  0  0  0  0  0  0  0  0
    4.5997    0.2724    1.0121 C   0  0  2  0  0  0  0  0  0  0  0  0
    6.0129    0.5146    1.1047 O   0  0  0  0  0  0  0  0  0  0  0  0
    3.8937    0.6663    2.3266 C   0  0  0  0  0  0  0  0  0  0  0  0
    4.0631    2.1294    2.7015 C   0  0  0  0  0  0  0  0  0  0  0  0
    4.7494    2.4979    3.7987 C   0  0  0  0  0  0  0  0  0  0  0  0
    3.4052    3.1437    1.8076 C   0  0  0  0  0  0  0  0  0  0  0  0
    1.7042   -3.7574    4.3369 O   0  0  0  0  0  0  0  0  0  0  0  0
    0.3665   -3.7454    4.8765 C   0  0  0  0  0  0  0  0  0  0  0  0
   -0.5774   -3.0491    4.0398 O   0  0  0  0  0  0  0  0  0  0  0  0
   -0.1071    0.6638    0.2420 C   0  0  0  0  0  0  0  0  0  0  0  0
   -0.9453    0.9691    1.0839 O   0  0  0  0  0  0  0  0  0  0  0  0
    0.6824    1.6018   -0.4168 N   0  0  0  0  0  0  0  0  0  0  0  0
    1.4597    1.0103   -1.3944 C   0  0  0  0  0  0  0  0  0  0  0  0
    2.2918    1.6563   -2.2853 C   0  0  0  0  0  0  0  0  0  0  0  0
    2.9465    0.8632   -3.2213 C   0  0  0  0  0  0  0  0  0  0  0  0
    3.7578    1.4422   -4.1148 F   0  0  0  0  0  0  0  0  0  0  0  0
    2.7674   -0.5256   -3.2634 C   0  0  0  0  0  0  0  0  0  0  0  0
    1.9111   -1.1568   -2.3545 C   0  0  0  0  0  0  0  0  0  0  0  0
    1.2656   -0.3756   -1.4007 C   0  0  0  0  0  0  0  0  0  0  0  0
   -2.0407   -4.9436   -1.8343 O   0  0  0  0  0  0  0  0  0  0  0  0
   -3.3509   -5.0486   -2.4275 C   0  0  0  0  0  0  0  0  0  0  0  0
   -3.9633   -3.7694   -2.6902 O   0  0  0  0  0  0  0  0  0  0  0  0
   -7.3826    2.7066   -2.3912 H   0  0  0  0  0  0  0  0  0  0  0  0
   -6.0425    3.0622   -3.6146 H   0  0  0  0  0  0  0  0  0  0  0  0
   -7.0391    3.0816   -0.0385 H   0  0  0  0  0  0  0  0  0  0  0  0
   -5.6675    4.0972    0.4091 H   0  0  0  0  0  0  0  0  0  0  0  0
   -5.4932    2.3272    0.3736 H   0  0  0  0  0  0  0  0  0  0  0  0
   -3.9180    4.6570   -1.3617 H   0  0  0  0  0  0  0  0  0  0  0  0
   -3.9146    3.8080   -2.9023 H   0  0  0  0  0  0  0  0  0  0  0  0
   -2.0201    3.0169   -1.7266 H   0  0  0  0  0  0  0  0  0  0  0  0
   -2.3140    2.0959    0.4391 H   0  0  0  0  0  0  0  0  0  0  0  0
   -4.0200    0.8057   -1.0473 H   0  0  0  0  0  0  0  0  0  0  0  0
   -3.5560    1.1816   -2.7492 H   0  0  0  0  0  0  0  0  0  0  0  0
   -3.9793   -1.0724   -2.5657 H   0  0  0  0  0  0  0  0  0  0  0  0
   -0.0353   -3.5058   -0.7431 H   0  0  0  0  0  0  0  0  0  0  0  0
   -1.2060   -1.6389    1.8196 H   0  0  0  0  0  0  0  0  0  0  0  0
    3.5157   -3.0566    2.4712 H   0  0  0  0  0  0  0  0  0  0  0  0
    4.7996   -1.8522    1.4821 H   0  0  0  0  0  0  0  0  0  0  0  0
    5.0669   -1.4531   -0.1772 H   0  0  0  0  0  0  0  0  0  0  0  0
    4.2090    0.8730    0.1843 H   0  0  0  0  0  0  0  0  0  0  0  0
    6.1540    1.2857    1.6879 H   0  0  0  0  0  0  0  0  0  0  0  0
    4.2877    0.0345    3.1347 H   0  0  0  0  0  0  0  0  0  0  0  0
    2.8185    0.4677    2.2639 H   0  0  0  0  0  0  0  0  0  0  0  0
    5.1974    1.7728    4.4666 H   0  0  0  0  0  0  0  0  0  0  0  0
    4.8521    3.5408    4.0776 H   0  0  0  0  0  0  0  0  0  0  0  0
    3.4983    4.1588    2.2091 H   0  0  0  0  0  0  0  0  0  0  0  0
    2.3346    2.9293    1.7068 H   0  0  0  0  0  0  0  0  0  0  0  0
    3.8568    3.1393    0.8106 H   0  0  0  0  0  0  0  0  0  0  0  0
    0.0249   -4.7783    5.0064 H   0  0  0  0  0  0  0  0  0  0  0  0
    0.3896   -3.2596    5.8586 H   0  0  0  0  0  0  0  0  0  0  0  0
    0.5901    2.5927   -0.2473 H   0  0  0  0  0  0  0  0  0  0  0  0
    2.4288    2.7304   -2.2846 H   0  0  0  0  0  0  0  0  0  0  0  0
    3.3010   -1.1043   -4.0123 H   0  0  0  0  0  0  0  0  0  0  0  0
    1.7720   -2.2333   -2.3838 H   0  0  0  0  0  0  0  0  0  0  0  0
   -3.9963   -5.6087   -1.7430 H   0  0  0  0  0  0  0  0  0  0  0  0
   -3.2691   -5.5988   -3.3716 H   0  0  0  0  0  0  0  0  0  0  0  0
  1  2  2  0
  2  3  1  0
  2  4  1  0
  4  5  1  0
  5  6  1  0
  5  7  1  0
  7  8  1  0
  8  9  1  0
  9 10  2  0
 10 11  1  0
 11 12  2  0
 12 13  1  0
 13 14  2  0
 14 15  1  0
 15 16  1  0
 16 17  2  0
 17 18  1  0
 18 19  2  0
 19 20  1  0
 20 21  2  0
 21 22  1  0
 22 23  1  0
 23 24  1  0
 24 25  1  0
 24 26  1  0
 26 27  1  0
 27 28  2  0
 27 29  1  0
 19 30  1  0
 30 31  1  0
 31 32  1  0
 15 33  1  0
 33 34  2  0
 33 35  1  0
 35 36  1  0
 36 37  2  0
 37 38  1  0
 38 39  1  0
 38 40  2  0
 40 41  1  0
 41 42  2  0
 12 43  1  0
 43 44  1  0
 44 45  1  0
 14  9  1  0
 42 15  1  0
 45 11  1  0
 21 16  1  0
 42 36  1  0
 32 18  1  0
  1 46  1  0
  1 47  1  0
  3 48  1  0
  3 49  1  0
  3 50  1  0
  4 51  1  0
  4 52  1  0
  5 53  1  6
  6 54  1  0
  7 55  1  0
  7 56  1  0
 10 57  1  0
 13 58  1  0
 17 59  1  0
 20 60  1  0
 23 61  1  0
 23 62  1  0
 24 63  1  6
 25 64  1  0
 26 65  1  0
 26 66  1  0
 28 67  1  0
 28 68  1  0
 29 69  1  0
 29 70  1  0
 29 71  1  0
 31 72  1  0
 31 73  1  0
 35 74  1  0
 37 75  1  0
 40 76  1  0
 41 77  1  0
 44 78  1  0
 44 79  1  0
M  END
$$$$
