
     RDKit          3D

 71 75  0  0  0  0  0  0  0  0999 V2000
   -1.8761    4.1425    0.2974 C   0  0  0  0  0  0  0  0  0  0  0  0
   -1.5305    2.6671    0.3827 C   0  0  0  0  0  0  0  0  0  0  0  0
   -1.9300    1.8607   -0.6270 C   0  0  0  0  0  0  0  0  0  0  0  0
   -1.8227    0.4166   -0.9158 C   0  0  0  0  0  0  0  0  0  0  0  0
   -2.9331   -0.5734   -0.5809 C   0  0  2  0  0  0  0  0  0  0  0  0
   -2.6568   -1.9973   -0.1352 C   0  0  0  0  0  0  0  0  0  0  0  0
   -2.9556   -2.2924    1.3502 C   0  0  0  0  0  0  0  0  0  0  0  0
   -2.1607   -1.4947    2.3676 C   0  0  2  0  0  0  0  0  0  0  0  0
   -2.3407   -1.8633    3.8037 C   0  0  0  0  0  0  0  0  0  0  0  0
   -2.2807   -0.1088    2.0989 O   0  0  0  0  0  0  0  0  0  0  0  0
   -0.9579   -0.6659    1.9331 C   0  0  1  0  0  0  0  0  0  0  0  0
   -0.0088    0.2099    2.6621 C   0  0  1  0  0  0  0  0  0  0  0  0
    1.3056   -0.4510    3.0703 C   0  0  1  0  0  0  0  0  0  0  0  0
    1.7929   -1.3249    2.0570 O   0  0  0  0  0  0  0  0  0  0  0  0
    2.2492    0.7475    3.3144 C   0  0  1  0  0  0  0  0  0  0  0  0
    3.6770    0.5501    2.8162 C   0  0  0  0  0  0  0  0  0  0  0  0
    4.2102   -0.6511    3.3677 O   0  0  0  0  0  0  0  0  0  0  0  0
    1.5658    1.9754    2.6677 C   0  0  0  0  0  0  0  0  0  0  0  0
    0.4261    1.4189    1.7711 C   0  0  1  0  0  0  0  0  0  0  0  0
    0.9991    0.9530    0.5422 O   0  0  0  0  0  0  0  0  0  0  0  0
    1.4967    1.8573   -0.3302 C   0  0  0  0  0  0  0  0  0  0  0  0
    1.5165    3.0691   -0.1833 O   0  0  0  0  0  0  0  0  0  0  0  0
    2.0177    1.2034   -1.5484 C   0  0  0  0  0  0  0  0  0  0  0  0
    2.1642   -0.1250   -1.6783 C   0  0  0  0  0  0  0  0  0  0  0  0
    2.6419   -0.7921   -2.8980 C   0  0  0  0  0  0  0  0  0  0  0  0
    2.1803   -2.0864   -3.1767 C   0  0  0  0  0  0  0  0  0  0  0  0
    2.6159   -2.7709   -4.3141 C   0  0  0  0  0  0  0  0  0  0  0  0
    3.5277   -2.1727   -5.1805 C   0  0  0  0  0  0  0  0  0  0  0  0
    4.0086   -0.8942   -4.9064 C   0  0  0  0  0  0  0  0  0  0  0  0
    3.5727   -0.2093   -3.7684 C   0  0  0  0  0  0  0  0  0  0  0  0
   -0.7800    2.3952    1.6745 C   0  0  0  0  0  0  0  0  0  0  0  0
   -1.1324    3.0289    2.6802 O   0  0  0  0  0  0  0  0  0  0  0  0
   -2.6956   -0.1798   -2.0294 C   0  0  0  0  0  0  0  0  0  0  0  0
   -2.0056   -1.1283   -2.9842 C   0  0  0  0  0  0  0  0  0  0  0  0
   -3.8138    0.5955   -2.6902 C   0  0  0  0  0  0  0  0  0  0  0  0
   -0.9824    4.7551    0.4621 H   0  0  0  0  0  0  0  0  0  0  0  0
   -2.6267    4.4060    1.0505 H   0  0  0  0  0  0  0  0  0  0  0  0
   -2.2795    4.4265   -0.6806 H   0  0  0  0  0  0  0  0  0  0  0  0
   -2.4339    2.3961   -1.4323 H   0  0  0  0  0  0  0  0  0  0  0  0
   -0.8010    0.0577   -0.9151 H   0  0  0  0  0  0  0  0  0  0  0  0
   -3.8292   -0.1852   -0.1039 H   0  0  0  0  0  0  0  0  0  0  0  0
   -1.6242   -2.2844   -0.3630 H   0  0  0  0  0  0  0  0  0  0  0  0
   -3.2962   -2.6596   -0.7326 H   0  0  0  0  0  0  0  0  0  0  0  0
   -2.7687   -3.3588    1.5273 H   0  0  0  0  0  0  0  0  0  0  0  0
   -4.0235   -2.1223    1.5370 H   0  0  0  0  0  0  0  0  0  0  0  0
   -3.4034   -1.8794    4.0661 H   0  0  0  0  0  0  0  0  0  0  0  0
   -1.8426   -1.1612    4.4794 H   0  0  0  0  0  0  0  0  0  0  0  0
   -1.9264   -2.8591    3.9904 H   0  0  0  0  0  0  0  0  0  0  0  0
   -0.5504   -0.9453    0.9729 H   0  0  0  0  0  0  0  0  0  0  0  0
   -0.4851    0.5949    3.5768 H   0  0  0  0  0  0  0  0  0  0  0  0
    1.1751   -1.0496    3.9785 H   0  0  0  0  0  0  0  0  0  0  0  0
    2.6739   -1.6323    2.3598 H   0  0  0  0  0  0  0  0  0  0  0  0
    2.2884    0.9204    4.3988 H   0  0  0  0  0  0  0  0  0  0  0  0
    4.3203    1.3885    3.1043 H   0  0  0  0  0  0  0  0  0  0  0  0
    3.7125    0.4649    1.7249 H   0  0  0  0  0  0  0  0  0  0  0  0
    4.5133   -0.4423    4.2698 H   0  0  0  0  0  0  0  0  0  0  0  0
    2.2886    2.5899    2.1235 H   0  0  0  0  0  0  0  0  0  0  0  0
    1.1639    2.6075    3.4693 H   0  0  0  0  0  0  0  0  0  0  0  0
    2.2641    1.8963   -2.3446 H   0  0  0  0  0  0  0  0  0  0  0  0
    1.8971   -0.7924   -0.8597 H   0  0  0  0  0  0  0  0  0  0  0  0
    1.4697   -2.5739   -2.5121 H   0  0  0  0  0  0  0  0  0  0  0  0
    2.2446   -3.7716   -4.5206 H   0  0  0  0  0  0  0  0  0  0  0  0
    3.8687   -2.7046   -6.0649 H   0  0  0  0  0  0  0  0  0  0  0  0
    4.7286   -0.4302   -5.5760 H   0  0  0  0  0  0  0  0  0  0  0  0
    3.9813    0.7783   -3.5704 H   0  0  0  0  0  0  0  0  0  0  0  0
   -1.1417   -1.6261   -2.5329 H   0  0  0  0  0  0  0  0  0  0  0  0
   -2.7033   -1.9010   -3.3233 H   0  0  0  0  0  0  0  0  0  0  0  0
   -1.6445   -0.5821   -3.8624 H   0  0  0  0  0  0  0  0  0  0  0  0
   -3.4109    1.2701   -3.4533 H   0  0  0  0  0  0  0  0  0  0  0  0
   -4.5123   -0.0927   -3.1785 H   0  0  0  0  0  0  0  0  0  0  0  0
   -4.3915    1.1918   -1.9756 H   0  0  0  0  0  0  0  0  0  0  0  0
  1  2  1  0
  2  3  2  3
  3  4  1  0
  4  5  1  0
  5  6  1  0
  6  7  1  0
  7  8  1  0
  8  9  1  1
  8 10  1  0
 10 11  1  0
 11 12  1  0
 12 13  1  0
 13 14  1  0
 13 15  1  0
 15 16  1  0
 16 17  1  0
 15 18  1  0
 18 19  1  0
 19 20  1  6
 20 21  1  0
 21 22  2  0
 21 23  1  0
 23 24  2  0
 24 25  1  0
 25 26  2  0
 26 27  1  0
 27 28  2  0
 28 29  1  0
 29 30  2  0
 19 31  1  0
 31 32  2  0
  5 33  1  0
 33 34  1  0
 33 35  1  0
 31  2  1  0
 33  4  1  0
 11  8  1  0
 19 12  1  0
 30 25  1  0
  1 36  1  0
  1 37  1  0
  1 38  1  0
  3 39  1  0
  4 40  1  0
  5 41  1  1
  6 42  1  0
  6 43  1  0
  7 44  1  0
  7 45  1  0
  9 46  1  0
  9 47  1  0
  9 48  1  0
 11 49  1  6
 12 50  1  1
 13 51  1  1
 14 52  1  0
 15 53  1  1
 16 54  1  0
 16 55  1  0
 17 56  1  0
 18 57  1  0
 18 58  1  0
 23 59  1  0
 24 60  1  0
 26 61  1  0
 27 62  1  0
 28 63  1  0
 29 64  1  0
 30 65  1  0
 34 66  1  0
 34 67  1  0
 34 68  1  0
 35 69  1  0
 35 70  1  0
 35 71  1  0
M  END
$$$$
