
     RDKit          3D

 58 61  0  0  0  0  0  0  0  0999 V2000
   -4.1762    4.9133    2.3415 C   0  0  0  0  0  0  0  0  0  0  0  0
   -4.1470    3.5037    2.1580 O   0  0  0  0  0  0  0  0  0  0  0  0
   -3.5380    3.0400    1.0238 C   0  0  0  0  0  0  0  0  0  0  0  0
   -2.9305    3.8221    0.0414 C   0  0  0  0  0  0  0  0  0  0  0  0
   -2.3378    3.2167   -1.0693 C   0  0  0  0  0  0  0  0  0  0  0  0
   -2.3504    1.8280   -1.2029 C   0  0  0  0  0  0  0  0  0  0  0  0
   -2.9569    1.0291   -0.2267 C   0  0  0  0  0  0  0  0  0  0  0  0
   -2.9507   -0.4336   -0.3571 C   0  0  0  0  0  0  0  0  0  0  0  0
   -4.4502   -1.2403   -0.5295 S   0  0  0  0  0  0  0  0  0  0  0  0
   -3.7110   -2.7845   -0.6485 C   0  0  0  0  0  0  0  0  0  0  0  0
   -4.3625   -4.0219   -0.8143 C   0  0  0  0  0  0  0  0  0  0  0  0
   -3.6002   -5.1933   -0.8877 C   0  0  0  0  0  0  0  0  0  0  0  0
   -2.2163   -5.1429   -0.7957 C   0  0  0  0  0  0  0  0  0  0  0  0
   -1.3663   -6.2136   -0.8505 O   0  0  0  0  0  0  0  0  0  0  0  0
   -1.9564   -7.4985   -1.0010 C   0  0  0  0  0  0  0  0  0  0  0  0
   -1.5815   -3.9058   -0.6315 C   0  0  0  0  0  0  0  0  0  0  0  0
   -2.3218   -2.6960   -0.5593 C   0  0  0  0  0  0  0  0  0  0  0  0
   -1.8878   -1.3245   -0.3951 C   0  0  0  0  0  0  0  0  0  0  0  0
   -0.5025   -0.8772   -0.2760 C   0  0  0  0  0  0  0  0  0  0  0  0
   -0.0375   -0.3066    0.9139 C   0  0  0  0  0  0  0  0  0  0  0  0
    1.2894    0.1256    1.0219 C   0  0  0  0  0  0  0  0  0  0  0  0
    2.1623   -0.0139   -0.0572 C   0  0  0  0  0  0  0  0  0  0  0  0
    3.4756    0.3651   -0.0851 O   0  0  0  0  0  0  0  0  0  0  0  0
    4.0011    0.9838    1.0929 C   0  0  0  0  0  0  0  0  0  0  0  0
    5.4797    1.3517    0.8617 C   0  0  0  0  0  0  0  0  0  0  0  0
    5.7007    2.6691    0.2231 N   0  0  0  0  0  0  0  0  0  0  0  0
    5.1245    2.7274   -1.1225 C   0  0  0  0  0  0  0  0  0  0  0  0
    7.1363    2.9557    0.1598 C   0  0  0  0  0  0  0  0  0  0  0  0
    1.6983   -0.5912   -1.2420 C   0  0  0  0  0  0  0  0  0  0  0  0
    0.3744   -1.0224   -1.3548 C   0  0  0  0  0  0  0  0  0  0  0  0
   -3.5475    1.6483    0.8842 C   0  0  0  0  0  0  0  0  0  0  0  0
   -3.1636    5.3209    2.4290 H   0  0  0  0  0  0  0  0  0  0  0  0
   -4.6989    5.1173    3.2810 H   0  0  0  0  0  0  0  0  0  0  0  0
   -4.7332    5.4052    1.5372 H   0  0  0  0  0  0  0  0  0  0  0  0
   -2.8977    4.9042    0.1095 H   0  0  0  0  0  0  0  0  0  0  0  0
   -1.8620    3.8282   -1.8318 H   0  0  0  0  0  0  0  0  0  0  0  0
   -1.8824    1.3728   -2.0728 H   0  0  0  0  0  0  0  0  0  0  0  0
   -5.4460   -4.0689   -0.8835 H   0  0  0  0  0  0  0  0  0  0  0  0
   -4.1309   -6.1311   -1.0158 H   0  0  0  0  0  0  0  0  0  0  0  0
   -2.4993   -7.5747   -1.9488 H   0  0  0  0  0  0  0  0  0  0  0  0
   -1.1490   -8.2369   -1.0198 H   0  0  0  0  0  0  0  0  0  0  0  0
   -2.6058   -7.7369   -0.1521 H   0  0  0  0  0  0  0  0  0  0  0  0
   -0.4967   -3.8763   -0.5539 H   0  0  0  0  0  0  0  0  0  0  0  0
   -0.7045   -0.1907    1.7654 H   0  0  0  0  0  0  0  0  0  0  0  0
    1.6038    0.5666    1.9617 H   0  0  0  0  0  0  0  0  0  0  0  0
    3.9554    0.2653    1.9208 H   0  0  0  0  0  0  0  0  0  0  0  0
    3.4270    1.8802    1.3578 H   0  0  0  0  0  0  0  0  0  0  0  0
    5.9732    0.5592    0.2840 H   0  0  0  0  0  0  0  0  0  0  0  0
    5.9524    1.3854    1.8516 H   0  0  0  0  0  0  0  0  0  0  0  0
    5.4989    1.9255   -1.7688 H   0  0  0  0  0  0  0  0  0  0  0  0
    4.0321    2.6724   -1.0865 H   0  0  0  0  0  0  0  0  0  0  0  0
    5.3578    3.6866   -1.5992 H   0  0  0  0  0  0  0  0  0  0  0  0
    7.3121    3.9519   -0.2615 H   0  0  0  0  0  0  0  0  0  0  0  0
    7.6783    2.2226   -0.4487 H   0  0  0  0  0  0  0  0  0  0  0  0
    7.5733    2.9617    1.1646 H   0  0  0  0  0  0  0  0  0  0  0  0
    2.3741   -0.7050   -2.0860 H   0  0  0  0  0  0  0  0  0  0  0  0
    0.0349   -1.4648   -2.2883 H   0  0  0  0  0  0  0  0  0  0  0  0
   -4.0164    1.0457    1.6592 H   0  0  0  0  0  0  0  0  0  0  0  0
  1  2  1  0
  2  3  1  0
  3  4  2  0
  4  5  1  0
  5  6  2  0
  6  7  1  0
  7  8  1  0
  8  9  1  0
  9 10  1  0
 10 11  2  0
 11 12  1  0
 12 13  2  0
 13 14  1  0
 14 15  1  0
 13 16  1  0
 16 17  2  0
 17 18  1  0
 18 19  1  0
 19 20  2  0
 20 21  1  0
 21 22  2  0
 22 23  1  0
 23 24  1  0
 24 25  1  0
 25 26  1  0
 26 27  1  0
 26 28  1  0
 22 29  1  0
 29 30  2  0
  7 31  2  0
 31  3  1  0
 18  8  2  0
 30 19  1  0
 17 10  1  0
  1 32  1  0
  1 33  1  0
  1 34  1  0
  4 35  1  0
  5 36  1  0
  6 37  1  0
 11 38  1  0
 12 39  1  0
 15 40  1  0
 15 41  1  0
 15 42  1  0
 16 43  1  0
 20 44  1  0
 21 45  1  0
 24 46  1  0
 24 47  1  0
 25 48  1  0
 25 49  1  0
 27 50  1  0
 27 51  1  0
 27 52  1  0
 28 53  1  0
 28 54  1  0
 28 55  1  0
 29 56  1  0
 30 57  1  0
 31 58  1  0
M  END
$$$$
