
     RDKit          3D

 57 59  0  0  0  0  0  0  0  0999 V2000
   -1.6033   -2.8802    0.1872 C   0  0  0  0  0  0  0  0  0  0  0  0
   -2.0753   -1.5137   -0.3019 C   0  0  0  0  0  0  0  0  0  0  0  0
   -3.4801   -1.2133    0.0106 N   0  0  0  0  0  0  0  0  0  0  0  0
   -4.4368   -2.2220   -0.4738 C   0  0  0  0  0  0  0  0  0  0  0  0
   -4.4720   -2.4550   -1.9818 C   0  0  0  0  0  0  0  0  0  0  0  0
   -3.8680    0.1472   -0.4246 C   0  0  0  0  0  0  0  0  0  0  0  0
   -3.1480    1.3032    0.3003 C   0  0  0  0  0  0  0  0  0  0  0  0
   -1.9144    1.6044   -0.3727 O   0  0  0  0  0  0  0  0  0  0  0  0
   -1.3328    2.7617    0.0878 C   0  0  0  0  0  0  0  0  0  0  0  0
   -1.8058    3.9899   -0.2132 C   0  0  0  0  0  0  0  0  0  0  0  0
   -1.0435    5.1772    0.3002 C   0  0  2  0  0  0  0  0  0  0  0  0
   -1.2736    6.3869   -0.4055 O   0  0  0  0  0  0  0  0  0  0  0  0
   -0.2535    7.2363   -0.0366 C   0  0  0  0  0  0  0  0  0  0  0  0
   -0.2498    8.4309   -0.2841 O   0  0  0  0  0  0  0  0  0  0  0  0
    1.1058    6.4352    0.7894 S   0  0  0  0  0  0  0  0  0  0  0  0
    0.4588    4.8856    0.1930 C   0  0  1  0  0  0  0  0  0  0  0  0
    0.8106    3.6269    0.9112 C   0  0  0  0  0  0  0  0  0  0  0  0
   -0.0732    2.6051    0.8265 C   0  0  0  0  0  0  0  0  0  0  0  0
    0.2397    1.3386    1.5398 C   0  0  0  0  0  0  0  0  0  0  0  0
   -0.3598    1.0167    2.5584 O   0  0  0  0  0  0  0  0  0  0  0  0
    1.3251    0.5244    0.9336 C   0  0  0  0  0  0  0  0  0  0  0  0
    1.6919   -0.6288    1.5124 C   0  0  0  0  0  0  0  0  0  0  0  0
    2.7259   -1.5206    0.9733 C   0  0  0  0  0  0  0  0  0  0  0  0
    2.5486   -2.9033    1.0838 C   0  0  0  0  0  0  0  0  0  0  0  0
    3.5152   -3.7845    0.5899 C   0  0  0  0  0  0  0  0  0  0  0  0
    4.6820   -3.3021   -0.0053 C   0  0  0  0  0  0  0  0  0  0  0  0
    5.5393   -4.2697   -0.4488 O   0  0  0  0  0  0  0  0  0  0  0  0
    6.7590   -3.8308   -1.0344 C   0  0  0  0  0  0  0  0  0  0  0  0
    4.8769   -1.9248   -0.0981 C   0  0  0  0  0  0  0  0  0  0  0  0
    3.9066   -1.0403    0.3926 C   0  0  0  0  0  0  0  0  0  0  0  0
   -0.5210   -2.9680    0.0528 H   0  0  0  0  0  0  0  0  0  0  0  0
   -1.8193   -3.0150    1.2518 H   0  0  0  0  0  0  0  0  0  0  0  0
   -2.0668   -3.6977   -0.3716 H   0  0  0  0  0  0  0  0  0  0  0  0
   -1.8788   -1.4239   -1.3767 H   0  0  0  0  0  0  0  0  0  0  0  0
   -1.4355   -0.7839    0.1996 H   0  0  0  0  0  0  0  0  0  0  0  0
   -4.2450   -3.1773    0.0287 H   0  0  0  0  0  0  0  0  0  0  0  0
   -5.4447   -1.9426   -0.1411 H   0  0  0  0  0  0  0  0  0  0  0  0
   -3.5057   -2.7964   -2.3650 H   0  0  0  0  0  0  0  0  0  0  0  0
   -5.2085   -3.2298   -2.2178 H   0  0  0  0  0  0  0  0  0  0  0  0
   -4.7617   -1.5513   -2.5261 H   0  0  0  0  0  0  0  0  0  0  0  0
   -3.7359    0.2582   -1.5084 H   0  0  0  0  0  0  0  0  0  0  0  0
   -4.9368    0.2726   -0.2065 H   0  0  0  0  0  0  0  0  0  0  0  0
   -2.9571    1.0517    1.3504 H   0  0  0  0  0  0  0  0  0  0  0  0
   -3.8096    2.1783    0.2713 H   0  0  0  0  0  0  0  0  0  0  0  0
   -2.7155    4.1350   -0.7834 H   0  0  0  0  0  0  0  0  0  0  0  0
   -1.3819    5.3325    1.3388 H   0  0  0  0  0  0  0  0  0  0  0  0
    0.7789    4.7974   -0.8551 H   0  0  0  0  0  0  0  0  0  0  0  0
    1.7464    3.5434    1.4537 H   0  0  0  0  0  0  0  0  0  0  0  0
    1.7704    0.8833    0.0137 H   0  0  0  0  0  0  0  0  0  0  0  0
    1.1909   -0.9716    2.4170 H   0  0  0  0  0  0  0  0  0  0  0  0
    1.6518   -3.3126    1.5448 H   0  0  0  0  0  0  0  0  0  0  0  0
    3.3565   -4.8572    0.6726 H   0  0  0  0  0  0  0  0  0  0  0  0
    7.3636   -3.2693   -0.3142 H   0  0  0  0  0  0  0  0  0  0  0  0
    6.5744   -3.2427   -1.9393 H   0  0  0  0  0  0  0  0  0  0  0  0
    7.3277   -4.7191   -1.3261 H   0  0  0  0  0  0  0  0  0  0  0  0
    5.7720   -1.5029   -0.5411 H   0  0  0  0  0  0  0  0  0  0  0  0
    4.0954    0.0280    0.3234 H   0  0  0  0  0  0  0  0  0  0  0  0
  1  2  1  0
  2  3  1  0
  3  4  1  0
  4  5  1  0
  3  6  1  0
  6  7  1  0
  7  8  1  0
  8  9  1  0
  9 10  2  0
 10 11  1  0
 11 12  1  0
 12 13  1  0
 13 14  2  0
 13 15  1  0
 15 16  1  0
 16 17  1  0
 17 18  2  0
 18 19  1  0
 19 20  2  0
 19 21  1  0
 21 22  2  0
 22 23  1  0
 23 24  2  0
 24 25  1  0
 25 26  2  0
 26 27  1  0
 27 28  1  0
 26 29  1  0
 29 30  2  0
 18  9  1  0
 30 23  1  0
 16 11  1  0
  1 31  1  0
  1 32  1  0
  1 33  1  0
  2 34  1  0
  2 35  1  0
  4 36  1  0
  4 37  1  0
  5 38  1  0
  5 39  1  0
  5 40  1  0
  6 41  1  0
  6 42  1  0
  7 43  1  0
  7 44  1  0
 10 45  1  0
 11 46  1  1
 16 47  1  6
 17 48  1  0
 21 49  1  0
 22 50  1  0
 24 51  1  0
 25 52  1  0
 28 53  1  0
 28 54  1  0
 28 55  1  0
 29 56  1  0
 30 57  1  0
M  END
$$$$
