
     RDKit          3D

 28 30  0  0  0  0  0  0  0  0999 V2000
    0.4072    3.2406    0.5003 N   0  0  0  0  0  0  0  0  0  0  0  0
    0.2252    1.9423    0.9037 C   0  0  0  0  0  0  0  0  0  0  0  0
    0.1539    1.6887    2.1026 O   0  0  0  0  0  0  0  0  0  0  0  0
    0.1368    0.9045   -0.2269 C   0  0  0  0  0  0  0  0  0  0  0  0
   -1.2183    0.2351   -0.2374 C   0  0  0  0  0  0  0  0  0  0  0  0
   -2.3832    0.9643   -0.5310 C   0  0  0  0  0  0  0  0  0  0  0  0
   -3.6318    0.3403   -0.5183 C   0  0  0  0  0  0  0  0  0  0  0  0
   -3.7306   -1.0149   -0.2126 C   0  0  0  0  0  0  0  0  0  0  0  0
   -2.5795   -1.7467    0.0754 C   0  0  0  0  0  0  0  0  0  0  0  0
   -1.3283   -1.1257    0.0571 C   0  0  0  0  0  0  0  0  0  0  0  0
   -0.2530   -1.9323    0.3376 O   0  0  0  0  0  0  0  0  0  0  0  0
    1.0106   -1.4285    0.1513 C   0  0  0  0  0  0  0  0  0  0  0  0
    2.0579   -2.3463    0.2620 C   0  0  0  0  0  0  0  0  0  0  0  0
    3.3762   -1.9328    0.0749 C   0  0  0  0  0  0  0  0  0  0  0  0
    3.6490   -0.5995   -0.2215 C   0  0  0  0  0  0  0  0  0  0  0  0
    2.6044    0.3203   -0.3266 C   0  0  0  0  0  0  0  0  0  0  0  0
    1.2732   -0.0875   -0.1361 C   0  0  0  0  0  0  0  0  0  0  0  0
    0.2630    3.5433   -0.4522 H   0  0  0  0  0  0  0  0  0  0  0  0
    0.3929    3.9402    1.2323 H   0  0  0  0  0  0  0  0  0  0  0  0
    0.2427    1.4136   -1.1954 H   0  0  0  0  0  0  0  0  0  0  0  0
   -2.3282    2.0252   -0.7625 H   0  0  0  0  0  0  0  0  0  0  0  0
   -4.5290    0.9128   -0.7400 H   0  0  0  0  0  0  0  0  0  0  0  0
   -4.7019   -1.5020   -0.1963 H   0  0  0  0  0  0  0  0  0  0  0  0
   -2.6546   -2.8045    0.3131 H   0  0  0  0  0  0  0  0  0  0  0  0
    1.8435   -3.3862    0.4933 H   0  0  0  0  0  0  0  0  0  0  0  0
    4.1880   -2.6498    0.1632 H   0  0  0  0  0  0  0  0  0  0  0  0
    4.6766   -0.2743   -0.3632 H   0  0  0  0  0  0  0  0  0  0  0  0
    2.8372    1.3597   -0.5470 H   0  0  0  0  0  0  0  0  0  0  0  0
  1  2  1  0
  2  3  2  0
  2  4  1  0
  4  5  1  0
  5  6  2  0
  6  7  1  0
  7  8  2  0
  8  9  1  0
  9 10  2  0
 10 11  1  0
 11 12  1  0
 12 13  2  0
 13 14  1  0
 14 15  2  0
 15 16  1  0
 16 17  2  0
 17  4  1  0
 10  5  1  0
 17 12  1  0
  1 18  1  0
  1 19  1  0
  4 20  1  0
  6 21  1  0
  7 22  1  0
  8 23  1  0
  9 24  1  0
 13 25  1  0
 14 26  1  0
 15 27  1  0
 16 28  1  0
M  END
$$$$
