
     RDKit          3D

 43 45  0  0  0  0  0  0  0  0999 V2000
    6.1666   -2.5358   -0.0951 C   0  0  0  0  0  0  0  0  0  0  0  0
    5.4759   -1.2168    0.0877 C   0  0  0  0  0  0  0  0  0  0  0  0
    6.2143   -0.0684    0.3918 C   0  0  0  0  0  0  0  0  0  0  0  0
    5.5711    1.1566    0.6002 C   0  0  0  0  0  0  0  0  0  0  0  0
    6.3573    2.3976    0.9082 C   0  0  0  0  0  0  0  0  0  0  0  0
    4.1732    1.2283    0.4951 C   0  0  0  0  0  0  0  0  0  0  0  0
    3.4180    0.0917    0.2018 C   0  0  0  0  0  0  0  0  0  0  0  0
    2.0104    0.0856    0.0962 N   0  0  0  0  0  0  0  0  0  0  0  0
    1.1592    1.1736    0.1544 C   0  0  0  0  0  0  0  0  0  0  0  0
    1.4743    2.3545    0.2376 O   0  0  0  0  0  0  0  0  0  0  0  0
   -0.2910    0.8412    0.0585 C   0  0  0  0  0  0  0  0  0  0  0  0
   -0.8254   -0.3190    0.6278 C   0  0  0  0  0  0  0  0  0  0  0  0
   -2.1957   -0.5921    0.5179 C   0  0  0  0  0  0  0  0  0  0  0  0
   -3.0479    0.2907   -0.1495 C   0  0  0  0  0  0  0  0  0  0  0  0
   -4.4358    0.0908   -0.3070 N   0  0  0  0  0  0  0  0  0  0  0  0
   -5.1986   -0.9876    0.1265 C   0  0  0  0  0  0  0  0  0  0  0  0
   -4.7400   -1.9551    0.7275 O   0  0  0  0  0  0  0  0  0  0  0  0
   -6.6171   -0.8805   -0.1997 C   0  0  0  0  0  0  0  0  0  0  0  0
   -7.3885    0.0787   -0.8395 C   0  0  0  0  0  0  0  0  0  0  0  0
   -8.7234   -0.4001   -0.8484 C   0  0  0  0  0  0  0  0  0  0  0  0
   -8.6956   -1.6193   -0.2179 C   0  0  0  0  0  0  0  0  0  0  0  0
   -7.4346   -1.9180    0.1770 O   0  0  0  0  0  0  0  0  0  0  0  0
   -2.5087    1.4621   -0.6986 C   0  0  0  0  0  0  0  0  0  0  0  0
   -1.1418    1.7390   -0.5923 C   0  0  0  0  0  0  0  0  0  0  0  0
    4.0786   -1.1296    0.0111 C   0  0  0  0  0  0  0  0  0  0  0  0
    7.1713   -2.3974   -0.5087 H   0  0  0  0  0  0  0  0  0  0  0  0
    6.2485   -3.0516    0.8665 H   0  0  0  0  0  0  0  0  0  0  0  0
    5.6138   -3.1731   -0.7929 H   0  0  0  0  0  0  0  0  0  0  0  0
    7.2982   -0.1287    0.4687 H   0  0  0  0  0  0  0  0  0  0  0  0
    7.4050    2.1644    1.1250 H   0  0  0  0  0  0  0  0  0  0  0  0
    5.9436    2.9015    1.7878 H   0  0  0  0  0  0  0  0  0  0  0  0
    6.3288    3.0816    0.0537 H   0  0  0  0  0  0  0  0  0  0  0  0
    3.6965    2.1904    0.6581 H   0  0  0  0  0  0  0  0  0  0  0  0
    1.5954   -0.8117   -0.1168 H   0  0  0  0  0  0  0  0  0  0  0  0
   -0.2027   -1.0102    1.1901 H   0  0  0  0  0  0  0  0  0  0  0  0
   -2.5638   -1.5024    0.9824 H   0  0  0  0  0  0  0  0  0  0  0  0
   -4.9246    0.8206   -0.8038 H   0  0  0  0  0  0  0  0  0  0  0  0
   -7.0486    1.0170   -1.2540 H   0  0  0  0  0  0  0  0  0  0  0  0
   -9.5976    0.0836   -1.2616 H   0  0  0  0  0  0  0  0  0  0  0  0
   -9.4470   -2.3611    0.0192 H   0  0  0  0  0  0  0  0  0  0  0  0
   -3.1396    2.1817   -1.2143 H   0  0  0  0  0  0  0  0  0  0  0  0
   -0.7417    2.6574   -1.0183 H   0  0  0  0  0  0  0  0  0  0  0  0
    3.5093   -2.0298   -0.2070 H   0  0  0  0  0  0  0  0  0  0  0  0
  1  2  1  0
  2  3  2  0
  3  4  1  0
  4  5  1  0
  4  6  2  0
  6  7  1  0
  7  8  1  0
  8  9  1  0
  9 10  2  0
  9 11  1  0
 11 12  2  0
 12 13  1  0
 13 14  2  0
 14 15  1  0
 15 16  1  0
 16 17  2  0
 16 18  1  0
 18 19  2  0
 19 20  1  0
 20 21  2  0
 21 22  1  0
 14 23  1  0
 23 24  2  0
  7 25  2  0
 25  2  1  0
 24 11  1  0
 22 18  1  0
  1 26  1  0
  1 27  1  0
  1 28  1  0
  3 29  1  0
  5 30  1  0
  5 31  1  0
  5 32  1  0
  6 33  1  0
  8 34  1  0
 12 35  1  0
 13 36  1  0
 15 37  1  0
 19 38  1  0
 20 39  1  0
 21 40  1  0
 23 41  1  0
 24 42  1  0
 25 43  1  0
M  END
$$$$
