
     RDKit          3D

 46 48  0  0  0  0  0  0  0  0999 V2000
   -2.1235   -2.0483   -1.9245 C   0  0  0  0  0  0  0  0  0  0  0  0
   -2.1272   -0.5688   -1.5879 C   0  0  0  0  0  0  0  0  0  0  0  0
   -2.6316   -0.3628   -0.1964 N   0  0  0  0  0  4  0  0  0  0  0  0
   -1.7332   -0.2663    0.8302 C   0  0  0  0  0  0  0  0  0  0  0  0
   -0.2954   -0.4647    0.6034 C   0  0  0  0  0  0  0  0  0  0  0  0
    0.5924    0.5351    0.7304 C   0  0  0  0  0  0  0  0  0  0  0  0
    2.0430    0.3729    0.5411 C   0  0  0  0  0  0  0  0  0  0  0  0
    2.5834   -0.4811   -0.4257 C   0  0  0  0  0  0  0  0  0  0  0  0
    3.9686   -0.5847   -0.5916 C   0  0  0  0  0  0  0  0  0  0  0  0
    4.8352    0.1721    0.2006 C   0  0  0  0  0  0  0  0  0  0  0  0
    6.2031    0.1360    0.1085 O   0  0  0  0  0  0  0  0  0  0  0  0
    6.7845   -0.7490   -0.8381 C   0  0  0  0  0  0  0  0  0  0  0  0
    4.3028    1.0479    1.1665 C   0  0  0  0  0  0  0  0  0  0  0  0
    5.2190    1.7608    1.8985 O   0  0  0  0  0  0  0  0  0  0  0  0
    4.7371    2.6540    2.8912 C   0  0  0  0  0  0  0  0  0  0  0  0
    2.9137    1.1449    1.3246 C   0  0  0  0  0  0  0  0  0  0  0  0
   -2.1623   -0.0086    2.1327 C   0  0  0  0  0  0  0  0  0  0  0  0
   -3.5080    0.1526    2.4014 C   0  0  0  0  0  0  0  0  0  0  0  0
   -4.4278    0.0411    1.3668 C   0  0  0  0  0  0  0  0  0  0  0  0
   -5.7955    0.1916    1.6400 C   0  0  0  0  0  0  0  0  0  0  0  0
   -6.7396    0.0744    0.6244 C   0  0  0  0  0  0  0  0  0  0  0  0
   -6.3271   -0.1979   -0.6724 C   0  0  0  0  0  0  0  0  0  0  0  0
   -4.9661   -0.3489   -0.9601 C   0  0  0  0  0  0  0  0  0  0  0  0
   -3.9820   -0.2280    0.0423 C   0  0  0  0  0  0  0  0  0  0  0  0
   -1.7509   -2.2028   -2.9417 H   0  0  0  0  0  0  0  0  0  0  0  0
   -3.1270   -2.4793   -1.8622 H   0  0  0  0  0  0  0  0  0  0  0  0
   -1.4829   -2.6113   -1.2392 H   0  0  0  0  0  0  0  0  0  0  0  0
   -2.7433    0.0120   -2.2798 H   0  0  0  0  0  0  0  0  0  0  0  0
   -1.1246   -0.1428   -1.6829 H   0  0  0  0  0  0  0  0  0  0  0  0
    0.0143   -1.4763    0.3551 H   0  0  0  0  0  0  0  0  0  0  0  0
    0.2737    1.5386    1.0121 H   0  0  0  0  0  0  0  0  0  0  0  0
    1.9463   -1.0740   -1.0757 H   0  0  0  0  0  0  0  0  0  0  0  0
    4.3421   -1.2619   -1.3529 H   0  0  0  0  0  0  0  0  0  0  0  0
    6.4977   -0.4775   -1.8593 H   0  0  0  0  0  0  0  0  0  0  0  0
    7.8719   -0.6539   -0.7617 H   0  0  0  0  0  0  0  0  0  0  0  0
    6.5251   -1.7896   -0.6173 H   0  0  0  0  0  0  0  0  0  0  0  0
    5.6026    3.1243    3.3677 H   0  0  0  0  0  0  0  0  0  0  0  0
    4.1301    3.4487    2.4453 H   0  0  0  0  0  0  0  0  0  0  0  0
    4.1802    2.1185    3.6670 H   0  0  0  0  0  0  0  0  0  0  0  0
    2.4935    1.8172    2.0658 H   0  0  0  0  0  0  0  0  0  0  0  0
   -1.4450    0.0600    2.9500 H   0  0  0  0  0  0  0  0  0  0  0  0
   -3.8283    0.3540    3.4235 H   0  0  0  0  0  0  0  0  0  0  0  0
   -6.1457    0.4003    2.6513 H   0  0  0  0  0  0  0  0  0  0  0  0
   -7.7992    0.1916    0.8481 H   0  0  0  0  0  0  0  0  0  0  0  0
   -7.0692   -0.2960   -1.4640 H   0  0  0  0  0  0  0  0  0  0  0  0
   -4.7245   -0.5739   -1.9942 H   0  0  0  0  0  0  0  0  0  0  0  0
  1  2  1  0
  2  3  1  0
  3  4  2  0
  4  5  1  0
  5  6  2  3
  6  7  1  0
  7  8  2  0
  8  9  1  0
  9 10  2  0
 10 11  1  0
 11 12  1  0
 10 13  1  0
 13 14  1  0
 14 15  1  0
 13 16  2  0
  4 17  1  0
 17 18  2  0
 18 19  1  0
 19 20  2  0
 20 21  1  0
 21 22  2  0
 22 23  1  0
 23 24  2  0
 24  3  1  0
 16  7  1  0
 24 19  1  0
  1 25  1  0
  1 26  1  0
  1 27  1  0
  2 28  1  0
  2 29  1  0
  5 30  1  0
  6 31  1  0
  8 32  1  0
  9 33  1  0
 12 34  1  0
 12 35  1  0
 12 36  1  0
 15 37  1  0
 15 38  1  0
 15 39  1  0
 16 40  1  0
 17 41  1  0
 18 42  1  0
 20 43  1  0
 21 44  1  0
 22 45  1  0
 23 46  1  0
M  CHG  1   3   1
M  END
$$$$
