
     RDKit          3D

 37 40  0  0  0  0  0  0  0  0999 V2000
   -4.3058    2.7183    0.5391 C   0  0  0  0  0  0  0  0  0  0  0  0
   -3.3307    1.6209    0.9264 C   0  0  0  0  0  0  0  0  0  0  0  0
   -2.6393    1.1388   -0.2245 O   0  0  0  0  0  0  0  0  0  0  0  0
   -3.1137    0.0236   -0.8660 C   0  0  0  0  0  0  0  0  0  0  0  0
   -4.3898   -0.5184   -0.6883 C   0  0  0  0  0  0  0  0  0  0  0  0
   -4.7854   -1.6508   -1.4069 C   0  0  0  0  0  0  0  0  0  0  0  0
   -3.9142   -2.2471   -2.3143 C   0  0  0  0  0  0  0  0  0  0  0  0
   -2.6428   -1.7111   -2.5092 C   0  0  0  0  0  0  0  0  0  0  0  0
   -2.2362   -0.5784   -1.7904 C   0  0  0  0  0  0  0  0  0  0  0  0
   -0.8850   -0.0525   -2.0294 C   0  0  0  0  0  0  0  0  0  0  0  0
    0.1639   -0.2311   -1.2150 C   0  0  0  0  0  0  0  0  0  0  0  0
    0.1954   -1.1423    0.2850 S   0  0  0  0  0  0  0  0  0  0  0  0
    1.8474   -0.7321    0.4877 C   0  0  0  0  0  0  0  0  0  0  0  0
    2.7618   -0.9839    1.3792 N   0  0  0  0  0  0  0  0  0  0  0  0
    3.8558   -0.3156    0.8447 C   0  0  0  0  0  0  0  0  0  0  0  0
    5.2482   -0.3069    1.5562 C   0  0  0  0  0  0  0  0  0  0  0  0
    5.5388   -0.9371    2.7513 C   0  0  0  0  0  0  0  0  0  0  0  0
    6.9025   -0.6758    3.0294 C   0  0  0  0  0  0  0  0  0  0  0  0
    7.3610    0.0968    1.9892 C   0  0  0  0  0  0  0  0  0  0  0  0
    6.3683    0.3259    1.0924 O   0  0  0  0  0  0  0  0  0  0  0  0
    3.6287    0.3177   -0.3242 N   0  0  0  0  0  0  0  0  0  0  0  0
    2.3313    0.0278   -0.5149 N   0  0  0  0  0  0  0  0  0  0  0  0
    1.4873    0.3786   -1.5464 C   0  0  0  0  0  0  0  0  0  0  0  0
    1.8190    1.0470   -2.5084 O   0  0  0  0  0  0  0  0  0  0  0  0
   -3.7843    3.5254    0.0138 H   0  0  0  0  0  0  0  0  0  0  0  0
   -4.7924    3.1340    1.4261 H   0  0  0  0  0  0  0  0  0  0  0  0
   -5.0777    2.3464   -0.1409 H   0  0  0  0  0  0  0  0  0  0  0  0
   -2.5693    2.0518    1.5866 H   0  0  0  0  0  0  0  0  0  0  0  0
   -3.8082    0.8206    1.5025 H   0  0  0  0  0  0  0  0  0  0  0  0
   -5.1105   -0.0773   -0.0084 H   0  0  0  0  0  0  0  0  0  0  0  0
   -5.7808   -2.0638   -1.2605 H   0  0  0  0  0  0  0  0  0  0  0  0
   -4.2263   -3.1259   -2.8729 H   0  0  0  0  0  0  0  0  0  0  0  0
   -1.9722   -2.1831   -3.2237 H   0  0  0  0  0  0  0  0  0  0  0  0
   -0.7830    0.5363   -2.9395 H   0  0  0  0  0  0  0  0  0  0  0  0
    4.8422   -1.5144    3.3438 H   0  0  0  0  0  0  0  0  0  0  0  0
    7.4794   -1.0084    3.8808 H   0  0  0  0  0  0  0  0  0  0  0  0
    8.3166    0.5424    1.7496 H   0  0  0  0  0  0  0  0  0  0  0  0
  1  2  1  0
  2  3  1  0
  3  4  1  0
  4  5  2  0
  5  6  1  0
  6  7  2  0
  7  8  1  0
  8  9  2  0
  9 10  1  0
 10 11  2  3
 11 12  1  0
 12 13  1  0
 13 14  2  0
 14 15  1  0
 15 16  1  0
 16 17  2  0
 17 18  1  0
 18 19  2  0
 19 20  1  0
 15 21  2  0
 21 22  1  0
 22 23  1  0
 23 24  2  0
  9  4  1  0
 23 11  1  0
 22 13  1  0
 20 16  1  0
  1 25  1  0
  1 26  1  0
  1 27  1  0
  2 28  1  0
  2 29  1  0
  5 30  1  0
  6 31  1  0
  7 32  1  0
  8 33  1  0
 10 34  1  0
 17 35  1  0
 18 36  1  0
 19 37  1  0
M  END
$$$$
