
     RDKit          3D

 40 42  0  0  0  0  0  0  0  0999 V2000
    4.6160    0.1089   -0.9503 N   0  0  0  0  0  0  0  0  0  0  0  0
    4.1405   -1.0032   -0.1377 C   0  0  0  0  0  0  0  0  0  0  0  0
    3.0063   -0.5721    0.7923 C   0  0  0  0  0  0  0  0  0  0  0  0
    1.7369   -0.1626    0.0370 C   0  0  0  0  0  0  0  0  0  0  0  0
    0.6320    0.2609    1.0163 C   0  0  0  0  0  0  0  0  0  0  0  0
   -0.6342    0.5838    0.3184 N   0  0  0  0  0  0  0  0  0  0  0  0
   -0.8515    1.9496   -0.0302 C   0  0  0  0  0  0  0  0  0  0  0  0
    0.2032    2.8892   -0.0901 C   0  0  0  0  0  0  0  0  0  0  0  0
    0.0026    4.2293   -0.4441 C   0  0  0  0  0  0  0  0  0  0  0  0
   -1.2683    4.6798   -0.7564 C   0  0  0  0  0  0  0  0  0  0  0  0
   -2.3306    3.7849   -0.7162 C   0  0  0  0  0  0  0  0  0  0  0  0
   -2.1327    2.4346   -0.3635 C   0  0  0  0  0  0  0  0  0  0  0  0
   -3.6001    1.4331   -0.3346 S   0  0  0  0  0  0  0  0  0  0  0  0
   -2.9365   -0.2027   -0.1383 C   0  0  0  0  0  0  0  0  0  0  0  0
   -3.8644   -1.2516   -0.2889 C   0  0  0  0  0  0  0  0  0  0  0  0
   -3.4809   -2.5801   -0.1382 C   0  0  0  0  0  0  0  0  0  0  0  0
   -2.1578   -2.8827    0.1726 C   0  0  0  0  0  0  0  0  0  0  0  0
   -1.7044   -4.3147    0.3110 C   0  0  0  0  0  0  0  0  0  0  0  0
   -0.6993   -4.4680    1.2189 F   0  0  0  0  0  0  0  0  0  0  0  0
   -1.2306   -4.8241   -0.8588 F   0  0  0  0  0  0  0  0  0  0  0  0
   -2.6970   -5.1567    0.7127 F   0  0  0  0  0  0  0  0  0  0  0  0
   -1.2345   -1.8272    0.3152 C   0  0  0  0  0  0  0  0  0  0  0  0
   -1.5888   -0.4646    0.1772 C   0  0  0  0  0  0  0  0  0  0  0  0
    5.3685   -0.2141   -1.5581 H   0  0  0  0  0  0  0  0  0  0  0  0
    5.0252    0.8246   -0.3510 H   0  0  0  0  0  0  0  0  0  0  0  0
    4.9731   -1.3918    0.4589 H   0  0  0  0  0  0  0  0  0  0  0  0
    3.8005   -1.8124   -0.7930 H   0  0  0  0  0  0  0  0  0  0  0  0
    3.3431    0.2553    1.4297 H   0  0  0  0  0  0  0  0  0  0  0  0
    2.7704   -1.4092    1.4611 H   0  0  0  0  0  0  0  0  0  0  0  0
    1.9597    0.6539   -0.6572 H   0  0  0  0  0  0  0  0  0  0  0  0
    1.4019   -0.9993   -0.5861 H   0  0  0  0  0  0  0  0  0  0  0  0
    0.4724   -0.5210    1.7705 H   0  0  0  0  0  0  0  0  0  0  0  0
    0.9731    1.1064    1.6282 H   0  0  0  0  0  0  0  0  0  0  0  0
    1.2295    2.6057    0.1183 H   0  0  0  0  0  0  0  0  0  0  0  0
    0.8478    4.9120   -0.4800 H   0  0  0  0  0  0  0  0  0  0  0  0
   -1.4344    5.7169   -1.0331 H   0  0  0  0  0  0  0  0  0  0  0  0
   -3.3270    4.1462   -0.9635 H   0  0  0  0  0  0  0  0  0  0  0  0
   -4.9039   -1.0319   -0.5282 H   0  0  0  0  0  0  0  0  0  0  0  0
   -4.2184   -3.3705   -0.2656 H   0  0  0  0  0  0  0  0  0  0  0  0
   -0.2076   -2.1147    0.5246 H   0  0  0  0  0  0  0  0  0  0  0  0
  1  2  1  0
  2  3  1  0
  3  4  1  0
  4  5  1  0
  5  6  1  0
  6  7  1  0
  7  8  2  0
  8  9  1  0
  9 10  2  0
 10 11  1  0
 11 12  2  0
 12 13  1  0
 13 14  1  0
 14 15  2  0
 15 16  1  0
 16 17  2  0
 17 18  1  0
 18 19  1  0
 18 20  1  0
 18 21  1  0
 17 22  1  0
 22 23  2  0
 23  6  1  0
 12  7  1  0
 23 14  1  0
  1 24  1  0
  1 25  1  0
  2 26  1  0
  2 27  1  0
  3 28  1  0
  3 29  1  0
  4 30  1  0
  4 31  1  0
  5 32  1  0
  5 33  1  0
  8 34  1  0
  9 35  1  0
 10 36  1  0
 11 37  1  0
 15 38  1  0
 16 39  1  0
 22 40  1  0
M  END
$$$$
