
     RDKit          3D

 49 51  0  0  0  0  0  0  0  0999 V2000
    2.7520    0.0059   -3.0558 O   0  0  0  0  0  0  0  0  0  0  0  0
    2.3997   -1.0098   -2.4718 C   0  0  0  0  0  0  0  0  0  0  0  0
    3.1643   -2.1269   -2.2374 N   0  0  0  0  0  0  0  0  0  0  0  0
    4.5760   -2.1669   -2.5156 C   0  0  0  0  0  0  0  0  0  0  0  0
    5.3764   -1.8732   -1.2741 C   0  0  0  0  0  0  0  0  0  0  0  0
    5.8339   -2.9142   -0.4538 C   0  0  0  0  0  0  0  0  0  0  0  0
    6.5563   -2.6341    0.7076 C   0  0  0  0  0  0  0  0  0  0  0  0
    6.8214   -1.3130    1.0639 C   0  0  0  0  0  0  0  0  0  0  0  0
    6.3624   -0.2699    0.2619 C   0  0  0  0  0  0  0  0  0  0  0  0
    5.6407   -0.5476   -0.8998 C   0  0  0  0  0  0  0  0  0  0  0  0
    0.9658   -1.1150   -1.9037 C   0  0  0  0  0  0  0  0  0  0  0  0
    0.6298   -2.1023   -1.2644 O   0  0  0  0  0  0  0  0  0  0  0  0
    0.1786   -0.0248   -2.1984 N   0  0  0  0  0  0  0  0  0  0  0  0
   -1.1279    0.1716   -1.5923 C   0  0  0  0  0  0  0  0  0  0  0  0
   -1.0661    0.9687   -0.2593 C   0  0  0  0  0  0  0  0  0  0  0  0
   -0.1799    0.3242    0.6741 O   0  0  0  0  0  0  0  0  0  0  0  0
   -0.9869   -0.6142    1.3911 C   0  0  0  0  0  0  0  0  0  0  0  0
   -2.3345    0.0650    1.5328 C   0  0  0  0  0  0  0  0  0  0  0  0
   -2.3415    1.0820    0.4689 N   0  0  0  0  0  0  0  0  0  0  0  0
   -3.7364    1.3440   -0.4124 S   0  0  0  0  0  6  0  0  0  0  0  0
   -4.1866    0.0610   -0.9071 O   0  0  0  0  0  0  0  0  0  0  0  0
   -3.4920    2.4496   -1.3124 O   0  0  0  0  0  0  0  0  0  0  0  0
   -4.8750    1.9029    0.8290 C   0  0  0  0  0  0  0  0  0  0  0  0
   -4.6784    3.1595    1.4118 C   0  0  0  0  0  0  0  0  0  0  0  0
   -5.5687    3.6117    2.3870 C   0  0  0  0  0  0  0  0  0  0  0  0
   -6.6467    2.8096    2.7651 C   0  0  0  0  0  0  0  0  0  0  0  0
   -7.8509    3.4237    4.0869 Br  0  0  0  0  0  0  0  0  0  0  0  0
   -6.8469    1.5595    2.1761 C   0  0  0  0  0  0  0  0  0  0  0  0
   -5.9592    1.1020    1.2002 C   0  0  0  0  0  0  0  0  0  0  0  0
    2.7564   -2.8248   -1.6223 H   0  0  0  0  0  0  0  0  0  0  0  0
    4.8085   -3.1695   -2.8912 H   0  0  0  0  0  0  0  0  0  0  0  0
    4.8307   -1.4553   -3.3094 H   0  0  0  0  0  0  0  0  0  0  0  0
    5.6306   -3.9505   -0.7141 H   0  0  0  0  0  0  0  0  0  0  0  0
    6.9103   -3.4469    1.3365 H   0  0  0  0  0  0  0  0  0  0  0  0
    7.3823   -1.0957    1.9691 H   0  0  0  0  0  0  0  0  0  0  0  0
    6.5625    0.7610    0.5421 H   0  0  0  0  0  0  0  0  0  0  0  0
    5.2789    0.2760   -1.5134 H   0  0  0  0  0  0  0  0  0  0  0  0
    0.6445    0.7464   -2.6707 H   0  0  0  0  0  0  0  0  0  0  0  0
   -1.7307    0.7014   -2.3352 H   0  0  0  0  0  0  0  0  0  0  0  0
   -1.5780   -0.8138   -1.4298 H   0  0  0  0  0  0  0  0  0  0  0  0
   -0.6586    1.9680   -0.4464 H   0  0  0  0  0  0  0  0  0  0  0  0
   -1.0631   -1.5406    0.8127 H   0  0  0  0  0  0  0  0  0  0  0  0
   -0.5268   -0.8443    2.3560 H   0  0  0  0  0  0  0  0  0  0  0  0
   -3.1491   -0.6603    1.4637 H   0  0  0  0  0  0  0  0  0  0  0  0
   -2.4070    0.5772    2.4981 H   0  0  0  0  0  0  0  0  0  0  0  0
   -3.8400    3.7841    1.1098 H   0  0  0  0  0  0  0  0  0  0  0  0
   -5.4171    4.5878    2.8415 H   0  0  0  0  0  0  0  0  0  0  0  0
   -7.6916    0.9394    2.4668 H   0  0  0  0  0  0  0  0  0  0  0  0
   -6.1225    0.1312    0.7370 H   0  0  0  0  0  0  0  0  0  0  0  0
  1  2  2  0
  2  3  1  0
  3  4  1  0
  4  5  1  0
  5  6  2  0
  6  7  1  0
  7  8  2  0
  8  9  1  0
  9 10  2  0
  2 11  1  0
 11 12  2  0
 11 13  1  0
 13 14  1  0
 14 15  1  0
 15 16  1  0
 16 17  1  0
 17 18  1  0
 18 19  1  0
 19 20  1  0
 20 21  2  0
 20 22  2  0
 20 23  1  0
 23 24  2  0
 24 25  1  0
 25 26  2  0
 26 27  1  0
 26 28  1  0
 28 29  2  0
 10  5  1  0
 19 15  1  0
 29 23  1  0
  3 30  1  0
  4 31  1  0
  4 32  1  0
  6 33  1  0
  7 34  1  0
  8 35  1  0
  9 36  1  0
 10 37  1  0
 13 38  1  0
 14 39  1  0
 14 40  1  0
 15 41  1  0
 17 42  1  0
 17 43  1  0
 18 44  1  0
 18 45  1  0
 24 46  1  0
 25 47  1  0
 28 48  1  0
 29 49  1  0
M  END
$$$$
