
     RDKit          3D

 88 93  0  0  0  0  0  0  0  0999 V2000
    2.2885    0.9935   -2.0317 C   0  0  0  0  0  0  0  0  0  0  0  0
    2.1237   -0.1901   -1.1291 C   0  0  0  0  0  0  0  0  0  0  0  0
    2.3090   -1.3487   -1.4712 O   0  0  0  0  0  0  0  0  0  0  0  0
    1.7530    0.2185    0.1144 O   0  0  0  0  0  0  0  0  0  0  0  0
    1.6857   -0.8073    1.1176 C   0  0  1  0  0  0  0  0  0  0  0  0
    1.9202   -0.1893    2.5056 C   0  0  1  0  0  0  0  0  0  0  0  0
    3.0722    0.8081    2.5705 C   0  0  0  0  0  0  0  0  0  0  0  0
    4.2707    0.1376    2.1574 O   0  0  0  0  0  0  0  0  0  0  0  0
    5.3762    0.9224    2.1405 C   0  0  0  0  0  0  0  0  0  0  0  0
    5.4148    2.1024    2.4485 O   0  0  0  0  0  0  0  0  0  0  0  0
    6.5639    0.1460    1.6918 C   0  0  0  0  0  0  0  0  0  0  0  0
    6.4775   -1.1914    1.2805 C   0  0  0  0  0  0  0  0  0  0  0  0
    7.6253   -1.8741    0.8696 C   0  0  0  0  0  0  0  0  0  0  0  0
    8.8609   -1.2278    0.8657 C   0  0  0  0  0  0  0  0  0  0  0  0
    8.9539    0.1029    1.2708 C   0  0  0  0  0  0  0  0  0  0  0  0
    7.8094    0.7892    1.6821 C   0  0  0  0  0  0  0  0  0  0  0  0
    0.5629    0.4230    2.9155 C   0  0  0  0  0  0  0  0  0  0  0  0
   -0.5278   -0.1999    1.9794 C   0  0  2  0  0  0  0  0  0  0  0  0
   -0.8893    0.8023    1.0139 O   0  0  0  0  0  0  0  0  0  0  0  0
   -1.5800    1.8777    1.4700 C   0  0  0  0  0  0  0  0  0  0  0  0
   -1.9227    2.0732    2.6254 O   0  0  0  0  0  0  0  0  0  0  0  0
   -1.9007    2.8327    0.3896 C   0  0  0  0  0  0  0  0  0  0  0  0
   -1.4840    2.7081   -0.8798 C   0  0  0  0  0  0  0  0  0  0  0  0
   -1.8191    3.6450   -1.9631 C   0  0  0  0  0  0  0  0  0  0  0  0
   -2.0525    5.0095   -1.7433 C   0  0  0  0  0  0  0  0  0  0  0  0
   -2.3492    5.8625   -2.8102 C   0  0  0  0  0  0  0  0  0  0  0  0
   -2.4034    5.3648   -4.1097 C   0  0  0  0  0  0  0  0  0  0  0  0
   -2.1540    4.0152   -4.3450 C   0  0  0  0  0  0  0  0  0  0  0  0
   -1.8578    3.1622   -3.2786 C   0  0  0  0  0  0  0  0  0  0  0  0
   -1.6887   -0.8703    2.7685 C   0  0  0  0  0  0  0  0  0  0  0  0
   -1.4259   -1.4925    3.8094 O   0  0  0  0  0  0  0  0  0  0  0  0
   -3.1513   -0.7893    2.3533 C   0  0  0  0  0  0  0  0  0  0  0  0
   -4.0213   -0.7594    3.6003 C   0  0  0  0  0  0  0  0  0  0  0  0
   -3.7798   -0.7544    1.1548 C   0  0  0  0  0  0  0  0  0  0  0  0
   -3.3569   -0.7815   -0.2605 C   0  0  0  0  0  0  0  0  0  0  0  0
   -3.3715   -2.0559   -1.0982 C   0  0  2  0  0  0  0  0  0  0  0  0
   -2.3198   -2.3510   -2.1519 C   0  0  0  0  0  0  0  0  0  0  0  0
   -1.3246   -3.4744   -1.7892 C   0  0  0  0  0  0  0  0  0  0  0  0
   -0.4855   -3.2500   -0.5451 C   0  0  2  0  0  0  0  0  0  0  0  0
    0.5464   -4.2836   -0.2340 C   0  0  0  0  0  0  0  0  0  0  0  0
   -1.3191   -2.9049    0.5457 O   0  0  0  0  0  0  0  0  0  0  0  0
   -0.4098   -1.8727    0.1043 C   0  0  1  0  0  0  0  0  0  0  0  0
    0.2801   -1.3621    1.3118 C   0  0  1  0  0  0  0  0  0  0  0  0
   -4.4206   -0.9867   -1.3500 C   0  0  0  0  0  0  0  0  0  0  0  0
   -5.8464   -1.3810   -1.0328 C   0  0  0  0  0  0  0  0  0  0  0  0
   -4.3257   -0.0860   -2.5606 C   0  0  0  0  0  0  0  0  0  0  0  0
    1.3773    1.5957   -2.0309 H   0  0  0  0  0  0  0  0  0  0  0  0
    2.4688    0.6465   -3.0540 H   0  0  0  0  0  0  0  0  0  0  0  0
    3.1437    1.5901   -1.7043 H   0  0  0  0  0  0  0  0  0  0  0  0
    2.4216   -1.5968    0.9215 H   0  0  0  0  0  0  0  0  0  0  0  0
    2.1436   -1.0153    3.1971 H   0  0  0  0  0  0  0  0  0  0  0  0
    2.8863    1.6689    1.9175 H   0  0  0  0  0  0  0  0  0  0  0  0
    3.1948    1.1642    3.6002 H   0  0  0  0  0  0  0  0  0  0  0  0
    5.5253   -1.7158    1.2719 H   0  0  0  0  0  0  0  0  0  0  0  0
    7.5534   -2.9114    0.5518 H   0  0  0  0  0  0  0  0  0  0  0  0
    9.7533   -1.7617    0.5469 H   0  0  0  0  0  0  0  0  0  0  0  0
    9.9171    0.6072    1.2677 H   0  0  0  0  0  0  0  0  0  0  0  0
    7.8932    1.8278    1.9967 H   0  0  0  0  0  0  0  0  0  0  0  0
    0.3768    0.2109    3.9740 H   0  0  0  0  0  0  0  0  0  0  0  0
    0.6099    1.5133    2.8166 H   0  0  0  0  0  0  0  0  0  0  0  0
   -2.5258    3.6566    0.7167 H   0  0  0  0  0  0  0  0  0  0  0  0
   -0.8764    1.8563   -1.1750 H   0  0  0  0  0  0  0  0  0  0  0  0
   -1.9984    5.4342   -0.7441 H   0  0  0  0  0  0  0  0  0  0  0  0
   -2.5351    6.9175   -2.6255 H   0  0  0  0  0  0  0  0  0  0  0  0
   -2.6349    6.0294   -4.9382 H   0  0  0  0  0  0  0  0  0  0  0  0
   -2.1889    3.6256   -5.3590 H   0  0  0  0  0  0  0  0  0  0  0  0
   -1.6643    2.1131   -3.4892 H   0  0  0  0  0  0  0  0  0  0  0  0
   -3.6448   -0.0201    4.3157 H   0  0  0  0  0  0  0  0  0  0  0  0
   -5.0593   -0.4871    3.3853 H   0  0  0  0  0  0  0  0  0  0  0  0
   -4.0329   -1.7414    4.0838 H   0  0  0  0  0  0  0  0  0  0  0  0
   -4.8635   -0.6689    1.2445 H   0  0  0  0  0  0  0  0  0  0  0  0
   -2.6229   -0.0252   -0.5011 H   0  0  0  0  0  0  0  0  0  0  0  0
   -3.7087   -2.9724   -0.6212 H   0  0  0  0  0  0  0  0  0  0  0  0
   -2.8443   -2.6617   -3.0644 H   0  0  0  0  0  0  0  0  0  0  0  0
   -1.7631   -1.4437   -2.4134 H   0  0  0  0  0  0  0  0  0  0  0  0
   -0.6484   -3.6174   -2.6407 H   0  0  0  0  0  0  0  0  0  0  0  0
   -1.8808   -4.4119   -1.6645 H   0  0  0  0  0  0  0  0  0  0  0  0
    1.3170   -4.2926   -1.0110 H   0  0  0  0  0  0  0  0  0  0  0  0
    0.0904   -5.2784   -0.1911 H   0  0  0  0  0  0  0  0  0  0  0  0
    1.0415   -4.1036    0.7258 H   0  0  0  0  0  0  0  0  0  0  0  0
   -0.7099   -1.0625   -0.5420 H   0  0  0  0  0  0  0  0  0  0  0  0
    0.3712   -2.1878    2.0358 H   0  0  0  0  0  0  0  0  0  0  0  0
   -6.4237   -0.5040   -0.7210 H   0  0  0  0  0  0  0  0  0  0  0  0
   -6.3262   -1.8071   -1.9208 H   0  0  0  0  0  0  0  0  0  0  0  0
   -5.9092   -2.1331   -0.2389 H   0  0  0  0  0  0  0  0  0  0  0  0
   -3.3040    0.2543   -2.7532 H   0  0  0  0  0  0  0  0  0  0  0  0
   -4.6814   -0.6101   -3.4536 H   0  0  0  0  0  0  0  0  0  0  0  0
   -4.9451    0.8056   -2.4161 H   0  0  0  0  0  0  0  0  0  0  0  0
  1  2  1  0
  2  3  2  0
  2  4  1  0
  4  5  1  0
  5  6  1  0
  6  7  1  0
  7  8  1  0
  8  9  1  0
  9 10  2  0
  9 11  1  0
 11 12  2  0
 12 13  1  0
 13 14  2  0
 14 15  1  0
 15 16  2  0
  6 17  1  0
 17 18  1  0
 18 19  1  6
 19 20  1  0
 20 21  2  0
 20 22  1  0
 22 23  2  0
 23 24  1  0
 24 25  2  0
 25 26  1  0
 26 27  2  0
 27 28  1  0
 28 29  2  0
 18 30  1  0
 30 31  2  0
 30 32  1  0
 32 33  1  0
 32 34  2  3
 34 35  1  0
 35 36  1  0
 36 37  1  0
 37 38  1  0
 38 39  1  0
 39 40  1  1
 39 41  1  0
 41 42  1  0
 42 43  1  0
 36 44  1  0
 44 45  1  0
 44 46  1  0
 43  5  1  0
 16 11  1  0
 43 18  1  0
 29 24  1  0
 44 35  1  0
 42 39  1  0
  1 47  1  0
  1 48  1  0
  1 49  1  0
  5 50  1  6
  6 51  1  1
  7 52  1  0
  7 53  1  0
 12 54  1  0
 13 55  1  0
 14 56  1  0
 15 57  1  0
 16 58  1  0
 17 59  1  0
 17 60  1  0
 22 61  1  0
 23 62  1  0
 25 63  1  0
 26 64  1  0
 27 65  1  0
 28 66  1  0
 29 67  1  0
 33 68  1  0
 33 69  1  0
 33 70  1  0
 34 71  1  0
 35 72  1  0
 36 73  1  1
 37 74  1  0
 37 75  1  0
 38 76  1  0
 38 77  1  0
 40 78  1  0
 40 79  1  0
 40 80  1  0
 42 81  1  6
 43 82  1  1
 45 83  1  0
 45 84  1  0
 45 85  1  0
 46 86  1  0
 46 87  1  0
 46 88  1  0
M  END
$$$$
