
     RDKit          3D

 54 57  0  0  0  0  0  0  0  0999 V2000
   -4.4571    4.2360    0.1108 C   0  0  0  0  0  0  0  0  0  0  0  0
   -4.6347    2.7491    0.1940 C   0  0  0  0  0  0  0  0  0  0  0  0
   -5.8358    2.2003    0.6419 C   0  0  0  0  0  0  0  0  0  0  0  0
   -5.9826    0.8169    0.7425 C   0  0  0  0  0  0  0  0  0  0  0  0
   -4.9246   -0.0495    0.4168 C   0  0  0  0  0  0  0  0  0  0  0  0
   -5.1481   -1.5342    0.5432 C   0  0  0  0  0  0  0  0  0  0  0  0
   -3.6963    0.4857   -0.0360 C   0  0  0  0  0  0  0  0  0  0  0  0
   -2.5478   -0.3628   -0.4029 C   0  0  0  0  0  0  0  0  0  0  0  0
   -1.3015   -0.1989    0.1731 C   0  0  0  0  0  0  0  0  0  0  0  0
   -0.2700   -1.0338   -0.2502 C   0  0  0  0  0  0  0  0  0  0  0  0
    1.0528   -0.7887    0.3536 C   0  0  0  0  0  0  0  0  0  0  0  0
    1.2124   -1.0631    1.5356 O   0  0  0  0  0  0  0  0  0  0  0  0
    1.9844   -0.2934   -0.5326 N   0  0  0  0  0  0  0  0  0  0  0  0
    3.2486    0.1007   -0.1573 C   0  0  0  0  0  0  0  0  0  0  0  0
    4.3567    0.0226   -1.4391 S   0  0  0  0  0  0  0  0  0  0  0  0
    5.6674    0.4261   -0.4202 C   0  0  0  0  0  0  0  0  0  0  0  0
    7.0502    0.4743   -0.9841 C   0  0  0  0  0  0  0  0  0  0  0  0
    5.2510    0.7144    0.8722 C   0  0  0  0  0  0  0  0  0  0  0  0
    6.1517    1.1795    1.9757 C   0  0  0  0  0  0  0  0  0  0  0  0
    3.8123    0.5532    1.0173 C   0  0  0  0  0  0  0  0  0  0  0  0
    3.0468    0.9058    2.2052 C   0  0  0  0  0  0  0  0  0  0  0  0
    3.3839    0.2051    3.3299 N   0  0  0  0  0  0  0  0  0  0  0  0
    2.1741    1.7666    2.2181 O   0  0  0  0  0  0  0  0  0  0  0  0
   -0.4836   -2.0445   -1.2093 C   0  0  0  0  0  0  0  0  0  0  0  0
    0.4977   -2.9699   -1.6483 C   0  0  0  0  0  0  0  0  0  0  0  0
    0.1952   -3.9310   -2.6106 C   0  0  0  0  0  0  0  0  0  0  0  0
   -1.0859   -3.9861   -3.1405 C   0  0  0  0  0  0  0  0  0  0  0  0
   -2.0581   -3.0860   -2.6975 C   0  0  0  0  0  0  0  0  0  0  0  0
   -1.7844   -2.1207   -1.7378 C   0  0  0  0  0  0  0  0  0  0  0  0
   -2.7777   -1.3014   -1.3540 N   0  0  0  0  0  0  0  0  0  0  0  0
   -3.5758    1.8895   -0.1300 C   0  0  0  0  0  0  0  0  0  0  0  0
   -4.0171    4.6131    1.0391 H   0  0  0  0  0  0  0  0  0  0  0  0
   -5.4164    4.7381   -0.0541 H   0  0  0  0  0  0  0  0  0  0  0  0
   -3.8032    4.5033   -0.7262 H   0  0  0  0  0  0  0  0  0  0  0  0
   -6.6693    2.8443    0.9125 H   0  0  0  0  0  0  0  0  0  0  0  0
   -6.9339    0.4142    1.0845 H   0  0  0  0  0  0  0  0  0  0  0  0
   -6.0329   -1.7513    1.1520 H   0  0  0  0  0  0  0  0  0  0  0  0
   -4.3002   -2.0178    1.0388 H   0  0  0  0  0  0  0  0  0  0  0  0
   -5.3027   -1.9797   -0.4442 H   0  0  0  0  0  0  0  0  0  0  0  0
   -1.1265    0.5565    0.9342 H   0  0  0  0  0  0  0  0  0  0  0  0
    1.8122   -0.3606   -1.5282 H   0  0  0  0  0  0  0  0  0  0  0  0
    7.1063    0.0452   -1.9900 H   0  0  0  0  0  0  0  0  0  0  0  0
    7.3985    1.5108   -1.0390 H   0  0  0  0  0  0  0  0  0  0  0  0
    7.7401   -0.0889   -0.3470 H   0  0  0  0  0  0  0  0  0  0  0  0
    7.1169    1.5257    1.5934 H   0  0  0  0  0  0  0  0  0  0  0  0
    5.6997    2.0139    2.5215 H   0  0  0  0  0  0  0  0  0  0  0  0
    6.3384    0.3607    2.6779 H   0  0  0  0  0  0  0  0  0  0  0  0
    2.6821    0.2717    4.0554 H   0  0  0  0  0  0  0  0  0  0  0  0
    3.7714   -0.7178    3.1865 H   0  0  0  0  0  0  0  0  0  0  0  0
    1.5022   -2.9611   -1.2290 H   0  0  0  0  0  0  0  0  0  0  0  0
    0.9543   -4.6375   -2.9378 H   0  0  0  0  0  0  0  0  0  0  0  0
   -1.3388   -4.7310   -3.8907 H   0  0  0  0  0  0  0  0  0  0  0  0
   -3.0635   -3.1421   -3.1103 H   0  0  0  0  0  0  0  0  0  0  0  0
   -2.6391    2.3231   -0.4790 H   0  0  0  0  0  0  0  0  0  0  0  0
  1  2  1  0
  2  3  2  0
  3  4  1  0
  4  5  2  0
  5  6  1  0
  5  7  1  0
  7  8  1  0
  8  9  2  0
  9 10  1  0
 10 11  1  0
 11 12  2  0
 11 13  1  0
 13 14  1  0
 14 15  1  0
 15 16  1  0
 16 17  1  0
 16 18  2  0
 18 19  1  0
 18 20  1  0
 20 21  1  0
 21 22  1  0
 21 23  2  0
 10 24  2  0
 24 25  1  0
 25 26  2  0
 26 27  1  0
 27 28  2  0
 28 29  1  0
 29 30  2  0
  7 31  2  0
 31  2  1  0
 30  8  1  0
 20 14  2  0
 29 24  1  0
  1 32  1  0
  1 33  1  0
  1 34  1  0
  3 35  1  0
  4 36  1  0
  6 37  1  0
  6 38  1  0
  6 39  1  0
  9 40  1  0
 13 41  1  0
 17 42  1  0
 17 43  1  0
 17 44  1  0
 19 45  1  0
 19 46  1  0
 19 47  1  0
 22 48  1  0
 22 49  1  0
 25 50  1  0
 26 51  1  0
 27 52  1  0
 28 53  1  0
 31 54  1  0
M  END
$$$$
