
     RDKit          3D

 29 30  0  0  0  0  0  0  0  0999 V2000
    3.8603    1.3371    0.1167 C   0  0  0  0  0  0  0  0  0  0  0  0
    3.1755    0.1507   -0.5373 C   0  0  0  0  0  0  0  0  0  0  0  0
    2.8055   -0.8148    0.4980 N   0  0  0  0  0  0  0  0  0  0  0  0
    1.6695   -1.9951    0.1176 S   0  0  0  0  0  6  0  0  0  0  0  0
    1.7938   -2.2988   -1.2904 O   0  0  0  0  0  0  0  0  0  0  0  0
    1.7991   -3.0172    1.1328 O   0  0  0  0  0  0  0  0  0  0  0  0
    0.1448   -1.1394    0.4045 C   0  0  0  0  0  0  0  0  0  0  0  0
   -0.2744   -0.9197    1.7306 C   0  0  0  0  0  0  0  0  0  0  0  0
   -1.4724   -0.2495    1.9822 C   0  0  0  0  0  0  0  0  0  0  0  0
   -2.2285    0.1618    0.8966 C   0  0  0  0  0  0  0  0  0  0  0  0
   -1.8222   -0.0813   -0.4148 C   0  0  0  0  0  0  0  0  0  0  0  0
   -0.6271   -0.7192   -0.6835 C   0  0  0  0  0  0  0  0  0  0  0  0
   -2.7043    0.4453   -1.3923 N   0  0  0  0  0  0  0  0  0  0  0  0
   -3.8855    0.8474   -0.5977 C   0  0  0  0  0  0  0  0  0  0  0  0
   -3.4899    0.9499    0.8850 C   0  0  0  0  0  0  0  0  0  0  0  0
    4.1506    2.0743   -0.6382 H   0  0  0  0  0  0  0  0  0  0  0  0
    4.7616    1.0243    0.6545 H   0  0  0  0  0  0  0  0  0  0  0  0
    3.1948    1.8261    0.8362 H   0  0  0  0  0  0  0  0  0  0  0  0
    3.8613   -0.3219   -1.2477 H   0  0  0  0  0  0  0  0  0  0  0  0
    2.2903    0.5005   -1.0772 H   0  0  0  0  0  0  0  0  0  0  0  0
    3.5368   -1.1747    1.1101 H   0  0  0  0  0  0  0  0  0  0  0  0
    0.3369   -1.2641    2.5623 H   0  0  0  0  0  0  0  0  0  0  0  0
   -1.7956   -0.0545    2.9997 H   0  0  0  0  0  0  0  0  0  0  0  0
   -0.3156   -0.8998   -1.7071 H   0  0  0  0  0  0  0  0  0  0  0  0
   -2.2540    1.2425   -1.8401 H   0  0  0  0  0  0  0  0  0  0  0  0
   -4.3009    1.7913   -0.9671 H   0  0  0  0  0  0  0  0  0  0  0  0
   -4.6600    0.0801   -0.7238 H   0  0  0  0  0  0  0  0  0  0  0  0
   -3.2897    1.9892    1.1650 H   0  0  0  0  0  0  0  0  0  0  0  0
   -4.2608    0.5293    1.5366 H   0  0  0  0  0  0  0  0  0  0  0  0
  1  2  1  0
  2  3  1  0
  3  4  1  0
  4  5  2  0
  4  6  2  0
  4  7  1  0
  7  8  2  0
  8  9  1  0
  9 10  2  0
 10 11  1  0
 11 12  2  0
 11 13  1  0
 13 14  1  0
 14 15  1  0
 12  7  1  0
 15 10  1  0
  1 16  1  0
  1 17  1  0
  1 18  1  0
  2 19  1  0
  2 20  1  0
  3 21  1  0
  8 22  1  0
  9 23  1  0
 12 24  1  0
 13 25  1  0
 14 26  1  0
 14 27  1  0
 15 28  1  0
 15 29  1  0
M  END
$$$$
