
     RDKit          3D

 40 41  0  0  0  0  0  0  0  0999 V2000
    5.1832   -1.9095   -4.4608 C   0  0  0  0  0  0  0  0  0  0  0  0
    5.4304   -0.4117   -4.3475 C   0  0  0  0  0  0  0  0  0  0  0  0
    4.1358    0.3873   -4.2104 C   0  0  0  0  0  0  0  0  0  0  0  0
    3.4810    0.2690   -2.8397 C   0  0  0  0  0  0  0  0  0  0  0  0
    4.0287   -0.2891   -1.8968 O   0  0  0  0  0  0  0  0  0  0  0  0
    2.2381    0.8841   -2.8215 N   0  0  0  0  0  0  0  0  0  0  0  0
    1.3444    0.9854   -1.7360 C   0  0  0  0  0  0  0  0  0  0  0  0
    0.1375    1.6579   -1.9634 C   0  0  0  0  0  0  0  0  0  0  0  0
   -0.8040    1.8021   -0.9387 C   0  0  0  0  0  0  0  0  0  0  0  0
   -0.5553    1.2678    0.3298 C   0  0  0  0  0  0  0  0  0  0  0  0
   -1.5874    1.4501    1.3878 C   0  0  0  0  0  0  0  0  0  0  0  0
   -2.4471    2.3225    1.2844 O   0  0  0  0  0  0  0  0  0  0  0  0
   -1.5436    0.5751    2.4573 N   0  0  0  0  0  0  0  0  0  0  0  0
   -2.6476    0.5897    3.3307 N   0  0  0  0  0  0  0  0  0  0  0  0
   -3.1580   -0.6268    3.7552 C   0  0  0  0  0  0  0  0  0  0  0  0
   -2.5252   -1.6689    3.5686 O   0  0  0  0  0  0  0  0  0  0  0  0
   -4.4601   -0.5892    4.4055 C   0  0  0  0  0  0  0  0  0  0  0  0
   -5.1620   -1.6701    4.9095 C   0  0  0  0  0  0  0  0  0  0  0  0
   -6.4116   -1.2968    5.4828 C   0  0  0  0  0  0  0  0  0  0  0  0
   -6.6278    0.0598    5.4005 C   0  0  0  0  0  0  0  0  0  0  0  0
   -5.3315    0.8699    4.6359 S   0  0  0  0  0  0  0  0  0  0  0  0
    0.6543    0.6067    0.5656 C   0  0  0  0  0  0  0  0  0  0  0  0
    1.5946    0.4650   -0.4647 C   0  0  0  0  0  0  0  0  0  0  0  0
    6.1326   -2.4382   -4.5930 H   0  0  0  0  0  0  0  0  0  0  0  0
    4.5475   -2.1369   -5.3226 H   0  0  0  0  0  0  0  0  0  0  0  0
    4.6993   -2.3071   -3.5639 H   0  0  0  0  0  0  0  0  0  0  0  0
    6.0979   -0.2144   -3.5009 H   0  0  0  0  0  0  0  0  0  0  0  0
    5.9539   -0.0793   -5.2519 H   0  0  0  0  0  0  0  0  0  0  0  0
    3.4198    0.0779   -4.9807 H   0  0  0  0  0  0  0  0  0  0  0  0
    4.3609    1.4494   -4.3668 H   0  0  0  0  0  0  0  0  0  0  0  0
    1.9337    1.3123   -3.6869 H   0  0  0  0  0  0  0  0  0  0  0  0
   -0.0911    2.0826   -2.9376 H   0  0  0  0  0  0  0  0  0  0  0  0
   -1.7338    2.3327   -1.1363 H   0  0  0  0  0  0  0  0  0  0  0  0
   -1.0672   -0.3238    2.3862 H   0  0  0  0  0  0  0  0  0  0  0  0
   -3.2595    1.4027    3.2601 H   0  0  0  0  0  0  0  0  0  0  0  0
   -4.7873   -2.6871    4.8637 H   0  0  0  0  0  0  0  0  0  0  0  0
   -7.1144   -1.9882    5.9318 H   0  0  0  0  0  0  0  0  0  0  0  0
   -7.4861    0.6162    5.7523 H   0  0  0  0  0  0  0  0  0  0  0  0
    0.9065    0.2121    1.5460 H   0  0  0  0  0  0  0  0  0  0  0  0
    2.5206   -0.0537   -0.2338 H   0  0  0  0  0  0  0  0  0  0  0  0
  1  2  1  0
  2  3  1  0
  3  4  1  0
  4  5  2  0
  4  6  1  0
  6  7  1  0
  7  8  2  0
  8  9  1  0
  9 10  2  0
 10 11  1  0
 11 12  2  0
 11 13  1  0
 13 14  1  0
 14 15  1  0
 15 16  2  0
 15 17  1  0
 17 18  2  0
 18 19  1  0
 19 20  2  0
 20 21  1  0
 10 22  1  0
 22 23  2  0
 23  7  1  0
 21 17  1  0
  1 24  1  0
  1 25  1  0
  1 26  1  0
  2 27  1  0
  2 28  1  0
  3 29  1  0
  3 30  1  0
  6 31  1  0
  8 32  1  0
  9 33  1  0
 13 34  1  0
 14 35  1  0
 18 36  1  0
 19 37  1  0
 20 38  1  0
 22 39  1  0
 23 40  1  0
M  END
$$$$
