
     RDKit          3D

 46 47  0  0  0  0  0  0  0  0999 V2000
    8.1989   -1.2175   -2.2315 C   0  0  0  0  0  0  0  0  0  0  0  0
    7.8819   -0.0082   -1.5530 O   0  0  0  0  0  0  0  0  0  0  0  0
    6.5597    0.3367   -1.4905 C   0  0  0  0  0  0  0  0  0  0  0  0
    5.5045   -0.3396   -2.1031 C   0  0  0  0  0  0  0  0  0  0  0  0
    4.1924    0.1262   -1.9576 C   0  0  0  0  0  0  0  0  0  0  0  0
    3.9180    1.2715   -1.1984 C   0  0  0  0  0  0  0  0  0  0  0  0
    2.4987    1.7535   -1.0177 C   0  0  0  0  0  0  0  0  0  0  0  0
    1.7322    0.8755   -0.0254 C   0  0  0  0  0  0  0  0  0  0  0  0
    0.3148    1.3664    0.1770 C   0  0  0  0  0  0  0  0  0  0  0  0
   -0.0996    2.4587   -0.2049 O   0  0  0  0  0  0  0  0  0  0  0  0
   -0.4722    0.4696    0.8885 N   0  0  0  0  0  0  0  0  0  0  0  0
   -1.8635    0.6977    0.8492 N   0  0  0  0  0  0  0  0  0  0  0  0
   -2.6266   -0.2679    0.2045 C   0  0  0  0  0  0  0  0  0  0  0  0
   -2.1684   -1.3784   -0.0876 O   0  0  0  0  0  0  0  0  0  0  0  0
   -4.0417    0.1402   -0.1129 C   0  0  0  0  0  0  0  0  0  0  0  0
   -4.9593   -0.3650    0.8903 N   0  0  0  0  0  0  0  0  0  0  0  0
   -5.3131    0.4525    1.9062 N   0  0  0  0  0  0  0  0  0  0  0  0
   -6.1634   -0.2814    2.6360 C   0  0  0  0  0  0  0  0  0  0  0  0
   -6.7759    0.2684    3.8711 C   0  0  0  0  0  0  0  0  0  0  0  0
   -6.3624   -1.5626    2.0721 C   0  0  0  0  0  0  0  0  0  0  0  0
   -5.5819   -1.5904    0.9355 C   0  0  0  0  0  0  0  0  0  0  0  0
   -5.3749   -2.6643   -0.0694 C   0  0  0  0  0  0  0  0  0  0  0  0
    4.9803    1.9463   -0.5870 C   0  0  0  0  0  0  0  0  0  0  0  0
    6.2895    1.4817   -0.7380 C   0  0  0  0  0  0  0  0  0  0  0  0
    7.7278   -2.0779   -1.7423 H   0  0  0  0  0  0  0  0  0  0  0  0
    7.9215   -1.1652   -3.2908 H   0  0  0  0  0  0  0  0  0  0  0  0
    9.2836   -1.3558   -2.1787 H   0  0  0  0  0  0  0  0  0  0  0  0
    5.6661   -1.2321   -2.7027 H   0  0  0  0  0  0  0  0  0  0  0  0
    3.3845   -0.4144   -2.4434 H   0  0  0  0  0  0  0  0  0  0  0  0
    2.5022    2.7971   -0.6703 H   0  0  0  0  0  0  0  0  0  0  0  0
    1.9973    1.7634   -1.9929 H   0  0  0  0  0  0  0  0  0  0  0  0
    1.6995   -0.1663   -0.3809 H   0  0  0  0  0  0  0  0  0  0  0  0
    2.2320    0.8841    0.9518 H   0  0  0  0  0  0  0  0  0  0  0  0
   -0.2140   -0.5222    0.8895 H   0  0  0  0  0  0  0  0  0  0  0  0
   -2.1451    1.6814    0.8544 H   0  0  0  0  0  0  0  0  0  0  0  0
   -4.3252   -0.2619   -1.0927 H   0  0  0  0  0  0  0  0  0  0  0  0
   -4.1419    1.2303   -0.1594 H   0  0  0  0  0  0  0  0  0  0  0  0
   -6.0164    0.4193    4.6460 H   0  0  0  0  0  0  0  0  0  0  0  0
   -7.5309   -0.4243    4.2662 H   0  0  0  0  0  0  0  0  0  0  0  0
   -7.2664    1.2265    3.6689 H   0  0  0  0  0  0  0  0  0  0  0  0
   -6.9907   -2.3565    2.4514 H   0  0  0  0  0  0  0  0  0  0  0  0
   -6.0684   -3.4954    0.0950 H   0  0  0  0  0  0  0  0  0  0  0  0
   -4.3540   -3.0612   -0.0046 H   0  0  0  0  0  0  0  0  0  0  0  0
   -5.5374   -2.2924   -1.0852 H   0  0  0  0  0  0  0  0  0  0  0  0
    4.8013    2.8388    0.0088 H   0  0  0  0  0  0  0  0  0  0  0  0
    7.1067    2.0151   -0.2597 H   0  0  0  0  0  0  0  0  0  0  0  0
  1  2  1  0
  2  3  1  0
  3  4  2  0
  4  5  1  0
  5  6  2  0
  6  7  1  0
  7  8  1  0
  8  9  1  0
  9 10  2  0
  9 11  1  0
 11 12  1  0
 12 13  1  0
 13 14  2  0
 13 15  1  0
 15 16  1  0
 16 17  1  0
 17 18  2  0
 18 19  1  0
 18 20  1  0
 20 21  2  0
 21 22  1  0
  6 23  1  0
 23 24  2  0
 24  3  1  0
 21 16  1  0
  1 25  1  0
  1 26  1  0
  1 27  1  0
  4 28  1  0
  5 29  1  0
  7 30  1  0
  7 31  1  0
  8 32  1  0
  8 33  1  0
 11 34  1  0
 12 35  1  0
 15 36  1  0
 15 37  1  0
 19 38  1  0
 19 39  1  0
 19 40  1  0
 20 41  1  0
 22 42  1  0
 22 43  1  0
 22 44  1  0
 23 45  1  0
 24 46  1  0
M  END
$$$$
