
     RDKit          3D

 51 54  0  0  0  0  0  0  0  0999 V2000
    6.1700    0.5869   -1.7170 C   0  0  0  0  0  0  0  0  0  0  0  0
    5.0617    0.1400   -2.6574 C   0  0  0  0  0  0  0  0  0  0  0  0
    3.6969    0.4731   -2.1139 C   0  0  0  0  0  0  0  0  0  0  0  0
    3.1210    1.7235   -2.3513 C   0  0  0  0  0  0  0  0  0  0  0  0
    1.8590    2.0385   -1.8317 C   0  0  0  0  0  0  0  0  0  0  0  0
    1.1347    1.1172   -1.0579 C   0  0  0  0  0  0  0  0  0  0  0  0
   -0.1730    1.4441   -0.5213 N   0  0  0  0  0  0  0  0  0  0  0  0
   -0.3997    2.7515   -0.0719 C   0  0  0  0  0  0  0  0  0  0  0  0
    0.4168    3.6738   -0.0878 O   0  0  0  0  0  0  0  0  0  0  0  0
   -1.7095    3.0433    0.5350 C   0  0  0  0  0  0  0  0  0  0  0  0
   -1.9537    4.3239    1.0644 C   0  0  0  0  0  0  0  0  0  0  0  0
   -3.1699    4.6133    1.6750 C   0  0  0  0  0  0  0  0  0  0  0  0
   -4.1382    3.6223    1.7656 C   0  0  0  0  0  0  0  0  0  0  0  0
   -3.8941    2.3503    1.2352 C   0  0  0  0  0  0  0  0  0  0  0  0
   -2.6779    2.0483    0.5996 C   0  0  0  0  0  0  0  0  0  0  0  0
   -2.4032    0.7818    0.0301 N   0  0  0  0  0  0  0  0  0  0  0  0
   -3.4366   -0.2588   -0.0146 C   0  0  0  0  0  0  0  0  0  0  0  0
   -3.3504   -1.1394    1.2295 C   0  0  0  0  0  0  0  0  0  0  0  0
   -4.0438   -0.9446    2.2244 O   0  0  0  0  0  0  0  0  0  0  0  0
   -2.3911   -2.1216    1.1550 N   0  0  0  0  0  0  0  0  0  0  0  0
   -2.1033   -2.9680    2.2862 C   0  0  0  0  0  0  0  0  0  0  0  0
   -1.0176   -3.9064    1.9217 C   0  0  0  0  0  0  0  0  0  0  0  0
    0.3594   -3.8312    1.9753 C   0  0  0  0  0  0  0  0  0  0  0  0
    0.8463   -5.0614    1.4707 C   0  0  0  0  0  0  0  0  0  0  0  0
   -0.2613   -5.8058    1.1411 C   0  0  0  0  0  0  0  0  0  0  0  0
   -1.3973   -5.1129    1.4102 O   0  0  0  0  0  0  0  0  0  0  0  0
   -1.1519    0.4415   -0.4852 C   0  0  0  0  0  0  0  0  0  0  0  0
   -0.9784   -0.7110   -0.9006 O   0  0  0  0  0  0  0  0  0  0  0  0
    1.7313   -0.1326   -0.8209 C   0  0  0  0  0  0  0  0  0  0  0  0
    2.9934   -0.4508   -1.3381 C   0  0  0  0  0  0  0  0  0  0  0  0
    6.0797    0.1041   -0.7370 H   0  0  0  0  0  0  0  0  0  0  0  0
    7.1479    0.3269   -2.1347 H   0  0  0  0  0  0  0  0  0  0  0  0
    6.1459    1.6711   -1.5587 H   0  0  0  0  0  0  0  0  0  0  0  0
    5.1918    0.6125   -3.6391 H   0  0  0  0  0  0  0  0  0  0  0  0
    5.1374   -0.9411   -2.8291 H   0  0  0  0  0  0  0  0  0  0  0  0
    3.6474    2.4678   -2.9449 H   0  0  0  0  0  0  0  0  0  0  0  0
    1.4495    3.0167   -2.0721 H   0  0  0  0  0  0  0  0  0  0  0  0
   -1.1898    5.0979    1.0098 H   0  0  0  0  0  0  0  0  0  0  0  0
   -3.3540    5.6019    2.0885 H   0  0  0  0  0  0  0  0  0  0  0  0
   -5.0858    3.8308    2.2576 H   0  0  0  0  0  0  0  0  0  0  0  0
   -4.6798    1.6109    1.3650 H   0  0  0  0  0  0  0  0  0  0  0  0
   -4.4419    0.1593   -0.1166 H   0  0  0  0  0  0  0  0  0  0  0  0
   -3.3031   -0.8891   -0.9028 H   0  0  0  0  0  0  0  0  0  0  0  0
   -1.7354   -2.0991    0.3740 H   0  0  0  0  0  0  0  0  0  0  0  0
   -3.0176   -3.5006    2.5682 H   0  0  0  0  0  0  0  0  0  0  0  0
   -1.8082   -2.3349    3.1292 H   0  0  0  0  0  0  0  0  0  0  0  0
    0.9388   -2.9918    2.3324 H   0  0  0  0  0  0  0  0  0  0  0  0
    1.8767   -5.3695    1.3599 H   0  0  0  0  0  0  0  0  0  0  0  0
   -0.4045   -6.7943    0.7269 H   0  0  0  0  0  0  0  0  0  0  0  0
    1.2442   -0.8806   -0.2001 H   0  0  0  0  0  0  0  0  0  0  0  0
    3.4212   -1.4277   -1.1240 H   0  0  0  0  0  0  0  0  0  0  0  0
  1  2  1  0
  2  3  1  0
  3  4  2  0
  4  5  1  0
  5  6  2  0
  6  7  1  0
  7  8  1  0
  8  9  2  0
  8 10  1  0
 10 11  2  0
 11 12  1  0
 12 13  2  0
 13 14  1  0
 14 15  2  0
 15 16  1  0
 16 17  1  0
 17 18  1  0
 18 19  2  0
 18 20  1  0
 20 21  1  0
 21 22  1  0
 22 23  2  0
 23 24  1  0
 24 25  2  0
 25 26  1  0
 16 27  1  0
 27 28  2  0
  6 29  1  0
 29 30  2  0
 30  3  1  0
 27  7  1  0
 15 10  1  0
 26 22  1  0
  1 31  1  0
  1 32  1  0
  1 33  1  0
  2 34  1  0
  2 35  1  0
  4 36  1  0
  5 37  1  0
 11 38  1  0
 12 39  1  0
 13 40  1  0
 14 41  1  0
 17 42  1  0
 17 43  1  0
 20 44  1  0
 21 45  1  0
 21 46  1  0
 23 47  1  0
 24 48  1  0
 25 49  1  0
 29 50  1  0
 30 51  1  0
M  END
$$$$
