
     RDKit          3D

 29 30  0  0  0  0  0  0  0  0999 V2000
    3.5002   -1.0517   -1.5042 C   0  0  0  0  0  0  0  0  0  0  0  0
    3.1785   -0.9788   -0.0225 C   0  0  0  0  0  0  0  0  0  0  0  0
    2.7909    0.3910    0.3131 N   0  0  0  0  0  0  0  0  0  0  0  0
    1.9699    0.6596    1.7553 S   0  0  0  0  0  6  0  0  0  0  0  0
    2.4136   -0.3297    2.7124 O   0  0  0  0  0  0  0  0  0  0  0  0
    2.0740    2.0772    2.0204 O   0  0  0  0  0  0  0  0  0  0  0  0
    0.2947    0.3133    1.2928 C   0  0  0  0  0  0  0  0  0  0  0  0
   -0.3347   -0.8517    1.7708 C   0  0  0  0  0  0  0  0  0  0  0  0
   -1.6626   -1.1163    1.4319 C   0  0  0  0  0  0  0  0  0  0  0  0
   -2.3166   -0.2111    0.6127 C   0  0  0  0  0  0  0  0  0  0  0  0
   -1.6849    0.9373    0.1299 C   0  0  0  0  0  0  0  0  0  0  0  0
   -0.3836    1.2316    0.4823 C   0  0  0  0  0  0  0  0  0  0  0  0
   -2.5508    1.7690   -0.6187 N   0  0  0  0  0  0  0  0  0  0  0  0
   -3.6717    0.8687   -0.9420 C   0  0  0  0  0  0  0  0  0  0  0  0
   -3.7325   -0.2192    0.1465 C   0  0  0  0  0  0  0  0  0  0  0  0
    2.6307   -0.7711   -2.1083 H   0  0  0  0  0  0  0  0  0  0  0  0
    4.3199   -0.3731   -1.7631 H   0  0  0  0  0  0  0  0  0  0  0  0
    3.7967   -2.0680   -1.7810 H   0  0  0  0  0  0  0  0  0  0  0  0
    2.3682   -1.6787    0.2035 H   0  0  0  0  0  0  0  0  0  0  0  0
    4.0627   -1.2597    0.5585 H   0  0  0  0  0  0  0  0  0  0  0  0
    3.4366    1.1487    0.0944 H   0  0  0  0  0  0  0  0  0  0  0  0
    0.2009   -1.5428    2.4185 H   0  0  0  0  0  0  0  0  0  0  0  0
   -2.1678   -1.9983    1.8120 H   0  0  0  0  0  0  0  0  0  0  0  0
    0.0926    2.1478    0.1498 H   0  0  0  0  0  0  0  0  0  0  0  0
   -2.0803    2.1779   -1.4218 H   0  0  0  0  0  0  0  0  0  0  0  0
   -3.4891    0.4098   -1.9229 H   0  0  0  0  0  0  0  0  0  0  0  0
   -4.6124    1.4249   -1.0056 H   0  0  0  0  0  0  0  0  0  0  0  0
   -4.0431   -1.1831   -0.2654 H   0  0  0  0  0  0  0  0  0  0  0  0
   -4.3999    0.0764    0.9625 H   0  0  0  0  0  0  0  0  0  0  0  0
  1  2  1  0
  2  3  1  0
  3  4  1  0
  4  5  2  0
  4  6  2  0
  4  7  1  0
  7  8  2  0
  8  9  1  0
  9 10  2  0
 10 11  1  0
 11 12  2  0
 11 13  1  0
 13 14  1  0
 14 15  1  0
 12  7  1  0
 15 10  1  0
  1 16  1  0
  1 17  1  0
  1 18  1  0
  2 19  1  0
  2 20  1  0
  3 21  1  0
  8 22  1  0
  9 23  1  0
 12 24  1  0
 13 25  1  0
 14 26  1  0
 14 27  1  0
 15 28  1  0
 15 29  1  0
M  END
$$$$
