
     RDKit          3D

 35 36  0  0  0  0  0  0  0  0999 V2000
    3.8017    2.0312   -1.1652 C   0  0  0  0  0  0  0  0  0  0  0  0
    2.7759    1.4983   -0.3381 O   0  0  0  0  0  0  0  0  0  0  0  0
    3.1518    0.7196    0.7238 C   0  0  0  0  0  0  0  0  0  0  0  0
    4.4792    0.5207    1.1237 C   0  0  0  0  0  0  0  0  0  0  0  0
    4.7769   -0.2478    2.2551 C   0  0  0  0  0  0  0  0  0  0  0  0
    3.7545   -0.8197    3.0073 C   0  0  0  0  0  0  0  0  0  0  0  0
    2.4292   -0.6328    2.6229 C   0  0  0  0  0  0  0  0  0  0  0  0
    2.1278    0.1200    1.4771 C   0  0  0  0  0  0  0  0  0  0  0  0
    0.6969    0.2636    1.1346 C   0  0  0  0  0  0  0  0  0  0  0  0
   -0.1688    0.5041    1.9616 O   0  0  0  0  0  0  0  0  0  0  0  0
    0.5032   -0.0221   -0.1762 O   0  0  0  0  0  0  0  0  0  0  0  0
   -0.8569    0.0615   -0.6301 C   0  0  0  0  0  0  0  0  0  0  0  0
   -1.5917   -1.2486   -0.3531 C   0  0  0  0  0  0  0  0  0  0  0  0
   -3.0078   -1.2213   -0.8659 C   0  0  0  0  0  0  0  0  0  0  0  0
   -4.0301   -0.6637   -0.0863 C   0  0  0  0  0  0  0  0  0  0  0  0
   -5.3398   -0.6187   -0.5657 C   0  0  0  0  0  0  0  0  0  0  0  0
   -5.6385   -1.1266   -1.8287 C   0  0  0  0  0  0  0  0  0  0  0  0
   -4.6278   -1.6786   -2.6138 C   0  0  0  0  0  0  0  0  0  0  0  0
   -3.3170   -1.7244   -2.1363 C   0  0  0  0  0  0  0  0  0  0  0  0
    3.3213    2.5696   -1.9878 H   0  0  0  0  0  0  0  0  0  0  0  0
    4.4180    2.7485   -0.6136 H   0  0  0  0  0  0  0  0  0  0  0  0
    4.4136    1.2347   -1.6014 H   0  0  0  0  0  0  0  0  0  0  0  0
    5.3113    0.9612    0.5836 H   0  0  0  0  0  0  0  0  0  0  0  0
    5.8130   -0.3896    2.5547 H   0  0  0  0  0  0  0  0  0  0  0  0
    3.9882   -1.4066    3.8921 H   0  0  0  0  0  0  0  0  0  0  0  0
    1.6281   -1.0744    3.2123 H   0  0  0  0  0  0  0  0  0  0  0  0
   -0.8183    0.2532   -1.7086 H   0  0  0  0  0  0  0  0  0  0  0  0
   -1.3647    0.9234   -0.1789 H   0  0  0  0  0  0  0  0  0  0  0  0
   -1.0411   -2.0833   -0.8061 H   0  0  0  0  0  0  0  0  0  0  0  0
   -1.5942   -1.4694    0.7216 H   0  0  0  0  0  0  0  0  0  0  0  0
   -3.8094   -0.2607    0.9005 H   0  0  0  0  0  0  0  0  0  0  0  0
   -6.1265   -0.1863    0.0468 H   0  0  0  0  0  0  0  0  0  0  0  0
   -6.6587   -1.0913   -2.2012 H   0  0  0  0  0  0  0  0  0  0  0  0
   -4.8604   -2.0733   -3.5993 H   0  0  0  0  0  0  0  0  0  0  0  0
   -2.5388   -2.1559   -2.7618 H   0  0  0  0  0  0  0  0  0  0  0  0
  1  2  1  0
  2  3  1  0
  3  4  2  0
  4  5  1  0
  5  6  2  0
  6  7  1  0
  7  8  2  0
  8  9  1  0
  9 10  2  0
  9 11  1  0
 11 12  1  0
 12 13  1  0
 13 14  1  0
 14 15  2  0
 15 16  1  0
 16 17  2  0
 17 18  1  0
 18 19  2  0
  8  3  1  0
 19 14  1  0
  1 20  1  0
  1 21  1  0
  1 22  1  0
  4 23  1  0
  5 24  1  0
  6 25  1  0
  7 26  1  0
 12 27  1  0
 12 28  1  0
 13 29  1  0
 13 30  1  0
 15 31  1  0
 16 32  1  0
 17 33  1  0
 18 34  1  0
 19 35  1  0
M  END
$$$$
