
     RDKit          3D

 60 65  0  0  0  0  0  0  0  0999 V2000
    4.3645   -2.8821   -3.8907 C   0  0  0  0  0  0  0  0  0  0  0  0
    4.8389   -2.3791   -2.5806 C   0  0  0  0  0  0  0  0  0  0  0  0
    5.8957   -2.9500   -1.9886 N   0  0  0  0  0  0  0  0  0  0  0  0
    6.1053   -2.2364   -0.8249 O   0  0  0  0  0  0  0  0  0  0  0  0
    5.1750   -1.2507   -0.7201 C   0  0  0  0  0  0  0  0  0  0  0  0
    5.3167   -0.3581    0.4448 C   0  0  0  0  0  0  0  0  0  0  0  0
    4.3108   -1.3237   -1.7922 C   0  0  0  0  0  0  0  0  0  0  0  0
    3.1884   -0.4618   -2.0889 C   0  0  0  0  0  0  0  0  0  0  0  0
    3.1330    0.1309   -3.1638 O   0  0  0  0  0  0  0  0  0  0  0  0
    2.1857   -0.3398   -1.1227 N   0  0  0  0  0  0  0  0  0  0  0  0
    1.9964   -1.2656   -0.0052 C   0  0  0  0  0  0  0  0  0  0  0  0
    0.5150   -1.5426    0.2380 C   0  0  0  0  0  0  0  0  0  0  0  0
   -0.2785   -0.2472    0.6053 C   0  0  0  0  0  0  0  0  0  0  0  0
    0.3853    0.9749   -0.0971 C   0  0  0  0  0  0  0  0  0  0  0  0
    1.1024    0.6013   -1.3869 C   0  0  0  0  0  0  0  0  0  0  0  0
   -0.1144    0.0262    2.0244 O   0  0  0  0  0  0  0  0  0  0  0  0
   -0.8203   -0.7702    2.8832 C   0  0  0  0  0  0  0  0  0  0  0  0
   -0.4110   -0.7501    4.2171 C   0  0  0  0  0  0  0  0  0  0  0  0
   -1.0588   -1.5554    5.1554 C   0  0  0  0  0  0  0  0  0  0  0  0
   -2.1131   -2.3709    4.7538 C   0  0  0  0  0  0  0  0  0  0  0  0
   -2.7287   -3.1418    5.6587 F   0  0  0  0  0  0  0  0  0  0  0  0
   -2.5411   -2.3911    3.4330 C   0  0  0  0  0  0  0  0  0  0  0  0
   -1.8942   -1.5764    2.5011 C   0  0  0  0  0  0  0  0  0  0  0  0
   -2.3496   -1.5363    1.0990 C   0  0  0  0  0  0  0  0  0  0  0  0
   -3.1586   -2.3653    0.6985 O   0  0  0  0  0  0  0  0  0  0  0  0
   -1.7923   -0.3867    0.2663 C   0  0  0  0  0  0  0  0  0  0  0  0
   -2.6635    0.8357    0.5427 C   0  0  0  0  0  0  0  0  0  0  0  0
   -2.8925    1.2954   -0.8548 C   0  0  0  0  0  0  0  0  0  0  0  0
   -3.5327    2.5966   -1.1618 C   0  0  0  0  0  0  0  0  0  0  0  0
   -4.0215    3.4296   -0.1483 C   0  0  0  0  0  0  0  0  0  0  0  0
   -4.6132    4.6546   -0.4745 C   0  0  0  0  0  0  0  0  0  0  0  0
   -4.7184    5.0453   -1.8089 C   0  0  0  0  0  0  0  0  0  0  0  0
   -5.4436    6.5536   -2.2021 Cl  0  0  0  0  0  0  0  0  0  0  0  0
   -4.2392    4.2204   -2.8234 C   0  0  0  0  0  0  0  0  0  0  0  0
   -3.6485    2.9960   -2.5007 C   0  0  0  0  0  0  0  0  0  0  0  0
   -2.4829    0.4775   -1.7690 N   0  0  0  0  0  0  0  0  0  0  0  0
   -1.9670   -0.6676   -1.1245 O   0  0  0  0  0  0  0  0  0  0  0  0
    5.0092   -2.5115   -4.6944 H   0  0  0  0  0  0  0  0  0  0  0  0
    3.3396   -2.5596   -4.0978 H   0  0  0  0  0  0  0  0  0  0  0  0
    4.3777   -3.9776   -3.9158 H   0  0  0  0  0  0  0  0  0  0  0  0
    4.7405    0.5625    0.3133 H   0  0  0  0  0  0  0  0  0  0  0  0
    4.9665   -0.8578    1.3529 H   0  0  0  0  0  0  0  0  0  0  0  0
    6.3645   -0.0777    0.5911 H   0  0  0  0  0  0  0  0  0  0  0  0
    2.5084   -2.2120   -0.2015 H   0  0  0  0  0  0  0  0  0  0  0  0
    2.4470   -0.8112    0.8834 H   0  0  0  0  0  0  0  0  0  0  0  0
    0.1043   -1.9969   -0.6721 H   0  0  0  0  0  0  0  0  0  0  0  0
    0.4404   -2.2949    1.0304 H   0  0  0  0  0  0  0  0  0  0  0  0
   -0.3323    1.7744   -0.2970 H   0  0  0  0  0  0  0  0  0  0  0  0
    1.1203    1.4293    0.5835 H   0  0  0  0  0  0  0  0  0  0  0  0
    0.4216    0.1396   -2.1102 H   0  0  0  0  0  0  0  0  0  0  0  0
    1.5154    1.5016   -1.8564 H   0  0  0  0  0  0  0  0  0  0  0  0
    0.4192   -0.1191    4.5263 H   0  0  0  0  0  0  0  0  0  0  0  0
   -0.7465   -1.5566    6.1958 H   0  0  0  0  0  0  0  0  0  0  0  0
   -3.3727   -3.0290    3.1460 H   0  0  0  0  0  0  0  0  0  0  0  0
   -3.6319    0.5857    0.9910 H   0  0  0  0  0  0  0  0  0  0  0  0
   -2.1688    1.5937    1.1550 H   0  0  0  0  0  0  0  0  0  0  0  0
   -3.9596    3.1507    0.8994 H   0  0  0  0  0  0  0  0  0  0  0  0
   -4.9917    5.2990    0.3154 H   0  0  0  0  0  0  0  0  0  0  0  0
   -4.3208    4.5208   -3.8647 H   0  0  0  0  0  0  0  0  0  0  0  0
   -3.2799    2.3578   -3.3024 H   0  0  0  0  0  0  0  0  0  0  0  0
  1  2  1  0
  2  3  2  0
  3  4  1  0
  4  5  1  0
  5  6  1  0
  5  7  2  0
  7  8  1  0
  8  9  2  0
  8 10  1  0
 10 11  1  0
 11 12  1  0
 12 13  1  0
 13 14  1  0
 14 15  1  0
 13 16  1  0
 16 17  1  0
 17 18  2  0
 18 19  1  0
 19 20  2  0
 20 21  1  0
 20 22  1  0
 22 23  2  0
 23 24  1  0
 24 25  2  0
 24 26  1  0
 26 27  1  0
 27 28  1  0
 28 29  1  0
 29 30  2  0
 30 31  1  0
 31 32  2  0
 32 33  1  0
 32 34  1  0
 34 35  2  0
 28 36  2  0
 36 37  1  0
  7  2  1  0
 15 10  1  0
 23 17  1  0
 37 26  1  0
 26 13  1  0
 35 29  1  0
  1 38  1  0
  1 39  1  0
  1 40  1  0
  6 41  1  0
  6 42  1  0
  6 43  1  0
 11 44  1  0
 11 45  1  0
 12 46  1  0
 12 47  1  0
 14 48  1  0
 14 49  1  0
 15 50  1  0
 15 51  1  0
 18 52  1  0
 19 53  1  0
 22 54  1  0
 27 55  1  0
 27 56  1  0
 30 57  1  0
 31 58  1  0
 34 59  1  0
 35 60  1  0
M  END
$$$$
