
     RDKit          3D

 49 52  0  0  0  0  0  0  0  0999 V2000
   -3.7460    4.5356   -2.5773 C   0  0  0  0  0  0  0  0  0  0  0  0
   -3.0618    3.5484   -1.6777 C   0  0  0  0  0  0  0  0  0  0  0  0
   -2.7427    3.8929   -0.3600 C   0  0  0  0  0  0  0  0  0  0  0  0
   -2.1360    2.9648    0.4902 C   0  0  0  0  0  0  0  0  0  0  0  0
   -1.8602    1.6706    0.0332 C   0  0  0  0  0  0  0  0  0  0  0  0
   -1.2507    0.7277    0.8998 N   0  0  0  0  0  0  0  0  0  0  0  0
   -1.5718   -0.6154    1.0774 C   0  0  0  0  0  0  0  0  0  0  0  0
   -2.7131   -1.3498    0.4483 C   0  0  0  0  0  0  0  0  0  0  0  0
   -2.3059   -2.2037   -0.7235 C   0  0  0  0  0  0  0  0  0  0  0  0
   -1.1194   -2.8789   -0.9499 C   0  0  0  0  0  0  0  0  0  0  0  0
   -1.1251   -3.5947   -2.1815 C   0  0  0  0  0  0  0  0  0  0  0  0
   -2.3191   -3.4585   -2.8515 C   0  0  0  0  0  0  0  0  0  0  0  0
   -3.4251   -2.4743   -1.9983 S   0  0  0  0  0  0  0  0  0  0  0  0
   -0.7844   -1.1372    2.0028 N   0  0  0  0  0  0  0  0  0  0  0  0
    0.0671   -0.1698    2.4438 N   0  0  0  0  0  0  0  0  0  0  0  0
   -0.2015    0.9283    1.7799 C   0  0  0  0  0  0  0  0  0  0  0  0
    0.8382    2.3143    1.8696 S   0  0  0  0  0  0  0  0  0  0  0  0
    1.8020    2.1317    0.3453 C   0  0  0  0  0  0  0  0  0  0  0  0
    2.7802    0.9611    0.2724 C   0  0  0  0  0  0  0  0  0  0  0  0
    3.4499    0.8236   -0.7542 O   0  0  0  0  0  0  0  0  0  0  0  0
    2.8334    0.1183    1.3605 N   0  0  0  0  0  0  0  0  0  0  0  0
    3.6126   -1.0458    1.5165 C   0  0  0  0  0  0  0  0  0  0  0  0
    3.3459   -1.8371    2.6468 C   0  0  0  0  0  0  0  0  0  0  0  0
    4.0632   -3.0135    2.8817 C   0  0  0  0  0  0  0  0  0  0  0  0
    5.0533   -3.3982    1.9871 C   0  0  0  0  0  0  0  0  0  0  0  0
    5.7407   -4.5260    2.2106 F   0  0  0  0  0  0  0  0  0  0  0  0
    5.3299   -2.6183    0.8721 C   0  0  0  0  0  0  0  0  0  0  0  0
    6.2912   -2.9910    0.0145 F   0  0  0  0  0  0  0  0  0  0  0  0
    4.6164   -1.4446    0.6301 C   0  0  0  0  0  0  0  0  0  0  0  0
   -2.1832    1.3187   -1.2808 C   0  0  0  0  0  0  0  0  0  0  0  0
   -2.7856    2.2528   -2.1278 C   0  0  0  0  0  0  0  0  0  0  0  0
   -3.4808    4.3573   -3.6263 H   0  0  0  0  0  0  0  0  0  0  0  0
   -3.4425    5.5608   -2.3349 H   0  0  0  0  0  0  0  0  0  0  0  0
   -4.8328    4.4507   -2.4670 H   0  0  0  0  0  0  0  0  0  0  0  0
   -2.9729    4.8883    0.0167 H   0  0  0  0  0  0  0  0  0  0  0  0
   -1.9348    3.2662    1.5166 H   0  0  0  0  0  0  0  0  0  0  0  0
   -3.5135   -0.6538    0.1742 H   0  0  0  0  0  0  0  0  0  0  0  0
   -3.1482   -2.0136    1.2079 H   0  0  0  0  0  0  0  0  0  0  0  0
   -0.2793   -2.8644   -0.2633 H   0  0  0  0  0  0  0  0  0  0  0  0
   -0.2963   -4.1859   -2.5527 H   0  0  0  0  0  0  0  0  0  0  0  0
   -2.5971   -3.8934   -3.8022 H   0  0  0  0  0  0  0  0  0  0  0  0
    1.1224    2.0595   -0.5106 H   0  0  0  0  0  0  0  0  0  0  0  0
    2.3919    3.0476    0.2284 H   0  0  0  0  0  0  0  0  0  0  0  0
    2.1549    0.2882    2.1008 H   0  0  0  0  0  0  0  0  0  0  0  0
    2.5628   -1.5549    3.3505 H   0  0  0  0  0  0  0  0  0  0  0  0
    3.8523   -3.6279    3.7520 H   0  0  0  0  0  0  0  0  0  0  0  0
    4.8839   -0.8674   -0.2457 H   0  0  0  0  0  0  0  0  0  0  0  0
   -1.9343    0.3459   -1.6951 H   0  0  0  0  0  0  0  0  0  0  0  0
   -3.0282    1.9648   -3.1497 H   0  0  0  0  0  0  0  0  0  0  0  0
  1  2  1  0
  2  3  2  0
  3  4  1  0
  4  5  2  0
  5  6  1  0
  6  7  1  0
  7  8  1  0
  8  9  1  0
  9 10  2  0
 10 11  1  0
 11 12  2  0
 12 13  1  0
  7 14  2  0
 14 15  1  0
 15 16  2  0
 16 17  1  0
 17 18  1  0
 18 19  1  0
 19 20  2  0
 19 21  1  0
 21 22  1  0
 22 23  2  0
 23 24  1  0
 24 25  2  0
 25 26  1  0
 25 27  1  0
 27 28  1  0
 27 29  2  0
  5 30  1  0
 30 31  2  0
 31  2  1  0
 16  6  1  0
 29 22  1  0
 13  9  1  0
  1 32  1  0
  1 33  1  0
  1 34  1  0
  3 35  1  0
  4 36  1  0
  8 37  1  0
  8 38  1  0
 10 39  1  0
 11 40  1  0
 12 41  1  0
 18 42  1  0
 18 43  1  0
 21 44  1  0
 23 45  1  0
 24 46  1  0
 29 47  1  0
 30 48  1  0
 31 49  1  0
M  END
$$$$
