
     RDKit          3D

 60 65  0  0  0  0  0  0  0  0999 V2000
    1.3213   -1.7044    3.7454 O   0  0  0  0  0  0  0  0  0  0  0  0
    1.8700   -1.0293    2.8832 C   0  0  0  0  0  0  0  0  0  0  0  0
    1.1590   -0.2904    1.9450 N   0  0  0  0  0  0  0  0  0  0  0  0
    1.7402    0.5112    0.9703 C   0  0  0  0  0  0  0  0  0  0  0  0
    0.7926    1.2507    0.0279 C   0  0  0  0  0  0  0  0  0  0  0  0
    0.1584    0.2886   -0.9815 C   0  0  0  0  0  0  0  0  0  0  0  0
   -0.9145   -0.6241   -0.3823 C   0  0  0  0  0  0  0  0  0  0  0  0
   -1.5358   -0.0044    0.8197 N   0  0  0  0  0  0  0  0  0  0  0  0
   -2.8763   -0.8442    1.4824 S   0  0  0  0  0  6  0  0  0  0  0  0
   -3.2631   -0.1568    2.6946 O   0  0  0  0  0  0  0  0  0  0  0  0
   -2.5334   -2.2494    1.4889 O   0  0  0  0  0  0  0  0  0  0  0  0
   -4.1654   -0.6007    0.2827 C   0  0  0  0  0  0  0  0  0  0  0  0
   -4.4117   -1.5838   -0.6829 C   0  0  0  0  0  0  0  0  0  0  0  0
   -5.4418   -1.3994   -1.6065 C   0  0  0  0  0  0  0  0  0  0  0  0
   -6.2285   -0.2495   -1.5494 C   0  0  0  0  0  0  0  0  0  0  0  0
   -5.9761    0.7304   -0.5820 C   0  0  0  0  0  0  0  0  0  0  0  0
   -4.9612    0.5467    0.3534 C   0  0  0  0  0  0  0  0  0  0  0  0
   -6.6939    1.8945   -0.4865 O   0  0  0  0  0  0  0  0  0  0  0  0
   -7.4835    2.1257   -1.6598 C   0  0  0  0  0  0  0  0  0  0  0  0
   -8.1891    0.8525   -2.0964 C   0  0  0  0  0  0  0  0  0  0  0  0
   -7.2342   -0.1462   -2.4755 O   0  0  0  0  0  0  0  0  0  0  0  0
   -1.6577    1.4666    0.7251 C   0  0  0  0  0  0  0  0  0  0  0  0
   -0.2577    2.0747    0.7898 C   0  0  0  0  0  0  0  0  0  0  0  0
    3.0288    0.6475    0.8079 N   0  0  0  0  0  0  0  0  0  0  0  0
    3.7488   -0.0772    1.6997 C   0  0  0  0  0  0  0  0  0  0  0  0
    3.2906   -0.8889    2.7093 C   0  0  0  0  0  0  0  0  0  0  0  0
    4.3317   -1.4337    3.3963 N   0  0  0  0  0  0  0  0  0  0  0  0
    5.4550   -0.9838    2.8365 N   0  0  0  0  0  0  0  0  0  0  0  0
    5.1065   -0.1791    1.8024 N   0  0  0  0  0  0  0  0  0  0  0  0
    6.1164    0.4866    1.0078 C   0  0  0  0  0  0  0  0  0  0  0  0
    6.4313   -0.2870   -0.2482 C   0  0  0  0  0  0  0  0  0  0  0  0
    5.7994    0.0318   -1.4618 C   0  0  0  0  0  0  0  0  0  0  0  0
    6.0829   -0.6909   -2.6239 C   0  0  0  0  0  0  0  0  0  0  0  0
    6.9964   -1.7424   -2.5835 C   0  0  0  0  0  0  0  0  0  0  0  0
    7.6150   -2.0659   -1.3820 C   0  0  0  0  0  0  0  0  0  0  0  0
    8.4891   -3.0800   -1.3440 F   0  0  0  0  0  0  0  0  0  0  0  0
    7.3410   -1.3541   -0.2184 C   0  0  0  0  0  0  0  0  0  0  0  0
    0.1488   -0.3572    2.0212 H   0  0  0  0  0  0  0  0  0  0  0  0
    1.4202    1.9573   -0.5333 H   0  0  0  0  0  0  0  0  0  0  0  0
   -0.3037    0.8874   -1.7781 H   0  0  0  0  0  0  0  0  0  0  0  0
    0.9239   -0.3254   -1.4715 H   0  0  0  0  0  0  0  0  0  0  0  0
   -1.6630   -0.8427   -1.1493 H   0  0  0  0  0  0  0  0  0  0  0  0
   -0.4505   -1.5708   -0.0831 H   0  0  0  0  0  0  0  0  0  0  0  0
   -3.8181   -2.4953   -0.7167 H   0  0  0  0  0  0  0  0  0  0  0  0
   -5.6457   -2.1593   -2.3569 H   0  0  0  0  0  0  0  0  0  0  0  0
   -4.7983    1.2957    1.1243 H   0  0  0  0  0  0  0  0  0  0  0  0
   -6.8260    2.5101   -2.4495 H   0  0  0  0  0  0  0  0  0  0  0  0
   -8.2169    2.9015   -1.4183 H   0  0  0  0  0  0  0  0  0  0  0  0
   -8.8246    1.0505   -2.9653 H   0  0  0  0  0  0  0  0  0  0  0  0
   -8.8204    0.4470   -1.2958 H   0  0  0  0  0  0  0  0  0  0  0  0
   -2.2532    1.8791    1.5450 H   0  0  0  0  0  0  0  0  0  0  0  0
   -2.1504    1.7404   -0.2151 H   0  0  0  0  0  0  0  0  0  0  0  0
    0.0393    2.2037    1.8382 H   0  0  0  0  0  0  0  0  0  0  0  0
   -0.3067    3.0864    0.3678 H   0  0  0  0  0  0  0  0  0  0  0  0
    7.0152    0.6085    1.6239 H   0  0  0  0  0  0  0  0  0  0  0  0
    5.7533    1.4936    0.7720 H   0  0  0  0  0  0  0  0  0  0  0  0
    5.0744    0.8434   -1.5070 H   0  0  0  0  0  0  0  0  0  0  0  0
    5.5891   -0.4358   -3.5581 H   0  0  0  0  0  0  0  0  0  0  0  0
    7.2266   -2.3145   -3.4765 H   0  0  0  0  0  0  0  0  0  0  0  0
    7.8360   -1.6459    0.7045 H   0  0  0  0  0  0  0  0  0  0  0  0
  1  2  2  0
  2  3  1  0
  3  4  1  0
  4  5  1  0
  5  6  1  0
  6  7  1  0
  7  8  1  0
  8  9  1  0
  9 10  2  0
  9 11  2  0
  9 12  1  0
 12 13  2  0
 13 14  1  0
 14 15  2  0
 15 16  1  0
 16 17  2  0
 16 18  1  0
 18 19  1  0
 19 20  1  0
 20 21  1  0
  8 22  1  0
 22 23  1  0
  4 24  2  0
 24 25  1  0
 25 26  2  0
 26 27  1  0
 27 28  2  0
 28 29  1  0
 29 30  1  0
 30 31  1  0
 31 32  2  0
 32 33  1  0
 33 34  2  0
 34 35  1  0
 35 36  1  0
 35 37  2  0
 26  2  1  0
 37 31  1  0
 23  5  1  0
 29 25  1  0
 17 12  1  0
 21 15  1  0
  3 38  1  0
  5 39  1  0
  6 40  1  0
  6 41  1  0
  7 42  1  0
  7 43  1  0
 13 44  1  0
 14 45  1  0
 17 46  1  0
 19 47  1  0
 19 48  1  0
 20 49  1  0
 20 50  1  0
 22 51  1  0
 22 52  1  0
 23 53  1  0
 23 54  1  0
 30 55  1  0
 30 56  1  0
 32 57  1  0
 33 58  1  0
 34 59  1  0
 37 60  1  0
M  END
$$$$
