
     RDKit          3D

 49 51  0  0  0  0  0  0  0  0999 V2000
    5.6716    1.8161   -1.3206 C   0  0  0  0  0  0  0  0  0  0  0  0
    4.7295    0.9977   -0.6432 O   0  0  0  0  0  0  0  0  0  0  0  0
    3.5484    1.5775   -0.2494 C   0  0  0  0  0  0  0  0  0  0  0  0
    3.1538    2.8754   -0.5970 C   0  0  0  0  0  0  0  0  0  0  0  0
    1.9280    3.3805   -0.1600 C   0  0  0  0  0  0  0  0  0  0  0  0
    1.0923    2.5813    0.6221 C   0  0  0  0  0  0  0  0  0  0  0  0
   -0.4537    3.2430    1.1998 S   0  0  0  0  0  6  0  0  0  0  0  0
   -0.3095    4.6845    1.2528 O   0  0  0  0  0  0  0  0  0  0  0  0
   -0.8729    2.5009    2.3666 O   0  0  0  0  0  0  0  0  0  0  0  0
   -1.5041    2.9460   -0.0807 N   0  0  0  0  0  0  0  0  0  0  0  0
   -1.6515    1.6541   -0.6624 C   0  0  0  0  0  0  0  0  0  0  0  0
   -1.6705    1.5741   -2.0520 C   0  0  0  0  0  0  0  0  0  0  0  0
   -1.8792    0.3477   -2.6755 C   0  0  0  0  0  0  0  0  0  0  0  0
   -2.0805   -0.8136   -1.9135 C   0  0  0  0  0  0  0  0  0  0  0  0
   -2.0269   -0.7602   -0.5056 C   0  0  0  0  0  0  0  0  0  0  0  0
   -1.8526    0.4984    0.0990 C   0  0  0  0  0  0  0  0  0  0  0  0
   -2.1999   -1.9636    0.2746 N   0  0  0  0  0  0  0  0  0  0  0  0
   -1.7206   -2.0582    1.5950 C   0  0  0  0  0  0  0  0  0  0  0  0
   -2.1104   -3.3022    2.3624 C   0  0  0  0  0  0  0  0  0  0  0  0
   -0.9955   -1.2320    2.1499 O   0  0  0  0  0  0  0  0  0  0  0  0
   -2.6009   -3.1893   -0.4281 C   0  0  0  0  0  0  0  0  0  0  0  0
   -3.2392   -2.9737   -1.7881 C   0  0  0  0  0  0  0  0  0  0  0  0
   -2.3277   -2.1099   -2.6331 C   0  0  0  0  0  0  0  0  0  0  0  0
    1.4790    1.2907    0.9941 C   0  0  0  0  0  0  0  0  0  0  0  0
    2.7002    0.7769    0.5465 C   0  0  0  0  0  0  0  0  0  0  0  0
    3.1648   -0.4808    0.8463 O   0  0  0  0  0  0  0  0  0  0  0  0
    2.2515   -1.3800    1.4622 C   0  0  0  0  0  0  0  0  0  0  0  0
    5.2890    2.1297   -2.2973 H   0  0  0  0  0  0  0  0  0  0  0  0
    5.9592    2.6796   -0.7115 H   0  0  0  0  0  0  0  0  0  0  0  0
    6.5713    1.2177   -1.4936 H   0  0  0  0  0  0  0  0  0  0  0  0
    3.7798    3.5187   -1.2063 H   0  0  0  0  0  0  0  0  0  0  0  0
    1.6392    4.3947   -0.4265 H   0  0  0  0  0  0  0  0  0  0  0  0
   -1.6139    3.7623   -0.6784 H   0  0  0  0  0  0  0  0  0  0  0  0
   -1.5302    2.4600   -2.6648 H   0  0  0  0  0  0  0  0  0  0  0  0
   -1.8975    0.3020   -3.7626 H   0  0  0  0  0  0  0  0  0  0  0  0
   -1.9158    0.5956    1.1783 H   0  0  0  0  0  0  0  0  0  0  0  0
   -1.7685   -3.2076    3.3982 H   0  0  0  0  0  0  0  0  0  0  0  0
   -1.6365   -4.1856    1.9278 H   0  0  0  0  0  0  0  0  0  0  0  0
   -3.1978   -3.4118    2.3827 H   0  0  0  0  0  0  0  0  0  0  0  0
   -1.7037   -3.8142   -0.5254 H   0  0  0  0  0  0  0  0  0  0  0  0
   -3.3128   -3.7434    0.1920 H   0  0  0  0  0  0  0  0  0  0  0  0
   -4.2167   -2.4889   -1.6668 H   0  0  0  0  0  0  0  0  0  0  0  0
   -3.4130   -3.9374   -2.2793 H   0  0  0  0  0  0  0  0  0  0  0  0
   -1.3695   -2.6097   -2.8179 H   0  0  0  0  0  0  0  0  0  0  0  0
   -2.8062   -1.9299   -3.6028 H   0  0  0  0  0  0  0  0  0  0  0  0
    0.8186    0.7077    1.6301 H   0  0  0  0  0  0  0  0  0  0  0  0
    1.9865   -1.0460    2.4704 H   0  0  0  0  0  0  0  0  0  0  0  0
    1.3641   -1.5257    0.8384 H   0  0  0  0  0  0  0  0  0  0  0  0
    2.7511   -2.3490    1.5567 H   0  0  0  0  0  0  0  0  0  0  0  0
  1  2  1  0
  2  3  1  0
  3  4  2  0
  4  5  1  0
  5  6  2  0
  6  7  1  0
  7  8  2  0
  7  9  2  0
  7 10  1  0
 10 11  1  0
 11 12  2  0
 12 13  1  0
 13 14  2  0
 14 15  1  0
 15 16  2  0
 15 17  1  0
 17 18  1  0
 18 19  1  0
 18 20  2  0
 17 21  1  0
 21 22  1  0
 22 23  1  0
  6 24  1  0
 24 25  2  0
 25 26  1  0
 26 27  1  0
 25  3  1  0
 16 11  1  0
 23 14  1  0
  1 28  1  0
  1 29  1  0
  1 30  1  0
  4 31  1  0
  5 32  1  0
 10 33  1  0
 12 34  1  0
 13 35  1  0
 16 36  1  0
 19 37  1  0
 19 38  1  0
 19 39  1  0
 21 40  1  0
 21 41  1  0
 22 42  1  0
 22 43  1  0
 23 44  1  0
 23 45  1  0
 24 46  1  0
 27 47  1  0
 27 48  1  0
 27 49  1  0
M  END
$$$$
