
     RDKit          3D

 39 42  0  0  0  0  0  0  0  0999 V2000
   -4.6484   -0.7329    1.7234 O   0  0  0  0  0  0  0  0  0  0  0  0
   -5.1842   -1.3523    0.8192 C   0  0  0  0  0  0  0  0  0  0  0  0
   -4.9597   -2.6655    0.6392 O   0  0  0  0  0  0  0  0  0  0  0  0
   -6.1003   -0.7728   -0.2152 C   0  0  0  0  0  0  0  0  0  0  0  0
   -5.3220   -0.3513   -1.4559 C   0  0  0  0  0  0  0  0  0  0  0  0
   -4.4657    0.8187   -1.2226 N   0  0  0  0  0  0  0  0  0  0  0  0
   -3.1417    0.6119   -0.8585 C   0  0  0  0  0  0  0  0  0  0  0  0
   -2.6069   -0.4858   -0.7968 O   0  0  0  0  0  0  0  0  0  0  0  0
   -2.4623    1.9111   -0.5853 C   0  0  0  0  0  0  0  0  0  0  0  0
   -1.2208    2.1561   -0.1443 C   0  0  0  0  0  0  0  0  0  0  0  0
   -0.2551    1.1887    0.2399 C   0  0  0  0  0  0  0  0  0  0  0  0
   -0.3647    0.0203    0.9803 C   0  0  0  0  0  0  0  0  0  0  0  0
    0.9279   -0.5404    1.1016 C   0  0  0  0  0  0  0  0  0  0  0  0
    1.8019    0.3110    0.4541 C   0  0  0  0  0  0  0  0  0  0  0  0
    3.2258    0.1750    0.3089 C   0  0  0  0  0  0  0  0  0  0  0  0
    3.8903   -0.8401    0.8204 N   0  0  0  0  0  0  0  0  0  0  0  0
    5.2380   -0.7141    0.5278 C   0  0  0  0  0  0  0  0  0  0  0  0
    6.2541   -1.6129    0.9114 C   0  0  0  0  0  0  0  0  0  0  0  0
    7.5807   -1.3613    0.5461 C   0  0  0  0  0  0  0  0  0  0  0  0
    7.9049   -0.2288   -0.1941 C   0  0  0  0  0  0  0  0  0  0  0  0
    6.9158    0.6784   -0.5871 C   0  0  0  0  0  0  0  0  0  0  0  0
    5.5869    0.4156   -0.2146 C   0  0  0  0  0  0  0  0  0  0  0  0
    4.1656    1.3292   -0.5422 S   0  0  0  0  0  0  0  0  0  0  0  0
    1.0798    1.3624   -0.0476 O   0  0  0  0  0  0  0  0  0  0  0  0
   -3.5506    3.2075   -0.9551 S   0  0  0  0  0  0  0  0  0  0  0  0
   -4.8850    2.1278   -1.3204 C   0  0  0  0  0  0  0  0  0  0  0  0
   -6.4012    2.6970   -1.7206 S   0  0  0  0  0  0  0  0  0  0  0  0
   -4.2929   -2.8971    1.3204 H   0  0  0  0  0  0  0  0  0  0  0  0
   -6.6408    0.0648    0.2382 H   0  0  0  0  0  0  0  0  0  0  0  0
   -6.8529   -1.5266   -0.4742 H   0  0  0  0  0  0  0  0  0  0  0  0
   -4.7032   -1.1833   -1.8127 H   0  0  0  0  0  0  0  0  0  0  0  0
   -6.0267   -0.1188   -2.2610 H   0  0  0  0  0  0  0  0  0  0  0  0
   -0.8786    3.1864   -0.0747 H   0  0  0  0  0  0  0  0  0  0  0  0
   -1.2803   -0.3857    1.3901 H   0  0  0  0  0  0  0  0  0  0  0  0
    1.2034   -1.4561    1.6071 H   0  0  0  0  0  0  0  0  0  0  0  0
    5.9970   -2.4954    1.4889 H   0  0  0  0  0  0  0  0  0  0  0  0
    8.3613   -2.0575    0.8442 H   0  0  0  0  0  0  0  0  0  0  0  0
    8.9408   -0.0448   -0.4718 H   0  0  0  0  0  0  0  0  0  0  0  0
    7.1699    1.5619   -1.1648 H   0  0  0  0  0  0  0  0  0  0  0  0
  1  2  2  0
  2  3  1  0
  2  4  1  0
  4  5  1  0
  5  6  1  0
  6  7  1  0
  7  8  2  0
  7  9  1  0
  9 10  2  3
 10 11  1  0
 11 12  2  0
 12 13  1  0
 13 14  2  0
 14 15  1  0
 15 16  2  0
 16 17  1  0
 17 18  2  0
 18 19  1  0
 19 20  2  0
 20 21  1  0
 21 22  2  0
 22 23  1  0
 14 24  1  0
  9 25  1  0
 25 26  1  0
 26 27  2  0
 26  6  1  0
 24 11  1  0
 23 15  1  0
 22 17  1  0
  3 28  1  0
  4 29  1  0
  4 30  1  0
  5 31  1  0
  5 32  1  0
 10 33  1  0
 12 34  1  0
 13 35  1  0
 18 36  1  0
 19 37  1  0
 20 38  1  0
 21 39  1  0
M  END
$$$$
