
     RDKit          3D

 34 35  0  0  0  0  0  0  0  0999 V2000
    5.2907    0.6169   -0.5519 C   0  0  0  0  0  0  0  0  0  0  0  0
    4.2658    1.5481    0.0706 C   0  0  0  0  0  0  0  0  0  0  0  0
    3.1076    0.8305    0.5739 N   0  0  0  0  0  0  0  0  0  0  0  0
    3.1529    0.3362    1.8253 N   0  0  0  0  0  0  0  0  0  0  0  0
    1.9628   -0.2429    1.9830 C   0  0  0  0  0  0  0  0  0  0  0  0
    1.1460   -0.1188    0.8398 C   0  0  0  0  0  0  0  0  0  0  0  0
   -0.1855   -0.5869    0.6271 C   0  0  0  0  0  0  0  0  0  0  0  0
   -0.9025   -1.3108    1.5017 C   0  0  0  0  0  0  0  0  0  0  0  0
   -2.2781   -1.8107    1.2416 C   0  0  0  0  0  0  0  0  0  0  0  0
   -2.6382   -2.8687    1.7494 O   0  0  0  0  0  0  0  0  0  0  0  0
   -3.2142   -1.0434    0.3847 C   0  0  0  0  0  0  0  0  0  0  0  0
   -4.0799   -1.7548   -0.4543 C   0  0  0  0  0  0  0  0  0  0  0  0
   -4.9853   -1.0700   -1.2659 C   0  0  0  0  0  0  0  0  0  0  0  0
   -5.0375    0.3234   -1.2307 C   0  0  0  0  0  0  0  0  0  0  0  0
   -4.1927    1.0350   -0.3783 C   0  0  0  0  0  0  0  0  0  0  0  0
   -3.2849    0.3545    0.4357 C   0  0  0  0  0  0  0  0  0  0  0  0
    1.9173    0.5815   -0.0725 C   0  0  0  0  0  0  0  0  0  0  0  0
    1.6510    1.0343   -1.4634 C   0  0  0  0  0  0  0  0  0  0  0  0
    4.8629    0.0620   -1.3933 H   0  0  0  0  0  0  0  0  0  0  0  0
    5.6550   -0.1140    0.1779 H   0  0  0  0  0  0  0  0  0  0  0  0
    6.1486    1.1879   -0.9199 H   0  0  0  0  0  0  0  0  0  0  0  0
    4.7054    2.0966    0.9116 H   0  0  0  0  0  0  0  0  0  0  0  0
    3.9211    2.2890   -0.6574 H   0  0  0  0  0  0  0  0  0  0  0  0
    1.7463   -0.7247    2.9274 H   0  0  0  0  0  0  0  0  0  0  0  0
   -0.6337   -0.3403   -0.3321 H   0  0  0  0  0  0  0  0  0  0  0  0
   -0.4879   -1.6534    2.4440 H   0  0  0  0  0  0  0  0  0  0  0  0
   -4.0508   -2.8425   -0.4748 H   0  0  0  0  0  0  0  0  0  0  0  0
   -5.6548   -1.6242   -1.9193 H   0  0  0  0  0  0  0  0  0  0  0  0
   -5.7477    0.8551   -1.8598 H   0  0  0  0  0  0  0  0  0  0  0  0
   -4.2498    2.1203   -0.3404 H   0  0  0  0  0  0  0  0  0  0  0  0
   -2.6547    0.9236    1.1143 H   0  0  0  0  0  0  0  0  0  0  0  0
    0.7660    0.5513   -1.8868 H   0  0  0  0  0  0  0  0  0  0  0  0
    2.4923    0.7969   -2.1222 H   0  0  0  0  0  0  0  0  0  0  0  0
    1.4866    2.1164   -1.4850 H   0  0  0  0  0  0  0  0  0  0  0  0
  1  2  1  0
  2  3  1  0
  3  4  1  0
  4  5  2  0
  5  6  1  0
  6  7  1  0
  7  8  2  3
  8  9  1  0
  9 10  2  0
  9 11  1  0
 11 12  2  0
 12 13  1  0
 13 14  2  0
 14 15  1  0
 15 16  2  0
  6 17  2  0
 17 18  1  0
 17  3  1  0
 16 11  1  0
  1 19  1  0
  1 20  1  0
  1 21  1  0
  2 22  1  0
  2 23  1  0
  5 24  1  0
  7 25  1  0
  8 26  1  0
 12 27  1  0
 13 28  1  0
 14 29  1  0
 15 30  1  0
 16 31  1  0
 18 32  1  0
 18 33  1  0
 18 34  1  0
M  END
$$$$
