
     RDKit          3D

 29 30  0  0  0  0  0  0  0  0999 V2000
   -0.0900    2.9569    1.2429 C   0  0  0  0  0  0  0  0  0  0  0  0
    0.9531    3.1373    0.4197 C   0  0  0  0  0  0  0  0  0  0  0  0
    1.5088    2.1935   -0.6180 C   0  0  0  0  0  0  0  0  0  0  0  0
    0.8526    0.8867   -0.6041 N   0  0  0  0  0  0  0  0  0  0  0  0
    1.2096   -0.1448    0.2493 C   0  0  0  0  0  0  0  0  0  0  0  0
    2.5344    0.1048    1.3747 S   0  0  0  0  0  0  0  0  0  0  0  0
    1.9057   -0.8410    2.7957 C   0  0  0  0  0  0  0  0  0  0  0  0
    0.6490   -0.3098    3.3421 C   0  0  0  0  0  0  0  0  0  0  0  0
   -0.3407    0.1112    3.7806 N   0  0  0  0  0  0  0  0  0  0  0  0
    0.6419   -1.3058    0.2736 N   0  0  0  0  0  0  0  0  0  0  0  0
   -0.4209   -1.5470   -0.6008 C   0  0  0  0  0  0  0  0  0  0  0  0
   -1.0570   -2.7904   -0.5642 C   0  0  0  0  0  0  0  0  0  0  0  0
   -2.1244   -3.0694   -1.4223 C   0  0  0  0  0  0  0  0  0  0  0  0
   -2.5645   -2.1036   -2.3264 C   0  0  0  0  0  0  0  0  0  0  0  0
   -1.9367   -0.8596   -2.3714 C   0  0  0  0  0  0  0  0  0  0  0  0
   -0.8688   -0.5912   -1.5062 C   0  0  0  0  0  0  0  0  0  0  0  0
   -0.1804    0.7103   -1.5245 C   0  0  0  0  0  0  0  0  0  0  0  0
   -0.5376    1.5564   -2.3413 O   0  0  0  0  0  0  0  0  0  0  0  0
   -0.6914    2.0536    1.2495 H   0  0  0  0  0  0  0  0  0  0  0  0
   -0.3799    3.7341    1.9449 H   0  0  0  0  0  0  0  0  0  0  0  0
    1.4825    4.0871    0.4847 H   0  0  0  0  0  0  0  0  0  0  0  0
    2.5851    2.0736   -0.4599 H   0  0  0  0  0  0  0  0  0  0  0  0
    1.4013    2.6635   -1.6022 H   0  0  0  0  0  0  0  0  0  0  0  0
    2.6772   -0.8015    3.5721 H   0  0  0  0  0  0  0  0  0  0  0  0
    1.7965   -1.8955    2.5229 H   0  0  0  0  0  0  0  0  0  0  0  0
   -0.7189   -3.5466    0.1397 H   0  0  0  0  0  0  0  0  0  0  0  0
   -2.6122   -4.0405   -1.3825 H   0  0  0  0  0  0  0  0  0  0  0  0
   -3.3957   -2.3186   -2.9938 H   0  0  0  0  0  0  0  0  0  0  0  0
   -2.2786   -0.1034   -3.0746 H   0  0  0  0  0  0  0  0  0  0  0  0
  1  2  2  0
  2  3  1  0
  3  4  1  0
  4  5  1  0
  5  6  1  0
  6  7  1  0
  7  8  1  0
  8  9  3  0
  5 10  2  0
 10 11  1  0
 11 12  2  0
 12 13  1  0
 13 14  2  0
 14 15  1  0
 15 16  2  0
 16 17  1  0
 17 18  2  0
 17  4  1  0
 16 11  1  0
  1 19  1  0
  1 20  1  0
  2 21  1  0
  3 22  1  0
  3 23  1  0
  7 24  1  0
  7 25  1  0
 12 26  1  0
 13 27  1  0
 14 28  1  0
 15 29  1  0
M  END
$$$$
