
     RDKit          3D

 44 46  0  0  0  0  0  0  0  0999 V2000
   -4.8305   -2.8408   -2.6665 C   0  0  0  0  0  0  0  0  0  0  0  0
   -4.2406   -2.0506   -1.5350 C   0  0  0  0  0  0  0  0  0  0  0  0
   -4.9279   -0.9482   -1.0081 C   0  0  0  0  0  0  0  0  0  0  0  0
   -4.3686   -0.1931    0.0238 C   0  0  0  0  0  0  0  0  0  0  0  0
   -3.1067   -0.5324    0.5177 C   0  0  0  0  0  0  0  0  0  0  0  0
   -2.4005    0.4271    1.8320 S   0  0  0  0  0  6  0  0  0  0  0  0
   -3.4837    0.8137    2.7123 O   0  0  0  0  0  0  0  0  0  0  0  0
   -1.2346   -0.2605    2.3435 O   0  0  0  0  0  0  0  0  0  0  0  0
   -1.9166    1.8437    1.0411 N   0  0  0  0  0  0  0  0  0  0  0  0
   -0.6714    1.8280    0.3541 C   0  0  0  0  0  0  0  0  0  0  0  0
   -0.6099    1.3498   -0.9540 C   0  0  0  0  0  0  0  0  0  0  0  0
    0.6170    1.2825   -1.6253 C   0  0  0  0  0  0  0  0  0  0  0  0
    0.6808    0.7684   -3.0348 C   0  0  0  0  0  0  0  0  0  0  0  0
    1.7783    1.6924   -0.9543 C   0  0  0  0  0  0  0  0  0  0  0  0
    2.9612    1.5933   -1.6411 O   0  0  0  0  0  0  0  0  0  0  0  0
    1.7263    2.1801    0.3633 C   0  0  0  0  0  0  0  0  0  0  0  0
    3.1516    2.8166    1.2364 S   0  0  0  0  0  0  0  0  0  0  0  0
    4.1054    1.3810    1.4742 C   0  0  0  0  0  0  0  0  0  0  0  0
    4.6297    0.7135    0.4383 N   0  0  0  0  0  0  0  0  0  0  0  0
    5.2749   -0.2833    1.0698 N   0  0  0  0  0  0  0  0  0  0  0  0
    5.1473   -0.1787    2.4259 C   0  0  0  0  0  0  0  0  0  0  0  0
    5.7583   -1.1370    3.3693 C   0  0  0  0  0  0  0  0  0  0  0  0
    4.4174    0.8792    2.7046 N   0  0  0  0  0  0  0  0  0  0  0  0
    0.4867    2.2397    1.0127 C   0  0  0  0  0  0  0  0  0  0  0  0
   -2.4095   -1.6279    0.0031 C   0  0  0  0  0  0  0  0  0  0  0  0
   -2.9746   -2.3778   -1.0295 C   0  0  0  0  0  0  0  0  0  0  0  0
   -4.5106   -3.8871   -2.6200 H   0  0  0  0  0  0  0  0  0  0  0  0
   -5.9245   -2.8338   -2.6199 H   0  0  0  0  0  0  0  0  0  0  0  0
   -4.5142   -2.4155   -3.6239 H   0  0  0  0  0  0  0  0  0  0  0  0
   -5.9071   -0.6751   -1.3966 H   0  0  0  0  0  0  0  0  0  0  0  0
   -4.9155    0.6530    0.4334 H   0  0  0  0  0  0  0  0  0  0  0  0
   -2.1292    2.6601    1.6138 H   0  0  0  0  0  0  0  0  0  0  0  0
   -1.5205    1.0401   -1.4609 H   0  0  0  0  0  0  0  0  0  0  0  0
    1.1007    1.5309   -3.6987 H   0  0  0  0  0  0  0  0  0  0  0  0
   -0.3139    0.5109   -3.4137 H   0  0  0  0  0  0  0  0  0  0  0  0
    1.2982   -0.1345   -3.0809 H   0  0  0  0  0  0  0  0  0  0  0  0
    3.6801    1.5047   -0.9778 H   0  0  0  0  0  0  0  0  0  0  0  0
    5.7718   -0.9818    0.5274 H   0  0  0  0  0  0  0  0  0  0  0  0
    5.3463   -2.1398    3.2206 H   0  0  0  0  0  0  0  0  0  0  0  0
    6.8426   -1.1814    3.2277 H   0  0  0  0  0  0  0  0  0  0  0  0
    5.5620   -0.8381    4.4035 H   0  0  0  0  0  0  0  0  0  0  0  0
    0.4263    2.5985    2.0372 H   0  0  0  0  0  0  0  0  0  0  0  0
   -1.4294   -1.8971    0.3911 H   0  0  0  0  0  0  0  0  0  0  0  0
   -2.4229   -3.2232   -1.4359 H   0  0  0  0  0  0  0  0  0  0  0  0
  1  2  1  0
  2  3  2  0
  3  4  1  0
  4  5  2  0
  5  6  1  0
  6  7  2  0
  6  8  2  0
  6  9  1  0
  9 10  1  0
 10 11  2  0
 11 12  1  0
 12 13  1  0
 12 14  2  0
 14 15  1  0
 14 16  1  0
 16 17  1  0
 17 18  1  0
 18 19  2  0
 19 20  1  0
 20 21  1  0
 21 22  1  0
 21 23  2  0
 16 24  2  0
  5 25  1  0
 25 26  2  0
 26  2  1  0
 24 10  1  0
 23 18  1  0
  1 27  1  0
  1 28  1  0
  1 29  1  0
  3 30  1  0
  4 31  1  0
  9 32  1  0
 11 33  1  0
 13 34  1  0
 13 35  1  0
 13 36  1  0
 15 37  1  0
 20 38  1  0
 22 39  1  0
 22 40  1  0
 22 41  1  0
 24 42  1  0
 25 43  1  0
 26 44  1  0
M  END
$$$$
