
     RDKit          3D

 43 47  0  0  0  0  0  0  0  0999 V2000
    2.2758   -1.7180    0.8621 O   0  0  0  0  0  0  0  0  0  0  0  0
    1.6995   -1.3007   -0.1373 C   0  0  0  0  0  0  0  0  0  0  0  0
    0.4373   -1.9719   -0.6394 C   0  0  0  0  0  0  0  0  0  0  0  0
   -0.7368   -1.5840    0.1298 N   0  0  0  0  0  0  0  0  0  0  0  0
   -1.2816   -2.3194    1.1761 C   0  0  0  0  0  0  0  0  0  0  0  0
   -0.8260   -3.4805    1.8250 C   0  0  0  0  0  0  0  0  0  0  0  0
   -1.6136   -4.0097    2.8519 C   0  0  0  0  0  0  0  0  0  0  0  0
   -2.8072   -3.4003    3.2141 C   0  0  0  0  0  0  0  0  0  0  0  0
   -3.5400   -3.9337    4.2013 F   0  0  0  0  0  0  0  0  0  0  0  0
   -3.2588   -2.2453    2.5813 C   0  0  0  0  0  0  0  0  0  0  0  0
   -2.4800   -1.6910    1.5487 C   0  0  0  0  0  0  0  0  0  0  0  0
   -2.6011   -0.5580    0.7222 C   0  0  0  0  0  0  0  0  0  0  0  0
   -3.6394    0.3783    0.7292 N   0  0  0  0  0  0  0  0  0  0  0  0
   -3.4483    1.3366   -0.1164 C   0  0  0  0  0  0  0  0  0  0  0  0
   -2.3740    1.5131   -0.9684 N   0  0  0  0  0  0  0  0  0  0  0  0
   -1.3482    0.5955   -1.0454 C   0  0  0  0  0  0  0  0  0  0  0  0
   -0.3909    0.6977   -1.8094 O   0  0  0  0  0  0  0  0  0  0  0  0
   -1.5219   -0.4814   -0.1172 C   0  0  0  0  0  0  0  0  0  0  0  0
   -2.4751    2.6444   -1.8604 C   0  0  0  0  0  0  0  0  0  0  0  0
   -3.4098    3.6588   -1.2296 C   0  0  0  0  0  0  0  0  0  0  0  0
   -4.5949    2.6418   -0.3097 S   0  0  0  0  0  0  0  0  0  0  0  0
    2.0595   -0.1960   -0.8920 N   0  0  0  0  0  0  0  0  0  0  0  0
    3.2395    0.5686   -0.7612 C   0  0  0  0  0  0  0  0  0  0  0  0
    3.2021    1.8743   -1.2720 C   0  0  0  0  0  0  0  0  0  0  0  0
    4.3197    2.7103   -1.1816 C   0  0  0  0  0  0  0  0  0  0  0  0
    5.4946    2.2455   -0.5951 C   0  0  0  0  0  0  0  0  0  0  0  0
    5.5551    0.9393   -0.1151 C   0  0  0  0  0  0  0  0  0  0  0  0
    4.4387    0.1068   -0.2055 C   0  0  0  0  0  0  0  0  0  0  0  0
    4.5941   -1.1674    0.1776 F   0  0  0  0  0  0  0  0  0  0  0  0
    0.5628   -3.0576   -0.5764 H   0  0  0  0  0  0  0  0  0  0  0  0
    0.2499   -1.7490   -1.6946 H   0  0  0  0  0  0  0  0  0  0  0  0
    0.1154   -3.9532    1.5596 H   0  0  0  0  0  0  0  0  0  0  0  0
   -1.2924   -4.9029    3.3799 H   0  0  0  0  0  0  0  0  0  0  0  0
   -4.1897   -1.7805    2.8877 H   0  0  0  0  0  0  0  0  0  0  0  0
   -2.8757    2.2782   -2.8140 H   0  0  0  0  0  0  0  0  0  0  0  0
   -1.4862    3.0706   -2.0602 H   0  0  0  0  0  0  0  0  0  0  0  0
   -3.9003    4.2943   -1.9714 H   0  0  0  0  0  0  0  0  0  0  0  0
   -2.8713    4.2913   -0.5167 H   0  0  0  0  0  0  0  0  0  0  0  0
    1.3152    0.2234   -1.4523 H   0  0  0  0  0  0  0  0  0  0  0  0
    2.2959    2.2638   -1.7298 H   0  0  0  0  0  0  0  0  0  0  0  0
    4.2712    3.7254   -1.5687 H   0  0  0  0  0  0  0  0  0  0  0  0
    6.3652    2.8926   -0.5249 H   0  0  0  0  0  0  0  0  0  0  0  0
    6.4716    0.5501    0.3180 H   0  0  0  0  0  0  0  0  0  0  0  0
  1  2  2  0
  2  3  1  0
  3  4  1  0
  4  5  1  0
  5  6  2  0
  6  7  1  0
  7  8  2  0
  8  9  1  0
  8 10  1  0
 10 11  2  0
 11 12  1  0
 12 13  1  0
 13 14  2  0
 14 15  1  0
 15 16  1  0
 16 17  2  0
 16 18  1  0
 15 19  1  0
 19 20  1  0
 20 21  1  0
  2 22  1  0
 22 23  1  0
 23 24  2  0
 24 25  1  0
 25 26  2  0
 26 27  1  0
 27 28  2  0
 28 29  1  0
 18  4  1  0
 28 23  1  0
 11  5  1  0
 18 12  2  0
 21 14  1  0
  3 30  1  0
  3 31  1  0
  6 32  1  0
  7 33  1  0
 10 34  1  0
 19 35  1  0
 19 36  1  0
 20 37  1  0
 20 38  1  0
 22 39  1  0
 24 40  1  0
 25 41  1  0
 26 42  1  0
 27 43  1  0
M  END
$$$$
