
     RDKit          3D

 64 69  0  0  0  0  0  0  0  0999 V2000
   -2.4686   -4.3831   -1.7040 C   0  0  0  0  0  0  0  0  0  0  0  0
   -1.9524   -3.1620   -1.1839 O   0  0  0  0  0  0  0  0  0  0  0  0
   -1.3554   -3.2056    0.0474 C   0  0  0  0  0  0  0  0  0  0  0  0
   -1.4982   -4.2653    0.9505 C   0  0  0  0  0  0  0  0  0  0  0  0
   -0.8817   -4.2179    2.2038 C   0  0  0  0  0  0  0  0  0  0  0  0
   -0.1225   -3.1114    2.5676 C   0  0  0  0  0  0  0  0  0  0  0  0
    0.0212   -2.0494    1.6779 C   0  0  0  0  0  0  0  0  0  0  0  0
   -0.5942   -2.0796    0.4126 C   0  0  0  0  0  0  0  0  0  0  0  0
   -0.3828   -0.9059   -0.5278 C   0  0  0  0  0  0  0  0  0  0  0  0
   -0.8354    0.3791    0.0312 N   0  0  0  0  0  0  0  0  0  0  0  0
   -0.3470    1.5260   -0.7530 C   0  0  0  0  0  0  0  0  0  0  0  0
    1.0658    1.9010   -0.3879 C   0  0  0  0  0  0  0  0  0  0  0  0
    2.1294    1.6250   -1.1645 C   0  0  0  0  0  0  0  0  0  0  0  0
    3.4802    2.0104   -0.7576 C   0  0  0  0  0  0  0  0  0  0  0  0
    4.5963    1.6945   -1.5367 C   0  0  0  0  0  0  0  0  0  0  0  0
    5.8701    2.0639   -1.1030 C   0  0  0  0  0  0  0  0  0  0  0  0
    6.0310    2.7776    0.0918 C   0  0  0  0  0  0  0  0  0  0  0  0
    4.9241    3.0854    0.8802 C   0  0  0  0  0  0  0  0  0  0  0  0
    3.6547    2.7003    0.4498 C   0  0  0  0  0  0  0  0  0  0  0  0
    2.5334    3.0106    1.2244 N   0  0  0  0  0  0  0  0  0  0  0  0
    1.2490    2.6760    0.8797 C   0  0  0  0  0  0  0  0  0  0  0  0
    0.3063    3.0186    1.5865 O   0  0  0  0  0  0  0  0  0  0  0  0
    7.2519    3.2005    0.5550 O   0  0  0  0  0  0  0  0  0  0  0  0
    8.2506    3.1376   -0.4711 C   0  0  0  0  0  0  0  0  0  0  0  0
    8.1715    1.8134   -1.2140 C   0  0  0  0  0  0  0  0  0  0  0  0
    6.9216    1.6972   -1.9057 O   0  0  0  0  0  0  0  0  0  0  0  0
   -2.2940    0.4452    0.2443 C   0  0  0  0  0  0  0  0  0  0  0  0
   -3.1375    0.2179   -0.9662 C   0  0  0  0  0  0  0  0  0  0  0  0
   -3.0275    0.7942   -2.1490 N   0  0  0  0  0  0  0  0  0  0  0  0
   -4.0183    0.2660   -2.9359 N   0  0  0  0  0  0  0  0  0  0  0  0
   -4.7414   -0.6132   -2.2617 N   0  0  0  0  0  0  0  0  0  0  0  0
   -4.2026   -0.6417   -1.0271 N   0  0  0  0  0  0  0  0  0  0  0  0
   -4.7619   -1.5012   -0.0082 C   0  0  0  0  0  0  0  0  0  0  0  0
   -5.6602   -0.7274    0.8825 C   0  0  0  0  0  0  0  0  0  0  0  0
   -6.9583   -0.2741    0.7649 C   0  0  0  0  0  0  0  0  0  0  0  0
   -7.2508    0.4134    1.9674 C   0  0  0  0  0  0  0  0  0  0  0  0
   -6.1147    0.3394    2.7392 C   0  0  0  0  0  0  0  0  0  0  0  0
   -5.1452   -0.3549    2.0906 O   0  0  0  0  0  0  0  0  0  0  0  0
   -1.7137   -5.1766   -1.6927 H   0  0  0  0  0  0  0  0  0  0  0  0
   -3.3695   -4.6838   -1.1597 H   0  0  0  0  0  0  0  0  0  0  0  0
   -2.7546   -4.2098   -2.7457 H   0  0  0  0  0  0  0  0  0  0  0  0
   -2.0922   -5.1417    0.7150 H   0  0  0  0  0  0  0  0  0  0  0  0
   -0.9988   -5.0464    2.8985 H   0  0  0  0  0  0  0  0  0  0  0  0
    0.3561   -3.0713    3.5424 H   0  0  0  0  0  0  0  0  0  0  0  0
    0.6129   -1.1829    1.9698 H   0  0  0  0  0  0  0  0  0  0  0  0
    0.6991   -0.8745   -0.7108 H   0  0  0  0  0  0  0  0  0  0  0  0
   -0.8292   -1.0869   -1.5123 H   0  0  0  0  0  0  0  0  0  0  0  0
   -0.9728    2.4135   -0.5849 H   0  0  0  0  0  0  0  0  0  0  0  0
   -0.4221    1.3227   -1.8300 H   0  0  0  0  0  0  0  0  0  0  0  0
    2.0122    1.0880   -2.0999 H   0  0  0  0  0  0  0  0  0  0  0  0
    4.4889    1.1529   -2.4728 H   0  0  0  0  0  0  0  0  0  0  0  0
    5.0615    3.6274    1.8110 H   0  0  0  0  0  0  0  0  0  0  0  0
    2.6324    3.5284    2.0863 H   0  0  0  0  0  0  0  0  0  0  0  0
    8.1080    3.9888   -1.1498 H   0  0  0  0  0  0  0  0  0  0  0  0
    9.2278    3.2443    0.0116 H   0  0  0  0  0  0  0  0  0  0  0  0
    8.2696    0.9625   -0.5282 H   0  0  0  0  0  0  0  0  0  0  0  0
    8.9707    1.7474   -1.9586 H   0  0  0  0  0  0  0  0  0  0  0  0
   -2.5530   -0.2618    1.0390 H   0  0  0  0  0  0  0  0  0  0  0  0
   -2.5553    1.4250    0.6657 H   0  0  0  0  0  0  0  0  0  0  0  0
   -5.3101   -2.3099   -0.5043 H   0  0  0  0  0  0  0  0  0  0  0  0
   -3.9416   -1.9580    0.5505 H   0  0  0  0  0  0  0  0  0  0  0  0
   -7.6103   -0.4157   -0.0878 H   0  0  0  0  0  0  0  0  0  0  0  0
   -8.1730    0.9092    2.2370 H   0  0  0  0  0  0  0  0  0  0  0  0
   -5.8494    0.7093    3.7209 H   0  0  0  0  0  0  0  0  0  0  0  0
  1  2  1  0
  2  3  1  0
  3  4  2  0
  4  5  1  0
  5  6  2  0
  6  7  1  0
  7  8  2  0
  8  9  1  0
  9 10  1  0
 10 11  1  0
 11 12  1  0
 12 13  2  0
 13 14  1  0
 14 15  2  0
 15 16  1  0
 16 17  2  0
 17 18  1  0
 18 19  2  0
 19 20  1  0
 20 21  1  0
 21 22  2  0
 17 23  1  0
 23 24  1  0
 24 25  1  0
 25 26  1  0
 10 27  1  0
 27 28  1  0
 28 29  2  0
 29 30  1  0
 30 31  2  0
 31 32  1  0
 32 33  1  0
 33 34  1  0
 34 35  2  0
 35 36  1  0
 36 37  2  0
 37 38  1  0
  8  3  1  0
 21 12  1  0
 32 28  1  0
 38 34  1  0
 19 14  1  0
 26 16  1  0
  1 39  1  0
  1 40  1  0
  1 41  1  0
  4 42  1  0
  5 43  1  0
  6 44  1  0
  7 45  1  0
  9 46  1  0
  9 47  1  0
 11 48  1  0
 11 49  1  0
 13 50  1  0
 15 51  1  0
 18 52  1  0
 20 53  1  0
 24 54  1  0
 24 55  1  0
 25 56  1  0
 25 57  1  0
 27 58  1  0
 27 59  1  0
 33 60  1  0
 33 61  1  0
 35 62  1  0
 36 63  1  0
 37 64  1  0
M  END
$$$$
