
     RDKit          3D

 37 38  0  0  0  0  0  0  0  0999 V2000
   -5.2583    0.0934   -1.8939 C   0  0  0  0  0  0  0  0  0  0  0  0
   -4.3378   -0.1753   -0.7627 N   0  0  0  0  0  0  0  0  0  0  0  0
   -4.9588   -1.0831    0.2284 C   0  0  0  0  0  0  0  0  0  0  0  0
   -3.6513    1.2543   -0.1162 S   0  0  0  0  0  6  0  0  0  0  0  0
   -3.0898    2.0112   -1.2170 O   0  0  0  0  0  0  0  0  0  0  0  0
   -4.6317    1.8664    0.7499 O   0  0  0  0  0  0  0  0  0  0  0  0
   -2.2719    0.6353    0.8189 C   0  0  0  0  0  0  0  0  0  0  0  0
   -1.1106    0.3287    0.0839 C   0  0  0  0  0  0  0  0  0  0  0  0
    0.0589   -0.1147    0.7227 C   0  0  0  0  0  0  0  0  0  0  0  0
    1.2186   -0.4228   -0.1557 C   0  0  0  0  0  0  0  0  0  0  0  0
    0.9925   -1.0065   -1.2104 O   0  0  0  0  0  0  0  0  0  0  0  0
    2.4361    0.0314    0.2829 N   0  0  0  0  0  0  0  0  0  0  0  0
    3.6274   -0.1122   -0.3840 C   0  0  0  0  0  0  0  0  0  0  0  0
    3.9019   -0.7171   -1.6292 C   0  0  0  0  0  0  0  0  0  0  0  0
    5.2583   -0.5758   -1.8081 C   0  0  0  0  0  0  0  0  0  0  0  0
    5.7082    0.0812   -0.7038 N   0  0  0  0  0  0  0  0  0  0  0  0
    7.0683    0.4667   -0.4169 C   0  0  0  0  0  0  0  0  0  0  0  0
    4.7361    0.3767    0.1782 N   0  0  0  0  0  0  0  0  0  0  0  0
    0.0562   -0.2669    2.1111 C   0  0  0  0  0  0  0  0  0  0  0  0
    1.4060   -0.8698    3.0027 Cl  0  0  0  0  0  0  0  0  0  0  0  0
   -1.0997    0.0380    2.8409 C   0  0  0  0  0  0  0  0  0  0  0  0
   -2.2659    0.4912    2.2051 C   0  0  0  0  0  0  0  0  0  0  0  0
   -3.6164    0.7682    3.2392 Cl  0  0  0  0  0  0  0  0  0  0  0  0
   -5.6149   -0.8511   -2.3178 H   0  0  0  0  0  0  0  0  0  0  0  0
   -4.7378    0.6249   -2.6958 H   0  0  0  0  0  0  0  0  0  0  0  0
   -6.1236    0.6767   -1.5649 H   0  0  0  0  0  0  0  0  0  0  0  0
   -5.7945   -0.5989    0.7416 H   0  0  0  0  0  0  0  0  0  0  0  0
   -4.2208   -1.4231    0.9585 H   0  0  0  0  0  0  0  0  0  0  0  0
   -5.3375   -1.9793   -0.2745 H   0  0  0  0  0  0  0  0  0  0  0  0
   -1.1126    0.4374   -1.0029 H   0  0  0  0  0  0  0  0  0  0  0  0
    2.5409    0.4991    1.1727 H   0  0  0  0  0  0  0  0  0  0  0  0
    3.2085   -1.1932   -2.3080 H   0  0  0  0  0  0  0  0  0  0  0  0
    5.9157   -0.8820   -2.6093 H   0  0  0  0  0  0  0  0  0  0  0  0
    7.7176    0.1482   -1.2361 H   0  0  0  0  0  0  0  0  0  0  0  0
    7.3752   -0.0186    0.5129 H   0  0  0  0  0  0  0  0  0  0  0  0
    7.1038    1.5541   -0.3137 H   0  0  0  0  0  0  0  0  0  0  0  0
   -1.0962   -0.0924    3.9230 H   0  0  0  0  0  0  0  0  0  0  0  0
  1  2  1  0
  2  3  1  0
  2  4  1  0
  4  5  2  0
  4  6  2  0
  4  7  1  0
  7  8  2  0
  8  9  1  0
  9 10  1  0
 10 11  2  0
 10 12  1  0
 12 13  1  0
 13 14  1  0
 14 15  2  0
 15 16  1  0
 16 17  1  0
 16 18  1  0
  9 19  2  0
 19 20  1  0
 19 21  1  0
 21 22  2  0
 22 23  1  0
 22  7  1  0
 18 13  2  0
  1 24  1  0
  1 25  1  0
  1 26  1  0
  3 27  1  0
  3 28  1  0
  3 29  1  0
  8 30  1  0
 12 31  1  0
 14 32  1  0
 15 33  1  0
 17 34  1  0
 17 35  1  0
 17 36  1  0
 21 37  1  0
M  END
$$$$
