
     RDKit          3D

 58 59  0  0  0  0  0  0  0  0999 V2000
   10.0585   -1.3641   -1.0007 C   0  0  0  0  0  0  0  0  0  0  0  0
    8.8754   -1.8505   -0.1786 C   0  0  0  0  0  0  0  0  0  0  0  0
    8.0726   -0.7209    0.4656 C   0  0  0  0  0  0  0  0  0  0  0  0
    7.4176    0.2174   -0.5474 C   0  0  0  0  0  0  0  0  0  0  0  0
    6.5950    1.1749    0.1228 O   0  0  0  0  0  0  0  0  0  0  0  0
    5.2672    0.8976    0.2867 C   0  0  0  0  0  0  0  0  0  0  0  0
    4.5020    1.9749    0.7411 C   0  0  0  0  0  0  0  0  0  0  0  0
    3.1283    1.8356    0.9562 C   0  0  0  0  0  0  0  0  0  0  0  0
    2.5027    0.6095    0.7127 C   0  0  0  0  0  0  0  0  0  0  0  0
    1.0359    0.4994    0.9484 C   0  0  0  0  0  0  0  0  0  0  0  0
    0.4676    1.2683    1.7153 O   0  0  0  0  0  0  0  0  0  0  0  0
    0.3699   -0.4736    0.2297 N   0  0  0  0  0  0  0  0  0  0  0  0
   -1.0851   -0.5023    0.2347 C   0  0  0  0  0  0  0  0  0  0  0  0
   -1.6328    0.3651   -0.8900 C   0  0  0  0  0  0  0  0  0  0  0  0
   -1.0374    0.6019   -1.9350 O   0  0  0  0  0  0  0  0  0  0  0  0
   -2.8963    0.7818   -0.5965 O   0  0  0  0  0  0  0  0  0  0  0  0
   -3.5115    1.5122   -1.6563 C   0  0  0  0  0  0  0  0  0  0  0  0
   -4.9545    1.8611   -1.3143 C   0  0  0  0  0  0  0  0  0  0  0  0
   -5.3885    2.9937   -1.5528 O   0  0  0  0  0  0  0  0  0  0  0  0
   -5.8221    0.8304   -0.6483 C   0  0  0  0  0  0  0  0  0  0  0  0
   -6.8521    1.2056    0.1449 C   0  0  0  0  0  0  0  0  0  0  0  0
   -7.2218    2.5344    0.3145 N   0  0  0  0  0  0  0  0  0  0  0  0
   -7.5893    0.2293    0.8103 N   0  0  0  0  0  0  0  0  0  0  0  0
   -8.7840    0.6276    1.5562 C   0  0  0  0  0  0  0  0  0  0  0  0
   -7.2766   -1.1267    0.7881 C   0  0  0  0  0  0  0  0  0  0  0  0
   -7.9433   -1.9720    1.3878 O   0  0  0  0  0  0  0  0  0  0  0  0
   -6.1730   -1.4805    0.0328 N   0  0  0  0  0  0  0  0  0  0  0  0
   -5.8562   -2.8930   -0.0708 C   0  0  0  0  0  0  0  0  0  0  0  0
   -5.5490   -0.6125   -0.8329 C   0  0  0  0  0  0  0  0  0  0  0  0
   -4.8036   -0.9915   -1.7361 O   0  0  0  0  0  0  0  0  0  0  0  0
    3.2702   -0.4796    0.2818 C   0  0  0  0  0  0  0  0  0  0  0  0
    4.6476   -0.3336    0.0697 C   0  0  0  0  0  0  0  0  0  0  0  0
    9.7305   -0.8029   -1.8804 H   0  0  0  0  0  0  0  0  0  0  0  0
   10.7152   -0.7225   -0.4055 H   0  0  0  0  0  0  0  0  0  0  0  0
   10.6466   -2.2173   -1.3531 H   0  0  0  0  0  0  0  0  0  0  0  0
    9.2476   -2.5096    0.6152 H   0  0  0  0  0  0  0  0  0  0  0  0
    8.2181   -2.4582   -0.8122 H   0  0  0  0  0  0  0  0  0  0  0  0
    7.3058   -1.1602    1.1142 H   0  0  0  0  0  0  0  0  0  0  0  0
    8.7161   -0.1355    1.1346 H   0  0  0  0  0  0  0  0  0  0  0  0
    6.8774   -0.3180   -1.3369 H   0  0  0  0  0  0  0  0  0  0  0  0
    8.1960    0.7963   -1.0570 H   0  0  0  0  0  0  0  0  0  0  0  0
    4.9797    2.9339    0.9292 H   0  0  0  0  0  0  0  0  0  0  0  0
    2.5507    2.6873    1.3103 H   0  0  0  0  0  0  0  0  0  0  0  0
    0.8133   -0.7991   -0.6216 H   0  0  0  0  0  0  0  0  0  0  0  0
   -1.4631   -0.1491    1.1984 H   0  0  0  0  0  0  0  0  0  0  0  0
   -1.4032   -1.5344    0.0650 H   0  0  0  0  0  0  0  0  0  0  0  0
   -2.9679    2.4555   -1.7878 H   0  0  0  0  0  0  0  0  0  0  0  0
   -3.4972    0.9551   -2.5994 H   0  0  0  0  0  0  0  0  0  0  0  0
   -7.2736    2.8049    1.2924 H   0  0  0  0  0  0  0  0  0  0  0  0
   -6.6281    3.1895   -0.2107 H   0  0  0  0  0  0  0  0  0  0  0  0
   -9.3466   -0.2309    1.9325 H   0  0  0  0  0  0  0  0  0  0  0  0
   -9.4507    1.1992    0.9010 H   0  0  0  0  0  0  0  0  0  0  0  0
   -8.4847    1.2382    2.4148 H   0  0  0  0  0  0  0  0  0  0  0  0
   -6.5153   -3.3428   -0.8209 H   0  0  0  0  0  0  0  0  0  0  0  0
   -4.8158   -3.0382   -0.3770 H   0  0  0  0  0  0  0  0  0  0  0  0
   -6.0128   -3.3961    0.8879 H   0  0  0  0  0  0  0  0  0  0  0  0
    2.8209   -1.4573    0.1336 H   0  0  0  0  0  0  0  0  0  0  0  0
    5.2076   -1.2075   -0.2465 H   0  0  0  0  0  0  0  0  0  0  0  0
  1  2  1  0
  2  3  1  0
  3  4  1  0
  4  5  1  0
  5  6  1  0
  6  7  2  0
  7  8  1  0
  8  9  2  0
  9 10  1  0
 10 11  2  0
 10 12  1  0
 12 13  1  0
 13 14  1  0
 14 15  2  0
 14 16  1  0
 16 17  1  0
 17 18  1  0
 18 19  2  0
 18 20  1  0
 20 21  2  0
 21 22  1  0
 21 23  1  0
 23 24  1  0
 23 25  1  0
 25 26  2  0
 25 27  1  0
 27 28  1  0
 27 29  1  0
 29 30  2  0
  9 31  1  0
 31 32  2  0
 32  6  1  0
 29 20  1  0
  1 33  1  0
  1 34  1  0
  1 35  1  0
  2 36  1  0
  2 37  1  0
  3 38  1  0
  3 39  1  0
  4 40  1  0
  4 41  1  0
  7 42  1  0
  8 43  1  0
 12 44  1  0
 13 45  1  0
 13 46  1  0
 17 47  1  0
 17 48  1  0
 22 49  1  0
 22 50  1  0
 24 51  1  0
 24 52  1  0
 24 53  1  0
 28 54  1  0
 28 55  1  0
 28 56  1  0
 31 57  1  0
 32 58  1  0
M  END
$$$$
