
     RDKit          3D

 42 44  0  0  0  0  0  0  0  0999 V2000
   -8.5146   -0.2054   -0.3169 C   0  0  0  0  0  0  0  0  0  0  0  0
   -7.5715   -0.2069    0.8576 C   0  0  0  0  0  0  0  0  0  0  0  0
   -7.9930   -0.2341    2.0124 O   0  0  0  0  0  0  0  0  0  0  0  0
   -6.1005   -0.1727    0.6048 C   0  0  0  0  0  0  0  0  0  0  0  0
   -5.5634   -0.1071   -0.6836 C   0  0  0  0  0  0  0  0  0  0  0  0
   -4.1742   -0.0764   -0.8709 C   0  0  0  0  0  0  0  0  0  0  0  0
   -3.3054   -0.1135    0.2212 C   0  0  0  0  0  0  0  0  0  0  0  0
   -1.8999   -0.0806    0.1127 N   0  0  0  0  0  0  0  0  0  0  0  0
   -1.1485   -0.0977   -1.0490 C   0  0  0  0  0  0  0  0  0  0  0  0
   -1.5673   -0.2114   -2.1942 O   0  0  0  0  0  0  0  0  0  0  0  0
    0.3238   -0.0039   -0.8407 C   0  0  0  0  0  0  0  0  0  0  0  0
    1.1686   -0.7354   -1.6802 C   0  0  0  0  0  0  0  0  0  0  0  0
    2.5577   -0.6736   -1.5153 C   0  0  0  0  0  0  0  0  0  0  0  0
    3.1174    0.1293   -0.5198 C   0  0  0  0  0  0  0  0  0  0  0  0
    4.4994    0.2494   -0.2887 N   0  0  0  0  0  0  0  0  0  0  0  0
    5.5411   -0.3822   -0.9464 C   0  0  0  0  0  0  0  0  0  0  0  0
    5.4214   -1.1844   -1.8660 O   0  0  0  0  0  0  0  0  0  0  0  0
    6.8412    0.0037   -0.4250 C   0  0  0  0  0  0  0  0  0  0  0  0
    8.1182   -0.3802   -0.7885 C   0  0  0  0  0  0  0  0  0  0  0  0
    9.0114    0.3139    0.0618 C   0  0  0  0  0  0  0  0  0  0  0  0
    8.2304    1.0798    0.8940 C   0  0  0  0  0  0  0  0  0  0  0  0
    6.9138    0.9021    0.6113 O   0  0  0  0  0  0  0  0  0  0  0  0
    2.2664    0.8772    0.3057 C   0  0  0  0  0  0  0  0  0  0  0  0
    0.8771    0.8164    0.1477 C   0  0  0  0  0  0  0  0  0  0  0  0
   -3.8467   -0.1750    1.5103 C   0  0  0  0  0  0  0  0  0  0  0  0
   -5.2322   -0.2052    1.7017 C   0  0  0  0  0  0  0  0  0  0  0  0
   -8.4069    0.7207   -0.8873 H   0  0  0  0  0  0  0  0  0  0  0  0
   -8.3341   -1.0781   -0.9498 H   0  0  0  0  0  0  0  0  0  0  0  0
   -9.5445   -0.2614    0.0495 H   0  0  0  0  0  0  0  0  0  0  0  0
   -6.1955   -0.0765   -1.5664 H   0  0  0  0  0  0  0  0  0  0  0  0
   -3.8029   -0.0196   -1.8901 H   0  0  0  0  0  0  0  0  0  0  0  0
   -1.3920   -0.1200    0.9867 H   0  0  0  0  0  0  0  0  0  0  0  0
    0.7507   -1.3598   -2.4681 H   0  0  0  0  0  0  0  0  0  0  0  0
    3.1714   -1.2630   -2.1899 H   0  0  0  0  0  0  0  0  0  0  0  0
    4.7944    0.8755    0.4532 H   0  0  0  0  0  0  0  0  0  0  0  0
    8.3608   -1.0799   -1.5775 H   0  0  0  0  0  0  0  0  0  0  0  0
   10.0914    0.2624    0.0672 H   0  0  0  0  0  0  0  0  0  0  0  0
    8.4485    1.7694    1.6982 H   0  0  0  0  0  0  0  0  0  0  0  0
    2.6741    1.5261    1.0776 H   0  0  0  0  0  0  0  0  0  0  0  0
    0.2477    1.4368    0.7800 H   0  0  0  0  0  0  0  0  0  0  0  0
   -3.2040   -0.2033    2.3866 H   0  0  0  0  0  0  0  0  0  0  0  0
   -5.6298   -0.2552    2.7141 H   0  0  0  0  0  0  0  0  0  0  0  0
  1  2  1  0
  2  3  2  0
  2  4  1  0
  4  5  2  0
  5  6  1  0
  6  7  2  0
  7  8  1  0
  8  9  1  0
  9 10  2  0
  9 11  1  0
 11 12  2  0
 12 13  1  0
 13 14  2  0
 14 15  1  0
 15 16  1  0
 16 17  2  0
 16 18  1  0
 18 19  2  0
 19 20  1  0
 20 21  2  0
 21 22  1  0
 14 23  1  0
 23 24  2  0
  7 25  1  0
 25 26  2  0
 26  4  1  0
 24 11  1  0
 22 18  1  0
  1 27  1  0
  1 28  1  0
  1 29  1  0
  5 30  1  0
  6 31  1  0
  8 32  1  0
 12 33  1  0
 13 34  1  0
 15 35  1  0
 19 36  1  0
 20 37  1  0
 21 38  1  0
 23 39  1  0
 24 40  1  0
 25 41  1  0
 26 42  1  0
M  END
$$$$
