
     RDKit          3D

 50 53  0  0  0  0  0  0  0  0999 V2000
    7.6417    3.0117    0.8286 C   0  0  0  0  0  0  0  0  0  0  0  0
    7.5096    1.6655    0.3903 O   0  0  0  0  0  0  0  0  0  0  0  0
    6.2402    1.1680    0.2958 C   0  0  0  0  0  0  0  0  0  0  0  0
    6.1588   -0.1497   -0.1497 C   0  0  0  0  0  0  0  0  0  0  0  0
    4.9173   -0.7799   -0.2919 C   0  0  0  0  0  0  0  0  0  0  0  0
    3.7156   -0.1120    0.0025 C   0  0  0  0  0  0  0  0  0  0  0  0
    2.4131   -0.7953   -0.1590 C   0  0  0  0  0  0  0  0  0  0  0  0
    1.2343   -0.1272   -0.4388 C   0  0  0  0  0  0  0  0  0  0  0  0
    0.0584   -0.8698   -0.5570 C   0  0  0  0  0  0  0  0  0  0  0  0
   -1.1814   -0.0948   -0.7901 C   0  0  0  0  0  0  0  0  0  0  0  0
   -1.2339    0.6173   -1.7830 O   0  0  0  0  0  0  0  0  0  0  0  0
   -2.1280   -0.2442    0.2049 N   0  0  0  0  0  0  0  0  0  0  0  0
   -3.4005    0.3606    0.2763 C   0  0  0  0  0  0  0  0  0  0  0  0
   -4.1933    0.0478    1.3825 C   0  0  0  0  0  0  0  0  0  0  0  0
   -5.4565    0.6229    1.5338 C   0  0  0  0  0  0  0  0  0  0  0  0
   -5.9589    1.5117    0.5725 C   0  0  0  0  0  0  0  0  0  0  0  0
   -7.3064    2.1425    0.7908 C   0  0  0  0  0  0  0  0  0  0  0  0
   -5.1947    1.7853   -0.5746 C   0  0  0  0  0  0  0  0  0  0  0  0
   -5.6014    2.7524   -1.5099 N   0  0  0  0  0  0  0  0  0  0  0  0
   -3.9019    1.2443   -0.6816 C   0  0  0  0  0  0  0  0  0  0  0  0
    0.0631   -2.2761   -0.4488 C   0  0  0  0  0  0  0  0  0  0  0  0
   -1.0681   -3.1146   -0.6273 C   0  0  0  0  0  0  0  0  0  0  0  0
   -0.9656   -4.4973   -0.4905 C   0  0  0  0  0  0  0  0  0  0  0  0
    0.2634   -5.0624   -0.1834 C   0  0  0  0  0  0  0  0  0  0  0  0
    1.3824   -4.2413   -0.0269 C   0  0  0  0  0  0  0  0  0  0  0  0
    1.3080   -2.8613   -0.1617 C   0  0  0  0  0  0  0  0  0  0  0  0
    2.4350   -2.1446   -0.0133 N   0  0  0  0  0  0  0  0  0  0  0  0
    3.8210    1.2146    0.4588 C   0  0  0  0  0  0  0  0  0  0  0  0
    5.0650    1.8487    0.6026 C   0  0  0  0  0  0  0  0  0  0  0  0
    8.7083    3.2560    0.8414 H   0  0  0  0  0  0  0  0  0  0  0  0
    7.2600    3.1341    1.8475 H   0  0  0  0  0  0  0  0  0  0  0  0
    7.1502    3.7028    0.1359 H   0  0  0  0  0  0  0  0  0  0  0  0
    7.0675   -0.6963   -0.3895 H   0  0  0  0  0  0  0  0  0  0  0  0
    4.8940   -1.8106   -0.6430 H   0  0  0  0  0  0  0  0  0  0  0  0
    1.2078    0.9491   -0.5752 H   0  0  0  0  0  0  0  0  0  0  0  0
   -1.8823   -0.8459    0.9824 H   0  0  0  0  0  0  0  0  0  0  0  0
   -3.8381   -0.6331    2.1513 H   0  0  0  0  0  0  0  0  0  0  0  0
   -6.0428    0.3820    2.4179 H   0  0  0  0  0  0  0  0  0  0  0  0
   -8.0054    1.8203    0.0124 H   0  0  0  0  0  0  0  0  0  0  0  0
   -7.7329    1.8574    1.7585 H   0  0  0  0  0  0  0  0  0  0  0  0
   -7.2235    3.2341    0.7793 H   0  0  0  0  0  0  0  0  0  0  0  0
   -5.1328    2.6663   -2.4076 H   0  0  0  0  0  0  0  0  0  0  0  0
   -6.6067    2.8348   -1.6108 H   0  0  0  0  0  0  0  0  0  0  0  0
   -3.2985    1.5313   -1.5366 H   0  0  0  0  0  0  0  0  0  0  0  0
   -2.0370   -2.6973   -0.8966 H   0  0  0  0  0  0  0  0  0  0  0  0
   -1.8392   -5.1286   -0.6333 H   0  0  0  0  0  0  0  0  0  0  0  0
    0.3618   -6.1397   -0.0766 H   0  0  0  0  0  0  0  0  0  0  0  0
    2.3457   -4.6935    0.2008 H   0  0  0  0  0  0  0  0  0  0  0  0
    2.9322    1.7807    0.7290 H   0  0  0  0  0  0  0  0  0  0  0  0
    5.0749    2.8727    0.9608 H   0  0  0  0  0  0  0  0  0  0  0  0
  1  2  1  0
  2  3  1  0
  3  4  2  0
  4  5  1  0
  5  6  2  0
  6  7  1  0
  7  8  2  0
  8  9  1  0
  9 10  1  0
 10 11  2  0
 10 12  1  0
 12 13  1  0
 13 14  2  0
 14 15  1  0
 15 16  2  0
 16 17  1  0
 16 18  1  0
 18 19  1  0
 18 20  2  0
  9 21  2  0
 21 22  1  0
 22 23  2  0
 23 24  1  0
 24 25  2  0
 25 26  1  0
 26 27  2  0
  6 28  1  0
 28 29  2  0
 29  3  1  0
 27  7  1  0
 20 13  1  0
 26 21  1  0
  1 30  1  0
  1 31  1  0
  1 32  1  0
  4 33  1  0
  5 34  1  0
  8 35  1  0
 12 36  1  0
 14 37  1  0
 15 38  1  0
 17 39  1  0
 17 40  1  0
 17 41  1  0
 19 42  1  0
 19 43  1  0
 20 44  1  0
 22 45  1  0
 23 46  1  0
 24 47  1  0
 25 48  1  0
 28 49  1  0
 29 50  1  0
M  END
$$$$
