
     RDKit          3D

 55 60  0  0  0  0  0  0  0  0999 V2000
    7.4852    1.7904    0.8970 C   0  0  0  0  0  0  0  0  0  0  0  0
    7.1192    0.5695    1.4654 C   0  0  0  0  0  0  0  0  0  0  0  0
    5.9433   -0.0634    1.0609 C   0  0  0  0  0  0  0  0  0  0  0  0
    5.1264    0.5356    0.0957 C   0  0  0  0  0  0  0  0  0  0  0  0
    3.8901   -0.1661   -0.3307 C   0  0  0  0  0  0  0  0  0  0  0  0
    3.9808   -1.4137   -0.6839 N   0  0  0  0  0  0  0  0  0  0  0  0
    2.8313   -2.0798   -1.1514 C   0  0  0  0  0  0  0  0  0  0  0  0
    2.9865   -3.3897   -1.6151 C   0  0  0  0  0  0  0  0  0  0  0  0
    1.9039   -4.0939   -2.1435 C   0  0  0  0  0  0  0  0  0  0  0  0
    0.6547   -3.4839   -2.2270 C   0  0  0  0  0  0  0  0  0  0  0  0
    0.4797   -2.1773   -1.7660 C   0  0  0  0  0  0  0  0  0  0  0  0
    1.5580   -1.4869   -1.2050 C   0  0  0  0  0  0  0  0  0  0  0  0
    1.4635   -0.1650   -0.7013 N   0  0  0  0  0  0  0  0  0  0  0  0
    0.3616    0.6650   -0.4762 C   0  0  0  0  0  0  0  0  0  0  0  0
   -0.9437    0.2479   -0.5536 N   0  0  0  0  0  0  0  0  0  0  0  0
   -1.9547    1.2174   -1.0385 C   0  0  0  0  0  0  0  0  0  0  0  0
   -3.3868    0.6410   -0.9710 C   0  0  0  0  0  0  0  0  0  0  0  0
   -3.7506    0.2668    0.4099 N   0  0  0  0  0  0  0  0  0  0  0  0
   -5.0590    0.3472    0.8555 C   0  0  0  0  0  0  0  0  0  0  0  0
   -5.3770    0.4983    2.2151 C   0  0  0  0  0  0  0  0  0  0  0  0
   -6.7015    0.5762    2.6650 C   0  0  0  0  0  0  0  0  0  0  0  0
   -7.7515    0.4991    1.7590 C   0  0  0  0  0  0  0  0  0  0  0  0
   -7.4733    0.3434    0.4072 C   0  0  0  0  0  0  0  0  0  0  0  0
   -6.1455    0.2683   -0.0322 C   0  0  0  0  0  0  0  0  0  0  0  0
   -2.6278   -0.0154    1.3232 C   0  0  0  0  0  0  0  0  0  0  0  0
   -1.4217   -0.6165    0.5655 C   0  0  0  0  0  0  0  0  0  0  0  0
    0.8537    1.9077   -0.1214 C   0  0  0  0  0  0  0  0  0  0  0  0
    2.2539    1.8043    0.0145 C   0  0  0  0  0  0  0  0  0  0  0  0
    2.6130    0.5155   -0.3269 C   0  0  0  0  0  0  0  0  0  0  0  0
    5.5052    1.7482   -0.4904 C   0  0  0  0  0  0  0  0  0  0  0  0
    6.6828    2.3771   -0.0828 C   0  0  0  0  0  0  0  0  0  0  0  0
    8.4044    2.2797    1.2100 H   0  0  0  0  0  0  0  0  0  0  0  0
    7.7528    0.1073    2.2181 H   0  0  0  0  0  0  0  0  0  0  0  0
    5.6644   -1.0207    1.4950 H   0  0  0  0  0  0  0  0  0  0  0  0
    3.9675   -3.8557   -1.5728 H   0  0  0  0  0  0  0  0  0  0  0  0
    2.0421   -5.1093   -2.5050 H   0  0  0  0  0  0  0  0  0  0  0  0
   -0.1846   -4.0214   -2.6613 H   0  0  0  0  0  0  0  0  0  0  0  0
   -0.4946   -1.7177   -1.8855 H   0  0  0  0  0  0  0  0  0  0  0  0
   -1.9229    2.1359   -0.4388 H   0  0  0  0  0  0  0  0  0  0  0  0
   -1.7261    1.4852   -2.0769 H   0  0  0  0  0  0  0  0  0  0  0  0
   -3.4629   -0.2452   -1.6124 H   0  0  0  0  0  0  0  0  0  0  0  0
   -4.0651    1.4084   -1.3628 H   0  0  0  0  0  0  0  0  0  0  0  0
   -4.5919    0.5828    2.9607 H   0  0  0  0  0  0  0  0  0  0  0  0
   -6.9050    0.7001    3.7252 H   0  0  0  0  0  0  0  0  0  0  0  0
   -8.7796    0.5575    2.1044 H   0  0  0  0  0  0  0  0  0  0  0  0
   -8.2849    0.2725   -0.3117 H   0  0  0  0  0  0  0  0  0  0  0  0
   -5.9773    0.1185   -1.0950 H   0  0  0  0  0  0  0  0  0  0  0  0
   -2.3267    0.9116    1.8262 H   0  0  0  0  0  0  0  0  0  0  0  0
   -2.9251   -0.7412    2.0895 H   0  0  0  0  0  0  0  0  0  0  0  0
   -0.6174   -0.8210    1.2836 H   0  0  0  0  0  0  0  0  0  0  0  0
   -1.7248   -1.5807    0.1400 H   0  0  0  0  0  0  0  0  0  0  0  0
    0.2586    2.7807    0.1092 H   0  0  0  0  0  0  0  0  0  0  0  0
    2.9169    2.5891    0.3542 H   0  0  0  0  0  0  0  0  0  0  0  0
    4.9016    2.1970   -1.2748 H   0  0  0  0  0  0  0  0  0  0  0  0
    6.9809    3.3193   -0.5360 H   0  0  0  0  0  0  0  0  0  0  0  0
  1  2  2  0
  2  3  1  0
  3  4  2  0
  4  5  1  0
  5  6  2  0
  6  7  1  0
  7  8  2  0
  8  9  1  0
  9 10  2  0
 10 11  1  0
 11 12  2  0
 12 13  1  0
 13 14  1  0
 14 15  1  0
 15 16  1  0
 16 17  1  0
 17 18  1  0
 18 19  1  0
 19 20  2  0
 20 21  1  0
 21 22  2  0
 22 23  1  0
 23 24  2  0
 18 25  1  0
 25 26  1  0
 14 27  2  0
 27 28  1  0
 28 29  2  0
  4 30  1  0
 30 31  2  0
 31  1  1  0
 29  5  1  0
 12  7  1  0
 29 13  1  0
 26 15  1  0
 24 19  1  0
  1 32  1  0
  2 33  1  0
  3 34  1  0
  8 35  1  0
  9 36  1  0
 10 37  1  0
 11 38  1  0
 16 39  1  0
 16 40  1  0
 17 41  1  0
 17 42  1  0
 20 43  1  0
 21 44  1  0
 22 45  1  0
 23 46  1  0
 24 47  1  0
 25 48  1  0
 25 49  1  0
 26 50  1  0
 26 51  1  0
 27 52  1  0
 28 53  1  0
 30 54  1  0
 31 55  1  0
M  END
$$$$
