
     RDKit          3D

 35 36  0  0  0  0  0  0  0  0999 V2000
    3.3691   -0.3023   -2.1124 C   0  0  0  0  0  0  0  0  0  0  0  0
    2.3789   -0.2658   -1.0265 N   0  0  0  0  0  0  0  0  0  0  0  0
    1.0247   -0.3720   -1.5966 C   0  0  0  0  0  0  0  0  0  0  0  0
    0.0011   -0.8407   -0.5571 C   0  0  0  0  0  0  0  0  0  0  0  0
   -1.3786   -1.0133   -1.1899 C   0  0  0  0  0  0  0  0  0  0  0  0
   -2.3210   -1.4724   -0.2214 O   0  0  0  0  0  0  0  0  0  0  0  0
   -3.0713   -0.5657    0.4772 C   0  0  0  0  0  0  0  0  0  0  0  0
   -2.8452    0.8144    0.4918 C   0  0  0  0  0  0  0  0  0  0  0  0
   -3.6647    1.6587    1.2496 C   0  0  0  0  0  0  0  0  0  0  0  0
   -4.7107    1.1274    2.0000 C   0  0  0  0  0  0  0  0  0  0  0  0
   -5.7116    2.1737    2.9283 Cl  0  0  0  0  0  0  0  0  0  0  0  0
   -4.9475   -0.2422    2.0054 C   0  0  0  0  0  0  0  0  0  0  0  0
   -4.1282   -1.0836    1.2484 C   0  0  0  0  0  0  0  0  0  0  0  0
   -4.4637   -2.7811    1.2885 Cl  0  0  0  0  0  0  0  0  0  0  0  0
    2.5480    0.9619   -0.2266 C   0  0  0  0  0  0  0  0  0  0  0  0
    3.5335    0.8554    0.9022 C   0  0  0  0  0  0  0  0  0  0  0  0
    4.3463   -0.3759    1.2199 C   0  0  0  0  0  0  0  0  0  0  0  0
    4.9111    0.7380    0.5125 O   0  0  0  0  0  0  0  0  0  0  0  0
    3.2322    0.5233   -2.8205 H   0  0  0  0  0  0  0  0  0  0  0  0
    3.2909   -1.2447   -2.6668 H   0  0  0  0  0  0  0  0  0  0  0  0
    4.3937   -0.2623   -1.7330 H   0  0  0  0  0  0  0  0  0  0  0  0
    1.0248   -1.1179   -2.4028 H   0  0  0  0  0  0  0  0  0  0  0  0
    0.7135    0.5790   -2.0482 H   0  0  0  0  0  0  0  0  0  0  0  0
   -0.0654   -0.1427    0.2833 H   0  0  0  0  0  0  0  0  0  0  0  0
    0.3157   -1.7977   -0.1209 H   0  0  0  0  0  0  0  0  0  0  0  0
   -1.3212   -1.7967   -1.9550 H   0  0  0  0  0  0  0  0  0  0  0  0
   -1.7232   -0.1132   -1.7120 H   0  0  0  0  0  0  0  0  0  0  0  0
   -2.0329    1.2698   -0.0645 H   0  0  0  0  0  0  0  0  0  0  0  0
   -3.4772    2.7300    1.2518 H   0  0  0  0  0  0  0  0  0  0  0  0
   -5.7620   -0.6554    2.5937 H   0  0  0  0  0  0  0  0  0  0  0  0
    1.5978    1.2285    0.2503 H   0  0  0  0  0  0  0  0  0  0  0  0
    2.7985    1.8228   -0.8604 H   0  0  0  0  0  0  0  0  0  0  0  0
    3.3159    1.5539    1.7004 H   0  0  0  0  0  0  0  0  0  0  0  0
    4.1670   -1.2892    0.6674 H   0  0  0  0  0  0  0  0  0  0  0  0
    4.6618   -0.5295    2.2440 H   0  0  0  0  0  0  0  0  0  0  0  0
  1  2  1  0
  2  3  1  0
  3  4  1  0
  4  5  1  0
  5  6  1  0
  6  7  1  0
  7  8  2  0
  8  9  1  0
  9 10  2  0
 10 11  1  0
 10 12  1  0
 12 13  2  0
 13 14  1  0
  2 15  1  0
 15 16  1  0
 16 17  1  0
 17 18  1  0
 13  7  1  0
 18 16  1  0
  1 19  1  0
  1 20  1  0
  1 21  1  0
  3 22  1  0
  3 23  1  0
  4 24  1  0
  4 25  1  0
  5 26  1  0
  5 27  1  0
  8 28  1  0
  9 29  1  0
 12 30  1  0
 15 31  1  0
 15 32  1  0
 16 33  1  0
 17 34  1  0
 17 35  1  0
M  END
$$$$
