
     RDKit          3D

 59 64  0  0  0  0  0  0  0  0999 V2000
    3.4828    1.6519   -1.9125 O   0  0  0  0  0  0  0  0  0  0  0  0
    3.3512    0.7886   -1.0487 C   0  0  0  0  0  0  0  0  0  0  0  0
    4.4361    0.5324   -0.0695 C   0  0  0  0  0  0  0  0  0  0  0  0
    5.1589    1.5633    0.3937 C   0  0  0  0  0  0  0  0  0  0  0  0
    6.1839    1.3868    1.3689 C   0  0  0  0  0  0  0  0  0  0  0  0
    6.8557    0.2488    1.7877 C   0  0  0  0  0  0  0  0  0  0  0  0
    7.8108    0.5046    2.8173 C   0  0  0  0  0  0  0  0  0  0  0  0
    7.8381    1.8346    3.1754 C   0  0  0  0  0  0  0  0  0  0  0  0
    6.7411    2.7682    2.2570 S   0  0  0  0  0  0  0  0  0  0  0  0
    2.2142   -0.0053   -0.9266 N   0  0  0  0  0  0  0  0  0  0  0  0
    1.8734   -0.7732    0.2756 C   0  0  0  0  0  0  0  0  0  0  0  0
    0.3904   -0.6450    0.6020 C   0  0  0  0  0  0  0  0  0  0  0  0
   -0.4906   -1.2229   -0.5359 C   0  0  0  0  0  0  0  0  0  0  0  0
    0.1547   -0.9683   -1.9260 C   0  0  0  0  0  0  0  0  0  0  0  0
    1.1695    0.1698   -1.9270 C   0  0  0  0  0  0  0  0  0  0  0  0
   -0.4191   -2.6590   -0.2908 O   0  0  0  0  0  0  0  0  0  0  0  0
   -1.4087   -3.4503   -0.7945 C   0  0  0  0  0  0  0  0  0  0  0  0
   -1.1742   -4.8274   -0.7501 C   0  0  0  0  0  0  0  0  0  0  0  0
   -2.1234   -5.7160   -1.2603 C   0  0  0  0  0  0  0  0  0  0  0  0
   -3.3013   -5.2208   -1.8126 C   0  0  0  0  0  0  0  0  0  0  0  0
   -4.2070   -6.0733   -2.3084 F   0  0  0  0  0  0  0  0  0  0  0  0
   -3.5527   -3.8554   -1.8546 C   0  0  0  0  0  0  0  0  0  0  0  0
   -2.6021   -2.9746   -1.3290 C   0  0  0  0  0  0  0  0  0  0  0  0
   -2.8482   -1.5272   -1.3288 C   0  0  0  0  0  0  0  0  0  0  0  0
   -3.7329   -1.0635   -2.0446 O   0  0  0  0  0  0  0  0  0  0  0  0
   -1.9504   -0.6944   -0.4202 C   0  0  0  0  0  0  0  0  0  0  0  0
   -2.1266    0.7949   -0.6892 C   0  0  0  0  0  0  0  0  0  0  0  0
   -3.0422    1.1368    0.4341 C   0  0  0  0  0  0  0  0  0  0  0  0
   -3.7053    2.4588    0.5295 C   0  0  0  0  0  0  0  0  0  0  0  0
   -3.4937    3.4589   -0.4280 C   0  0  0  0  0  0  0  0  0  0  0  0
   -4.1456    4.6906   -0.3112 C   0  0  0  0  0  0  0  0  0  0  0  0
   -5.0040    4.9328    0.7613 C   0  0  0  0  0  0  0  0  0  0  0  0
   -5.2155    3.9431    1.7197 C   0  0  0  0  0  0  0  0  0  0  0  0
   -4.5660    2.7101    1.6063 C   0  0  0  0  0  0  0  0  0  0  0  0
   -3.1776    0.2115    1.3302 N   0  0  0  0  0  0  0  0  0  0  0  0
   -2.4188   -0.9028    0.9244 O   0  0  0  0  0  0  0  0  0  0  0  0
    4.5951   -0.4938    0.2345 H   0  0  0  0  0  0  0  0  0  0  0  0
    4.9433    2.5708    0.0406 H   0  0  0  0  0  0  0  0  0  0  0  0
    6.6823   -0.7377    1.3734 H   0  0  0  0  0  0  0  0  0  0  0  0
    8.4395   -0.2504    3.2738 H   0  0  0  0  0  0  0  0  0  0  0  0
    8.4578    2.3096    3.9266 H   0  0  0  0  0  0  0  0  0  0  0  0
    2.4509   -0.4150    1.1357 H   0  0  0  0  0  0  0  0  0  0  0  0
    2.1523   -1.8196    0.0925 H   0  0  0  0  0  0  0  0  0  0  0  0
    0.1727    0.4126    0.7847 H   0  0  0  0  0  0  0  0  0  0  0  0
    0.1941   -1.1784    1.5418 H   0  0  0  0  0  0  0  0  0  0  0  0
   -0.6104   -0.7590   -2.6845 H   0  0  0  0  0  0  0  0  0  0  0  0
    0.6667   -1.8795   -2.2672 H   0  0  0  0  0  0  0  0  0  0  0  0
    0.6818    1.1310   -1.7310 H   0  0  0  0  0  0  0  0  0  0  0  0
    1.6343    0.2473   -2.9174 H   0  0  0  0  0  0  0  0  0  0  0  0
   -0.2496   -5.2090   -0.3228 H   0  0  0  0  0  0  0  0  0  0  0  0
   -1.9528   -6.7881   -1.2308 H   0  0  0  0  0  0  0  0  0  0  0  0
   -4.4841   -3.4908   -2.2810 H   0  0  0  0  0  0  0  0  0  0  0  0
   -2.5577    1.0260   -1.6664 H   0  0  0  0  0  0  0  0  0  0  0  0
   -1.2116    1.3780   -0.5602 H   0  0  0  0  0  0  0  0  0  0  0  0
   -2.8322    3.3074   -1.2749 H   0  0  0  0  0  0  0  0  0  0  0  0
   -3.9850    5.4634   -1.0594 H   0  0  0  0  0  0  0  0  0  0  0  0
   -5.5129    5.8936    0.8484 H   0  0  0  0  0  0  0  0  0  0  0  0
   -5.8857    4.1275    2.5565 H   0  0  0  0  0  0  0  0  0  0  0  0
   -4.7438    1.9470    2.3623 H   0  0  0  0  0  0  0  0  0  0  0  0
  1  2  2  0
  2  3  1  0
  3  4  2  3
  4  5  1  0
  5  6  2  0
  6  7  1  0
  7  8  2  0
  8  9  1  0
  2 10  1  0
 10 11  1  0
 11 12  1  0
 12 13  1  0
 13 14  1  0
 14 15  1  0
 13 16  1  0
 16 17  1  0
 17 18  2  0
 18 19  1  0
 19 20  2  0
 20 21  1  0
 20 22  1  0
 22 23  2  0
 23 24  1  0
 24 25  2  0
 24 26  1  0
 26 27  1  0
 27 28  1  0
 28 29  1  0
 29 30  2  0
 30 31  1  0
 31 32  2  0
 32 33  1  0
 33 34  2  0
 28 35  2  0
 35 36  1  0
  9  5  1  0
 15 10  1  0
 23 17  1  0
 36 26  1  0
 26 13  1  0
 34 29  1  0
  3 37  1  0
  4 38  1  0
  6 39  1  0
  7 40  1  0
  8 41  1  0
 11 42  1  0
 11 43  1  0
 12 44  1  0
 12 45  1  0
 14 46  1  0
 14 47  1  0
 15 48  1  0
 15 49  1  0
 18 50  1  0
 19 51  1  0
 22 52  1  0
 27 53  1  0
 27 54  1  0
 30 55  1  0
 31 56  1  0
 32 57  1  0
 33 58  1  0
 34 59  1  0
M  END
$$$$
