
     RDKit          3D

 43 44  0  0  0  0  0  0  0  0999 V2000
   -2.8751   -2.5428    1.2317 C   0  0  0  0  0  0  0  0  0  0  0  0
   -2.8065   -2.0002   -0.1828 C   0  0  0  0  0  0  0  0  0  0  0  0
   -3.2995   -0.5965   -0.2039 N   0  0  0  0  0  4  0  0  0  0  0  0
   -4.6322   -0.3971   -0.3680 C   0  0  0  0  0  0  0  0  0  0  0  0
   -5.1769    0.8828   -0.4425 C   0  0  0  0  0  0  0  0  0  0  0  0
   -6.6577    1.0771   -0.5895 C   0  0  0  0  0  0  0  0  0  0  0  0
   -4.3276    1.9760   -0.3205 C   0  0  0  0  0  0  0  0  0  0  0  0
   -2.9650    1.7670   -0.1524 C   0  0  0  0  0  0  0  0  0  0  0  0
   -2.4513    0.4649   -0.0997 C   0  0  0  0  0  0  0  0  0  0  0  0
   -1.0158    0.2582    0.1091 C   0  0  0  0  0  0  0  0  0  0  0  0
   -0.0902    0.7029   -0.7561 C   0  0  0  0  0  0  0  0  0  0  0  0
    1.3480    0.4711   -0.5736 C   0  0  0  0  0  0  0  0  0  0  0  0
    2.1314    0.1514   -1.6808 C   0  0  0  0  0  0  0  0  0  0  0  0
    3.5109   -0.0697   -1.5424 C   0  0  0  0  0  0  0  0  0  0  0  0
    4.1718    0.0395   -0.3072 C   0  0  0  0  0  0  0  0  0  0  0  0
    5.5408   -0.2073   -0.1700 N   0  0  0  0  0  0  0  0  0  0  0  0
    6.3800   -0.2769   -1.3667 C   0  0  0  0  0  0  0  0  0  0  0  0
    6.2259    0.2210    1.0501 C   0  0  0  0  0  0  0  0  0  0  0  0
    3.3582    0.3722    0.7894 C   0  0  0  0  0  0  0  0  0  0  0  0
    1.9774    0.5943    0.6642 C   0  0  0  0  0  0  0  0  0  0  0  0
   -2.5144   -3.5754    1.2595 H   0  0  0  0  0  0  0  0  0  0  0  0
   -3.9030   -2.5313    1.6083 H   0  0  0  0  0  0  0  0  0  0  0  0
   -2.2656   -1.9488    1.9190 H   0  0  0  0  0  0  0  0  0  0  0  0
   -1.7926   -2.0409   -0.5894 H   0  0  0  0  0  0  0  0  0  0  0  0
   -3.4415   -2.5868   -0.8567 H   0  0  0  0  0  0  0  0  0  0  0  0
   -5.2591   -1.2829   -0.4389 H   0  0  0  0  0  0  0  0  0  0  0  0
   -6.8778    1.9999   -1.1365 H   0  0  0  0  0  0  0  0  0  0  0  0
   -7.1279    1.1292    0.3973 H   0  0  0  0  0  0  0  0  0  0  0  0
   -7.1057    0.2512   -1.1520 H   0  0  0  0  0  0  0  0  0  0  0  0
   -4.7178    2.9933   -0.3524 H   0  0  0  0  0  0  0  0  0  0  0  0
   -2.3032    2.6265   -0.0516 H   0  0  0  0  0  0  0  0  0  0  0  0
   -0.7313   -0.2967    0.9989 H   0  0  0  0  0  0  0  0  0  0  0  0
   -0.3639    1.2342   -1.6665 H   0  0  0  0  0  0  0  0  0  0  0  0
    1.6900    0.0558   -2.6702 H   0  0  0  0  0  0  0  0  0  0  0  0
    4.0564   -0.3332   -2.4441 H   0  0  0  0  0  0  0  0  0  0  0  0
    7.4252   -0.4820   -1.1090 H   0  0  0  0  0  0  0  0  0  0  0  0
    6.0673   -1.0965   -2.0226 H   0  0  0  0  0  0  0  0  0  0  0  0
    6.3548    0.6685   -1.9197 H   0  0  0  0  0  0  0  0  0  0  0  0
    6.1424    1.3047    1.1878 H   0  0  0  0  0  0  0  0  0  0  0  0
    7.2929   -0.0267    1.0165 H   0  0  0  0  0  0  0  0  0  0  0  0
    5.8265   -0.2945    1.9300 H   0  0  0  0  0  0  0  0  0  0  0  0
    3.7814    0.4714    1.7849 H   0  0  0  0  0  0  0  0  0  0  0  0
    1.4204    0.8729    1.5548 H   0  0  0  0  0  0  0  0  0  0  0  0
  1  2  1  0
  2  3  1  0
  3  4  2  0
  4  5  1  0
  5  6  1  0
  5  7  2  0
  7  8  1  0
  8  9  2  0
  9 10  1  0
 10 11  2  3
 11 12  1  0
 12 13  2  0
 13 14  1  0
 14 15  2  0
 15 16  1  0
 16 17  1  0
 16 18  1  0
 15 19  1  0
 19 20  2  0
  9  3  1  0
 20 12  1  0
  1 21  1  0
  1 22  1  0
  1 23  1  0
  2 24  1  0
  2 25  1  0
  4 26  1  0
  6 27  1  0
  6 28  1  0
  6 29  1  0
  7 30  1  0
  8 31  1  0
 10 32  1  0
 11 33  1  0
 13 34  1  0
 14 35  1  0
 17 36  1  0
 17 37  1  0
 17 38  1  0
 18 39  1  0
 18 40  1  0
 18 41  1  0
 19 42  1  0
 20 43  1  0
M  CHG  1   3   1
M  END
$$$$
