
     RDKit          3D

 38 39  0  0  0  0  0  0  0  0999 V2000
    2.4092    1.0894   -1.5121 O   0  0  0  0  0  0  0  0  0  0  0  0
    1.1979    0.8696   -1.5074 C   0  0  0  0  0  0  0  0  0  0  0  0
    0.1539    1.9157   -1.9012 C   0  0  0  0  0  0  0  0  0  0  0  0
   -1.1432    1.6200   -1.3808 O   0  0  0  0  0  0  0  0  0  0  0  0
   -1.2962    1.8992   -0.0637 C   0  0  0  0  0  0  0  0  0  0  0  0
   -0.5011    2.4777    0.6567 O   0  0  0  0  0  0  0  0  0  0  0  0
   -2.6138    1.4198    0.3905 C   0  0  0  0  0  0  0  0  0  0  0  0
   -3.4078    2.3026    1.1355 C   0  0  0  0  0  0  0  0  0  0  0  0
   -4.6601    1.8944    1.5980 C   0  0  0  0  0  0  0  0  0  0  0  0
   -5.1010    0.6035    1.3205 C   0  0  0  0  0  0  0  0  0  0  0  0
   -6.3165    0.1617    1.7521 O   0  0  0  0  0  0  0  0  0  0  0  0
   -4.3128   -0.2899    0.5985 C   0  0  0  0  0  0  0  0  0  0  0  0
   -3.0599    0.1161    0.1388 C   0  0  0  0  0  0  0  0  0  0  0  0
   -2.2618   -0.7793   -0.5247 O   0  0  0  0  0  0  0  0  0  0  0  0
    0.6830   -0.3678   -1.1772 N   0  0  0  0  0  0  0  0  0  0  0  0
    1.5524   -1.4390   -0.7393 C   0  0  0  0  0  0  0  0  0  0  0  0
    2.2148   -1.1476    0.6151 C   0  0  0  0  0  0  0  0  0  0  0  0
    3.5626   -1.6720    0.6757 N   0  0  0  0  0  0  0  0  0  0  0  0
    4.6953   -0.9855    0.3050 C   0  0  0  0  0  0  0  0  0  0  0  0
    4.6514    0.2894   -0.1760 O   0  0  0  0  0  0  0  0  0  0  0  0
    5.8309   -1.6737    0.4544 C   0  0  0  0  0  0  0  0  0  0  0  0
    5.5338   -3.2752    1.0540 S   0  0  0  0  0  0  0  0  0  0  0  0
    3.7880   -2.9779    1.0881 C   0  0  0  0  0  0  0  0  0  0  0  0
    2.9594   -3.8139    1.4114 O   0  0  0  0  0  0  0  0  0  0  0  0
    0.4868    2.9100   -1.5825 H   0  0  0  0  0  0  0  0  0  0  0  0
    0.0803    1.9168   -2.9932 H   0  0  0  0  0  0  0  0  0  0  0  0
   -3.0501    3.3068    1.3548 H   0  0  0  0  0  0  0  0  0  0  0  0
   -5.2685    2.5889    2.1699 H   0  0  0  0  0  0  0  0  0  0  0  0
   -6.7519    0.8706    2.2551 H   0  0  0  0  0  0  0  0  0  0  0  0
   -4.6882   -1.2928    0.4191 H   0  0  0  0  0  0  0  0  0  0  0  0
   -2.7545   -1.6157   -0.6182 H   0  0  0  0  0  0  0  0  0  0  0  0
   -0.3277   -0.4595   -1.0690 H   0  0  0  0  0  0  0  0  0  0  0  0
    2.3064   -1.5810   -1.5226 H   0  0  0  0  0  0  0  0  0  0  0  0
    0.9546   -2.3548   -0.6858 H   0  0  0  0  0  0  0  0  0  0  0  0
    2.2413   -0.0796    0.8582 H   0  0  0  0  0  0  0  0  0  0  0  0
    1.6147   -1.6163    1.4053 H   0  0  0  0  0  0  0  0  0  0  0  0
    3.7810    0.4694   -0.5913 H   0  0  0  0  0  0  0  0  0  0  0  0
    6.8176   -1.3004    0.2202 H   0  0  0  0  0  0  0  0  0  0  0  0
  1  2  2  0
  2  3  1  0
  3  4  1  0
  4  5  1  0
  5  6  2  0
  5  7  1  0
  7  8  2  0
  8  9  1  0
  9 10  2  0
 10 11  1  0
 10 12  1  0
 12 13  2  0
 13 14  1  0
  2 15  1  0
 15 16  1  0
 16 17  1  0
 17 18  1  0
 18 19  1  0
 19 20  1  0
 19 21  2  0
 21 22  1  0
 22 23  1  0
 23 24  2  0
 13  7  1  0
 23 18  1  0
  3 25  1  0
  3 26  1  0
  8 27  1  0
  9 28  1  0
 11 29  1  0
 12 30  1  0
 14 31  1  0
 15 32  1  0
 16 33  1  0
 16 34  1  0
 17 35  1  0
 17 36  1  0
 20 37  1  0
 21 38  1  0
M  END
$$$$
