
     RDKit          3D

 46 48  0  0  0  0  0  0  0  0999 V2000
    1.9246    0.1198   -3.4689 O   0  0  0  0  0  0  0  0  0  0  0  0
    1.3259    0.4387   -2.4404 C   0  0  0  0  0  0  0  0  0  0  0  0
   -0.0882   -0.0417   -2.1264 C   0  0  0  0  0  0  0  0  0  0  0  0
   -0.6023    0.5827   -0.9533 O   0  0  0  0  0  0  0  0  0  0  0  0
   -1.8961    0.2894   -0.6220 C   0  0  0  0  0  0  0  0  0  0  0  0
   -2.4578    1.1187    0.3483 C   0  0  0  0  0  0  0  0  0  0  0  0
   -3.7750    0.9239    0.7788 C   0  0  0  0  0  0  0  0  0  0  0  0
   -4.5592   -0.1166    0.2581 C   0  0  0  0  0  0  0  0  0  0  0  0
   -5.9473   -0.3276    0.7091 C   0  0  0  0  0  0  0  0  0  0  0  0
   -6.9935   -0.4839   -0.2151 C   0  0  0  0  0  0  0  0  0  0  0  0
   -8.3102   -0.6882    0.2098 C   0  0  0  0  0  0  0  0  0  0  0  0
   -8.6045   -0.7408    1.5690 C   0  0  0  0  0  0  0  0  0  0  0  0
   -7.5847   -0.5877    2.5030 C   0  0  0  0  0  0  0  0  0  0  0  0
   -6.2689   -0.3825    2.0763 C   0  0  0  0  0  0  0  0  0  0  0  0
   -3.9748   -0.9503   -0.7115 C   0  0  0  0  0  0  0  0  0  0  0  0
   -2.6590   -0.7506   -1.1499 C   0  0  0  0  0  0  0  0  0  0  0  0
    1.8976    1.2413   -1.4700 N   0  0  0  0  0  0  0  0  0  0  0  0
    3.3082    1.3834   -1.5220 N   0  0  0  0  0  0  0  0  0  0  0  0
    4.0043    0.8513   -0.4426 C   0  0  0  0  0  0  0  0  0  0  0  0
    3.4280    0.4831    0.5747 O   0  0  0  0  0  0  0  0  0  0  0  0
    5.3598    0.8304   -0.6787 N   0  0  0  0  0  0  0  0  0  0  0  0
    6.3687    0.2918    0.1450 C   0  0  0  0  0  0  0  0  0  0  0  0
    6.1220   -0.4577    1.2982 C   0  0  0  0  0  0  0  0  0  0  0  0
    7.1912   -0.9589    2.0484 C   0  0  0  0  0  0  0  0  0  0  0  0
    8.5001   -0.7140    1.6417 C   0  0  0  0  0  0  0  0  0  0  0  0
    9.5158   -1.2014    2.3646 F   0  0  0  0  0  0  0  0  0  0  0  0
    8.7684    0.0211    0.4969 C   0  0  0  0  0  0  0  0  0  0  0  0
    7.7001    0.5167   -0.2394 C   0  0  0  0  0  0  0  0  0  0  0  0
    7.9530    1.2346   -1.3460 F   0  0  0  0  0  0  0  0  0  0  0  0
   -0.0235   -1.1283   -1.9828 H   0  0  0  0  0  0  0  0  0  0  0  0
   -0.7148    0.2051   -2.9938 H   0  0  0  0  0  0  0  0  0  0  0  0
   -1.8734    1.9337    0.7685 H   0  0  0  0  0  0  0  0  0  0  0  0
   -4.1896    1.6056    1.5191 H   0  0  0  0  0  0  0  0  0  0  0  0
   -6.7897   -0.4364   -1.2829 H   0  0  0  0  0  0  0  0  0  0  0  0
   -9.1033   -0.8056   -0.5227 H   0  0  0  0  0  0  0  0  0  0  0  0
   -9.6266   -0.9023    1.8995 H   0  0  0  0  0  0  0  0  0  0  0  0
   -7.8097   -0.6327    3.5642 H   0  0  0  0  0  0  0  0  0  0  0  0
   -5.4875   -0.2807    2.8258 H   0  0  0  0  0  0  0  0  0  0  0  0
   -4.5431   -1.7816   -1.1256 H   0  0  0  0  0  0  0  0  0  0  0  0
   -2.2651   -1.4364   -1.8915 H   0  0  0  0  0  0  0  0  0  0  0  0
    1.4996    1.1965   -0.5275 H   0  0  0  0  0  0  0  0  0  0  0  0
    3.6863    1.1806   -2.4466 H   0  0  0  0  0  0  0  0  0  0  0  0
    5.6848    1.3709   -1.4726 H   0  0  0  0  0  0  0  0  0  0  0  0
    5.1121   -0.6733    1.6369 H   0  0  0  0  0  0  0  0  0  0  0  0
    7.0074   -1.5448    2.9447 H   0  0  0  0  0  0  0  0  0  0  0  0
    9.7901    0.2050    0.1847 H   0  0  0  0  0  0  0  0  0  0  0  0
  1  2  2  0
  2  3  1  0
  3  4  1  0
  4  5  1  0
  5  6  2  0
  6  7  1  0
  7  8  2  0
  8  9  1  0
  9 10  2  0
 10 11  1  0
 11 12  2  0
 12 13  1  0
 13 14  2  0
  8 15  1  0
 15 16  2  0
  2 17  1  0
 17 18  1  0
 18 19  1  0
 19 20  2  0
 19 21  1  0
 21 22  1  0
 22 23  2  0
 23 24  1  0
 24 25  2  0
 25 26  1  0
 25 27  1  0
 27 28  2  0
 28 29  1  0
 16  5  1  0
 28 22  1  0
 14  9  1  0
  3 30  1  0
  3 31  1  0
  6 32  1  0
  7 33  1  0
 10 34  1  0
 11 35  1  0
 12 36  1  0
 13 37  1  0
 14 38  1  0
 15 39  1  0
 16 40  1  0
 17 41  1  0
 18 42  1  0
 21 43  1  0
 23 44  1  0
 24 45  1  0
 27 46  1  0
M  END
$$$$
