
     RDKit          3D

 40 42  0  0  0  0  0  0  0  0999 V2000
    0.3862   -2.1649    1.7516 O   0  0  0  0  0  0  0  0  0  0  0  0
    0.9720   -1.6435    0.8062 C   0  0  0  0  0  0  0  0  0  0  0  0
    1.9166   -2.4351   -0.0848 C   0  0  0  0  0  0  0  0  0  0  0  0
    3.2091   -1.7235   -0.4099 C   0  0  0  0  0  0  0  0  0  0  0  0
    3.5001   -1.3372   -1.7257 C   0  0  0  0  0  0  0  0  0  0  0  0
    4.6878   -0.6647   -2.0172 C   0  0  0  0  0  0  0  0  0  0  0  0
    5.5946   -0.3749   -0.9994 C   0  0  0  0  0  0  0  0  0  0  0  0
    5.3172   -0.7594    0.3109 C   0  0  0  0  0  0  0  0  0  0  0  0
    4.1310   -1.4321    0.6056 C   0  0  0  0  0  0  0  0  0  0  0  0
    0.7640   -0.3339    0.4251 N   0  0  0  0  0  0  0  0  0  0  0  0
   -0.0282    0.5747    1.2415 C   0  0  0  0  0  0  0  0  0  0  0  0
   -1.5521    0.2963    1.3039 C   0  0  0  0  0  0  0  0  0  0  0  0
   -2.0145    0.9946    2.4850 O   0  0  0  0  0  0  0  0  0  0  0  0
   -3.4347    0.9792    2.5918 C   0  0  0  0  0  0  0  0  0  0  0  0
   -4.0136    1.8835    1.5150 C   0  0  0  0  0  0  0  0  0  0  0  0
   -3.5101    1.4650    0.1581 C   0  0  0  0  0  0  0  0  0  0  0  0
   -4.2143    1.8511   -0.9917 C   0  0  0  0  0  0  0  0  0  0  0  0
   -3.7694    1.4628   -2.2524 C   0  0  0  0  0  0  0  0  0  0  0  0
   -2.6226    0.6848   -2.3714 C   0  0  0  0  0  0  0  0  0  0  0  0
   -1.9082    0.3096   -1.2312 C   0  0  0  0  0  0  0  0  0  0  0  0
   -2.3190    0.7177    0.0479 C   0  0  0  0  0  0  0  0  0  0  0  0
    2.1577   -3.3805    0.4165 H   0  0  0  0  0  0  0  0  0  0  0  0
    1.3705   -2.6911   -1.0005 H   0  0  0  0  0  0  0  0  0  0  0  0
    2.8068   -1.5586   -2.5344 H   0  0  0  0  0  0  0  0  0  0  0  0
    4.9087   -0.3697   -3.0400 H   0  0  0  0  0  0  0  0  0  0  0  0
    6.5205    0.1467   -1.2279 H   0  0  0  0  0  0  0  0  0  0  0  0
    6.0266   -0.5373    1.1043 H   0  0  0  0  0  0  0  0  0  0  0  0
    3.9295   -1.7273    1.6342 H   0  0  0  0  0  0  0  0  0  0  0  0
    1.4552    0.0868   -0.1851 H   0  0  0  0  0  0  0  0  0  0  0  0
    0.3922    0.5383    2.2548 H   0  0  0  0  0  0  0  0  0  0  0  0
    0.1534    1.5890    0.8658 H   0  0  0  0  0  0  0  0  0  0  0  0
   -1.7405   -0.7713    1.4679 H   0  0  0  0  0  0  0  0  0  0  0  0
   -3.8078   -0.0498    2.5180 H   0  0  0  0  0  0  0  0  0  0  0  0
   -3.7038    1.3608    3.5818 H   0  0  0  0  0  0  0  0  0  0  0  0
   -5.1076    1.8423    1.5523 H   0  0  0  0  0  0  0  0  0  0  0  0
   -3.6956    2.9189    1.6864 H   0  0  0  0  0  0  0  0  0  0  0  0
   -5.1185    2.4496   -0.9065 H   0  0  0  0  0  0  0  0  0  0  0  0
   -4.3230    1.7576   -3.1397 H   0  0  0  0  0  0  0  0  0  0  0  0
   -2.2844    0.3639   -3.3532 H   0  0  0  0  0  0  0  0  0  0  0  0
   -1.0320   -0.3185   -1.3600 H   0  0  0  0  0  0  0  0  0  0  0  0
  1  2  2  0
  2  3  1  0
  3  4  1  0
  4  5  2  0
  5  6  1  0
  6  7  2  0
  7  8  1  0
  8  9  2  0
  2 10  1  0
 10 11  1  0
 11 12  1  0
 12 13  1  0
 13 14  1  0
 14 15  1  0
 15 16  1  0
 16 17  2  0
 17 18  1  0
 18 19  2  0
 19 20  1  0
 20 21  2  0
  9  4  1  0
 21 12  1  0
 21 16  1  0
  3 22  1  0
  3 23  1  0
  5 24  1  0
  6 25  1  0
  7 26  1  0
  8 27  1  0
  9 28  1  0
 10 29  1  0
 11 30  1  0
 11 31  1  0
 12 32  1  0
 14 33  1  0
 14 34  1  0
 15 35  1  0
 15 36  1  0
 17 37  1  0
 18 38  1  0
 19 39  1  0
 20 40  1  0
M  END
$$$$
