
     RDKit          3D

 44 47  0  0  0  0  0  0  0  0999 V2000
   -4.9990   -3.8852    0.5332 C   0  0  0  0  0  0  0  0  0  0  0  0
   -4.4067   -2.5057    0.7629 C   0  0  0  0  0  0  0  0  0  0  0  0
   -4.5259   -1.7700   -0.4584 O   0  0  0  0  0  0  0  0  0  0  0  0
   -3.5188   -0.8647   -0.6816 C   0  0  0  0  0  0  0  0  0  0  0  0
   -3.0195   -0.8765   -1.9877 C   0  0  0  0  0  0  0  0  0  0  0  0
   -2.0005   -0.0042   -2.3631 C   0  0  0  0  0  0  0  0  0  0  0  0
   -1.4870    0.9014   -1.4340 C   0  0  0  0  0  0  0  0  0  0  0  0
   -0.4284    1.8278   -1.8399 C   0  0  0  0  0  0  0  0  0  0  0  0
    0.8766    1.6758   -1.5715 C   0  0  0  0  0  0  0  0  0  0  0  0
    2.0757    2.8402   -2.1352 S   0  0  0  0  0  0  0  0  0  0  0  0
    3.3189    1.8887   -1.4397 C   0  0  0  0  0  0  0  0  0  0  0  0
    4.6144    1.9727   -1.3624 N   0  0  0  0  0  0  0  0  0  0  0  0
    4.9238    0.8269   -0.6451 C   0  0  0  0  0  0  0  0  0  0  0  0
    6.3963    0.4442   -0.2834 C   0  0  0  0  0  0  0  0  0  0  0  0
    6.7920   -0.6783    0.4198 C   0  0  0  0  0  0  0  0  0  0  0  0
    8.2041   -0.6249    0.5131 C   0  0  0  0  0  0  0  0  0  0  0  0
    8.5845    0.5253   -0.1363 C   0  0  0  0  0  0  0  0  0  0  0  0
    7.4988    1.1792   -0.6226 O   0  0  0  0  0  0  0  0  0  0  0  0
    3.8649    0.0695   -0.2869 N   0  0  0  0  0  0  0  0  0  0  0  0
    2.8589    0.7853   -0.8200 N   0  0  0  0  0  0  0  0  0  0  0  0
    1.5010    0.5436   -0.8085 C   0  0  0  0  0  0  0  0  0  0  0  0
    0.9977   -0.4176   -0.2594 O   0  0  0  0  0  0  0  0  0  0  0  0
   -2.0082    0.9376   -0.1320 C   0  0  0  0  0  0  0  0  0  0  0  0
   -3.0268    0.0584    0.2588 C   0  0  0  0  0  0  0  0  0  0  0  0
   -3.6257    0.0762    1.4896 O   0  0  0  0  0  0  0  0  0  0  0  0
   -2.9895    0.7580    2.5705 C   0  0  0  0  0  0  0  0  0  0  0  0
   -3.5463    2.1656    2.7100 C   0  0  0  0  0  0  0  0  0  0  0  0
   -4.9387   -4.4936    1.4406 H   0  0  0  0  0  0  0  0  0  0  0  0
   -4.4693   -4.4001   -0.2762 H   0  0  0  0  0  0  0  0  0  0  0  0
   -6.0474   -3.8090    0.2276 H   0  0  0  0  0  0  0  0  0  0  0  0
   -4.9785   -2.0005    1.5483 H   0  0  0  0  0  0  0  0  0  0  0  0
   -3.3605   -2.6167    1.0772 H   0  0  0  0  0  0  0  0  0  0  0  0
   -3.4239   -1.5807   -2.7106 H   0  0  0  0  0  0  0  0  0  0  0  0
   -1.6201   -0.0403   -3.3815 H   0  0  0  0  0  0  0  0  0  0  0  0
   -0.7803    2.6796   -2.4194 H   0  0  0  0  0  0  0  0  0  0  0  0
    6.1319   -1.4390    0.8142 H   0  0  0  0  0  0  0  0  0  0  0  0
    8.8622   -1.3353    0.9933 H   0  0  0  0  0  0  0  0  0  0  0  0
    9.5386    0.9954   -0.3329 H   0  0  0  0  0  0  0  0  0  0  0  0
   -1.6156    1.6775    0.5568 H   0  0  0  0  0  0  0  0  0  0  0  0
   -3.2366    0.1966    3.4790 H   0  0  0  0  0  0  0  0  0  0  0  0
   -1.8954    0.7439    2.4990 H   0  0  0  0  0  0  0  0  0  0  0  0
   -4.6343    2.1350    2.8378 H   0  0  0  0  0  0  0  0  0  0  0  0
   -3.3515    2.7638    1.8151 H   0  0  0  0  0  0  0  0  0  0  0  0
   -3.1058    2.6743    3.5721 H   0  0  0  0  0  0  0  0  0  0  0  0
  1  2  1  0
  2  3  1  0
  3  4  1  0
  4  5  2  0
  5  6  1  0
  6  7  2  0
  7  8  1  0
  8  9  2  3
  9 10  1  0
 10 11  1  0
 11 12  2  0
 12 13  1  0
 13 14  1  0
 14 15  2  0
 15 16  1  0
 16 17  2  0
 17 18  1  0
 13 19  2  0
 19 20  1  0
 20 21  1  0
 21 22  2  0
  7 23  1  0
 23 24  2  0
 24 25  1  0
 25 26  1  0
 26 27  1  0
 24  4  1  0
 21  9  1  0
 20 11  1  0
 18 14  1  0
  1 28  1  0
  1 29  1  0
  1 30  1  0
  2 31  1  0
  2 32  1  0
  5 33  1  0
  6 34  1  0
  8 35  1  0
 15 36  1  0
 16 37  1  0
 17 38  1  0
 23 39  1  0
 26 40  1  0
 26 41  1  0
 27 42  1  0
 27 43  1  0
 27 44  1  0
M  END
$$$$
