
     RDKit          3D

 42 46  0  0  0  0  0  0  0  0999 V2000
    5.1052    1.8694    0.7651 C   0  0  0  0  0  0  0  0  0  0  0  0
    5.2624    0.7429   -0.0398 C   0  0  0  0  0  0  0  0  0  0  0  0
    4.1465    0.1026   -0.5990 C   0  0  0  0  0  0  0  0  0  0  0  0
    4.2941   -1.0296   -1.4073 C   0  0  0  0  0  0  0  0  0  0  0  0
    3.1778   -1.6597   -1.9580 C   0  0  0  0  0  0  0  0  0  0  0  0
    1.8865   -1.1732   -1.7152 C   0  0  0  0  0  0  0  0  0  0  0  0
    0.7723   -1.8083   -2.2697 C   0  0  0  0  0  0  0  0  0  0  0  0
   -0.5105   -1.3225   -2.0307 C   0  0  0  0  0  0  0  0  0  0  0  0
   -0.7164   -0.1868   -1.2282 C   0  0  0  0  0  0  0  0  0  0  0  0
   -2.1478    0.2877   -1.0245 C   0  0  0  0  0  0  0  0  0  0  0  0
   -2.6467    0.1123    0.3480 N   0  0  0  0  0  0  0  0  0  0  0  0
   -3.9794    0.7241    0.5307 C   0  0  0  0  0  0  0  0  0  0  0  0
   -5.1307   -0.2927    0.4917 C   0  0  0  0  0  0  0  0  0  0  0  0
   -5.0210   -1.3092    1.4967 O   0  0  0  0  0  0  0  0  0  0  0  0
   -3.6651   -1.5671    1.8906 C   0  0  0  0  0  0  0  0  0  0  0  0
   -2.6629   -1.3104    0.7556 C   0  0  0  0  0  0  0  0  0  0  0  0
    0.4029    0.4735   -0.6484 C   0  0  0  0  0  0  0  0  0  0  0  0
    0.2917    1.6134    0.1746 C   0  0  0  0  0  0  0  0  0  0  0  0
    1.4132    2.2397    0.7250 C   0  0  0  0  0  0  0  0  0  0  0  0
    2.6965    1.7495    0.4745 C   0  0  0  0  0  0  0  0  0  0  0  0
    3.8301    2.3695    1.0211 C   0  0  0  0  0  0  0  0  0  0  0  0
    2.8487    0.6074   -0.3427 C   0  0  0  0  0  0  0  0  0  0  0  0
    1.7069   -0.0290   -0.9015 C   0  0  0  0  0  0  0  0  0  0  0  0
    5.9765    2.3574    1.1938 H   0  0  0  0  0  0  0  0  0  0  0  0
    6.2655    0.3668   -0.2278 H   0  0  0  0  0  0  0  0  0  0  0  0
    5.2820   -1.4338   -1.6163 H   0  0  0  0  0  0  0  0  0  0  0  0
    3.3281   -2.5383   -2.5815 H   0  0  0  0  0  0  0  0  0  0  0  0
    0.8925   -2.6895   -2.8959 H   0  0  0  0  0  0  0  0  0  0  0  0
   -1.3565   -1.8406   -2.4774 H   0  0  0  0  0  0  0  0  0  0  0  0
   -2.8167   -0.2145   -1.7370 H   0  0  0  0  0  0  0  0  0  0  0  0
   -2.1753    1.3497   -1.3032 H   0  0  0  0  0  0  0  0  0  0  0  0
   -3.9764    1.2011    1.5190 H   0  0  0  0  0  0  0  0  0  0  0  0
   -4.1615    1.5267   -0.1938 H   0  0  0  0  0  0  0  0  0  0  0  0
   -5.1800   -0.7847   -0.4867 H   0  0  0  0  0  0  0  0  0  0  0  0
   -6.0871    0.2170    0.6466 H   0  0  0  0  0  0  0  0  0  0  0  0
   -3.6118   -2.6126    2.2107 H   0  0  0  0  0  0  0  0  0  0  0  0
   -3.4360   -0.9471    2.7654 H   0  0  0  0  0  0  0  0  0  0  0  0
   -1.6613   -1.6058    1.0862 H   0  0  0  0  0  0  0  0  0  0  0  0
   -2.9461   -1.9486   -0.0918 H   0  0  0  0  0  0  0  0  0  0  0  0
   -0.6840    2.0306    0.4131 H   0  0  0  0  0  0  0  0  0  0  0  0
    1.2675    3.1136    1.3557 H   0  0  0  0  0  0  0  0  0  0  0  0
    3.7263    3.2490    1.6526 H   0  0  0  0  0  0  0  0  0  0  0  0
  1  2  2  0
  2  3  1  0
  3  4  2  0
  4  5  1  0
  5  6  2  0
  6  7  1  0
  7  8  2  0
  8  9  1  0
  9 10  1  0
 10 11  1  0
 11 12  1  0
 12 13  1  0
 13 14  1  0
 14 15  1  0
 15 16  1  0
  9 17  2  0
 17 18  1  0
 18 19  2  0
 19 20  1  0
 20 21  2  0
 20 22  1  0
 22 23  2  0
 21  1  1  0
 22  3  1  0
 23  6  1  0
 16 11  1  0
 23 17  1  0
  1 24  1  0
  2 25  1  0
  4 26  1  0
  5 27  1  0
  7 28  1  0
  8 29  1  0
 10 30  1  0
 10 31  1  0
 12 32  1  0
 12 33  1  0
 13 34  1  0
 13 35  1  0
 15 36  1  0
 15 37  1  0
 16 38  1  0
 16 39  1  0
 18 40  1  0
 19 41  1  0
 21 42  1  0
M  END
$$$$
