
     RDKit          3D

 60 63  0  0  0  0  0  0  0  0999 V2000
   -0.1160    4.7516    1.5722 C   0  0  0  0  0  0  0  0  0  0  0  0
   -0.0890    3.4979    2.2428 O   0  0  0  0  0  0  0  0  0  0  0  0
   -0.3828    2.3930    1.5004 C   0  0  0  0  0  0  0  0  0  0  0  0
   -0.5146    1.2122    2.2327 C   0  0  0  0  0  0  0  0  0  0  0  0
   -0.8392    0.0049    1.5975 C   0  0  0  0  0  0  0  0  0  0  0  0
   -1.0251   -0.0255    0.2121 C   0  0  0  0  0  0  0  0  0  0  0  0
   -1.3532   -1.2497   -0.4285 N   0  0  0  0  0  0  0  0  0  0  0  0
   -2.2925   -2.1924   -0.0208 C   0  0  0  0  0  0  0  0  0  0  0  0
   -3.3578   -1.9892    1.0073 C   0  0  0  0  0  0  0  0  0  0  0  0
   -4.4402   -1.0617    0.5300 C   0  0  0  0  0  0  0  0  0  0  0  0
   -4.7333    0.2290    0.9365 C   0  0  0  0  0  0  0  0  0  0  0  0
   -5.8389    0.6914    0.1877 C   0  0  0  0  0  0  0  0  0  0  0  0
   -6.1971   -0.3239   -0.6613 C   0  0  0  0  0  0  0  0  0  0  0  0
   -5.3568   -1.3906   -0.4452 N   0  0  0  0  0  0  0  0  0  0  0  0
   -5.4466   -2.6483   -1.1581 C   0  0  0  0  0  0  0  0  0  0  0  0
   -2.2228   -3.2513   -0.8047 N   0  0  0  0  0  0  0  0  0  0  0  0
   -1.3056   -2.9991   -1.7849 N   0  0  0  0  0  0  0  0  0  0  0  0
   -0.8100   -1.8032   -1.5770 C   0  0  0  0  0  0  0  0  0  0  0  0
    0.4744   -1.1214   -2.5297 S   0  0  0  0  0  0  0  0  0  0  0  0
    1.6075   -2.5521   -2.5773 C   0  0  0  0  0  0  0  0  0  0  0  0
    2.2519   -2.8166   -1.2197 C   0  0  0  0  0  0  0  0  0  0  0  0
    2.3872   -3.9533   -0.7745 O   0  0  0  0  0  0  0  0  0  0  0  0
    2.7431   -1.6983   -0.5687 N   0  0  0  0  0  0  0  0  0  0  0  0
    3.5931   -1.8177    0.5992 C   0  0  0  0  0  0  0  0  0  0  0  0
    3.7153   -0.5050    1.3777 C   0  0  0  0  0  0  0  0  0  0  0  0
    4.2727    0.6405    0.5607 C   0  0  0  0  0  0  0  0  0  0  0  0
    3.4694    1.7436    0.2525 C   0  0  0  0  0  0  0  0  0  0  0  0
    3.9753    2.8020   -0.5078 C   0  0  0  0  0  0  0  0  0  0  0  0
    5.2936    2.7687   -0.9667 C   0  0  0  0  0  0  0  0  0  0  0  0
    6.1029    1.6796   -0.6623 C   0  0  0  0  0  0  0  0  0  0  0  0
    5.5977    0.6194    0.0987 C   0  0  0  0  0  0  0  0  0  0  0  0
   -0.8682    1.1532   -0.5281 C   0  0  0  0  0  0  0  0  0  0  0  0
   -0.5493    2.3576    0.1166 C   0  0  0  0  0  0  0  0  0  0  0  0
    0.0360    5.5381    2.3237 H   0  0  0  0  0  0  0  0  0  0  0  0
    0.7008    4.8243    0.8460 H   0  0  0  0  0  0  0  0  0  0  0  0
   -1.0904    4.9266    1.0959 H   0  0  0  0  0  0  0  0  0  0  0  0
   -0.3642    1.2319    3.3105 H   0  0  0  0  0  0  0  0  0  0  0  0
   -0.8954   -0.8983    2.2008 H   0  0  0  0  0  0  0  0  0  0  0  0
   -3.8030   -2.9626    1.2528 H   0  0  0  0  0  0  0  0  0  0  0  0
   -2.9451   -1.6245    1.9520 H   0  0  0  0  0  0  0  0  0  0  0  0
   -4.2004    0.7841    1.6952 H   0  0  0  0  0  0  0  0  0  0  0  0
   -6.3225    1.6581    0.2564 H   0  0  0  0  0  0  0  0  0  0  0  0
   -6.9846   -0.3727   -1.3975 H   0  0  0  0  0  0  0  0  0  0  0  0
   -5.3503   -3.4679   -0.4446 H   0  0  0  0  0  0  0  0  0  0  0  0
   -6.4178   -2.7183   -1.6551 H   0  0  0  0  0  0  0  0  0  0  0  0
   -4.6521   -2.6778   -1.9054 H   0  0  0  0  0  0  0  0  0  0  0  0
    2.4070   -2.3429   -3.2996 H   0  0  0  0  0  0  0  0  0  0  0  0
    1.0788   -3.4504   -2.9143 H   0  0  0  0  0  0  0  0  0  0  0  0
    2.8138   -0.8455   -1.1155 H   0  0  0  0  0  0  0  0  0  0  0  0
    4.5726   -2.1648    0.2526 H   0  0  0  0  0  0  0  0  0  0  0  0
    3.1861   -2.5986    1.2529 H   0  0  0  0  0  0  0  0  0  0  0  0
    2.7293   -0.2271    1.7727 H   0  0  0  0  0  0  0  0  0  0  0  0
    4.3630   -0.6571    2.2510 H   0  0  0  0  0  0  0  0  0  0  0  0
    2.4412    1.7896    0.6072 H   0  0  0  0  0  0  0  0  0  0  0  0
    3.3480    3.6540   -0.7296 H   0  0  0  0  0  0  0  0  0  0  0  0
    5.6924    3.5955   -1.5541 H   0  0  0  0  0  0  0  0  0  0  0  0
    7.1390    1.6578   -1.0096 H   0  0  0  0  0  0  0  0  0  0  0  0
    6.2517   -0.2198    0.3325 H   0  0  0  0  0  0  0  0  0  0  0  0
   -1.0340    1.1739   -1.6025 H   0  0  0  0  0  0  0  0  0  0  0  0
   -0.4451    3.2494   -0.4941 H   0  0  0  0  0  0  0  0  0  0  0  0
  1  2  1  0
  2  3  1  0
  3  4  2  0
  4  5  1  0
  5  6  2  0
  6  7  1  0
  7  8  1  0
  8  9  1  0
  9 10  1  0
 10 11  2  0
 11 12  1  0
 12 13  2  0
 13 14  1  0
 14 15  1  0
  8 16  2  0
 16 17  1  0
 17 18  2  0
 18 19  1  0
 19 20  1  0
 20 21  1  0
 21 22  2  0
 21 23  1  0
 23 24  1  0
 24 25  1  0
 25 26  1  0
 26 27  2  0
 27 28  1  0
 28 29  2  0
 29 30  1  0
 30 31  2  0
  6 32  1  0
 32 33  2  0
 33  3  1  0
 18  7  1  0
 31 26  1  0
 14 10  1  0
  1 34  1  0
  1 35  1  0
  1 36  1  0
  4 37  1  0
  5 38  1  0
  9 39  1  0
  9 40  1  0
 11 41  1  0
 12 42  1  0
 13 43  1  0
 15 44  1  0
 15 45  1  0
 15 46  1  0
 20 47  1  0
 20 48  1  0
 23 49  1  0
 24 50  1  0
 24 51  1  0
 25 52  1  0
 25 53  1  0
 27 54  1  0
 28 55  1  0
 29 56  1  0
 30 57  1  0
 31 58  1  0
 32 59  1  0
 33 60  1  0
M  END
$$$$
