
     RDKit          3D

 34 35  0  0  0  0  0  0  0  0999 V2000
    5.3606    0.7237   -0.7000 C   0  0  0  0  0  0  0  0  0  0  0  0
    4.4007    1.4303    0.2405 C   0  0  0  0  0  0  0  0  0  0  0  0
    3.3832    0.5346    0.7625 N   0  0  0  0  0  0  0  0  0  0  0  0
    3.6667   -0.1752    1.8713 N   0  0  0  0  0  0  0  0  0  0  0  0
    2.5482   -0.8602    2.1055 C   0  0  0  0  0  0  0  0  0  0  0  0
    1.5408   -0.5870    1.1576 C   0  0  0  0  0  0  0  0  0  0  0  0
    0.2340   -1.1573    1.1466 C   0  0  0  0  0  0  0  0  0  0  0  0
   -0.8777   -0.5764    0.6695 C   0  0  0  0  0  0  0  0  0  0  0  0
   -2.1803   -1.2887    0.7644 C   0  0  0  0  0  0  0  0  0  0  0  0
   -2.3122   -2.3115    1.4285 O   0  0  0  0  0  0  0  0  0  0  0  0
   -3.3493   -0.7021    0.0556 C   0  0  0  0  0  0  0  0  0  0  0  0
   -3.2177    0.0437   -1.1232 C   0  0  0  0  0  0  0  0  0  0  0  0
   -4.3522    0.5656   -1.7504 C   0  0  0  0  0  0  0  0  0  0  0  0
   -5.6181    0.3385   -1.2109 C   0  0  0  0  0  0  0  0  0  0  0  0
   -5.7563   -0.4177   -0.0481 C   0  0  0  0  0  0  0  0  0  0  0  0
   -4.6260   -0.9415    0.5814 C   0  0  0  0  0  0  0  0  0  0  0  0
    2.1188    0.3009    0.2657 C   0  0  0  0  0  0  0  0  0  0  0  0
    1.6178    0.9236   -0.9871 C   0  0  0  0  0  0  0  0  0  0  0  0
    5.8821   -0.0937   -0.1907 H   0  0  0  0  0  0  0  0  0  0  0  0
    4.8331    0.2970   -1.5593 H   0  0  0  0  0  0  0  0  0  0  0  0
    6.1114    1.4262   -1.0744 H   0  0  0  0  0  0  0  0  0  0  0  0
    4.9418    1.8492    1.0968 H   0  0  0  0  0  0  0  0  0  0  0  0
    3.8991    2.2619   -0.2643 H   0  0  0  0  0  0  0  0  0  0  0  0
    2.5095   -1.5210    2.9622 H   0  0  0  0  0  0  0  0  0  0  0  0
    0.1424   -2.1405    1.6102 H   0  0  0  0  0  0  0  0  0  0  0  0
   -0.8645    0.4204    0.2519 H   0  0  0  0  0  0  0  0  0  0  0  0
   -2.2483    0.2093   -1.5838 H   0  0  0  0  0  0  0  0  0  0  0  0
   -4.2508    1.1421   -2.6669 H   0  0  0  0  0  0  0  0  0  0  0  0
   -6.4997    0.7428   -1.7027 H   0  0  0  0  0  0  0  0  0  0  0  0
   -6.7437   -0.6044    0.3673 H   0  0  0  0  0  0  0  0  0  0  0  0
   -4.7427   -1.5371    1.4852 H   0  0  0  0  0  0  0  0  0  0  0  0
    2.4219    1.0914   -1.7097 H   0  0  0  0  0  0  0  0  0  0  0  0
    0.8837    0.2807   -1.4824 H   0  0  0  0  0  0  0  0  0  0  0  0
    1.1439    1.8857   -0.7688 H   0  0  0  0  0  0  0  0  0  0  0  0
  1  2  1  0
  2  3  1  0
  3  4  1  0
  4  5  2  0
  5  6  1  0
  6  7  1  0
  7  8  2  3
  8  9  1  0
  9 10  2  0
  9 11  1  0
 11 12  2  0
 12 13  1  0
 13 14  2  0
 14 15  1  0
 15 16  2  0
  6 17  2  0
 17 18  1  0
 17  3  1  0
 16 11  1  0
  1 19  1  0
  1 20  1  0
  1 21  1  0
  2 22  1  0
  2 23  1  0
  5 24  1  0
  7 25  1  0
  8 26  1  0
 12 27  1  0
 13 28  1  0
 14 29  1  0
 15 30  1  0
 16 31  1  0
 18 32  1  0
 18 33  1  0
 18 34  1  0
M  END
$$$$
