
     RDKit          3D

 54 57  0  0  0  0  0  0  0  0999 V2000
   -3.8154    4.8296   -0.0238 C   0  0  0  0  0  0  0  0  0  0  0  0
   -3.4735    3.6681   -0.7713 O   0  0  0  0  0  0  0  0  0  0  0  0
   -2.7331    2.7137   -0.1311 C   0  0  0  0  0  0  0  0  0  0  0  0
   -2.3276    2.7467    1.2029 C   0  0  0  0  0  0  0  0  0  0  0  0
   -1.5746    1.6939    1.7376 C   0  0  0  0  0  0  0  0  0  0  0  0
   -1.2196    0.6027    0.9355 C   0  0  0  0  0  0  0  0  0  0  0  0
   -0.4613   -0.4636    1.4841 N   0  0  0  0  0  0  0  0  0  0  0  0
   -0.6720   -1.1196    2.6935 C   0  0  0  0  0  0  0  0  0  0  0  0
   -1.8710   -0.9848    3.5756 C   0  0  0  0  0  0  0  0  0  0  0  0
   -3.1376   -1.4551    2.9221 C   0  0  0  0  0  0  0  0  0  0  0  0
   -4.2457   -0.7180    2.5398 C   0  0  0  0  0  0  0  0  0  0  0  0
   -5.1803   -1.6037    1.9590 C   0  0  0  0  0  0  0  0  0  0  0  0
   -4.6319   -2.8637    2.0094 C   0  0  0  0  0  0  0  0  0  0  0  0
   -3.3982   -2.7717    2.6015 N   0  0  0  0  0  0  0  0  0  0  0  0
   -2.5281   -3.9058    2.8372 C   0  0  0  0  0  0  0  0  0  0  0  0
    0.2846   -2.0103    2.8842 N   0  0  0  0  0  0  0  0  0  0  0  0
    1.1033   -2.0012    1.7931 N   0  0  0  0  0  0  0  0  0  0  0  0
    0.6520   -1.0967    0.9553 C   0  0  0  0  0  0  0  0  0  0  0  0
    1.4620   -0.6459   -0.5132 S   0  0  0  0  0  0  0  0  0  0  0  0
    2.8922   -1.7724   -0.4591 C   0  0  0  0  0  0  0  0  0  0  0  0
    3.8058   -1.5956   -1.6654 C   0  0  0  0  0  0  0  0  0  0  0  0
    4.3418   -2.5731   -2.1846 O   0  0  0  0  0  0  0  0  0  0  0  0
    4.0174   -0.2792   -2.0292 N   0  0  0  0  0  0  0  0  0  0  0  0
    4.8349    0.2207   -3.0645 C   0  0  0  0  0  0  0  0  0  0  0  0
    5.6399   -0.5674   -3.8868 C   0  0  0  0  0  0  0  0  0  0  0  0
    6.4162    0.0262   -4.8908 C   0  0  0  0  0  0  0  0  0  0  0  0
    6.3967    1.4092   -5.0793 C   0  0  0  0  0  0  0  0  0  0  0  0
    5.5987    2.2055   -4.2620 C   0  0  0  0  0  0  0  0  0  0  0  0
    4.8289    1.6076   -3.2678 C   0  0  0  0  0  0  0  0  0  0  0  0
    4.0612    2.3861   -2.4878 F   0  0  0  0  0  0  0  0  0  0  0  0
   -1.6181    0.5713   -0.4038 C   0  0  0  0  0  0  0  0  0  0  0  0
   -2.3748    1.6231   -0.9269 C   0  0  0  0  0  0  0  0  0  0  0  0
   -4.4500    4.5748    0.8312 H   0  0  0  0  0  0  0  0  0  0  0  0
   -4.3892    5.4925   -0.6791 H   0  0  0  0  0  0  0  0  0  0  0  0
   -2.9177    5.3703    0.2945 H   0  0  0  0  0  0  0  0  0  0  0  0
   -2.5753    3.5787    1.8537 H   0  0  0  0  0  0  0  0  0  0  0  0
   -1.2424    1.7736    2.7696 H   0  0  0  0  0  0  0  0  0  0  0  0
   -1.7079   -1.5755    4.4865 H   0  0  0  0  0  0  0  0  0  0  0  0
   -1.9829    0.0450    3.9260 H   0  0  0  0  0  0  0  0  0  0  0  0
   -4.3657    0.3524    2.6551 H   0  0  0  0  0  0  0  0  0  0  0  0
   -6.1497   -1.3511    1.5490 H   0  0  0  0  0  0  0  0  0  0  0  0
   -5.0229   -3.8149    1.6719 H   0  0  0  0  0  0  0  0  0  0  0  0
   -2.1550   -3.8593    3.8629 H   0  0  0  0  0  0  0  0  0  0  0  0
   -1.7062   -3.8661    2.1182 H   0  0  0  0  0  0  0  0  0  0  0  0
   -3.0941   -4.8317    2.7016 H   0  0  0  0  0  0  0  0  0  0  0  0
    2.5286   -2.8055   -0.4556 H   0  0  0  0  0  0  0  0  0  0  0  0
    3.4856   -1.5937    0.4431 H   0  0  0  0  0  0  0  0  0  0  0  0
    3.4703    0.4226   -1.5361 H   0  0  0  0  0  0  0  0  0  0  0  0
    5.6869   -1.6467   -3.7769 H   0  0  0  0  0  0  0  0  0  0  0  0
    7.0355   -0.6009   -5.5304 H   0  0  0  0  0  0  0  0  0  0  0  0
    7.0019    1.8612   -5.8610 H   0  0  0  0  0  0  0  0  0  0  0  0
    5.5704    3.2831   -4.3911 H   0  0  0  0  0  0  0  0  0  0  0  0
   -1.3966   -0.2737   -1.0506 H   0  0  0  0  0  0  0  0  0  0  0  0
   -2.6961    1.5883   -1.9657 H   0  0  0  0  0  0  0  0  0  0  0  0
  1  2  1  0
  2  3  1  0
  3  4  2  0
  4  5  1  0
  5  6  2  0
  6  7  1  0
  7  8  1  0
  8  9  1  0
  9 10  1  0
 10 11  2  0
 11 12  1  0
 12 13  2  0
 13 14  1  0
 14 15  1  0
  8 16  2  0
 16 17  1  0
 17 18  2  0
 18 19  1  0
 19 20  1  0
 20 21  1  0
 21 22  2  0
 21 23  1  0
 23 24  1  0
 24 25  2  0
 25 26  1  0
 26 27  2  0
 27 28  1  0
 28 29  2  0
 29 30  1  0
  6 31  1  0
 31 32  2  0
 32  3  1  0
 18  7  1  0
 29 24  1  0
 14 10  1  0
  1 33  1  0
  1 34  1  0
  1 35  1  0
  4 36  1  0
  5 37  1  0
  9 38  1  0
  9 39  1  0
 11 40  1  0
 12 41  1  0
 13 42  1  0
 15 43  1  0
 15 44  1  0
 15 45  1  0
 20 46  1  0
 20 47  1  0
 23 48  1  0
 25 49  1  0
 26 50  1  0
 27 51  1  0
 28 52  1  0
 31 53  1  0
 32 54  1  0
M  END
$$$$
