
     RDKit          3D

 49 50  0  0  0  0  0  0  0  0999 V2000
    2.6484   -1.4739    1.8269 C   0  0  0  0  0  0  0  0  0  0  0  0
    3.8849   -0.9641    1.0842 C   0  0  0  0  0  0  0  0  0  0  0  0
    4.8100   -0.2370    2.0631 C   0  0  0  0  0  0  0  0  0  0  0  0
    3.5196   -0.0288   -0.0817 C   0  0  0  0  0  0  0  0  0  0  0  0
    2.7491   -0.7321   -1.1969 C   0  0  0  0  0  0  0  0  0  0  0  0
    2.4682    0.2384   -2.2910 N   0  0  0  0  0  4  0  0  0  0  0  0
    3.3871    0.3650   -3.2813 C   0  0  0  0  0  0  0  0  0  0  0  0
    3.1810    1.2235   -4.3528 C   0  0  0  0  0  0  0  0  0  0  0  0
    2.0129    1.9647   -4.4145 C   0  0  0  0  0  0  0  0  0  0  0  0
    1.0752    1.8328   -3.3991 C   0  0  0  0  0  0  0  0  0  0  0  0
    1.3111    0.9581   -2.3299 C   0  0  0  0  0  0  0  0  0  0  0  0
    0.3265    0.8494   -1.2509 C   0  0  0  0  0  0  0  0  0  0  0  0
   -0.8957    0.3300   -1.4475 C   0  0  0  0  0  0  0  0  0  0  0  0
   -1.9086    0.2210   -0.3890 C   0  0  0  0  0  0  0  0  0  0  0  0
   -1.5935   -0.1080    0.9290 C   0  0  0  0  0  0  0  0  0  0  0  0
   -2.6023   -0.2222    1.8995 C   0  0  0  0  0  0  0  0  0  0  0  0
   -3.9622   -0.0333    1.6008 C   0  0  0  0  0  0  0  0  0  0  0  0
   -4.9563   -0.1230    2.5778 N   0  0  0  0  0  0  0  0  0  0  0  0
   -6.3632   -0.1394    2.1773 C   0  0  0  0  0  0  0  0  0  0  0  0
   -4.6562   -0.7768    3.8512 C   0  0  0  0  0  0  0  0  0  0  0  0
   -4.2503    0.2918    0.2649 C   0  0  0  0  0  0  0  0  0  0  0  0
   -3.2510    0.4068   -0.7148 C   0  0  0  0  0  0  0  0  0  0  0  0
    2.9381   -2.0832    2.6898 H   0  0  0  0  0  0  0  0  0  0  0  0
    2.0340   -0.6436    2.1913 H   0  0  0  0  0  0  0  0  0  0  0  0
    2.0254   -2.1017    1.1831 H   0  0  0  0  0  0  0  0  0  0  0  0
    4.4297   -1.8294    0.6861 H   0  0  0  0  0  0  0  0  0  0  0  0
    5.7224    0.0998    1.5596 H   0  0  0  0  0  0  0  0  0  0  0  0
    5.1082   -0.8997    2.8825 H   0  0  0  0  0  0  0  0  0  0  0  0
    4.3186    0.6401    2.4979 H   0  0  0  0  0  0  0  0  0  0  0  0
    2.9435    0.8248    0.2949 H   0  0  0  0  0  0  0  0  0  0  0  0
    4.4405    0.3937   -0.5040 H   0  0  0  0  0  0  0  0  0  0  0  0
    3.3375   -1.5525   -1.6250 H   0  0  0  0  0  0  0  0  0  0  0  0
    1.8036   -1.1650   -0.8615 H   0  0  0  0  0  0  0  0  0  0  0  0
    4.2936   -0.2302   -3.2053 H   0  0  0  0  0  0  0  0  0  0  0  0
    3.9295    1.3134   -5.1375 H   0  0  0  0  0  0  0  0  0  0  0  0
    1.8327    2.6453   -5.2456 H   0  0  0  0  0  0  0  0  0  0  0  0
    0.1596    2.4220   -3.4379 H   0  0  0  0  0  0  0  0  0  0  0  0
    0.6318    1.2308   -0.2805 H   0  0  0  0  0  0  0  0  0  0  0  0
   -1.2120   -0.0229   -2.4285 H   0  0  0  0  0  0  0  0  0  0  0  0
   -0.5684   -0.2880    1.2378 H   0  0  0  0  0  0  0  0  0  0  0  0
   -2.2860   -0.4631    2.9103 H   0  0  0  0  0  0  0  0  0  0  0  0
   -7.0255   -0.1856    3.0491 H   0  0  0  0  0  0  0  0  0  0  0  0
   -6.6339    0.7781    1.6438 H   0  0  0  0  0  0  0  0  0  0  0  0
   -6.5818   -1.0097    1.5488 H   0  0  0  0  0  0  0  0  0  0  0  0
   -5.5322   -0.7937    4.5093 H   0  0  0  0  0  0  0  0  0  0  0  0
   -3.8786   -0.2350    4.4001 H   0  0  0  0  0  0  0  0  0  0  0  0
   -4.3414   -1.8145    3.6950 H   0  0  0  0  0  0  0  0  0  0  0  0
   -5.2725    0.4683   -0.0575 H   0  0  0  0  0  0  0  0  0  0  0  0
   -3.5511    0.6584   -1.7297 H   0  0  0  0  0  0  0  0  0  0  0  0
  1  2  1  0
  2  3  1  0
  2  4  1  0
  4  5  1  0
  5  6  1  0
  6  7  2  0
  7  8  1  0
  8  9  2  0
  9 10  1  0
 10 11  2  0
 11 12  1  0
 12 13  2  3
 13 14  1  0
 14 15  2  0
 15 16  1  0
 16 17  2  0
 17 18  1  0
 18 19  1  0
 18 20  1  0
 17 21  1  0
 21 22  2  0
 11  6  1  0
 22 14  1  0
  1 23  1  0
  1 24  1  0
  1 25  1  0
  2 26  1  0
  3 27  1  0
  3 28  1  0
  3 29  1  0
  4 30  1  0
  4 31  1  0
  5 32  1  0
  5 33  1  0
  7 34  1  0
  8 35  1  0
  9 36  1  0
 10 37  1  0
 12 38  1  0
 13 39  1  0
 15 40  1  0
 16 41  1  0
 19 42  1  0
 19 43  1  0
 19 44  1  0
 20 45  1  0
 20 46  1  0
 20 47  1  0
 21 48  1  0
 22 49  1  0
M  CHG  1   6   1
M  END
$$$$
