
     RDKit          3D

 49 50  0  0  0  0  0  0  0  0999 V2000
    5.9809   -1.2652   -2.4156 C   0  0  0  0  0  0  0  0  0  0  0  0
    4.6912   -2.0452   -2.2561 C   0  0  0  0  0  0  0  0  0  0  0  0
    3.8425   -1.3205   -1.3605 O   0  0  0  0  0  0  0  0  0  0  0  0
    2.6562   -1.9375   -1.0794 C   0  0  0  0  0  0  0  0  0  0  0  0
    2.3485   -3.0331   -1.5399 O   0  0  0  0  0  0  0  0  0  0  0  0
    1.8061   -1.1597   -0.1621 C   0  0  0  0  0  0  0  0  0  0  0  0
    2.0626    0.1241    0.4359 C   0  0  0  0  0  0  0  0  0  0  0  0
    3.2650    0.9803    0.2135 C   0  0  0  0  0  0  0  0  0  0  0  0
    0.9956    0.4157    1.2757 C   0  0  0  0  0  0  0  0  0  0  0  0
    0.8002    1.6008    2.1634 C   0  0  0  0  0  0  0  0  0  0  0  0
    0.0630   -0.6001    1.1546 N   0  0  0  0  0  0  0  0  0  0  0  0
   -1.1911   -0.6825    1.9168 C   0  0  0  0  0  0  0  0  0  0  0  0
   -2.2181    0.3696    1.5485 C   0  0  0  0  0  0  0  0  0  0  0  0
   -2.6516    1.2670    2.5445 C   0  0  0  0  0  0  0  0  0  0  0  0
   -3.6071    2.2438    2.2664 C   0  0  0  0  0  0  0  0  0  0  0  0
   -4.1376    2.3446    0.9852 C   0  0  0  0  0  0  0  0  0  0  0  0
   -3.7147    1.4670   -0.0184 C   0  0  0  0  0  0  0  0  0  0  0  0
   -4.2515    1.6095   -1.2711 O   0  0  0  0  0  0  0  0  0  0  0  0
   -3.6941    2.7478   -1.9325 C   0  0  0  0  0  0  0  0  0  0  0  0
   -2.7960    0.4428    0.2645 C   0  0  0  0  0  0  0  0  0  0  0  0
   -2.3638   -0.4931   -0.6358 O   0  0  0  0  0  0  0  0  0  0  0  0
   -3.3123   -0.9500   -1.5934 C   0  0  0  0  0  0  0  0  0  0  0  0
    0.5548   -1.5717    0.2986 C   0  0  0  0  0  0  0  0  0  0  0  0
   -0.1764   -2.8352   -0.0353 C   0  0  0  0  0  0  0  0  0  0  0  0
    6.6706   -1.7838   -3.0879 H   0  0  0  0  0  0  0  0  0  0  0  0
    6.4685   -1.1225   -1.4446 H   0  0  0  0  0  0  0  0  0  0  0  0
    5.7793   -0.2670   -2.8185 H   0  0  0  0  0  0  0  0  0  0  0  0
    4.1995   -2.1442   -3.2293 H   0  0  0  0  0  0  0  0  0  0  0  0
    4.9076   -3.0381   -1.8463 H   0  0  0  0  0  0  0  0  0  0  0  0
    3.1553    1.9679    0.6703 H   0  0  0  0  0  0  0  0  0  0  0  0
    3.4305    1.1447   -0.8560 H   0  0  0  0  0  0  0  0  0  0  0  0
    4.1535    0.5101    0.6452 H   0  0  0  0  0  0  0  0  0  0  0  0
    1.7538    2.0858    2.3962 H   0  0  0  0  0  0  0  0  0  0  0  0
    0.3555    1.3209    3.1231 H   0  0  0  0  0  0  0  0  0  0  0  0
    0.1613    2.3423    1.6732 H   0  0  0  0  0  0  0  0  0  0  0  0
   -1.6314   -1.6763    1.8143 H   0  0  0  0  0  0  0  0  0  0  0  0
   -0.9031   -0.6021    2.9721 H   0  0  0  0  0  0  0  0  0  0  0  0
   -2.2418    1.2089    3.5520 H   0  0  0  0  0  0  0  0  0  0  0  0
   -3.9317    2.9271    3.0453 H   0  0  0  0  0  0  0  0  0  0  0  0
   -4.8816    3.1053    0.7672 H   0  0  0  0  0  0  0  0  0  0  0  0
   -2.5998    2.7678   -1.8591 H   0  0  0  0  0  0  0  0  0  0  0  0
   -4.1222    3.6746   -1.5344 H   0  0  0  0  0  0  0  0  0  0  0  0
   -3.9606    2.6820   -2.9911 H   0  0  0  0  0  0  0  0  0  0  0  0
   -3.0175   -1.9607   -1.8896 H   0  0  0  0  0  0  0  0  0  0  0  0
   -3.2757   -0.3258   -2.4896 H   0  0  0  0  0  0  0  0  0  0  0  0
   -4.3274   -1.0142   -1.1855 H   0  0  0  0  0  0  0  0  0  0  0  0
    0.2356   -3.6664    0.5448 H   0  0  0  0  0  0  0  0  0  0  0  0
   -0.0808   -3.0697   -1.1003 H   0  0  0  0  0  0  0  0  0  0  0  0
   -1.2495   -2.7856    0.1577 H   0  0  0  0  0  0  0  0  0  0  0  0
  1  2  1  0
  2  3  1  0
  3  4  1  0
  4  5  2  0
  4  6  1  0
  6  7  1  0
  7  8  1  0
  7  9  2  0
  9 10  1  0
  9 11  1  0
 11 12  1  0
 12 13  1  0
 13 14  2  0
 14 15  1  0
 15 16  2  0
 16 17  1  0
 17 18  1  0
 18 19  1  0
 17 20  2  0
 20 21  1  0
 21 22  1  0
 11 23  1  0
 23 24  1  0
 23  6  2  0
 20 13  1  0
  1 25  1  0
  1 26  1  0
  1 27  1  0
  2 28  1  0
  2 29  1  0
  8 30  1  0
  8 31  1  0
  8 32  1  0
 10 33  1  0
 10 34  1  0
 10 35  1  0
 12 36  1  0
 12 37  1  0
 14 38  1  0
 15 39  1  0
 16 40  1  0
 19 41  1  0
 19 42  1  0
 19 43  1  0
 22 44  1  0
 22 45  1  0
 22 46  1  0
 24 47  1  0
 24 48  1  0
 24 49  1  0
M  END
$$$$
