
     RDKit          3D

 56 59  0  0  0  0  0  0  0  0999 V2000
   -4.8499    2.9814    1.7272 C   0  0  0  0  0  0  0  0  0  0  0  0
   -5.1296    3.6800    0.4060 C   0  0  0  0  0  0  0  0  0  0  0  0
   -3.7549    3.4838   -0.7841 S   0  0  0  0  0  0  0  0  0  0  0  0
   -3.8028    1.7241   -1.0830 C   0  0  0  0  0  0  0  0  0  0  0  0
   -4.9495    1.0891   -1.5374 C   0  0  0  0  0  0  0  0  0  0  0  0
   -4.9253   -0.2835   -1.7649 C   0  0  0  0  0  0  0  0  0  0  0  0
   -3.7549   -1.0378   -1.5514 C   0  0  0  0  0  0  0  0  0  0  0  0
   -2.5695   -0.4256   -1.0997 C   0  0  0  0  0  0  0  0  0  0  0  0
   -2.6334    0.9724   -0.8868 C   0  0  0  0  0  0  0  0  0  0  0  0
   -1.3704   -1.1726   -0.8949 N   0  0  0  0  0  0  0  0  0  0  0  0
   -0.2799   -0.5065   -0.1383 C   0  0  0  0  0  0  0  0  0  0  0  0
    0.6773    0.2440   -1.0772 C   0  0  0  0  0  0  0  0  0  0  0  0
    1.5938    1.2120   -0.3186 C   0  0  0  0  0  0  0  0  0  0  0  0
    2.4386    0.5638    0.6944 N   0  0  0  0  0  0  0  0  0  0  0  0
    3.1147    1.5615    1.5556 C   0  0  0  0  0  0  0  0  0  0  0  0
    4.5759    1.8758    1.1624 C   0  0  0  0  0  0  0  0  0  0  0  0
    5.4616    0.6962    1.1039 N   0  0  0  0  0  0  0  0  0  0  0  0
    6.3366    0.6111    2.2701 C   0  0  0  0  0  0  0  0  0  0  0  0
    4.6894   -0.5526    0.9442 C   0  0  0  0  0  0  0  0  0  0  0  0
    3.4277   -0.3517    0.0766 C   0  0  0  0  0  0  0  0  0  0  0  0
   -1.1630   -2.5254   -1.2919 C   0  0  0  0  0  0  0  0  0  0  0  0
    0.1123   -3.1346   -1.2608 C   0  0  0  0  0  0  0  0  0  0  0  0
    0.3293   -4.4592   -1.6611 C   0  0  0  0  0  0  0  0  0  0  0  0
   -0.7295   -5.2272   -2.1134 C   0  0  0  0  0  0  0  0  0  0  0  0
   -1.9986   -4.6638   -2.1635 C   0  0  0  0  0  0  0  0  0  0  0  0
   -2.2205   -3.3302   -1.7632 C   0  0  0  0  0  0  0  0  0  0  0  0
   -3.9066   -2.7792   -1.8639 S   0  0  0  0  0  0  0  0  0  0  0  0
   -5.6425    3.2096    2.4479 H   0  0  0  0  0  0  0  0  0  0  0  0
   -4.8175    1.8934    1.6126 H   0  0  0  0  0  0  0  0  0  0  0  0
   -3.9002    3.3129    2.1629 H   0  0  0  0  0  0  0  0  0  0  0  0
   -5.2460    4.7542    0.5864 H   0  0  0  0  0  0  0  0  0  0  0  0
   -6.0666    3.3247   -0.0330 H   0  0  0  0  0  0  0  0  0  0  0  0
   -5.8627    1.6437   -1.7318 H   0  0  0  0  0  0  0  0  0  0  0  0
   -5.8329   -0.7697   -2.1180 H   0  0  0  0  0  0  0  0  0  0  0  0
   -1.7557    1.5260   -0.5698 H   0  0  0  0  0  0  0  0  0  0  0  0
   -0.6952    0.1729    0.6172 H   0  0  0  0  0  0  0  0  0  0  0  0
    0.2700   -1.2253    0.4817 H   0  0  0  0  0  0  0  0  0  0  0  0
    1.2720   -0.4608   -1.6673 H   0  0  0  0  0  0  0  0  0  0  0  0
    0.1093    0.8256   -1.8126 H   0  0  0  0  0  0  0  0  0  0  0  0
    0.9438    1.9500    0.1696 H   0  0  0  0  0  0  0  0  0  0  0  0
    2.2090    1.7690   -1.0368 H   0  0  0  0  0  0  0  0  0  0  0  0
    2.5428    2.4963    1.6118 H   0  0  0  0  0  0  0  0  0  0  0  0
    3.1122    1.1628    2.5790 H   0  0  0  0  0  0  0  0  0  0  0  0
    4.5731    2.3319    0.1641 H   0  0  0  0  0  0  0  0  0  0  0  0
    4.9770    2.6448    1.8346 H   0  0  0  0  0  0  0  0  0  0  0  0
    6.9815    1.4949    2.3314 H   0  0  0  0  0  0  0  0  0  0  0  0
    7.0011   -0.2568    2.1907 H   0  0  0  0  0  0  0  0  0  0  0  0
    5.7720    0.5310    3.2061 H   0  0  0  0  0  0  0  0  0  0  0  0
    4.3807   -0.9573    1.9182 H   0  0  0  0  0  0  0  0  0  0  0  0
    5.3323   -1.3057    0.4726 H   0  0  0  0  0  0  0  0  0  0  0  0
    3.7468    0.0162   -0.9083 H   0  0  0  0  0  0  0  0  0  0  0  0
    2.9537   -1.3267   -0.0812 H   0  0  0  0  0  0  0  0  0  0  0  0
    0.9927   -2.5922   -0.9344 H   0  0  0  0  0  0  0  0  0  0  0  0
    1.3303   -4.8810   -1.6192 H   0  0  0  0  0  0  0  0  0  0  0  0
   -0.5724   -6.2555   -2.4261 H   0  0  0  0  0  0  0  0  0  0  0  0
   -2.8270   -5.2740   -2.5185 H   0  0  0  0  0  0  0  0  0  0  0  0
  1  2  1  0
  2  3  1  0
  3  4  1  0
  4  5  2  0
  5  6  1  0
  6  7  2  0
  7  8  1  0
  8  9  2  0
  8 10  1  0
 10 11  1  0
 11 12  1  0
 12 13  1  0
 13 14  1  0
 14 15  1  0
 15 16  1  0
 16 17  1  0
 17 18  1  0
 17 19  1  0
 19 20  1  0
 10 21  1  0
 21 22  2  0
 22 23  1  0
 23 24  2  0
 24 25  1  0
 25 26  2  0
 26 27  1  0
  9  4  1  0
 20 14  1  0
 26 21  1  0
 27  7  1  0
  1 28  1  0
  1 29  1  0
  1 30  1  0
  2 31  1  0
  2 32  1  0
  5 33  1  0
  6 34  1  0
  9 35  1  0
 11 36  1  0
 11 37  1  0
 12 38  1  0
 12 39  1  0
 13 40  1  0
 13 41  1  0
 15 42  1  0
 15 43  1  0
 16 44  1  0
 16 45  1  0
 18 46  1  0
 18 47  1  0
 18 48  1  0
 19 49  1  0
 19 50  1  0
 20 51  1  0
 20 52  1  0
 22 53  1  0
 23 54  1  0
 24 55  1  0
 25 56  1  0
M  END
$$$$
