
     RDKit          3D

 43 45  0  0  0  0  0  0  0  0999 V2000
   -1.6291   -2.4549    3.1042 C   0  0  0  0  0  0  0  0  0  0  0  0
   -1.5317   -1.4199    2.0253 C   0  0  0  0  0  0  0  0  0  0  0  0
   -0.3081   -0.9015    1.6644 C   0  0  0  0  0  0  0  0  0  0  0  0
   -0.2968    0.0451    0.6596 C   0  0  0  0  0  0  0  0  0  0  0  0
    0.8982    0.6432    0.2289 N   0  0  0  0  0  0  0  0  0  0  0  0
    2.0803    0.0025    0.4178 N   0  0  0  0  0  0  0  0  0  0  0  0
    3.0927    0.5554   -0.1746 C   0  0  0  0  0  0  0  0  0  0  0  0
    4.4532   -0.0246   -0.0761 C   0  0  0  0  0  0  0  0  0  0  0  0
    4.6163   -1.2630    0.5628 C   0  0  0  0  0  0  0  0  0  0  0  0
    5.8775   -1.8643    0.6408 C   0  0  0  0  0  0  0  0  0  0  0  0
    6.9922   -1.2408    0.0797 C   0  0  0  0  0  0  0  0  0  0  0  0
    6.8521   -0.0086   -0.5565 C   0  0  0  0  0  0  0  0  0  0  0  0
    5.5847    0.5907   -0.6226 C   0  0  0  0  0  0  0  0  0  0  0  0
    5.4962    1.8841   -1.2668 N   0  0  0  0  0  4  0  0  0  0  0  0
    5.0405    2.8207   -0.5990 O   0  0  0  0  0  0  0  0  0  0  0  0
    5.8922    1.9578   -2.4370 O   0  0  0  0  0  1  0  0  0  0  0  0
   -1.4245    0.4649    0.0603 N   0  0  0  0  0  0  0  0  0  0  0  0
   -2.5879   -0.0915    0.4645 C   0  0  0  0  0  0  0  0  0  0  0  0
   -3.8141    0.3359   -0.1748 N   0  0  0  0  0  0  0  0  0  0  0  0
   -5.0175   -0.2150    0.1784 N   0  0  0  0  0  0  0  0  0  0  0  0
   -5.9239    0.3788   -0.5977 C   0  0  0  0  0  0  0  0  0  0  0  0
   -7.3579    0.0175   -0.4916 C   0  0  0  0  0  0  0  0  0  0  0  0
   -5.3372    1.3267   -1.4543 C   0  0  0  0  0  0  0  0  0  0  0  0
   -3.9859    1.2903   -1.1787 C   0  0  0  0  0  0  0  0  0  0  0  0
   -2.8895    2.0818   -1.7895 C   0  0  0  0  0  0  0  0  0  0  0  0
   -2.6741   -1.0309    1.4335 N   0  0  0  0  0  0  0  0  0  0  0  0
   -2.6738   -2.7170    3.3013 H   0  0  0  0  0  0  0  0  0  0  0  0
   -1.0983   -3.3643    2.8035 H   0  0  0  0  0  0  0  0  0  0  0  0
   -1.1943   -2.0744    4.0340 H   0  0  0  0  0  0  0  0  0  0  0  0
    0.6075   -1.2174    2.1471 H   0  0  0  0  0  0  0  0  0  0  0  0
    0.7264    1.2404   -0.5770 H   0  0  0  0  0  0  0  0  0  0  0  0
    2.9544    1.4700   -0.7758 H   0  0  0  0  0  0  0  0  0  0  0  0
    3.7614   -1.7764    1.0003 H   0  0  0  0  0  0  0  0  0  0  0  0
    5.9863   -2.8259    1.1392 H   0  0  0  0  0  0  0  0  0  0  0  0
    7.9688   -1.7170    0.1411 H   0  0  0  0  0  0  0  0  0  0  0  0
    7.7252    0.4773   -0.9895 H   0  0  0  0  0  0  0  0  0  0  0  0
   -7.7664   -0.2188   -1.4796 H   0  0  0  0  0  0  0  0  0  0  0  0
   -7.5078   -0.8556    0.1528 H   0  0  0  0  0  0  0  0  0  0  0  0
   -7.9291    0.8519   -0.0728 H   0  0  0  0  0  0  0  0  0  0  0  0
   -5.8316    1.9554   -2.1823 H   0  0  0  0  0  0  0  0  0  0  0  0
   -2.1728    1.4323   -2.3006 H   0  0  0  0  0  0  0  0  0  0  0  0
   -2.3663    2.6820   -1.0378 H   0  0  0  0  0  0  0  0  0  0  0  0
   -3.2880    2.7770   -2.5376 H   0  0  0  0  0  0  0  0  0  0  0  0
  1  2  1  0
  2  3  2  0
  3  4  1  0
  4  5  1  0
  5  6  1  0
  6  7  2  3
  7  8  1  0
  8  9  2  0
  9 10  1  0
 10 11  2  0
 11 12  1  0
 12 13  2  0
 13 14  1  0
 14 15  2  0
 14 16  1  0
  4 17  2  0
 17 18  1  0
 18 19  1  0
 19 20  1  0
 20 21  2  0
 21 22  1  0
 21 23  1  0
 23 24  2  0
 24 25  1  0
 18 26  2  0
 26  2  1  0
 13  8  1  0
 24 19  1  0
  1 27  1  0
  1 28  1  0
  1 29  1  0
  3 30  1  0
  5 31  1  0
  7 32  1  0
  9 33  1  0
 10 34  1  0
 11 35  1  0
 12 36  1  0
 22 37  1  0
 22 38  1  0
 22 39  1  0
 23 40  1  0
 25 41  1  0
 25 42  1  0
 25 43  1  0
M  CHG  2  14   1  16  -1
M  END
$$$$
