
     RDKit          3D

 38 40  0  0  0  0  0  0  0  0999 V2000
   -2.3332   -2.7676   -0.1741 C   0  0  0  0  0  0  0  0  0  0  0  0
   -2.6421   -1.4701   -0.8650 C   0  0  0  0  0  0  0  0  0  0  0  0
   -2.6514   -1.4637   -2.2731 C   0  0  0  0  0  0  0  0  0  0  0  0
   -2.9557   -0.3047   -2.9815 C   0  0  0  0  0  0  0  0  0  0  0  0
   -2.9579   -0.3319   -4.3203 F   0  0  0  0  0  0  0  0  0  0  0  0
   -3.2653    0.8743   -2.3219 C   0  0  0  0  0  0  0  0  0  0  0  0
   -3.2641    0.8954   -0.9285 C   0  0  0  0  0  0  0  0  0  0  0  0
   -2.9412   -0.2656   -0.1961 C   0  0  0  0  0  0  0  0  0  0  0  0
   -2.9681   -0.0949    1.5903 S   0  0  0  0  0  6  0  0  0  0  0  0
   -2.8820   -1.3939    2.2178 O   0  0  0  0  0  0  0  0  0  0  0  0
   -4.0552    0.8088    1.9085 O   0  0  0  0  0  0  0  0  0  0  0  0
   -1.5469    0.7678    1.9050 N   0  0  0  0  0  0  0  0  0  0  0  0
   -0.3034    0.2467    1.4555 C   0  0  0  0  0  0  0  0  0  0  0  0
    0.2331   -0.8987    2.0384 C   0  0  0  0  0  0  0  0  0  0  0  0
    1.4316   -1.4239    1.5584 C   0  0  0  0  0  0  0  0  0  0  0  0
    2.0904   -0.8001    0.5005 C   0  0  0  0  0  0  0  0  0  0  0  0
    3.2598   -1.3837    0.0968 O   0  0  0  0  0  0  0  0  0  0  0  0
    1.5605    0.3516   -0.0988 C   0  0  0  0  0  0  0  0  0  0  0  0
    2.2932    1.1554   -1.5160 S   0  0  0  0  0  0  0  0  0  0  0  0
    3.7977    1.7308   -0.8586 C   0  0  0  0  0  0  0  0  0  0  0  0
    4.0606    3.0467   -0.6059 N   0  0  0  0  0  0  0  0  0  0  0  0
    5.2845    3.0171   -0.1333 C   0  0  0  0  0  0  0  0  0  0  0  0
    5.7319    1.7337   -0.1092 N   0  0  0  0  0  0  0  0  0  0  0  0
    4.7954    0.8849   -0.5706 N   0  0  0  0  0  0  0  0  0  0  0  0
    0.3525    0.8687    0.3905 C   0  0  0  0  0  0  0  0  0  0  0  0
   -2.0695   -3.5503   -0.8944 H   0  0  0  0  0  0  0  0  0  0  0  0
   -1.4760   -2.6621    0.4942 H   0  0  0  0  0  0  0  0  0  0  0  0
   -3.2080   -3.1245    0.3773 H   0  0  0  0  0  0  0  0  0  0  0  0
   -2.4274   -2.3661   -2.8377 H   0  0  0  0  0  0  0  0  0  0  0  0
   -3.5119    1.7629   -2.8942 H   0  0  0  0  0  0  0  0  0  0  0  0
   -3.5221    1.8210   -0.4165 H   0  0  0  0  0  0  0  0  0  0  0  0
   -1.6920    1.7747    1.8554 H   0  0  0  0  0  0  0  0  0  0  0  0
   -0.2747   -1.3899    2.8653 H   0  0  0  0  0  0  0  0  0  0  0  0
    1.8532   -2.3192    2.0080 H   0  0  0  0  0  0  0  0  0  0  0  0
    3.7814   -0.7147   -0.3970 H   0  0  0  0  0  0  0  0  0  0  0  0
    5.8753    3.8610    0.1942 H   0  0  0  0  0  0  0  0  0  0  0  0
    6.6295    1.3731    0.1970 H   0  0  0  0  0  0  0  0  0  0  0  0
   -0.0826    1.7510   -0.0723 H   0  0  0  0  0  0  0  0  0  0  0  0
  1  2  1  0
  2  3  2  0
  3  4  1  0
  4  5  1  0
  4  6  2  0
  6  7  1  0
  7  8  2  0
  8  9  1  0
  9 10  2  0
  9 11  2  0
  9 12  1  0
 12 13  1  0
 13 14  2  0
 14 15  1  0
 15 16  2  0
 16 17  1  0
 16 18  1  0
 18 19  1  0
 19 20  1  0
 20 21  1  0
 21 22  2  0
 22 23  1  0
 23 24  1  0
 18 25  2  0
  8  2  1  0
 25 13  1  0
 24 20  2  0
  1 26  1  0
  1 27  1  0
  1 28  1  0
  3 29  1  0
  6 30  1  0
  7 31  1  0
 12 32  1  0
 14 33  1  0
 15 34  1  0
 17 35  1  0
 22 36  1  0
 23 37  1  0
 25 38  1  0
M  END
$$$$
