
     RDKit          3D

 46 49  0  0  0  0  0  0  0  0999 V2000
   -6.7936    1.6990    2.1869 C   0  0  0  0  0  0  0  0  0  0  0  0
   -5.4955    2.2791    2.1721 O   0  0  0  0  0  0  0  0  0  0  0  0
   -4.5124    1.5819    1.5271 C   0  0  0  0  0  0  0  0  0  0  0  0
   -3.2625    2.2045    1.5216 C   0  0  0  0  0  0  0  0  0  0  0  0
   -2.1640    1.6060    0.8971 C   0  0  0  0  0  0  0  0  0  0  0  0
   -2.3106    0.3657    0.2688 C   0  0  0  0  0  0  0  0  0  0  0  0
   -1.2012   -0.2662   -0.3639 N   0  0  0  0  0  0  0  0  0  0  0  0
   -0.2188    0.3023   -1.1688 C   0  0  0  0  0  0  0  0  0  0  0  0
   -0.2246    1.9518   -1.7275 S   0  0  0  0  0  0  0  0  0  0  0  0
    1.3519    2.0406   -2.6203 C   0  0  0  0  0  0  0  0  0  0  0  0
    2.5256    1.9884   -1.6555 C   0  0  0  0  0  0  0  0  0  0  0  0
    2.8610    2.9686   -0.9947 O   0  0  0  0  0  0  0  0  0  0  0  0
    3.1096    0.7387   -1.5825 N   0  0  0  0  0  0  0  0  0  0  0  0
    4.1942    0.4287   -0.7527 C   0  0  0  0  0  0  0  0  0  0  0  0
    4.0326   -0.7466   -0.0947 N   0  0  0  0  0  0  0  0  0  0  0  0
    5.0085   -1.1180    0.7683 C   0  0  0  0  0  0  0  0  0  0  0  0
    6.1651   -0.3877    0.9815 C   0  0  0  0  0  0  0  0  0  0  0  0
    7.3590   -0.9319    2.0867 Cl  0  0  0  0  0  0  0  0  0  0  0  0
    6.3517    0.7806    0.2555 C   0  0  0  0  0  0  0  0  0  0  0  0
    5.3625    1.1966   -0.6401 C   0  0  0  0  0  0  0  0  0  0  0  0
    5.7476    2.5337   -1.6647 Cl  0  0  0  0  0  0  0  0  0  0  0  0
    0.6672   -0.5750   -1.5870 N   0  0  0  0  0  0  0  0  0  0  0  0
    0.2739   -1.7666   -1.0452 C   0  0  0  0  0  0  0  0  0  0  0  0
    0.8856   -3.0245   -1.1638 C   0  0  0  0  0  0  0  0  0  0  0  0
    0.3270   -4.1166   -0.4934 C   0  0  0  0  0  0  0  0  0  0  0  0
   -0.8117   -3.9570    0.2927 C   0  0  0  0  0  0  0  0  0  0  0  0
   -1.4327   -2.7093    0.4240 C   0  0  0  0  0  0  0  0  0  0  0  0
   -0.8829   -1.6234   -0.2812 C   0  0  0  0  0  0  0  0  0  0  0  0
   -3.5621   -0.2640    0.2765 C   0  0  0  0  0  0  0  0  0  0  0  0
   -4.6581    0.3446    0.9011 C   0  0  0  0  0  0  0  0  0  0  0  0
   -7.4576    2.3785    2.7298 H   0  0  0  0  0  0  0  0  0  0  0  0
   -6.7916    0.7412    2.7175 H   0  0  0  0  0  0  0  0  0  0  0  0
   -7.1882    1.5882    1.1714 H   0  0  0  0  0  0  0  0  0  0  0  0
   -3.1396    3.1662    2.0153 H   0  0  0  0  0  0  0  0  0  0  0  0
   -1.2039    2.1127    0.9562 H   0  0  0  0  0  0  0  0  0  0  0  0
    1.4213    1.2485   -3.3731 H   0  0  0  0  0  0  0  0  0  0  0  0
    1.4028    2.9937   -3.1571 H   0  0  0  0  0  0  0  0  0  0  0  0
    2.4396   -0.0299   -1.6453 H   0  0  0  0  0  0  0  0  0  0  0  0
    4.8229   -2.0493    1.2961 H   0  0  0  0  0  0  0  0  0  0  0  0
    7.2687    1.3528    0.3647 H   0  0  0  0  0  0  0  0  0  0  0  0
    1.7866   -3.1377   -1.7575 H   0  0  0  0  0  0  0  0  0  0  0  0
    0.7966   -5.0941   -0.5753 H   0  0  0  0  0  0  0  0  0  0  0  0
   -1.2192   -4.8144    0.8253 H   0  0  0  0  0  0  0  0  0  0  0  0
   -2.2960   -2.5993    1.0723 H   0  0  0  0  0  0  0  0  0  0  0  0
   -3.7227   -1.2094   -0.2365 H   0  0  0  0  0  0  0  0  0  0  0  0
   -5.6120   -0.1716    0.8725 H   0  0  0  0  0  0  0  0  0  0  0  0
  1  2  1  0
  2  3  1  0
  3  4  2  0
  4  5  1  0
  5  6  2  0
  6  7  1  0
  7  8  1  0
  8  9  1  0
  9 10  1  0
 10 11  1  0
 11 12  2  0
 11 13  1  0
 13 14  1  0
 14 15  2  0
 15 16  1  0
 16 17  2  0
 17 18  1  0
 17 19  1  0
 19 20  2  0
 20 21  1  0
  8 22  2  0
 22 23  1  0
 23 24  2  0
 24 25  1  0
 25 26  2  0
 26 27  1  0
 27 28  2  0
  6 29  1  0
 29 30  2  0
 30  3  1  0
 28  7  1  0
 20 14  1  0
 28 23  1  0
  1 31  1  0
  1 32  1  0
  1 33  1  0
  4 34  1  0
  5 35  1  0
 10 36  1  0
 10 37  1  0
 13 38  1  0
 16 39  1  0
 19 40  1  0
 24 41  1  0
 25 42  1  0
 26 43  1  0
 27 44  1  0
 29 45  1  0
 30 46  1  0
M  END
$$$$
