
     RDKit          3D

 35 35  0  0  0  0  0  0  0  0999 V2000
   -3.6824    0.0395   -1.1454 C   0  0  0  0  0  0  0  0  0  0  0  0
   -2.2013    0.4069   -0.9972 C   0  0  0  0  0  0  0  0  0  0  0  0
   -1.9409    1.7884   -1.6156 C   0  0  0  0  0  0  0  0  0  0  0  0
   -1.6702    0.3311    0.3784 N   0  0  0  0  0  0  0  0  0  0  0  0
   -2.3492    1.2074    1.3352 C   0  0  0  0  0  0  0  0  0  0  0  0
   -1.5940   -1.0409    0.9285 C   0  0  0  0  0  0  0  0  0  0  0  0
   -0.7052   -2.0254    0.1415 C   0  0  0  0  0  0  0  0  0  0  0  0
    0.5909   -1.4715   -0.1372 O   0  0  0  0  0  0  0  0  0  0  0  0
    1.4349   -1.4269    0.9209 C   0  0  0  0  0  0  0  0  0  0  0  0
    1.2608   -1.9088    2.0261 O   0  0  0  0  0  0  0  0  0  0  0  0
    2.6342   -0.6771    0.5137 C   0  0  0  0  0  0  0  0  0  0  0  0
    3.4128   -1.1875   -0.5364 C   0  0  0  0  0  0  0  0  0  0  0  0
    4.5702   -0.5190   -0.9360 C   0  0  0  0  0  0  0  0  0  0  0  0
    4.9519    0.6562   -0.2904 C   0  0  0  0  0  0  0  0  0  0  0  0
    4.1763    1.1676    0.7532 C   0  0  0  0  0  0  0  0  0  0  0  0
    3.0141    0.5030    1.1599 C   0  0  0  0  0  0  0  0  0  0  0  0
    1.9933    1.2910    2.5525 Br  0  0  0  0  0  0  0  0  0  0  0  0
   -4.3340    0.7395   -0.6126 H   0  0  0  0  0  0  0  0  0  0  0  0
   -3.8870   -0.9704   -0.7773 H   0  0  0  0  0  0  0  0  0  0  0  0
   -3.9744    0.0620   -2.2015 H   0  0  0  0  0  0  0  0  0  0  0  0
   -1.6293   -0.2873   -1.6234 H   0  0  0  0  0  0  0  0  0  0  0  0
   -2.1539    1.7686   -2.6906 H   0  0  0  0  0  0  0  0  0  0  0  0
   -0.8918    2.0808   -1.4960 H   0  0  0  0  0  0  0  0  0  0  0  0
   -2.5701    2.5676   -1.1740 H   0  0  0  0  0  0  0  0  0  0  0  0
   -3.3869    0.9064    1.5141 H   0  0  0  0  0  0  0  0  0  0  0  0
   -1.8271    1.1954    2.2993 H   0  0  0  0  0  0  0  0  0  0  0  0
   -2.3392    2.2515    1.0093 H   0  0  0  0  0  0  0  0  0  0  0  0
   -2.5943   -1.4758    1.0416 H   0  0  0  0  0  0  0  0  0  0  0  0
   -1.1753   -0.9710    1.9402 H   0  0  0  0  0  0  0  0  0  0  0  0
   -1.1639   -2.2782   -0.8198 H   0  0  0  0  0  0  0  0  0  0  0  0
   -0.6017   -2.9709    0.6885 H   0  0  0  0  0  0  0  0  0  0  0  0
    3.1197   -2.1061   -1.0396 H   0  0  0  0  0  0  0  0  0  0  0  0
    5.1743   -0.9145   -1.7493 H   0  0  0  0  0  0  0  0  0  0  0  0
    5.8537    1.1788   -0.6013 H   0  0  0  0  0  0  0  0  0  0  0  0
    4.4849    2.0897    1.2407 H   0  0  0  0  0  0  0  0  0  0  0  0
  1  2  1  0
  2  3  1  0
  2  4  1  0
  4  5  1  0
  4  6  1  0
  6  7  1  0
  7  8  1  0
  8  9  1  0
  9 10  2  0
  9 11  1  0
 11 12  2  0
 12 13  1  0
 13 14  2  0
 14 15  1  0
 15 16  2  0
 16 17  1  0
 16 11  1  0
  1 18  1  0
  1 19  1  0
  1 20  1  0
  2 21  1  0
  3 22  1  0
  3 23  1  0
  3 24  1  0
  5 25  1  0
  5 26  1  0
  5 27  1  0
  6 28  1  0
  6 29  1  0
  7 30  1  0
  7 31  1  0
 12 32  1  0
 13 33  1  0
 14 34  1  0
 15 35  1  0
M  END
$$$$
