
     RDKit          3D

 51 55  0  0  0  0  0  0  0  0999 V2000
    1.7719    0.2667   -2.3566 O   0  0  0  0  0  0  0  0  0  0  0  0
    1.0087   -0.3955   -1.6584 C   0  0  0  0  0  0  0  0  0  0  0  0
   -0.4443   -0.6281   -2.0914 C   0  0  0  0  0  0  0  0  0  0  0  0
   -1.3916    0.1845   -1.3176 N   0  0  0  0  0  0  0  0  0  0  0  0
   -1.7306   -0.2587   -0.0427 C   0  0  0  0  0  0  0  0  0  0  0  0
   -1.2982   -1.3256    0.4069 O   0  0  0  0  0  0  0  0  0  0  0  0
   -2.5506    0.6626    0.8324 C   0  0  0  0  0  0  0  0  0  0  0  0
   -4.0484    0.5545    0.5910 C   0  0  0  0  0  0  0  0  0  0  0  0
   -4.6369   -0.6138    1.3187 C   0  0  0  0  0  0  0  0  0  0  0  0
   -4.5549   -1.9855    1.1704 C   0  0  0  0  0  0  0  0  0  0  0  0
   -5.3413   -2.5500    2.2028 C   0  0  0  0  0  0  0  0  0  0  0  0
   -5.8490   -1.4929    2.9191 C   0  0  0  0  0  0  0  0  0  0  0  0
   -5.4244   -0.3153    2.3949 O   0  0  0  0  0  0  0  0  0  0  0  0
   -4.5476    0.4988   -1.1698 S   0  0  0  0  0  0  0  0  0  0  0  0
   -3.3476    1.6206   -1.8781 C   0  0  0  0  0  0  0  0  0  0  0  0
   -3.8566    2.7604   -2.5191 C   0  0  0  0  0  0  0  0  0  0  0  0
   -3.0119    3.6190   -3.2203 C   0  0  0  0  0  0  0  0  0  0  0  0
   -1.6546    3.3334   -3.3068 C   0  0  0  0  0  0  0  0  0  0  0  0
   -1.1377    2.1947   -2.6845 C   0  0  0  0  0  0  0  0  0  0  0  0
   -1.9667    1.3323   -1.9481 C   0  0  0  0  0  0  0  0  0  0  0  0
    1.3084   -0.9860   -0.4425 N   0  0  0  0  0  0  0  0  0  0  0  0
    2.5362   -0.9811    0.2464 C   0  0  0  0  0  0  0  0  0  0  0  0
    2.5559   -1.5947    1.5075 C   0  0  0  0  0  0  0  0  0  0  0  0
    3.7291   -1.6329    2.2657 C   0  0  0  0  0  0  0  0  0  0  0  0
    4.8921   -1.0561    1.7674 C   0  0  0  0  0  0  0  0  0  0  0  0
    4.8890   -0.4688    0.4991 C   0  0  0  0  0  0  0  0  0  0  0  0
    3.7123   -0.4179   -0.2530 C   0  0  0  0  0  0  0  0  0  0  0  0
    6.0080    0.0868   -0.0703 O   0  0  0  0  0  0  0  0  0  0  0  0
    7.1987   -0.3230    0.6107 C   0  0  0  0  0  0  0  0  0  0  0  0
    7.0192   -0.2114    2.1153 C   0  0  0  0  0  0  0  0  0  0  0  0
    6.0014   -1.1100    2.5714 O   0  0  0  0  0  0  0  0  0  0  0  0
   -0.6833   -1.6907   -1.9576 H   0  0  0  0  0  0  0  0  0  0  0  0
   -0.5396   -0.4260   -3.1646 H   0  0  0  0  0  0  0  0  0  0  0  0
   -2.3061    0.4359    1.8791 H   0  0  0  0  0  0  0  0  0  0  0  0
   -2.2048    1.6940    0.6874 H   0  0  0  0  0  0  0  0  0  0  0  0
   -4.5079    1.4641    0.9992 H   0  0  0  0  0  0  0  0  0  0  0  0
   -3.9940   -2.5126    0.4104 H   0  0  0  0  0  0  0  0  0  0  0  0
   -5.5152   -3.5981    2.4013 H   0  0  0  0  0  0  0  0  0  0  0  0
   -6.4930   -1.4144    3.7839 H   0  0  0  0  0  0  0  0  0  0  0  0
   -4.9229    2.9778   -2.4946 H   0  0  0  0  0  0  0  0  0  0  0  0
   -3.4169    4.4996   -3.7131 H   0  0  0  0  0  0  0  0  0  0  0  0
   -0.9917    3.9956   -3.8595 H   0  0  0  0  0  0  0  0  0  0  0  0
   -0.0668    2.0198   -2.7608 H   0  0  0  0  0  0  0  0  0  0  0  0
    0.5238   -1.4292    0.0405 H   0  0  0  0  0  0  0  0  0  0  0  0
    1.6555   -2.0454    1.9192 H   0  0  0  0  0  0  0  0  0  0  0  0
    3.7308   -2.1021    3.2454 H   0  0  0  0  0  0  0  0  0  0  0  0
    3.7514    0.0549   -1.2284 H   0  0  0  0  0  0  0  0  0  0  0  0
    7.4375   -1.3505    0.3092 H   0  0  0  0  0  0  0  0  0  0  0  0
    8.0126    0.3283    0.2772 H   0  0  0  0  0  0  0  0  0  0  0  0
    6.7431    0.8079    2.4126 H   0  0  0  0  0  0  0  0  0  0  0  0
    7.9491   -0.4763    2.6281 H   0  0  0  0  0  0  0  0  0  0  0  0
  1  2  2  0
  2  3  1  0
  3  4  1  0
  4  5  1  0
  5  6  2  0
  5  7  1  0
  7  8  1  0
  8  9  1  0
  9 10  2  0
 10 11  1  0
 11 12  2  0
 12 13  1  0
  8 14  1  0
 14 15  1  0
 15 16  2  0
 16 17  1  0
 17 18  2  0
 18 19  1  0
 19 20  2  0
  2 21  1  0
 21 22  1  0
 22 23  2  0
 23 24  1  0
 24 25  2  0
 25 26  1  0
 26 27  2  0
 26 28  1  0
 28 29  1  0
 29 30  1  0
 30 31  1  0
 20  4  1  0
 27 22  1  0
 13  9  1  0
 20 15  1  0
 31 25  1  0
  3 32  1  0
  3 33  1  0
  7 34  1  0
  7 35  1  0
  8 36  1  0
 10 37  1  0
 11 38  1  0
 12 39  1  0
 16 40  1  0
 17 41  1  0
 18 42  1  0
 19 43  1  0
 21 44  1  0
 23 45  1  0
 24 46  1  0
 27 47  1  0
 29 48  1  0
 29 49  1  0
 30 50  1  0
 30 51  1  0
M  END
$$$$
