
     RDKit          3D

 50 53  0  0  0  0  0  0  0  0999 V2000
    5.7301   -3.5467    2.0993 C   0  0  0  0  0  0  0  0  0  0  0  0
    4.3620   -3.7651    1.7785 O   0  0  0  0  0  0  0  0  0  0  0  0
    3.6100   -2.6648    1.4761 C   0  0  0  0  0  0  0  0  0  0  0  0
    2.2905   -2.9353    1.1316 C   0  0  0  0  0  0  0  0  0  0  0  0
    1.4188   -1.8979    0.7823 C   0  0  0  0  0  0  0  0  0  0  0  0
    1.8242   -0.5449    0.7806 C   0  0  0  0  0  0  0  0  0  0  0  0
    0.8545    0.5051    0.3886 C   0  0  0  0  0  0  0  0  0  0  0  0
    1.1052    1.7905    0.7231 N   0  0  0  0  0  0  0  0  0  0  0  0
    0.1739    2.7147    0.3731 C   0  0  0  0  0  0  0  0  0  0  0  0
    0.4727    4.1317    0.7180 C   0  0  0  0  0  0  0  0  0  0  0  0
    1.6905    4.3468    1.3075 N   0  0  0  0  0  0  0  0  0  0  0  0
   -0.3028    5.0484    0.4768 O   0  0  0  0  0  0  0  0  0  0  0  0
   -0.9716    2.3747   -0.2757 C   0  0  0  0  0  0  0  0  0  0  0  0
   -2.0675    3.1010   -0.7196 N   0  0  0  0  0  0  0  0  0  0  0  0
   -2.9651    2.2175   -1.3470 C   0  0  0  0  0  0  0  0  0  0  0  0
   -3.9827    2.5866   -1.9099 O   0  0  0  0  0  0  0  0  0  0  0  0
   -2.3803    0.9240   -1.2409 N   0  0  0  0  0  0  0  0  0  0  0  0
   -2.9036   -0.3015   -1.7112 C   0  0  0  0  0  0  0  0  0  0  0  0
   -2.0468   -1.2759   -2.2552 C   0  0  0  0  0  0  0  0  0  0  0  0
   -2.5444   -2.4776   -2.7674 C   0  0  0  0  0  0  0  0  0  0  0  0
   -3.9093   -2.7372   -2.7310 C   0  0  0  0  0  0  0  0  0  0  0  0
   -4.7766   -1.7975   -2.1773 C   0  0  0  0  0  0  0  0  0  0  0  0
   -4.2838   -0.5812   -1.6809 C   0  0  0  0  0  0  0  0  0  0  0  0
   -5.1240    0.2686   -1.0032 O   0  0  0  0  0  0  0  0  0  0  0  0
   -6.2820    0.6283   -1.7558 C   0  0  0  0  0  0  0  0  0  0  0  0
   -1.1355    1.0493   -0.5869 C   0  0  0  0  0  0  0  0  0  0  0  0
   -0.2567    0.0931   -0.2653 N   0  0  0  0  0  0  0  0  0  0  0  0
    3.1566   -0.2944    1.1726 C   0  0  0  0  0  0  0  0  0  0  0  0
    3.6496    0.9924    1.1788 O   0  0  0  0  0  0  0  0  0  0  0  0
    4.0331    1.3963    2.4965 C   0  0  0  0  0  0  0  0  0  0  0  0
    4.0442   -1.3428    1.4864 C   0  0  0  0  0  0  0  0  0  0  0  0
    5.8333   -2.9301    2.9977 H   0  0  0  0  0  0  0  0  0  0  0  0
    6.1846   -4.5195    2.3109 H   0  0  0  0  0  0  0  0  0  0  0  0
    6.2690   -3.1035    1.2543 H   0  0  0  0  0  0  0  0  0  0  0  0
    1.9337   -3.9626    1.1209 H   0  0  0  0  0  0  0  0  0  0  0  0
    0.3975   -2.1628    0.5087 H   0  0  0  0  0  0  0  0  0  0  0  0
    1.9998    5.2957    1.4648 H   0  0  0  0  0  0  0  0  0  0  0  0
    2.3536    3.5807    1.3665 H   0  0  0  0  0  0  0  0  0  0  0  0
   -2.1899    4.1032   -0.6426 H   0  0  0  0  0  0  0  0  0  0  0  0
   -0.9761   -1.1001   -2.3297 H   0  0  0  0  0  0  0  0  0  0  0  0
   -1.8614   -3.2075   -3.1955 H   0  0  0  0  0  0  0  0  0  0  0  0
   -4.2970   -3.6771   -3.1154 H   0  0  0  0  0  0  0  0  0  0  0  0
   -5.8328   -2.0395   -2.1035 H   0  0  0  0  0  0  0  0  0  0  0  0
   -6.0535    0.7942   -2.8159 H   0  0  0  0  0  0  0  0  0  0  0  0
   -6.6714    1.5638   -1.3429 H   0  0  0  0  0  0  0  0  0  0  0  0
   -7.0609   -0.1326   -1.6474 H   0  0  0  0  0  0  0  0  0  0  0  0
    4.1701    2.4820    2.4860 H   0  0  0  0  0  0  0  0  0  0  0  0
    3.2556    1.1606    3.2331 H   0  0  0  0  0  0  0  0  0  0  0  0
    4.9889    0.9450    2.7845 H   0  0  0  0  0  0  0  0  0  0  0  0
    5.0737   -1.0964    1.7229 H   0  0  0  0  0  0  0  0  0  0  0  0
  1  2  1  0
  2  3  1  0
  3  4  2  0
  4  5  1  0
  5  6  2  0
  6  7  1  0
  7  8  2  0
  8  9  1  0
  9 10  1  0
 10 11  1  0
 10 12  2  0
  9 13  2  0
 13 14  1  0
 14 15  1  0
 15 16  2  0
 15 17  1  0
 17 18  1  0
 18 19  2  0
 19 20  1  0
 20 21  2  0
 21 22  1  0
 22 23  2  0
 23 24  1  0
 24 25  1  0
 17 26  1  0
 26 27  2  0
  6 28  1  0
 28 29  1  0
 29 30  1  0
 28 31  2  0
 31  3  1  0
 27  7  1  0
 26 13  1  0
 23 18  1  0
  1 32  1  0
  1 33  1  0
  1 34  1  0
  4 35  1  0
  5 36  1  0
 11 37  1  0
 11 38  1  0
 14 39  1  0
 19 40  1  0
 20 41  1  0
 21 42  1  0
 22 43  1  0
 25 44  1  0
 25 45  1  0
 25 46  1  0
 30 47  1  0
 30 48  1  0
 30 49  1  0
 31 50  1  0
M  END
$$$$
