
     RDKit          3D

 55 58  0  0  0  0  0  0  0  0999 V2000
    1.3446    2.2790   -3.2510 C   0  0  0  0  0  0  0  0  0  0  0  0
    2.1980    2.9131   -2.1657 C   0  0  0  0  0  0  0  0  0  0  0  0
    2.8172    1.8861   -1.3714 O   0  0  0  0  0  0  0  0  0  0  0  0
    4.0156    1.4265   -1.8167 C   0  0  0  0  0  0  0  0  0  0  0  0
    4.5857    1.8199   -2.8213 O   0  0  0  0  0  0  0  0  0  0  0  0
    4.5811    0.3805   -0.9070 C   0  0  0  0  0  0  0  0  0  0  0  0
    5.9338    0.0598   -1.1359 C   0  0  0  0  0  0  0  0  0  0  0  0
    6.5842   -0.8972   -0.3612 C   0  0  0  0  0  0  0  0  0  0  0  0
    5.8896   -1.5462    0.6507 C   0  0  0  0  0  0  0  0  0  0  0  0
    4.5455   -1.2444    0.8880 C   0  0  0  0  0  0  0  0  0  0  0  0
    3.8678   -0.2870    0.1195 C   0  0  0  0  0  0  0  0  0  0  0  0
    2.5031    0.0130    0.3518 N   0  0  0  0  0  0  0  0  0  0  0  0
    1.6382   -0.5353    1.2747 C   0  0  0  0  0  0  0  0  0  0  0  0
    1.8631   -1.4483    2.0585 O   0  0  0  0  0  0  0  0  0  0  0  0
    0.2739    0.0712    1.2037 C   0  0  0  0  0  0  0  0  0  0  0  0
   -0.7224   -0.7997    0.9858 C   0  0  0  0  0  0  0  0  0  0  0  0
   -2.0536   -0.4340    0.7813 N   0  0  0  0  0  0  0  0  0  0  0  0
   -3.0658   -1.4533    0.5803 C   0  0  0  0  0  0  0  0  0  0  0  0
   -4.2163   -1.2248   -0.1883 C   0  0  0  0  0  0  0  0  0  0  0  0
   -5.1842   -2.2234   -0.3833 C   0  0  0  0  0  0  0  0  0  0  0  0
   -5.0228   -3.4808    0.1888 C   0  0  0  0  0  0  0  0  0  0  0  0
   -5.8836   -4.5360    0.0799 O   0  0  0  0  0  0  0  0  0  0  0  0
   -7.0621   -4.3263   -0.6890 C   0  0  0  0  0  0  0  0  0  0  0  0
   -3.8866   -3.7274    0.9548 C   0  0  0  0  0  0  0  0  0  0  0  0
   -2.9217   -2.7306    1.1489 C   0  0  0  0  0  0  0  0  0  0  0  0
   -2.4128    0.9378    0.7627 C   0  0  0  0  0  0  0  0  0  0  0  0
   -3.5415    1.3900    0.5797 O   0  0  0  0  0  0  0  0  0  0  0  0
   -1.3315    1.9308    1.0370 C   0  0  0  0  0  0  0  0  0  0  0  0
   -1.6494    3.2984    1.0818 C   0  0  0  0  0  0  0  0  0  0  0  0
   -0.6710    4.2394    1.3960 C   0  0  0  0  0  0  0  0  0  0  0  0
    0.6237    3.8184    1.6808 C   0  0  0  0  0  0  0  0  0  0  0  0
    0.9449    2.4593    1.6344 C   0  0  0  0  0  0  0  0  0  0  0  0
   -0.0233    1.5023    1.2892 C   0  0  0  0  0  0  0  0  0  0  0  0
    0.6290    1.5720   -2.8171 H   0  0  0  0  0  0  0  0  0  0  0  0
    1.9664    1.7130   -3.9546 H   0  0  0  0  0  0  0  0  0  0  0  0
    0.7935    3.0418   -3.8075 H   0  0  0  0  0  0  0  0  0  0  0  0
    2.9447    3.5988   -2.5855 H   0  0  0  0  0  0  0  0  0  0  0  0
    1.5623    3.5008   -1.4908 H   0  0  0  0  0  0  0  0  0  0  0  0
    6.4919    0.5609   -1.9260 H   0  0  0  0  0  0  0  0  0  0  0  0
    7.6288   -1.1343   -0.5478 H   0  0  0  0  0  0  0  0  0  0  0  0
    6.3890   -2.2948    1.2615 H   0  0  0  0  0  0  0  0  0  0  0  0
    4.0544   -1.7842    1.6923 H   0  0  0  0  0  0  0  0  0  0  0  0
    2.1189    0.7331   -0.2562 H   0  0  0  0  0  0  0  0  0  0  0  0
   -0.4892   -1.8584    0.9000 H   0  0  0  0  0  0  0  0  0  0  0  0
   -4.3818   -0.2740   -0.6880 H   0  0  0  0  0  0  0  0  0  0  0  0
   -6.0478   -1.9764   -0.9917 H   0  0  0  0  0  0  0  0  0  0  0  0
   -7.6394   -5.2552   -0.6742 H   0  0  0  0  0  0  0  0  0  0  0  0
   -7.6854   -3.5399   -0.2505 H   0  0  0  0  0  0  0  0  0  0  0  0
   -6.8174   -4.1027   -1.7326 H   0  0  0  0  0  0  0  0  0  0  0  0
   -3.7516   -4.7022    1.4175 H   0  0  0  0  0  0  0  0  0  0  0  0
   -2.0829   -2.9737    1.7951 H   0  0  0  0  0  0  0  0  0  0  0  0
   -2.6673    3.6326    0.8878 H   0  0  0  0  0  0  0  0  0  0  0  0
   -0.9257    5.2960    1.4376 H   0  0  0  0  0  0  0  0  0  0  0  0
    1.3851    4.5477    1.9486 H   0  0  0  0  0  0  0  0  0  0  0  0
    1.9629    2.1682    1.8864 H   0  0  0  0  0  0  0  0  0  0  0  0
  1  2  1  0
  2  3  1  0
  3  4  1  0
  4  5  2  0
  4  6  1  0
  6  7  2  0
  7  8  1  0
  8  9  2  0
  9 10  1  0
 10 11  2  0
 11 12  1  0
 12 13  1  0
 13 14  2  0
 13 15  1  0
 15 16  2  0
 16 17  1  0
 17 18  1  0
 18 19  2  0
 19 20  1  0
 20 21  2  0
 21 22  1  0
 22 23  1  0
 21 24  1  0
 24 25  2  0
 17 26  1  0
 26 27  2  0
 26 28  1  0
 28 29  2  0
 29 30  1  0
 30 31  2  0
 31 32  1  0
 32 33  2  0
 11  6  1  0
 33 15  1  0
 25 18  1  0
 33 28  1  0
  1 34  1  0
  1 35  1  0
  1 36  1  0
  2 37  1  0
  2 38  1  0
  7 39  1  0
  8 40  1  0
  9 41  1  0
 10 42  1  0
 12 43  1  0
 16 44  1  0
 19 45  1  0
 20 46  1  0
 23 47  1  0
 23 48  1  0
 23 49  1  0
 24 50  1  0
 25 51  1  0
 29 52  1  0
 30 53  1  0
 31 54  1  0
 32 55  1  0
M  END
$$$$
