
     RDKit          3D

 43 45  0  0  0  0  0  0  0  0999 V2000
   -1.4831   -3.3450    1.9296 C   0  0  0  0  0  0  0  0  0  0  0  0
   -1.4123   -2.0978    1.1026 C   0  0  0  0  0  0  0  0  0  0  0  0
   -0.2031   -1.6616    0.6080 C   0  0  0  0  0  0  0  0  0  0  0  0
   -0.2150   -0.5116   -0.1542 C   0  0  0  0  0  0  0  0  0  0  0  0
    0.9602    0.0018   -0.7306 N   0  0  0  0  0  0  0  0  0  0  0  0
    2.1467   -0.1970   -0.0942 N   0  0  0  0  0  0  0  0  0  0  0  0
    3.1512    0.3997   -0.6587 C   0  0  0  0  0  0  0  0  0  0  0  0
    4.5188    0.3083   -0.0963 C   0  0  0  0  0  0  0  0  0  0  0  0
    4.7195   -0.4044    1.0950 C   0  0  0  0  0  0  0  0  0  0  0  0
    6.0023   -0.5337    1.6396 C   0  0  0  0  0  0  0  0  0  0  0  0
    7.1013    0.0464    1.0039 C   0  0  0  0  0  0  0  0  0  0  0  0
    6.9227    0.7607   -0.1794 C   0  0  0  0  0  0  0  0  0  0  0  0
    5.6320    0.8873   -0.7134 C   0  0  0  0  0  0  0  0  0  0  0  0
    5.4934    1.6402   -1.9385 N   0  0  0  0  0  4  0  0  0  0  0  0
    6.0536    1.1856   -2.9435 O   0  0  0  0  0  0  0  0  0  0  0  0
    4.8338    2.6858   -1.8854 O   0  0  0  0  0  1  0  0  0  0  0  0
   -1.3486    0.1532   -0.4213 N   0  0  0  0  0  0  0  0  0  0  0  0
   -2.4968   -0.3290    0.1015 C   0  0  0  0  0  0  0  0  0  0  0  0
   -3.7195    0.3912   -0.1794 N   0  0  0  0  0  0  0  0  0  0  0  0
   -3.7032    1.5275   -0.9457 N   0  0  0  0  0  0  0  0  0  0  0  0
   -4.9742    1.9276   -1.0156 C   0  0  0  0  0  0  0  0  0  0  0  0
   -5.3320    3.1492   -1.7761 C   0  0  0  0  0  0  0  0  0  0  0  0
   -5.8310    1.0761   -0.2955 C   0  0  0  0  0  0  0  0  0  0  0  0
   -5.0188    0.0945    0.2342 C   0  0  0  0  0  0  0  0  0  0  0  0
   -5.3909   -1.0662    1.0821 C   0  0  0  0  0  0  0  0  0  0  0  0
   -2.5649   -1.4440    0.8629 N   0  0  0  0  0  0  0  0  0  0  0  0
   -1.1117   -4.1997    1.3540 H   0  0  0  0  0  0  0  0  0  0  0  0
   -2.5157   -3.5587    2.2261 H   0  0  0  0  0  0  0  0  0  0  0  0
   -0.8828   -3.2344    2.8381 H   0  0  0  0  0  0  0  0  0  0  0  0
    0.7188   -2.1954    0.7977 H   0  0  0  0  0  0  0  0  0  0  0  0
    0.7397    0.9071   -1.1501 H   0  0  0  0  0  0  0  0  0  0  0  0
    3.0013    0.9799   -1.5859 H   0  0  0  0  0  0  0  0  0  0  0  0
    3.8793   -0.8688    1.6099 H   0  0  0  0  0  0  0  0  0  0  0  0
    6.1418   -1.0942    2.5623 H   0  0  0  0  0  0  0  0  0  0  0  0
    8.0958   -0.0609    1.4324 H   0  0  0  0  0  0  0  0  0  0  0  0
    7.7804    1.2123   -0.6742 H   0  0  0  0  0  0  0  0  0  0  0  0
   -5.1960    4.0377   -1.1494 H   0  0  0  0  0  0  0  0  0  0  0  0
   -4.7079    3.2554   -2.6686 H   0  0  0  0  0  0  0  0  0  0  0  0
   -6.3774    3.1142   -2.0994 H   0  0  0  0  0  0  0  0  0  0  0  0
   -6.9016    1.1633   -0.1753 H   0  0  0  0  0  0  0  0  0  0  0  0
   -4.8909   -1.0199    2.0543 H   0  0  0  0  0  0  0  0  0  0  0  0
   -6.4697   -1.0698    1.2745 H   0  0  0  0  0  0  0  0  0  0  0  0
   -5.1456   -2.0125    0.5895 H   0  0  0  0  0  0  0  0  0  0  0  0
  1  2  1  0
  2  3  2  0
  3  4  1  0
  4  5  1  0
  5  6  1  0
  6  7  2  3
  7  8  1  0
  8  9  2  0
  9 10  1  0
 10 11  2  0
 11 12  1  0
 12 13  2  0
 13 14  1  0
 14 15  2  0
 14 16  1  0
  4 17  2  0
 17 18  1  0
 18 19  1  0
 19 20  1  0
 20 21  2  0
 21 22  1  0
 21 23  1  0
 23 24  2  0
 24 25  1  0
 18 26  2  0
 26  2  1  0
 13  8  1  0
 24 19  1  0
  1 27  1  0
  1 28  1  0
  1 29  1  0
  3 30  1  0
  5 31  1  0
  7 32  1  0
  9 33  1  0
 10 34  1  0
 11 35  1  0
 12 36  1  0
 22 37  1  0
 22 38  1  0
 22 39  1  0
 23 40  1  0
 25 41  1  0
 25 42  1  0
 25 43  1  0
M  CHG  2  14   1  16  -1
M  END
$$$$
