
     RDKit          3D

 59 64  0  0  0  0  0  0  0  0999 V2000
    3.2897    2.4624   -0.8485 O   0  0  0  0  0  0  0  0  0  0  0  0
    3.2012    1.4041   -0.2314 C   0  0  0  0  0  0  0  0  0  0  0  0
    4.3057    0.4269   -0.3617 C   0  0  0  0  0  0  0  0  0  0  0  0
    5.0359    0.0860    0.7094 C   0  0  0  0  0  0  0  0  0  0  0  0
    6.1348   -0.8173    0.6210 C   0  0  0  0  0  0  0  0  0  0  0  0
    6.8396   -1.2943   -0.4732 C   0  0  0  0  0  0  0  0  0  0  0  0
    7.8811   -2.2018   -0.1190 C   0  0  0  0  0  0  0  0  0  0  0  0
    7.9518   -2.3974    1.2401 C   0  0  0  0  0  0  0  0  0  0  0  0
    6.7757   -1.4883    2.0782 S   0  0  0  0  0  0  0  0  0  0  0  0
    2.1121    1.0481    0.5453 N   0  0  0  0  0  0  0  0  0  0  0  0
    1.0518    2.0172    0.7577 C   0  0  0  0  0  0  0  0  0  0  0  0
   -0.2740    1.5340    0.1662 C   0  0  0  0  0  0  0  0  0  0  0  0
   -0.5280    0.0022    0.3454 C   0  0  0  0  0  0  0  0  0  0  0  0
    0.4160   -0.5242    1.4624 C   0  0  0  0  0  0  0  0  0  0  0  0
    1.8863   -0.2809    1.1093 C   0  0  0  0  0  0  0  0  0  0  0  0
   -0.1426   -0.5883   -0.9261 O   0  0  0  0  0  0  0  0  0  0  0  0
   -0.4953   -1.8919   -1.1247 C   0  0  0  0  0  0  0  0  0  0  0  0
    0.1822   -2.5625   -2.1441 C   0  0  0  0  0  0  0  0  0  0  0  0
   -0.1014   -3.9044   -2.4031 C   0  0  0  0  0  0  0  0  0  0  0  0
   -1.0637   -4.5633   -1.6438 C   0  0  0  0  0  0  0  0  0  0  0  0
   -1.3306   -5.8511   -1.8947 F   0  0  0  0  0  0  0  0  0  0  0  0
   -1.7565   -3.9044   -0.6362 C   0  0  0  0  0  0  0  0  0  0  0  0
   -1.4730   -2.5588   -0.3879 C   0  0  0  0  0  0  0  0  0  0  0  0
   -2.2183   -1.8151    0.6442 C   0  0  0  0  0  0  0  0  0  0  0  0
   -2.9685   -2.4238    1.3994 O   0  0  0  0  0  0  0  0  0  0  0  0
   -2.0241   -0.3016    0.6390 C   0  0  0  0  0  0  0  0  0  0  0  0
   -3.0233    0.2889   -0.3498 C   0  0  0  0  0  0  0  0  0  0  0  0
   -3.6477    1.3270    0.5153 C   0  0  0  0  0  0  0  0  0  0  0  0
   -4.5999    2.3266   -0.0241 C   0  0  0  0  0  0  0  0  0  0  0  0
   -5.0436    2.2740   -1.3505 C   0  0  0  0  0  0  0  0  0  0  0  0
   -5.9349    3.2390   -1.8278 C   0  0  0  0  0  0  0  0  0  0  0  0
   -6.3850    4.2551   -0.9863 C   0  0  0  0  0  0  0  0  0  0  0  0
   -5.9491    4.3093    0.3363 C   0  0  0  0  0  0  0  0  0  0  0  0
   -5.0594    3.3473    0.8173 C   0  0  0  0  0  0  0  0  0  0  0  0
   -3.2867    1.2940    1.7576 N   0  0  0  0  0  0  0  0  0  0  0  0
   -2.3904    0.2159    1.9229 O   0  0  0  0  0  0  0  0  0  0  0  0
    4.5178    0.1058   -1.3731 H   0  0  0  0  0  0  0  0  0  0  0  0
    4.7832    0.4977    1.6854 H   0  0  0  0  0  0  0  0  0  0  0  0
    6.6305   -1.0005   -1.4956 H   0  0  0  0  0  0  0  0  0  0  0  0
    8.5464   -2.6815   -0.8267 H   0  0  0  0  0  0  0  0  0  0  0  0
    8.6405   -3.0310    1.7827 H   0  0  0  0  0  0  0  0  0  0  0  0
    0.9552    2.1616    1.8414 H   0  0  0  0  0  0  0  0  0  0  0  0
    1.3082    2.9957    0.3378 H   0  0  0  0  0  0  0  0  0  0  0  0
   -1.0553    2.1398    0.6335 H   0  0  0  0  0  0  0  0  0  0  0  0
   -0.2854    1.7813   -0.9041 H   0  0  0  0  0  0  0  0  0  0  0  0
    0.1792   -0.0255    2.4113 H   0  0  0  0  0  0  0  0  0  0  0  0
    0.2893   -1.5979    1.6402 H   0  0  0  0  0  0  0  0  0  0  0  0
    2.4957   -0.3756    2.0146 H   0  0  0  0  0  0  0  0  0  0  0  0
    2.2293   -1.0360    0.3933 H   0  0  0  0  0  0  0  0  0  0  0  0
    0.9382   -2.0443   -2.7299 H   0  0  0  0  0  0  0  0  0  0  0  0
    0.4227   -4.4411   -3.1880 H   0  0  0  0  0  0  0  0  0  0  0  0
   -2.5106   -4.4378   -0.0638 H   0  0  0  0  0  0  0  0  0  0  0  0
   -3.7934   -0.4226   -0.6680 H   0  0  0  0  0  0  0  0  0  0  0  0
   -2.5529    0.7277   -1.2335 H   0  0  0  0  0  0  0  0  0  0  0  0
   -4.7180    1.4932   -2.0304 H   0  0  0  0  0  0  0  0  0  0  0  0
   -6.2810    3.1977   -2.8580 H   0  0  0  0  0  0  0  0  0  0  0  0
   -7.0783    5.0047   -1.3606 H   0  0  0  0  0  0  0  0  0  0  0  0
   -6.3009    5.0989    0.9948 H   0  0  0  0  0  0  0  0  0  0  0  0
   -4.7280    3.4013    1.8526 H   0  0  0  0  0  0  0  0  0  0  0  0
  1  2  2  0
  2  3  1  0
  3  4  2  3
  4  5  1  0
  5  6  2  0
  6  7  1  0
  7  8  2  0
  8  9  1  0
  2 10  1  0
 10 11  1  0
 11 12  1  0
 12 13  1  0
 13 14  1  0
 14 15  1  0
 13 16  1  0
 16 17  1  0
 17 18  2  0
 18 19  1  0
 19 20  2  0
 20 21  1  0
 20 22  1  0
 22 23  2  0
 23 24  1  0
 24 25  2  0
 24 26  1  0
 26 27  1  0
 27 28  1  0
 28 29  1  0
 29 30  2  0
 30 31  1  0
 31 32  2  0
 32 33  1  0
 33 34  2  0
 28 35  2  0
 35 36  1  0
  9  5  1  0
 15 10  1  0
 23 17  1  0
 36 26  1  0
 26 13  1  0
 34 29  1  0
  3 37  1  0
  4 38  1  0
  6 39  1  0
  7 40  1  0
  8 41  1  0
 11 42  1  0
 11 43  1  0
 12 44  1  0
 12 45  1  0
 14 46  1  0
 14 47  1  0
 15 48  1  0
 15 49  1  0
 18 50  1  0
 19 51  1  0
 22 52  1  0
 27 53  1  0
 27 54  1  0
 30 55  1  0
 31 56  1  0
 32 57  1  0
 33 58  1  0
 34 59  1  0
M  END
$$$$
