
     RDKit          3D

 74 78  0  0  0  0  0  0  0  0999 V2000
   -4.2073    0.4075    0.0974 C   0  0  0  0  0  0  0  0  0  0  0  0
   -3.0134    1.3671    0.1410 C   0  0  0  0  0  0  0  0  0  0  0  0
   -3.2295    2.4251   -0.9629 C   0  0  0  0  0  0  0  0  0  0  0  0
   -2.7194    3.7376   -0.5738 N   0  0  0  0  0  0  0  0  0  0  0  0
   -3.6231    4.6046    0.2080 C   0  0  0  0  0  0  0  0  0  0  0  0
   -4.1141    5.7970   -0.6183 C   0  0  0  0  0  0  0  0  0  0  0  0
   -3.0211    5.0443    1.5576 C   0  0  0  0  0  0  0  0  0  0  0  0
   -4.0247    5.6094    2.4032 O   0  0  0  0  0  0  0  0  0  0  0  0
   -1.4566    4.1960   -0.9224 C   0  0  0  0  0  0  0  0  0  0  0  0
   -1.0586    5.3350   -0.6923 O   0  0  0  0  0  0  0  0  0  0  0  0
   -0.5192    3.2850   -1.6070 C   0  0  0  0  0  0  0  0  0  0  0  0
   -0.0086    3.6992   -2.8424 C   0  0  0  0  0  0  0  0  0  0  0  0
    0.9878    2.9524   -3.4609 C   0  0  0  0  0  0  0  0  0  0  0  0
    1.5384    1.8448   -2.8098 C   0  0  0  0  0  0  0  0  0  0  0  0
    1.0707    1.4535   -1.5513 C   0  0  0  0  0  0  0  0  0  0  0  0
    1.7247    0.4850   -0.7594 N   0  0  0  0  0  0  0  0  0  0  0  0
    2.7757   -0.3402   -1.1218 C   0  0  0  0  0  0  0  0  0  0  0  0
    3.1507   -0.5342   -2.2705 O   0  0  0  0  0  0  0  0  0  0  0  0
    3.3452   -0.9115    0.0086 N   0  0  0  0  0  0  0  0  0  0  0  0
    4.3147   -1.9358    0.0548 C   0  0  0  0  0  0  0  0  0  0  0  0
    4.6892   -2.7027   -1.0658 C   0  0  0  0  0  0  0  0  0  0  0  0
    5.6356   -3.7301   -0.9558 C   0  0  0  0  0  0  0  0  0  0  0  0
    6.1842   -3.9693    0.2827 C   0  0  0  0  0  0  0  0  0  0  0  0
    5.8215   -3.2299    1.3807 C   0  0  0  0  0  0  0  0  0  0  0  0
    4.8908   -2.2131    1.3020 C   0  0  0  0  0  0  0  0  0  0  0  0
    6.4750   -3.6204    2.5075 O   0  0  0  0  0  0  0  0  0  0  0  0
    7.3135   -4.6725    1.9837 C   0  0  0  0  0  0  0  0  0  0  0  0
    7.1096   -4.9207    0.5781 O   0  0  0  0  0  0  0  0  0  0  0  0
   -0.0328    2.1255   -0.9909 C   0  0  0  0  0  0  0  0  0  0  0  0
   -0.5713    1.6829    0.1981 O   0  0  0  0  0  0  0  0  0  0  0  0
   -1.6221    0.6831   -0.0218 C   0  0  0  0  0  0  0  0  0  0  0  0
   -1.3337   -0.4360    1.0131 C   0  0  0  0  0  0  0  0  0  0  0  0
   -2.2402   -1.6083    0.9622 N   0  0  0  0  0  0  0  0  0  0  0  0
   -2.5396   -2.1871    2.2866 C   0  0  0  0  0  0  0  0  0  0  0  0
   -2.1197   -2.7228   -0.3158 S   0  0  0  0  0  6  0  0  0  0  0  0
   -3.3235   -3.5286   -0.2919 O   0  0  0  0  0  0  0  0  0  0  0  0
   -1.7122   -2.0257   -1.5133 O   0  0  0  0  0  0  0  0  0  0  0  0
   -0.8251   -3.8876    0.0642 C   0  0  0  0  0  0  0  0  0  0  0  0
   -0.8668   -5.1941    0.5163 C   0  0  0  0  0  0  0  0  0  0  0  0
    0.4322   -5.7513    0.6958 C   0  0  0  0  0  0  0  0  0  0  0  0
    1.4240   -4.8527    0.3706 C   0  0  0  0  0  0  0  0  0  0  0  0
    0.7829   -3.3557   -0.1444 S   0  0  0  0  0  0  0  0  0  0  0  0
   -5.1546    0.9605    0.0640 H   0  0  0  0  0  0  0  0  0  0  0  0
   -4.1693   -0.2419   -0.7828 H   0  0  0  0  0  0  0  0  0  0  0  0
   -4.2635   -0.2087    0.9978 H   0  0  0  0  0  0  0  0  0  0  0  0
   -3.0338    1.8680    1.1176 H   0  0  0  0  0  0  0  0  0  0  0  0
   -2.7774    2.1031   -1.9081 H   0  0  0  0  0  0  0  0  0  0  0  0
   -4.2939    2.5614   -1.1904 H   0  0  0  0  0  0  0  0  0  0  0  0
   -4.5175    4.0117    0.4458 H   0  0  0  0  0  0  0  0  0  0  0  0
   -4.9347    6.3143   -0.1090 H   0  0  0  0  0  0  0  0  0  0  0  0
   -4.4862    5.4672   -1.5950 H   0  0  0  0  0  0  0  0  0  0  0  0
   -3.3188    6.5281   -0.7926 H   0  0  0  0  0  0  0  0  0  0  0  0
   -2.6102    4.1761    2.0829 H   0  0  0  0  0  0  0  0  0  0  0  0
   -2.2149    5.7740    1.4465 H   0  0  0  0  0  0  0  0  0  0  0  0
   -4.1437    6.5323    2.1163 H   0  0  0  0  0  0  0  0  0  0  0  0
   -0.3766    4.6088   -3.3105 H   0  0  0  0  0  0  0  0  0  0  0  0
    1.3793    3.2604   -4.4270 H   0  0  0  0  0  0  0  0  0  0  0  0
    2.3675    1.3366   -3.2935 H   0  0  0  0  0  0  0  0  0  0  0  0
    1.3892    0.4184    0.1852 H   0  0  0  0  0  0  0  0  0  0  0  0
    3.1672   -0.4318    0.8786 H   0  0  0  0  0  0  0  0  0  0  0  0
    4.2474   -2.5276   -2.0421 H   0  0  0  0  0  0  0  0  0  0  0  0
    5.9260   -4.3173   -1.8202 H   0  0  0  0  0  0  0  0  0  0  0  0
    4.6338   -1.6544    2.1946 H   0  0  0  0  0  0  0  0  0  0  0  0
    8.3618   -4.3968    2.1422 H   0  0  0  0  0  0  0  0  0  0  0  0
    7.1053   -5.5943    2.5363 H   0  0  0  0  0  0  0  0  0  0  0  0
   -1.5418    0.2747   -1.0339 H   0  0  0  0  0  0  0  0  0  0  0  0
   -0.2986   -0.7774    0.9211 H   0  0  0  0  0  0  0  0  0  0  0  0
   -1.3804    0.0189    2.0122 H   0  0  0  0  0  0  0  0  0  0  0  0
   -1.6426   -2.6353    2.7254 H   0  0  0  0  0  0  0  0  0  0  0  0
   -3.3292   -2.9410    2.2220 H   0  0  0  0  0  0  0  0  0  0  0  0
   -2.9038   -1.4060    2.9616 H   0  0  0  0  0  0  0  0  0  0  0  0
   -1.7961   -5.7225    0.6994 H   0  0  0  0  0  0  0  0  0  0  0  0
    0.6303   -6.7611    1.0358 H   0  0  0  0  0  0  0  0  0  0  0  0
    2.4958   -5.0030    0.4001 H   0  0  0  0  0  0  0  0  0  0  0  0
  1  2  1  0
  2  3  1  0
  3  4  1  0
  4  5  1  0
  5  6  1  0
  5  7  1  0
  7  8  1  0
  4  9  1  0
  9 10  2  0
  9 11  1  0
 11 12  2  0
 12 13  1  0
 13 14  2  0
 14 15  1  0
 15 16  1  0
 16 17  1  0
 17 18  2  0
 17 19  1  0
 19 20  1  0
 20 21  2  0
 21 22  1  0
 22 23  2  0
 23 24  1  0
 24 25  2  0
 24 26  1  0
 26 27  1  0
 27 28  1  0
 15 29  2  0
 29 30  1  0
 30 31  1  0
 31 32  1  0
 32 33  1  0
 33 34  1  0
 33 35  1  0
 35 36  2  0
 35 37  2  0
 35 38  1  0
 38 39  2  0
 39 40  1  0
 40 41  2  0
 41 42  1  0
 31  2  1  0
 42 38  1  0
 29 11  1  0
 25 20  1  0
 28 23  1  0
  1 43  1  0
  1 44  1  0
  1 45  1  0
  2 46  1  0
  3 47  1  0
  3 48  1  0
  5 49  1  0
  6 50  1  0
  6 51  1  0
  6 52  1  0
  7 53  1  0
  7 54  1  0
  8 55  1  0
 12 56  1  0
 13 57  1  0
 14 58  1  0
 16 59  1  0
 19 60  1  0
 21 61  1  0
 22 62  1  0
 25 63  1  0
 27 64  1  0
 27 65  1  0
 31 66  1  0
 32 67  1  0
 32 68  1  0
 34 69  1  0
 34 70  1  0
 34 71  1  0
 39 72  1  0
 40 73  1  0
 41 74  1  0
M  END
$$$$
