
     RDKit          3D

 60 63  0  0  0  0  0  0  0  0999 V2000
   -9.4654    0.2977   -0.3795 C   0  0  0  0  0  0  0  0  0  0  0  0
   -8.4212   -0.3348    0.3464 O   0  0  0  0  0  0  0  0  0  0  0  0
   -7.2398    0.3490    0.4938 C   0  0  0  0  0  0  0  0  0  0  0  0
   -6.9669    1.5892   -0.0982 C   0  0  0  0  0  0  0  0  0  0  0  0
   -5.7327    2.2103    0.1005 C   0  0  0  0  0  0  0  0  0  0  0  0
   -4.7701    1.5826    0.8898 C   0  0  0  0  0  0  0  0  0  0  0  0
   -3.1925    2.3494    1.1487 S   0  0  0  0  0  6  0  0  0  0  0  0
   -2.8830    2.2474    2.5582 O   0  0  0  0  0  0  0  0  0  0  0  0
   -3.1823    3.6268    0.4699 O   0  0  0  0  0  0  0  0  0  0  0  0
   -2.1508    1.3166    0.3223 N   0  0  0  0  0  0  0  0  0  0  0  0
   -2.3138    1.1851   -1.1336 C   0  0  0  0  0  0  0  0  0  0  0  0
   -0.9515    0.6851   -1.5548 C   0  0  0  0  0  0  0  0  0  0  0  0
   -0.0509    1.4138   -0.7195 O   0  0  0  0  0  0  0  0  0  0  0  0
   -0.7155    1.6056    0.5462 C   0  0  0  0  0  0  0  0  0  0  0  0
   -0.1420    0.6432    1.6131 C   0  0  0  0  0  0  0  0  0  0  0  0
    1.2863    0.7996    1.8212 N   0  0  0  0  0  0  0  0  0  0  0  0
    2.2086    0.0985    1.0767 C   0  0  0  0  0  0  0  0  0  0  0  0
    1.9741   -0.8320    0.3186 O   0  0  0  0  0  0  0  0  0  0  0  0
    3.6609    0.5874    1.2780 C   0  0  0  0  0  0  0  0  0  0  0  0
    3.9003    1.4960    2.0609 O   0  0  0  0  0  0  0  0  0  0  0  0
    4.5819   -0.0905    0.5182 N   0  0  0  0  0  0  0  0  0  0  0  0
    5.9936    0.1370    0.6649 C   0  0  0  0  0  0  0  0  0  0  0  0
    6.7656   -0.5557   -0.4253 C   0  0  0  0  0  0  0  0  0  0  0  0
    6.8786    0.0423   -1.7024 C   0  0  0  0  0  0  0  0  0  0  0  0
    7.5709   -0.5942   -2.7375 C   0  0  0  0  0  0  0  0  0  0  0  0
    8.1308   -1.8241   -2.4715 C   0  0  0  0  0  0  0  0  0  0  0  0
    8.0186   -2.4183   -1.2370 C   0  0  0  0  0  0  0  0  0  0  0  0
    7.3423   -1.8157   -0.1970 C   0  0  0  0  0  0  0  0  0  0  0  0
    8.6358   -3.6290   -1.1857 O   0  0  0  0  0  0  0  0  0  0  0  0
    9.1519   -3.7269   -2.5295 C   0  0  0  0  0  0  0  0  0  0  0  0
    8.8334   -2.5853   -3.3521 O   0  0  0  0  0  0  0  0  0  0  0  0
   -5.0268    0.3493    1.4971 C   0  0  0  0  0  0  0  0  0  0  0  0
   -6.2615   -0.2744    1.2999 C   0  0  0  0  0  0  0  0  0  0  0  0
   -6.6091   -1.4882    1.8390 O   0  0  0  0  0  0  0  0  0  0  0  0
   -5.6967   -2.0961    2.7428 C   0  0  0  0  0  0  0  0  0  0  0  0
  -10.3358   -0.3652   -0.3594 H   0  0  0  0  0  0  0  0  0  0  0  0
   -9.7573    1.2436    0.0886 H   0  0  0  0  0  0  0  0  0  0  0  0
   -9.1837    0.4440   -1.4273 H   0  0  0  0  0  0  0  0  0  0  0  0
   -7.6964    2.0977   -0.7203 H   0  0  0  0  0  0  0  0  0  0  0  0
   -5.5361    3.1759   -0.3609 H   0  0  0  0  0  0  0  0  0  0  0  0
   -2.5124    2.1589   -1.5931 H   0  0  0  0  0  0  0  0  0  0  0  0
   -3.1048    0.4806   -1.4000 H   0  0  0  0  0  0  0  0  0  0  0  0
   -0.8280   -0.3846   -1.3523 H   0  0  0  0  0  0  0  0  0  0  0  0
   -0.7320    0.8786   -2.6079 H   0  0  0  0  0  0  0  0  0  0  0  0
   -0.5355    2.6465    0.8363 H   0  0  0  0  0  0  0  0  0  0  0  0
   -0.6254    0.8091    2.5806 H   0  0  0  0  0  0  0  0  0  0  0  0
   -0.3327   -0.3953    1.3173 H   0  0  0  0  0  0  0  0  0  0  0  0
    1.6441    1.5934    2.3472 H   0  0  0  0  0  0  0  0  0  0  0  0
    4.2405   -0.8850   -0.0166 H   0  0  0  0  0  0  0  0  0  0  0  0
    6.2971   -0.2283    1.6530 H   0  0  0  0  0  0  0  0  0  0  0  0
    6.1912    1.2155    0.6527 H   0  0  0  0  0  0  0  0  0  0  0  0
    6.4191    1.0117   -1.8896 H   0  0  0  0  0  0  0  0  0  0  0  0
    7.6619   -0.1387   -3.7170 H   0  0  0  0  0  0  0  0  0  0  0  0
    7.2646   -2.3118    0.7649 H   0  0  0  0  0  0  0  0  0  0  0  0
    8.7355   -4.6250   -3.0002 H   0  0  0  0  0  0  0  0  0  0  0  0
   10.2421   -3.8297   -2.4796 H   0  0  0  0  0  0  0  0  0  0  0  0
   -4.2517   -0.1003    2.1096 H   0  0  0  0  0  0  0  0  0  0  0  0
   -6.1548   -3.0196    3.1099 H   0  0  0  0  0  0  0  0  0  0  0  0
   -4.7640   -2.3663    2.2371 H   0  0  0  0  0  0  0  0  0  0  0  0
   -5.5067   -1.4522    3.6078 H   0  0  0  0  0  0  0  0  0  0  0  0
  1  2  1  0
  2  3  1  0
  3  4  2  0
  4  5  1  0
  5  6  2  0
  6  7  1  0
  7  8  2  0
  7  9  2  0
  7 10  1  0
 10 11  1  0
 11 12  1  0
 12 13  1  0
 13 14  1  0
 14 15  1  0
 15 16  1  0
 16 17  1  0
 17 18  2  0
 17 19  1  0
 19 20  2  0
 19 21  1  0
 21 22  1  0
 22 23  1  0
 23 24  2  0
 24 25  1  0
 25 26  2  0
 26 27  1  0
 27 28  2  0
 27 29  1  0
 29 30  1  0
 30 31  1  0
  6 32  1  0
 32 33  2  0
 33 34  1  0
 34 35  1  0
 33  3  1  0
 14 10  1  0
 28 23  1  0
 31 26  1  0
  1 36  1  0
  1 37  1  0
  1 38  1  0
  4 39  1  0
  5 40  1  0
 11 41  1  0
 11 42  1  0
 12 43  1  0
 12 44  1  0
 14 45  1  0
 15 46  1  0
 15 47  1  0
 16 48  1  0
 21 49  1  0
 22 50  1  0
 22 51  1  0
 24 52  1  0
 25 53  1  0
 28 54  1  0
 30 55  1  0
 30 56  1  0
 32 57  1  0
 35 58  1  0
 35 59  1  0
 35 60  1  0
M  END
$$$$
