
     RDKit          3D

 46 47  0  0  0  0  0  0  0  0999 V2000
    7.6985   -0.0524   -3.1228 C   0  0  0  0  0  0  0  0  0  0  0  0
    7.3512    0.6046   -1.9098 O   0  0  0  0  0  0  0  0  0  0  0  0
    6.2029    0.1917   -1.2915 C   0  0  0  0  0  0  0  0  0  0  0  0
    5.3290   -0.7931   -1.7540 C   0  0  0  0  0  0  0  0  0  0  0  0
    4.1840   -1.1206   -1.0183 C   0  0  0  0  0  0  0  0  0  0  0  0
    3.9011   -0.4711    0.1905 C   0  0  0  0  0  0  0  0  0  0  0  0
    2.6587   -0.8177    0.9734 C   0  0  0  0  0  0  0  0  0  0  0  0
    1.5428    0.1981    0.7391 C   0  0  0  0  0  0  0  0  0  0  0  0
    0.2755   -0.1966    1.4637 C   0  0  0  0  0  0  0  0  0  0  0  0
    0.0752   -1.3127    1.9396 O   0  0  0  0  0  0  0  0  0  0  0  0
   -0.6559    0.8217    1.5099 N   0  0  0  0  0  0  0  0  0  0  0  0
   -1.9387    0.5290    2.0013 N   0  0  0  0  0  0  0  0  0  0  0  0
   -2.9187    1.4930    1.8096 C   0  0  0  0  0  0  0  0  0  0  0  0
   -2.6744    2.6259    1.3851 O   0  0  0  0  0  0  0  0  0  0  0  0
   -4.3086    1.0278    2.1564 C   0  0  0  0  0  0  0  0  0  0  0  0
   -4.8579    0.2710    1.0513 N   0  0  0  0  0  0  0  0  0  0  0  0
   -4.4385   -1.0013    0.8819 N   0  0  0  0  0  0  0  0  0  0  0  0
   -5.0579   -1.4072   -0.2327 C   0  0  0  0  0  0  0  0  0  0  0  0
   -4.8299   -2.7679   -0.7768 C   0  0  0  0  0  0  0  0  0  0  0  0
   -5.8838   -0.3898   -0.7641 C   0  0  0  0  0  0  0  0  0  0  0  0
   -5.7415    0.6871    0.0874 C   0  0  0  0  0  0  0  0  0  0  0  0
   -6.3399    2.0435    0.0458 C   0  0  0  0  0  0  0  0  0  0  0  0
    4.7797    0.5180    0.6493 C   0  0  0  0  0  0  0  0  0  0  0  0
    5.9202    0.8444   -0.0887 C   0  0  0  0  0  0  0  0  0  0  0  0
    8.6466    0.3710   -3.4718 H   0  0  0  0  0  0  0  0  0  0  0  0
    6.9445    0.1294   -3.8980 H   0  0  0  0  0  0  0  0  0  0  0  0
    7.8529   -1.1267   -2.9631 H   0  0  0  0  0  0  0  0  0  0  0  0
    5.5074   -1.3277   -2.6812 H   0  0  0  0  0  0  0  0  0  0  0  0
    3.5158   -1.8921   -1.3970 H   0  0  0  0  0  0  0  0  0  0  0  0
    2.9069   -0.8675    2.0413 H   0  0  0  0  0  0  0  0  0  0  0  0
    2.3235   -1.8275    0.7013 H   0  0  0  0  0  0  0  0  0  0  0  0
    1.3080    0.2699   -0.3311 H   0  0  0  0  0  0  0  0  0  0  0  0
    1.8530    1.1937    1.0816 H   0  0  0  0  0  0  0  0  0  0  0  0
   -0.5598    1.6923    0.9832 H   0  0  0  0  0  0  0  0  0  0  0  0
   -2.2123   -0.4597    1.9330 H   0  0  0  0  0  0  0  0  0  0  0  0
   -4.9466    1.8899    2.3741 H   0  0  0  0  0  0  0  0  0  0  0  0
   -4.2930    0.3789    3.0456 H   0  0  0  0  0  0  0  0  0  0  0  0
   -5.7655   -3.2025   -1.1431 H   0  0  0  0  0  0  0  0  0  0  0  0
   -4.4182   -3.4449   -0.0195 H   0  0  0  0  0  0  0  0  0  0  0  0
   -4.1270   -2.7225   -1.6144 H   0  0  0  0  0  0  0  0  0  0  0  0
   -6.4965   -0.4330   -1.6547 H   0  0  0  0  0  0  0  0  0  0  0  0
   -6.9030    2.2511    0.9659 H   0  0  0  0  0  0  0  0  0  0  0  0
   -7.0341    2.1473   -0.7932 H   0  0  0  0  0  0  0  0  0  0  0  0
   -5.5591    2.8023   -0.0664 H   0  0  0  0  0  0  0  0  0  0  0  0
    4.5863    1.0400    1.5845 H   0  0  0  0  0  0  0  0  0  0  0  0
    6.5972    1.6128    0.2793 H   0  0  0  0  0  0  0  0  0  0  0  0
  1  2  1  0
  2  3  1  0
  3  4  2  0
  4  5  1  0
  5  6  2  0
  6  7  1  0
  7  8  1  0
  8  9  1  0
  9 10  2  0
  9 11  1  0
 11 12  1  0
 12 13  1  0
 13 14  2  0
 13 15  1  0
 15 16  1  0
 16 17  1  0
 17 18  2  0
 18 19  1  0
 18 20  1  0
 20 21  2  0
 21 22  1  0
  6 23  1  0
 23 24  2  0
 24  3  1  0
 21 16  1  0
  1 25  1  0
  1 26  1  0
  1 27  1  0
  4 28  1  0
  5 29  1  0
  7 30  1  0
  7 31  1  0
  8 32  1  0
  8 33  1  0
 11 34  1  0
 12 35  1  0
 15 36  1  0
 15 37  1  0
 19 38  1  0
 19 39  1  0
 19 40  1  0
 20 41  1  0
 22 42  1  0
 22 43  1  0
 22 44  1  0
 23 45  1  0
 24 46  1  0
M  END
$$$$
