
     RDKit          3D

 48 51  0  0  0  0  0  0  0  0999 V2000
    7.7335    1.6445   -0.6820 C   0  0  0  0  0  0  0  0  0  0  0  0
    6.3417    1.1656   -0.6257 C   0  0  0  0  0  0  0  0  0  0  0  0
    5.7540   -0.0731   -0.5958 C   0  0  0  0  0  0  0  0  0  0  0  0
    4.3626    0.1919   -0.5494 C   0  0  0  0  0  0  0  0  0  0  0  0
    3.2727   -0.7837   -0.5027 C   0  0  0  0  0  0  0  0  0  0  0  0
    3.4711   -1.9939   -0.4552 O   0  0  0  0  0  0  0  0  0  0  0  0
    2.0148   -0.2232   -0.5075 N   0  0  0  0  0  0  0  0  0  0  0  0
    0.8215   -1.0138   -0.3209 C   0  0  0  0  0  0  0  0  0  0  0  0
    0.6074   -1.3378    1.1771 C   0  0  0  0  0  0  0  0  0  0  0  0
   -0.8466   -1.7730    1.5255 C   0  0  0  0  0  0  0  0  0  0  0  0
   -0.9417   -2.0139    3.0442 C   0  0  0  0  0  0  0  0  0  0  0  0
   -1.2034   -3.0931    0.8116 C   0  0  0  0  0  0  0  0  0  0  0  0
   -1.8591   -0.6501    1.1331 C   0  0  0  0  0  0  0  0  0  0  0  0
   -1.5418   -0.0748   -0.2081 C   0  0  0  0  0  0  0  0  0  0  0  0
   -0.3371   -0.2530   -0.8663 C   0  0  0  0  0  0  0  0  0  0  0  0
   -0.5279    0.3365   -2.1201 C   0  0  0  0  0  0  0  0  0  0  0  0
   -1.7384    0.8725   -2.2480 N   0  0  0  0  0  0  0  0  0  0  0  0
   -2.3553    0.6793   -1.0454 N   0  0  0  0  0  0  0  0  0  0  0  0
   -3.6549    1.2427   -0.8419 C   0  0  0  0  0  0  0  0  0  0  0  0
   -4.2610    1.3162    0.4192 C   0  0  0  0  0  0  0  0  0  0  0  0
   -5.5339    1.8825    0.5596 C   0  0  0  0  0  0  0  0  0  0  0  0
   -6.1984    2.3818   -0.5530 C   0  0  0  0  0  0  0  0  0  0  0  0
   -7.4146    2.9233   -0.4081 F   0  0  0  0  0  0  0  0  0  0  0  0
   -5.6130    2.3344   -1.8089 C   0  0  0  0  0  0  0  0  0  0  0  0
   -4.3425    1.7712   -1.9536 C   0  0  0  0  0  0  0  0  0  0  0  0
    4.1304    1.5177   -0.5458 N   0  0  0  0  0  0  0  0  0  0  0  0
    5.3747    2.1200   -0.5942 O   0  0  0  0  0  0  0  0  0  0  0  0
    7.9526    2.2901    0.1738 H   0  0  0  0  0  0  0  0  0  0  0  0
    7.9049    2.2158   -1.5993 H   0  0  0  0  0  0  0  0  0  0  0  0
    8.4380    0.8071   -0.6662 H   0  0  0  0  0  0  0  0  0  0  0  0
    6.2409   -1.0375   -0.6072 H   0  0  0  0  0  0  0  0  0  0  0  0
    1.9674    0.7887   -0.4344 H   0  0  0  0  0  0  0  0  0  0  0  0
    0.9315   -1.9508   -0.8806 H   0  0  0  0  0  0  0  0  0  0  0  0
    0.8560   -0.4493    1.7768 H   0  0  0  0  0  0  0  0  0  0  0  0
    1.3217   -2.1127    1.4849 H   0  0  0  0  0  0  0  0  0  0  0  0
   -0.2572   -2.8079    3.3632 H   0  0  0  0  0  0  0  0  0  0  0  0
   -1.9562   -2.3090    3.3344 H   0  0  0  0  0  0  0  0  0  0  0  0
   -0.6853   -1.1091    3.6067 H   0  0  0  0  0  0  0  0  0  0  0  0
   -0.4851   -3.8812    1.0640 H   0  0  0  0  0  0  0  0  0  0  0  0
   -2.1975   -3.4443    1.1108 H   0  0  0  0  0  0  0  0  0  0  0  0
   -1.2118   -2.9903   -0.2778 H   0  0  0  0  0  0  0  0  0  0  0  0
   -2.8748   -1.0606    1.1527 H   0  0  0  0  0  0  0  0  0  0  0  0
   -1.7982    0.1581    1.8725 H   0  0  0  0  0  0  0  0  0  0  0  0
    0.1604    0.3882   -2.9550 H   0  0  0  0  0  0  0  0  0  0  0  0
   -3.7727    0.9831    1.3248 H   0  0  0  0  0  0  0  0  0  0  0  0
   -6.0063    1.9468    1.5352 H   0  0  0  0  0  0  0  0  0  0  0  0
   -6.1417    2.7353   -2.6679 H   0  0  0  0  0  0  0  0  0  0  0  0
   -3.9012    1.7430   -2.9493 H   0  0  0  0  0  0  0  0  0  0  0  0
  1  2  1  0
  2  3  2  0
  3  4  1  0
  4  5  1  0
  5  6  2  0
  5  7  1  0
  7  8  1  0
  8  9  1  0
  9 10  1  0
 10 11  1  0
 10 12  1  0
 10 13  1  0
 13 14  1  0
 14 15  2  0
 15 16  1  0
 16 17  2  0
 17 18  1  0
 18 19  1  0
 19 20  2  0
 20 21  1  0
 21 22  2  0
 22 23  1  0
 22 24  1  0
 24 25  2  0
  4 26  2  0
 26 27  1  0
 27  2  1  0
 15  8  1  0
 25 19  1  0
 18 14  1  0
  1 28  1  0
  1 29  1  0
  1 30  1  0
  3 31  1  0
  7 32  1  0
  8 33  1  0
  9 34  1  0
  9 35  1  0
 11 36  1  0
 11 37  1  0
 11 38  1  0
 12 39  1  0
 12 40  1  0
 12 41  1  0
 13 42  1  0
 13 43  1  0
 16 44  1  0
 20 45  1  0
 21 46  1  0
 24 47  1  0
 25 48  1  0
M  END
$$$$
