
     RDKit          3D

 54 57  0  0  0  0  0  0  0  0999 V2000
    6.2343   -0.0981    2.6984 C   0  0  0  0  0  0  0  0  0  0  0  0
    5.0328    0.5316    3.3782 C   0  0  0  0  0  0  0  0  0  0  0  0
    4.1200    1.2365    2.3920 C   0  0  0  0  0  0  0  0  0  0  0  0
    4.1107    2.4691    2.3474 O   0  0  0  0  0  0  0  0  0  0  0  0
    3.3296    0.4745    1.5498 N   0  0  0  0  0  0  0  0  0  0  0  0
    3.1811   -0.9865    1.5917 C   0  0  0  0  0  0  0  0  0  0  0  0
    1.7676   -1.4539    1.1945 C   0  0  0  0  0  0  0  0  0  0  0  0
    1.3106   -0.9040   -0.1059 N   0  0  0  0  0  0  0  0  0  0  0  0
    1.1354   -1.8760   -1.1258 C   0  0  0  0  0  0  0  0  0  0  0  0
    2.1652   -2.7379   -1.5283 C   0  0  0  0  0  0  0  0  0  0  0  0
    1.9503   -3.6661   -2.5482 C   0  0  0  0  0  0  0  0  0  0  0  0
    0.7059   -3.7373   -3.1718 C   0  0  0  0  0  0  0  0  0  0  0  0
    0.4565   -4.8894   -4.4271 Cl  0  0  0  0  0  0  0  0  0  0  0  0
   -0.3336   -2.8903   -2.7909 C   0  0  0  0  0  0  0  0  0  0  0  0
   -0.1242   -1.9597   -1.7732 C   0  0  0  0  0  0  0  0  0  0  0  0
   -1.1102   -1.0671   -1.3006 N   0  0  0  0  0  0  0  0  0  0  0  0
   -2.3925   -0.8827   -1.7675 C   0  0  0  0  0  0  0  0  0  0  0  0
   -2.9006   -1.4387   -2.7339 O   0  0  0  0  0  0  0  0  0  0  0  0
   -3.1980    0.1260   -1.0194 C   0  0  0  0  0  0  0  0  0  0  0  0
   -3.0224    0.3466    0.3551 C   0  0  0  0  0  0  0  0  0  0  0  0
   -3.8021    1.2997    1.0161 C   0  0  0  0  0  0  0  0  0  0  0  0
   -4.7632    2.0219    0.3117 C   0  0  0  0  0  0  0  0  0  0  0  0
   -4.9335    1.8118   -1.0603 C   0  0  0  0  0  0  0  0  0  0  0  0
   -4.1682    0.8534   -1.7215 C   0  0  0  0  0  0  0  0  0  0  0  0
   -5.8414    2.5058   -1.8184 O   0  0  0  0  0  0  0  0  0  0  0  0
   -6.3210    3.6668   -1.1309 C   0  0  0  0  0  0  0  0  0  0  0  0
   -6.6735    3.3295    0.3082 C   0  0  0  0  0  0  0  0  0  0  0  0
   -5.5054    2.9225    1.0314 O   0  0  0  0  0  0  0  0  0  0  0  0
    2.0771    0.2671   -0.6047 C   0  0  0  0  0  0  0  0  0  0  0  0
    2.5054    1.1769    0.5575 C   0  0  0  0  0  0  0  0  0  0  0  0
    6.9343   -0.4818    3.4473 H   0  0  0  0  0  0  0  0  0  0  0  0
    5.9477   -0.9308    2.0511 H   0  0  0  0  0  0  0  0  0  0  0  0
    6.7630    0.6355    2.0810 H   0  0  0  0  0  0  0  0  0  0  0  0
    5.3836    1.2839    4.0957 H   0  0  0  0  0  0  0  0  0  0  0  0
    4.4722   -0.2002    3.9660 H   0  0  0  0  0  0  0  0  0  0  0  0
    3.9178   -1.3960    0.8915 H   0  0  0  0  0  0  0  0  0  0  0  0
    3.4190   -1.3710    2.5855 H   0  0  0  0  0  0  0  0  0  0  0  0
    1.7161   -2.5493    1.2231 H   0  0  0  0  0  0  0  0  0  0  0  0
    1.0601   -1.0962    1.9527 H   0  0  0  0  0  0  0  0  0  0  0  0
    3.1442   -2.6895   -1.0629 H   0  0  0  0  0  0  0  0  0  0  0  0
    2.7557   -4.3286   -2.8543 H   0  0  0  0  0  0  0  0  0  0  0  0
   -1.2920   -2.9745   -3.2921 H   0  0  0  0  0  0  0  0  0  0  0  0
   -0.7548   -0.4747   -0.5559 H   0  0  0  0  0  0  0  0  0  0  0  0
   -2.3091   -0.2346    0.9331 H   0  0  0  0  0  0  0  0  0  0  0  0
   -3.6762    1.4645    2.0830 H   0  0  0  0  0  0  0  0  0  0  0  0
   -4.3196    0.6820   -2.7847 H   0  0  0  0  0  0  0  0  0  0  0  0
   -5.5505    4.4462   -1.1838 H   0  0  0  0  0  0  0  0  0  0  0  0
   -7.2070    4.0258   -1.6640 H   0  0  0  0  0  0  0  0  0  0  0  0
   -7.4152    2.5228    0.3613 H   0  0  0  0  0  0  0  0  0  0  0  0
   -7.0874    4.2081    0.8135 H   0  0  0  0  0  0  0  0  0  0  0  0
    2.9760   -0.0554   -1.1471 H   0  0  0  0  0  0  0  0  0  0  0  0
    1.4524    0.8405   -1.2997 H   0  0  0  0  0  0  0  0  0  0  0  0
    1.6219    1.5539    1.0875 H   0  0  0  0  0  0  0  0  0  0  0  0
    3.0551    2.0414    0.1686 H   0  0  0  0  0  0  0  0  0  0  0  0
  1  2  1  0
  2  3  1  0
  3  4  2  0
  3  5  1  0
  5  6  1  0
  6  7  1  0
  7  8  1  0
  8  9  1  0
  9 10  2  0
 10 11  1  0
 11 12  2  0
 12 13  1  0
 12 14  1  0
 14 15  2  0
 15 16  1  0
 16 17  1  0
 17 18  2  0
 17 19  1  0
 19 20  2  0
 20 21  1  0
 21 22  2  0
 22 23  1  0
 23 24  2  0
 23 25  1  0
 25 26  1  0
 26 27  1  0
 27 28  1  0
  8 29  1  0
 29 30  1  0
 30  5  1  0
 15  9  1  0
 24 19  1  0
 28 22  1  0
  1 31  1  0
  1 32  1  0
  1 33  1  0
  2 34  1  0
  2 35  1  0
  6 36  1  0
  6 37  1  0
  7 38  1  0
  7 39  1  0
 10 40  1  0
 11 41  1  0
 14 42  1  0
 16 43  1  0
 20 44  1  0
 21 45  1  0
 24 46  1  0
 26 47  1  0
 26 48  1  0
 27 49  1  0
 27 50  1  0
 29 51  1  0
 29 52  1  0
 30 53  1  0
 30 54  1  0
M  END
$$$$
