
     RDKit          3D

 36 37  0  0  0  0  0  0  0  0999 V2000
   -7.3733    0.2197    0.7099 C   0  0  0  0  0  0  0  0  0  0  0  0
   -6.1961    0.4656    1.4692 O   0  0  0  0  0  0  0  0  0  0  0  0
   -4.9998    0.2678    0.8378 C   0  0  0  0  0  0  0  0  0  0  0  0
   -4.8267   -0.1553   -0.4800 C   0  0  0  0  0  0  0  0  0  0  0  0
   -3.5376   -0.3177   -1.0023 C   0  0  0  0  0  0  0  0  0  0  0  0
   -2.4097   -0.0589   -0.2123 C   0  0  0  0  0  0  0  0  0  0  0  0
   -1.0652   -0.2491   -0.8213 C   0  0  0  0  0  0  0  0  0  0  0  0
   -0.8928   -0.6186   -1.9719 O   0  0  0  0  0  0  0  0  0  0  0  0
   -0.0885    0.0422    0.0732 O   0  0  0  0  0  0  0  0  0  0  0  0
    1.2447   -0.1130   -0.4377 C   0  0  0  0  0  0  0  0  0  0  0  0
    2.2249    0.2280    0.6812 C   0  0  0  0  0  0  0  0  0  0  0  0
    3.6600    0.0956    0.2436 C   0  0  0  0  0  0  0  0  0  0  0  0
    4.3282   -1.1320    0.3588 C   0  0  0  0  0  0  0  0  0  0  0  0
    5.6531   -1.2611   -0.0645 C   0  0  0  0  0  0  0  0  0  0  0  0
    6.3080   -0.1607   -0.6072 C   0  0  0  0  0  0  0  0  0  0  0  0
    7.6006   -0.2420   -1.0334 O   0  0  0  0  0  0  0  0  0  0  0  0
    5.6603    1.0617   -0.7337 C   0  0  0  0  0  0  0  0  0  0  0  0
    4.3365    1.1907   -0.3112 C   0  0  0  0  0  0  0  0  0  0  0  0
   -2.5854    0.3655    1.1095 C   0  0  0  0  0  0  0  0  0  0  0  0
   -3.8749    0.5260    1.6261 C   0  0  0  0  0  0  0  0  0  0  0  0
   -7.4346    0.8922   -0.1521 H   0  0  0  0  0  0  0  0  0  0  0  0
   -7.4307   -0.8287    0.3992 H   0  0  0  0  0  0  0  0  0  0  0  0
   -8.2346    0.4239    1.3532 H   0  0  0  0  0  0  0  0  0  0  0  0
   -5.6694   -0.3677   -1.1297 H   0  0  0  0  0  0  0  0  0  0  0  0
   -3.4187   -0.6484   -2.0330 H   0  0  0  0  0  0  0  0  0  0  0  0
    1.3884    0.5620   -1.2903 H   0  0  0  0  0  0  0  0  0  0  0  0
    1.3904   -1.1483   -0.7698 H   0  0  0  0  0  0  0  0  0  0  0  0
    2.0373   -0.4163    1.5502 H   0  0  0  0  0  0  0  0  0  0  0  0
    2.0352    1.2463    1.0450 H   0  0  0  0  0  0  0  0  0  0  0  0
    3.8191   -1.9965    0.7798 H   0  0  0  0  0  0  0  0  0  0  0  0
    6.1512   -2.2200    0.0357 H   0  0  0  0  0  0  0  0  0  0  0  0
    7.9165   -1.1487   -0.8888 H   0  0  0  0  0  0  0  0  0  0  0  0
    6.1836    1.9119   -1.1618 H   0  0  0  0  0  0  0  0  0  0  0  0
    3.8384    2.1517   -0.4185 H   0  0  0  0  0  0  0  0  0  0  0  0
   -1.7338    0.5758    1.7511 H   0  0  0  0  0  0  0  0  0  0  0  0
   -4.0048    0.8563    2.6544 H   0  0  0  0  0  0  0  0  0  0  0  0
  1  2  1  0
  2  3  1  0
  3  4  2  0
  4  5  1  0
  5  6  2  0
  6  7  1  0
  7  8  2  0
  7  9  1  0
  9 10  1  0
 10 11  1  0
 11 12  1  0
 12 13  2  0
 13 14  1  0
 14 15  2  0
 15 16  1  0
 15 17  1  0
 17 18  2  0
  6 19  1  0
 19 20  2  0
 20  3  1  0
 18 12  1  0
  1 21  1  0
  1 22  1  0
  1 23  1  0
  4 24  1  0
  5 25  1  0
 10 26  1  0
 10 27  1  0
 11 28  1  0
 11 29  1  0
 13 30  1  0
 14 31  1  0
 16 32  1  0
 17 33  1  0
 18 34  1  0
 19 35  1  0
 20 36  1  0
M  END
$$$$
