
     RDKit          3D

 70 75  0  0  0  0  0  0  0  0999 V2000
   -5.2022   -3.6286    2.2606 C   0  0  0  0  0  0  0  0  0  0  0  0
   -4.1217   -2.9002    1.5051 C   0  0  0  0  0  0  0  0  0  0  0  0
   -3.5190   -1.7717    2.1126 C   0  0  0  0  0  0  0  0  0  0  0  0
   -2.5187   -1.0422    1.4682 C   0  0  0  0  0  0  0  0  0  0  0  0
   -2.1292   -1.4465    0.2042 C   0  0  0  0  0  0  0  0  0  0  0  0
   -2.7087   -2.5740   -0.3930 C   0  0  0  0  0  0  0  0  0  0  0  0
   -3.6921   -3.3357    0.2298 C   0  0  0  0  0  0  0  0  0  0  0  0
   -4.3093   -4.5218   -0.4512 C   0  0  0  0  0  0  0  0  0  0  0  0
   -2.1410   -2.7866   -1.6495 N   0  0  0  0  0  0  0  0  0  0  0  0
   -1.1699   -1.8285   -1.9466 C   0  0  0  0  0  0  0  0  0  0  0  0
   -0.5037   -1.8049   -2.9717 O   0  0  0  0  0  0  0  0  0  0  0  0
   -1.1034   -0.8763   -0.7272 C   0  0  1  0  0  0  0  0  0  0  0  0
   -1.4375    0.5326   -1.0573 C   0  0  0  0  0  0  0  0  0  0  0  0
   -0.2714    1.3170   -1.0844 C   0  0  0  0  0  0  0  0  0  0  0  0
   -0.6092    2.6020   -1.4155 C   0  0  0  0  0  0  0  0  0  0  0  0
    0.1548    3.6827   -1.5505 O   0  0  0  0  0  0  0  0  0  0  0  0
   -2.0141    2.6369   -1.5485 N   0  0  0  0  0  0  0  0  0  0  0  0
   -2.8217    3.8019   -1.7555 C   0  0  0  0  0  0  0  0  0  0  0  0
   -2.3295    4.9014   -2.4690 C   0  0  0  0  0  0  0  0  0  0  0  0
   -3.1322    6.0282   -2.6701 C   0  0  0  0  0  0  0  0  0  0  0  0
   -4.4251    6.0705   -2.1531 C   0  0  0  0  0  0  0  0  0  0  0  0
   -4.9178    4.9889   -1.4278 C   0  0  0  0  0  0  0  0  0  0  0  0
   -4.1208    3.8592   -1.2256 C   0  0  0  0  0  0  0  0  0  0  0  0
   -2.4953    1.3148   -1.4309 C   0  0  0  0  0  0  0  0  0  0  0  0
   -3.7426    0.9332   -1.7027 O   0  0  0  0  0  0  0  0  0  0  0  0
    0.9060    0.4634   -0.8171 C   0  0  1  0  0  0  0  0  0  0  0  0
    2.0167    0.9806    0.0884 C   0  0  0  0  0  0  0  0  0  0  0  0
    2.9747   -0.0954    0.3983 N   0  0  0  0  0  0  0  0  0  0  0  0
    4.2629    0.2680    0.7507 C   0  0  0  0  0  0  0  0  0  0  0  0
    4.6968    1.4066    0.6327 O   0  0  0  0  0  0  0  0  0  0  0  0
    4.9760   -0.7815    1.2327 O   0  0  0  0  0  0  0  0  0  0  0  0
    6.3567   -0.6248    1.6474 C   0  0  0  0  0  0  0  0  0  0  0  0
    6.4813    0.3533    2.8206 C   0  0  0  0  0  0  0  0  0  0  0  0
    7.2498   -0.2247    0.4682 C   0  0  0  0  0  0  0  0  0  0  0  0
    6.7770   -2.0218    2.1286 C   0  0  0  0  0  0  0  0  0  0  0  0
    2.4019   -1.4005    0.7849 C   0  0  0  0  0  0  0  0  0  0  0  0
    1.1641   -1.8204   -0.0504 C   0  0  0  0  0  0  0  0  0  0  0  0
    0.2476   -0.6973   -0.1413 N   0  0  0  0  0  0  0  0  0  0  0  0
   -4.8283   -4.5941    2.6151 H   0  0  0  0  0  0  0  0  0  0  0  0
   -6.0779   -3.7854    1.6232 H   0  0  0  0  0  0  0  0  0  0  0  0
   -5.5383   -3.0559    3.1317 H   0  0  0  0  0  0  0  0  0  0  0  0
   -3.8401   -1.4498    3.1021 H   0  0  0  0  0  0  0  0  0  0  0  0
   -2.0673   -0.1750    1.9400 H   0  0  0  0  0  0  0  0  0  0  0  0
   -5.2129   -4.2162   -0.9879 H   0  0  0  0  0  0  0  0  0  0  0  0
   -4.5692   -5.3050    0.2677 H   0  0  0  0  0  0  0  0  0  0  0  0
   -3.6177   -4.9835   -1.1628 H   0  0  0  0  0  0  0  0  0  0  0  0
   -2.3852   -3.5232   -2.2919 H   0  0  0  0  0  0  0  0  0  0  0  0
    1.0800    3.4275   -1.3930 H   0  0  0  0  0  0  0  0  0  0  0  0
   -1.3364    4.8963   -2.9096 H   0  0  0  0  0  0  0  0  0  0  0  0
   -2.7444    6.8728   -3.2344 H   0  0  0  0  0  0  0  0  0  0  0  0
   -5.0439    6.9506   -2.3082 H   0  0  0  0  0  0  0  0  0  0  0  0
   -5.9185    5.0294   -1.0052 H   0  0  0  0  0  0  0  0  0  0  0  0
   -4.5172    3.0569   -0.6070 H   0  0  0  0  0  0  0  0  0  0  0  0
   -4.1477    1.5951   -2.2918 H   0  0  0  0  0  0  0  0  0  0  0  0
    1.3312    0.1468   -1.7807 H   0  0  0  0  0  0  0  0  0  0  0  0
    1.6215    1.3521    1.0427 H   0  0  0  0  0  0  0  0  0  0  0  0
    2.5366    1.8175   -0.3910 H   0  0  0  0  0  0  0  0  0  0  0  0
    5.7620    0.1079    3.6097 H   0  0  0  0  0  0  0  0  0  0  0  0
    7.4886    0.3340    3.2497 H   0  0  0  0  0  0  0  0  0  0  0  0
    6.2753    1.3844    2.5182 H   0  0  0  0  0  0  0  0  0  0  0  0
    7.0931   -0.8953   -0.3838 H   0  0  0  0  0  0  0  0  0  0  0  0
    7.0315    0.7872    0.1141 H   0  0  0  0  0  0  0  0  0  0  0  0
    8.3089   -0.2538    0.7441 H   0  0  0  0  0  0  0  0  0  0  0  0
    6.1457   -2.3523    2.9622 H   0  0  0  0  0  0  0  0  0  0  0  0
    7.8218   -2.0428    2.4564 H   0  0  0  0  0  0  0  0  0  0  0  0
    6.6484   -2.7639    1.3313 H   0  0  0  0  0  0  0  0  0  0  0  0
    2.1235   -1.3155    1.8431 H   0  0  0  0  0  0  0  0  0  0  0  0
    3.1648   -2.1824    0.7083 H   0  0  0  0  0  0  0  0  0  0  0  0
    1.4938   -2.1444   -1.0448 H   0  0  0  0  0  0  0  0  0  0  0  0
    0.6883   -2.6776    0.4384 H   0  0  0  0  0  0  0  0  0  0  0  0
  1  2  1  0
  2  3  2  0
  3  4  1  0
  4  5  2  0
  5  6  1  0
  6  7  2  0
  7  8  1  0
  6  9  1  0
  9 10  1  0
 10 11  2  0
 10 12  1  0
 12 13  1  0
 13 14  1  0
 14 15  2  0
 15 16  1  0
 15 17  1  0
 17 18  1  0
 18 19  2  0
 19 20  1  0
 20 21  2  0
 21 22  1  0
 22 23  2  0
 17 24  1  0
 24 25  1  0
 14 26  1  0
 26 27  1  0
 27 28  1  0
 28 29  1  0
 29 30  2  0
 29 31  1  0
 31 32  1  0
 32 33  1  0
 32 34  1  0
 32 35  1  0
 28 36  1  0
 36 37  1  0
 37 38  1  0
  7  2  1  0
 12 38  1  1
 12  5  1  0
 24 13  2  0
 38 26  1  0
 23 18  1  0
  1 39  1  0
  1 40  1  0
  1 41  1  0
  3 42  1  0
  4 43  1  0
  8 44  1  0
  8 45  1  0
  8 46  1  0
  9 47  1  0
 16 48  1  0
 19 49  1  0
 20 50  1  0
 21 51  1  0
 22 52  1  0
 23 53  1  0
 25 54  1  0
 26 55  1  6
 27 56  1  0
 27 57  1  0
 33 58  1  0
 33 59  1  0
 33 60  1  0
 34 61  1  0
 34 62  1  0
 34 63  1  0
 35 64  1  0
 35 65  1  0
 35 66  1  0
 36 67  1  0
 36 68  1  0
 37 69  1  0
 37 70  1  0
M  END
$$$$
