
     RDKit          3D

 55 60  0  0  0  0  0  0  0  0999 V2000
   -4.5408   -1.5842    0.3148 O   0  0  0  0  0  0  0  0  0  0  0  0
   -4.0232   -0.4933    0.5504 C   0  0  0  0  0  0  0  0  0  0  0  0
   -4.7267    0.7281    0.1811 C   0  0  0  0  0  0  0  0  0  0  0  0
   -5.6520    0.8873   -0.8958 C   0  0  0  0  0  0  0  0  0  0  0  0
   -6.0987    2.1854   -0.8479 C   0  0  0  0  0  0  0  0  0  0  0  0
   -5.5349    2.8381    0.1996 O   0  0  0  0  0  0  0  0  0  0  0  0
   -4.7303    1.9455    0.8330 C   0  0  0  0  0  0  0  0  0  0  0  0
   -2.7656   -0.3969    1.1560 N   0  0  0  0  0  0  0  0  0  0  0  0
   -1.8824    0.7568    1.0126 C   0  0  0  0  0  0  0  0  0  0  0  0
   -0.3990    0.3714    1.0606 C   0  0  0  0  0  0  0  0  0  0  0  0
   -0.1027   -0.8773    0.1874 C   0  0  0  0  0  0  0  0  0  0  0  0
   -1.0348   -2.0530    0.6434 C   0  0  0  0  0  0  0  0  0  0  0  0
   -2.1269   -1.6179    1.6188 C   0  0  0  0  0  0  0  0  0  0  0  0
   -0.4575   -0.4713   -1.1619 O   0  0  0  0  0  0  0  0  0  0  0  0
   -0.0807   -1.3238   -2.1626 C   0  0  0  0  0  0  0  0  0  0  0  0
   -0.7351   -1.1637   -3.3847 C   0  0  0  0  0  0  0  0  0  0  0  0
   -0.4298   -2.0086   -4.4529 C   0  0  0  0  0  0  0  0  0  0  0  0
    0.5306   -3.0028   -4.2918 C   0  0  0  0  0  0  0  0  0  0  0  0
    0.8208   -3.8089   -5.3209 F   0  0  0  0  0  0  0  0  0  0  0  0
    1.2002   -3.1652   -3.0856 C   0  0  0  0  0  0  0  0  0  0  0  0
    0.8944   -2.3124   -2.0220 C   0  0  0  0  0  0  0  0  0  0  0  0
    1.6177   -2.4243   -0.7416 C   0  0  0  0  0  0  0  0  0  0  0  0
    2.3743   -3.3706   -0.5511 O   0  0  0  0  0  0  0  0  0  0  0  0
    1.3994   -1.2761    0.2377 C   0  0  0  0  0  0  0  0  0  0  0  0
    2.3988   -0.1786   -0.1112 C   0  0  0  0  0  0  0  0  0  0  0  0
    2.8540    0.1760    1.2614 C   0  0  0  0  0  0  0  0  0  0  0  0
    3.6594    1.3891    1.5332 C   0  0  0  0  0  0  0  0  0  0  0  0
    4.1338    2.2002    0.4960 C   0  0  0  0  0  0  0  0  0  0  0  0
    4.8822    3.3433    0.7897 C   0  0  0  0  0  0  0  0  0  0  0  0
    5.1593    3.6790    2.1145 C   0  0  0  0  0  0  0  0  0  0  0  0
    4.6931    2.8717    3.1504 C   0  0  0  0  0  0  0  0  0  0  0  0
    3.9460    1.7282    2.8617 C   0  0  0  0  0  0  0  0  0  0  0  0
    2.4864   -0.6533    2.1845 N   0  0  0  0  0  0  0  0  0  0  0  0
    1.7573   -1.6914    1.5604 O   0  0  0  0  0  0  0  0  0  0  0  0
   -5.9484    0.1321   -1.6120 H   0  0  0  0  0  0  0  0  0  0  0  0
   -6.7894    2.7646   -1.4454 H   0  0  0  0  0  0  0  0  0  0  0  0
   -4.2501    2.3203    1.7257 H   0  0  0  0  0  0  0  0  0  0  0  0
   -2.0983    1.2674    0.0679 H   0  0  0  0  0  0  0  0  0  0  0  0
   -2.0949    1.4481    1.8340 H   0  0  0  0  0  0  0  0  0  0  0  0
   -0.1118    0.1848    2.1021 H   0  0  0  0  0  0  0  0  0  0  0  0
    0.1736    1.2414    0.7203 H   0  0  0  0  0  0  0  0  0  0  0  0
   -1.5222   -2.5096   -0.2259 H   0  0  0  0  0  0  0  0  0  0  0  0
   -0.4621   -2.8488    1.1320 H   0  0  0  0  0  0  0  0  0  0  0  0
   -1.7061   -1.4210    2.6121 H   0  0  0  0  0  0  0  0  0  0  0  0
   -2.8563   -2.4246    1.7475 H   0  0  0  0  0  0  0  0  0  0  0  0
   -1.4946   -0.3942   -3.5018 H   0  0  0  0  0  0  0  0  0  0  0  0
   -0.9384   -1.9028   -5.4070 H   0  0  0  0  0  0  0  0  0  0  0  0
    1.9529   -3.9427   -2.9881 H   0  0  0  0  0  0  0  0  0  0  0  0
    3.2611   -0.5474   -0.6777 H   0  0  0  0  0  0  0  0  0  0  0  0
    1.9549    0.6660   -0.6425 H   0  0  0  0  0  0  0  0  0  0  0  0
    3.9435    1.9633   -0.5464 H   0  0  0  0  0  0  0  0  0  0  0  0
    5.2538    3.9729   -0.0159 H   0  0  0  0  0  0  0  0  0  0  0  0
    5.7430    4.5682    2.3402 H   0  0  0  0  0  0  0  0  0  0  0  0
    4.9118    3.1303    4.1834 H   0  0  0  0  0  0  0  0  0  0  0  0
    3.5915    1.1050    3.6805 H   0  0  0  0  0  0  0  0  0  0  0  0
  1  2  2  0
  2  3  1  0
  3  4  1  0
  4  5  2  0
  5  6  1  0
  6  7  1  0
  2  8  1  0
  8  9  1  0
  9 10  1  0
 10 11  1  0
 11 12  1  0
 12 13  1  0
 11 14  1  0
 14 15  1  0
 15 16  2  0
 16 17  1  0
 17 18  2  0
 18 19  1  0
 18 20  1  0
 20 21  2  0
 21 22  1  0
 22 23  2  0
 22 24  1  0
 24 25  1  0
 25 26  1  0
 26 27  1  0
 27 28  2  0
 28 29  1  0
 29 30  2  0
 30 31  1  0
 31 32  2  0
 26 33  2  0
 33 34  1  0
  7  3  2  0
 13  8  1  0
 21 15  1  0
 34 24  1  0
 24 11  1  0
 32 27  1  0
  4 35  1  0
  5 36  1  0
  7 37  1  0
  9 38  1  0
  9 39  1  0
 10 40  1  0
 10 41  1  0
 12 42  1  0
 12 43  1  0
 13 44  1  0
 13 45  1  0
 16 46  1  0
 17 47  1  0
 20 48  1  0
 25 49  1  0
 25 50  1  0
 28 51  1  0
 29 52  1  0
 30 53  1  0
 31 54  1  0
 32 55  1  0
M  END
$$$$
