
     RDKit          3D

 61 63  0  0  0  0  0  0  0  0999 V2000
   -7.2202   -3.9882   -1.2537 C   0  0  0  0  0  0  0  0  0  0  0  0
   -7.1185   -3.6961    0.1340 O   0  0  0  0  0  0  0  0  0  0  0  0
   -6.8128   -2.4063    0.4723 C   0  0  0  0  0  0  0  0  0  0  0  0
   -6.6093   -1.3507   -0.4157 C   0  0  0  0  0  0  0  0  0  0  0  0
   -6.3016   -0.0742    0.0682 C   0  0  0  0  0  0  0  0  0  0  0  0
   -6.1997    0.1666    1.4454 C   0  0  0  0  0  0  0  0  0  0  0  0
   -5.8436    1.5385    1.9549 C   0  0  0  0  0  0  0  0  0  0  0  0
   -4.4160    1.7111    2.0144 N   0  0  0  0  0  0  0  0  0  0  0  0
   -3.6970    2.2477    0.9732 C   0  0  0  0  0  0  0  0  0  0  0  0
   -4.1540    2.7592   -0.0395 O   0  0  0  0  0  0  0  0  0  0  0  0
   -2.1669    2.1393    1.1649 C   0  0  0  0  0  0  0  0  0  0  0  0
   -1.7066    1.5604    2.1386 O   0  0  0  0  0  0  0  0  0  0  0  0
   -1.4377    2.7133    0.1506 N   0  0  0  0  0  0  0  0  0  0  0  0
    0.0032    2.5408    0.0541 C   0  0  0  0  0  0  0  0  0  0  0  0
    0.4254    1.0976   -0.3157 C   0  0  0  0  0  0  0  0  0  0  0  0
   -0.2728    0.7469   -1.5409 O   0  0  0  0  0  0  0  0  0  0  0  0
    0.6887    0.1913   -2.4404 C   0  0  0  0  0  0  0  0  0  0  0  0
    1.9926    0.8487   -2.0555 C   0  0  0  0  0  0  0  0  0  0  0  0
    1.8663    0.8957   -0.5975 N   0  0  0  0  0  0  0  0  0  0  0  0
    2.9800    1.7816    0.2852 S   0  0  0  0  0  6  0  0  0  0  0  0
    3.0479    3.1033   -0.3001 O   0  0  0  0  0  0  0  0  0  0  0  0
    2.6948    1.5941    1.6893 O   0  0  0  0  0  0  0  0  0  0  0  0
    4.5007    0.9367   -0.0621 C   0  0  0  0  0  0  0  0  0  0  0  0
    5.4892    1.5565   -0.8256 C   0  0  0  0  0  0  0  0  0  0  0  0
    6.6757    0.8724   -1.0957 C   0  0  0  0  0  0  0  0  0  0  0  0
    6.8768   -0.4218   -0.5981 C   0  0  0  0  0  0  0  0  0  0  0  0
    8.0074   -1.1684   -0.8202 O   0  0  0  0  0  0  0  0  0  0  0  0
    9.0837   -0.5492   -1.5097 C   0  0  0  0  0  0  0  0  0  0  0  0
    5.8753   -1.0354    0.1865 C   0  0  0  0  0  0  0  0  0  0  0  0
    6.1506   -2.3041    0.6333 O   0  0  0  0  0  0  0  0  0  0  0  0
    5.2642   -2.8706    1.5891 C   0  0  0  0  0  0  0  0  0  0  0  0
    4.6867   -0.3506    0.4516 C   0  0  0  0  0  0  0  0  0  0  0  0
   -6.3942   -0.8993    2.3313 C   0  0  0  0  0  0  0  0  0  0  0  0
   -6.7023   -2.1726    1.8450 C   0  0  0  0  0  0  0  0  0  0  0  0
   -7.4635   -5.0507   -1.3548 H   0  0  0  0  0  0  0  0  0  0  0  0
   -6.2672   -3.8152   -1.7640 H   0  0  0  0  0  0  0  0  0  0  0  0
   -8.0294   -3.4160   -1.7197 H   0  0  0  0  0  0  0  0  0  0  0  0
   -6.6793   -1.4832   -1.4902 H   0  0  0  0  0  0  0  0  0  0  0  0
   -6.1355    0.7369   -0.6398 H   0  0  0  0  0  0  0  0  0  0  0  0
   -6.2928    2.3094    1.3181 H   0  0  0  0  0  0  0  0  0  0  0  0
   -6.2365    1.6835    2.9673 H   0  0  0  0  0  0  0  0  0  0  0  0
   -3.8793    1.2091    2.7161 H   0  0  0  0  0  0  0  0  0  0  0  0
   -1.9648    2.9817   -0.6769 H   0  0  0  0  0  0  0  0  0  0  0  0
    0.3355    3.2450   -0.7162 H   0  0  0  0  0  0  0  0  0  0  0  0
    0.4346    2.8417    1.0137 H   0  0  0  0  0  0  0  0  0  0  0  0
    0.1080    0.3843    0.4522 H   0  0  0  0  0  0  0  0  0  0  0  0
    0.3979    0.3916   -3.4748 H   0  0  0  0  0  0  0  0  0  0  0  0
    0.7197   -0.8924   -2.2813 H   0  0  0  0  0  0  0  0  0  0  0  0
    2.8505    0.2619   -2.3903 H   0  0  0  0  0  0  0  0  0  0  0  0
    2.0448    1.8612   -2.4696 H   0  0  0  0  0  0  0  0  0  0  0  0
    5.3492    2.5637   -1.2123 H   0  0  0  0  0  0  0  0  0  0  0  0
    7.4259    1.3758   -1.6969 H   0  0  0  0  0  0  0  0  0  0  0  0
    9.9105   -1.2647   -1.5511 H   0  0  0  0  0  0  0  0  0  0  0  0
    9.4388    0.3382   -0.9756 H   0  0  0  0  0  0  0  0  0  0  0  0
    8.8032   -0.3065   -2.5396 H   0  0  0  0  0  0  0  0  0  0  0  0
    5.6868   -3.8277    1.9105 H   0  0  0  0  0  0  0  0  0  0  0  0
    5.1725   -2.2332    2.4750 H   0  0  0  0  0  0  0  0  0  0  0  0
    4.2848   -3.0728    1.1429 H   0  0  0  0  0  0  0  0  0  0  0  0
    3.8929   -0.7932    1.0455 H   0  0  0  0  0  0  0  0  0  0  0  0
   -6.3079   -0.7498    3.4051 H   0  0  0  0  0  0  0  0  0  0  0  0
   -6.8552   -2.9926    2.5427 H   0  0  0  0  0  0  0  0  0  0  0  0
  1  2  1  0
  2  3  1  0
  3  4  2  0
  4  5  1  0
  5  6  2  0
  6  7  1  0
  7  8  1  0
  8  9  1  0
  9 10  2  0
  9 11  1  0
 11 12  2  0
 11 13  1  0
 13 14  1  0
 14 15  1  0
 15 16  1  0
 16 17  1  0
 17 18  1  0
 18 19  1  0
 19 20  1  0
 20 21  2  0
 20 22  2  0
 20 23  1  0
 23 24  2  0
 24 25  1  0
 25 26  2  0
 26 27  1  0
 27 28  1  0
 26 29  1  0
 29 30  1  0
 30 31  1  0
 29 32  2  0
  6 33  1  0
 33 34  2  0
 34  3  1  0
 19 15  1  0
 32 23  1  0
  1 35  1  0
  1 36  1  0
  1 37  1  0
  4 38  1  0
  5 39  1  0
  7 40  1  0
  7 41  1  0
  8 42  1  0
 13 43  1  0
 14 44  1  0
 14 45  1  0
 15 46  1  0
 17 47  1  0
 17 48  1  0
 18 49  1  0
 18 50  1  0
 24 51  1  0
 25 52  1  0
 28 53  1  0
 28 54  1  0
 28 55  1  0
 31 56  1  0
 31 57  1  0
 31 58  1  0
 32 59  1  0
 33 60  1  0
 34 61  1  0
M  END
$$$$
