
     RDKit          3D

 59 62  0  0  0  0  0  0  0  0999 V2000
    5.0206   -0.3131   -2.7295 C   0  0  0  0  0  0  0  0  0  0  0  0
    5.5862   -0.1567   -1.3290 C   0  0  0  0  0  0  0  0  0  0  0  0
    4.8082   -0.9014   -0.3919 O   0  0  0  0  0  0  0  0  0  0  0  0
    3.8391   -0.2515    0.3174 C   0  0  0  0  0  0  0  0  0  0  0  0
    3.2853    0.9889    0.0029 C   0  0  0  0  0  0  0  0  0  0  0  0
    2.2835    1.5475    0.8093 C   0  0  0  0  0  0  0  0  0  0  0  0
    1.8232    0.8670    1.9365 C   0  0  0  0  0  0  0  0  0  0  0  0
    0.8456    1.3025    2.7949 O   0  0  0  0  0  0  0  0  0  0  0  0
    0.3275    2.6237    2.6333 C   0  0  0  0  0  0  0  0  0  0  0  0
   -0.8575    2.6255    1.6837 C   0  0  0  0  0  0  0  0  0  0  0  0
    2.3710   -0.3930    2.2371 C   0  0  0  0  0  0  0  0  0  0  0  0
    1.8640   -1.1187    3.3650 N   0  0  0  0  0  0  0  0  0  0  0  0
    0.9595   -2.5186    3.0697 S   0  0  0  0  0  6  0  0  0  0  0  0
    1.7680   -3.4795    2.3503 O   0  0  0  0  0  0  0  0  0  0  0  0
    0.3266   -2.8675    4.3255 O   0  0  0  0  0  0  0  0  0  0  0  0
   -0.3232   -1.9540    1.9700 C   0  0  0  0  0  0  0  0  0  0  0  0
   -0.1266   -2.0190    0.5820 C   0  0  0  0  0  0  0  0  0  0  0  0
   -1.1159   -1.5568   -0.2963 C   0  0  0  0  0  0  0  0  0  0  0  0
   -2.2976   -1.0536    0.2229 C   0  0  0  0  0  0  0  0  0  0  0  0
   -2.4960   -1.0419    1.6105 C   0  0  0  0  0  0  0  0  0  0  0  0
   -1.5245   -1.4825    2.5001 C   0  0  0  0  0  0  0  0  0  0  0  0
   -3.8318   -0.4769    1.9753 C   0  0  0  0  0  0  0  0  0  0  0  0
   -4.4610   -0.2513    0.6026 C   0  0  0  0  0  0  0  0  0  0  0  0
   -3.4323   -0.5202   -0.4143 N   0  0  0  0  0  0  0  0  0  0  0  0
   -3.7240   -0.2472   -1.7485 C   0  0  0  0  0  0  0  0  0  0  0  0
   -4.8545    0.1764   -2.0426 O   0  0  0  0  0  0  0  0  0  0  0  0
   -2.6425   -0.4457   -2.8373 C   0  0  0  0  0  0  0  0  0  0  0  0
   -1.4647    0.5718   -2.8772 C   0  0  0  0  0  0  0  0  0  0  0  0
   -2.2419    1.3541   -3.9493 C   0  0  0  0  0  0  0  0  0  0  0  0
   -2.9747    0.0450   -4.2802 C   0  0  0  0  0  0  0  0  0  0  0  0
    3.3681   -0.9455    1.4330 C   0  0  0  0  0  0  0  0  0  0  0  0
    3.9986    0.0730   -2.7941 H   0  0  0  0  0  0  0  0  0  0  0  0
    5.6413    0.2164   -3.4580 H   0  0  0  0  0  0  0  0  0  0  0  0
    4.9772   -1.3719   -3.0086 H   0  0  0  0  0  0  0  0  0  0  0  0
    6.5938   -0.5879   -1.3096 H   0  0  0  0  0  0  0  0  0  0  0  0
    5.7032    0.8954   -1.0446 H   0  0  0  0  0  0  0  0  0  0  0  0
    3.6011    1.5465   -0.8740 H   0  0  0  0  0  0  0  0  0  0  0  0
    1.8807    2.5098    0.5127 H   0  0  0  0  0  0  0  0  0  0  0  0
   -0.0217    2.9415    3.6220 H   0  0  0  0  0  0  0  0  0  0  0  0
    1.1002    3.3451    2.3449 H   0  0  0  0  0  0  0  0  0  0  0  0
   -1.6470    1.9673    2.0599 H   0  0  0  0  0  0  0  0  0  0  0  0
   -1.2701    3.6315    1.5766 H   0  0  0  0  0  0  0  0  0  0  0  0
   -0.5819    2.2515    0.6924 H   0  0  0  0  0  0  0  0  0  0  0  0
    1.3826   -0.5253    4.0430 H   0  0  0  0  0  0  0  0  0  0  0  0
    0.8023   -2.4191    0.1765 H   0  0  0  0  0  0  0  0  0  0  0  0
   -0.9113   -1.6283   -1.3535 H   0  0  0  0  0  0  0  0  0  0  0  0
   -1.6958   -1.4525    3.5724 H   0  0  0  0  0  0  0  0  0  0  0  0
   -4.4224   -1.1753    2.5765 H   0  0  0  0  0  0  0  0  0  0  0  0
   -3.7169    0.4684    2.5152 H   0  0  0  0  0  0  0  0  0  0  0  0
   -4.8355    0.7729    0.4940 H   0  0  0  0  0  0  0  0  0  0  0  0
   -5.2999   -0.9375    0.4318 H   0  0  0  0  0  0  0  0  0  0  0  0
   -2.3382   -1.4982   -2.8803 H   0  0  0  0  0  0  0  0  0  0  0  0
   -1.2659    1.1282   -1.9571 H   0  0  0  0  0  0  0  0  0  0  0  0
   -0.5237    0.1410   -3.2393 H   0  0  0  0  0  0  0  0  0  0  0  0
   -1.6398    1.7778   -4.7562 H   0  0  0  0  0  0  0  0  0  0  0  0
   -2.8924    2.1347   -3.5405 H   0  0  0  0  0  0  0  0  0  0  0  0
   -4.0317    0.1500   -4.5370 H   0  0  0  0  0  0  0  0  0  0  0  0
   -2.4860   -0.5448   -5.0662 H   0  0  0  0  0  0  0  0  0  0  0  0
    3.7915   -1.9178    1.6754 H   0  0  0  0  0  0  0  0  0  0  0  0
  1  2  1  0
  2  3  1  0
  3  4  1  0
  4  5  2  0
  5  6  1  0
  6  7  2  0
  7  8  1  0
  8  9  1  0
  9 10  1  0
  7 11  1  0
 11 12  1  0
 12 13  1  0
 13 14  2  0
 13 15  2  0
 13 16  1  0
 16 17  2  0
 17 18  1  0
 18 19  2  0
 19 20  1  0
 20 21  2  0
 20 22  1  0
 22 23  1  0
 23 24  1  0
 24 25  1  0
 25 26  2  0
 25 27  1  0
 27 28  1  0
 28 29  1  0
 29 30  1  0
 11 31  2  0
 31  4  1  0
 21 16  1  0
 30 27  1  0
 24 19  1  0
  1 32  1  0
  1 33  1  0
  1 34  1  0
  2 35  1  0
  2 36  1  0
  5 37  1  0
  6 38  1  0
  9 39  1  0
  9 40  1  0
 10 41  1  0
 10 42  1  0
 10 43  1  0
 12 44  1  0
 17 45  1  0
 18 46  1  0
 21 47  1  0
 22 48  1  0
 22 49  1  0
 23 50  1  0
 23 51  1  0
 27 52  1  0
 28 53  1  0
 28 54  1  0
 29 55  1  0
 29 56  1  0
 30 57  1  0
 30 58  1  0
 31 59  1  0
M  END
$$$$
