
     RDKit          3D

 52 54  0  0  0  0  0  0  0  0999 V2000
   -3.4124    1.8641   -2.6155 C   0  0  0  0  0  0  0  0  0  0  0  0
   -3.3128    0.4704   -2.2025 N   0  0  0  0  0  0  0  0  0  0  0  0
   -4.5753   -0.2549   -2.0487 C   0  0  0  0  0  0  0  0  0  0  0  0
   -5.4125    0.2116   -0.8795 C   0  0  0  0  0  0  0  0  0  0  0  0
   -4.8603    0.3940    0.3976 C   0  0  0  0  0  0  0  0  0  0  0  0
   -5.6608    0.7969    1.4686 C   0  0  0  0  0  0  0  0  0  0  0  0
   -7.0234    1.0147    1.2802 C   0  0  0  0  0  0  0  0  0  0  0  0
   -7.5883    0.8277    0.0210 C   0  0  0  0  0  0  0  0  0  0  0  0
   -6.7895    0.4251   -1.0514 C   0  0  0  0  0  0  0  0  0  0  0  0
   -2.0654   -0.0273   -1.8409 C   0  0  0  0  0  0  0  0  0  0  0  0
   -1.0389    0.6555   -1.9161 O   0  0  0  0  0  0  0  0  0  0  0  0
   -1.9840   -1.4864   -1.3660 C   0  0  0  0  0  0  0  0  0  0  0  0
   -0.6756   -1.8097   -0.8867 O   0  0  0  0  0  0  0  0  0  0  0  0
   -0.4025   -1.3108    0.3562 C   0  0  0  0  0  0  0  0  0  0  0  0
   -1.2232   -0.7524    1.0757 O   0  0  0  0  0  0  0  0  0  0  0  0
    1.0609   -1.4757    0.7157 C   0  0  0  0  0  0  0  0  0  0  0  0
    1.7445   -2.4630   -0.1292 N   0  0  0  0  0  0  0  0  0  0  0  0
    3.2688   -2.9930    0.2857 S   0  0  0  0  0  6  0  0  0  0  0  0
    3.7284   -3.8266   -0.8021 O   0  0  0  0  0  0  0  0  0  0  0  0
    3.2114   -3.4746    1.6479 O   0  0  0  0  0  0  0  0  0  0  0  0
    4.2227   -1.4971    0.2626 C   0  0  0  0  0  0  0  0  0  0  0  0
    4.6061   -0.9531   -0.9640 C   0  0  0  0  0  0  0  0  0  0  0  0
    5.3546    0.2242   -0.9870 C   0  0  0  0  0  0  0  0  0  0  0  0
    5.7320    0.8588    0.2087 C   0  0  0  0  0  0  0  0  0  0  0  0
    6.4834    2.0444    0.1989 C   0  0  0  0  0  0  0  0  0  0  0  0
    6.8566    2.6626    1.3935 C   0  0  0  0  0  0  0  0  0  0  0  0
    6.4848    2.1036    2.6126 C   0  0  0  0  0  0  0  0  0  0  0  0
    5.7377    0.9251    2.6414 C   0  0  0  0  0  0  0  0  0  0  0  0
    5.3523    0.2916    1.4495 C   0  0  0  0  0  0  0  0  0  0  0  0
    4.5997   -0.8921    1.4653 C   0  0  0  0  0  0  0  0  0  0  0  0
   -4.0726    1.9351   -3.4849 H   0  0  0  0  0  0  0  0  0  0  0  0
   -2.4386    2.2802   -2.8865 H   0  0  0  0  0  0  0  0  0  0  0  0
   -3.8255    2.4529   -1.7916 H   0  0  0  0  0  0  0  0  0  0  0  0
   -4.4064   -1.3301   -1.9471 H   0  0  0  0  0  0  0  0  0  0  0  0
   -5.1272   -0.1222   -2.9877 H   0  0  0  0  0  0  0  0  0  0  0  0
   -3.7990    0.2338    0.5768 H   0  0  0  0  0  0  0  0  0  0  0  0
   -5.2166    0.9399    2.4508 H   0  0  0  0  0  0  0  0  0  0  0  0
   -7.6441    1.3281    2.1154 H   0  0  0  0  0  0  0  0  0  0  0  0
   -8.6525    0.9939   -0.1258 H   0  0  0  0  0  0  0  0  0  0  0  0
   -7.2542    0.2804   -2.0245 H   0  0  0  0  0  0  0  0  0  0  0  0
   -2.7291   -1.7047   -0.5950 H   0  0  0  0  0  0  0  0  0  0  0  0
   -2.1779   -2.1331   -2.2280 H   0  0  0  0  0  0  0  0  0  0  0  0
    1.5300   -0.4958    0.5864 H   0  0  0  0  0  0  0  0  0  0  0  0
    1.1109   -1.7863    1.7635 H   0  0  0  0  0  0  0  0  0  0  0  0
    1.5319   -2.4566   -1.1270 H   0  0  0  0  0  0  0  0  0  0  0  0
    4.3324   -1.4374   -1.8987 H   0  0  0  0  0  0  0  0  0  0  0  0
    5.6475    0.6439   -1.9475 H   0  0  0  0  0  0  0  0  0  0  0  0
    6.7864    2.4970   -0.7428 H   0  0  0  0  0  0  0  0  0  0  0  0
    7.4392    3.5801    1.3710 H   0  0  0  0  0  0  0  0  0  0  0  0
    6.7771    2.5838    3.5431 H   0  0  0  0  0  0  0  0  0  0  0  0
    5.4594    0.5039    3.6053 H   0  0  0  0  0  0  0  0  0  0  0  0
    4.3099   -1.3402    2.4140 H   0  0  0  0  0  0  0  0  0  0  0  0
  1  2  1  0
  2  3  1  0
  3  4  1  0
  4  5  2  0
  5  6  1  0
  6  7  2  0
  7  8  1  0
  8  9  2  0
  2 10  1  0
 10 11  2  0
 10 12  1  0
 12 13  1  0
 13 14  1  0
 14 15  2  0
 14 16  1  0
 16 17  1  0
 17 18  1  0
 18 19  2  0
 18 20  2  0
 18 21  1  0
 21 22  2  0
 22 23  1  0
 23 24  2  0
 24 25  1  0
 25 26  2  0
 26 27  1  0
 27 28  2  0
 28 29  1  0
 29 30  2  0
  9  4  1  0
 30 21  1  0
 29 24  1  0
  1 31  1  0
  1 32  1  0
  1 33  1  0
  3 34  1  0
  3 35  1  0
  5 36  1  0
  6 37  1  0
  7 38  1  0
  8 39  1  0
  9 40  1  0
 12 41  1  0
 12 42  1  0
 16 43  1  0
 16 44  1  0
 17 45  1  0
 22 46  1  0
 23 47  1  0
 25 48  1  0
 26 49  1  0
 27 50  1  0
 28 51  1  0
 30 52  1  0
M  END
$$$$
