
     RDKit          3D

 51 55  0  0  0  0  0  0  0  0999 V2000
    8.3835    1.4735    3.1456 F   0  0  0  0  0  0  0  0  0  0  0  0
    7.3724    0.8684    2.5086 C   0  0  0  0  0  0  0  0  0  0  0  0
    6.2891    0.3951    3.2389 C   0  0  0  0  0  0  0  0  0  0  0  0
    5.2345   -0.2347    2.5767 C   0  0  0  0  0  0  0  0  0  0  0  0
    5.2679   -0.3933    1.1826 C   0  0  0  0  0  0  0  0  0  0  0  0
    4.1171   -1.0572    0.4617 C   0  0  0  0  0  0  0  0  0  0  0  0
    3.0230   -0.0419    0.0889 C   0  0  0  0  0  0  0  0  0  0  0  0
    1.9160   -0.6604   -0.6584 N   0  0  0  0  0  0  0  0  0  0  0  0
    1.1365    0.3708   -1.3770 C   0  0  0  0  0  0  0  0  0  0  0  0
   -0.2332   -0.1358   -1.8777 C   0  0  0  0  0  0  0  0  0  0  0  0
   -1.0842   -0.5895   -0.7678 N   0  0  0  0  0  0  0  0  0  0  0  0
   -2.4364   -0.2645   -0.7076 C   0  0  0  0  0  0  0  0  0  0  0  0
   -2.9423    0.0421    0.4630 N   0  0  0  0  0  0  0  0  0  0  0  0
   -4.2918    0.4201    0.5919 C   0  0  0  0  0  0  0  0  0  0  0  0
   -4.7691    0.7514    1.8616 C   0  0  0  0  0  0  0  0  0  0  0  0
   -6.0973    1.1454    2.0449 C   0  0  0  0  0  0  0  0  0  0  0  0
   -6.9640    1.2123    0.9536 C   0  0  0  0  0  0  0  0  0  0  0  0
   -6.5085    0.8852   -0.3241 C   0  0  0  0  0  0  0  0  0  0  0  0
   -5.1767    0.4933   -0.4914 C   0  0  0  0  0  0  0  0  0  0  0  0
   -4.6394    0.1332   -1.7376 N   0  0  0  0  0  0  0  0  0  0  0  0
   -5.2529    0.0766   -2.9667 C   0  0  0  0  0  0  0  0  0  0  0  0
   -4.3429   -0.4073   -3.8800 C   0  0  0  0  0  0  0  0  0  0  0  0
   -3.1335   -0.6357   -3.1834 C   0  0  0  0  0  0  0  0  0  0  0  0
   -3.3224   -0.2562   -1.8651 C   0  0  0  0  0  0  0  0  0  0  0  0
   -0.3646   -0.8962    0.4799 C   0  0  0  0  0  0  0  0  0  0  0  0
    1.0318   -1.4902    0.1933 C   0  0  0  0  0  0  0  0  0  0  0  0
    6.3684    0.0960    0.4624 C   0  0  0  0  0  0  0  0  0  0  0  0
    7.4215    0.7253    1.1273 C   0  0  0  0  0  0  0  0  0  0  0  0
    6.2728    0.5195    4.3168 H   0  0  0  0  0  0  0  0  0  0  0  0
    4.3883   -0.6022    3.1531 H   0  0  0  0  0  0  0  0  0  0  0  0
    3.7205   -1.8583    1.0965 H   0  0  0  0  0  0  0  0  0  0  0  0
    4.4934   -1.5516   -0.4435 H   0  0  0  0  0  0  0  0  0  0  0  0
    3.4913    0.7298   -0.5376 H   0  0  0  0  0  0  0  0  0  0  0  0
    2.6468    0.4727    0.9833 H   0  0  0  0  0  0  0  0  0  0  0  0
    0.9665    1.2420   -0.7291 H   0  0  0  0  0  0  0  0  0  0  0  0
    1.7193    0.7166   -2.2388 H   0  0  0  0  0  0  0  0  0  0  0  0
   -0.0844   -0.9663   -2.5773 H   0  0  0  0  0  0  0  0  0  0  0  0
   -0.7107    0.6860   -2.4234 H   0  0  0  0  0  0  0  0  0  0  0  0
   -4.0955    0.7022    2.7130 H   0  0  0  0  0  0  0  0  0  0  0  0
   -6.4529    1.3999    3.0400 H   0  0  0  0  0  0  0  0  0  0  0  0
   -7.9970    1.5187    1.1006 H   0  0  0  0  0  0  0  0  0  0  0  0
   -7.2020    0.9417   -1.1563 H   0  0  0  0  0  0  0  0  0  0  0  0
   -6.2861    0.3608   -3.1020 H   0  0  0  0  0  0  0  0  0  0  0  0
   -4.5345   -0.5878   -4.9300 H   0  0  0  0  0  0  0  0  0  0  0  0
   -2.2247   -1.0396   -3.6067 H   0  0  0  0  0  0  0  0  0  0  0  0
   -0.2629    0.0123    1.0867 H   0  0  0  0  0  0  0  0  0  0  0  0
   -0.9352   -1.6283    1.0642 H   0  0  0  0  0  0  0  0  0  0  0  0
    0.8935   -2.4429   -0.3341 H   0  0  0  0  0  0  0  0  0  0  0  0
    1.5036   -1.7435    1.1493 H   0  0  0  0  0  0  0  0  0  0  0  0
    6.4103   -0.0118   -0.6194 H   0  0  0  0  0  0  0  0  0  0  0  0
    8.2774    1.1041    0.5781 H   0  0  0  0  0  0  0  0  0  0  0  0
  1  2  1  0
  2  3  2  0
  3  4  1  0
  4  5  2  0
  5  6  1  0
  6  7  1  0
  7  8  1  0
  8  9  1  0
  9 10  1  0
 10 11  1  0
 11 12  1  0
 12 13  2  0
 13 14  1  0
 14 15  2  0
 15 16  1  0
 16 17  2  0
 17 18  1  0
 18 19  2  0
 19 20  1  0
 20 21  1  0
 21 22  2  0
 22 23  1  0
 23 24  2  0
 11 25  1  0
 25 26  1  0
  5 27  1  0
 27 28  2  0
 28  2  1  0
 26  8  1  0
 24 12  1  0
 19 14  1  0
 24 20  1  0
  3 29  1  0
  4 30  1  0
  6 31  1  0
  6 32  1  0
  7 33  1  0
  7 34  1  0
  9 35  1  0
  9 36  1  0
 10 37  1  0
 10 38  1  0
 15 39  1  0
 16 40  1  0
 17 41  1  0
 18 42  1  0
 21 43  1  0
 22 44  1  0
 23 45  1  0
 25 46  1  0
 25 47  1  0
 26 48  1  0
 26 49  1  0
 27 50  1  0
 28 51  1  0
M  END
$$$$
