
     RDKit          3D

 59 62  0  0  0  0  0  0  0  0999 V2000
    8.1113   -0.2217    2.8244 C   0  0  0  0  0  0  0  0  0  0  0  0
    7.4669   -0.1438    1.5580 O   0  0  0  0  0  0  0  0  0  0  0  0
    6.1011   -0.0754    1.5591 C   0  0  0  0  0  0  0  0  0  0  0  0
    5.2798   -0.0976    2.6885 C   0  0  0  0  0  0  0  0  0  0  0  0
    3.8887   -0.0169    2.5521 C   0  0  0  0  0  0  0  0  0  0  0  0
    3.3138    0.0891    1.2854 C   0  0  0  0  0  0  0  0  0  0  0  0
    1.8674    0.1945    1.1073 C   0  0  0  0  0  0  0  0  0  0  0  0
    1.3204    0.2833   -0.1170 C   0  0  0  0  0  0  0  0  0  0  0  0
   -0.1505    0.4553   -0.3650 C   0  0  0  0  0  0  0  0  0  0  0  0
   -0.9501   -0.7913   -0.2564 N   0  0  0  0  0  0  0  0  0  0  0  0
   -0.4330   -1.9886   -0.9718 C   0  0  0  0  0  0  0  0  0  0  0  0
   -1.4605   -2.5601   -1.9678 C   0  0  0  0  0  0  0  0  0  0  0  0
   -1.8828   -1.5846   -3.0579 C   0  0  0  0  0  0  0  0  0  0  0  0
   -0.8564   -1.8235   -4.1341 C   0  0  0  0  0  0  0  0  0  0  0  0
   -0.6287   -3.3146   -4.0255 C   0  0  0  0  0  0  0  0  0  0  0  0
   -0.8481   -3.6751   -2.6558 O   0  0  0  0  0  0  0  0  0  0  0  0
   -1.8257   -1.0685    1.1654 S   0  0  0  0  0  6  0  0  0  0  0  0
   -2.6290   -2.2596    0.9977 O   0  0  0  0  0  0  0  0  0  0  0  0
   -0.9260   -0.9202    2.2895 O   0  0  0  0  0  0  0  0  0  0  0  0
   -2.9616    0.3046    1.1828 C   0  0  0  0  0  0  0  0  0  0  0  0
   -3.9104    0.4146    0.1601 C   0  0  0  0  0  0  0  0  0  0  0  0
   -4.7980    1.4956    0.1536 C   0  0  0  0  0  0  0  0  0  0  0  0
   -4.7424    2.4592    1.1733 C   0  0  0  0  0  0  0  0  0  0  0  0
   -5.6601    3.6380    1.2067 C   0  0  0  0  0  0  0  0  0  0  0  0
   -6.7809    3.7217    0.2035 C   0  0  0  0  0  0  0  0  0  0  0  0
   -5.4774    4.5281    2.0370 O   0  0  0  0  0  0  0  0  0  0  0  0
   -3.7909    2.3289    2.1984 C   0  0  0  0  0  0  0  0  0  0  0  0
   -2.9016    1.2514    2.2090 C   0  0  0  0  0  0  0  0  0  0  0  0
    2.2122    0.3293   -1.3194 C   0  0  0  0  0  0  0  0  0  0  0  0
    1.7582    0.4501   -2.4540 O   0  0  0  0  0  0  0  0  0  0  0  0
    3.5603    0.2282   -1.1073 N   0  0  0  0  0  0  0  0  0  0  0  0
    4.1400    0.1104    0.1587 C   0  0  0  0  0  0  0  0  0  0  0  0
    5.5239    0.0240    0.2907 C   0  0  0  0  0  0  0  0  0  0  0  0
    7.8277   -1.1360    3.3554 H   0  0  0  0  0  0  0  0  0  0  0  0
    7.9036    0.6686    3.4271 H   0  0  0  0  0  0  0  0  0  0  0  0
    9.1910   -0.2590    2.6483 H   0  0  0  0  0  0  0  0  0  0  0  0
    5.6881   -0.1728    3.6920 H   0  0  0  0  0  0  0  0  0  0  0  0
    3.2639   -0.0363    3.4433 H   0  0  0  0  0  0  0  0  0  0  0  0
    1.2535    0.2020    2.0038 H   0  0  0  0  0  0  0  0  0  0  0  0
   -0.5294    1.2085    0.3327 H   0  0  0  0  0  0  0  0  0  0  0  0
   -0.3480    0.8897   -1.3505 H   0  0  0  0  0  0  0  0  0  0  0  0
   -0.1463   -2.7633   -0.2476 H   0  0  0  0  0  0  0  0  0  0  0  0
    0.4916   -1.7707   -1.5130 H   0  0  0  0  0  0  0  0  0  0  0  0
   -2.3404   -2.9349   -1.4358 H   0  0  0  0  0  0  0  0  0  0  0  0
   -2.8707   -1.8744   -3.4367 H   0  0  0  0  0  0  0  0  0  0  0  0
   -1.9454   -0.5408   -2.7409 H   0  0  0  0  0  0  0  0  0  0  0  0
    0.0667   -1.2809   -3.8997 H   0  0  0  0  0  0  0  0  0  0  0  0
   -1.1873   -1.5149   -5.1284 H   0  0  0  0  0  0  0  0  0  0  0  0
   -1.3483   -3.8719   -4.6351 H   0  0  0  0  0  0  0  0  0  0  0  0
    0.3811   -3.6078   -4.3246 H   0  0  0  0  0  0  0  0  0  0  0  0
   -3.9610   -0.3360   -0.6287 H   0  0  0  0  0  0  0  0  0  0  0  0
   -5.5186    1.5643   -0.6589 H   0  0  0  0  0  0  0  0  0  0  0  0
   -7.3565    2.7925    0.1908 H   0  0  0  0  0  0  0  0  0  0  0  0
   -6.3792    3.9415   -0.7899 H   0  0  0  0  0  0  0  0  0  0  0  0
   -7.4634    4.5305    0.4924 H   0  0  0  0  0  0  0  0  0  0  0  0
   -3.7402    3.0695    2.9976 H   0  0  0  0  0  0  0  0  0  0  0  0
   -2.1745    1.1632    3.0152 H   0  0  0  0  0  0  0  0  0  0  0  0
    4.1445    0.2634   -1.9310 H   0  0  0  0  0  0  0  0  0  0  0  0
    6.1679    0.0410   -0.5846 H   0  0  0  0  0  0  0  0  0  0  0  0
  1  2  1  0
  2  3  1  0
  3  4  2  0
  4  5  1  0
  5  6  2  0
  6  7  1  0
  7  8  2  0
  8  9  1  0
  9 10  1  0
 10 11  1  0
 11 12  1  0
 12 13  1  0
 13 14  1  0
 14 15  1  0
 15 16  1  0
 10 17  1  0
 17 18  2  0
 17 19  2  0
 17 20  1  0
 20 21  2  0
 21 22  1  0
 22 23  2  0
 23 24  1  0
 24 25  1  0
 24 26  2  0
 23 27  1  0
 27 28  2  0
  8 29  1  0
 29 30  2  0
 29 31  1  0
 31 32  1  0
 32 33  2  0
 33  3  1  0
 32  6  1  0
 16 12  1  0
 28 20  1  0
  1 34  1  0
  1 35  1  0
  1 36  1  0
  4 37  1  0
  5 38  1  0
  7 39  1  0
  9 40  1  0
  9 41  1  0
 11 42  1  0
 11 43  1  0
 12 44  1  0
 13 45  1  0
 13 46  1  0
 14 47  1  0
 14 48  1  0
 15 49  1  0
 15 50  1  0
 21 51  1  0
 22 52  1  0
 25 53  1  0
 25 54  1  0
 25 55  1  0
 27 56  1  0
 28 57  1  0
 31 58  1  0
 33 59  1  0
M  END
$$$$
