
     RDKit          3D

 53 56  0  0  0  0  0  0  0  0999 V2000
   -8.4247    2.7059   -1.0365 C   0  0  0  0  0  0  0  0  0  0  0  0
   -7.1042    2.0622   -0.7332 C   0  0  0  0  0  0  0  0  0  0  0  0
   -7.0394    0.7787   -0.1819 C   0  0  0  0  0  0  0  0  0  0  0  0
   -5.8038    0.1733    0.0806 C   0  0  0  0  0  0  0  0  0  0  0  0
   -4.6108    0.8469   -0.2032 C   0  0  0  0  0  0  0  0  0  0  0  0
   -3.3272    0.2680    0.0426 N   0  0  0  0  0  0  0  0  0  0  0  0
   -2.2503    0.7705   -0.6215 N   0  0  0  0  0  0  0  0  0  0  0  0
   -1.2513   -0.0721   -0.3516 C   0  0  0  0  0  0  0  0  0  0  0  0
    0.1053   -0.0024   -0.8769 C   0  0  0  0  0  0  0  0  0  0  0  0
    0.4914    0.8439   -1.6824 O   0  0  0  0  0  0  0  0  0  0  0  0
    0.9341   -1.0231   -0.3733 N   0  0  0  0  0  0  0  0  0  0  0  0
    2.3350   -1.0120   -0.7587 C   0  0  0  0  0  0  0  0  0  0  0  0
    3.1151    0.0241    0.0555 C   0  0  0  0  0  0  0  0  0  0  0  0
    2.7328    0.4911    1.1264 O   0  0  0  0  0  0  0  0  0  0  0  0
    4.3364    0.3591   -0.5037 N   0  0  0  0  0  0  0  0  0  0  0  0
    5.1803    1.3651    0.1157 C   0  0  0  0  0  0  0  0  0  0  0  0
    6.5462    1.5083   -0.5588 C   0  0  0  0  0  0  0  0  0  0  0  0
    7.3647    0.2507   -0.4726 C   0  0  0  0  0  0  0  0  0  0  0  0
    7.9983   -0.2818    0.6331 C   0  0  0  0  0  0  0  0  0  0  0  0
    8.6749   -1.4995    0.3355 C   0  0  0  0  0  0  0  0  0  0  0  0
    8.5450   -1.8513   -0.9896 C   0  0  0  0  0  0  0  0  0  0  0  0
    7.6075   -0.7210   -1.8642 S   0  0  0  0  0  0  0  0  0  0  0  0
    0.5350   -2.0301    0.5120 N   0  0  0  0  0  0  0  0  0  0  0  0
   -0.6848   -2.0701    0.9715 C   0  0  0  0  0  0  0  0  0  0  0  0
   -1.0501   -3.1697    1.9277 C   0  0  0  0  0  0  0  0  0  0  0  0
   -1.6354   -1.0689    0.5517 C   0  0  0  0  0  0  0  0  0  0  0  0
   -2.9510   -0.7876    0.8819 C   0  0  0  0  0  0  0  0  0  0  0  0
   -3.8140   -1.3784    1.9372 C   0  0  0  0  0  0  0  0  0  0  0  0
   -4.6787    2.1169   -0.7984 C   0  0  0  0  0  0  0  0  0  0  0  0
   -5.9136    2.7204   -1.0540 C   0  0  0  0  0  0  0  0  0  0  0  0
   -8.4168    3.7579   -0.7302 H   0  0  0  0  0  0  0  0  0  0  0  0
   -9.2399    2.2139   -0.4954 H   0  0  0  0  0  0  0  0  0  0  0  0
   -8.6338    2.6458   -2.1096 H   0  0  0  0  0  0  0  0  0  0  0  0
   -7.9545    0.2312    0.0366 H   0  0  0  0  0  0  0  0  0  0  0  0
   -5.8203   -0.8423    0.4575 H   0  0  0  0  0  0  0  0  0  0  0  0
    2.7720   -2.0010   -0.5823 H   0  0  0  0  0  0  0  0  0  0  0  0
    2.4139   -0.7752   -1.8257 H   0  0  0  0  0  0  0  0  0  0  0  0
    4.5288    0.0897   -1.4610 H   0  0  0  0  0  0  0  0  0  0  0  0
    4.6425    2.3186    0.0601 H   0  0  0  0  0  0  0  0  0  0  0  0
    5.2905    1.1148    1.1779 H   0  0  0  0  0  0  0  0  0  0  0  0
    6.4081    1.8080   -1.6060 H   0  0  0  0  0  0  0  0  0  0  0  0
    7.1002    2.3220   -0.0727 H   0  0  0  0  0  0  0  0  0  0  0  0
    7.9727    0.1764    1.6158 H   0  0  0  0  0  0  0  0  0  0  0  0
    9.2290   -2.0871    1.0568 H   0  0  0  0  0  0  0  0  0  0  0  0
    8.9562   -2.7192   -1.4882 H   0  0  0  0  0  0  0  0  0  0  0  0
   -1.1570   -2.7560    2.9339 H   0  0  0  0  0  0  0  0  0  0  0  0
   -1.9856   -3.6445    1.6220 H   0  0  0  0  0  0  0  0  0  0  0  0
   -0.2648   -3.9312    1.9493 H   0  0  0  0  0  0  0  0  0  0  0  0
   -4.3571   -2.2480    1.5544 H   0  0  0  0  0  0  0  0  0  0  0  0
   -4.5238   -0.6520    2.3431 H   0  0  0  0  0  0  0  0  0  0  0  0
   -3.2152   -1.7066    2.7917 H   0  0  0  0  0  0  0  0  0  0  0  0
   -3.7721    2.6604   -1.0606 H   0  0  0  0  0  0  0  0  0  0  0  0
   -5.9357    3.7072   -1.5104 H   0  0  0  0  0  0  0  0  0  0  0  0
  1  2  1  0
  2  3  2  0
  3  4  1  0
  4  5  2  0
  5  6  1  0
  6  7  1  0
  7  8  2  0
  8  9  1  0
  9 10  2  0
  9 11  1  0
 11 12  1  0
 12 13  1  0
 13 14  2  0
 13 15  1  0
 15 16  1  0
 16 17  1  0
 17 18  1  0
 18 19  2  0
 19 20  1  0
 20 21  2  0
 21 22  1  0
 11 23  1  0
 23 24  2  0
 24 25  1  0
 24 26  1  0
 26 27  2  0
 27 28  1  0
  5 29  1  0
 29 30  2  0
 30  2  1  0
 27  6  1  0
 26  8  1  0
 22 18  1  0
  1 31  1  0
  1 32  1  0
  1 33  1  0
  3 34  1  0
  4 35  1  0
 12 36  1  0
 12 37  1  0
 15 38  1  0
 16 39  1  0
 16 40  1  0
 17 41  1  0
 17 42  1  0
 19 43  1  0
 20 44  1  0
 21 45  1  0
 25 46  1  0
 25 47  1  0
 25 48  1  0
 28 49  1  0
 28 50  1  0
 28 51  1  0
 29 52  1  0
 30 53  1  0
M  END
$$$$
