
     RDKit          3D

 39 41  0  0  0  0  0  0  0  0999 V2000
    2.6530   -1.2875   -2.2622 O   0  0  0  0  0  0  0  0  0  0  0  0
    2.8851   -1.0070   -1.0971 C   0  0  0  0  0  0  0  0  0  0  0  0
    2.2839   -1.5431   -0.0084 O   0  0  0  0  0  0  0  0  0  0  0  0
    1.2438   -2.4919   -0.2742 C   0  0  0  0  0  0  0  0  0  0  0  0
   -0.0916   -1.8142   -0.1148 C   0  0  0  0  0  0  0  0  0  0  0  0
   -0.7106   -1.7383    1.1378 C   0  0  0  0  0  0  0  0  0  0  0  0
   -1.9402   -1.0874    1.2831 C   0  0  0  0  0  0  0  0  0  0  0  0
   -2.5794   -0.4896    0.1853 C   0  0  0  0  0  0  0  0  0  0  0  0
   -3.8740    0.1945    0.3402 C   0  0  0  0  0  0  0  0  0  0  0  0
   -4.9739   -0.1472   -0.4643 C   0  0  0  0  0  0  0  0  0  0  0  0
   -6.2036    0.5007   -0.3178 C   0  0  0  0  0  0  0  0  0  0  0  0
   -6.3538    1.5037    0.6363 C   0  0  0  0  0  0  0  0  0  0  0  0
   -5.2762    1.8588    1.4437 C   0  0  0  0  0  0  0  0  0  0  0  0
   -4.0476    1.2089    1.2966 C   0  0  0  0  0  0  0  0  0  0  0  0
   -1.9437   -0.5612   -1.0641 C   0  0  0  0  0  0  0  0  0  0  0  0
   -0.7143   -1.2107   -1.2132 C   0  0  0  0  0  0  0  0  0  0  0  0
    3.9076   -0.0077   -0.6845 C   0  0  0  0  0  0  0  0  0  0  0  0
    4.7363    0.5374   -1.6770 C   0  0  0  0  0  0  0  0  0  0  0  0
    5.7107    1.4796   -1.3422 C   0  0  0  0  0  0  0  0  0  0  0  0
    5.8590    1.8829   -0.0165 C   0  0  0  0  0  0  0  0  0  0  0  0
    5.0332    1.3459    0.9653 C   0  0  0  0  0  0  0  0  0  0  0  0
    5.2139    1.7764    2.2468 O   0  0  0  0  0  0  0  0  0  0  0  0
    4.0577    0.4046    0.6474 C   0  0  0  0  0  0  0  0  0  0  0  0
    1.3419   -3.3002    0.4598 H   0  0  0  0  0  0  0  0  0  0  0  0
    1.3354   -2.9667   -1.2587 H   0  0  0  0  0  0  0  0  0  0  0  0
   -0.2417   -2.1860    2.0111 H   0  0  0  0  0  0  0  0  0  0  0  0
   -2.4059   -1.0578    2.2663 H   0  0  0  0  0  0  0  0  0  0  0  0
   -4.8811   -0.9354   -1.2089 H   0  0  0  0  0  0  0  0  0  0  0  0
   -7.0428    0.2192   -0.9484 H   0  0  0  0  0  0  0  0  0  0  0  0
   -7.3094    2.0086    0.7500 H   0  0  0  0  0  0  0  0  0  0  0  0
   -5.3885    2.6439    2.1867 H   0  0  0  0  0  0  0  0  0  0  0  0
   -3.2152    1.5104    1.9291 H   0  0  0  0  0  0  0  0  0  0  0  0
   -2.3981   -0.0936   -1.9356 H   0  0  0  0  0  0  0  0  0  0  0  0
   -0.2414   -1.2357   -2.1940 H   0  0  0  0  0  0  0  0  0  0  0  0
    4.6255    0.2293   -2.7153 H   0  0  0  0  0  0  0  0  0  0  0  0
    6.3516    1.8991   -2.1135 H   0  0  0  0  0  0  0  0  0  0  0  0
    6.6146    2.6168    0.2511 H   0  0  0  0  0  0  0  0  0  0  0  0
    4.5626    1.3416    2.8217 H   0  0  0  0  0  0  0  0  0  0  0  0
    3.4172   -0.0012    1.4238 H   0  0  0  0  0  0  0  0  0  0  0  0
  1  2  2  0
  2  3  1  0
  3  4  1  0
  4  5  1  0
  5  6  2  0
  6  7  1  0
  7  8  2  0
  8  9  1  0
  9 10  2  0
 10 11  1  0
 11 12  2  0
 12 13  1  0
 13 14  2  0
  8 15  1  0
 15 16  2  0
  2 17  1  0
 17 18  2  0
 18 19  1  0
 19 20  2  0
 20 21  1  0
 21 22  1  0
 21 23  2  0
 16  5  1  0
 23 17  1  0
 14  9  1  0
  4 24  1  0
  4 25  1  0
  6 26  1  0
  7 27  1  0
 10 28  1  0
 11 29  1  0
 12 30  1  0
 13 31  1  0
 14 32  1  0
 15 33  1  0
 16 34  1  0
 18 35  1  0
 19 36  1  0
 20 37  1  0
 22 38  1  0
 23 39  1  0
M  END
$$$$
