
     RDKit          3D

 59 61  0  0  0  0  0  0  0  0999 V2000
   -6.2814    2.4117    0.2500 C   0  0  0  0  0  0  0  0  0  0  0  0
   -6.2560    1.1447   -0.1893 C   0  0  0  0  0  0  0  0  0  0  0  0
   -5.5045   -0.0587    0.3950 C   0  0  0  0  0  0  0  0  0  0  0  0
   -6.5241   -1.1993    0.6521 C   0  0  0  0  0  0  0  0  0  0  0  0
   -4.9347    0.2794    1.8018 C   0  0  0  0  0  0  0  0  0  0  0  0
   -4.4093   -0.5294   -0.6021 C   0  0  0  0  0  0  0  0  0  0  0  0
   -3.0374   -0.4502   -0.2717 C   0  0  0  0  0  0  0  0  0  0  0  0
   -2.0138   -0.8599   -1.1513 C   0  0  0  0  0  0  0  0  0  0  0  0
   -0.5492   -0.7823   -0.7509 C   0  0  2  0  0  0  0  0  0  0  0  0
   -0.0991   -2.0997   -0.1347 C   0  0  0  0  0  0  0  0  0  0  0  0
    1.3540   -1.9795    0.2224 C   0  0  0  0  0  0  0  0  0  0  0  0
    2.1209   -2.9406    0.2348 O   0  0  0  0  0  0  0  0  0  0  0  0
    1.8361   -0.6484    0.6411 C   0  0  0  0  0  0  0  0  0  0  0  0
    0.9350    0.4130    0.6123 C   0  0  0  0  0  0  0  0  0  0  0  0
    1.3315    1.6666    1.0641 C   0  0  0  0  0  0  0  0  0  0  0  0
    2.6388    1.8687    1.5111 C   0  0  0  0  0  0  0  0  0  0  0  0
    2.9239    3.1471    1.9041 O   0  0  0  0  0  0  0  0  0  0  0  0
    3.5745    0.8206    1.5420 C   0  0  0  0  0  0  0  0  0  0  0  0
    5.0006    1.0194    2.0106 C   0  0  0  0  0  0  0  0  0  0  0  0
    5.8888    1.5703    0.9242 C   0  0  0  0  0  0  0  0  0  0  0  0
    6.9568    0.9845    0.3459 C   0  0  0  0  0  0  0  0  0  0  0  0
    7.4802   -0.3885    0.6687 C   0  0  0  0  0  0  0  0  0  0  0  0
    7.7304    1.6968   -0.7338 C   0  0  0  0  0  0  0  0  0  0  0  0
    3.1491   -0.4461    1.0971 C   0  0  0  0  0  0  0  0  0  0  0  0
    4.0551   -1.4782    1.1368 O   0  0  0  0  0  0  0  0  0  0  0  0
   -0.3600    0.2984    0.1820 O   0  0  0  0  0  0  0  0  0  0  0  0
   -2.3804   -1.3785   -2.3929 C   0  0  0  0  0  0  0  0  0  0  0  0
   -1.3982   -1.8093   -3.2400 O   0  0  0  0  0  0  0  0  0  0  0  0
   -3.7166   -1.4648   -2.7663 C   0  0  0  0  0  0  0  0  0  0  0  0
   -4.7129   -1.0384   -1.8807 C   0  0  0  0  0  0  0  0  0  0  0  0
   -6.0160   -1.1212   -2.2919 O   0  0  0  0  0  0  0  0  0  0  0  0
   -6.8663    3.1605   -0.2761 H   0  0  0  0  0  0  0  0  0  0  0  0
   -5.7300    2.7463    1.1211 H   0  0  0  0  0  0  0  0  0  0  0  0
   -6.8484    0.9281   -1.0790 H   0  0  0  0  0  0  0  0  0  0  0  0
   -7.1337   -1.4430   -0.2227 H   0  0  0  0  0  0  0  0  0  0  0  0
   -7.2308   -0.9266    1.4461 H   0  0  0  0  0  0  0  0  0  0  0  0
   -6.0153   -2.1194    0.9636 H   0  0  0  0  0  0  0  0  0  0  0  0
   -4.2139    1.1051    1.7748 H   0  0  0  0  0  0  0  0  0  0  0  0
   -4.4316   -0.5881    2.2471 H   0  0  0  0  0  0  0  0  0  0  0  0
   -5.7320    0.5750    2.4957 H   0  0  0  0  0  0  0  0  0  0  0  0
   -2.7302   -0.0574    0.6942 H   0  0  0  0  0  0  0  0  0  0  0  0
    0.0453   -0.5375   -1.6430 H   0  0  0  0  0  0  0  0  0  0  0  0
   -0.6518   -2.3345    0.7828 H   0  0  0  0  0  0  0  0  0  0  0  0
   -0.2205   -2.9264   -0.8432 H   0  0  0  0  0  0  0  0  0  0  0  0
    0.6293    2.4965    1.0542 H   0  0  0  0  0  0  0  0  0  0  0  0
    3.8659    3.2310    2.1153 H   0  0  0  0  0  0  0  0  0  0  0  0
    5.0124    1.7161    2.8584 H   0  0  0  0  0  0  0  0  0  0  0  0
    5.3901    0.0932    2.4423 H   0  0  0  0  0  0  0  0  0  0  0  0
    5.6141    2.5673    0.5813 H   0  0  0  0  0  0  0  0  0  0  0  0
    6.8985   -0.9148    1.4272 H   0  0  0  0  0  0  0  0  0  0  0  0
    8.5095   -0.3197    1.0355 H   0  0  0  0  0  0  0  0  0  0  0  0
    7.4762   -1.0125   -0.2317 H   0  0  0  0  0  0  0  0  0  0  0  0
    8.7726    1.8321   -0.4263 H   0  0  0  0  0  0  0  0  0  0  0  0
    7.3188    2.6868   -0.9580 H   0  0  0  0  0  0  0  0  0  0  0  0
    7.7134    1.1131   -1.6604 H   0  0  0  0  0  0  0  0  0  0  0  0
    3.6162   -2.2941    0.8042 H   0  0  0  0  0  0  0  0  0  0  0  0
   -1.8029   -2.1187   -4.0676 H   0  0  0  0  0  0  0  0  0  0  0  0
   -3.9849   -1.8621   -3.7389 H   0  0  0  0  0  0  0  0  0  0  0  0
   -6.0517   -1.4446   -3.2058 H   0  0  0  0  0  0  0  0  0  0  0  0
  1  2  2  0
  2  3  1  0
  3  4  1  0
  3  5  1  0
  3  6  1  0
  6  7  2  0
  7  8  1  0
  8  9  1  0
  9 10  1  0
 10 11  1  0
 11 12  2  0
 11 13  1  0
 13 14  2  0
 14 15  1  0
 15 16  2  0
 16 17  1  0
 16 18  1  0
 18 19  1  0
 19 20  1  0
 20 21  2  3
 21 22  1  0
 21 23  1  0
 18 24  2  0
 24 25  1  0
 14 26  1  0
  8 27  2  0
 27 28  1  0
 27 29  1  0
 29 30  2  0
 30 31  1  0
 30  6  1  0
 26  9  1  0
 24 13  1  0
  1 32  1  0
  1 33  1  0
  2 34  1  0
  4 35  1  0
  4 36  1  0
  4 37  1  0
  5 38  1  0
  5 39  1  0
  5 40  1  0
  7 41  1  0
  9 42  1  6
 10 43  1  0
 10 44  1  0
 15 45  1  0
 17 46  1  0
 19 47  1  0
 19 48  1  0
 20 49  1  0
 22 50  1  0
 22 51  1  0
 22 52  1  0
 23 53  1  0
 23 54  1  0
 23 55  1  0
 25 56  1  0
 28 57  1  0
 29 58  1  0
 31 59  1  0
M  END
$$$$
