
     RDKit          3D

 37 39  0  0  0  0  0  0  0  0999 V2000
   -3.9360   -2.1020    0.6944 O   0  0  0  0  0  0  0  0  0  0  0  0
   -4.2901   -0.9524    0.4513 C   0  0  0  0  0  0  0  0  0  0  0  0
   -3.4114    0.1035    0.2422 N   0  0  0  0  0  0  0  0  0  0  0  0
   -2.0016    0.0655    0.2064 C   0  0  0  0  0  0  0  0  0  0  0  0
   -1.2406   -1.0978    0.3058 C   0  0  0  0  0  0  0  0  0  0  0  0
    0.1614   -1.0457    0.2549 C   0  0  0  0  0  0  0  0  0  0  0  0
    0.8249    0.1698    0.1017 C   0  0  0  0  0  0  0  0  0  0  0  0
    2.2270    0.3088    0.0395 N   0  0  0  0  0  0  0  0  0  0  0  0
    3.1795   -0.6841    0.1551 C   0  0  0  0  0  0  0  0  0  0  0  0
    2.9644   -1.8809    0.3135 O   0  0  0  0  0  0  0  0  0  0  0  0
    4.6048   -0.2544    0.0154 C   0  0  0  0  0  0  0  0  0  0  0  0
    5.4714   -1.1817   -0.5946 C   0  0  0  0  0  0  0  0  0  0  0  0
    6.8241   -0.8871   -0.7802 C   0  0  0  0  0  0  0  0  0  0  0  0
    7.3253    0.3364   -0.3502 C   0  0  0  0  0  0  0  0  0  0  0  0
    8.9892    0.7061   -0.5768 Cl  0  0  0  0  0  0  0  0  0  0  0  0
    6.4884    1.2631    0.2674 C   0  0  0  0  0  0  0  0  0  0  0  0
    5.1306    0.9703    0.4557 C   0  0  0  0  0  0  0  0  0  0  0  0
    4.1948    2.1744    1.2715 Cl  0  0  0  0  0  0  0  0  0  0  0  0
    0.0626    1.3374   -0.0016 C   0  0  0  0  0  0  0  0  0  0  0  0
   -1.3356    1.2858    0.0495 C   0  0  0  0  0  0  0  0  0  0  0  0
   -5.7010   -0.5634    0.3746 C   0  0  0  0  0  0  0  0  0  0  0  0
   -6.3013    0.5288   -0.2320 C   0  0  0  0  0  0  0  0  0  0  0  0
   -7.7189    0.5396   -0.0689 C   0  0  0  0  0  0  0  0  0  0  0  0
   -8.1627   -0.5467    0.6482 C   0  0  0  0  0  0  0  0  0  0  0  0
   -6.8806   -1.5746    1.1122 S   0  0  0  0  0  0  0  0  0  0  0  0
   -3.8228    1.0212    0.1617 H   0  0  0  0  0  0  0  0  0  0  0  0
   -1.6973   -2.0760    0.4221 H   0  0  0  0  0  0  0  0  0  0  0  0
    0.6998   -1.9849    0.3384 H   0  0  0  0  0  0  0  0  0  0  0  0
    2.5656    1.2575   -0.0670 H   0  0  0  0  0  0  0  0  0  0  0  0
    5.0894   -2.1459   -0.9311 H   0  0  0  0  0  0  0  0  0  0  0  0
    7.4748   -1.6175   -1.2556 H   0  0  0  0  0  0  0  0  0  0  0  0
    6.8968    2.2111    0.6106 H   0  0  0  0  0  0  0  0  0  0  0  0
    0.5419    2.3058   -0.1202 H   0  0  0  0  0  0  0  0  0  0  0  0
   -1.8896    2.2171   -0.0327 H   0  0  0  0  0  0  0  0  0  0  0  0
   -5.7663    1.2866   -0.7902 H   0  0  0  0  0  0  0  0  0  0  0  0
   -8.3800    1.3008   -0.4656 H   0  0  0  0  0  0  0  0  0  0  0  0
   -9.1808   -0.7946    0.9165 H   0  0  0  0  0  0  0  0  0  0  0  0
  1  2  2  0
  2  3  1  0
  3  4  1  0
  4  5  2  0
  5  6  1  0
  6  7  2  0
  7  8  1  0
  8  9  1  0
  9 10  2  0
  9 11  1  0
 11 12  2  0
 12 13  1  0
 13 14  2  0
 14 15  1  0
 14 16  1  0
 16 17  2  0
 17 18  1  0
  7 19  1  0
 19 20  2  0
  2 21  1  0
 21 22  2  0
 22 23  1  0
 23 24  2  0
 24 25  1  0
 20  4  1  0
 25 21  1  0
 17 11  1  0
  3 26  1  0
  5 27  1  0
  6 28  1  0
  8 29  1  0
 12 30  1  0
 13 31  1  0
 16 32  1  0
 19 33  1  0
 20 34  1  0
 22 35  1  0
 23 36  1  0
 24 37  1  0
M  END
$$$$
