
     RDKit          3D

 58 60  0  0  0  0  0  0  0  0999 V2000
    4.5672   -1.5961   -5.0173 C   0  0  0  0  0  0  0  0  0  0  0  0
    4.8788   -1.4744   -3.5547 C   0  0  0  0  0  0  0  0  0  0  0  0
    5.1275   -0.2250   -2.9767 C   0  0  0  0  0  0  0  0  0  0  0  0
    5.3972   -0.1178   -1.6102 C   0  0  0  0  0  0  0  0  0  0  0  0
    5.4127   -1.2575   -0.7965 C   0  0  0  0  0  0  0  0  0  0  0  0
    5.6852   -1.1391    0.6844 C   0  0  0  0  0  0  0  0  0  0  0  0
    4.4320   -1.3184    1.5450 C   0  0  0  0  0  0  0  0  0  0  0  0
    3.4346   -0.2895    1.3017 N   0  0  0  0  0  0  0  0  0  0  0  0
    2.4599   -0.0174    2.2385 C   0  0  0  0  0  0  0  0  0  0  0  0
    2.4394   -0.5135    3.3597 O   0  0  0  0  0  0  0  0  0  0  0  0
    1.4075    0.9490    1.7348 C   0  0  0  0  0  0  0  0  0  0  0  0
    0.4318    1.3646    2.8301 C   0  0  0  0  0  0  0  0  0  0  0  0
   -0.4244    0.2277    3.2023 N   0  0  0  0  0  0  0  0  0  0  0  0
   -1.8567    0.5429    4.0217 S   0  0  0  0  0  6  0  0  0  0  0  0
   -1.6780    1.7558    4.7893 O   0  0  0  0  0  0  0  0  0  0  0  0
   -2.2866   -0.6970    4.6242 O   0  0  0  0  0  0  0  0  0  0  0  0
   -2.9832    0.8824    2.6934 C   0  0  0  0  0  0  0  0  0  0  0  0
   -3.7733    2.0301    2.7254 C   0  0  0  0  0  0  0  0  0  0  0  0
   -4.6566    2.2906    1.6715 C   0  0  0  0  0  0  0  0  0  0  0  0
   -4.7553    1.4152    0.5757 C   0  0  0  0  0  0  0  0  0  0  0  0
   -3.9465    0.2780    0.5638 C   0  0  0  0  0  0  0  0  0  0  0  0
   -3.0627    0.0003    1.6169 C   0  0  0  0  0  0  0  0  0  0  0  0
   -4.0161   -0.6415   -0.5811 C   0  0  0  0  0  0  0  0  0  0  0  0
   -3.2232   -1.5785   -0.6421 O   0  0  0  0  0  0  0  0  0  0  0  0
   -4.9766   -0.3691   -1.5420 N   0  0  0  0  0  0  0  0  0  0  0  0
   -5.0800   -1.2803   -2.6669 C   0  0  0  0  0  0  0  0  0  0  0  0
   -5.7521    0.7834   -1.5874 C   0  0  0  0  0  0  0  0  0  0  0  0
   -6.4966    1.0192   -2.5419 O   0  0  0  0  0  0  0  0  0  0  0  0
   -5.6373    1.6591   -0.5105 N   0  0  0  0  0  0  0  0  0  0  0  0
   -6.4614    2.8614   -0.5132 C   0  0  0  0  0  0  0  0  0  0  0  0
    5.1534   -2.5065   -1.3745 C   0  0  0  0  0  0  0  0  0  0  0  0
    4.8846   -2.6129   -2.7409 C   0  0  0  0  0  0  0  0  0  0  0  0
    4.8849   -0.7043   -5.5681 H   0  0  0  0  0  0  0  0  0  0  0  0
    5.0939   -2.4527   -5.4520 H   0  0  0  0  0  0  0  0  0  0  0  0
    3.4904   -1.7280   -5.1602 H   0  0  0  0  0  0  0  0  0  0  0  0
    5.1195    0.6746   -3.5883 H   0  0  0  0  0  0  0  0  0  0  0  0
    5.5965    0.8642   -1.1872 H   0  0  0  0  0  0  0  0  0  0  0  0
    6.4304   -1.8932    0.9628 H   0  0  0  0  0  0  0  0  0  0  0  0
    6.1423   -0.1661    0.8994 H   0  0  0  0  0  0  0  0  0  0  0  0
    4.7124   -1.2961    2.6038 H   0  0  0  0  0  0  0  0  0  0  0  0
    3.9511   -2.2841    1.3533 H   0  0  0  0  0  0  0  0  0  0  0  0
    3.2121   -0.0979    0.3311 H   0  0  0  0  0  0  0  0  0  0  0  0
    1.9195    1.8406    1.3548 H   0  0  0  0  0  0  0  0  0  0  0  0
    0.8718    0.4761    0.9029 H   0  0  0  0  0  0  0  0  0  0  0  0
   -0.1884    2.1826    2.4474 H   0  0  0  0  0  0  0  0  0  0  0  0
    0.9703    1.7170    3.7168 H   0  0  0  0  0  0  0  0  0  0  0  0
    0.0700   -0.5777    3.6043 H   0  0  0  0  0  0  0  0  0  0  0  0
   -3.7151    2.7216    3.5644 H   0  0  0  0  0  0  0  0  0  0  0  0
   -5.2597    3.1923    1.7382 H   0  0  0  0  0  0  0  0  0  0  0  0
   -2.4456   -0.8968    1.5971 H   0  0  0  0  0  0  0  0  0  0  0  0
   -6.1227   -1.3795   -2.9836 H   0  0  0  0  0  0  0  0  0  0  0  0
   -4.4980   -0.8693   -3.4978 H   0  0  0  0  0  0  0  0  0  0  0  0
   -4.6951   -2.2733   -2.4189 H   0  0  0  0  0  0  0  0  0  0  0  0
   -5.8156    3.7440   -0.4812 H   0  0  0  0  0  0  0  0  0  0  0  0
   -7.0832    2.9373   -1.4094 H   0  0  0  0  0  0  0  0  0  0  0  0
   -7.1296    2.8445    0.3543 H   0  0  0  0  0  0  0  0  0  0  0  0
    5.1595   -3.4077   -0.7657 H   0  0  0  0  0  0  0  0  0  0  0  0
    4.6830   -3.5933   -3.1684 H   0  0  0  0  0  0  0  0  0  0  0  0
  1  2  1  0
  2  3  2  0
  3  4  1  0
  4  5  2  0
  5  6  1  0
  6  7  1  0
  7  8  1  0
  8  9  1  0
  9 10  2  0
  9 11  1  0
 11 12  1  0
 12 13  1  0
 13 14  1  0
 14 15  2  0
 14 16  2  0
 14 17  1  0
 17 18  2  0
 18 19  1  0
 19 20  2  0
 20 21  1  0
 21 22  2  0
 21 23  1  0
 23 24  2  0
 23 25  1  0
 25 26  1  0
 25 27  1  0
 27 28  2  0
 27 29  1  0
 29 30  1  0
  5 31  1  0
 31 32  2  0
 32  2  1  0
 22 17  1  0
 29 20  1  0
  1 33  1  0
  1 34  1  0
  1 35  1  0
  3 36  1  0
  4 37  1  0
  6 38  1  0
  6 39  1  0
  7 40  1  0
  7 41  1  0
  8 42  1  0
 11 43  1  0
 11 44  1  0
 12 45  1  0
 12 46  1  0
 13 47  1  0
 18 48  1  0
 19 49  1  0
 22 50  1  0
 26 51  1  0
 26 52  1  0
 26 53  1  0
 30 54  1  0
 30 55  1  0
 30 56  1  0
 31 57  1  0
 32 58  1  0
M  END
$$$$
