
     RDKit          3D

 73 75  0  0  0  0  0  0  0  0999 V2000
   -0.5257   -0.1146   -3.5850 C   0  0  0  0  0  0  0  0  0  0  0  0
   -1.7751    0.2900   -2.8060 C   0  0  0  0  0  0  0  0  0  0  0  0
   -1.8169   -0.4085   -1.4284 C   0  0  0  0  0  0  0  0  0  0  0  0
   -2.4766    0.6562   -0.0847 S   0  0  0  0  0  0  0  0  0  0  0  0
   -1.1196    1.7294    0.2083 C   0  0  0  0  0  0  0  0  0  0  0  0
   -0.4294    2.1024   -0.8190 N   0  0  0  0  0  0  0  0  0  0  0  0
    0.6166    3.0050   -0.6519 C   0  0  0  0  0  0  0  0  0  0  0  0
    1.3503    3.3921   -1.7757 C   0  0  0  0  0  0  0  0  0  0  0  0
    2.4199    4.2860   -1.6556 C   0  0  0  0  0  0  0  0  0  0  0  0
    3.1952    4.7057   -2.7073 O   0  0  0  0  0  0  0  0  0  0  0  0
    2.7778    4.3446   -4.0178 C   0  0  0  0  0  0  0  0  0  0  0  0
    2.7621    4.7991   -0.3862 C   0  0  0  0  0  0  0  0  0  0  0  0
    3.8223    5.6694   -0.3542 O   0  0  0  0  0  0  0  0  0  0  0  0
    4.2322    6.1620    0.9132 C   0  0  0  0  0  0  0  0  0  0  0  0
    2.0209    4.4174    0.7353 C   0  0  0  0  0  0  0  0  0  0  0  0
    0.9508    3.5284    0.5885 C   0  0  0  0  0  0  0  0  0  0  0  0
    0.1608    3.0831    1.7457 C   0  0  0  0  0  0  0  0  0  0  0  0
    0.4651    3.4948    2.8631 O   0  0  0  0  0  0  0  0  0  0  0  0
   -0.8670    2.1674    1.5034 N   0  0  0  0  0  0  0  0  0  0  0  0
   -1.5340    1.6366    2.7031 C   0  0  0  0  0  0  0  0  0  0  0  0
   -0.6481    0.6602    3.5050 C   0  0  0  0  0  0  0  0  0  0  0  0
   -0.2018   -0.5418    2.7059 C   0  0  0  0  0  0  0  0  0  0  0  0
   -0.9789   -1.7074    2.6912 C   0  0  0  0  0  0  0  0  0  0  0  0
   -0.5852   -2.7968    1.9183 C   0  0  0  0  0  0  0  0  0  0  0  0
    0.5766   -2.7268    1.1439 C   0  0  0  0  0  0  0  0  0  0  0  0
    0.9174   -3.7582    0.3043 O   0  0  0  0  0  0  0  0  0  0  0  0
    1.1486   -4.9734    1.0122 C   0  0  0  0  0  0  0  0  0  0  0  0
    1.3544   -1.5603    1.1231 C   0  0  0  0  0  0  0  0  0  0  0  0
    2.4566   -1.5743    0.3068 O   0  0  0  0  0  0  0  0  0  0  0  0
    3.0008   -0.3083   -0.0438 C   0  0  0  0  0  0  0  0  0  0  0  0
    0.9757   -0.4848    1.9328 C   0  0  0  0  0  0  0  0  0  0  0  0
   -2.7434   -1.6286   -1.5525 C   0  0  0  0  0  0  0  0  0  0  0  0
   -3.9237   -1.5313   -1.8871 O   0  0  0  0  0  0  0  0  0  0  0  0
   -2.1436   -2.8511   -1.3237 N   0  0  0  0  0  0  0  0  0  0  0  0
   -2.8700   -4.1009   -1.5060 C   0  0  0  0  0  0  0  0  0  0  0  0
   -2.9403   -4.9554   -0.2377 C   0  0  0  0  0  0  0  0  0  0  0  0
   -3.6227   -4.2515    0.8034 O   0  0  0  0  0  0  0  0  0  0  0  0
   -3.9678   -5.0985    1.8925 C   0  0  0  0  0  0  0  0  0  0  0  0
    0.3841    0.1245   -3.0215 H   0  0  0  0  0  0  0  0  0  0  0  0
   -0.4853    0.4212   -4.5394 H   0  0  0  0  0  0  0  0  0  0  0  0
   -0.5230   -1.1917   -3.7923 H   0  0  0  0  0  0  0  0  0  0  0  0
   -2.6468    0.0287   -3.4205 H   0  0  0  0  0  0  0  0  0  0  0  0
   -1.7891    1.3821   -2.7220 H   0  0  0  0  0  0  0  0  0  0  0  0
   -0.8170   -0.7329   -1.1202 H   0  0  0  0  0  0  0  0  0  0  0  0
    1.0581    2.9781   -2.7362 H   0  0  0  0  0  0  0  0  0  0  0  0
    2.8395    3.2630   -4.1659 H   0  0  0  0  0  0  0  0  0  0  0  0
    1.7694    4.7160   -4.2293 H   0  0  0  0  0  0  0  0  0  0  0  0
    3.4632    4.8105   -4.7329 H   0  0  0  0  0  0  0  0  0  0  0  0
    5.0737    6.8463    0.7507 H   0  0  0  0  0  0  0  0  0  0  0  0
    4.5769    5.3412    1.5569 H   0  0  0  0  0  0  0  0  0  0  0  0
    3.4333    6.7351    1.4031 H   0  0  0  0  0  0  0  0  0  0  0  0
    2.2543    4.7877    1.7296 H   0  0  0  0  0  0  0  0  0  0  0  0
   -1.7865    2.4873    3.3491 H   0  0  0  0  0  0  0  0  0  0  0  0
   -2.4844    1.1560    2.4607 H   0  0  0  0  0  0  0  0  0  0  0  0
    0.2360    1.1714    3.9047 H   0  0  0  0  0  0  0  0  0  0  0  0
   -1.2015    0.3208    4.3898 H   0  0  0  0  0  0  0  0  0  0  0  0
   -1.9021   -1.7746    3.2666 H   0  0  0  0  0  0  0  0  0  0  0  0
   -1.2144   -3.6830    1.9023 H   0  0  0  0  0  0  0  0  0  0  0  0
    1.8120   -5.5967    0.4015 H   0  0  0  0  0  0  0  0  0  0  0  0
    1.6344   -4.8145    1.9870 H   0  0  0  0  0  0  0  0  0  0  0  0
    0.2076   -5.5188    1.1402 H   0  0  0  0  0  0  0  0  0  0  0  0
    2.2306    0.3503   -0.4558 H   0  0  0  0  0  0  0  0  0  0  0  0
    3.7482   -0.4715   -0.8197 H   0  0  0  0  0  0  0  0  0  0  0  0
    3.5025    0.1641    0.8059 H   0  0  0  0  0  0  0  0  0  0  0  0
    1.5783    0.4186    1.9734 H   0  0  0  0  0  0  0  0  0  0  0  0
   -1.1550   -2.9085   -1.0796 H   0  0  0  0  0  0  0  0  0  0  0  0
   -2.3438   -4.6604   -2.2872 H   0  0  0  0  0  0  0  0  0  0  0  0
   -3.8848   -3.8931   -1.8585 H   0  0  0  0  0  0  0  0  0  0  0  0
   -3.4722   -5.8858   -0.4691 H   0  0  0  0  0  0  0  0  0  0  0  0
   -1.9332   -5.2082    0.1018 H   0  0  0  0  0  0  0  0  0  0  0  0
   -4.3755   -4.4743    2.6948 H   0  0  0  0  0  0  0  0  0  0  0  0
   -4.7325   -5.8190    1.5861 H   0  0  0  0  0  0  0  0  0  0  0  0
   -3.0887   -5.6276    2.2683 H   0  0  0  0  0  0  0  0  0  0  0  0
  1  2  1  0
  2  3  1  0
  3  4  1  0
  4  5  1  0
  5  6  2  0
  6  7  1  0
  7  8  2  0
  8  9  1  0
  9 10  1  0
 10 11  1  0
  9 12  2  0
 12 13  1  0
 13 14  1  0
 12 15  1  0
 15 16  2  0
 16 17  1  0
 17 18  2  0
 17 19  1  0
 19 20  1  0
 20 21  1  0
 21 22  1  0
 22 23  2  0
 23 24  1  0
 24 25  2  0
 25 26  1  0
 26 27  1  0
 25 28  1  0
 28 29  1  0
 29 30  1  0
 28 31  2  0
  3 32  1  0
 32 33  2  0
 32 34  1  0
 34 35  1  0
 35 36  1  0
 36 37  1  0
 37 38  1  0
 19  5  1  0
 31 22  1  0
 16  7  1  0
  1 39  1  0
  1 40  1  0
  1 41  1  0
  2 42  1  0
  2 43  1  0
  3 44  1  0
  8 45  1  0
 11 46  1  0
 11 47  1  0
 11 48  1  0
 14 49  1  0
 14 50  1  0
 14 51  1  0
 15 52  1  0
 20 53  1  0
 20 54  1  0
 21 55  1  0
 21 56  1  0
 23 57  1  0
 24 58  1  0
 27 59  1  0
 27 60  1  0
 27 61  1  0
 30 62  1  0
 30 63  1  0
 30 64  1  0
 31 65  1  0
 34 66  1  0
 35 67  1  0
 35 68  1  0
 36 69  1  0
 36 70  1  0
 38 71  1  0
 38 72  1  0
 38 73  1  0
M  END
$$$$
