
     RDKit          3D

 35 36  0  0  0  0  0  0  0  0999 V2000
   -5.9055    0.1541    0.0662 C   0  0  0  0  0  0  0  0  0  0  0  0
   -4.7694    1.1429    0.0789 C   0  0  0  0  0  0  0  0  0  0  0  0
   -4.8968    2.2521    0.5925 O   0  0  0  0  0  0  0  0  0  0  0  0
   -3.4658    0.7566   -0.5390 C   0  0  0  0  0  0  0  0  0  0  0  0
   -3.2226   -0.5304   -1.0317 C   0  0  0  0  0  0  0  0  0  0  0  0
   -1.9814   -0.8426   -1.6001 C   0  0  0  0  0  0  0  0  0  0  0  0
   -0.9726    0.1211   -1.6711 C   0  0  0  0  0  0  0  0  0  0  0  0
    0.2680   -0.2446   -2.2622 N   0  0  0  0  0  0  0  0  0  0  0  0
    1.7301    0.0236   -1.4611 S   0  0  0  0  0  6  0  0  0  0  0  0
    2.7122   -0.6752   -2.2663 O   0  0  0  0  0  0  0  0  0  0  0  0
    1.8567    1.4368   -1.1780 O   0  0  0  0  0  0  0  0  0  0  0  0
    1.4927   -0.8869    0.0765 C   0  0  0  0  0  0  0  0  0  0  0  0
    2.7617   -0.8297    0.8887 C   0  0  0  0  0  0  0  0  0  0  0  0
    3.7460   -1.8195    0.7460 C   0  0  0  0  0  0  0  0  0  0  0  0
    4.9223   -1.7620    1.4973 C   0  0  0  0  0  0  0  0  0  0  0  0
    5.1228   -0.7143    2.3928 C   0  0  0  0  0  0  0  0  0  0  0  0
    6.5710   -0.6460    3.3189 Cl  0  0  0  0  0  0  0  0  0  0  0  0
    4.1583    0.2793    2.5408 C   0  0  0  0  0  0  0  0  0  0  0  0
    2.9816    0.2232    1.7902 C   0  0  0  0  0  0  0  0  0  0  0  0
   -1.2180    1.4085   -1.1990 C   0  0  0  0  0  0  0  0  0  0  0  0
   -2.4556    1.7231   -0.6282 C   0  0  0  0  0  0  0  0  0  0  0  0
   -6.1250   -0.1614   -0.9572 H   0  0  0  0  0  0  0  0  0  0  0  0
   -6.8035    0.6337    0.4682 H   0  0  0  0  0  0  0  0  0  0  0  0
   -5.6641   -0.7054    0.6967 H   0  0  0  0  0  0  0  0  0  0  0  0
   -3.9792   -1.3086   -0.9870 H   0  0  0  0  0  0  0  0  0  0  0  0
   -1.8165   -1.8472   -1.9817 H   0  0  0  0  0  0  0  0  0  0  0  0
    0.2972   -1.0773   -2.8500 H   0  0  0  0  0  0  0  0  0  0  0  0
    0.6637   -0.4344    0.6282 H   0  0  0  0  0  0  0  0  0  0  0  0
    1.2349   -1.9201   -0.1761 H   0  0  0  0  0  0  0  0  0  0  0  0
    3.6128   -2.6374    0.0400 H   0  0  0  0  0  0  0  0  0  0  0  0
    5.6792   -2.5321    1.3741 H   0  0  0  0  0  0  0  0  0  0  0  0
    4.3180    1.1028    3.2319 H   0  0  0  0  0  0  0  0  0  0  0  0
    2.2443    1.0161    1.9076 H   0  0  0  0  0  0  0  0  0  0  0  0
   -0.4687    2.1922   -1.2836 H   0  0  0  0  0  0  0  0  0  0  0  0
   -2.6287    2.7350   -0.2633 H   0  0  0  0  0  0  0  0  0  0  0  0
  1  2  1  0
  2  3  2  0
  2  4  1  0
  4  5  2  0
  5  6  1  0
  6  7  2  0
  7  8  1  0
  8  9  1  0
  9 10  2  0
  9 11  2  0
  9 12  1  0
 12 13  1  0
 13 14  2  0
 14 15  1  0
 15 16  2  0
 16 17  1  0
 16 18  1  0
 18 19  2  0
  7 20  1  0
 20 21  2  0
 21  4  1  0
 19 13  1  0
  1 22  1  0
  1 23  1  0
  1 24  1  0
  5 25  1  0
  6 26  1  0
  8 27  1  0
 12 28  1  0
 12 29  1  0
 14 30  1  0
 15 31  1  0
 18 32  1  0
 19 33  1  0
 20 34  1  0
 21 35  1  0
M  END
$$$$
