
     RDKit          3D

 51 54  0  0  0  0  0  0  0  0999 V2000
    7.7081   -3.5656    0.6728 C   0  0  0  0  0  0  0  0  0  0  0  0
    6.5422   -2.6339    0.5207 C   0  0  0  0  0  0  0  0  0  0  0  0
    5.2737   -2.9954    0.9844 C   0  0  0  0  0  0  0  0  0  0  0  0
    4.1750   -2.1237    0.8674 C   0  0  0  0  0  0  0  0  0  0  0  0
    2.8338   -2.5954    1.3654 C   0  0  0  0  0  0  0  0  0  0  0  0
    4.3543   -0.8567    0.2682 C   0  0  0  0  0  0  0  0  0  0  0  0
    3.2258   -0.0052    0.1511 N   0  0  0  0  0  0  0  0  0  0  0  0
    2.8959    0.6698   -1.0199 C   0  0  0  0  0  0  0  0  0  0  0  0
    3.4768    0.5626   -2.0961 O   0  0  0  0  0  0  0  0  0  0  0  0
    1.6589    1.5346   -0.8645 C   0  0  0  0  0  0  0  0  0  0  0  0
    0.1860    0.4689   -0.9293 S   0  0  0  0  0  0  0  0  0  0  0  0
   -1.0533    1.6442   -0.6756 C   0  0  0  0  0  0  0  0  0  0  0  0
   -0.8651    2.8828   -0.2888 N   0  0  0  0  0  0  0  0  0  0  0  0
   -2.0964    3.4817   -0.1934 N   0  0  0  0  0  0  0  0  0  0  0  0
   -3.0153    2.6015   -0.5414 C   0  0  0  0  0  0  0  0  0  0  0  0
   -4.4505    2.8403   -0.5615 C   0  0  0  0  0  0  0  0  0  0  0  0
   -5.1388    2.9725   -1.7681 C   0  0  0  0  0  0  0  0  0  0  0  0
   -6.5065    3.1801   -1.7210 C   0  0  0  0  0  0  0  0  0  0  0  0
   -7.2127    3.2580   -0.5731 N   0  0  0  0  0  0  0  0  0  0  0  0
   -6.5186    3.1601    0.5815 C   0  0  0  0  0  0  0  0  0  0  0  0
   -5.1516    2.9553    0.6388 C   0  0  0  0  0  0  0  0  0  0  0  0
   -2.3897    1.4078   -0.8438 N   0  0  0  0  0  0  0  0  0  0  0  0
   -3.0358    0.1776   -1.2575 C   0  0  0  0  0  0  0  0  0  0  0  0
   -3.6137   -0.5386   -0.0937 C   0  0  0  0  0  0  0  0  0  0  0  0
   -4.9036   -0.7215    0.3624 C   0  0  0  0  0  0  0  0  0  0  0  0
   -4.8040   -1.5082    1.5346 C   0  0  0  0  0  0  0  0  0  0  0  0
   -3.4651   -1.7619    1.7145 C   0  0  0  0  0  0  0  0  0  0  0  0
   -2.7350   -1.1813    0.7283 O   0  0  0  0  0  0  0  0  0  0  0  0
    5.6494   -0.4692   -0.1346 C   0  0  0  0  0  0  0  0  0  0  0  0
    6.0476    1.1513   -0.6097 Cl  0  0  0  0  0  0  0  0  0  0  0  0
    6.7248   -1.3581   -0.0181 C   0  0  0  0  0  0  0  0  0  0  0  0
    8.2418   -3.3490    1.6037 H   0  0  0  0  0  0  0  0  0  0  0  0
    7.3776   -4.6093    0.6911 H   0  0  0  0  0  0  0  0  0  0  0  0
    8.4016   -3.4591   -0.1682 H   0  0  0  0  0  0  0  0  0  0  0  0
    5.1358   -3.9776    1.4364 H   0  0  0  0  0  0  0  0  0  0  0  0
    2.0899   -2.5447    0.5638 H   0  0  0  0  0  0  0  0  0  0  0  0
    2.5072   -1.9811    2.2101 H   0  0  0  0  0  0  0  0  0  0  0  0
    2.8708   -3.6353    1.7058 H   0  0  0  0  0  0  0  0  0  0  0  0
    2.4237   -0.2265    0.7279 H   0  0  0  0  0  0  0  0  0  0  0  0
    1.7119    2.0694    0.0902 H   0  0  0  0  0  0  0  0  0  0  0  0
    1.6369    2.2710   -1.6743 H   0  0  0  0  0  0  0  0  0  0  0  0
   -4.6263    2.9329   -2.7233 H   0  0  0  0  0  0  0  0  0  0  0  0
   -7.0884    3.2959   -2.6315 H   0  0  0  0  0  0  0  0  0  0  0  0
   -7.1098    3.2536    1.4884 H   0  0  0  0  0  0  0  0  0  0  0  0
   -4.6461    2.8854    1.5966 H   0  0  0  0  0  0  0  0  0  0  0  0
   -2.3163   -0.4563   -1.7830 H   0  0  0  0  0  0  0  0  0  0  0  0
   -3.8118    0.4313   -1.9875 H   0  0  0  0  0  0  0  0  0  0  0  0
   -5.8058   -0.3310   -0.0897 H   0  0  0  0  0  0  0  0  0  0  0  0
   -5.6087   -1.8512    2.1698 H   0  0  0  0  0  0  0  0  0  0  0  0
   -2.8995   -2.3118    2.4544 H   0  0  0  0  0  0  0  0  0  0  0  0
    7.7188   -1.0405   -0.3282 H   0  0  0  0  0  0  0  0  0  0  0  0
  1  2  1  0
  2  3  2  0
  3  4  1  0
  4  5  1  0
  4  6  2  0
  6  7  1  0
  7  8  1  0
  8  9  2  0
  8 10  1  0
 10 11  1  0
 11 12  1  0
 12 13  2  0
 13 14  1  0
 14 15  2  0
 15 16  1  0
 16 17  2  0
 17 18  1  0
 18 19  2  0
 19 20  1  0
 20 21  2  0
 15 22  1  0
 22 23  1  0
 23 24  1  0
 24 25  2  0
 25 26  1  0
 26 27  2  0
 27 28  1  0
  6 29  1  0
 29 30  1  0
 29 31  2  0
 31  2  1  0
 22 12  1  0
 28 24  1  0
 21 16  1  0
  1 32  1  0
  1 33  1  0
  1 34  1  0
  3 35  1  0
  5 36  1  0
  5 37  1  0
  5 38  1  0
  7 39  1  0
 10 40  1  0
 10 41  1  0
 17 42  1  0
 18 43  1  0
 20 44  1  0
 21 45  1  0
 23 46  1  0
 23 47  1  0
 25 48  1  0
 26 49  1  0
 27 50  1  0
 31 51  1  0
M  END
$$$$
