
     RDKit          3D

 37 38  0  0  0  0  0  0  0  0999 V2000
   -5.4253   -0.0715   -2.6291 C   0  0  0  0  0  0  0  0  0  0  0  0
   -4.9981   -0.5199   -1.3043 N   0  0  0  0  0  0  0  0  0  0  0  0
   -6.0514   -0.5843   -0.2916 C   0  0  0  0  0  0  0  0  0  0  0  0
   -3.6751   -0.3089   -0.9044 C   0  0  0  0  0  0  0  0  0  0  0  0
   -3.2652   -0.4487    0.4325 C   0  0  0  0  0  0  0  0  0  0  0  0
   -1.9334   -0.2601    0.8356 C   0  0  0  0  0  0  0  0  0  0  0  0
   -0.9458    0.0568   -0.0952 C   0  0  0  0  0  0  0  0  0  0  0  0
    0.4336    0.2676    0.3648 C   0  0  0  0  0  0  0  0  0  0  0  0
    1.5100   -0.1684   -0.3098 C   0  0  0  0  0  0  0  0  0  0  0  0
    2.8931    0.0271    0.1394 C   0  0  0  0  0  0  0  0  0  0  0  0
    3.8861    0.2683   -0.8086 C   0  0  0  0  0  0  0  0  0  0  0  0
    5.2060    0.4291   -0.4017 C   0  0  0  0  0  0  0  0  0  0  0  0
    5.5381    0.3464    0.9057 N   0  0  0  0  0  4  0  0  0  0  0  0
    6.9444    0.5091    1.3115 C   0  0  0  0  0  0  0  0  0  0  0  0
    4.5974    0.0880    1.8409 C   0  0  0  0  0  0  0  0  0  0  0  0
    3.2651   -0.0775    1.4790 C   0  0  0  0  0  0  0  0  0  0  0  0
   -1.3241    0.2059   -1.4285 C   0  0  0  0  0  0  0  0  0  0  0  0
   -2.6596    0.0165   -1.8198 C   0  0  0  0  0  0  0  0  0  0  0  0
   -4.8752   -0.5926   -3.4200 H   0  0  0  0  0  0  0  0  0  0  0  0
   -6.4840   -0.2942   -2.8038 H   0  0  0  0  0  0  0  0  0  0  0  0
   -5.2930    1.0105   -2.7394 H   0  0  0  0  0  0  0  0  0  0  0  0
   -6.1109    0.3524    0.2734 H   0  0  0  0  0  0  0  0  0  0  0  0
   -7.0326   -0.7584   -0.7475 H   0  0  0  0  0  0  0  0  0  0  0  0
   -5.8886   -1.4206    0.3967 H   0  0  0  0  0  0  0  0  0  0  0  0
   -3.9771   -0.7138    1.2086 H   0  0  0  0  0  0  0  0  0  0  0  0
   -1.6884   -0.3813    1.8880 H   0  0  0  0  0  0  0  0  0  0  0  0
    0.5252    0.7994    1.3084 H   0  0  0  0  0  0  0  0  0  0  0  0
    1.3853   -0.7000   -1.2523 H   0  0  0  0  0  0  0  0  0  0  0  0
    3.6392    0.3404   -1.8665 H   0  0  0  0  0  0  0  0  0  0  0  0
    6.0029    0.6211   -1.1148 H   0  0  0  0  0  0  0  0  0  0  0  0
    6.9805    0.9196    2.3241 H   0  0  0  0  0  0  0  0  0  0  0  0
    7.4121   -0.4779    1.2741 H   0  0  0  0  0  0  0  0  0  0  0  0
    7.4374    1.2010    0.6234 H   0  0  0  0  0  0  0  0  0  0  0  0
    4.9206    0.0088    2.8752 H   0  0  0  0  0  0  0  0  0  0  0  0
    2.5285   -0.3011    2.2481 H   0  0  0  0  0  0  0  0  0  0  0  0
   -0.5978    0.4777   -2.1896 H   0  0  0  0  0  0  0  0  0  0  0  0
   -2.8800    0.1336   -2.8766 H   0  0  0  0  0  0  0  0  0  0  0  0
  1  2  1  0
  2  3  1  0
  2  4  1  0
  4  5  2  0
  5  6  1  0
  6  7  2  0
  7  8  1  0
  8  9  2  3
  9 10  1  0
 10 11  2  0
 11 12  1  0
 12 13  2  0
 13 14  1  0
 13 15  1  0
 15 16  2  0
  7 17  1  0
 17 18  2  0
 18  4  1  0
 16 10  1  0
  1 19  1  0
  1 20  1  0
  1 21  1  0
  3 22  1  0
  3 23  1  0
  3 24  1  0
  5 25  1  0
  6 26  1  0
  8 27  1  0
  9 28  1  0
 11 29  1  0
 12 30  1  0
 14 31  1  0
 14 32  1  0
 14 33  1  0
 15 34  1  0
 16 35  1  0
 17 36  1  0
 18 37  1  0
M  CHG  1  13   1
M  END
$$$$
