
     RDKit          3D

 65 69  0  0  0  0  0  0  0  0999 V2000
   -5.4703   -5.2630    3.2145 C   0  0  0  0  0  0  0  0  0  0  0  0
   -5.4597   -3.9345    2.7080 O   0  0  0  0  0  0  0  0  0  0  0  0
   -4.6167   -3.6777    1.6614 C   0  0  0  0  0  0  0  0  0  0  0  0
   -3.7631   -4.5973    1.0516 C   0  0  0  0  0  0  0  0  0  0  0  0
   -2.9479   -4.1994   -0.0109 C   0  0  0  0  0  0  0  0  0  0  0  0
   -2.9831   -2.8819   -0.4685 C   0  0  0  0  0  0  0  0  0  0  0  0
   -3.8354   -1.9477    0.1313 C   0  0  0  0  0  0  0  0  0  0  0  0
   -3.8594   -0.5571   -0.3394 C   0  0  0  0  0  0  0  0  0  0  0  0
   -5.3037    0.0369   -1.0398 S   0  0  0  0  0  0  0  0  0  0  0  0
   -4.6253    1.5813   -1.3545 C   0  0  0  0  0  0  0  0  0  0  0  0
   -5.2683    2.6786   -1.9592 C   0  0  0  0  0  0  0  0  0  0  0  0
   -4.5625    3.8740   -2.1367 C   0  0  0  0  0  0  0  0  0  0  0  0
   -3.2433    3.9842   -1.7198 C   0  0  0  0  0  0  0  0  0  0  0  0
   -2.4519    5.0941   -1.8363 O   0  0  0  0  0  0  0  0  0  0  0  0
   -3.0437    6.2505   -2.4148 C   0  0  0  0  0  0  0  0  0  0  0  0
   -2.6165    2.8856   -1.1194 C   0  0  0  0  0  0  0  0  0  0  0  0
   -3.2988    1.6544   -0.9297 C   0  0  0  0  0  0  0  0  0  0  0  0
   -2.8595    0.4045   -0.3448 C   0  0  0  0  0  0  0  0  0  0  0  0
   -1.5275    0.1371    0.1918 C   0  0  0  0  0  0  0  0  0  0  0  0
   -0.4170    0.1415   -0.6595 C   0  0  0  0  0  0  0  0  0  0  0  0
    0.8655   -0.1068   -0.1560 C   0  0  0  0  0  0  0  0  0  0  0  0
    1.0487   -0.3629    1.2026 C   0  0  0  0  0  0  0  0  0  0  0  0
    2.2368   -0.6149    1.8286 O   0  0  0  0  0  0  0  0  0  0  0  0
    3.4251   -0.7158    1.0382 C   0  0  0  0  0  0  0  0  0  0  0  0
    4.0676    0.6688    0.8321 C   0  0  0  0  0  0  0  0  0  0  0  0
    5.2984    0.7198    0.0323 N   0  0  0  0  0  0  0  0  0  0  0  0
    5.0638    0.5435   -1.4053 C   0  0  0  0  0  0  0  0  0  0  0  0
    6.3093    0.0944   -2.1822 C   0  0  0  0  0  0  0  0  0  0  0  0
    7.5806    0.6722   -1.5770 C   0  0  0  0  0  0  0  0  0  0  0  0
    7.7104    0.2968   -0.0984 C   0  0  0  0  0  0  0  0  0  0  0  0
    6.3800   -0.1145    0.5436 C   0  0  0  0  0  0  0  0  0  0  0  0
   -0.0617   -0.3608    2.0516 C   0  0  0  0  0  0  0  0  0  0  0  0
   -1.3433   -0.1113    1.5543 C   0  0  0  0  0  0  0  0  0  0  0  0
   -4.6476   -2.3584    1.1980 C   0  0  0  0  0  0  0  0  0  0  0  0
   -6.1913   -5.3014    4.0368 H   0  0  0  0  0  0  0  0  0  0  0  0
   -5.7993   -5.9745    2.4500 H   0  0  0  0  0  0  0  0  0  0  0  0
   -4.4905   -5.5395    3.6177 H   0  0  0  0  0  0  0  0  0  0  0  0
   -3.7056   -5.6298    1.3789 H   0  0  0  0  0  0  0  0  0  0  0  0
   -2.2818   -4.9175   -0.4823 H   0  0  0  0  0  0  0  0  0  0  0  0
   -2.3413   -2.5882   -1.2959 H   0  0  0  0  0  0  0  0  0  0  0  0
   -6.3022    2.6003   -2.2844 H   0  0  0  0  0  0  0  0  0  0  0  0
   -5.0846    4.7013   -2.6064 H   0  0  0  0  0  0  0  0  0  0  0  0
   -3.3437    6.0636   -3.4512 H   0  0  0  0  0  0  0  0  0  0  0  0
   -2.2889    7.0427   -2.4248 H   0  0  0  0  0  0  0  0  0  0  0  0
   -3.8892    6.6036   -1.8150 H   0  0  0  0  0  0  0  0  0  0  0  0
   -1.5849    2.9840   -0.7882 H   0  0  0  0  0  0  0  0  0  0  0  0
   -0.5417    0.3387   -1.7222 H   0  0  0  0  0  0  0  0  0  0  0  0
    1.6939   -0.0828   -0.8548 H   0  0  0  0  0  0  0  0  0  0  0  0
    3.2451   -1.2582    0.1041 H   0  0  0  0  0  0  0  0  0  0  0  0
    4.1119   -1.3442    1.6169 H   0  0  0  0  0  0  0  0  0  0  0  0
    3.3344    1.3627    0.4023 H   0  0  0  0  0  0  0  0  0  0  0  0
    4.2789    1.0951    1.8222 H   0  0  0  0  0  0  0  0  0  0  0  0
    4.7201    1.5031   -1.8098 H   0  0  0  0  0  0  0  0  0  0  0  0
    4.2698   -0.1845   -1.6064 H   0  0  0  0  0  0  0  0  0  0  0  0
    6.2193    0.3961   -3.2319 H   0  0  0  0  0  0  0  0  0  0  0  0
    6.3733   -1.0013   -2.1706 H   0  0  0  0  0  0  0  0  0  0  0  0
    8.4618    0.3288   -2.1305 H   0  0  0  0  0  0  0  0  0  0  0  0
    7.5582    1.7655   -1.6717 H   0  0  0  0  0  0  0  0  0  0  0  0
    8.1419    1.1478    0.4434 H   0  0  0  0  0  0  0  0  0  0  0  0
    8.4216   -0.5313    0.0095 H   0  0  0  0  0  0  0  0  0  0  0  0
    6.4800   -0.0040    1.6303 H   0  0  0  0  0  0  0  0  0  0  0  0
    6.1832   -1.1763    0.3475 H   0  0  0  0  0  0  0  0  0  0  0  0
    0.0716   -0.5551    3.1132 H   0  0  0  0  0  0  0  0  0  0  0  0
   -2.1893   -0.1127    2.2374 H   0  0  0  0  0  0  0  0  0  0  0  0
   -5.3106   -1.6460    1.6843 H   0  0  0  0  0  0  0  0  0  0  0  0
  1  2  1  0
  2  3  1  0
  3  4  2  0
  4  5  1  0
  5  6  2  0
  6  7  1  0
  7  8  1  0
  8  9  1  0
  9 10  1  0
 10 11  2  0
 11 12  1  0
 12 13  2  0
 13 14  1  0
 14 15  1  0
 13 16  1  0
 16 17  2  0
 17 18  1  0
 18 19  1  0
 19 20  2  0
 20 21  1  0
 21 22  2  0
 22 23  1  0
 23 24  1  0
 24 25  1  0
 25 26  1  0
 26 27  1  0
 27 28  1  0
 28 29  1  0
 29 30  1  0
 30 31  1  0
 22 32  1  0
 32 33  2  0
  7 34  2  0
 34  3  1  0
 18  8  2  0
 33 19  1  0
 17 10  1  0
 31 26  1  0
  1 35  1  0
  1 36  1  0
  1 37  1  0
  4 38  1  0
  5 39  1  0
  6 40  1  0
 11 41  1  0
 12 42  1  0
 15 43  1  0
 15 44  1  0
 15 45  1  0
 16 46  1  0
 20 47  1  0
 21 48  1  0
 24 49  1  0
 24 50  1  0
 25 51  1  0
 25 52  1  0
 27 53  1  0
 27 54  1  0
 28 55  1  0
 28 56  1  0
 29 57  1  0
 29 58  1  0
 30 59  1  0
 30 60  1  0
 31 61  1  0
 31 62  1  0
 32 63  1  0
 33 64  1  0
 34 65  1  0
M  END
$$$$
