
     RDKit          3D

 49 50  0  0  0  0  0  0  0  0999 V2000
    6.4596    0.8400   -1.4947 C   0  0  0  0  0  0  0  0  0  0  0  0
    6.1716   -0.4230   -0.7050 C   0  0  0  0  0  0  0  0  0  0  0  0
    4.7716   -0.7267   -0.7538 O   0  0  0  0  0  0  0  0  0  0  0  0
    3.9924   -0.1260    0.1941 C   0  0  0  0  0  0  0  0  0  0  0  0
    4.4344    0.6345    1.0486 O   0  0  0  0  0  0  0  0  0  0  0  0
    2.5725   -0.4920    0.0778 C   0  0  0  0  0  0  0  0  0  0  0  0
    1.8918   -1.0725   -1.0521 C   0  0  0  0  0  0  0  0  0  0  0  0
    2.4991   -1.4143   -2.3726 C   0  0  0  0  0  0  0  0  0  0  0  0
    0.5625   -1.2501   -0.6959 C   0  0  0  0  0  0  0  0  0  0  0  0
   -0.5624   -1.8323   -1.4891 C   0  0  0  0  0  0  0  0  0  0  0  0
    0.3922   -0.7375    0.5755 N   0  0  0  0  0  0  0  0  0  0  0  0
   -0.8922   -0.6721    1.2884 C   0  0  0  0  0  0  0  0  0  0  0  0
   -1.8443    0.3515    0.7072 C   0  0  0  0  0  0  0  0  0  0  0  0
   -1.3991    1.6452    0.3916 C   0  0  0  0  0  0  0  0  0  0  0  0
   -2.2779    2.5942   -0.1256 C   0  0  0  0  0  0  0  0  0  0  0  0
   -3.6175    2.2690   -0.3395 C   0  0  0  0  0  0  0  0  0  0  0  0
   -4.0963    0.9938   -0.0249 C   0  0  0  0  0  0  0  0  0  0  0  0
   -5.3883    0.5863   -0.2342 O   0  0  0  0  0  0  0  0  0  0  0  0
   -6.2417    1.4545   -0.9678 C   0  0  0  0  0  0  0  0  0  0  0  0
   -3.2101    0.0502    0.5354 C   0  0  0  0  0  0  0  0  0  0  0  0
   -3.6015   -1.2247    0.8753 O   0  0  0  0  0  0  0  0  0  0  0  0
   -4.6911   -1.2542    1.7966 C   0  0  0  0  0  0  0  0  0  0  0  0
    1.6140   -0.3265    1.0787 C   0  0  0  0  0  0  0  0  0  0  0  0
    1.7648    0.1958    2.4714 C   0  0  0  0  0  0  0  0  0  0  0  0
    6.0963    0.7413   -2.5230 H   0  0  0  0  0  0  0  0  0  0  0  0
    5.9470    1.7027   -1.0577 H   0  0  0  0  0  0  0  0  0  0  0  0
    7.5333    1.0466   -1.5177 H   0  0  0  0  0  0  0  0  0  0  0  0
    6.6973   -1.2682   -1.1613 H   0  0  0  0  0  0  0  0  0  0  0  0
    6.5298   -0.3427    0.3277 H   0  0  0  0  0  0  0  0  0  0  0  0
    3.1298   -2.3042   -2.2824 H   0  0  0  0  0  0  0  0  0  0  0  0
    3.1073   -0.5837   -2.7451 H   0  0  0  0  0  0  0  0  0  0  0  0
    1.7387   -1.6146   -3.1331 H   0  0  0  0  0  0  0  0  0  0  0  0
   -1.1518   -1.0361   -1.9542 H   0  0  0  0  0  0  0  0  0  0  0  0
   -0.1894   -2.4848   -2.2843 H   0  0  0  0  0  0  0  0  0  0  0  0
   -1.2228   -2.4442   -0.8679 H   0  0  0  0  0  0  0  0  0  0  0  0
   -0.7131   -0.4245    2.3379 H   0  0  0  0  0  0  0  0  0  0  0  0
   -1.2915   -1.6913    1.2704 H   0  0  0  0  0  0  0  0  0  0  0  0
   -0.3560    1.9222    0.5355 H   0  0  0  0  0  0  0  0  0  0  0  0
   -1.9139    3.5886   -0.3732 H   0  0  0  0  0  0  0  0  0  0  0  0
   -4.2613    3.0369   -0.7550 H   0  0  0  0  0  0  0  0  0  0  0  0
   -7.1952    0.9381   -1.1156 H   0  0  0  0  0  0  0  0  0  0  0  0
   -5.8285    1.6780   -1.9570 H   0  0  0  0  0  0  0  0  0  0  0  0
   -6.4453    2.3715   -0.4053 H   0  0  0  0  0  0  0  0  0  0  0  0
   -4.5517   -2.1252    2.4446 H   0  0  0  0  0  0  0  0  0  0  0  0
   -5.6350   -1.3902    1.2611 H   0  0  0  0  0  0  0  0  0  0  0  0
   -4.7328   -0.3663    2.4383 H   0  0  0  0  0  0  0  0  0  0  0  0
    2.8089    0.3281    2.7609 H   0  0  0  0  0  0  0  0  0  0  0  0
    1.3335   -0.5038    3.1951 H   0  0  0  0  0  0  0  0  0  0  0  0
    1.2625    1.1631    2.5723 H   0  0  0  0  0  0  0  0  0  0  0  0
  1  2  1  0
  2  3  1  0
  3  4  1  0
  4  5  2  0
  4  6  1  0
  6  7  1  0
  7  8  1  0
  7  9  2  0
  9 10  1  0
  9 11  1  0
 11 12  1  0
 12 13  1  0
 13 14  2  0
 14 15  1  0
 15 16  2  0
 16 17  1  0
 17 18  1  0
 18 19  1  0
 17 20  2  0
 20 21  1  0
 21 22  1  0
 11 23  1  0
 23 24  1  0
 23  6  2  0
 20 13  1  0
  1 25  1  0
  1 26  1  0
  1 27  1  0
  2 28  1  0
  2 29  1  0
  8 30  1  0
  8 31  1  0
  8 32  1  0
 10 33  1  0
 10 34  1  0
 10 35  1  0
 12 36  1  0
 12 37  1  0
 14 38  1  0
 15 39  1  0
 16 40  1  0
 19 41  1  0
 19 42  1  0
 19 43  1  0
 22 44  1  0
 22 45  1  0
 22 46  1  0
 24 47  1  0
 24 48  1  0
 24 49  1  0
M  END
$$$$
