
     RDKit          3D

 61 65  0  0  0  0  0  0  0  0999 V2000
   -8.1440    3.2883   -2.9610 C   0  0  0  0  0  0  0  0  0  0  0  0
   -7.2226    2.2262   -2.4408 C   0  0  0  0  0  0  0  0  0  0  0  0
   -7.7198    0.9922   -2.0235 C   0  0  0  0  0  0  0  0  0  0  0  0
   -6.8557    0.0161   -1.5108 C   0  0  0  0  0  0  0  0  0  0  0  0
   -5.4689    0.2343   -1.3840 C   0  0  0  0  0  0  0  0  0  0  0  0
   -4.5838   -0.8250   -0.8315 C   0  0  0  0  0  0  0  0  0  0  0  0
   -3.2002   -0.7595   -0.8378 C   0  0  0  0  0  0  0  0  0  0  0  0
   -2.4796   -1.8126   -0.2712 C   0  0  0  0  0  0  0  0  0  0  0  0
   -1.0094   -1.6811   -0.2263 C   0  0  0  0  0  0  0  0  0  0  0  0
   -0.3394   -2.3366   -1.0093 O   0  0  0  0  0  0  0  0  0  0  0  0
   -0.5800   -0.7964    0.7433 N   0  0  0  0  0  0  0  0  0  0  0  0
    0.7499   -0.4700    1.0761 C   0  0  0  0  0  0  0  0  0  0  0  0
    1.8691   -1.0125    0.4405 C   0  0  0  0  0  0  0  0  0  0  0  0
    3.1609   -0.6535    0.8436 C   0  0  0  0  0  0  0  0  0  0  0  0
    3.3324    0.2635    1.8826 C   0  0  0  0  0  0  0  0  0  0  0  0
    4.9715    0.6738    2.4247 S   0  0  0  0  0  6  0  0  0  0  0  0
    4.8542    1.4011    3.6742 O   0  0  0  0  0  0  0  0  0  0  0  0
    5.7952   -0.5104    2.3341 O   0  0  0  0  0  0  0  0  0  0  0  0
    5.4318    1.8375    1.2907 N   0  0  0  0  0  0  0  0  0  0  0  0
    6.4474    1.3825    0.3576 C   0  0  0  0  0  0  0  0  0  0  0  0
    6.2736    0.3525   -0.5123 O   0  0  0  0  0  0  0  0  0  0  0  0
    7.4136    0.1883   -1.2729 N   0  0  0  0  0  0  0  0  0  0  0  0
    8.2679    1.1282   -0.8514 C   0  0  0  0  0  0  0  0  0  0  0  0
    9.6222    1.2147   -1.4510 C   0  0  0  0  0  0  0  0  0  0  0  0
    7.7014    1.9284    0.1821 C   0  0  0  0  0  0  0  0  0  0  0  0
    8.3481    3.0516    0.8983 C   0  0  0  0  0  0  0  0  0  0  0  0
    2.2241    0.8101    2.5317 C   0  0  0  0  0  0  0  0  0  0  0  0
    0.9385    0.4427    2.1243 C   0  0  0  0  0  0  0  0  0  0  0  0
   -3.1200   -2.9396    0.2745 C   0  0  0  0  0  0  0  0  0  0  0  0
   -2.4546   -4.0507    0.8503 C   0  0  0  0  0  0  0  0  0  0  0  0
   -3.1759   -5.1194    1.3795 C   0  0  0  0  0  0  0  0  0  0  0  0
   -4.5633   -5.0919    1.3410 C   0  0  0  0  0  0  0  0  0  0  0  0
   -5.2182   -3.9972    0.7716 C   0  0  0  0  0  0  0  0  0  0  0  0
   -4.5223   -2.9198    0.2361 C   0  0  0  0  0  0  0  0  0  0  0  0
   -5.2206   -1.8965   -0.2879 N   0  0  0  0  0  0  0  0  0  0  0  0
   -4.9950    1.4946   -1.7942 C   0  0  0  0  0  0  0  0  0  0  0  0
   -5.8551    2.4746   -2.3109 C   0  0  0  0  0  0  0  0  0  0  0  0
   -8.4345    3.9626   -2.1498 H   0  0  0  0  0  0  0  0  0  0  0  0
   -7.6574    3.8706   -3.7503 H   0  0  0  0  0  0  0  0  0  0  0  0
   -9.0493    2.8486   -3.3931 H   0  0  0  0  0  0  0  0  0  0  0  0
   -8.7827    0.7719   -2.0930 H   0  0  0  0  0  0  0  0  0  0  0  0
   -7.2859   -0.9367   -1.2033 H   0  0  0  0  0  0  0  0  0  0  0  0
   -2.6641    0.0730   -1.2779 H   0  0  0  0  0  0  0  0  0  0  0  0
   -1.2976   -0.3613    1.3114 H   0  0  0  0  0  0  0  0  0  0  0  0
    1.7729   -1.7284   -0.3716 H   0  0  0  0  0  0  0  0  0  0  0  0
    4.0193   -1.0987    0.3445 H   0  0  0  0  0  0  0  0  0  0  0  0
    5.6183    2.7158    1.7670 H   0  0  0  0  0  0  0  0  0  0  0  0
    9.9794    2.2497   -1.4740 H   0  0  0  0  0  0  0  0  0  0  0  0
   10.3317    0.6197   -0.8661 H   0  0  0  0  0  0  0  0  0  0  0  0
    9.6262    0.8403   -2.4800 H   0  0  0  0  0  0  0  0  0  0  0  0
    8.7758    3.7677    0.1893 H   0  0  0  0  0  0  0  0  0  0  0  0
    9.1536    2.6767    1.5375 H   0  0  0  0  0  0  0  0  0  0  0  0
    7.6414    3.5958    1.5325 H   0  0  0  0  0  0  0  0  0  0  0  0
    2.3469    1.5067    3.3570 H   0  0  0  0  0  0  0  0  0  0  0  0
    0.0879    0.8730    2.6475 H   0  0  0  0  0  0  0  0  0  0  0  0
   -1.3661   -4.0943    0.8770 H   0  0  0  0  0  0  0  0  0  0  0  0
   -2.6557   -5.9694    1.8130 H   0  0  0  0  0  0  0  0  0  0  0  0
   -5.1399   -5.9187    1.7483 H   0  0  0  0  0  0  0  0  0  0  0  0
   -6.3062   -3.9845    0.7440 H   0  0  0  0  0  0  0  0  0  0  0  0
   -3.9436    1.7560   -1.7162 H   0  0  0  0  0  0  0  0  0  0  0  0
   -5.4437    3.4359   -2.6110 H   0  0  0  0  0  0  0  0  0  0  0  0
  1  2  1  0
  2  3  2  0
  3  4  1  0
  4  5  2  0
  5  6  1  0
  6  7  2  0
  7  8  1  0
  8  9  1  0
  9 10  2  0
  9 11  1  0
 11 12  1  0
 12 13  2  0
 13 14  1  0
 14 15  2  0
 15 16  1  0
 16 17  2  0
 16 18  2  0
 16 19  1  0
 19 20  1  0
 20 21  1  0
 21 22  1  0
 22 23  2  0
 23 24  1  0
 23 25  1  0
 25 26  1  0
 15 27  1  0
 27 28  2  0
  8 29  2  0
 29 30  1  0
 30 31  2  0
 31 32  1  0
 32 33  2  0
 33 34  1  0
 34 35  2  0
  5 36  1  0
 36 37  2  0
 37  2  1  0
 35  6  1  0
 28 12  1  0
 34 29  1  0
 25 20  2  0
  1 38  1  0
  1 39  1  0
  1 40  1  0
  3 41  1  0
  4 42  1  0
  7 43  1  0
 11 44  1  0
 13 45  1  0
 14 46  1  0
 19 47  1  0
 24 48  1  0
 24 49  1  0
 24 50  1  0
 26 51  1  0
 26 52  1  0
 26 53  1  0
 27 54  1  0
 28 55  1  0
 30 56  1  0
 31 57  1  0
 32 58  1  0
 33 59  1  0
 36 60  1  0
 37 61  1  0
M  END
$$$$
