
     RDKit          3D

 51 55  0  0  0  0  0  0  0  0999 V2000
   -4.2157   -0.6789   -0.4910 O   0  0  0  0  0  0  0  0  0  0  0  0
   -3.7877    0.3693    0.0063 C   0  0  0  0  0  0  0  0  0  0  0  0
   -4.5935    1.7053   -0.0806 C   0  0  0  0  0  0  0  0  0  0  0  0
   -4.2522    2.6584   -1.2596 C   0  0  0  0  0  0  0  0  0  0  0  0
   -5.4387    2.0510   -2.0278 C   0  0  0  0  0  0  0  0  0  0  0  0
   -6.0324    1.6450   -0.6682 C   0  0  0  0  0  0  0  0  0  0  0  0
   -2.5672    0.4485    0.6712 N   0  0  0  0  0  0  0  0  0  0  0  0
   -2.0014    1.6648    1.2783 C   0  0  0  0  0  0  0  0  0  0  0  0
   -0.5960    1.3215    1.7859 C   0  0  0  0  0  0  0  0  0  0  0  0
   -0.5411   -0.1560    1.5711 C   0  0  0  0  0  0  0  0  0  0  0  0
    0.4913   -1.0134    1.9211 C   0  0  0  0  0  0  0  0  0  0  0  0
    0.3604   -2.3643    1.5837 C   0  0  0  0  0  0  0  0  0  0  0  0
    1.6674   -3.5023    1.9917 S   0  0  0  0  0  6  0  0  0  0  0  0
    2.4921   -2.8921    3.0121 O   0  0  0  0  0  0  0  0  0  0  0  0
    1.0653   -4.8036    2.1928 O   0  0  0  0  0  0  0  0  0  0  0  0
    2.5399   -3.6061    0.5468 N   0  0  0  0  0  0  0  0  0  0  0  0
    2.9957   -2.4105   -0.0763 C   0  0  0  0  0  0  0  0  0  0  0  0
    2.4399   -2.0352   -1.3023 C   0  0  0  0  0  0  0  0  0  0  0  0
    2.8407   -0.8467   -1.9160 C   0  0  0  0  0  0  0  0  0  0  0  0
    3.7984   -0.0403   -1.3055 C   0  0  0  0  0  0  0  0  0  0  0  0
    4.3360   -0.4058   -0.0670 C   0  0  0  0  0  0  0  0  0  0  0  0
    3.9459   -1.5977    0.5417 C   0  0  0  0  0  0  0  0  0  0  0  0
    5.2572    0.3568    0.6048 O   0  0  0  0  0  0  0  0  0  0  0  0
    5.3335    1.6828    0.0698 C   0  0  0  0  0  0  0  0  0  0  0  0
    5.3748    1.6484   -1.4488 C   0  0  0  0  0  0  0  0  0  0  0  0
    4.1591    1.1013   -1.9736 O   0  0  0  0  0  0  0  0  0  0  0  0
   -0.7926   -2.8447    0.9395 C   0  0  0  0  0  0  0  0  0  0  0  0
   -1.8215   -1.9620    0.5939 C   0  0  0  0  0  0  0  0  0  0  0  0
   -1.6824   -0.6195    0.9112 C   0  0  0  0  0  0  0  0  0  0  0  0
   -4.6059    2.2204    0.8889 H   0  0  0  0  0  0  0  0  0  0  0  0
   -3.2752    2.5188   -1.7303 H   0  0  0  0  0  0  0  0  0  0  0  0
   -4.3772    3.7195   -1.0142 H   0  0  0  0  0  0  0  0  0  0  0  0
   -5.1642    1.1999   -2.6613 H   0  0  0  0  0  0  0  0  0  0  0  0
   -6.0341    2.7539   -2.6156 H   0  0  0  0  0  0  0  0  0  0  0  0
   -6.5326    0.6732   -0.6455 H   0  0  0  0  0  0  0  0  0  0  0  0
   -6.7096    2.3946   -0.2414 H   0  0  0  0  0  0  0  0  0  0  0  0
   -2.6515    1.9710    2.1061 H   0  0  0  0  0  0  0  0  0  0  0  0
   -1.9774    2.4756    0.5432 H   0  0  0  0  0  0  0  0  0  0  0  0
   -0.4763    1.5885    2.8400 H   0  0  0  0  0  0  0  0  0  0  0  0
    0.1701    1.8257    1.1880 H   0  0  0  0  0  0  0  0  0  0  0  0
    1.3781   -0.6414    2.4267 H   0  0  0  0  0  0  0  0  0  0  0  0
    2.1874   -4.3512   -0.0518 H   0  0  0  0  0  0  0  0  0  0  0  0
    1.6880   -2.6522   -1.7866 H   0  0  0  0  0  0  0  0  0  0  0  0
    2.4129   -0.5542   -2.8712 H   0  0  0  0  0  0  0  0  0  0  0  0
    4.3837   -1.8806    1.4954 H   0  0  0  0  0  0  0  0  0  0  0  0
    4.4716    2.2551    0.4347 H   0  0  0  0  0  0  0  0  0  0  0  0
    6.2431    2.1474    0.4630 H   0  0  0  0  0  0  0  0  0  0  0  0
    5.4815    2.6619   -1.8479 H   0  0  0  0  0  0  0  0  0  0  0  0
    6.2156    1.0462   -1.8151 H   0  0  0  0  0  0  0  0  0  0  0  0
   -0.8975   -3.9019    0.7046 H   0  0  0  0  0  0  0  0  0  0  0  0
   -2.7060   -2.3443    0.0950 H   0  0  0  0  0  0  0  0  0  0  0  0
  1  2  2  0
  2  3  1  0
  3  4  1  0
  4  5  1  0
  5  6  1  0
  2  7  1  0
  7  8  1  0
  8  9  1  0
  9 10  1  0
 10 11  2  0
 11 12  1  0
 12 13  1  0
 13 14  2  0
 13 15  2  0
 13 16  1  0
 16 17  1  0
 17 18  2  0
 18 19  1  0
 19 20  2  0
 20 21  1  0
 21 22  2  0
 21 23  1  0
 23 24  1  0
 24 25  1  0
 25 26  1  0
 12 27  2  0
 27 28  1  0
 28 29  2  0
  6  3  1  0
 29  7  1  0
 29 10  1  0
 22 17  1  0
 26 20  1  0
  3 30  1  0
  4 31  1  0
  4 32  1  0
  5 33  1  0
  5 34  1  0
  6 35  1  0
  6 36  1  0
  8 37  1  0
  8 38  1  0
  9 39  1  0
  9 40  1  0
 11 41  1  0
 16 42  1  0
 18 43  1  0
 19 44  1  0
 22 45  1  0
 24 46  1  0
 24 47  1  0
 25 48  1  0
 25 49  1  0
 27 50  1  0
 28 51  1  0
M  END
$$$$
