
     RDKit          3D

 46 49  0  0  0  0  0  0  0  0999 V2000
    3.6722    2.3781    1.0335 O   0  0  0  0  0  0  0  0  0  0  0  0
    3.3736    1.1958    0.8827 C   0  0  0  0  0  0  0  0  0  0  0  0
    3.9009    0.4082   -0.3094 C   0  0  0  0  0  0  0  0  0  0  0  0
    2.7069    0.4435   -1.6855 S   0  0  0  0  0  0  0  0  0  0  0  0
    1.4934   -0.6266   -1.0798 C   0  0  0  0  0  0  0  0  0  0  0  0
    1.6769   -1.5007   -0.1183 N   0  0  0  0  0  0  0  0  0  0  0  0
    0.4743   -2.0921    0.1428 N   0  0  0  0  0  0  0  0  0  0  0  0
   -0.4247   -1.5882   -0.6842 C   0  0  0  0  0  0  0  0  0  0  0  0
   -1.8582   -2.0087   -0.7532 C   0  0  0  0  0  0  0  0  0  0  0  0
   -2.8341   -0.9811   -0.2492 C   0  0  0  0  0  0  0  0  0  0  0  0
   -3.8954   -0.4223   -0.9353 C   0  0  0  0  0  0  0  0  0  0  0  0
   -4.6292    0.5044   -0.1391 C   0  0  0  0  0  0  0  0  0  0  0  0
   -4.1163    0.6095    1.1338 C   0  0  0  0  0  0  0  0  0  0  0  0
   -2.7489   -0.3925    1.3593 S   0  0  0  0  0  0  0  0  0  0  0  0
    0.1863   -0.6385   -1.4792 N   0  0  0  0  0  0  0  0  0  0  0  0
   -0.4377    0.2204   -2.4654 C   0  0  0  0  0  0  0  0  0  0  0  0
   -0.4082   -0.4082   -3.8078 C   0  0  0  0  0  0  0  0  0  0  0  0
    0.4497   -0.3028   -4.8834 C   0  0  0  0  0  0  0  0  0  0  0  0
   -0.0634   -1.1588   -5.8865 C   0  0  0  0  0  0  0  0  0  0  0  0
   -1.2010   -1.7294   -5.3634 C   0  0  0  0  0  0  0  0  0  0  0  0
   -1.4238   -1.2719   -4.1038 O   0  0  0  0  0  0  0  0  0  0  0  0
    2.5473    0.4540    1.7106 N   0  0  0  0  0  0  0  0  0  0  0  0
    1.8967    0.8800    2.8849 C   0  0  0  0  0  0  0  0  0  0  0  0
    0.9293    0.0180    3.4210 C   0  0  0  0  0  0  0  0  0  0  0  0
    0.2411    0.3551    4.5889 C   0  0  0  0  0  0  0  0  0  0  0  0
    0.5199    1.5554    5.2340 C   0  0  0  0  0  0  0  0  0  0  0  0
    1.4813    2.4130    4.7045 C   0  0  0  0  0  0  0  0  0  0  0  0
    1.8244    3.8985    5.5099 Cl  0  0  0  0  0  0  0  0  0  0  0  0
    2.1721    2.0831    3.5368 C   0  0  0  0  0  0  0  0  0  0  0  0
    4.8300    0.8810   -0.6442 H   0  0  0  0  0  0  0  0  0  0  0  0
    4.1528   -0.6169   -0.0172 H   0  0  0  0  0  0  0  0  0  0  0  0
   -1.9879   -2.9283   -0.1671 H   0  0  0  0  0  0  0  0  0  0  0  0
   -2.1046   -2.2820   -1.7850 H   0  0  0  0  0  0  0  0  0  0  0  0
   -4.1388   -0.6676   -1.9629 H   0  0  0  0  0  0  0  0  0  0  0  0
   -5.4982    1.0530   -0.4790 H   0  0  0  0  0  0  0  0  0  0  0  0
   -4.4822    1.2252    1.9465 H   0  0  0  0  0  0  0  0  0  0  0  0
   -1.4602    0.4340   -2.1521 H   0  0  0  0  0  0  0  0  0  0  0  0
    0.0798    1.1824   -2.4742 H   0  0  0  0  0  0  0  0  0  0  0  0
    1.3387    0.3140   -4.9369 H   0  0  0  0  0  0  0  0  0  0  0  0
    0.3465   -1.3399   -6.8703 H   0  0  0  0  0  0  0  0  0  0  0  0
   -1.9250   -2.4405   -5.7400 H   0  0  0  0  0  0  0  0  0  0  0  0
    2.2623   -0.4627    1.3625 H   0  0  0  0  0  0  0  0  0  0  0  0
    0.6856   -0.9202    2.9253 H   0  0  0  0  0  0  0  0  0  0  0  0
   -0.5133   -0.3158    4.9905 H   0  0  0  0  0  0  0  0  0  0  0  0
   -0.0131    1.8179    6.1438 H   0  0  0  0  0  0  0  0  0  0  0  0
    2.9220    2.7713    3.1628 H   0  0  0  0  0  0  0  0  0  0  0  0
  1  2  2  0
  2  3  1  0
  3  4  1  0
  4  5  1  0
  5  6  2  0
  6  7  1  0
  7  8  2  0
  8  9  1  0
  9 10  1  0
 10 11  2  0
 11 12  1  0
 12 13  2  0
 13 14  1  0
  8 15  1  0
 15 16  1  0
 16 17  1  0
 17 18  2  0
 18 19  1  0
 19 20  2  0
 20 21  1  0
  2 22  1  0
 22 23  1  0
 23 24  2  0
 24 25  1  0
 25 26  2  0
 26 27  1  0
 27 28  1  0
 27 29  2  0
 15  5  1  0
 21 17  1  0
 29 23  1  0
 14 10  1  0
  3 30  1  0
  3 31  1  0
  9 32  1  0
  9 33  1  0
 11 34  1  0
 12 35  1  0
 13 36  1  0
 16 37  1  0
 16 38  1  0
 18 39  1  0
 19 40  1  0
 20 41  1  0
 22 42  1  0
 24 43  1  0
 25 44  1  0
 26 45  1  0
 29 46  1  0
M  END
$$$$
