
     RDKit          3D

 60 64  0  0  0  0  0  0  0  0999 V2000
   -5.1788    5.1643    1.1482 C   0  0  0  0  0  0  0  0  0  0  0  0
   -5.2174    3.7219    0.7375 C   0  0  0  0  0  0  0  0  0  0  0  0
   -5.9727    2.7930    1.4616 C   0  0  0  0  0  0  0  0  0  0  0  0
   -5.9822    1.4456    1.0933 C   0  0  0  0  0  0  0  0  0  0  0  0
   -5.2329    1.0027   -0.0048 C   0  0  0  0  0  0  0  0  0  0  0  0
   -5.2279   -0.4553   -0.3903 C   0  0  0  0  0  0  0  0  0  0  0  0
   -4.2633   -1.2033    0.3887 N   0  0  0  0  0  0  0  0  0  0  0  0
   -4.6411   -1.8810    1.5023 N   0  0  0  0  0  0  0  0  0  0  0  0
   -3.5545   -2.4594    2.0135 N   0  0  0  0  0  0  0  0  0  0  0  0
   -2.5114   -2.1522    1.1960 C   0  0  0  0  0  0  0  0  0  0  0  0
   -1.1195   -2.4968    1.2754 C   0  0  0  0  0  0  0  0  0  0  0  0
   -0.5931   -3.1801    2.1459 O   0  0  0  0  0  0  0  0  0  0  0  0
   -0.3863   -1.9575    0.2251 N   0  0  0  0  0  0  0  0  0  0  0  0
   -0.9309   -1.1865   -0.7952 C   0  0  0  0  0  0  0  0  0  0  0  0
    0.0317   -0.6794   -1.8607 C   0  0  0  0  0  0  0  0  0  0  0  0
    0.7288   -1.8283   -2.6051 C   0  0  0  0  0  0  0  0  0  0  0  0
    2.2116   -1.9353   -2.2651 C   0  0  0  0  0  0  0  0  0  0  0  0
    2.8880   -0.6595   -2.5641 N   0  0  0  0  0  0  0  0  0  0  0  0
    4.5883   -0.6374   -2.5339 S   0  0  0  0  0  6  0  0  0  0  0  0
    5.0660   -1.8785   -3.1073 O   0  0  0  0  0  0  0  0  0  0  0  0
    5.0297    0.6451   -3.0415 O   0  0  0  0  0  0  0  0  0  0  0  0
    4.9451   -0.6852   -0.7879 C   0  0  0  0  0  0  0  0  0  0  0  0
    5.1136    0.5079   -0.0811 C   0  0  0  0  0  0  0  0  0  0  0  0
    5.4026    0.4654    1.2834 C   0  0  0  0  0  0  0  0  0  0  0  0
    5.5518   -0.7629    1.9383 C   0  0  0  0  0  0  0  0  0  0  0  0
    5.8416   -0.8084    3.4112 C   0  0  0  0  0  0  0  0  0  0  0  0
    5.3932   -1.9526    1.2145 C   0  0  0  0  0  0  0  0  0  0  0  0
    5.1021   -1.9175   -0.1487 C   0  0  0  0  0  0  0  0  0  0  0  0
    2.1770    0.5870   -2.2180 C   0  0  0  0  0  0  0  0  0  0  0  0
    1.0237    0.3211   -1.2610 C   0  0  0  0  0  0  0  0  0  0  0  0
   -2.1945   -0.8760   -0.8798 N   0  0  0  0  0  0  0  0  0  0  0  0
   -2.9304   -1.3756    0.1436 C   0  0  0  0  0  0  0  0  0  0  0  0
   -4.4587    1.9313   -0.7149 C   0  0  0  0  0  0  0  0  0  0  0  0
   -4.4511    3.2783   -0.3460 C   0  0  0  0  0  0  0  0  0  0  0  0
   -6.0352    5.4192    1.7829 H   0  0  0  0  0  0  0  0  0  0  0  0
   -4.2591    5.3704    1.7047 H   0  0  0  0  0  0  0  0  0  0  0  0
   -5.2199    5.8163    0.2692 H   0  0  0  0  0  0  0  0  0  0  0  0
   -6.5580    3.1106    2.3220 H   0  0  0  0  0  0  0  0  0  0  0  0
   -6.5727    0.7408    1.6780 H   0  0  0  0  0  0  0  0  0  0  0  0
   -6.2180   -0.9031   -0.2358 H   0  0  0  0  0  0  0  0  0  0  0  0
   -4.9810   -0.5837   -1.4516 H   0  0  0  0  0  0  0  0  0  0  0  0
    0.5991   -2.1628    0.2667 H   0  0  0  0  0  0  0  0  0  0  0  0
   -0.5809   -0.1439   -2.6000 H   0  0  0  0  0  0  0  0  0  0  0  0
    0.2344   -2.7862   -2.4199 H   0  0  0  0  0  0  0  0  0  0  0  0
    0.6390   -1.6427   -3.6814 H   0  0  0  0  0  0  0  0  0  0  0  0
    2.6436   -2.7388   -2.8717 H   0  0  0  0  0  0  0  0  0  0  0  0
    2.3438   -2.1968   -1.2112 H   0  0  0  0  0  0  0  0  0  0  0  0
    5.0282    1.4692   -0.5812 H   0  0  0  0  0  0  0  0  0  0  0  0
    5.5238    1.3979    1.8310 H   0  0  0  0  0  0  0  0  0  0  0  0
    4.9076   -0.9164    3.9765 H   0  0  0  0  0  0  0  0  0  0  0  0
    6.3486    0.1056    3.7394 H   0  0  0  0  0  0  0  0  0  0  0  0
    6.5023   -1.6482    3.6504 H   0  0  0  0  0  0  0  0  0  0  0  0
    5.5082   -2.9139    1.7108 H   0  0  0  0  0  0  0  0  0  0  0  0
    5.0066   -2.8483   -0.7029 H   0  0  0  0  0  0  0  0  0  0  0  0
    2.8470    1.3188   -1.7620 H   0  0  0  0  0  0  0  0  0  0  0  0
    1.8041    1.0292   -3.1470 H   0  0  0  0  0  0  0  0  0  0  0  0
    1.4230   -0.0394   -0.3058 H   0  0  0  0  0  0  0  0  0  0  0  0
    0.5038    1.2597   -1.0365 H   0  0  0  0  0  0  0  0  0  0  0  0
   -3.8473    1.6102   -1.5556 H   0  0  0  0  0  0  0  0  0  0  0  0
   -3.8390    3.9814   -0.9075 H   0  0  0  0  0  0  0  0  0  0  0  0
  1  2  1  0
  2  3  2  0
  3  4  1  0
  4  5  2  0
  5  6  1  0
  6  7  1  0
  7  8  1  0
  8  9  2  0
  9 10  1  0
 10 11  1  0
 11 12  2  0
 11 13  1  0
 13 14  1  0
 14 15  1  0
 15 16  1  0
 16 17  1  0
 17 18  1  0
 18 19  1  0
 19 20  2  0
 19 21  2  0
 19 22  1  0
 22 23  2  0
 23 24  1  0
 24 25  2  0
 25 26  1  0
 25 27  1  0
 27 28  2  0
 18 29  1  0
 29 30  1  0
 14 31  2  0
 31 32  1  0
  5 33  1  0
 33 34  2  0
 34  2  1  0
 32  7  1  0
 32 10  2  0
 30 15  1  0
 28 22  1  0
  1 35  1  0
  1 36  1  0
  1 37  1  0
  3 38  1  0
  4 39  1  0
  6 40  1  0
  6 41  1  0
 13 42  1  0
 15 43  1  0
 16 44  1  0
 16 45  1  0
 17 46  1  0
 17 47  1  0
 23 48  1  0
 24 49  1  0
 26 50  1  0
 26 51  1  0
 26 52  1  0
 27 53  1  0
 28 54  1  0
 29 55  1  0
 29 56  1  0
 30 57  1  0
 30 58  1  0
 33 59  1  0
 34 60  1  0
M  END
$$$$
