
     RDKit          3D

 38 40  0  0  0  0  0  0  0  0999 V2000
   -4.9326    2.2170   -2.2687 C   0  0  0  0  0  0  0  0  0  0  0  0
   -4.0387    1.7136   -1.1732 C   0  0  0  0  0  0  0  0  0  0  0  0
   -2.7003    2.1251   -1.1072 C   0  0  0  0  0  0  0  0  0  0  0  0
   -1.8751    1.6861   -0.0706 C   0  0  0  0  0  0  0  0  0  0  0  0
   -2.3931    0.8307    0.9047 C   0  0  0  0  0  0  0  0  0  0  0  0
   -1.3574    0.2745    2.2329 S   0  0  0  0  0  6  0  0  0  0  0  0
   -2.1793    0.2138    3.4241 O   0  0  0  0  0  0  0  0  0  0  0  0
   -0.1240    1.0311    2.2181 O   0  0  0  0  0  0  0  0  0  0  0  0
   -1.0375   -1.3326    1.8075 N   0  0  0  0  0  0  0  0  0  0  0  0
    0.0053   -1.5760    0.8722 C   0  0  0  0  0  0  0  0  0  0  0  0
   -0.2668   -1.5303   -0.4930 C   0  0  0  0  0  0  0  0  0  0  0  0
    0.7654   -1.7240   -1.4087 C   0  0  0  0  0  0  0  0  0  0  0  0
    2.0650   -1.9467   -0.9555 C   0  0  0  0  0  0  0  0  0  0  0  0
    3.0154   -2.1074   -1.9261 O   0  0  0  0  0  0  0  0  0  0  0  0
    2.3535   -1.9973    0.4163 C   0  0  0  0  0  0  0  0  0  0  0  0
    3.9673   -2.3811    1.0809 S   0  0  0  0  0  0  0  0  0  0  0  0
    4.9109   -1.0140    0.5671 C   0  0  0  0  0  0  0  0  0  0  0  0
    5.0427   -0.6681   -0.7544 N   0  0  0  0  0  0  0  0  0  0  0  0
    5.8298    0.3819   -0.7024 C   0  0  0  0  0  0  0  0  0  0  0  0
    6.1638    0.6368    0.5906 N   0  0  0  0  0  0  0  0  0  0  0  0
    5.6021   -0.2553    1.4204 N   0  0  0  0  0  0  0  0  0  0  0  0
    1.3052   -1.8062    1.3280 C   0  0  0  0  0  0  0  0  0  0  0  0
   -3.7320    0.4338    0.8676 C   0  0  0  0  0  0  0  0  0  0  0  0
   -4.5515    0.8778   -0.1712 C   0  0  0  0  0  0  0  0  0  0  0  0
   -4.3608    2.4091   -3.1827 H   0  0  0  0  0  0  0  0  0  0  0  0
   -5.4217    3.1445   -1.9558 H   0  0  0  0  0  0  0  0  0  0  0  0
   -5.7006    1.4767   -2.5162 H   0  0  0  0  0  0  0  0  0  0  0  0
   -2.2934    2.7935   -1.8634 H   0  0  0  0  0  0  0  0  0  0  0  0
   -0.8377    2.0110   -0.0331 H   0  0  0  0  0  0  0  0  0  0  0  0
   -1.0835   -1.9336    2.6300 H   0  0  0  0  0  0  0  0  0  0  0  0
   -1.2766   -1.3586   -0.8550 H   0  0  0  0  0  0  0  0  0  0  0  0
    0.5621   -1.6952   -2.4759 H   0  0  0  0  0  0  0  0  0  0  0  0
    3.8724   -1.8075   -1.5544 H   0  0  0  0  0  0  0  0  0  0  0  0
    6.1804    0.9750   -1.5354 H   0  0  0  0  0  0  0  0  0  0  0  0
    6.7526    1.3701    0.9708 H   0  0  0  0  0  0  0  0  0  0  0  0
    1.5046   -1.8268    2.3968 H   0  0  0  0  0  0  0  0  0  0  0  0
   -4.1408   -0.2127    1.6407 H   0  0  0  0  0  0  0  0  0  0  0  0
   -5.5954    0.5715   -0.1935 H   0  0  0  0  0  0  0  0  0  0  0  0
  1  2  1  0
  2  3  2  0
  3  4  1  0
  4  5  2  0
  5  6  1  0
  6  7  2  0
  6  8  2  0
  6  9  1  0
  9 10  1  0
 10 11  2  0
 11 12  1  0
 12 13  2  0
 13 14  1  0
 13 15  1  0
 15 16  1  0
 16 17  1  0
 17 18  1  0
 18 19  2  0
 19 20  1  0
 20 21  1  0
 15 22  2  0
  5 23  1  0
 23 24  2  0
 24  2  1  0
 22 10  1  0
 21 17  2  0
  1 25  1  0
  1 26  1  0
  1 27  1  0
  3 28  1  0
  4 29  1  0
  9 30  1  0
 11 31  1  0
 12 32  1  0
 14 33  1  0
 19 34  1  0
 20 35  1  0
 22 36  1  0
 23 37  1  0
 24 38  1  0
M  END
$$$$
