
     RDKit          3D

 36 35  0  0  0  0  0  0  0  0999 V2000
    2.2489   -2.7444   -0.4983 C   0  0  0  0  0  0  0  0  0  0  0  0
    2.3582   -2.0617   -1.8522 C   0  0  0  0  0  0  0  0  0  0  0  0
    2.1317   -0.6033   -1.7833 N   0  0  0  0  0  0  0  0  0  0  0  0
    3.2870    0.1807   -1.3000 C   0  0  0  0  0  0  0  0  0  0  0  0
    3.1899    0.5843    0.1649 C   0  0  0  0  0  0  0  0  0  0  0  0
    0.9301    0.0274   -2.1838 C   0  0  0  0  0  0  0  0  0  0  0  0
    0.6605    1.6956   -2.1830 S   0  0  0  0  0  0  0  0  0  0  0  0
   -0.3650   -1.0089   -2.8159 S   0  0  0  0  0  0  0  0  0  0  0  0
   -1.4467   -1.4759   -1.1193 S   0  0  0  0  0  0  0  0  0  0  0  0
   -2.5116   -0.0649   -0.9021 C   0  0  0  0  0  0  0  0  0  0  0  0
   -3.5883    0.3680   -2.1316 S   0  0  0  0  0  0  0  0  0  0  0  0
   -2.4186    0.5879    0.3467 N   0  0  0  0  0  0  0  0  0  0  0  0
   -1.7743   -0.0029    1.5333 C   0  0  0  0  0  0  0  0  0  0  0  0
   -0.3190    0.4078    1.6836 C   0  0  0  0  0  0  0  0  0  0  0  0
   -3.0209    1.9152    0.5662 C   0  0  0  0  0  0  0  0  0  0  0  0
   -4.4189    1.8350    1.1646 C   0  0  0  0  0  0  0  0  0  0  0  0
    2.3002   -3.8311   -0.6190 H   0  0  0  0  0  0  0  0  0  0  0  0
    1.3099   -2.4975    0.0043 H   0  0  0  0  0  0  0  0  0  0  0  0
    3.0713   -2.4495    0.1596 H   0  0  0  0  0  0  0  0  0  0  0  0
    1.6696   -2.5425   -2.5486 H   0  0  0  0  0  0  0  0  0  0  0  0
    3.3553   -2.2326   -2.2754 H   0  0  0  0  0  0  0  0  0  0  0  0
    3.4047    1.0750   -1.9207 H   0  0  0  0  0  0  0  0  0  0  0  0
    4.2003   -0.4066   -1.4502 H   0  0  0  0  0  0  0  0  0  0  0  0
    2.3486    1.2568    0.3482 H   0  0  0  0  0  0  0  0  0  0  0  0
    4.1025    1.1070    0.4689 H   0  0  0  0  0  0  0  0  0  0  0  0
    3.0664   -0.2836    0.8173 H   0  0  0  0  0  0  0  0  0  0  0  0
   -1.8553   -1.0936    1.5049 H   0  0  0  0  0  0  0  0  0  0  0  0
   -2.3324    0.3121    2.4222 H   0  0  0  0  0  0  0  0  0  0  0  0
    0.0963   -0.0048    2.6084 H   0  0  0  0  0  0  0  0  0  0  0  0
    0.2857    0.0387    0.8531 H   0  0  0  0  0  0  0  0  0  0  0  0
   -0.2122    1.4964    1.7184 H   0  0  0  0  0  0  0  0  0  0  0  0
   -3.0518    2.4761   -0.3729 H   0  0  0  0  0  0  0  0  0  0  0  0
   -2.3650    2.4840    1.2354 H   0  0  0  0  0  0  0  0  0  0  0  0
   -4.8299    2.8407    1.2971 H   0  0  0  0  0  0  0  0  0  0  0  0
   -5.1019    1.2700    0.5237 H   0  0  0  0  0  0  0  0  0  0  0  0
   -4.4053    1.3453    2.1433 H   0  0  0  0  0  0  0  0  0  0  0  0
  1  2  1  0
  2  3  1  0
  3  4  1  0
  4  5  1  0
  3  6  1  0
  6  7  2  0
  6  8  1  0
  8  9  1  0
  9 10  1  0
 10 11  2  0
 10 12  1  0
 12 13  1  0
 13 14  1  0
 12 15  1  0
 15 16  1  0
  1 17  1  0
  1 18  1  0
  1 19  1  0
  2 20  1  0
  2 21  1  0
  4 22  1  0
  4 23  1  0
  5 24  1  0
  5 25  1  0
  5 26  1  0
 13 27  1  0
 13 28  1  0
 14 29  1  0
 14 30  1  0
 14 31  1  0
 15 32  1  0
 15 33  1  0
 16 34  1  0
 16 35  1  0
 16 36  1  0
M  END
$$$$
