
     RDKit          3D

 46 49  0  0  0  0  0  0  0  0999 V2000
    3.3961    2.9770   -1.2548 O   0  0  0  0  0  0  0  0  0  0  0  0
    2.8958    2.1088   -0.5383 C   0  0  0  0  0  0  0  0  0  0  0  0
    1.7836    2.5131    0.4248 C   0  0  0  0  0  0  0  0  0  0  0  0
    1.0927    1.2004    1.4706 S   0  0  0  0  0  0  0  0  0  0  0  0
    0.0352    0.4230    0.3492 C   0  0  0  0  0  0  0  0  0  0  0  0
    0.3482    0.1041   -0.8818 N   0  0  0  0  0  0  0  0  0  0  0  0
   -0.7482   -0.5022   -1.4410 N   0  0  0  0  0  0  0  0  0  0  0  0
   -1.7127   -0.5430   -0.5372 C   0  0  0  0  0  0  0  0  0  0  0  0
   -3.0859   -1.0960   -0.7627 C   0  0  0  0  0  0  0  0  0  0  0  0
   -3.4012   -2.3433    0.0188 C   0  0  0  0  0  0  0  0  0  0  0  0
   -4.5180   -2.5894    0.7969 C   0  0  0  0  0  0  0  0  0  0  0  0
   -4.5092   -3.8942    1.3697 C   0  0  0  0  0  0  0  0  0  0  0  0
   -3.3833   -4.6027    1.0181 C   0  0  0  0  0  0  0  0  0  0  0  0
   -2.3618   -3.7070   -0.0210 S   0  0  0  0  0  0  0  0  0  0  0  0
   -1.2596    0.0591    0.6168 N   0  0  0  0  0  0  0  0  0  0  0  0
   -2.0093    0.3009    1.8337 C   0  0  0  0  0  0  0  0  0  0  0  0
   -2.6328    1.6520    1.8325 C   0  0  0  0  0  0  0  0  0  0  0  0
   -2.8759    2.6131    0.8689 C   0  0  0  0  0  0  0  0  0  0  0  0
   -3.5354    3.6816    1.5239 C   0  0  0  0  0  0  0  0  0  0  0  0
   -3.6568    3.3069    2.8404 C   0  0  0  0  0  0  0  0  0  0  0  0
   -3.1096    2.0808    3.0398 O   0  0  0  0  0  0  0  0  0  0  0  0
    3.2864    0.7889   -0.5085 N   0  0  0  0  0  0  0  0  0  0  0  0
    4.2754    0.1388   -1.2828 C   0  0  0  0  0  0  0  0  0  0  0  0
    5.0833    0.8039   -2.2099 C   0  0  0  0  0  0  0  0  0  0  0  0
    6.0346    0.1003   -2.9585 C   0  0  0  0  0  0  0  0  0  0  0  0
    6.1983   -1.2694   -2.7706 C   0  0  0  0  0  0  0  0  0  0  0  0
    7.3772   -2.1203   -3.6904 Cl  0  0  0  0  0  0  0  0  0  0  0  0
    5.4145   -1.9507   -1.8456 C   0  0  0  0  0  0  0  0  0  0  0  0
    4.4562   -1.2478   -1.1100 C   0  0  0  0  0  0  0  0  0  0  0  0
    3.4964   -2.1360    0.0272 Cl  0  0  0  0  0  0  0  0  0  0  0  0
    2.2112    3.2598    1.1036 H   0  0  0  0  0  0  0  0  0  0  0  0
    0.9824    2.9938   -0.1459 H   0  0  0  0  0  0  0  0  0  0  0  0
   -3.2124   -1.3118   -1.8322 H   0  0  0  0  0  0  0  0  0  0  0  0
   -3.8230   -0.3163   -0.5233 H   0  0  0  0  0  0  0  0  0  0  0  0
   -5.3199   -1.8732    0.9306 H   0  0  0  0  0  0  0  0  0  0  0  0
   -5.2903   -4.2961    2.0050 H   0  0  0  0  0  0  0  0  0  0  0  0
   -3.1185   -5.6118    1.3034 H   0  0  0  0  0  0  0  0  0  0  0  0
   -1.3361    0.1699    2.6878 H   0  0  0  0  0  0  0  0  0  0  0  0
   -2.7893   -0.4620    1.9298 H   0  0  0  0  0  0  0  0  0  0  0  0
   -2.6151    2.5566   -0.1813 H   0  0  0  0  0  0  0  0  0  0  0  0
   -3.8846    4.6089    1.0901 H   0  0  0  0  0  0  0  0  0  0  0  0
   -4.0918    3.7772    3.7165 H   0  0  0  0  0  0  0  0  0  0  0  0
    2.7374    0.1721    0.0871 H   0  0  0  0  0  0  0  0  0  0  0  0
    4.9923    1.8684   -2.3891 H   0  0  0  0  0  0  0  0  0  0  0  0
    6.6402    0.6331   -3.6893 H   0  0  0  0  0  0  0  0  0  0  0  0
    5.5435   -3.0195   -1.7015 H   0  0  0  0  0  0  0  0  0  0  0  0
  1  2  2  0
  2  3  1  0
  3  4  1  0
  4  5  1  0
  5  6  2  0
  6  7  1  0
  7  8  2  0
  8  9  1  0
  9 10  1  0
 10 11  2  0
 11 12  1  0
 12 13  2  0
 13 14  1  0
  8 15  1  0
 15 16  1  0
 16 17  1  0
 17 18  2  0
 18 19  1  0
 19 20  2  0
 20 21  1  0
  2 22  1  0
 22 23  1  0
 23 24  2  0
 24 25  1  0
 25 26  2  0
 26 27  1  0
 26 28  1  0
 28 29  2  0
 29 30  1  0
 15  5  1  0
 21 17  1  0
 29 23  1  0
 14 10  1  0
  3 31  1  0
  3 32  1  0
  9 33  1  0
  9 34  1  0
 11 35  1  0
 12 36  1  0
 13 37  1  0
 16 38  1  0
 16 39  1  0
 18 40  1  0
 19 41  1  0
 20 42  1  0
 22 43  1  0
 24 44  1  0
 25 45  1  0
 28 46  1  0
M  END
$$$$
