
     RDKit          3D

 44 46  0  0  0  0  0  0  0  0999 V2000
   -3.7013   -2.6959   -1.0457 C   0  0  0  0  0  0  0  0  0  0  0  0
   -3.2131   -1.4948   -0.2907 C   0  0  0  0  0  0  0  0  0  0  0  0
   -2.6800   -1.6325    0.9910 C   0  0  0  0  0  0  0  0  0  0  0  0
   -2.1864   -0.5276    1.7125 C   0  0  0  0  0  0  0  0  0  0  0  0
   -1.6764   -0.8087    3.1007 C   0  0  0  0  0  0  0  0  0  0  0  0
   -2.2109    0.7527    1.1051 C   0  0  0  0  0  0  0  0  0  0  0  0
   -1.5607    2.2070    1.9631 S   0  0  0  0  0  6  0  0  0  0  0  0
   -1.2469    1.8875    3.3385 O   0  0  0  0  0  0  0  0  0  0  0  0
   -2.4309    3.3275    1.6710 O   0  0  0  0  0  0  0  0  0  0  0  0
   -0.1060    2.5168    1.1519 N   0  0  0  0  0  0  0  0  0  0  0  0
    0.8538    1.4760    1.0302 C   0  0  0  0  0  0  0  0  0  0  0  0
    1.5660    1.0424    2.1449 C   0  0  0  0  0  0  0  0  0  0  0  0
    2.4699   -0.0112    2.0217 C   0  0  0  0  0  0  0  0  0  0  0  0
    2.6600   -0.6255    0.7846 C   0  0  0  0  0  0  0  0  0  0  0  0
    3.5684   -1.6476    0.7617 O   0  0  0  0  0  0  0  0  0  0  0  0
    1.9442   -0.2054   -0.3456 C   0  0  0  0  0  0  0  0  0  0  0  0
    2.0385   -1.0016   -1.9424 S   0  0  0  0  0  0  0  0  0  0  0  0
    3.6884   -0.7031   -2.4019 C   0  0  0  0  0  0  0  0  0  0  0  0
    4.7474   -1.1844   -1.6752 N   0  0  0  0  0  0  0  0  0  0  0  0
    5.7856   -0.7636   -2.3605 C   0  0  0  0  0  0  0  0  0  0  0  0
    5.3606   -0.0711   -3.4507 N   0  0  0  0  0  0  0  0  0  0  0  0
    4.0200   -0.0232   -3.5019 N   0  0  0  0  0  0  0  0  0  0  0  0
    1.0364    0.8550   -0.2076 C   0  0  0  0  0  0  0  0  0  0  0  0
   -2.7498    0.9045   -0.2014 C   0  0  0  0  0  0  0  0  0  0  0  0
   -2.8763    2.2217   -0.9221 C   0  0  0  0  0  0  0  0  0  0  0  0
   -3.2397   -0.2299   -0.8760 C   0  0  0  0  0  0  0  0  0  0  0  0
   -4.5085   -2.4239   -1.7339 H   0  0  0  0  0  0  0  0  0  0  0  0
   -4.1003   -3.4526   -0.3619 H   0  0  0  0  0  0  0  0  0  0  0  0
   -2.8799   -3.1355   -1.6198 H   0  0  0  0  0  0  0  0  0  0  0  0
   -2.6532   -2.6246    1.4420 H   0  0  0  0  0  0  0  0  0  0  0  0
   -1.7262   -1.8776    3.3388 H   0  0  0  0  0  0  0  0  0  0  0  0
   -2.2928   -0.2974    3.8460 H   0  0  0  0  0  0  0  0  0  0  0  0
   -0.6266   -0.5251    3.1991 H   0  0  0  0  0  0  0  0  0  0  0  0
   -0.2270    3.1545    0.3685 H   0  0  0  0  0  0  0  0  0  0  0  0
    1.4215    1.5162    3.1131 H   0  0  0  0  0  0  0  0  0  0  0  0
    3.0267   -0.3553    2.8894 H   0  0  0  0  0  0  0  0  0  0  0  0
    3.9152   -1.7271   -0.1519 H   0  0  0  0  0  0  0  0  0  0  0  0
    6.8287   -0.9248   -2.1270 H   0  0  0  0  0  0  0  0  0  0  0  0
    5.9050    0.3780   -4.1793 H   0  0  0  0  0  0  0  0  0  0  0  0
    0.4552    1.1818   -1.0662 H   0  0  0  0  0  0  0  0  0  0  0  0
   -1.9359    2.7760   -0.9166 H   0  0  0  0  0  0  0  0  0  0  0  0
   -3.6765    2.8223   -0.4801 H   0  0  0  0  0  0  0  0  0  0  0  0
   -3.1305    2.0749   -1.9783 H   0  0  0  0  0  0  0  0  0  0  0  0
   -3.6555   -0.1250   -1.8779 H   0  0  0  0  0  0  0  0  0  0  0  0
  1  2  1  0
  2  3  2  0
  3  4  1  0
  4  5  1  0
  4  6  2  0
  6  7  1  0
  7  8  2  0
  7  9  2  0
  7 10  1  0
 10 11  1  0
 11 12  2  0
 12 13  1  0
 13 14  2  0
 14 15  1  0
 14 16  1  0
 16 17  1  0
 17 18  1  0
 18 19  1  0
 19 20  2  0
 20 21  1  0
 21 22  1  0
 16 23  2  0
  6 24  1  0
 24 25  1  0
 24 26  2  0
 26  2  1  0
 23 11  1  0
 22 18  2  0
  1 27  1  0
  1 28  1  0
  1 29  1  0
  3 30  1  0
  5 31  1  0
  5 32  1  0
  5 33  1  0
 10 34  1  0
 12 35  1  0
 13 36  1  0
 15 37  1  0
 20 38  1  0
 21 39  1  0
 23 40  1  0
 25 41  1  0
 25 42  1  0
 25 43  1  0
 26 44  1  0
M  END
$$$$
