
     RDKit          3D

 43 45  0  0  0  0  0  0  0  0999 V2000
    6.6860   -1.5753   -1.7459 C   0  0  0  0  0  0  0  0  0  0  0  0
    5.3463   -2.0461   -1.8094 O   0  0  0  0  0  0  0  0  0  0  0  0
    4.3843   -1.2808   -1.2091 C   0  0  0  0  0  0  0  0  0  0  0  0
    3.0964   -1.8109   -1.2796 C   0  0  0  0  0  0  0  0  0  0  0  0
    2.0122   -1.1380   -0.7102 C   0  0  0  0  0  0  0  0  0  0  0  0
    2.1980    0.0762   -0.0467 C   0  0  0  0  0  0  0  0  0  0  0  0
    1.1415    0.8276    0.5226 N   0  0  0  0  0  0  0  0  0  0  0  0
   -0.1016    0.4056    0.9188 C   0  0  0  0  0  0  0  0  0  0  0  0
   -0.5338   -0.8157    0.8687 N   0  0  0  0  0  0  0  0  0  0  0  0
   -1.8119   -0.9977    1.3460 C   0  0  0  0  0  0  0  0  0  0  0  0
   -2.3138   -2.1104    1.4683 O   0  0  0  0  0  0  0  0  0  0  0  0
   -2.6642    0.1943    1.7737 C   0  0  0  0  0  0  0  0  0  0  0  0
   -4.0994   -0.0587    2.1479 C   0  0  0  0  0  0  0  0  0  0  0  0
   -5.0071   -0.0558    0.9432 C   0  0  0  0  0  0  0  0  0  0  0  0
   -5.4833    1.1531    0.4170 C   0  0  0  0  0  0  0  0  0  0  0  0
   -6.3046    1.1585   -0.7114 C   0  0  0  0  0  0  0  0  0  0  0  0
   -6.6523   -0.0422   -1.3272 C   0  0  0  0  0  0  0  0  0  0  0  0
   -6.1771   -1.2488   -0.8172 C   0  0  0  0  0  0  0  0  0  0  0  0
   -5.3564   -1.2568    0.3115 C   0  0  0  0  0  0  0  0  0  0  0  0
   -2.1637    1.3985    1.7876 N   0  0  0  0  0  0  0  0  0  0  0  0
   -0.8548    1.4607    1.4022 N   0  0  0  0  0  0  0  0  0  0  0  0
    3.5043    0.6214    0.0074 C   0  0  0  0  0  0  0  0  0  0  0  0
    3.5902    1.8333    0.6616 O   0  0  0  0  0  0  0  0  0  0  0  0
    4.8794    2.4274    0.7584 C   0  0  0  0  0  0  0  0  0  0  0  0
    4.5876   -0.0588   -0.5662 C   0  0  0  0  0  0  0  0  0  0  0  0
    6.7931   -0.6200   -2.2702 H   0  0  0  0  0  0  0  0  0  0  0  0
    7.0292   -1.4986   -0.7089 H   0  0  0  0  0  0  0  0  0  0  0  0
    7.3220   -2.3067   -2.2538 H   0  0  0  0  0  0  0  0  0  0  0  0
    2.9287   -2.7588   -1.7860 H   0  0  0  0  0  0  0  0  0  0  0  0
    1.0259   -1.5821   -0.8074 H   0  0  0  0  0  0  0  0  0  0  0  0
    1.5209    1.6392    1.0002 H   0  0  0  0  0  0  0  0  0  0  0  0
   -4.4237    0.7230    2.8466 H   0  0  0  0  0  0  0  0  0  0  0  0
   -4.1864   -1.0020    2.6985 H   0  0  0  0  0  0  0  0  0  0  0  0
   -5.2135    2.0994    0.8819 H   0  0  0  0  0  0  0  0  0  0  0  0
   -6.6706    2.1002   -1.1119 H   0  0  0  0  0  0  0  0  0  0  0  0
   -7.2901   -0.0379   -2.2071 H   0  0  0  0  0  0  0  0  0  0  0  0
   -6.4419   -2.1858   -1.3004 H   0  0  0  0  0  0  0  0  0  0  0  0
   -4.9867   -2.2084    0.6907 H   0  0  0  0  0  0  0  0  0  0  0  0
   -0.5102    2.3937    1.1893 H   0  0  0  0  0  0  0  0  0  0  0  0
    5.5647    1.7927    1.3297 H   0  0  0  0  0  0  0  0  0  0  0  0
    5.2828    2.6587   -0.2328 H   0  0  0  0  0  0  0  0  0  0  0  0
    4.7711    3.3714    1.3012 H   0  0  0  0  0  0  0  0  0  0  0  0
    5.5825    0.3614   -0.5149 H   0  0  0  0  0  0  0  0  0  0  0  0
  1  2  1  0
  2  3  1  0
  3  4  2  0
  4  5  1  0
  5  6  2  0
  6  7  1  0
  7  8  1  0
  8  9  2  0
  9 10  1  0
 10 11  2  0
 10 12  1  0
 12 13  1  0
 13 14  1  0
 14 15  2  0
 15 16  1  0
 16 17  2  0
 17 18  1  0
 18 19  2  0
 12 20  2  0
 20 21  1  0
  6 22  1  0
 22 23  1  0
 23 24  1  0
 22 25  2  0
 25  3  1  0
 21  8  1  0
 19 14  1  0
  1 26  1  0
  1 27  1  0
  1 28  1  0
  4 29  1  0
  5 30  1  0
  7 31  1  0
 13 32  1  0
 13 33  1  0
 15 34  1  0
 16 35  1  0
 17 36  1  0
 18 37  1  0
 19 38  1  0
 21 39  1  0
 24 40  1  0
 24 41  1  0
 24 42  1  0
 25 43  1  0
M  END
$$$$
