
     RDKit          3D

 40 42  0  0  0  0  0  0  0  0999 V2000
    2.1256   -0.2233    2.0438 O   0  0  0  0  0  0  0  0  0  0  0  0
    2.5821    0.0425    0.9391 C   0  0  0  0  0  0  0  0  0  0  0  0
    1.9922   -0.2025   -0.2877 N   0  0  0  0  0  0  0  0  0  0  0  0
    0.7167   -0.7554   -0.5288 C   0  0  0  0  0  0  0  0  0  0  0  0
    0.3518   -0.9566   -1.8684 C   0  0  0  0  0  0  0  0  0  0  0  0
   -0.8975   -1.4901   -2.1979 C   0  0  0  0  0  0  0  0  0  0  0  0
   -1.7938   -1.8174   -1.1794 C   0  0  0  0  0  0  0  0  0  0  0  0
   -3.3784   -2.5129   -1.5966 S   0  0  0  0  0  6  0  0  0  0  0  0
   -3.9034   -3.1742   -0.4203 O   0  0  0  0  0  0  0  0  0  0  0  0
   -3.2122   -3.2351   -2.8413 O   0  0  0  0  0  0  0  0  0  0  0  0
   -4.3244   -1.1666   -1.9473 N   0  0  0  0  0  0  0  0  0  0  0  0
   -4.4047   -0.1762   -0.9524 C   0  0  0  0  0  0  0  0  0  0  0  0
   -5.0281   -0.3746    0.2670 C   0  0  0  0  0  0  0  0  0  0  0  0
   -5.0077    0.6715    1.1831 C   0  0  0  0  0  0  0  0  0  0  0  0
   -4.3727    1.8614    0.8421 C   0  0  0  0  0  0  0  0  0  0  0  0
   -3.7860    1.9575   -0.4108 C   0  0  0  0  0  0  0  0  0  0  0  0
   -3.7901    0.9605   -1.3231 N   0  0  0  0  0  0  0  0  0  0  0  0
   -1.4376   -1.6430    0.1588 C   0  0  0  0  0  0  0  0  0  0  0  0
   -0.1870   -1.1035    0.4788 C   0  0  0  0  0  0  0  0  0  0  0  0
    3.9325    0.6675    0.8709 C   0  0  0  0  0  0  0  0  0  0  0  0
    4.2454    1.6410   -0.0887 C   0  0  0  0  0  0  0  0  0  0  0  0
    5.5220    2.2067   -0.1171 C   0  0  0  0  0  0  0  0  0  0  0  0
    6.4826    1.8096    0.8141 C   0  0  0  0  0  0  0  0  0  0  0  0
    6.1615    0.8544    1.7785 C   0  0  0  0  0  0  0  0  0  0  0  0
    7.4633    0.3305    3.0453 Br  0  0  0  0  0  0  0  0  0  0  0  0
    4.8910    0.2843    1.8168 C   0  0  0  0  0  0  0  0  0  0  0  0
    2.5533   -0.0261   -1.1105 H   0  0  0  0  0  0  0  0  0  0  0  0
    1.0350   -0.7041   -2.6756 H   0  0  0  0  0  0  0  0  0  0  0  0
   -1.1587   -1.6473   -3.2419 H   0  0  0  0  0  0  0  0  0  0  0  0
   -4.0658   -0.7583   -2.8424 H   0  0  0  0  0  0  0  0  0  0  0  0
   -5.5179   -1.3125    0.5042 H   0  0  0  0  0  0  0  0  0  0  0  0
   -5.4816    0.5582    2.1543 H   0  0  0  0  0  0  0  0  0  0  0  0
   -4.3370    2.6947    1.5357 H   0  0  0  0  0  0  0  0  0  0  0  0
   -3.2806    2.8681   -0.7207 H   0  0  0  0  0  0  0  0  0  0  0  0
   -2.1206   -1.9160    0.9602 H   0  0  0  0  0  0  0  0  0  0  0  0
    0.0516   -0.9709    1.5299 H   0  0  0  0  0  0  0  0  0  0  0  0
    3.4996    1.9913   -0.7975 H   0  0  0  0  0  0  0  0  0  0  0  0
    5.7666    2.9658   -0.8568 H   0  0  0  0  0  0  0  0  0  0  0  0
    7.4735    2.2570    0.7873 H   0  0  0  0  0  0  0  0  0  0  0  0
    4.6393   -0.4557    2.5737 H   0  0  0  0  0  0  0  0  0  0  0  0
  1  2  2  0
  2  3  1  0
  3  4  1  0
  4  5  2  0
  5  6  1  0
  6  7  2  0
  7  8  1  0
  8  9  2  0
  8 10  2  0
  8 11  1  0
 11 12  1  0
 12 13  2  0
 13 14  1  0
 14 15  2  0
 15 16  1  0
 16 17  2  0
  7 18  1  0
 18 19  2  0
  2 20  1  0
 20 21  2  0
 21 22  1  0
 22 23  2  0
 23 24  1  0
 24 25  1  0
 24 26  2  0
 19  4  1  0
 26 20  1  0
 17 12  1  0
  3 27  1  0
  5 28  1  0
  6 29  1  0
 11 30  1  0
 13 31  1  0
 14 32  1  0
 15 33  1  0
 16 34  1  0
 18 35  1  0
 19 36  1  0
 21 37  1  0
 22 38  1  0
 23 39  1  0
 26 40  1  0
M  END
$$$$
