
     RDKit          3D

 46 48  0  0  0  0  0  0  0  0999 V2000
   -3.1581    1.8137    1.0129 O   0  0  0  0  0  0  0  0  0  0  0  0
   -2.9427    0.6277    0.8006 C   0  0  0  0  0  0  0  0  0  0  0  0
   -3.8815   -0.3769    0.6542 N   0  0  0  0  0  0  0  0  0  0  0  0
   -5.2863   -0.2327    0.6477 C   0  0  0  0  0  0  0  0  0  0  0  0
   -5.9467    0.9967    0.7000 C   0  0  0  0  0  0  0  0  0  0  0  0
   -7.3410    1.0407    0.6818 C   0  0  0  0  0  0  0  0  0  0  0  0
   -7.9617    2.2268    0.7309 F   0  0  0  0  0  0  0  0  0  0  0  0
   -8.0997   -0.1173    0.6105 C   0  0  0  0  0  0  0  0  0  0  0  0
   -7.4412   -1.3343    0.5555 C   0  0  0  0  0  0  0  0  0  0  0  0
   -8.1523   -2.4670    0.4834 F   0  0  0  0  0  0  0  0  0  0  0  0
   -6.0492   -1.4044    0.5720 C   0  0  0  0  0  0  0  0  0  0  0  0
   -1.5254    0.1819    0.7219 C   0  0  0  0  0  0  0  0  0  0  0  0
   -1.1103   -0.7991   -0.1806 C   0  0  0  0  0  0  0  0  0  0  0  0
    0.2380   -1.1844   -0.2361 C   0  0  0  0  0  0  0  0  0  0  0  0
    1.2205   -0.5869    0.5723 C   0  0  0  0  0  0  0  0  0  0  0  0
    2.5431   -1.0385    0.5724 N   0  0  0  0  0  0  0  0  0  0  0  0
    3.1297   -1.8320   -0.5118 C   0  0  0  0  0  0  0  0  0  0  0  0
    3.3784   -1.0160   -1.7879 C   0  0  0  0  0  0  0  0  0  0  0  0
    4.4822    0.0040   -1.6366 C   0  0  0  0  0  0  0  0  0  0  0  0
    5.8230   -0.3701   -1.8023 C   0  0  0  0  0  0  0  0  0  0  0  0
    6.8441    0.5677   -1.6411 C   0  0  0  0  0  0  0  0  0  0  0  0
    6.5357    1.8854   -1.3092 C   0  0  0  0  0  0  0  0  0  0  0  0
    5.2065    2.2669   -1.1398 C   0  0  0  0  0  0  0  0  0  0  0  0
    4.1839    1.3319   -1.3041 C   0  0  0  0  0  0  0  0  0  0  0  0
    0.7590    0.3884    1.4889 C   0  0  0  0  0  0  0  0  0  0  0  0
    1.6837    1.0354    2.4174 N   0  0  0  0  0  4  0  0  0  0  0  0
    2.8101    1.3358    1.9943 O   0  0  0  0  0  0  0  0  0  0  0  0
    1.2733    1.2601    3.5652 O   0  0  0  0  0  1  0  0  0  0  0  0
   -0.5877    0.7864    1.5574 C   0  0  0  0  0  0  0  0  0  0  0  0
   -3.5367   -1.3280    0.6174 H   0  0  0  0  0  0  0  0  0  0  0  0
   -5.4166    1.9415    0.7519 H   0  0  0  0  0  0  0  0  0  0  0  0
   -9.1817   -0.0695    0.5969 H   0  0  0  0  0  0  0  0  0  0  0  0
   -5.5854   -2.3848    0.5275 H   0  0  0  0  0  0  0  0  0  0  0  0
   -1.8136   -1.2634   -0.8681 H   0  0  0  0  0  0  0  0  0  0  0  0
    0.4985   -1.9678   -0.9429 H   0  0  0  0  0  0  0  0  0  0  0  0
    3.2051   -0.3246    0.9046 H   0  0  0  0  0  0  0  0  0  0  0  0
    2.5049   -2.7039   -0.7337 H   0  0  0  0  0  0  0  0  0  0  0  0
    4.0799   -2.2392   -0.1448 H   0  0  0  0  0  0  0  0  0  0  0  0
    3.6522   -1.7026   -2.5994 H   0  0  0  0  0  0  0  0  0  0  0  0
    2.4606   -0.5167   -2.1209 H   0  0  0  0  0  0  0  0  0  0  0  0
    6.0831   -1.3948   -2.0573 H   0  0  0  0  0  0  0  0  0  0  0  0
    7.8813    0.2701   -1.7708 H   0  0  0  0  0  0  0  0  0  0  0  0
    7.3308    2.6145   -1.1783 H   0  0  0  0  0  0  0  0  0  0  0  0
    4.9651    3.2925   -0.8723 H   0  0  0  0  0  0  0  0  0  0  0  0
    3.1529    1.6466   -1.1592 H   0  0  0  0  0  0  0  0  0  0  0  0
   -0.9073    1.5562    2.2594 H   0  0  0  0  0  0  0  0  0  0  0  0
  1  2  2  0
  2  3  1  0
  3  4  1  0
  4  5  2  0
  5  6  1  0
  6  7  1  0
  6  8  2  0
  8  9  1  0
  9 10  1  0
  9 11  2  0
  2 12  1  0
 12 13  2  0
 13 14  1  0
 14 15  2  0
 15 16  1  0
 16 17  1  0
 17 18  1  0
 18 19  1  0
 19 20  2  0
 20 21  1  0
 21 22  2  0
 22 23  1  0
 23 24  2  0
 15 25  1  0
 25 26  1  0
 26 27  2  0
 26 28  1  0
 25 29  2  0
 11  4  1  0
 29 12  1  0
 24 19  1  0
  3 30  1  0
  5 31  1  0
  8 32  1  0
 11 33  1  0
 13 34  1  0
 14 35  1  0
 16 36  1  0
 17 37  1  0
 17 38  1  0
 18 39  1  0
 18 40  1  0
 20 41  1  0
 21 42  1  0
 22 43  1  0
 23 44  1  0
 24 45  1  0
 29 46  1  0
M  CHG  2  26   1  28  -1
M  END
$$$$
