
     RDKit          3D

 43 44  0  0  0  0  0  0  0  0999 V2000
   -2.5343   -2.6039    0.0357 C   0  0  0  0  0  0  0  0  0  0  0  0
   -2.8443   -1.5479    1.0791 C   0  0  0  0  0  0  0  0  0  0  0  0
   -3.3279   -0.3098    0.4102 N   0  0  0  0  0  4  0  0  0  0  0  0
   -4.6627   -0.1862    0.1953 C   0  0  0  0  0  0  0  0  0  0  0  0
   -5.1994    0.9232   -0.4544 C   0  0  0  0  0  0  0  0  0  0  0  0
   -6.6817    1.0503   -0.6519 C   0  0  0  0  0  0  0  0  0  0  0  0
   -4.3398    1.9345   -0.8666 C   0  0  0  0  0  0  0  0  0  0  0  0
   -2.9752    1.8036   -0.6447 C   0  0  0  0  0  0  0  0  0  0  0  0
   -2.4713    0.6663   -0.0020 C   0  0  0  0  0  0  0  0  0  0  0  0
   -1.0316    0.5518    0.2404 C   0  0  0  0  0  0  0  0  0  0  0  0
   -0.1445    0.4324   -0.7603 C   0  0  0  0  0  0  0  0  0  0  0  0
    1.2983    0.2826   -0.5350 C   0  0  0  0  0  0  0  0  0  0  0  0
    2.0227   -0.5999   -1.3340 C   0  0  0  0  0  0  0  0  0  0  0  0
    3.4051   -0.7622   -1.1507 C   0  0  0  0  0  0  0  0  0  0  0  0
    4.1276   -0.0408   -0.1851 C   0  0  0  0  0  0  0  0  0  0  0  0
    5.4993   -0.2259    0.0104 N   0  0  0  0  0  0  0  0  0  0  0  0
    6.2791   -0.9261   -1.0108 C   0  0  0  0  0  0  0  0  0  0  0  0
    6.2463    0.7454    0.8104 C   0  0  0  0  0  0  0  0  0  0  0  0
    3.3726    0.8478    0.5993 C   0  0  0  0  0  0  0  0  0  0  0  0
    1.9894    1.0179    0.4266 C   0  0  0  0  0  0  0  0  0  0  0  0
   -1.7524   -2.2703   -0.6529 H   0  0  0  0  0  0  0  0  0  0  0  0
   -3.4216   -2.8399   -0.5606 H   0  0  0  0  0  0  0  0  0  0  0  0
   -2.1933   -3.5247    0.5184 H   0  0  0  0  0  0  0  0  0  0  0  0
   -3.6332   -1.8927    1.7574 H   0  0  0  0  0  0  0  0  0  0  0  0
   -1.9759   -1.3158    1.7002 H   0  0  0  0  0  0  0  0  0  0  0  0
   -5.2974   -0.9969    0.5453 H   0  0  0  0  0  0  0  0  0  0  0  0
   -7.1346    1.5352    0.2183 H   0  0  0  0  0  0  0  0  0  0  0  0
   -6.9079    1.6427   -1.5448 H   0  0  0  0  0  0  0  0  0  0  0  0
   -7.1420    0.0662   -0.7897 H   0  0  0  0  0  0  0  0  0  0  0  0
   -4.7230    2.8273   -1.3607 H   0  0  0  0  0  0  0  0  0  0  0  0
   -2.3037    2.5981   -0.9682 H   0  0  0  0  0  0  0  0  0  0  0  0
   -0.7151    0.5556    1.2802 H   0  0  0  0  0  0  0  0  0  0  0  0
   -0.4581    0.4046   -1.8029 H   0  0  0  0  0  0  0  0  0  0  0  0
    1.5320   -1.1882   -2.1061 H   0  0  0  0  0  0  0  0  0  0  0  0
    3.9026   -1.4808   -1.7956 H   0  0  0  0  0  0  0  0  0  0  0  0
    6.2270   -0.4033   -1.9722 H   0  0  0  0  0  0  0  0  0  0  0  0
    5.9346   -1.9586   -1.1332 H   0  0  0  0  0  0  0  0  0  0  0  0
    7.3358   -0.9945   -0.7284 H   0  0  0  0  0  0  0  0  0  0  0  0
    6.1895    1.7457    0.3672 H   0  0  0  0  0  0  0  0  0  0  0  0
    5.8775    0.7770    1.8412 H   0  0  0  0  0  0  0  0  0  0  0  0
    7.3057    0.4737    0.8798 H   0  0  0  0  0  0  0  0  0  0  0  0
    3.8453    1.4430    1.3753 H   0  0  0  0  0  0  0  0  0  0  0  0
    1.4802    1.7433    1.0556 H   0  0  0  0  0  0  0  0  0  0  0  0
  1  2  1  0
  2  3  1  0
  3  4  2  0
  4  5  1  0
  5  6  1  0
  5  7  2  0
  7  8  1  0
  8  9  2  0
  9 10  1  0
 10 11  2  3
 11 12  1  0
 12 13  2  0
 13 14  1  0
 14 15  2  0
 15 16  1  0
 16 17  1  0
 16 18  1  0
 15 19  1  0
 19 20  2  0
  9  3  1  0
 20 12  1  0
  1 21  1  0
  1 22  1  0
  1 23  1  0
  2 24  1  0
  2 25  1  0
  4 26  1  0
  6 27  1  0
  6 28  1  0
  6 29  1  0
  7 30  1  0
  8 31  1  0
 10 32  1  0
 11 33  1  0
 13 34  1  0
 14 35  1  0
 17 36  1  0
 17 37  1  0
 17 38  1  0
 18 39  1  0
 18 40  1  0
 18 41  1  0
 19 42  1  0
 20 43  1  0
M  CHG  1   3   1
M  END
$$$$
