
     RDKit          3D

 38 39  0  0  0  0  0  0  0  0999 V2000
   -5.6832   -1.3908    2.2296 C   0  0  0  0  0  0  0  0  0  0  0  0
   -4.3526   -1.4210    2.0775 C   0  0  0  0  0  0  0  0  0  0  0  0
   -3.3977   -0.4812    2.7585 C   0  0  0  0  0  0  0  0  0  0  0  0
   -2.5697    0.3071    1.7723 C   0  0  0  0  0  0  0  0  0  0  0  0
   -3.0970    1.4436    1.1492 C   0  0  0  0  0  0  0  0  0  0  0  0
   -2.3327    2.1636    0.2316 C   0  0  0  0  0  0  0  0  0  0  0  0
   -1.0346    1.7462   -0.0735 C   0  0  0  0  0  0  0  0  0  0  0  0
   -0.2982    2.4710   -0.9749 O   0  0  0  0  0  0  0  0  0  0  0  0
   -0.4718    0.6052    0.5244 C   0  0  0  0  0  0  0  0  0  0  0  0
    0.8913    0.1288    0.2078 C   0  0  0  0  0  0  0  0  0  0  0  0
    1.2218   -0.2250   -1.1147 C   0  0  0  0  0  0  0  0  0  0  0  0
    2.4995   -0.6962   -1.4596 C   0  0  0  0  0  0  0  0  0  0  0  0
    2.8268   -1.0445   -2.8919 C   0  0  0  0  0  0  0  0  0  0  0  0
    3.5418    0.0717   -3.5998 C   0  0  0  0  0  0  0  0  0  0  0  0
    4.7507   -0.0411   -4.1660 C   0  0  0  0  0  0  0  0  0  0  0  0
    3.4726   -0.8072   -0.4603 C   0  0  0  0  0  0  0  0  0  0  0  0
    3.1722   -0.4646    0.8577 C   0  0  0  0  0  0  0  0  0  0  0  0
    1.8942   -0.0034    1.1838 C   0  0  0  0  0  0  0  0  0  0  0  0
    1.6211    0.3331    2.4848 O   0  0  0  0  0  0  0  0  0  0  0  0
   -1.2662   -0.1033    1.4467 C   0  0  0  0  0  0  0  0  0  0  0  0
   -6.3163   -2.1016    1.7073 H   0  0  0  0  0  0  0  0  0  0  0  0
   -6.1689   -0.6621    2.8707 H   0  0  0  0  0  0  0  0  0  0  0  0
   -3.9132   -2.1727    1.4244 H   0  0  0  0  0  0  0  0  0  0  0  0
   -2.7384   -1.0637    3.4141 H   0  0  0  0  0  0  0  0  0  0  0  0
   -3.9292    0.2177    3.4170 H   0  0  0  0  0  0  0  0  0  0  0  0
   -4.1093    1.7704    1.3761 H   0  0  0  0  0  0  0  0  0  0  0  0
   -2.7651    3.0413   -0.2381 H   0  0  0  0  0  0  0  0  0  0  0  0
   -0.7842    3.2809   -1.1950 H   0  0  0  0  0  0  0  0  0  0  0  0
    0.4634   -0.1234   -1.8901 H   0  0  0  0  0  0  0  0  0  0  0  0
    1.9030   -1.2726   -3.4380 H   0  0  0  0  0  0  0  0  0  0  0  0
    3.4180   -1.9691   -2.9080 H   0  0  0  0  0  0  0  0  0  0  0  0
    3.0238    1.0281   -3.6464 H   0  0  0  0  0  0  0  0  0  0  0  0
    5.2105    0.8082   -4.6620 H   0  0  0  0  0  0  0  0  0  0  0  0
    5.3065   -0.9730   -4.1465 H   0  0  0  0  0  0  0  0  0  0  0  0
    4.4726   -1.1558   -0.7083 H   0  0  0  0  0  0  0  0  0  0  0  0
    3.9440   -0.5616    1.6145 H   0  0  0  0  0  0  0  0  0  0  0  0
    2.4471    0.3094    2.9925 H   0  0  0  0  0  0  0  0  0  0  0  0
   -0.8527   -0.9925    1.9210 H   0  0  0  0  0  0  0  0  0  0  0  0
  1  2  2  0
  2  3  1  0
  3  4  1  0
  4  5  2  0
  5  6  1  0
  6  7  2  0
  7  8  1  0
  7  9  1  0
  9 10  1  0
 10 11  2  0
 11 12  1  0
 12 13  1  0
 13 14  1  0
 14 15  2  0
 12 16  2  0
 16 17  1  0
 17 18  2  0
 18 19  1  0
  9 20  2  0
 20  4  1  0
 18 10  1  0
  1 21  1  0
  1 22  1  0
  2 23  1  0
  3 24  1  0
  3 25  1  0
  5 26  1  0
  6 27  1  0
  8 28  1  0
 11 29  1  0
 13 30  1  0
 13 31  1  0
 14 32  1  0
 15 33  1  0
 15 34  1  0
 16 35  1  0
 17 36  1  0
 19 37  1  0
 20 38  1  0
M  END
$$$$
