
     RDKit          3D

 48 51  0  0  0  0  0  0  0  0999 V2000
   -1.2219    0.7634   -3.9532 C   0  0  0  0  0  0  0  0  0  0  0  0
   -1.5411    0.0059   -2.6759 C   0  0  0  0  0  0  0  0  0  0  0  0
   -1.3108    0.7967   -1.4879 N   0  0  0  0  0  0  0  0  0  0  0  0
   -2.2395    1.5394   -0.8056 C   0  0  0  0  0  0  0  0  0  0  0  0
   -3.8825    1.7450   -1.3024 S   0  0  0  0  0  0  0  0  0  0  0  0
   -4.7046    1.9426    0.3081 C   0  0  0  0  0  0  0  0  0  0  0  0
   -4.8875    0.6238    1.0226 C   0  0  0  0  0  0  0  0  0  0  0  0
   -3.9756    0.2169    2.0106 C   0  0  0  0  0  0  0  0  0  0  0  0
   -4.1333   -1.0100    2.6566 C   0  0  0  0  0  0  0  0  0  0  0  0
   -5.2004   -1.8315    2.3160 C   0  0  0  0  0  0  0  0  0  0  0  0
   -5.3501   -3.0102    2.9344 F   0  0  0  0  0  0  0  0  0  0  0  0
   -6.1133   -1.4507    1.3401 C   0  0  0  0  0  0  0  0  0  0  0  0
   -5.9574   -0.2248    0.6914 C   0  0  0  0  0  0  0  0  0  0  0  0
   -1.6904    2.0731    0.2571 N   0  0  0  0  0  0  0  0  0  0  0  0
   -0.3794    1.6809    0.2842 N   0  0  0  0  0  0  0  0  0  0  0  0
   -0.1378    0.9360   -0.7770 C   0  0  0  0  0  0  0  0  0  0  0  0
    1.2785    0.3429   -1.0551 C   0  0  0  0  0  0  0  0  0  0  0  0
    1.7287   -0.4765   -2.0940 C   0  0  0  0  0  0  0  0  0  0  0  0
    3.0158   -0.7888   -1.9689 N   0  0  0  0  0  0  0  0  0  0  0  0
    3.3781   -0.2853   -0.7535 N   0  0  0  0  0  0  0  0  0  0  0  0
    4.5917   -0.7524   -0.1624 C   0  0  0  0  0  0  0  0  0  0  0  0
    5.5624   -1.3479   -0.9867 C   0  0  0  0  0  0  0  0  0  0  0  0
    6.7539   -1.8351   -0.4445 C   0  0  0  0  0  0  0  0  0  0  0  0
    6.9817   -1.7491    0.9259 C   0  0  0  0  0  0  0  0  0  0  0  0
    6.0142   -1.1869    1.7556 C   0  0  0  0  0  0  0  0  0  0  0  0
    4.8190   -0.6967    1.2184 C   0  0  0  0  0  0  0  0  0  0  0  0
    2.4094    0.5857   -0.2904 C   0  0  0  0  0  0  0  0  0  0  0  0
    2.6527    1.5805    0.7655 C   0  0  0  0  0  0  0  0  0  0  0  0
    2.2465    1.1413    1.9815 F   0  0  0  0  0  0  0  0  0  0  0  0
    2.0251    2.7585    0.5250 F   0  0  0  0  0  0  0  0  0  0  0  0
    3.9664    1.9067    0.8846 F   0  0  0  0  0  0  0  0  0  0  0  0
   -1.8559    1.6504   -4.0549 H   0  0  0  0  0  0  0  0  0  0  0  0
   -0.1801    1.0986   -3.9722 H   0  0  0  0  0  0  0  0  0  0  0  0
   -1.3904    0.1238   -4.8250 H   0  0  0  0  0  0  0  0  0  0  0  0
   -2.5848   -0.3241   -2.6860 H   0  0  0  0  0  0  0  0  0  0  0  0
   -0.9512   -0.9105   -2.5970 H   0  0  0  0  0  0  0  0  0  0  0  0
   -5.6906    2.3871    0.1284 H   0  0  0  0  0  0  0  0  0  0  0  0
   -4.1662    2.6600    0.9377 H   0  0  0  0  0  0  0  0  0  0  0  0
   -3.1321    0.8529    2.2779 H   0  0  0  0  0  0  0  0  0  0  0  0
   -3.4299   -1.3275    3.4197 H   0  0  0  0  0  0  0  0  0  0  0  0
   -6.9382   -2.1102    1.0905 H   0  0  0  0  0  0  0  0  0  0  0  0
   -6.6729    0.0656   -0.0752 H   0  0  0  0  0  0  0  0  0  0  0  0
    1.2058   -0.8640   -2.9562 H   0  0  0  0  0  0  0  0  0  0  0  0
    5.4111   -1.4286   -2.0620 H   0  0  0  0  0  0  0  0  0  0  0  0
    7.5016   -2.2828   -1.0942 H   0  0  0  0  0  0  0  0  0  0  0  0
    7.9079   -2.1294    1.3490 H   0  0  0  0  0  0  0  0  0  0  0  0
    6.1847   -1.1381    2.8288 H   0  0  0  0  0  0  0  0  0  0  0  0
    4.0825   -0.3170    1.9184 H   0  0  0  0  0  0  0  0  0  0  0  0
  1  2  1  0
  2  3  1  0
  3  4  1  0
  4  5  1  0
  5  6  1  0
  6  7  1  0
  7  8  2  0
  8  9  1  0
  9 10  2  0
 10 11  1  0
 10 12  1  0
 12 13  2  0
  4 14  2  0
 14 15  1  0
 15 16  2  0
 16 17  1  0
 17 18  1  0
 18 19  2  0
 19 20  1  0
 20 21  1  0
 21 22  2  0
 22 23  1  0
 23 24  2  0
 24 25  1  0
 25 26  2  0
 20 27  1  0
 27 28  1  0
 28 29  1  0
 28 30  1  0
 28 31  1  0
 16  3  1  0
 27 17  2  0
 13  7  1  0
 26 21  1  0
  1 32  1  0
  1 33  1  0
  1 34  1  0
  2 35  1  0
  2 36  1  0
  6 37  1  0
  6 38  1  0
  8 39  1  0
  9 40  1  0
 12 41  1  0
 13 42  1  0
 18 43  1  0
 22 44  1  0
 23 45  1  0
 24 46  1  0
 25 47  1  0
 26 48  1  0
M  END
$$$$
