
     RDKit          3D

 51 55  0  0  0  0  0  0  0  0999 V2000
   -9.9061    1.1079   -0.3714 C   0  0  0  0  0  0  0  0  0  0  0  0
   -8.4502    1.4655   -0.3002 C   0  0  0  0  0  0  0  0  0  0  0  0
   -8.0371    2.7923   -0.4799 C   0  0  0  0  0  0  0  0  0  0  0  0
   -6.6883    3.1403   -0.3679 C   0  0  0  0  0  0  0  0  0  0  0  0
   -5.7361    2.1641   -0.0743 C   0  0  0  0  0  0  0  0  0  0  0  0
   -6.1371    0.8330    0.1063 C   0  0  0  0  0  0  0  0  0  0  0  0
   -5.1582   -0.2371    0.4443 C   0  0  0  0  0  0  0  0  0  0  0  0
   -5.5146   -1.1261    1.2098 O   0  0  0  0  0  0  0  0  0  0  0  0
   -3.9408   -0.1195   -0.1866 N   0  0  0  0  0  0  0  0  0  0  0  0
   -2.8496   -0.9373   -0.0187 C   0  0  0  0  0  0  0  0  0  0  0  0
   -1.7603   -0.8133   -0.7493 N   0  0  0  0  0  0  0  0  0  0  0  0
   -0.7880   -1.7290   -0.3952 N   0  0  0  0  0  0  0  0  0  0  0  0
   -1.1790   -2.4865    0.6039 C   0  0  0  0  0  0  0  0  0  0  0  0
   -0.1593   -3.7205    1.3028 S   0  0  0  0  0  0  0  0  0  0  0  0
    0.8147   -4.2099   -0.1504 C   0  0  0  0  0  0  0  0  0  0  0  0
    1.9637   -3.2725   -0.5083 C   0  0  0  0  0  0  0  0  0  0  0  0
    2.4519   -3.3292   -1.6356 O   0  0  0  0  0  0  0  0  0  0  0  0
    2.4313   -2.4885    0.5314 N   0  0  0  0  0  0  0  0  0  0  0  0
    3.5116   -1.5806    0.5188 C   0  0  0  0  0  0  0  0  0  0  0  0
    3.7592   -0.8806    1.7121 C   0  0  0  0  0  0  0  0  0  0  0  0
    4.8139    0.0418    1.8261 C   0  0  0  0  0  0  0  0  0  0  0  0
    5.6381    0.2624    0.7098 C   0  0  0  0  0  0  0  0  0  0  0  0
    5.3651   -0.4426   -0.4571 C   0  0  0  0  0  0  0  0  0  0  0  0
    4.3243   -1.3637   -0.5988 C   0  0  0  0  0  0  0  0  0  0  0  0
    6.2548   -0.1101   -1.4340 O   0  0  0  0  0  0  0  0  0  0  0  0
    7.1073    0.8079   -0.9014 C   0  0  0  0  0  0  0  0  0  0  0  0
    8.1710    1.4029   -1.5756 C   0  0  0  0  0  0  0  0  0  0  0  0
    8.9349    2.3240   -0.8504 C   0  0  0  0  0  0  0  0  0  0  0  0
    8.6343    2.6214    0.4821 C   0  0  0  0  0  0  0  0  0  0  0  0
    7.5557    2.0064    1.1344 C   0  0  0  0  0  0  0  0  0  0  0  0
    6.7733    1.0764    0.4226 C   0  0  0  0  0  0  0  0  0  0  0  0
   -2.7566   -2.1497    1.1713 S   0  0  0  0  0  0  0  0  0  0  0  0
   -7.4937    0.4906    0.0097 C   0  0  0  0  0  0  0  0  0  0  0  0
  -10.0389    0.0469   -0.6106 H   0  0  0  0  0  0  0  0  0  0  0  0
  -10.4116    1.6839   -1.1545 H   0  0  0  0  0  0  0  0  0  0  0  0
  -10.3880    1.3143    0.5894 H   0  0  0  0  0  0  0  0  0  0  0  0
   -8.7688    3.5677   -0.6958 H   0  0  0  0  0  0  0  0  0  0  0  0
   -6.3842    4.1775   -0.4955 H   0  0  0  0  0  0  0  0  0  0  0  0
   -4.6983    2.4653    0.0444 H   0  0  0  0  0  0  0  0  0  0  0  0
   -3.8134    0.5736   -0.9132 H   0  0  0  0  0  0  0  0  0  0  0  0
    0.1553   -4.3131   -1.0188 H   0  0  0  0  0  0  0  0  0  0  0  0
    1.2537   -5.1913    0.0588 H   0  0  0  0  0  0  0  0  0  0  0  0
    1.8979   -2.5419    1.3913 H   0  0  0  0  0  0  0  0  0  0  0  0
    3.1311   -1.0433    2.5851 H   0  0  0  0  0  0  0  0  0  0  0  0
    4.9863    0.5687    2.7600 H   0  0  0  0  0  0  0  0  0  0  0  0
    4.1878   -1.8678   -1.5466 H   0  0  0  0  0  0  0  0  0  0  0  0
    8.3884    1.1596   -2.6089 H   0  0  0  0  0  0  0  0  0  0  0  0
    9.7764    2.8161   -1.3337 H   0  0  0  0  0  0  0  0  0  0  0  0
    9.2459    3.3415    1.0228 H   0  0  0  0  0  0  0  0  0  0  0  0
    7.3330    2.2440    2.1701 H   0  0  0  0  0  0  0  0  0  0  0  0
   -7.8024   -0.5417    0.1786 H   0  0  0  0  0  0  0  0  0  0  0  0
  1  2  1  0
  2  3  2  0
  3  4  1  0
  4  5  2  0
  5  6  1  0
  6  7  1  0
  7  8  2  0
  7  9  1  0
  9 10  1  0
 10 11  2  0
 11 12  1  0
 12 13  2  0
 13 14  1  0
 14 15  1  0
 15 16  1  0
 16 17  2  0
 16 18  1  0
 18 19  1  0
 19 20  2  0
 20 21  1  0
 21 22  2  0
 22 23  1  0
 23 24  2  0
 23 25  1  0
 25 26  1  0
 26 27  2  0
 27 28  1  0
 28 29  2  0
 29 30  1  0
 30 31  2  0
 13 32  1  0
  6 33  2  0
 33  2  1  0
 32 10  1  0
 24 19  1  0
 31 26  1  0
 31 22  1  0
  1 34  1  0
  1 35  1  0
  1 36  1  0
  3 37  1  0
  4 38  1  0
  5 39  1  0
  9 40  1  0
 15 41  1  0
 15 42  1  0
 18 43  1  0
 20 44  1  0
 21 45  1  0
 24 46  1  0
 27 47  1  0
 28 48  1  0
 29 49  1  0
 30 50  1  0
 33 51  1  0
M  END
$$$$
