
     RDKit          3D

 44 45  0  0  0  0  0  0  0  0999 V2000
    7.6276   -0.1280    2.3649 C   0  0  0  0  0  0  0  0  0  0  0  0
    7.2952   -0.7276    1.0120 C   0  0  0  0  0  0  0  0  0  0  0  0
    5.8808   -0.6596    0.7761 O   0  0  0  0  0  0  0  0  0  0  0  0
    5.4309    0.4922    0.2215 C   0  0  0  0  0  0  0  0  0  0  0  0
    6.1129    1.4549   -0.0898 O   0  0  0  0  0  0  0  0  0  0  0  0
    3.9538    0.4415    0.0361 C   0  0  0  0  0  0  0  0  0  0  0  0
    3.3197    1.5590   -0.5296 C   0  0  0  0  0  0  0  0  0  0  0  0
    1.9360    1.5666   -0.7245 C   0  0  0  0  0  0  0  0  0  0  0  0
    1.1849    0.4476   -0.3567 C   0  0  0  0  0  0  0  0  0  0  0  0
   -0.5737    0.4536   -0.5708 S   0  0  0  0  0  6  0  0  0  0  0  0
   -1.0061    1.7911   -0.9044 O   0  0  0  0  0  0  0  0  0  0  0  0
   -1.1727   -0.2960    0.5164 O   0  0  0  0  0  0  0  0  0  0  0  0
   -0.7416   -0.5107   -1.9900 N   0  0  0  0  0  0  0  0  0  0  0  0
   -1.8510   -1.4251   -1.8712 N   0  0  0  0  0  0  0  0  0  0  0  0
   -3.2989   -0.7804   -2.5724 S   0  0  0  0  0  6  0  0  0  0  0  0
   -2.9249    0.4574   -3.2297 O   0  0  0  0  0  0  0  0  0  0  0  0
   -3.9510   -1.8512   -3.2933 O   0  0  0  0  0  0  0  0  0  0  0  0
   -4.2744   -0.4129   -1.1408 C   0  0  0  0  0  0  0  0  0  0  0  0
   -4.3510    0.8974   -0.6656 C   0  0  0  0  0  0  0  0  0  0  0  0
   -5.1290    1.1743    0.4594 C   0  0  0  0  0  0  0  0  0  0  0  0
   -5.8330    0.1503    1.1076 C   0  0  0  0  0  0  0  0  0  0  0  0
   -6.6954    0.4600    2.2964 C   0  0  0  0  0  0  0  0  0  0  0  0
   -5.7733   -1.1540    0.5981 C   0  0  0  0  0  0  0  0  0  0  0  0
   -4.9953   -1.4395   -0.5247 C   0  0  0  0  0  0  0  0  0  0  0  0
    1.8006   -0.6683    0.2185 C   0  0  0  0  0  0  0  0  0  0  0  0
    3.1855   -0.6715    0.4103 C   0  0  0  0  0  0  0  0  0  0  0  0
    8.6944   -0.2291    2.5830 H   0  0  0  0  0  0  0  0  0  0  0  0
    7.0566   -0.6247    3.1560 H   0  0  0  0  0  0  0  0  0  0  0  0
    7.3631    0.9334    2.4003 H   0  0  0  0  0  0  0  0  0  0  0  0
    7.8579   -0.2406    0.2076 H   0  0  0  0  0  0  0  0  0  0  0  0
    7.5702   -1.7872    1.0014 H   0  0  0  0  0  0  0  0  0  0  0  0
    3.9048    2.4317   -0.8179 H   0  0  0  0  0  0  0  0  0  0  0  0
    1.4612    2.4456   -1.1562 H   0  0  0  0  0  0  0  0  0  0  0  0
   -0.8663    0.1335   -2.7944 H   0  0  0  0  0  0  0  0  0  0  0  0
   -2.0197   -1.7145   -0.8919 H   0  0  0  0  0  0  0  0  0  0  0  0
   -3.8126    1.7068   -1.1548 H   0  0  0  0  0  0  0  0  0  0  0  0
   -5.1833    2.1969    0.8283 H   0  0  0  0  0  0  0  0  0  0  0  0
   -7.7092    0.7088    1.9688 H   0  0  0  0  0  0  0  0  0  0  0  0
   -6.7426   -0.3958    2.9779 H   0  0  0  0  0  0  0  0  0  0  0  0
   -6.2905    1.3044    2.8640 H   0  0  0  0  0  0  0  0  0  0  0  0
   -6.3384   -1.9538    1.0731 H   0  0  0  0  0  0  0  0  0  0  0  0
   -4.9679   -2.4549   -0.9146 H   0  0  0  0  0  0  0  0  0  0  0  0
    1.2140   -1.5345    0.5186 H   0  0  0  0  0  0  0  0  0  0  0  0
    3.6520   -1.5473    0.8564 H   0  0  0  0  0  0  0  0  0  0  0  0
  1  2  1  0
  2  3  1  0
  3  4  1  0
  4  5  2  0
  4  6  1  0
  6  7  2  0
  7  8  1  0
  8  9  2  0
  9 10  1  0
 10 11  2  0
 10 12  2  0
 10 13  1  0
 13 14  1  0
 14 15  1  0
 15 16  2  0
 15 17  2  0
 15 18  1  0
 18 19  2  0
 19 20  1  0
 20 21  2  0
 21 22  1  0
 21 23  1  0
 23 24  2  0
  9 25  1  0
 25 26  2  0
 26  6  1  0
 24 18  1  0
  1 27  1  0
  1 28  1  0
  1 29  1  0
  2 30  1  0
  2 31  1  0
  7 32  1  0
  8 33  1  0
 13 34  1  0
 14 35  1  0
 19 36  1  0
 20 37  1  0
 22 38  1  0
 22 39  1  0
 22 40  1  0
 23 41  1  0
 24 42  1  0
 25 43  1  0
 26 44  1  0
M  END
$$$$
