
     RDKit          3D

 53 55  0  0  0  0  0  0  0  0999 V2000
   -7.0811    0.2875   -2.2614 C   0  0  0  0  0  0  0  0  0  0  0  0
   -5.9638   -0.2526   -1.5651 O   0  0  0  0  0  0  0  0  0  0  0  0
   -6.1126   -0.4939   -0.2245 C   0  0  0  0  0  0  0  0  0  0  0  0
   -7.2258   -0.1028    0.5300 C   0  0  0  0  0  0  0  0  0  0  0  0
   -7.2946   -0.3860    1.8969 C   0  0  0  0  0  0  0  0  0  0  0  0
   -6.2539   -1.0594    2.5241 C   0  0  0  0  0  0  0  0  0  0  0  0
   -5.1409   -1.4527    1.7839 C   0  0  0  0  0  0  0  0  0  0  0  0
   -5.0537   -1.1734    0.4063 C   0  0  0  0  0  0  0  0  0  0  0  0
   -3.8304   -1.6323   -0.3475 C   0  0  0  0  0  0  0  0  0  0  0  0
   -2.6385   -0.9873    0.1465 N   0  0  0  0  0  0  0  0  0  0  0  0
   -1.3883   -1.4772   -0.1342 C   0  0  0  0  0  0  0  0  0  0  0  0
   -1.1308   -2.5371   -0.6861 O   0  0  0  0  0  0  0  0  0  0  0  0
   -0.2409   -0.5484    0.3227 C   0  0  0  0  0  0  0  0  0  0  0  0
   -0.4730    0.6065    0.6510 O   0  0  0  0  0  0  0  0  0  0  0  0
    0.9943   -1.1530    0.3103 N   0  0  0  0  0  0  0  0  0  0  0  0
    2.2212   -0.4062    0.5265 C   0  0  0  0  0  0  0  0  0  0  0  0
    3.3914   -1.3095    0.9407 C   0  0  0  0  0  0  0  0  0  0  0  0
    3.5204   -2.3412   -0.0737 O   0  0  0  0  0  0  0  0  0  0  0  0
    4.9243   -2.5663   -0.2536 C   0  0  0  0  0  0  0  0  0  0  0  0
    5.5436   -1.2002   -0.0490 C   0  0  0  0  0  0  0  0  0  0  0  0
    4.7047   -0.6706    1.0133 N   0  0  0  0  0  0  0  0  0  0  0  0
    5.0038    0.7734    1.7664 S   0  0  0  0  0  6  0  0  0  0  0  0
    6.4309    0.8638    1.9946 O   0  0  0  0  0  0  0  0  0  0  0  0
    4.0611    0.9031    2.8557 O   0  0  0  0  0  0  0  0  0  0  0  0
    4.6108    2.0143    0.5496 C   0  0  0  0  0  0  0  0  0  0  0  0
    5.5233    2.2735   -0.4801 C   0  0  0  0  0  0  0  0  0  0  0  0
    5.2440    3.2686   -1.4189 C   0  0  0  0  0  0  0  0  0  0  0  0
    4.0673    4.0111   -1.3120 C   0  0  0  0  0  0  0  0  0  0  0  0
    3.6923    5.3588   -2.5843 Br  0  0  0  0  0  0  0  0  0  0  0  0
    3.1726    3.7772   -0.2672 C   0  0  0  0  0  0  0  0  0  0  0  0
    3.4492    2.7842    0.6752 C   0  0  0  0  0  0  0  0  0  0  0  0
   -7.3029    1.3031   -1.9216 H   0  0  0  0  0  0  0  0  0  0  0  0
   -6.8196    0.3410   -3.3225 H   0  0  0  0  0  0  0  0  0  0  0  0
   -7.9575   -0.3627   -2.1685 H   0  0  0  0  0  0  0  0  0  0  0  0
   -8.0622    0.4270    0.0849 H   0  0  0  0  0  0  0  0  0  0  0  0
   -8.1644   -0.0799    2.4713 H   0  0  0  0  0  0  0  0  0  0  0  0
   -6.3069   -1.2820    3.5870 H   0  0  0  0  0  0  0  0  0  0  0  0
   -4.3316   -1.9826    2.2829 H   0  0  0  0  0  0  0  0  0  0  0  0
   -3.8879   -1.4241   -1.4200 H   0  0  0  0  0  0  0  0  0  0  0  0
   -3.7235   -2.7176   -0.2459 H   0  0  0  0  0  0  0  0  0  0  0  0
   -2.6886   -0.0192    0.4509 H   0  0  0  0  0  0  0  0  0  0  0  0
    1.0489   -2.0570   -0.1592 H   0  0  0  0  0  0  0  0  0  0  0  0
    2.0241    0.3576    1.2820 H   0  0  0  0  0  0  0  0  0  0  0  0
    2.4414    0.0936   -0.4236 H   0  0  0  0  0  0  0  0  0  0  0  0
    3.1740   -1.8175    1.8873 H   0  0  0  0  0  0  0  0  0  0  0  0
    5.1153   -2.9783   -1.2482 H   0  0  0  0  0  0  0  0  0  0  0  0
    5.2587   -3.2834    0.5049 H   0  0  0  0  0  0  0  0  0  0  0  0
    5.4285   -0.5971   -0.9557 H   0  0  0  0  0  0  0  0  0  0  0  0
    6.5987   -1.2726    0.2261 H   0  0  0  0  0  0  0  0  0  0  0  0
    6.4568    1.7187   -0.5485 H   0  0  0  0  0  0  0  0  0  0  0  0
    5.9520    3.4661   -2.2202 H   0  0  0  0  0  0  0  0  0  0  0  0
    2.2632    4.3669   -0.1729 H   0  0  0  0  0  0  0  0  0  0  0  0
    2.7566    2.6281    1.5001 H   0  0  0  0  0  0  0  0  0  0  0  0
  1  2  1  0
  2  3  1  0
  3  4  2  0
  4  5  1  0
  5  6  2  0
  6  7  1  0
  7  8  2  0
  8  9  1  0
  9 10  1  0
 10 11  1  0
 11 12  2  0
 11 13  1  0
 13 14  2  0
 13 15  1  0
 15 16  1  0
 16 17  1  0
 17 18  1  0
 18 19  1  0
 19 20  1  0
 20 21  1  0
 21 22  1  0
 22 23  2  0
 22 24  2  0
 22 25  1  0
 25 26  2  0
 26 27  1  0
 27 28  2  0
 28 29  1  0
 28 30  1  0
 30 31  2  0
  8  3  1  0
 21 17  1  0
 31 25  1  0
  1 32  1  0
  1 33  1  0
  1 34  1  0
  4 35  1  0
  5 36  1  0
  6 37  1  0
  7 38  1  0
  9 39  1  0
  9 40  1  0
 10 41  1  0
 15 42  1  0
 16 43  1  0
 16 44  1  0
 17 45  1  0
 19 46  1  0
 19 47  1  0
 20 48  1  0
 20 49  1  0
 26 50  1  0
 27 51  1  0
 30 52  1  0
 31 53  1  0
M  END
$$$$
