
     RDKit          3D

 36 37  0  0  0  0  0  0  0  0999 V2000
    0.8126   -0.1257    0.3683 O   0  0  0  0  0  0  0  0  0  0  0  0
    0.6279   -0.8919   -0.5766 C   0  0  0  0  0  0  0  0  0  0  0  0
   -0.7326   -1.1538   -1.2173 C   0  0  0  0  0  0  0  0  0  0  0  0
   -1.7581   -0.4576   -0.5128 O   0  0  0  0  0  0  0  0  0  0  0  0
   -2.9853   -0.6060   -1.0631 C   0  0  0  0  0  0  0  0  0  0  0  0
   -3.2622   -1.2725   -2.0436 O   0  0  0  0  0  0  0  0  0  0  0  0
   -3.9504    0.1798   -0.2726 C   0  0  0  0  0  0  0  0  0  0  0  0
   -4.0105   -0.0302    1.1139 C   0  0  0  0  0  0  0  0  0  0  0  0
   -4.9299    0.6827    1.8793 C   0  0  0  0  0  0  0  0  0  0  0  0
   -5.0084    0.4250    3.5773 Cl  0  0  0  0  0  0  0  0  0  0  0  0
   -5.7903    1.5995    1.2785 C   0  0  0  0  0  0  0  0  0  0  0  0
   -5.7281    1.8100   -0.1014 C   0  0  0  0  0  0  0  0  0  0  0  0
   -4.8079    1.1017   -0.8824 C   0  0  0  0  0  0  0  0  0  0  0  0
   -4.7566    1.4541   -2.5710 Cl  0  0  0  0  0  0  0  0  0  0  0  0
    1.6720   -1.5818   -1.1661 N   0  0  0  0  0  0  0  0  0  0  0  0
    3.0025   -1.5295   -0.5836 C   0  0  0  0  0  0  0  0  0  0  0  0
    3.6562   -0.1426   -0.6943 C   0  0  0  0  0  0  0  0  0  0  0  0
    4.3847    0.2094    0.5068 N   0  0  0  0  0  0  0  0  0  0  0  0
    3.8935    0.9755    1.5369 C   0  0  0  0  0  0  0  0  0  0  0  0
    2.6219    1.4651    1.5316 O   0  0  0  0  0  0  0  0  0  0  0  0
    4.7626    1.1921    2.5283 C   0  0  0  0  0  0  0  0  0  0  0  0
    6.2773    0.3972    2.2337 S   0  0  0  0  0  0  0  0  0  0  0  0
    5.6798   -0.2517    0.6984 C   0  0  0  0  0  0  0  0  0  0  0  0
    6.3229   -0.9898   -0.0307 O   0  0  0  0  0  0  0  0  0  0  0  0
   -0.9271   -2.2322   -1.1820 H   0  0  0  0  0  0  0  0  0  0  0  0
   -0.6877   -0.8045   -2.2556 H   0  0  0  0  0  0  0  0  0  0  0  0
   -3.3457   -0.7471    1.5905 H   0  0  0  0  0  0  0  0  0  0  0  0
   -6.5092    2.1550    1.8770 H   0  0  0  0  0  0  0  0  0  0  0  0
   -6.3981    2.5335   -0.5614 H   0  0  0  0  0  0  0  0  0  0  0  0
    1.4590   -2.3413   -1.8028 H   0  0  0  0  0  0  0  0  0  0  0  0
    2.9088   -1.8432    0.4633 H   0  0  0  0  0  0  0  0  0  0  0  0
    3.6152   -2.2761   -1.1006 H   0  0  0  0  0  0  0  0  0  0  0  0
    4.3634   -0.1593   -1.5334 H   0  0  0  0  0  0  0  0  0  0  0  0
    2.9390    0.6518   -0.9283 H   0  0  0  0  0  0  0  0  0  0  0  0
    2.0303    0.8317    1.0698 H   0  0  0  0  0  0  0  0  0  0  0  0
    4.5588    1.7725    3.4167 H   0  0  0  0  0  0  0  0  0  0  0  0
  1  2  2  0
  2  3  1  0
  3  4  1  0
  4  5  1  0
  5  6  2  0
  5  7  1  0
  7  8  2  0
  8  9  1  0
  9 10  1  0
  9 11  2  0
 11 12  1  0
 12 13  2  0
 13 14  1  0
  2 15  1  0
 15 16  1  0
 16 17  1  0
 17 18  1  0
 18 19  1  0
 19 20  1  0
 19 21  2  0
 21 22  1  0
 22 23  1  0
 23 24  2  0
 13  7  1  0
 23 18  1  0
  3 25  1  0
  3 26  1  0
  8 27  1  0
 11 28  1  0
 12 29  1  0
 15 30  1  0
 16 31  1  0
 16 32  1  0
 17 33  1  0
 17 34  1  0
 20 35  1  0
 21 36  1  0
M  END
$$$$
