
     RDKit          3D

 28 29  0  0  0  0  0  0  0  0999 V2000
    5.7019   -0.5535    0.4390 C   0  0  0  0  0  0  0  0  0  0  0  0
    4.3952   -0.7375    1.1857 C   0  0  0  0  0  0  0  0  0  0  0  0
    3.3257   -0.3511    0.3164 O   0  0  0  0  0  0  0  0  0  0  0  0
    2.0881   -0.4690    0.8682 C   0  0  0  0  0  0  0  0  0  0  0  0
    1.8515   -0.8646    2.0023 O   0  0  0  0  0  0  0  0  0  0  0  0
    1.0782   -0.0597   -0.0750 C   0  0  0  0  0  0  0  0  0  0  0  0
    1.1739    0.4056   -1.3753 C   0  0  0  0  0  0  0  0  0  0  0  0
   -0.1381    0.6627   -1.8436 C   0  0  0  0  0  0  0  0  0  0  0  0
   -1.0171    0.3519   -0.8256 C   0  0  0  0  0  0  0  0  0  0  0  0
   -2.4447    0.4407   -0.8087 C   0  0  0  0  0  0  0  0  0  0  0  0
   -3.3407    0.1360    0.1955 C   0  0  0  0  0  0  0  0  0  0  0  0
   -4.6150    0.4169   -0.3454 C   0  0  0  0  0  0  0  0  0  0  0  0
   -5.9413    0.2733    0.2938 C   0  0  0  0  0  0  0  0  0  0  0  0
   -4.5182    0.8654   -1.5997 N   0  0  0  0  0  0  0  0  0  0  0  0
   -3.1666    0.8799   -1.8875 O   0  0  0  0  0  0  0  0  0  0  0  0
   -0.2649   -0.0834    0.2365 N   0  0  0  0  0  0  0  0  0  0  0  0
    6.5524   -0.8372    1.0651 H   0  0  0  0  0  0  0  0  0  0  0  0
    5.8242    0.4890    0.1271 H   0  0  0  0  0  0  0  0  0  0  0  0
    5.7144   -1.1617   -0.4716 H   0  0  0  0  0  0  0  0  0  0  0  0
    4.3899   -0.1073    2.0822 H   0  0  0  0  0  0  0  0  0  0  0  0
    4.2781   -1.7886    1.4724 H   0  0  0  0  0  0  0  0  0  0  0  0
    2.0946    0.5451   -1.9288 H   0  0  0  0  0  0  0  0  0  0  0  0
   -0.4133    1.0361   -2.8228 H   0  0  0  0  0  0  0  0  0  0  0  0
   -3.1161   -0.2370    1.1826 H   0  0  0  0  0  0  0  0  0  0  0  0
   -5.8474   -0.1041    1.3171 H   0  0  0  0  0  0  0  0  0  0  0  0
   -6.4553    1.2390    0.3357 H   0  0  0  0  0  0  0  0  0  0  0  0
   -6.5661   -0.4279   -0.2688 H   0  0  0  0  0  0  0  0  0  0  0  0
   -0.6234   -0.3848    1.1333 H   0  0  0  0  0  0  0  0  0  0  0  0
  1  2  1  0
  2  3  1  0
  3  4  1  0
  4  5  2  0
  4  6  1  0
  6  7  2  0
  7  8  1  0
  8  9  2  0
  9 10  1  0
 10 11  2  0
 11 12  1  0
 12 13  1  0
 12 14  2  0
 14 15  1  0
  9 16  1  0
 16  6  1  0
 15 10  1  0
  1 17  1  0
  1 18  1  0
  1 19  1  0
  2 20  1  0
  2 21  1  0
  7 22  1  0
  8 23  1  0
 11 24  1  0
 13 25  1  0
 13 26  1  0
 13 27  1  0
 16 28  1  0
M  END
$$$$
