
     RDKit          3D

 27 27  0  0  0  0  0  0  0  0999 V2000
    3.2549   -1.6413   -0.7210 C   0  0  0  0  0  0  0  0  0  0  0  0
    2.1172   -0.7219   -0.4878 C   0  0  0  0  0  0  0  0  0  0  0  0
    2.0976    0.6769   -0.5591 C   0  0  0  0  0  0  0  0  0  0  0  0
    0.8003    1.0695   -0.2575 C   0  0  0  0  0  0  0  0  0  0  0  0
    0.3006    2.4153   -0.2065 C   0  0  0  0  0  0  0  0  0  0  0  0
   -0.8202    2.8223    0.0504 O   0  0  0  0  0  0  0  0  0  0  0  0
    1.2727    3.3093   -0.4972 O   0  0  0  0  0  0  0  0  0  0  0  0
    0.1173   -0.1145   -0.0230 N   0  0  0  0  0  0  0  0  0  0  0  0
   -1.2985   -0.3527    0.3425 C   0  0  0  0  0  0  0  0  0  0  0  0
   -1.6292    0.2812    1.7069 C   0  0  0  0  0  0  0  0  0  0  0  0
   -1.5961   -1.8741    0.4995 C   0  0  0  0  0  0  0  0  0  0  0  0
   -2.2448    0.1464   -0.7656 C   0  0  0  0  0  0  0  0  0  0  0  0
    0.9194   -1.2018   -0.1634 N   0  0  0  0  0  0  0  0  0  0  0  0
    3.4611   -2.2331    0.1767 H   0  0  0  0  0  0  0  0  0  0  0  0
    4.1639   -1.0878   -0.9774 H   0  0  0  0  0  0  0  0  0  0  0  0
    3.0324   -2.3269   -1.5450 H   0  0  0  0  0  0  0  0  0  0  0  0
    2.9224    1.3343   -0.8003 H   0  0  0  0  0  0  0  0  0  0  0  0
    0.8108    4.1695   -0.4291 H   0  0  0  0  0  0  0  0  0  0  0  0
   -0.9502   -0.0890    2.4843 H   0  0  0  0  0  0  0  0  0  0  0  0
   -2.6526    0.0376    2.0159 H   0  0  0  0  0  0  0  0  0  0  0  0
   -1.5529    1.3685    1.7087 H   0  0  0  0  0  0  0  0  0  0  0  0
   -0.9804   -2.3268    1.2861 H   0  0  0  0  0  0  0  0  0  0  0  0
   -1.4083   -2.4205   -0.4326 H   0  0  0  0  0  0  0  0  0  0  0  0
   -2.6450   -2.0460    0.7700 H   0  0  0  0  0  0  0  0  0  0  0  0
   -2.2059    1.2256   -0.9142 H   0  0  0  0  0  0  0  0  0  0  0  0
   -3.2874   -0.1013   -0.5335 H   0  0  0  0  0  0  0  0  0  0  0  0
   -1.9989   -0.3185   -1.7279 H   0  0  0  0  0  0  0  0  0  0  0  0
  1  2  1  0
  2  3  1  0
  3  4  2  0
  4  5  1  0
  5  6  2  0
  5  7  1  0
  4  8  1  0
  8  9  1  0
  9 10  1  0
  9 11  1  0
  9 12  1  0
  8 13  1  0
 13  2  2  0
  1 14  1  0
  1 15  1  0
  1 16  1  0
  3 17  1  0
  7 18  1  0
 10 19  1  0
 10 20  1  0
 10 21  1  0
 11 22  1  0
 11 23  1  0
 11 24  1  0
 12 25  1  0
 12 26  1  0
 12 27  1  0
M  END
$$$$
