
     RDKit          3D

 27 27  0  0  0  0  0  0  0  0999 V2000
   -1.9344    1.6462   -1.4800 C   0  0  0  0  0  0  0  0  0  0  0  0
   -1.1972    0.4599   -0.8335 C   0  0  0  0  0  0  0  0  0  0  0  0
   -1.2782   -0.7482   -1.7801 C   0  0  0  0  0  0  0  0  0  0  0  0
   -1.8802    0.1157    0.4931 C   0  0  0  0  0  0  0  0  0  0  0  0
    0.5348    0.9657   -0.5805 S   0  0  0  0  0  6  0  0  0  0  0  0
    0.6170    2.0365    0.3907 O   0  0  0  0  0  0  0  0  0  0  0  0
    1.1878    1.0889   -1.8718 O   0  0  0  0  0  0  0  0  0  0  0  0
    1.3664   -0.3741    0.1600 C   0  0  0  0  0  0  0  0  0  0  0  0
    1.9677   -1.4239   -0.6073 C   0  0  0  0  0  0  0  0  0  0  0  0
    2.6138   -2.3446    0.1870 C   0  0  0  0  0  0  0  0  0  0  0  0
    2.5152   -1.9397    1.8436 S   0  0  0  0  0  0  0  0  0  0  0  0
    1.6085   -0.5165    1.5148 C   0  0  0  0  0  0  0  0  0  0  0  0
    1.1805    0.3133    2.6129 C   0  0  0  0  0  0  0  0  0  0  0  0
    0.0374    0.6506    2.8846 O   0  0  0  0  0  0  0  0  0  0  0  0
    2.2233    0.7204    3.3690 O   0  0  0  0  0  0  0  0  0  0  0  0
   -1.9228    2.5248   -0.8257 H   0  0  0  0  0  0  0  0  0  0  0  0
   -1.4670    1.9378   -2.4266 H   0  0  0  0  0  0  0  0  0  0  0  0
   -2.9820    1.3969   -1.6899 H   0  0  0  0  0  0  0  0  0  0  0  0
   -0.7558   -0.5551   -2.7249 H   0  0  0  0  0  0  0  0  0  0  0  0
   -0.8344   -1.6419   -1.3308 H   0  0  0  0  0  0  0  0  0  0  0  0
   -2.3198   -0.9903   -2.0204 H   0  0  0  0  0  0  0  0  0  0  0  0
   -1.4037   -0.7395    0.9813 H   0  0  0  0  0  0  0  0  0  0  0  0
   -2.9317   -0.1453    0.3391 H   0  0  0  0  0  0  0  0  0  0  0  0
   -1.8512    0.9626    1.1859 H   0  0  0  0  0  0  0  0  0  0  0  0
    1.9431   -1.4874   -1.6910 H   0  0  0  0  0  0  0  0  0  0  0  0
    3.1547   -3.2278   -0.1267 H   0  0  0  0  0  0  0  0  0  0  0  0
    1.8082    1.3151    4.0272 H   0  0  0  0  0  0  0  0  0  0  0  0
  1  2  1  0
  2  3  1  0
  2  4  1  0
  2  5  1  0
  5  6  2  0
  5  7  2  0
  5  8  1  0
  8  9  1  0
  9 10  2  0
 10 11  1  0
 11 12  1  0
 12 13  1  0
 13 14  2  0
 13 15  1  0
 12  8  2  0
  1 16  1  0
  1 17  1  0
  1 18  1  0
  3 19  1  0
  3 20  1  0
  3 21  1  0
  4 22  1  0
  4 23  1  0
  4 24  1  0
  9 25  1  0
 10 26  1  0
 15 27  1  0
M  END
$$$$
