
     RDKit          3D

 51 54  0  0  0  0  0  0  0  0999 V2000
    6.1914   -0.3146   -2.6341 C   0  0  0  0  0  0  0  0  0  0  0  0
    5.7741    1.1103   -2.3026 C   0  0  0  0  0  0  0  0  0  0  0  0
    4.3904    1.1596   -1.7076 C   0  0  0  0  0  0  0  0  0  0  0  0
    4.1888    0.9512   -0.3432 C   0  0  0  0  0  0  0  0  0  0  0  0
    2.8975    0.9631    0.2016 C   0  0  0  0  0  0  0  0  0  0  0  0
    1.7683    1.1773   -0.6009 C   0  0  0  0  0  0  0  0  0  0  0  0
    0.4211    1.1825   -0.0581 N   0  0  0  0  0  0  0  0  0  0  0  0
    0.2128    1.6367    1.2483 C   0  0  0  0  0  0  0  0  0  0  0  0
    1.0734    2.0943    2.0003 O   0  0  0  0  0  0  0  0  0  0  0  0
   -1.1722    1.6169    1.7621 C   0  0  0  0  0  0  0  0  0  0  0  0
   -1.4205    1.9918    3.0970 C   0  0  0  0  0  0  0  0  0  0  0  0
   -2.7221    2.0066    3.5965 C   0  0  0  0  0  0  0  0  0  0  0  0
   -3.7753    1.6509    2.7632 C   0  0  0  0  0  0  0  0  0  0  0  0
   -3.5272    1.2826    1.4333 C   0  0  0  0  0  0  0  0  0  0  0  0
   -2.2180    1.2613    0.9155 C   0  0  0  0  0  0  0  0  0  0  0  0
   -1.9237    0.8689   -0.4169 N   0  0  0  0  0  0  0  0  0  0  0  0
   -3.0055    0.4522   -1.3284 C   0  0  0  0  0  0  0  0  0  0  0  0
   -3.4561   -0.9814   -1.0456 C   0  0  0  0  0  0  0  0  0  0  0  0
   -4.6326   -1.2595   -0.8168 O   0  0  0  0  0  0  0  0  0  0  0  0
   -2.4568   -1.9188   -1.1060 N   0  0  0  0  0  0  0  0  0  0  0  0
   -2.6016   -3.2124   -0.4853 C   0  0  0  0  0  0  0  0  0  0  0  0
   -2.2591   -3.0624    0.9570 C   0  0  0  0  0  0  0  0  0  0  0  0
   -3.0261   -3.0310    2.1064 C   0  0  0  0  0  0  0  0  0  0  0  0
   -2.1256   -2.8161    3.1789 C   0  0  0  0  0  0  0  0  0  0  0  0
   -0.8701   -2.7257    2.6157 C   0  0  0  0  0  0  0  0  0  0  0  0
   -0.9392   -2.8697    1.2653 O   0  0  0  0  0  0  0  0  0  0  0  0
   -0.6149    0.6866   -0.8586 C   0  0  0  0  0  0  0  0  0  0  0  0
   -0.4305    0.0401   -1.8988 O   0  0  0  0  0  0  0  0  0  0  0  0
    1.9915    1.3962   -1.9698 C   0  0  0  0  0  0  0  0  0  0  0  0
    3.2788    1.3813   -2.5175 C   0  0  0  0  0  0  0  0  0  0  0  0
    5.4759   -0.7903   -3.3187 H   0  0  0  0  0  0  0  0  0  0  0  0
    7.1771   -0.3183   -3.1111 H   0  0  0  0  0  0  0  0  0  0  0  0
    6.2527   -0.9276   -1.7324 H   0  0  0  0  0  0  0  0  0  0  0  0
    5.8046    1.7186   -3.2129 H   0  0  0  0  0  0  0  0  0  0  0  0
    6.4927    1.5610   -1.6062 H   0  0  0  0  0  0  0  0  0  0  0  0
    5.0349    0.7696    0.3120 H   0  0  0  0  0  0  0  0  0  0  0  0
    2.8044    0.7623    1.2647 H   0  0  0  0  0  0  0  0  0  0  0  0
   -0.5971    2.2774    3.7497 H   0  0  0  0  0  0  0  0  0  0  0  0
   -2.9112    2.2962    4.6290 H   0  0  0  0  0  0  0  0  0  0  0  0
   -4.7965    1.6540    3.1448 H   0  0  0  0  0  0  0  0  0  0  0  0
   -4.3922    0.9992    0.8382 H   0  0  0  0  0  0  0  0  0  0  0  0
   -3.8546    1.1440   -1.2497 H   0  0  0  0  0  0  0  0  0  0  0  0
   -2.6738    0.4998   -2.3742 H   0  0  0  0  0  0  0  0  0  0  0  0
   -1.5136   -1.5922   -1.2683 H   0  0  0  0  0  0  0  0  0  0  0  0
   -3.6302   -3.5816   -0.6093 H   0  0  0  0  0  0  0  0  0  0  0  0
   -1.9153   -3.9035   -0.9812 H   0  0  0  0  0  0  0  0  0  0  0  0
   -4.1040   -3.1365    2.1560 H   0  0  0  0  0  0  0  0  0  0  0  0
   -2.3590   -2.7330    4.2366 H   0  0  0  0  0  0  0  0  0  0  0  0
    0.1250   -2.5662    3.0139 H   0  0  0  0  0  0  0  0  0  0  0  0
    1.1682    1.6042   -2.6456 H   0  0  0  0  0  0  0  0  0  0  0  0
    3.4006    1.5443   -3.5841 H   0  0  0  0  0  0  0  0  0  0  0  0
  1  2  1  0
  2  3  1  0
  3  4  2  0
  4  5  1  0
  5  6  2  0
  6  7  1  0
  7  8  1  0
  8  9  2  0
  8 10  1  0
 10 11  2  0
 11 12  1  0
 12 13  2  0
 13 14  1  0
 14 15  2  0
 15 16  1  0
 16 17  1  0
 17 18  1  0
 18 19  2  0
 18 20  1  0
 20 21  1  0
 21 22  1  0
 22 23  2  0
 23 24  1  0
 24 25  2  0
 25 26  1  0
 16 27  1  0
 27 28  2  0
  6 29  1  0
 29 30  2  0
 30  3  1  0
 27  7  1  0
 15 10  1  0
 26 22  1  0
  1 31  1  0
  1 32  1  0
  1 33  1  0
  2 34  1  0
  2 35  1  0
  4 36  1  0
  5 37  1  0
 11 38  1  0
 12 39  1  0
 13 40  1  0
 14 41  1  0
 17 42  1  0
 17 43  1  0
 20 44  1  0
 21 45  1  0
 21 46  1  0
 23 47  1  0
 24 48  1  0
 25 49  1  0
 29 50  1  0
 30 51  1  0
M  END
$$$$
