
     RDKit          3D

 69 74  0  0  0  0  0  0  0  0999 V2000
    7.2066   -1.7506   -0.3334 C   0  0  0  0  0  0  0  0  0  0  0  0
    6.1593   -2.4318    0.3421 O   0  0  0  0  0  0  0  0  0  0  0  0
    4.8858   -1.9334    0.2085 C   0  0  0  0  0  0  0  0  0  0  0  0
    4.5236   -0.9318   -0.6984 C   0  0  0  0  0  0  0  0  0  0  0  0
    3.1914   -0.5005   -0.7956 C   0  0  0  0  0  0  0  0  0  0  0  0
    2.2129   -1.0521    0.0495 C   0  0  0  0  0  0  0  0  0  0  0  0
    2.5793   -2.0649    0.9527 C   0  0  0  0  0  0  0  0  0  0  0  0
    3.9031   -2.5121    1.0352 C   0  0  0  0  0  0  0  0  0  0  0  0
    4.3358   -3.5028    1.8844 O   0  0  0  0  0  0  0  0  0  0  0  0
    3.3629   -4.1600    2.6839 C   0  0  0  0  0  0  0  0  0  0  0  0
    0.7551   -0.6320   -0.0410 C   0  0  0  0  0  0  0  0  0  0  0  0
    0.5973    0.6256   -0.7916 N   0  0  0  0  0  0  0  0  0  0  0  0
   -0.7759    0.8731   -0.9811 C   0  0  0  0  0  0  0  0  0  0  0  0
   -1.4564    0.1890   -1.9296 N   0  0  0  0  0  0  0  0  0  0  0  0
   -2.7824    0.3916   -2.0814 C   0  0  0  0  0  0  0  0  0  0  0  0
   -3.4996   -0.4706   -3.1138 C   0  0  0  0  0  0  0  0  0  0  0  0
   -3.9809   -1.8053   -2.6871 N   0  0  0  0  0  0  0  0  0  0  0  0
   -2.8832   -2.7015   -2.2785 C   0  0  0  0  0  0  0  0  0  0  0  0
   -3.4305   -4.0851   -1.8910 C   0  0  0  0  0  0  0  0  0  0  0  0
   -4.3906   -3.9837   -0.8287 O   0  0  0  0  0  0  0  0  0  0  0  0
   -5.4766   -3.1311   -1.2235 C   0  0  0  0  0  0  0  0  0  0  0  0
   -4.9759   -1.7263   -1.6008 C   0  0  0  0  0  0  0  0  0  0  0  0
   -3.5336    1.2457   -1.3727 N   0  0  0  0  0  0  0  0  0  0  0  0
   -2.8314    1.9213   -0.4504 C   0  0  0  0  0  0  0  0  0  0  0  0
   -3.6090    3.0544    0.5583 S   0  0  0  0  0  0  0  0  0  0  0  0
   -2.1589    3.4133    1.3690 C   0  0  0  0  0  0  0  0  0  0  0  0
   -1.0823    2.6980    0.8769 C   0  0  0  0  0  0  0  0  0  0  0  0
   -1.4759    1.8045   -0.1876 C   0  0  0  0  0  0  0  0  0  0  0  0
    0.2980    2.8552    1.4471 C   0  0  0  0  0  0  0  0  0  0  0  0
    0.4218    4.1088    2.3295 C   0  0  0  0  0  0  0  0  0  0  0  0
   -0.7880    4.2696    3.2748 C   0  0  0  0  0  0  0  0  0  0  0  0
   -0.5885    5.4585    4.2114 C   0  0  0  0  0  0  0  0  0  0  0  0
   -2.0973    4.4275    2.4699 C   0  0  0  0  0  0  0  0  0  0  0  0
    1.3209    0.6009   -2.0698 C   0  0  0  0  0  0  0  0  0  0  0  0
    2.8229    0.5943   -1.7702 C   0  0  0  0  0  0  0  0  0  0  0  0
    7.2642   -0.7034   -0.0194 H   0  0  0  0  0  0  0  0  0  0  0  0
    8.1510   -2.2333   -0.0610 H   0  0  0  0  0  0  0  0  0  0  0  0
    7.0925   -1.8336   -1.4188 H   0  0  0  0  0  0  0  0  0  0  0  0
    5.2595   -0.4748   -1.3522 H   0  0  0  0  0  0  0  0  0  0  0  0
    1.8056   -2.4927    1.5829 H   0  0  0  0  0  0  0  0  0  0  0  0
    3.8686   -4.9529    3.2446 H   0  0  0  0  0  0  0  0  0  0  0  0
    2.5929   -4.6318    2.0637 H   0  0  0  0  0  0  0  0  0  0  0  0
    2.9209   -3.4684    3.4067 H   0  0  0  0  0  0  0  0  0  0  0  0
    0.2027   -1.4547   -0.5172 H   0  0  0  0  0  0  0  0  0  0  0  0
    0.3685   -0.4938    0.9779 H   0  0  0  0  0  0  0  0  0  0  0  0
   -2.8298   -0.5981   -3.9743 H   0  0  0  0  0  0  0  0  0  0  0  0
   -4.3544    0.0984   -3.5011 H   0  0  0  0  0  0  0  0  0  0  0  0
   -2.1659   -2.8215   -3.0988 H   0  0  0  0  0  0  0  0  0  0  0  0
   -2.3513   -2.2904   -1.4116 H   0  0  0  0  0  0  0  0  0  0  0  0
   -3.8930   -4.5871   -2.7501 H   0  0  0  0  0  0  0  0  0  0  0  0
   -2.6129   -4.7208   -1.5361 H   0  0  0  0  0  0  0  0  0  0  0  0
   -6.0167   -3.5984   -2.0564 H   0  0  0  0  0  0  0  0  0  0  0  0
   -6.1673   -3.0632   -0.3764 H   0  0  0  0  0  0  0  0  0  0  0  0
   -5.8306   -1.1172   -1.9154 H   0  0  0  0  0  0  0  0  0  0  0  0
   -4.5371   -1.2678   -0.7065 H   0  0  0  0  0  0  0  0  0  0  0  0
    1.0417    2.9144    0.6456 H   0  0  0  0  0  0  0  0  0  0  0  0
    0.5275    1.9674    2.0491 H   0  0  0  0  0  0  0  0  0  0  0  0
    1.3520    4.0484    2.9062 H   0  0  0  0  0  0  0  0  0  0  0  0
    0.5030    4.9970    1.6880 H   0  0  0  0  0  0  0  0  0  0  0  0
   -0.8650    3.3602    3.8867 H   0  0  0  0  0  0  0  0  0  0  0  0
   -0.4806    6.3927    3.6489 H   0  0  0  0  0  0  0  0  0  0  0  0
    0.3094    5.3243    4.8236 H   0  0  0  0  0  0  0  0  0  0  0  0
   -1.4430    5.5662    4.8880 H   0  0  0  0  0  0  0  0  0  0  0  0
   -2.9547    4.3172    3.1472 H   0  0  0  0  0  0  0  0  0  0  0  0
   -2.1511    5.4308    2.0262 H   0  0  0  0  0  0  0  0  0  0  0  0
    1.0531   -0.2849   -2.6626 H   0  0  0  0  0  0  0  0  0  0  0  0
    1.0888    1.4907   -2.6681 H   0  0  0  0  0  0  0  0  0  0  0  0
    3.3764    0.4703   -2.7093 H   0  0  0  0  0  0  0  0  0  0  0  0
    3.1151    1.5551   -1.3257 H   0  0  0  0  0  0  0  0  0  0  0  0
  1  2  1  0
  2  3  1  0
  3  4  2  0
  4  5  1  0
  5  6  2  0
  6  7  1  0
  7  8  2  0
  8  9  1  0
  9 10  1  0
  6 11  1  0
 11 12  1  0
 12 13  1  0
 13 14  2  0
 14 15  1  0
 15 16  1  0
 16 17  1  0
 17 18  1  0
 18 19  1  0
 19 20  1  0
 20 21  1  0
 21 22  1  0
 15 23  2  0
 23 24  1  0
 24 25  1  0
 25 26  1  0
 26 27  2  0
 27 28  1  0
 27 29  1  0
 29 30  1  0
 30 31  1  0
 31 32  1  0
 31 33  1  0
 12 34  1  0
 34 35  1  0
  8  3  1  0
 28 13  1  0
 35  5  1  0
 22 17  1  0
 28 24  2  0
 33 26  1  0
  1 36  1  0
  1 37  1  0
  1 38  1  0
  4 39  1  0
  7 40  1  0
 10 41  1  0
 10 42  1  0
 10 43  1  0
 11 44  1  0
 11 45  1  0
 16 46  1  0
 16 47  1  0
 18 48  1  0
 18 49  1  0
 19 50  1  0
 19 51  1  0
 21 52  1  0
 21 53  1  0
 22 54  1  0
 22 55  1  0
 29 56  1  0
 29 57  1  0
 30 58  1  0
 30 59  1  0
 31 60  1  0
 32 61  1  0
 32 62  1  0
 32 63  1  0
 33 64  1  0
 33 65  1  0
 34 66  1  0
 34 67  1  0
 35 68  1  0
 35 69  1  0
M  END
$$$$
