
     RDKit          3D

 40 41  0  0  0  0  0  0  0  0999 V2000
    7.7393   -0.3073    0.1539 C   0  0  0  0  0  0  0  0  0  0  0  0
    6.7700   -1.1297    0.7914 O   0  0  0  0  0  0  0  0  0  0  0  0
    5.4660   -0.7290    0.7058 C   0  0  0  0  0  0  0  0  0  0  0  0
    4.5574   -1.5501    1.3758 C   0  0  0  0  0  0  0  0  0  0  0  0
    3.1898   -1.2578    1.3713 C   0  0  0  0  0  0  0  0  0  0  0  0
    2.7097   -0.1286    0.6996 C   0  0  0  0  0  0  0  0  0  0  0  0
    1.2790    0.1996    0.6368 C   0  0  0  0  0  0  0  0  0  0  0  0
    0.4346    0.0306    1.6667 C   0  0  0  0  0  0  0  0  0  0  0  0
   -1.0023    0.4094    1.6090 C   0  0  0  0  0  0  0  0  0  0  0  0
   -1.5163    0.9166    2.5966 O   0  0  0  0  0  0  0  0  0  0  0  0
   -1.6237    0.0646    0.4261 N   0  0  0  0  0  0  0  0  0  0  0  0
   -2.9342    0.2854    0.0362 C   0  0  0  0  0  0  0  0  0  0  0  0
   -3.7890    0.9889    0.7871 C   0  0  0  0  0  0  0  0  0  0  0  0
   -5.1697    1.2226    0.3516 C   0  0  0  0  0  0  0  0  0  0  0  0
   -5.8986    1.9351    1.0375 O   0  0  0  0  0  0  0  0  0  0  0  0
   -5.5453    0.6165   -0.8229 N   0  0  0  0  0  0  0  0  0  0  0  0
   -6.9053    0.8067   -1.2903 C   0  0  0  0  0  0  0  0  0  0  0  0
   -4.6716   -0.0656   -1.6537 C   0  0  0  0  0  0  0  0  0  0  0  0
   -5.0354   -0.4985   -2.7500 O   0  0  0  0  0  0  0  0  0  0  0  0
   -3.3625   -0.2274   -1.1857 N   0  0  0  0  0  0  0  0  0  0  0  0
   -2.4519   -0.9723   -2.0509 C   0  0  0  0  0  0  0  0  0  0  0  0
    3.6228    0.6833    0.0155 C   0  0  0  0  0  0  0  0  0  0  0  0
    4.9927    0.3896    0.0224 C   0  0  0  0  0  0  0  0  0  0  0  0
    7.5772   -0.2739   -0.9285 H   0  0  0  0  0  0  0  0  0  0  0  0
    7.7480    0.6996    0.5843 H   0  0  0  0  0  0  0  0  0  0  0  0
    8.7232   -0.7528    0.3295 H   0  0  0  0  0  0  0  0  0  0  0  0
    4.9177   -2.4290    1.9056 H   0  0  0  0  0  0  0  0  0  0  0  0
    2.5144   -1.9310    1.8931 H   0  0  0  0  0  0  0  0  0  0  0  0
    0.9428    0.6432   -0.2973 H   0  0  0  0  0  0  0  0  0  0  0  0
    0.7662   -0.3083    2.6431 H   0  0  0  0  0  0  0  0  0  0  0  0
   -1.0531   -0.4655   -0.2134 H   0  0  0  0  0  0  0  0  0  0  0  0
   -3.5436    1.4417    1.7381 H   0  0  0  0  0  0  0  0  0  0  0  0
   -7.5749    1.1138   -0.4822 H   0  0  0  0  0  0  0  0  0  0  0  0
   -7.2856   -0.1216   -1.7285 H   0  0  0  0  0  0  0  0  0  0  0  0
   -6.8995    1.5816   -2.0636 H   0  0  0  0  0  0  0  0  0  0  0  0
   -2.9244   -1.3085   -2.9776 H   0  0  0  0  0  0  0  0  0  0  0  0
   -2.0968   -1.8613   -1.5194 H   0  0  0  0  0  0  0  0  0  0  0  0
   -1.6075   -0.3305   -2.3230 H   0  0  0  0  0  0  0  0  0  0  0  0
    3.2814    1.5646   -0.5240 H   0  0  0  0  0  0  0  0  0  0  0  0
    5.6591    1.0552   -0.5160 H   0  0  0  0  0  0  0  0  0  0  0  0
  1  2  1  0
  2  3  1  0
  3  4  2  0
  4  5  1  0
  5  6  2  0
  6  7  1  0
  7  8  2  3
  8  9  1  0
  9 10  2  0
  9 11  1  0
 11 12  1  0
 12 13  2  0
 13 14  1  0
 14 15  2  0
 14 16  1  0
 16 17  1  0
 16 18  1  0
 18 19  2  0
 18 20  1  0
 20 21  1  0
  6 22  1  0
 22 23  2  0
 23  3  1  0
 20 12  1  0
  1 24  1  0
  1 25  1  0
  1 26  1  0
  4 27  1  0
  5 28  1  0
  7 29  1  0
  8 30  1  0
 11 31  1  0
 13 32  1  0
 17 33  1  0
 17 34  1  0
 17 35  1  0
 21 36  1  0
 21 37  1  0
 21 38  1  0
 22 39  1  0
 23 40  1  0
M  END
$$$$
