
     RDKit          3D

 53 58  0  0  0  0  0  0  0  0999 V2000
   -0.8505    2.2205   -1.3283 O   0  0  0  0  0  0  0  0  0  0  0  0
   -1.1897    1.0411   -1.4278 C   0  0  0  0  0  0  0  0  0  0  0  0
   -0.2011   -0.0281   -1.9132 C   0  0  0  0  0  0  0  0  0  0  0  0
    0.9884   -0.0170   -1.0482 N   0  0  0  0  0  4  0  0  0  0  0  0
    1.1910   -0.7853    0.0974 C   0  0  0  0  0  0  0  0  0  0  0  0
    2.3899   -0.4043    0.6891 C   0  0  0  0  0  0  0  0  0  0  0  0
    3.0128   -1.0012    2.0037 C   0  0  0  0  0  0  0  0  0  0  0  0
    4.2932   -0.6344    2.4182 C   0  0  0  0  0  0  0  0  0  0  0  0
    4.8302   -1.1689    3.5954 C   0  0  0  0  0  0  0  0  0  0  0  0
    4.0915   -2.0691    4.3671 C   0  0  0  0  0  0  0  0  0  0  0  0
    4.8165   -2.6800    5.8087 Cl  0  0  0  0  0  0  0  0  0  0  0  0
    2.8091   -2.4392    3.9538 C   0  0  0  0  0  0  0  0  0  0  0  0
    1.8203   -3.5312    4.8604 Cl  0  0  0  0  0  0  0  0  0  0  0  0
    2.2735   -1.9115    2.7716 C   0  0  0  0  0  0  0  0  0  0  0  0
    2.8507    0.6004   -0.1449 N   0  0  0  0  0  0  0  0  0  0  0  0
    2.0071    0.8303   -1.1499 C   0  0  0  0  0  0  0  0  0  0  0  0
    2.4381    1.9327   -2.0421 C   0  0  0  0  0  0  0  0  0  0  0  0
    3.5627    2.5903   -1.2160 C   0  0  0  0  0  0  0  0  0  0  0  0
    3.9835    1.5183   -0.1721 C   0  0  0  0  0  0  0  0  0  0  0  0
   -2.4122    0.5057   -1.0165 N   0  0  0  0  0  0  0  0  0  0  0  0
   -2.6881    0.3805    0.3897 C   0  0  0  0  0  0  0  0  0  0  0  0
   -1.9010    1.0987    1.3224 C   0  0  0  0  0  0  0  0  0  0  0  0
   -2.0993    0.9845    2.7028 C   0  0  0  0  0  0  0  0  0  0  0  0
   -3.0863    0.1434    3.1909 C   0  0  0  0  0  0  0  0  0  0  0  0
   -3.8754   -0.5735    2.2935 C   0  0  0  0  0  0  0  0  0  0  0  0
   -3.6876   -0.4613    0.9025 C   0  0  0  0  0  0  0  0  0  0  0  0
   -4.7145   -1.5005   -0.0986 S   0  0  0  0  0  0  0  0  0  0  0  0
   -4.3719   -0.8834   -1.7167 C   0  0  0  0  0  0  0  0  0  0  0  0
   -5.2065   -1.3524   -2.7466 C   0  0  0  0  0  0  0  0  0  0  0  0
   -5.0136   -0.9525   -4.0669 C   0  0  0  0  0  0  0  0  0  0  0  0
   -3.9872   -0.0730   -4.3702 C   0  0  0  0  0  0  0  0  0  0  0  0
   -3.1505    0.3948   -3.3535 C   0  0  0  0  0  0  0  0  0  0  0  0
   -3.3138   -0.0128   -2.0087 C   0  0  0  0  0  0  0  0  0  0  0  0
    0.0955    0.1948   -2.9429 H   0  0  0  0  0  0  0  0  0  0  0  0
   -0.6385   -1.0312   -1.8869 H   0  0  0  0  0  0  0  0  0  0  0  0
    0.4402   -1.5149    0.3498 H   0  0  0  0  0  0  0  0  0  0  0  0
    4.9120    0.0469    1.8464 H   0  0  0  0  0  0  0  0  0  0  0  0
    5.8312   -0.8799    3.9099 H   0  0  0  0  0  0  0  0  0  0  0  0
    1.2660   -2.2133    2.4904 H   0  0  0  0  0  0  0  0  0  0  0  0
    1.5935    2.5971   -2.2307 H   0  0  0  0  0  0  0  0  0  0  0  0
    2.8076    1.4671   -2.9585 H   0  0  0  0  0  0  0  0  0  0  0  0
    4.3993    2.9313   -1.8354 H   0  0  0  0  0  0  0  0  0  0  0  0
    3.1571    3.4604   -0.6877 H   0  0  0  0  0  0  0  0  0  0  0  0
    4.1470    1.9668    0.8092 H   0  0  0  0  0  0  0  0  0  0  0  0
    4.8722    0.9715   -0.5040 H   0  0  0  0  0  0  0  0  0  0  0  0
   -1.1371    1.8052    1.0022 H   0  0  0  0  0  0  0  0  0  0  0  0
   -1.4937    1.5696    3.3948 H   0  0  0  0  0  0  0  0  0  0  0  0
   -3.2579    0.0523    4.2634 H   0  0  0  0  0  0  0  0  0  0  0  0
   -4.6474   -1.2320    2.6945 H   0  0  0  0  0  0  0  0  0  0  0  0
   -6.0226   -2.0370   -2.5221 H   0  0  0  0  0  0  0  0  0  0  0  0
   -5.6772   -1.3172   -4.8486 H   0  0  0  0  0  0  0  0  0  0  0  0
   -3.8512    0.2691   -5.3938 H   0  0  0  0  0  0  0  0  0  0  0  0
   -2.4053    1.1320   -3.6436 H   0  0  0  0  0  0  0  0  0  0  0  0
  1  2  2  0
  2  3  1  0
  3  4  1  0
  4  5  1  0
  5  6  2  0
  6  7  1  0
  7  8  2  0
  8  9  1  0
  9 10  2  0
 10 11  1  0
 10 12  1  0
 12 13  1  0
 12 14  2  0
  6 15  1  0
 15 16  1  0
 16 17  1  0
 17 18  1  0
 18 19  1  0
  2 20  1  0
 20 21  1  0
 21 22  2  0
 22 23  1  0
 23 24  2  0
 24 25  1  0
 25 26  2  0
 26 27  1  0
 27 28  1  0
 28 29  2  0
 29 30  1  0
 30 31  2  0
 31 32  1  0
 32 33  2  0
 16  4  2  0
 33 20  1  0
 14  7  1  0
 19 15  1  0
 26 21  1  0
 33 28  1  0
  3 34  1  0
  3 35  1  0
  5 36  1  0
  8 37  1  0
  9 38  1  0
 14 39  1  0
 17 40  1  0
 17 41  1  0
 18 42  1  0
 18 43  1  0
 19 44  1  0
 19 45  1  0
 22 46  1  0
 23 47  1  0
 24 48  1  0
 25 49  1  0
 29 50  1  0
 30 51  1  0
 31 52  1  0
 32 53  1  0
M  CHG  1   4   1
M  END
$$$$
