
     RDKit          3D

 38 39  0  0  0  0  0  0  0  0999 V2000
   -0.8907    1.9727    0.7094 O   0  0  0  0  0  0  0  0  0  0  0  0
   -1.1497    1.5349   -0.4032 C   0  0  0  0  0  0  0  0  0  0  0  0
   -2.5139    1.5819   -0.9802 C   0  0  0  0  0  0  0  0  0  0  0  0
   -3.6019    1.1141   -0.3477 C   0  0  0  0  0  0  0  0  0  0  0  0
   -3.5994    0.4689    0.9721 C   0  0  0  0  0  0  0  0  0  0  0  0
   -3.7196    1.2883    2.1048 C   0  0  0  0  0  0  0  0  0  0  0  0
   -3.7512    0.7378    3.3912 C   0  0  0  0  0  0  0  0  0  0  0  0
   -3.6711   -0.6433    3.5703 C   0  0  0  0  0  0  0  0  0  0  0  0
   -3.5508   -1.4811    2.4618 C   0  0  0  0  0  0  0  0  0  0  0  0
   -3.5060   -0.9181    1.1748 C   0  0  0  0  0  0  0  0  0  0  0  0
   -3.3972   -1.8360    0.0498 N   0  0  0  0  0  4  0  0  0  0  0  0
   -4.2200   -2.7624    0.0002 O   0  0  0  0  0  0  0  0  0  0  0  0
   -2.4854   -1.6504   -0.7701 O   0  0  0  0  0  1  0  0  0  0  0  0
   -0.2462    0.9579   -1.2591 N   0  0  0  0  0  0  0  0  0  0  0  0
    1.1602    0.8489   -0.9203 C   0  0  0  0  0  0  0  0  0  0  0  0
    1.8239   -0.3272   -1.6359 C   0  0  0  0  0  0  0  0  0  0  0  0
    3.2931   -0.4347   -1.3087 C   0  0  0  0  0  0  0  0  0  0  0  0
    3.7187   -1.1925   -0.2056 C   0  0  0  0  0  0  0  0  0  0  0  0
    5.0760   -1.2816    0.1062 C   0  0  0  0  0  0  0  0  0  0  0  0
    6.0051   -0.6105   -0.6797 C   0  0  0  0  0  0  0  0  0  0  0  0
    7.3075   -0.6979   -0.3797 F   0  0  0  0  0  0  0  0  0  0  0  0
    5.6028    0.1514   -1.7710 C   0  0  0  0  0  0  0  0  0  0  0  0
    4.2464    0.2421   -2.0863 C   0  0  0  0  0  0  0  0  0  0  0  0
   -2.5951    2.0098   -1.9726 H   0  0  0  0  0  0  0  0  0  0  0  0
   -4.5730    1.1781   -0.8325 H   0  0  0  0  0  0  0  0  0  0  0  0
   -3.7774    2.3710    1.9969 H   0  0  0  0  0  0  0  0  0  0  0  0
   -3.8389    1.3934    4.2556 H   0  0  0  0  0  0  0  0  0  0  0  0
   -3.6995   -1.0653    4.5744 H   0  0  0  0  0  0  0  0  0  0  0  0
   -3.4924   -2.5594    2.6050 H   0  0  0  0  0  0  0  0  0  0  0  0
   -0.5603    0.6313   -2.1645 H   0  0  0  0  0  0  0  0  0  0  0  0
    1.6331    1.7956   -1.2080 H   0  0  0  0  0  0  0  0  0  0  0  0
    1.2637    0.7496    0.1657 H   0  0  0  0  0  0  0  0  0  0  0  0
    1.3176   -1.2648   -1.3703 H   0  0  0  0  0  0  0  0  0  0  0  0
    1.6990   -0.2274   -2.7215 H   0  0  0  0  0  0  0  0  0  0  0  0
    2.9952   -1.7176    0.4151 H   0  0  0  0  0  0  0  0  0  0  0  0
    5.4135   -1.8683    0.9546 H   0  0  0  0  0  0  0  0  0  0  0  0
    6.3464    0.6682   -2.3678 H   0  0  0  0  0  0  0  0  0  0  0  0
    3.9378    0.8426   -2.9396 H   0  0  0  0  0  0  0  0  0  0  0  0
  1  2  2  0
  2  3  1  0
  3  4  2  3
  4  5  1  0
  5  6  2  0
  6  7  1  0
  7  8  2  0
  8  9  1  0
  9 10  2  0
 10 11  1  0
 11 12  2  0
 11 13  1  0
  2 14  1  0
 14 15  1  0
 15 16  1  0
 16 17  1  0
 17 18  2  0
 18 19  1  0
 19 20  2  0
 20 21  1  0
 20 22  1  0
 22 23  2  0
 10  5  1  0
 23 17  1  0
  3 24  1  0
  4 25  1  0
  6 26  1  0
  7 27  1  0
  8 28  1  0
  9 29  1  0
 14 30  1  0
 15 31  1  0
 15 32  1  0
 16 33  1  0
 16 34  1  0
 18 35  1  0
 19 36  1  0
 22 37  1  0
 23 38  1  0
M  CHG  2  11   1  13  -1
M  END
$$$$
