
     RDKit          3D

 48 50  0  0  0  0  0  0  0  0999 V2000
   -1.8797   -1.2787    1.9166 C   0  0  0  0  0  0  0  0  0  0  0  0
   -2.5117   -0.0233    1.6666 O   0  0  0  0  0  0  0  0  0  0  0  0
   -2.1221    0.4787    0.4531 C   0  0  0  0  0  0  0  0  0  0  0  0
   -1.1763    1.5026    0.4469 C   0  0  0  0  0  0  0  0  0  0  0  0
   -0.7544    2.0502   -0.7681 C   0  0  0  0  0  0  0  0  0  0  0  0
    0.2658    3.1047   -0.8184 C   0  0  0  0  0  0  0  0  0  0  0  0
    1.5333    3.0421   -0.3590 C   0  0  0  0  0  0  0  0  0  0  0  0
    2.3593    4.2019   -0.4494 C   0  0  0  0  0  0  0  0  0  0  0  0
    2.9860    5.1687   -0.5880 N   0  0  0  0  0  0  0  0  0  0  0  0
    2.1453    1.8434    0.2988 C   0  0  0  0  0  0  0  0  0  0  0  0
    2.8883    2.0015    1.2595 O   0  0  0  0  0  0  0  0  0  0  0  0
    1.8797    0.6485   -0.3381 N   0  0  0  0  0  0  0  0  0  0  0  0
    2.2975   -0.6522    0.0449 C   0  0  0  0  0  0  0  0  0  0  0  0
    2.5243   -1.5230   -1.0322 C   0  0  0  0  0  0  0  0  0  0  0  0
    2.9926   -2.8112   -0.8150 C   0  0  0  0  0  0  0  0  0  0  0  0
    3.2163   -3.2470    0.4869 C   0  0  0  0  0  0  0  0  0  0  0  0
    2.9496   -2.4450    1.5835 C   0  0  0  0  0  0  0  0  0  0  0  0
    3.1490   -2.9946    2.7942 N   0  0  0  0  0  0  0  0  0  0  0  0
    2.8400   -2.2684    3.8852 C   0  0  0  0  0  0  0  0  0  0  0  0
    2.3060   -1.0025    3.8254 C   0  0  0  0  0  0  0  0  0  0  0  0
    2.1037   -0.4416    2.5677 C   0  0  0  0  0  0  0  0  0  0  0  0
    2.4578   -1.1301    1.3836 C   0  0  0  0  0  0  0  0  0  0  0  0
   -1.3178    1.5950   -1.9721 C   0  0  0  0  0  0  0  0  0  0  0  0
   -2.2847    0.5826   -1.9709 C   0  0  0  0  0  0  0  0  0  0  0  0
   -2.8887    0.0746   -3.0897 O   0  0  0  0  0  0  0  0  0  0  0  0
   -2.4036    0.5018   -4.3538 C   0  0  0  0  0  0  0  0  0  0  0  0
   -2.7001    0.0414   -0.7450 C   0  0  0  0  0  0  0  0  0  0  0  0
   -3.6336   -0.9678   -0.7390 O   0  0  0  0  0  0  0  0  0  0  0  0
   -4.9220   -0.4412   -0.4240 C   0  0  0  0  0  0  0  0  0  0  0  0
   -1.9292   -1.9597    1.0600 H   0  0  0  0  0  0  0  0  0  0  0  0
   -0.8384   -1.1186    2.2084 H   0  0  0  0  0  0  0  0  0  0  0  0
   -2.3962   -1.7490    2.7570 H   0  0  0  0  0  0  0  0  0  0  0  0
   -0.7729    1.8534    1.3929 H   0  0  0  0  0  0  0  0  0  0  0  0
   -0.0865    4.0275   -1.2817 H   0  0  0  0  0  0  0  0  0  0  0  0
    1.5341    0.7248   -1.2869 H   0  0  0  0  0  0  0  0  0  0  0  0
    2.3787   -1.1962   -2.0595 H   0  0  0  0  0  0  0  0  0  0  0  0
    3.1936   -3.4742   -1.6519 H   0  0  0  0  0  0  0  0  0  0  0  0
    3.5895   -4.2557    0.6546 H   0  0  0  0  0  0  0  0  0  0  0  0
    3.0282   -2.7564    4.8373 H   0  0  0  0  0  0  0  0  0  0  0  0
    2.0502   -0.4602    4.7280 H   0  0  0  0  0  0  0  0  0  0  0  0
    1.6448    0.5396    2.5306 H   0  0  0  0  0  0  0  0  0  0  0  0
   -0.9914    2.0480   -2.9035 H   0  0  0  0  0  0  0  0  0  0  0  0
   -1.3379    0.2761   -4.4660 H   0  0  0  0  0  0  0  0  0  0  0  0
   -2.9414   -0.0578   -5.1239 H   0  0  0  0  0  0  0  0  0  0  0  0
   -2.6029    1.5659   -4.5132 H   0  0  0  0  0  0  0  0  0  0  0  0
   -5.1840    0.4019   -1.0729 H   0  0  0  0  0  0  0  0  0  0  0  0
   -5.6581   -1.2357   -0.5873 H   0  0  0  0  0  0  0  0  0  0  0  0
   -4.9800   -0.1429    0.6276 H   0  0  0  0  0  0  0  0  0  0  0  0
  1  2  1  0
  2  3  1  0
  3  4  2  0
  4  5  1  0
  5  6  1  0
  6  7  2  3
  7  8  1  0
  8  9  3  0
  7 10  1  0
 10 11  2  0
 10 12  1  0
 12 13  1  0
 13 14  2  0
 14 15  1  0
 15 16  2  0
 16 17  1  0
 17 18  2  0
 18 19  1  0
 19 20  2  0
 20 21  1  0
 21 22  2  0
  5 23  2  0
 23 24  1  0
 24 25  1  0
 25 26  1  0
 24 27  2  0
 27 28  1  0
 28 29  1  0
 27  3  1  0
 22 13  1  0
 22 17  1  0
  1 30  1  0
  1 31  1  0
  1 32  1  0
  4 33  1  0
  6 34  1  0
 12 35  1  0
 14 36  1  0
 15 37  1  0
 16 38  1  0
 19 39  1  0
 20 40  1  0
 21 41  1  0
 23 42  1  0
 26 43  1  0
 26 44  1  0
 26 45  1  0
 29 46  1  0
 29 47  1  0
 29 48  1  0
M  END
$$$$
