
     RDKit          3D

 61 65  0  0  0  0  0  0  0  0999 V2000
   -7.9826   -1.5993    0.7675 C   0  0  0  0  0  0  0  0  0  0  0  0
   -7.5796   -0.2816    0.4244 O   0  0  0  0  0  0  0  0  0  0  0  0
   -6.2363   -0.0474    0.2661 C   0  0  0  0  0  0  0  0  0  0  0  0
   -5.2469   -1.0291    0.3622 C   0  0  0  0  0  0  0  0  0  0  0  0
   -3.9013   -0.6940    0.1838 C   0  0  0  0  0  0  0  0  0  0  0  0
   -3.5174    0.6236   -0.0940 C   0  0  0  0  0  0  0  0  0  0  0  0
   -2.1020    0.9370   -0.2722 C   0  0  0  0  0  0  0  0  0  0  0  0
   -1.0589    0.1287   -0.2454 N   0  0  0  0  0  0  0  0  0  0  0  0
    0.0268    0.9591   -0.4422 C   0  0  0  0  0  0  0  0  0  0  0  0
    1.4082    0.4132   -0.4573 C   0  0  0  0  0  0  0  0  0  0  0  0
    2.0588    0.6167    0.8266 N   0  0  0  0  0  0  0  0  0  0  0  0
    3.0877    1.4744    1.1235 C   0  0  0  0  0  0  0  0  0  0  0  0
    3.8151    2.5505   -0.0218 S   0  0  0  0  0  0  0  0  0  0  0  0
    5.3994    1.6876   -0.2723 C   0  0  0  0  0  0  0  0  0  0  0  0
    5.2202    0.3899   -1.0239 C   0  0  0  0  0  0  0  0  0  0  0  0
    5.0618    0.3859   -2.4164 C   0  0  0  0  0  0  0  0  0  0  0  0
    4.8463   -0.8116   -3.1022 C   0  0  0  0  0  0  0  0  0  0  0  0
    4.7723   -2.0244   -2.4082 C   0  0  0  0  0  0  0  0  0  0  0  0
    4.5743   -3.3136   -3.1493 C   0  0  0  0  0  0  0  0  0  0  0  0
    4.9469   -2.0250   -1.0204 C   0  0  0  0  0  0  0  0  0  0  0  0
    5.1655   -0.8291   -0.3339 C   0  0  0  0  0  0  0  0  0  0  0  0
    3.5005    1.3484    2.3626 N   0  0  0  0  0  0  0  0  0  0  0  0
    2.7073    0.3707    2.9069 C   0  0  0  0  0  0  0  0  0  0  0  0
    2.7168   -0.1600    4.1962 C   0  0  0  0  0  0  0  0  0  0  0  0
    1.7928   -1.1622    4.4398 C   0  0  0  0  0  0  0  0  0  0  0  0
    0.9110   -1.6402    3.5310 N   0  0  0  0  0  0  0  0  0  0  0  0
    0.8952   -1.1173    2.2815 C   0  0  0  0  0  0  0  0  0  0  0  0
    1.8005   -0.1126    1.9705 C   0  0  0  0  0  0  0  0  0  0  0  0
   -0.4168    2.2549   -0.6071 C   0  0  0  0  0  0  0  0  0  0  0  0
    0.2283    3.5573   -0.8475 C   0  0  0  0  0  0  0  0  0  0  0  0
   -1.7786    2.2492   -0.4974 O   0  0  0  0  0  0  0  0  0  0  0  0
   -4.5144    1.6070   -0.1907 C   0  0  0  0  0  0  0  0  0  0  0  0
   -5.8667    1.2836   -0.0132 C   0  0  0  0  0  0  0  0  0  0  0  0
   -6.8969    2.1888   -0.0946 O   0  0  0  0  0  0  0  0  0  0  0  0
   -6.5647    3.5524   -0.3124 C   0  0  0  0  0  0  0  0  0  0  0  0
   -7.7313   -2.3085   -0.0278 H   0  0  0  0  0  0  0  0  0  0  0  0
   -7.5514   -1.9083    1.7253 H   0  0  0  0  0  0  0  0  0  0  0  0
   -9.0713   -1.5981    0.8785 H   0  0  0  0  0  0  0  0  0  0  0  0
   -5.4858   -2.0656    0.5747 H   0  0  0  0  0  0  0  0  0  0  0  0
   -3.1466   -1.4750    0.2664 H   0  0  0  0  0  0  0  0  0  0  0  0
    1.9969    0.8696   -1.2563 H   0  0  0  0  0  0  0  0  0  0  0  0
    1.3989   -0.6664   -0.6480 H   0  0  0  0  0  0  0  0  0  0  0  0
    5.8912    1.5171    0.6923 H   0  0  0  0  0  0  0  0  0  0  0  0
    6.0634    2.3467   -0.8431 H   0  0  0  0  0  0  0  0  0  0  0  0
    5.1036    1.3176   -2.9770 H   0  0  0  0  0  0  0  0  0  0  0  0
    4.7363   -0.7920   -4.1844 H   0  0  0  0  0  0  0  0  0  0  0  0
    3.9642   -3.1584   -4.0454 H   0  0  0  0  0  0  0  0  0  0  0  0
    5.5431   -3.7264   -3.4474 H   0  0  0  0  0  0  0  0  0  0  0  0
    4.0536   -4.0470   -2.5249 H   0  0  0  0  0  0  0  0  0  0  0  0
    4.9135   -2.9585   -0.4622 H   0  0  0  0  0  0  0  0  0  0  0  0
    5.2846   -0.8542    0.7486 H   0  0  0  0  0  0  0  0  0  0  0  0
    3.4047    0.1902    4.9529 H   0  0  0  0  0  0  0  0  0  0  0  0
    1.7348   -1.6300    5.4193 H   0  0  0  0  0  0  0  0  0  0  0  0
    0.1661   -1.5169    1.5872 H   0  0  0  0  0  0  0  0  0  0  0  0
    1.0151    3.4655   -1.6021 H   0  0  0  0  0  0  0  0  0  0  0  0
   -0.4947    4.2961   -1.2073 H   0  0  0  0  0  0  0  0  0  0  0  0
    0.6729    3.9385    0.0763 H   0  0  0  0  0  0  0  0  0  0  0  0
   -4.2145    2.6271   -0.4082 H   0  0  0  0  0  0  0  0  0  0  0  0
   -7.4966    4.1264   -0.3197 H   0  0  0  0  0  0  0  0  0  0  0  0
   -6.0831    3.6902   -1.2862 H   0  0  0  0  0  0  0  0  0  0  0  0
   -5.9406    3.9431    0.4986 H   0  0  0  0  0  0  0  0  0  0  0  0
  1  2  1  0
  2  3  1  0
  3  4  2  0
  4  5  1  0
  5  6  2  0
  6  7  1  0
  7  8  2  0
  8  9  1  0
  9 10  1  0
 10 11  1  0
 11 12  1  0
 12 13  1  0
 13 14  1  0
 14 15  1  0
 15 16  2  0
 16 17  1  0
 17 18  2  0
 18 19  1  0
 18 20  1  0
 20 21  2  0
 12 22  2  0
 22 23  1  0
 23 24  2  0
 24 25  1  0
 25 26  2  0
 26 27  1  0
 27 28  2  0
  9 29  2  0
 29 30  1  0
 29 31  1  0
  6 32  1  0
 32 33  2  0
 33 34  1  0
 34 35  1  0
 33  3  1  0
 31  7  1  0
 28 11  1  0
 21 15  1  0
 28 23  1  0
  1 36  1  0
  1 37  1  0
  1 38  1  0
  4 39  1  0
  5 40  1  0
 10 41  1  0
 10 42  1  0
 14 43  1  0
 14 44  1  0
 16 45  1  0
 17 46  1  0
 19 47  1  0
 19 48  1  0
 19 49  1  0
 20 50  1  0
 21 51  1  0
 24 52  1  0
 25 53  1  0
 27 54  1  0
 30 55  1  0
 30 56  1  0
 30 57  1  0
 32 58  1  0
 35 59  1  0
 35 60  1  0
 35 61  1  0
M  END
$$$$
