
     RDKit          3D

 58 63  0  0  0  0  0  0  0  0999 V2000
    5.9270   -3.6197    1.9753 C   0  0  0  0  0  0  0  0  0  0  0  0
    5.6469   -2.2131    1.5686 C   0  0  0  0  0  0  0  0  0  0  0  0
    6.4193   -1.3761    0.7887 C   0  0  0  0  0  0  0  0  0  0  0  0
    5.8295   -0.0884    0.6334 C   0  0  0  0  0  0  0  0  0  0  0  0
    4.6037    0.0051    1.2634 C   0  0  0  0  0  0  0  0  0  0  0  0
    3.7471    1.1752    1.3448 C   0  0  0  0  0  0  0  0  0  0  0  0
    4.1824    2.2523    1.7558 O   0  0  0  0  0  0  0  0  0  0  0  0
    2.4153    1.0662    0.9131 N   0  0  0  0  0  0  0  0  0  0  0  0
    1.5535    2.2248    1.1024 C   0  0  0  0  0  0  0  0  0  0  0  0
    0.0814    1.8642    0.9424 C   0  0  0  0  0  0  0  0  0  0  0  0
   -0.2092    1.3534   -0.4916 C   0  0  0  0  0  0  0  0  0  0  0  0
    0.9591    0.4506   -0.9960 C   0  0  0  0  0  0  0  0  0  0  0  0
    1.8960   -0.0360    0.1075 C   0  0  0  0  0  0  0  0  0  0  0  0
   -0.1503    2.4998   -1.3907 O   0  0  0  0  0  0  0  0  0  0  0  0
   -1.2575    3.2866   -1.5051 C   0  0  0  0  0  0  0  0  0  0  0  0
   -1.0825    4.4973   -2.1753 C   0  0  0  0  0  0  0  0  0  0  0  0
   -2.1560    5.3801   -2.3205 C   0  0  0  0  0  0  0  0  0  0  0  0
   -3.4049    5.0476   -1.7951 C   0  0  0  0  0  0  0  0  0  0  0  0
   -4.7220    6.1395   -1.9718 Cl  0  0  0  0  0  0  0  0  0  0  0  0
   -3.5921    3.8377   -1.1328 C   0  0  0  0  0  0  0  0  0  0  0  0
   -2.5129    2.9578   -1.0036 C   0  0  0  0  0  0  0  0  0  0  0  0
   -2.6811    1.6616   -0.3341 C   0  0  0  0  0  0  0  0  0  0  0  0
   -3.6568    1.4675    0.3864 O   0  0  0  0  0  0  0  0  0  0  0  0
   -1.5857    0.6359   -0.5970 C   0  0  0  0  0  0  0  0  0  0  0  0
   -1.7471   -0.5923    0.2845 C   0  0  0  0  0  0  0  0  0  0  0  0
   -2.5066   -1.4602   -0.6605 C   0  0  0  0  0  0  0  0  0  0  0  0
   -3.1707   -2.7104   -0.2216 C   0  0  0  0  0  0  0  0  0  0  0  0
   -3.9093   -3.4484   -1.1555 C   0  0  0  0  0  0  0  0  0  0  0  0
   -4.5363   -4.6369   -0.7770 C   0  0  0  0  0  0  0  0  0  0  0  0
   -4.4289   -5.0938    0.5350 C   0  0  0  0  0  0  0  0  0  0  0  0
   -3.6962   -4.3635    1.4699 C   0  0  0  0  0  0  0  0  0  0  0  0
   -3.0661   -3.1735    1.0949 C   0  0  0  0  0  0  0  0  0  0  0  0
   -2.4997   -1.0561   -1.8909 N   0  0  0  0  0  0  0  0  0  0  0  0
   -1.7822    0.1588   -1.9406 O   0  0  0  0  0  0  0  0  0  0  0  0
    4.2232   -1.4320    2.1128 S   0  0  0  0  0  0  0  0  0  0  0  0
    6.7391   -4.0446    1.3760 H   0  0  0  0  0  0  0  0  0  0  0  0
    5.0457   -4.2554    1.8376 H   0  0  0  0  0  0  0  0  0  0  0  0
    6.2260   -3.6609    3.0274 H   0  0  0  0  0  0  0  0  0  0  0  0
    7.3734   -1.6655    0.3625 H   0  0  0  0  0  0  0  0  0  0  0  0
    6.2763    0.7321    0.0814 H   0  0  0  0  0  0  0  0  0  0  0  0
    1.8543    2.9887    0.3762 H   0  0  0  0  0  0  0  0  0  0  0  0
    1.7288    2.6386    2.1022 H   0  0  0  0  0  0  0  0  0  0  0  0
   -0.1771    1.1012    1.6859 H   0  0  0  0  0  0  0  0  0  0  0  0
   -0.5147    2.7540    1.1730 H   0  0  0  0  0  0  0  0  0  0  0  0
    0.5851   -0.4220   -1.5428 H   0  0  0  0  0  0  0  0  0  0  0  0
    1.5664    1.0071   -1.7236 H   0  0  0  0  0  0  0  0  0  0  0  0
    1.3735   -0.7147    0.7888 H   0  0  0  0  0  0  0  0  0  0  0  0
    2.7140   -0.5953   -0.3561 H   0  0  0  0  0  0  0  0  0  0  0  0
   -0.1077    4.7586   -2.5815 H   0  0  0  0  0  0  0  0  0  0  0  0
   -2.0114    6.3224   -2.8429 H   0  0  0  0  0  0  0  0  0  0  0  0
   -4.5681    3.5734   -0.7319 H   0  0  0  0  0  0  0  0  0  0  0  0
   -0.8018   -1.0937    0.5050 H   0  0  0  0  0  0  0  0  0  0  0  0
   -2.2845   -0.4065    1.2173 H   0  0  0  0  0  0  0  0  0  0  0  0
   -4.0029   -3.1027   -2.1831 H   0  0  0  0  0  0  0  0  0  0  0  0
   -5.1087   -5.2035   -1.5074 H   0  0  0  0  0  0  0  0  0  0  0  0
   -4.9172   -6.0197    0.8289 H   0  0  0  0  0  0  0  0  0  0  0  0
   -3.6166   -4.7212    2.4933 H   0  0  0  0  0  0  0  0  0  0  0  0
   -2.5022   -2.6317    1.8476 H   0  0  0  0  0  0  0  0  0  0  0  0
  1  2  1  0
  2  3  2  0
  3  4  1  0
  4  5  2  0
  5  6  1  0
  6  7  2  0
  6  8  1  0
  8  9  1  0
  9 10  1  0
 10 11  1  0
 11 12  1  0
 12 13  1  0
 11 14  1  0
 14 15  1  0
 15 16  2  0
 16 17  1  0
 17 18  2  0
 18 19  1  0
 18 20  1  0
 20 21  2  0
 21 22  1  0
 22 23  2  0
 22 24  1  0
 24 25  1  0
 25 26  1  0
 26 27  1  0
 27 28  2  0
 28 29  1  0
 29 30  2  0
 30 31  1  0
 31 32  2  0
 26 33  2  0
 33 34  1  0
  5 35  1  0
 35  2  1  0
 13  8  1  0
 21 15  1  0
 34 24  1  0
 24 11  1  0
 32 27  1  0
  1 36  1  0
  1 37  1  0
  1 38  1  0
  3 39  1  0
  4 40  1  0
  9 41  1  0
  9 42  1  0
 10 43  1  0
 10 44  1  0
 12 45  1  0
 12 46  1  0
 13 47  1  0
 13 48  1  0
 16 49  1  0
 17 50  1  0
 20 51  1  0
 25 52  1  0
 25 53  1  0
 28 54  1  0
 29 55  1  0
 30 56  1  0
 31 57  1  0
 32 58  1  0
M  END
$$$$
