
     RDKit          3D

 71 77  0  0  0  0  0  0  0  0999 V2000
    3.4629    4.1212    0.4120 C   0  0  0  0  0  0  0  0  0  0  0  0
    4.4155    3.0772    0.2734 O   0  0  0  0  0  0  0  0  0  0  0  0
    3.8053    1.7972    0.0811 C   0  0  0  0  0  0  0  0  0  0  0  0
    3.1651    1.1916    1.3739 C   0  0  0  0  0  0  0  0  0  0  0  0
    3.4153    1.6703    2.4867 O   0  0  0  0  0  0  0  0  0  0  0  0
    2.2628    0.1374    1.2425 N   0  0  0  0  0  0  0  0  0  0  0  0
    1.7455   -0.4994    2.4491 C   0  0  0  0  0  0  0  0  0  0  0  0
    0.2605   -0.8397    2.2778 C   0  0  0  0  0  0  0  0  0  0  0  0
   -0.0175   -1.7749    1.1663 N   0  0  0  0  0  0  0  0  0  0  0  0
    0.6792   -1.2989   -0.1077 C   0  0  2  0  0  0  0  0  0  0  0  0
    2.0775   -0.6605    0.0295 C   0  0  0  0  0  0  0  0  0  0  0  0
   -0.3746   -0.4514   -0.7310 C   0  0  0  0  0  0  0  0  0  0  0  0
   -1.6380   -0.7702   -0.2196 C   0  0  0  0  0  0  0  0  0  0  0  0
   -2.5703    0.0264   -0.8357 C   0  0  0  0  0  0  0  0  0  0  0  0
   -3.8939    0.0648   -0.7021 O   0  0  0  0  0  0  0  0  0  0  0  0
   -1.8802    0.8273   -1.7694 N   0  0  0  0  0  0  0  0  0  0  0  0
   -2.4707    1.7239   -2.7152 C   0  0  0  0  0  0  0  0  0  0  0  0
   -3.6432    2.4223   -2.4025 C   0  0  0  0  0  0  0  0  0  0  0  0
   -4.2038    3.3052   -3.3290 C   0  0  0  0  0  0  0  0  0  0  0  0
   -3.6071    3.4871   -4.5752 C   0  0  0  0  0  0  0  0  0  0  0  0
   -2.4516    2.7814   -4.9022 C   0  0  0  0  0  0  0  0  0  0  0  0
   -1.8848    1.8996   -3.9789 C   0  0  0  0  0  0  0  0  0  0  0  0
   -0.4993    0.5764   -1.6226 C   0  0  0  0  0  0  0  0  0  0  0  0
    0.4707    1.2726   -2.2155 O   0  0  0  0  0  0  0  0  0  0  0  0
   -1.4949   -1.8323    0.8055 C   0  0  1  0  0  0  0  0  0  0  0  0
   -1.8055   -3.2612    0.2372 C   0  0  0  0  0  0  0  0  0  0  0  0
   -1.2831   -3.8447   -0.7012 O   0  0  0  0  0  0  0  0  0  0  0  0
   -2.8263   -3.7958    1.0176 N   0  0  0  0  0  0  0  0  0  0  0  0
   -3.2809   -2.8927    1.9714 C   0  0  0  0  0  0  0  0  0  0  0  0
   -2.5564   -1.6923    1.8726 C   0  0  0  0  0  0  0  0  0  0  0  0
   -2.9119   -0.6104    2.6665 C   0  0  0  0  0  0  0  0  0  0  0  0
   -3.9546   -0.7653    3.5819 C   0  0  0  0  0  0  0  0  0  0  0  0
   -4.6438   -1.9861    3.6912 C   0  0  0  0  0  0  0  0  0  0  0  0
   -5.9177   -2.0748    4.8583 Cl  0  0  0  0  0  0  0  0  0  0  0  0
   -4.3235   -3.0842    2.8736 C   0  0  0  0  0  0  0  0  0  0  0  0
   -5.0730   -4.3794    2.9773 C   0  0  0  0  0  0  0  0  0  0  0  0
    4.9015    0.9026   -0.4793 C   0  0  0  0  0  0  0  0  0  0  0  0
    4.9301    0.5925   -1.8487 C   0  0  0  0  0  0  0  0  0  0  0  0
    5.9309   -0.2287   -2.3707 C   0  0  0  0  0  0  0  0  0  0  0  0
    6.9218   -0.7386   -1.5347 C   0  0  0  0  0  0  0  0  0  0  0  0
    6.9197   -0.4207   -0.1784 C   0  0  0  0  0  0  0  0  0  0  0  0
    5.9202    0.4006    0.3460 C   0  0  0  0  0  0  0  0  0  0  0  0
    2.7924    3.9427    1.2574 H   0  0  0  0  0  0  0  0  0  0  0  0
    2.8818    4.2303   -0.5091 H   0  0  0  0  0  0  0  0  0  0  0  0
    4.0026    5.0553    0.5907 H   0  0  0  0  0  0  0  0  0  0  0  0
    3.0074    1.9149   -0.6625 H   0  0  0  0  0  0  0  0  0  0  0  0
    1.8613    0.1551    3.3192 H   0  0  0  0  0  0  0  0  0  0  0  0
    2.3387   -1.4028    2.6366 H   0  0  0  0  0  0  0  0  0  0  0  0
   -0.0941   -1.2847    3.2143 H   0  0  0  0  0  0  0  0  0  0  0  0
   -0.2612    0.1132    2.1309 H   0  0  0  0  0  0  0  0  0  0  0  0
    0.8025   -2.1766   -0.7575 H   0  0  0  0  0  0  0  0  0  0  0  0
    2.8234   -1.4632    0.0948 H   0  0  0  0  0  0  0  0  0  0  0  0
    2.3104   -0.0816   -0.8633 H   0  0  0  0  0  0  0  0  0  0  0  0
   -4.1595   -0.6130   -0.0555 H   0  0  0  0  0  0  0  0  0  0  0  0
   -4.1244    2.3214   -1.4334 H   0  0  0  0  0  0  0  0  0  0  0  0
   -5.1092    3.8508   -3.0753 H   0  0  0  0  0  0  0  0  0  0  0  0
   -4.0509    4.1704   -5.2950 H   0  0  0  0  0  0  0  0  0  0  0  0
   -2.0004    2.9042   -5.8840 H   0  0  0  0  0  0  0  0  0  0  0  0
   -1.0186    1.3187   -4.2896 H   0  0  0  0  0  0  0  0  0  0  0  0
    0.0993    2.1164   -2.5317 H   0  0  0  0  0  0  0  0  0  0  0  0
   -3.1890   -4.7210    0.8439 H   0  0  0  0  0  0  0  0  0  0  0  0
   -2.4103    0.3491    2.5825 H   0  0  0  0  0  0  0  0  0  0  0  0
   -4.2348    0.0752    4.2146 H   0  0  0  0  0  0  0  0  0  0  0  0
   -6.1366   -4.2215    2.7703 H   0  0  0  0  0  0  0  0  0  0  0  0
   -4.9558   -4.8055    3.9795 H   0  0  0  0  0  0  0  0  0  0  0  0
   -4.7167   -5.1302    2.2668 H   0  0  0  0  0  0  0  0  0  0  0  0
    4.1711    0.9913   -2.5185 H   0  0  0  0  0  0  0  0  0  0  0  0
    5.9414   -0.4646   -3.4314 H   0  0  0  0  0  0  0  0  0  0  0  0
    7.7036   -1.3743   -1.9417 H   0  0  0  0  0  0  0  0  0  0  0  0
    7.7023   -0.8034    0.4715 H   0  0  0  0  0  0  0  0  0  0  0  0
    5.9454    0.6582    1.4037 H   0  0  0  0  0  0  0  0  0  0  0  0
  1  2  1  0
  2  3  1  0
  3  4  1  0
  4  5  2  0
  4  6  1  0
  6  7  1  0
  7  8  1  0
  8  9  1  0
  9 10  1  0
 10 11  1  0
 10 12  1  0
 12 13  1  0
 13 14  2  0
 14 15  1  0
 14 16  1  0
 16 17  1  0
 17 18  2  0
 18 19  1  0
 19 20  2  0
 20 21  1  0
 21 22  2  0
 16 23  1  0
 23 24  1  0
 13 25  1  0
 25 26  1  0
 26 27  2  0
 26 28  1  0
 28 29  1  0
 29 30  2  0
 30 31  1  0
 31 32  2  0
 32 33  1  0
 33 34  1  0
 33 35  2  0
 35 36  1  0
  3 37  1  0
 37 38  2  0
 38 39  1  0
 39 40  2  0
 40 41  1  0
 41 42  2  0
 11  6  1  0
 23 12  2  0
 30 25  1  0
 42 37  1  0
 25  9  1  1
 35 29  1  0
 22 17  1  0
  1 43  1  0
  1 44  1  0
  1 45  1  0
  3 46  1  0
  7 47  1  0
  7 48  1  0
  8 49  1  0
  8 50  1  0
 10 51  1  6
 11 52  1  0
 11 53  1  0
 15 54  1  0
 18 55  1  0
 19 56  1  0
 20 57  1  0
 21 58  1  0
 22 59  1  0
 24 60  1  0
 28 61  1  0
 31 62  1  0
 32 63  1  0
 36 64  1  0
 36 65  1  0
 36 66  1  0
 38 67  1  0
 39 68  1  0
 40 69  1  0
 41 70  1  0
 42 71  1  0
M  END
$$$$
