
     RDKit          3D

 34 35  0  0  0  0  0  0  0  0999 V2000
    5.1853    0.5016   -0.6895 C   0  0  0  0  0  0  0  0  0  0  0  0
    4.4257    1.5571    0.0940 C   0  0  0  0  0  0  0  0  0  0  0  0
    2.9884    1.4482   -0.0865 N   0  0  0  0  0  0  0  0  0  0  0  0
    2.3934    2.2716   -0.9721 N   0  0  0  0  0  0  0  0  0  0  0  0
    1.1092    1.9231   -0.9197 C   0  0  0  0  0  0  0  0  0  0  0  0
    0.8743    0.8659   -0.0174 C   0  0  0  0  0  0  0  0  0  0  0  0
   -0.3917    0.2638    0.2467 C   0  0  0  0  0  0  0  0  0  0  0  0
   -0.5965   -1.0125    0.6078 C   0  0  0  0  0  0  0  0  0  0  0  0
   -1.9315   -1.5995    0.8921 C   0  0  0  0  0  0  0  0  0  0  0  0
   -2.0269   -2.4979    1.7233 O   0  0  0  0  0  0  0  0  0  0  0  0
   -3.1386   -1.1153    0.1806 C   0  0  0  0  0  0  0  0  0  0  0  0
   -4.3395   -1.0281    0.8943 C   0  0  0  0  0  0  0  0  0  0  0  0
   -5.5005   -0.5897    0.2562 C   0  0  0  0  0  0  0  0  0  0  0  0
   -5.4672   -0.2521   -1.0968 C   0  0  0  0  0  0  0  0  0  0  0  0
   -4.2773   -0.3608   -1.8174 C   0  0  0  0  0  0  0  0  0  0  0  0
   -3.1129   -0.7988   -1.1835 C   0  0  0  0  0  0  0  0  0  0  0  0
    2.1103    0.5918    0.5438 C   0  0  0  0  0  0  0  0  0  0  0  0
    2.5305   -0.3736    1.5944 C   0  0  0  0  0  0  0  0  0  0  0  0
    4.9701    0.5758   -1.7608 H   0  0  0  0  0  0  0  0  0  0  0  0
    4.9142   -0.5081   -0.3643 H   0  0  0  0  0  0  0  0  0  0  0  0
    6.2632    0.6263   -0.5479 H   0  0  0  0  0  0  0  0  0  0  0  0
    4.7282    2.5590   -0.2322 H   0  0  0  0  0  0  0  0  0  0  0  0
    4.6427    1.4890    1.1638 H   0  0  0  0  0  0  0  0  0  0  0  0
    0.4019    2.4457   -1.5507 H   0  0  0  0  0  0  0  0  0  0  0  0
   -1.2506    0.9195    0.1153 H   0  0  0  0  0  0  0  0  0  0  0  0
    0.2237   -1.7005    0.7785 H   0  0  0  0  0  0  0  0  0  0  0  0
   -4.3717   -1.3026    1.9469 H   0  0  0  0  0  0  0  0  0  0  0  0
   -6.4318   -0.5186    0.8128 H   0  0  0  0  0  0  0  0  0  0  0  0
   -6.3741    0.0849   -1.5937 H   0  0  0  0  0  0  0  0  0  0  0  0
   -4.2606   -0.1139   -2.8764 H   0  0  0  0  0  0  0  0  0  0  0  0
   -2.2020   -0.9053   -1.7669 H   0  0  0  0  0  0  0  0  0  0  0  0
    3.3944   -0.0194    2.1630 H   0  0  0  0  0  0  0  0  0  0  0  0
    2.7893   -1.3358    1.1416 H   0  0  0  0  0  0  0  0  0  0  0  0
    1.7281   -0.5372    2.3205 H   0  0  0  0  0  0  0  0  0  0  0  0
  1  2  1  0
  2  3  1  0
  3  4  1  0
  4  5  2  0
  5  6  1  0
  6  7  1  0
  7  8  2  3
  8  9  1  0
  9 10  2  0
  9 11  1  0
 11 12  2  0
 12 13  1  0
 13 14  2  0
 14 15  1  0
 15 16  2  0
  6 17  2  0
 17 18  1  0
 17  3  1  0
 16 11  1  0
  1 19  1  0
  1 20  1  0
  1 21  1  0
  2 22  1  0
  2 23  1  0
  5 24  1  0
  7 25  1  0
  8 26  1  0
 12 27  1  0
 13 28  1  0
 14 29  1  0
 15 30  1  0
 16 31  1  0
 18 32  1  0
 18 33  1  0
 18 34  1  0
M  END
$$$$
