
     RDKit          3D

 33 35  0  0  0  0  0  0  0  0999 V2000
    1.3965    0.7748   -0.0961 O   0  0  0  0  0  0  0  0  0  0  0  0
    1.6538   -0.4199   -0.0364 C   0  0  0  0  0  0  0  0  0  0  0  0
    0.7200   -1.4330    0.0230 N   0  0  0  0  0  0  0  0  0  0  0  0
   -0.6458   -1.2984    0.0584 C   0  0  0  0  0  0  0  0  0  0  0  0
   -1.4439   -2.3412    0.0388 N   0  0  0  0  0  0  0  0  0  0  0  0
   -2.7732   -1.9766    0.0906 N   0  0  0  0  0  0  0  0  0  0  0  0
   -2.9419   -0.6667    0.1533 C   0  0  0  0  0  0  0  0  0  0  0  0
   -4.2559    0.0017    0.2192 C   0  0  0  0  0  0  0  0  0  0  0  0
   -4.4137    1.3996    0.2599 C   0  0  0  0  0  0  0  0  0  0  0  0
   -5.6866    1.9784    0.3217 C   0  0  0  0  0  0  0  0  0  0  0  0
   -6.8123    1.1665    0.3432 C   0  0  0  0  0  0  0  0  0  0  0  0
   -8.0285    1.7235    0.4024 F   0  0  0  0  0  0  0  0  0  0  0  0
   -6.6914   -0.2147    0.3037 C   0  0  0  0  0  0  0  0  0  0  0  0
   -5.4198   -0.7924    0.2419 C   0  0  0  0  0  0  0  0  0  0  0  0
   -1.4504    0.1947    0.1561 S   0  0  0  0  0  0  0  0  0  0  0  0
    2.9372   -0.9431   -0.0197 N   0  0  0  0  0  0  0  0  0  0  0  0
    4.1626   -0.2438   -0.1007 C   0  0  0  0  0  0  0  0  0  0  0  0
    4.2822    1.1341   -0.2812 C   0  0  0  0  0  0  0  0  0  0  0  0
    5.5491    1.7283   -0.3516 C   0  0  0  0  0  0  0  0  0  0  0  0
    6.7042    0.9526   -0.2443 C   0  0  0  0  0  0  0  0  0  0  0  0
    6.5968   -0.4237   -0.0666 C   0  0  0  0  0  0  0  0  0  0  0  0
    5.3345   -1.0059    0.0024 C   0  0  0  0  0  0  0  0  0  0  0  0
    5.2414   -2.3353    0.1729 F   0  0  0  0  0  0  0  0  0  0  0  0
    1.0222   -2.3914   -0.0403 H   0  0  0  0  0  0  0  0  0  0  0  0
   -3.5561    2.0683    0.2434 H   0  0  0  0  0  0  0  0  0  0  0  0
   -5.8029    3.0574    0.3528 H   0  0  0  0  0  0  0  0  0  0  0  0
   -7.5817   -0.8352    0.3208 H   0  0  0  0  0  0  0  0  0  0  0  0
   -5.3419   -1.8791    0.2112 H   0  0  0  0  0  0  0  0  0  0  0  0
    3.0374   -1.9398    0.1220 H   0  0  0  0  0  0  0  0  0  0  0  0
    3.4132    1.7781   -0.3737 H   0  0  0  0  0  0  0  0  0  0  0  0
    5.6292    2.8043   -0.4919 H   0  0  0  0  0  0  0  0  0  0  0  0
    7.6830    1.4225   -0.3001 H   0  0  0  0  0  0  0  0  0  0  0  0
    7.4827   -1.0445    0.0181 H   0  0  0  0  0  0  0  0  0  0  0  0
  1  2  2  0
  2  3  1  0
  3  4  1  0
  4  5  2  0
  5  6  1  0
  6  7  2  0
  7  8  1  0
  8  9  2  0
  9 10  1  0
 10 11  2  0
 11 12  1  0
 11 13  1  0
 13 14  2  0
  7 15  1  0
  2 16  1  0
 16 17  1  0
 17 18  2  0
 18 19  1  0
 19 20  2  0
 20 21  1  0
 21 22  2  0
 22 23  1  0
 15  4  1  0
 22 17  1  0
 14  8  1  0
  3 24  1  0
  9 25  1  0
 10 26  1  0
 13 27  1  0
 14 28  1  0
 16 29  1  0
 18 30  1  0
 19 31  1  0
 20 32  1  0
 21 33  1  0
M  END
$$$$
