
     RDKit          3D

 63 65  0  0  0  0  0  0  0  0999 V2000
    2.3216    7.6518   -0.5522 C   0  0  0  0  0  0  0  0  0  0  0  0
    2.2565    6.2620   -0.2579 O   0  0  0  0  0  0  0  0  0  0  0  0
    1.4455    5.8864    0.7780 C   0  0  0  0  0  0  0  0  0  0  0  0
    0.6440    6.7338    1.5405 C   0  0  0  0  0  0  0  0  0  0  0  0
   -0.1416    6.2147    2.5732 C   0  0  0  0  0  0  0  0  0  0  0  0
   -0.1328    4.8470    2.8471 C   0  0  0  0  0  0  0  0  0  0  0  0
    0.6626    3.9810    2.0891 C   0  0  0  0  0  0  0  0  0  0  0  0
    0.6869    2.4976    2.3828 C   0  0  0  0  0  0  0  0  0  0  0  0
    0.2616    1.7022    1.2309 N   0  0  0  0  0  0  0  0  0  0  0  0
   -1.1700    1.7112    0.9049 C   0  0  0  0  0  0  0  0  0  0  0  0
   -1.9197    0.6155    1.6770 C   0  0  0  0  0  0  0  0  0  0  0  0
   -1.8152    0.4726    2.8933 O   0  0  0  0  0  0  0  0  0  0  0  0
   -2.7154   -0.1927    0.8816 N   0  0  0  0  0  0  0  0  0  0  0  0
   -3.2203   -1.4591    1.3905 C   0  0  0  0  0  0  0  0  0  0  0  0
   -2.3249   -2.6436    0.9696 C   0  0  0  0  0  0  0  0  0  0  0  0
   -2.7626   -3.9542    1.6013 C   0  0  0  0  0  0  0  0  0  0  0  0
   -2.0052   -3.9574    2.9056 C   0  0  0  0  0  0  0  0  0  0  0  0
   -0.6994   -3.2937    2.5235 C   0  0  0  0  0  0  0  0  0  0  0  0
   -0.9685   -2.4319    1.4092 O   0  0  0  0  0  0  0  0  0  0  0  0
    1.1857    0.8636    0.6206 C   0  0  0  0  0  0  0  0  0  0  0  0
    2.3676    0.8185    0.9604 O   0  0  0  0  0  0  0  0  0  0  0  0
    0.6857    0.0196   -0.5365 C   0  0  0  0  0  0  0  0  0  0  0  0
    1.7059   -1.0261   -0.9680 C   0  0  0  0  0  0  0  0  0  0  0  0
    1.1512   -1.9084   -2.0688 C   0  0  0  0  0  0  0  0  0  0  0  0
    0.0443   -1.7227   -2.5661 O   0  0  0  0  0  0  0  0  0  0  0  0
    2.0390   -2.8982   -2.4259 N   0  0  0  0  0  0  0  0  0  0  0  0
    1.8307   -3.8355   -3.4120 C   0  0  0  0  0  0  0  0  0  0  0  0
    0.7308   -3.9954   -4.2830 C   0  0  0  0  0  0  0  0  0  0  0  0
    1.0550   -5.0809   -5.0561 C   0  0  0  0  0  0  0  0  0  0  0  0
    0.3865   -5.7975   -6.1552 C   0  0  0  0  0  0  0  0  0  0  0  0
    2.2743   -5.5442   -4.6788 O   0  0  0  0  0  0  0  0  0  0  0  0
    2.7633   -4.7643   -3.6469 N   0  0  0  0  0  0  0  0  0  0  0  0
    1.4531    4.5169    1.0597 C   0  0  0  0  0  0  0  0  0  0  0  0
    1.3449    8.0367   -0.8649 H   0  0  0  0  0  0  0  0  0  0  0  0
    3.0127    7.7830   -1.3900 H   0  0  0  0  0  0  0  0  0  0  0  0
    2.7171    8.2175    0.2978 H   0  0  0  0  0  0  0  0  0  0  0  0
    0.6085    7.8023    1.3603 H   0  0  0  0  0  0  0  0  0  0  0  0
   -0.7589    6.8807    3.1691 H   0  0  0  0  0  0  0  0  0  0  0  0
   -0.7494    4.4618    3.6566 H   0  0  0  0  0  0  0  0  0  0  0  0
    1.7011    2.2298    2.7003 H   0  0  0  0  0  0  0  0  0  0  0  0
    0.0296    2.2568    3.2259 H   0  0  0  0  0  0  0  0  0  0  0  0
   -1.3023    1.5828   -0.1725 H   0  0  0  0  0  0  0  0  0  0  0  0
   -1.6126    2.6770    1.1686 H   0  0  0  0  0  0  0  0  0  0  0  0
   -2.6284   -0.1128   -0.1238 H   0  0  0  0  0  0  0  0  0  0  0  0
   -3.2996   -1.3974    2.4804 H   0  0  0  0  0  0  0  0  0  0  0  0
   -4.2274   -1.5911    0.9822 H   0  0  0  0  0  0  0  0  0  0  0  0
   -2.3154   -2.7173   -0.1240 H   0  0  0  0  0  0  0  0  0  0  0  0
   -2.4164   -4.7906    0.9845 H   0  0  0  0  0  0  0  0  0  0  0  0
   -3.8436   -4.0490    1.7230 H   0  0  0  0  0  0  0  0  0  0  0  0
   -2.5314   -3.3491    3.6501 H   0  0  0  0  0  0  0  0  0  0  0  0
   -1.8655   -4.9566    3.3268 H   0  0  0  0  0  0  0  0  0  0  0  0
    0.0385   -4.0345    2.1977 H   0  0  0  0  0  0  0  0  0  0  0  0
   -0.2691   -2.7118    3.3441 H   0  0  0  0  0  0  0  0  0  0  0  0
   -0.2315   -0.4952   -0.2454 H   0  0  0  0  0  0  0  0  0  0  0  0
    0.4577    0.6875   -1.3755 H   0  0  0  0  0  0  0  0  0  0  0  0
    2.6172   -0.5402   -1.3357 H   0  0  0  0  0  0  0  0  0  0  0  0
    1.9775   -1.6611   -0.1161 H   0  0  0  0  0  0  0  0  0  0  0  0
    2.9212   -2.9961   -1.9413 H   0  0  0  0  0  0  0  0  0  0  0  0
   -0.1706   -3.4057   -4.3450 H   0  0  0  0  0  0  0  0  0  0  0  0
    0.5358   -6.8779   -6.0634 H   0  0  0  0  0  0  0  0  0  0  0  0
    0.7865   -5.4733   -7.1211 H   0  0  0  0  0  0  0  0  0  0  0  0
   -0.6912   -5.6046   -6.1495 H   0  0  0  0  0  0  0  0  0  0  0  0
    2.0883    3.8596    0.4692 H   0  0  0  0  0  0  0  0  0  0  0  0
  1  2  1  0
  2  3  1  0
  3  4  2  0
  4  5  1  0
  5  6  2  0
  6  7  1  0
  7  8  1  0
  8  9  1  0
  9 10  1  0
 10 11  1  0
 11 12  2  0
 11 13  1  0
 13 14  1  0
 14 15  1  0
 15 16  1  0
 16 17  1  0
 17 18  1  0
 18 19  1  0
  9 20  1  0
 20 21  2  0
 20 22  1  0
 22 23  1  0
 23 24  1  0
 24 25  2  0
 24 26  1  0
 26 27  1  0
 27 28  1  0
 28 29  2  0
 29 30  1  0
 29 31  1  0
 31 32  1  0
  7 33  2  0
 33  3  1  0
 19 15  1  0
 32 27  2  0
  1 34  1  0
  1 35  1  0
  1 36  1  0
  4 37  1  0
  5 38  1  0
  6 39  1  0
  8 40  1  0
  8 41  1  0
 10 42  1  0
 10 43  1  0
 13 44  1  0
 14 45  1  0
 14 46  1  0
 15 47  1  0
 16 48  1  0
 16 49  1  0
 17 50  1  0
 17 51  1  0
 18 52  1  0
 18 53  1  0
 22 54  1  0
 22 55  1  0
 23 56  1  0
 23 57  1  0
 26 58  1  0
 28 59  1  0
 30 60  1  0
 30 61  1  0
 30 62  1  0
 33 63  1  0
M  END
$$$$
