
     RDKit          3D

 72 74  0  0  0  0  0  0  0  0999 V2000
   -4.2899    0.5940    6.1345 C   0  0  0  0  0  0  0  0  0  0  0  0
   -4.6430   -0.0168    4.9000 O   0  0  0  0  0  0  0  0  0  0  0  0
   -3.8599    0.2790    3.8181 C   0  0  0  0  0  0  0  0  0  0  0  0
   -2.7360    1.1028    3.8195 C   0  0  0  0  0  0  0  0  0  0  0  0
   -2.0187    1.3151    2.6367 C   0  0  0  0  0  0  0  0  0  0  0  0
   -2.4124    0.7093    1.4303 C   0  0  0  0  0  0  0  0  0  0  0  0
   -1.5822    0.9539    0.1745 C   0  0  0  0  0  0  0  0  0  0  0  0
   -2.4176    0.8782   -1.1402 C   0  0  0  0  0  0  0  0  0  0  0  0
   -2.4267   -0.1126   -1.8704 O   0  0  0  0  0  0  0  0  0  0  0  0
   -3.1850    2.0071   -1.3843 N   0  0  0  0  0  0  0  0  0  0  0  0
   -4.0323    2.2127   -2.5668 C   0  0  0  0  0  0  0  0  0  0  0  0
   -5.1434    1.1539   -2.6412 C   0  0  0  0  0  0  0  0  0  0  0  0
   -4.6960    3.5967   -2.4442 C   0  0  0  0  0  0  0  0  0  0  0  0
   -3.1917    2.1917   -3.8525 C   0  0  0  0  0  0  0  0  0  0  0  0
   -0.3784    0.0995    0.0660 N   0  0  0  0  0  0  0  0  0  0  0  0
   -0.5122   -1.3535    0.3009 C   0  0  0  0  0  0  0  0  0  0  0  0
   -0.1711   -1.7829    1.7379 C   0  0  0  0  0  0  0  0  0  0  0  0
   -0.5238   -3.2381    2.0088 C   0  0  0  0  0  0  0  0  0  0  0  0
    0.4211   -3.5783    3.1339 C   0  0  0  0  0  0  0  0  0  0  0  0
    1.6708   -2.8310    2.7249 C   0  0  0  0  0  0  0  0  0  0  0  0
    1.2397   -1.6673    2.0040 O   0  0  0  0  0  0  0  0  0  0  0  0
    0.7352    0.6887   -0.5258 C   0  0  0  0  0  0  0  0  0  0  0  0
    0.7520    1.8923   -0.8052 O   0  0  0  0  0  0  0  0  0  0  0  0
    1.9362   -0.1850   -0.8450 C   0  0  0  0  0  0  0  0  0  0  0  0
    3.0830    0.6445   -1.4167 C   0  0  0  0  0  0  0  0  0  0  0  0
    4.3391   -0.1749   -1.6311 C   0  0  0  0  0  0  0  0  0  0  0  0
    4.4228   -1.3568   -1.3165 O   0  0  0  0  0  0  0  0  0  0  0  0
    5.3404    0.5784   -2.2031 N   0  0  0  0  0  0  0  0  0  0  0  0
    6.6205    0.1405   -2.4587 C   0  0  0  0  0  0  0  0  0  0  0  0
    7.2188   -1.1074   -2.1736 C   0  0  0  0  0  0  0  0  0  0  0  0
    8.5086   -0.9821   -2.6272 C   0  0  0  0  0  0  0  0  0  0  0  0
    9.6782   -1.8765   -2.6549 C   0  0  0  0  0  0  0  0  0  0  0  0
    8.6765    0.2598   -3.1540 O   0  0  0  0  0  0  0  0  0  0  0  0
    7.4945    0.9689   -3.0416 N   0  0  0  0  0  0  0  0  0  0  0  0
   -3.5414   -0.1217    1.4425 C   0  0  0  0  0  0  0  0  0  0  0  0
   -4.2543   -0.3311    2.6264 C   0  0  0  0  0  0  0  0  0  0  0  0
   -5.0141    0.2694    6.8877 H   0  0  0  0  0  0  0  0  0  0  0  0
   -4.3474    1.6852    6.0665 H   0  0  0  0  0  0  0  0  0  0  0  0
   -3.2980    0.2687    6.4653 H   0  0  0  0  0  0  0  0  0  0  0  0
   -2.3813    1.5880    4.7234 H   0  0  0  0  0  0  0  0  0  0  0  0
   -1.1314    1.9469    2.6647 H   0  0  0  0  0  0  0  0  0  0  0  0
   -1.2523    2.0001    0.2379 H   0  0  0  0  0  0  0  0  0  0  0  0
   -3.0685    2.7911   -0.7520 H   0  0  0  0  0  0  0  0  0  0  0  0
   -5.7347    1.1411   -1.7197 H   0  0  0  0  0  0  0  0  0  0  0  0
   -5.8244    1.3548   -3.4745 H   0  0  0  0  0  0  0  0  0  0  0  0
   -4.7436    0.1465   -2.7848 H   0  0  0  0  0  0  0  0  0  0  0  0
   -5.3447    3.8067   -3.3019 H   0  0  0  0  0  0  0  0  0  0  0  0
   -5.3040    3.6645   -1.5347 H   0  0  0  0  0  0  0  0  0  0  0  0
   -3.9430    4.3912   -2.3899 H   0  0  0  0  0  0  0  0  0  0  0  0
   -3.8036    2.4306   -4.7303 H   0  0  0  0  0  0  0  0  0  0  0  0
   -2.3776    2.9248   -3.8017 H   0  0  0  0  0  0  0  0  0  0  0  0
   -2.7356    1.2121   -4.0295 H   0  0  0  0  0  0  0  0  0  0  0  0
    0.1369   -1.8903   -0.3945 H   0  0  0  0  0  0  0  0  0  0  0  0
   -1.5350   -1.6518    0.0538 H   0  0  0  0  0  0  0  0  0  0  0  0
   -0.6725   -1.1478    2.4719 H   0  0  0  0  0  0  0  0  0  0  0  0
   -1.5766   -3.3787    2.2690 H   0  0  0  0  0  0  0  0  0  0  0  0
   -0.2964   -3.8646    1.1373 H   0  0  0  0  0  0  0  0  0  0  0  0
    0.0363   -3.1755    4.0772 H   0  0  0  0  0  0  0  0  0  0  0  0
    0.5883   -4.6508    3.2623 H   0  0  0  0  0  0  0  0  0  0  0  0
    2.2807   -2.5289    3.5810 H   0  0  0  0  0  0  0  0  0  0  0  0
    2.2896   -3.4297    2.0486 H   0  0  0  0  0  0  0  0  0  0  0  0
    1.6436   -0.9430   -1.5790 H   0  0  0  0  0  0  0  0  0  0  0  0
    2.2730   -0.6841    0.0655 H   0  0  0  0  0  0  0  0  0  0  0  0
    3.3330    1.4632   -0.7296 H   0  0  0  0  0  0  0  0  0  0  0  0
    2.7837    1.0871   -2.3761 H   0  0  0  0  0  0  0  0  0  0  0  0
    5.1706    1.5365   -2.4783 H   0  0  0  0  0  0  0  0  0  0  0  0
    6.7795   -1.9748   -1.7030 H   0  0  0  0  0  0  0  0  0  0  0  0
   10.6070   -1.3097   -2.5364 H   0  0  0  0  0  0  0  0  0  0  0  0
    9.6261   -2.6112   -1.8444 H   0  0  0  0  0  0  0  0  0  0  0  0
    9.7230   -2.4162   -3.6060 H   0  0  0  0  0  0  0  0  0  0  0  0
   -3.8800   -0.6234    0.5366 H   0  0  0  0  0  0  0  0  0  0  0  0
   -5.1278   -0.9792    2.6182 H   0  0  0  0  0  0  0  0  0  0  0  0
  1  2  1  0
  2  3  1  0
  3  4  2  0
  4  5  1  0
  5  6  2  0
  6  7  1  0
  7  8  1  0
  8  9  2  0
  8 10  1  0
 10 11  1  0
 11 12  1  0
 11 13  1  0
 11 14  1  0
  7 15  1  0
 15 16  1  0
 16 17  1  0
 17 18  1  0
 18 19  1  0
 19 20  1  0
 20 21  1  0
 15 22  1  0
 22 23  2  0
 22 24  1  0
 24 25  1  0
 25 26  1  0
 26 27  2  0
 26 28  1  0
 28 29  1  0
 29 30  1  0
 30 31  2  0
 31 32  1  0
 31 33  1  0
 33 34  1  0
  6 35  1  0
 35 36  2  0
 36  3  1  0
 21 17  1  0
 34 29  2  0
  1 37  1  0
  1 38  1  0
  1 39  1  0
  4 40  1  0
  5 41  1  0
  7 42  1  0
 10 43  1  0
 12 44  1  0
 12 45  1  0
 12 46  1  0
 13 47  1  0
 13 48  1  0
 13 49  1  0
 14 50  1  0
 14 51  1  0
 14 52  1  0
 16 53  1  0
 16 54  1  0
 17 55  1  0
 18 56  1  0
 18 57  1  0
 19 58  1  0
 19 59  1  0
 20 60  1  0
 20 61  1  0
 24 62  1  0
 24 63  1  0
 25 64  1  0
 25 65  1  0
 28 66  1  0
 30 67  1  0
 32 68  1  0
 32 69  1  0
 32 70  1  0
 35 71  1  0
 36 72  1  0
M  END
$$$$
