
     RDKit          3D

 41 43  0  0  0  0  0  0  0  0999 V2000
    2.1486    1.2580   -1.9727 O   0  0  0  0  0  0  0  0  0  0  0  0
    1.2823    1.3315   -1.1023 C   0  0  0  0  0  0  0  0  0  0  0  0
    1.2108    2.5727   -0.2252 C   0  0  0  0  0  0  0  0  0  0  0  0
    0.9643    2.2481    1.5449 S   0  0  0  0  0  0  0  0  0  0  0  0
    2.2221    1.0002    1.8171 C   0  0  0  0  0  0  0  0  0  0  0  0
    3.5816    1.3482    1.7763 C   0  0  0  0  0  0  0  0  0  0  0  0
    4.5612    0.3770    1.9720 C   0  0  0  0  0  0  0  0  0  0  0  0
    4.1948   -0.9410    2.2123 C   0  0  0  0  0  0  0  0  0  0  0  0
    2.8443   -1.2766    2.2588 C   0  0  0  0  0  0  0  0  0  0  0  0
    1.8489   -0.3290    2.0689 N   0  0  0  0  0  4  0  0  0  0  0  0
    0.6253   -0.6896    2.1166 O   0  0  0  0  0  1  0  0  0  0  0  0
    0.2916    0.4028   -0.8677 N   0  0  0  0  0  0  0  0  0  0  0  0
   -0.0211   -0.7524   -1.6217 C   0  0  0  0  0  0  0  0  0  0  0  0
    0.6230   -1.0874   -2.8160 C   0  0  0  0  0  0  0  0  0  0  0  0
    0.2863   -2.2586   -3.5066 C   0  0  0  0  0  0  0  0  0  0  0  0
   -0.6962   -3.1130   -3.0117 C   0  0  0  0  0  0  0  0  0  0  0  0
   -1.3580   -2.7898   -1.8312 C   0  0  0  0  0  0  0  0  0  0  0  0
   -1.0410   -1.6055   -1.1577 C   0  0  0  0  0  0  0  0  0  0  0  0
   -1.7263   -1.3621    0.0127 O   0  0  0  0  0  0  0  0  0  0  0  0
   -2.6207   -0.3130    0.0236 C   0  0  0  0  0  0  0  0  0  0  0  0
   -2.7857    0.3250    1.2552 C   0  0  0  0  0  0  0  0  0  0  0  0
   -3.6647    1.4012    1.3745 C   0  0  0  0  0  0  0  0  0  0  0  0
   -4.3895    1.8329    0.2642 C   0  0  0  0  0  0  0  0  0  0  0  0
   -4.2380    1.1867   -0.9633 C   0  0  0  0  0  0  0  0  0  0  0  0
   -3.3567    0.1101   -1.0854 C   0  0  0  0  0  0  0  0  0  0  0  0
    0.3882    3.1986   -0.5858 H   0  0  0  0  0  0  0  0  0  0  0  0
    2.1396    3.1403   -0.3466 H   0  0  0  0  0  0  0  0  0  0  0  0
    3.8820    2.3770    1.5909 H   0  0  0  0  0  0  0  0  0  0  0  0
    5.6139    0.6511    1.9334 H   0  0  0  0  0  0  0  0  0  0  0  0
    4.9512   -1.7070    2.3617 H   0  0  0  0  0  0  0  0  0  0  0  0
    2.4591   -2.2696    2.4355 H   0  0  0  0  0  0  0  0  0  0  0  0
   -0.2155    0.4847    0.0145 H   0  0  0  0  0  0  0  0  0  0  0  0
    1.4003   -0.4603   -3.2401 H   0  0  0  0  0  0  0  0  0  0  0  0
    0.8044   -2.5042   -4.4308 H   0  0  0  0  0  0  0  0  0  0  0  0
   -0.9445   -4.0272   -3.5442 H   0  0  0  0  0  0  0  0  0  0  0  0
   -2.1242   -3.4497   -1.4340 H   0  0  0  0  0  0  0  0  0  0  0  0
   -2.2132   -0.0120    2.1179 H   0  0  0  0  0  0  0  0  0  0  0  0
   -3.7823    1.8997    2.3330 H   0  0  0  0  0  0  0  0  0  0  0  0
   -5.0769    2.6698    0.3567 H   0  0  0  0  0  0  0  0  0  0  0  0
   -4.8095    1.5188   -1.8261 H   0  0  0  0  0  0  0  0  0  0  0  0
   -3.2598   -0.3866   -2.0461 H   0  0  0  0  0  0  0  0  0  0  0  0
  1  2  2  0
  2  3  1  0
  3  4  1  0
  4  5  1  0
  5  6  2  0
  6  7  1  0
  7  8  2  0
  8  9  1  0
  9 10  2  0
 10 11  1  0
  2 12  1  0
 12 13  1  0
 13 14  2  0
 14 15  1  0
 15 16  2  0
 16 17  1  0
 17 18  2  0
 18 19  1  0
 19 20  1  0
 20 21  2  0
 21 22  1  0
 22 23  2  0
 23 24  1  0
 24 25  2  0
 10  5  1  0
 18 13  1  0
 25 20  1  0
  3 26  1  0
  3 27  1  0
  6 28  1  0
  7 29  1  0
  8 30  1  0
  9 31  1  0
 12 32  1  0
 14 33  1  0
 15 34  1  0
 16 35  1  0
 17 36  1  0
 21 37  1  0
 22 38  1  0
 23 39  1  0
 24 40  1  0
 25 41  1  0
M  CHG  2  10   1  11  -1
M  END
$$$$
