
     RDKit          3D

 29 29  0  0  0  0  0  0  0  0999 V2000
   -4.9093    0.3911    0.6535 C   0  0  0  0  0  0  0  0  0  0  0  0
   -4.4704   -0.3252   -0.2053 C   0  0  0  0  0  0  0  0  0  0  0  0
   -3.9383   -1.2007   -1.2572 C   0  0  0  0  0  0  0  0  0  0  0  0
   -2.4744   -1.1958   -1.2765 N   0  0  0  0  0  0  0  0  0  0  0  0
   -1.9051   -1.9439   -0.1531 C   0  0  0  0  0  0  0  0  0  0  0  0
   -0.3781   -1.9124   -0.1954 C   0  0  0  0  0  0  0  0  0  0  0  0
    0.1905   -0.5029   -0.0443 C   0  0  0  0  0  0  0  0  0  0  0  0
    1.6147   -0.6136    0.0030 O   0  0  0  0  0  0  0  0  0  0  0  0
    2.3426    0.5382    0.1457 C   0  0  0  0  0  0  0  0  0  0  0  0
    1.7898    1.8212    0.2250 C   0  0  0  0  0  0  0  0  0  0  0  0
    2.6172    2.9403    0.3698 C   0  0  0  0  0  0  0  0  0  0  0  0
    3.9994    2.7824    0.4357 C   0  0  0  0  0  0  0  0  0  0  0  0
    5.0084    4.1640    0.6139 Cl  0  0  0  0  0  0  0  0  0  0  0  0
    4.5678    1.5158    0.3580 C   0  0  0  0  0  0  0  0  0  0  0  0
    3.7405    0.3993    0.2132 C   0  0  0  0  0  0  0  0  0  0  0  0
    4.4949   -1.1556    0.1213 Cl  0  0  0  0  0  0  0  0  0  0  0  0
   -5.2946    1.0295    1.4145 H   0  0  0  0  0  0  0  0  0  0  0  0
   -4.2909   -0.8297   -2.2266 H   0  0  0  0  0  0  0  0  0  0  0  0
   -4.3262   -2.2207   -1.1545 H   0  0  0  0  0  0  0  0  0  0  0  0
   -2.1673   -1.6292   -2.1471 H   0  0  0  0  0  0  0  0  0  0  0  0
   -2.2351   -2.9888   -0.1950 H   0  0  0  0  0  0  0  0  0  0  0  0
   -2.2383   -1.5283    0.8048 H   0  0  0  0  0  0  0  0  0  0  0  0
   -0.0086   -2.3592   -1.1275 H   0  0  0  0  0  0  0  0  0  0  0  0
    0.0164   -2.5462    0.6092 H   0  0  0  0  0  0  0  0  0  0  0  0
   -0.1040    0.1128   -0.9018 H   0  0  0  0  0  0  0  0  0  0  0  0
   -0.1797   -0.0570    0.8866 H   0  0  0  0  0  0  0  0  0  0  0  0
    0.7181    1.9878    0.1757 H   0  0  0  0  0  0  0  0  0  0  0  0
    2.1738    3.9315    0.4297 H   0  0  0  0  0  0  0  0  0  0  0  0
    5.6462    1.3952    0.4092 H   0  0  0  0  0  0  0  0  0  0  0  0
  1  2  3  0
  2  3  1  0
  3  4  1  0
  4  5  1  0
  5  6  1  0
  6  7  1  0
  7  8  1  0
  8  9  1  0
  9 10  2  0
 10 11  1  0
 11 12  2  0
 12 13  1  0
 12 14  1  0
 14 15  2  0
 15 16  1  0
 15  9  1  0
  1 17  1  0
  3 18  1  0
  3 19  1  0
  4 20  1  0
  5 21  1  0
  5 22  1  0
  6 23  1  0
  6 24  1  0
  7 25  1  0
  7 26  1  0
 10 27  1  0
 11 28  1  0
 14 29  1  0
M  END
$$$$
