
     RDKit          3D

 51 53  0  0  0  0  0  0  0  0999 V2000
    2.3088   -0.9595    0.1002 N   0  0  0  0  0  0  0  0  0  0  0  0
    2.5766    0.1703    0.1117 C   0  0  0  0  0  0  0  0  0  0  0  0
    2.9894    1.5276    0.1898 C   0  0  0  0  0  0  0  0  0  0  0  0
    2.4503    2.5324   -0.5286 C   0  0  0  0  0  0  0  0  0  0  0  0
    1.3925    2.3814   -1.4700 C   0  0  0  0  0  0  0  0  0  0  0  0
    0.8826    3.3344   -2.3457 C   0  0  0  0  0  0  0  0  0  0  0  0
   -0.1503    2.7307   -3.1013 C   0  0  0  0  0  0  0  0  0  0  0  0
   -0.2341    1.4330   -2.6567 C   0  0  0  0  0  0  0  0  0  0  0  0
   -1.0953    0.2846   -3.0179 C   0  0  0  0  0  0  0  0  0  0  0  0
   -2.2665    0.3095   -2.1827 N   0  0  0  0  0  0  0  0  0  0  0  0
   -3.3904   -0.4083   -2.5063 C   0  0  0  0  0  0  0  0  0  0  0  0
   -3.5965   -0.9961   -3.5589 O   0  0  0  0  0  0  0  0  0  0  0  0
   -4.4589   -0.4411   -1.3928 C   0  0  0  0  0  0  0  0  0  0  0  0
   -4.2196    0.1070   -0.3272 O   0  0  0  0  0  0  0  0  0  0  0  0
   -5.5919   -1.1203   -1.7912 N   0  0  0  0  0  0  0  0  0  0  0  0
   -6.7699   -1.3397   -1.0567 C   0  0  0  0  0  0  0  0  0  0  0  0
   -7.7928   -2.0576   -1.6868 C   0  0  0  0  0  0  0  0  0  0  0  0
   -8.9932   -2.3066   -1.0186 C   0  0  0  0  0  0  0  0  0  0  0  0
  -10.2408   -3.1879   -1.8115 Cl  0  0  0  0  0  0  0  0  0  0  0  0
   -9.1915   -1.8485    0.2785 C   0  0  0  0  0  0  0  0  0  0  0  0
   -8.1730   -1.1372    0.9049 C   0  0  0  0  0  0  0  0  0  0  0  0
   -8.4055   -0.5643    2.5122 Cl  0  0  0  0  0  0  0  0  0  0  0  0
   -6.9666   -0.8806    0.2475 C   0  0  0  0  0  0  0  0  0  0  0  0
    0.6790    1.2233   -1.6709 O   0  0  0  0  0  0  0  0  0  0  0  0
    4.1203    1.9016    1.1022 C   0  0  0  0  0  0  0  0  0  0  0  0
    4.4938    3.0664    1.2204 O   0  0  0  0  0  0  0  0  0  0  0  0
    4.7238    0.8742    1.7893 N   0  0  0  0  0  0  0  0  0  0  0  0
    5.7990    1.1401    2.7201 C   0  0  0  0  0  0  0  0  0  0  0  0
    6.5245   -0.1191    3.0835 C   0  0  0  0  0  0  0  0  0  0  0  0
    7.3856   -0.7481    2.1789 C   0  0  0  0  0  0  0  0  0  0  0  0
    8.0310   -1.9254    2.5440 C   0  0  0  0  0  0  0  0  0  0  0  0
    7.7894   -2.4409    3.8057 C   0  0  0  0  0  0  0  0  0  0  0  0
    6.9623   -1.8656    4.7048 N   0  0  0  0  0  0  0  0  0  0  0  0
    6.3492   -0.7222    4.3244 C   0  0  0  0  0  0  0  0  0  0  0  0
    2.8431    3.5413   -0.4176 H   0  0  0  0  0  0  0  0  0  0  0  0
    1.2312    4.3558   -2.4323 H   0  0  0  0  0  0  0  0  0  0  0  0
   -0.7569    3.1836   -3.8733 H   0  0  0  0  0  0  0  0  0  0  0  0
   -0.5799   -0.6670   -2.8505 H   0  0  0  0  0  0  0  0  0  0  0  0
   -1.3926    0.3292   -4.0708 H   0  0  0  0  0  0  0  0  0  0  0  0
   -2.1792    0.6041   -1.2124 H   0  0  0  0  0  0  0  0  0  0  0  0
   -5.5392   -1.4960   -2.7365 H   0  0  0  0  0  0  0  0  0  0  0  0
   -7.6651   -2.4276   -2.7006 H   0  0  0  0  0  0  0  0  0  0  0  0
  -10.1266   -2.0431    0.7959 H   0  0  0  0  0  0  0  0  0  0  0  0
   -6.1998   -0.3223    0.7752 H   0  0  0  0  0  0  0  0  0  0  0  0
    4.3712   -0.0760    1.7478 H   0  0  0  0  0  0  0  0  0  0  0  0
    5.3625    1.6164    3.6055 H   0  0  0  0  0  0  0  0  0  0  0  0
    6.4964    1.8620    2.2792 H   0  0  0  0  0  0  0  0  0  0  0  0
    7.5549   -0.3240    1.1918 H   0  0  0  0  0  0  0  0  0  0  0  0
    8.7031   -2.4307    1.8598 H   0  0  0  0  0  0  0  0  0  0  0  0
    8.2672   -3.3584    4.1370 H   0  0  0  0  0  0  0  0  0  0  0  0
    5.6881   -0.2952    5.0755 H   0  0  0  0  0  0  0  0  0  0  0  0
  1  2  3  0
  2  3  1  0
  3  4  2  3
  4  5  1  0
  5  6  2  0
  6  7  1  0
  7  8  2  0
  8  9  1  0
  9 10  1  0
 10 11  1  0
 11 12  2  0
 11 13  1  0
 13 14  2  0
 13 15  1  0
 15 16  1  0
 16 17  2  0
 17 18  1  0
 18 19  1  0
 18 20  2  0
 20 21  1  0
 21 22  1  0
 21 23  2  0
  8 24  1  0
  3 25  1  0
 25 26  2  0
 25 27  1  0
 27 28  1  0
 28 29  1  0
 29 30  2  0
 30 31  1  0
 31 32  2  0
 32 33  1  0
 33 34  2  0
 24  5  1  0
 34 29  1  0
 23 16  1  0
  4 35  1  0
  6 36  1  0
  7 37  1  0
  9 38  1  0
  9 39  1  0
 10 40  1  0
 15 41  1  0
 17 42  1  0
 20 43  1  0
 23 44  1  0
 27 45  1  0
 28 46  1  0
 28 47  1  0
 30 48  1  0
 31 49  1  0
 32 50  1  0
 34 51  1  0
M  END
$$$$
