
     RDKit          3D

 68 71  0  0  0  0  0  0  0  0999 V2000
   -4.6433   -0.2762    4.2751 C   0  0  0  0  0  0  0  0  0  0  0  0
   -3.7901    0.1171    3.1049 C   0  0  0  0  0  0  0  0  0  0  0  0
   -3.7276    1.4468    2.6808 C   0  0  0  0  0  0  0  0  0  0  0  0
   -2.9486    1.8004    1.5753 C   0  0  0  0  0  0  0  0  0  0  0  0
   -2.2217    0.8339    0.8546 C   0  0  0  0  0  0  0  0  0  0  0  0
   -1.3997    1.2678   -0.3631 C   0  0  0  0  0  0  0  0  0  0  0  0
   -1.7958    0.6489   -1.7376 C   0  0  0  0  0  0  0  0  0  0  0  0
   -1.0494    0.6988   -2.7186 O   0  0  0  0  0  0  0  0  0  0  0  0
   -3.0881    0.1595   -1.8395 N   0  0  0  0  0  0  0  0  0  0  0  0
   -3.5935   -0.3958   -3.0740 C   0  0  0  0  0  0  0  0  0  0  0  0
   -4.0485    0.6762   -4.0625 C   0  0  0  0  0  0  0  0  0  0  0  0
   -5.0302   -0.0375   -4.9900 C   0  0  0  0  0  0  0  0  0  0  0  0
   -5.4435   -1.3235   -4.2747 C   0  0  0  0  0  0  0  0  0  0  0  0
   -4.8624   -1.2174   -2.8710 C   0  0  0  0  0  0  0  0  0  0  0  0
    0.0684    1.2432   -0.1440 N   0  0  0  0  0  0  0  0  0  0  0  0
    0.7369    0.0201   -0.1525 C   0  0  0  0  0  0  0  0  0  0  0  0
    0.1684   -1.0433   -0.4140 O   0  0  0  0  0  0  0  0  0  0  0  0
    2.2145    0.0083    0.2235 C   0  0  0  0  0  0  0  0  0  0  0  0
    2.6229   -1.3677    0.7470 C   0  0  0  0  0  0  0  0  0  0  0  0
    4.1109   -1.4758    1.0149 C   0  0  0  0  0  0  0  0  0  0  0  0
    4.9055   -0.5915    0.7152 O   0  0  0  0  0  0  0  0  0  0  0  0
    4.4269   -2.6818    1.6016 N   0  0  0  0  0  0  0  0  0  0  0  0
    5.6975   -3.1280    1.8824 C   0  0  0  0  0  0  0  0  0  0  0  0
    6.9451   -2.5204    1.6191 C   0  0  0  0  0  0  0  0  0  0  0  0
    7.8702   -3.4204    2.0867 C   0  0  0  0  0  0  0  0  0  0  0  0
    9.3422   -3.4558    2.1339 C   0  0  0  0  0  0  0  0  0  0  0  0
    7.2224   -4.4967    2.6053 O   0  0  0  0  0  0  0  0  0  0  0  0
    5.8583   -4.3200    2.4664 N   0  0  0  0  0  0  0  0  0  0  0  0
    0.7312    2.5029   -0.1376 C   0  0  0  0  0  0  0  0  0  0  0  0
    1.7302    2.7921   -1.0741 C   0  0  0  0  0  0  0  0  0  0  0  0
    2.3571    4.0410   -1.0765 C   0  0  0  0  0  0  0  0  0  0  0  0
    1.9861    5.0106   -0.1469 C   0  0  0  0  0  0  0  0  0  0  0  0
    0.9837    4.7355    0.7826 C   0  0  0  0  0  0  0  0  0  0  0  0
    0.3533    3.4888    0.7825 C   0  0  0  0  0  0  0  0  0  0  0  0
   -2.3137   -0.5004    1.2754 C   0  0  0  0  0  0  0  0  0  0  0  0
   -3.0880   -0.8543    2.3861 C   0  0  0  0  0  0  0  0  0  0  0  0
   -4.8204    0.5766    4.9382 H   0  0  0  0  0  0  0  0  0  0  0  0
   -5.6097   -0.6527    3.9248 H   0  0  0  0  0  0  0  0  0  0  0  0
   -4.1508   -1.0543    4.8687 H   0  0  0  0  0  0  0  0  0  0  0  0
   -4.2838    2.2191    3.2090 H   0  0  0  0  0  0  0  0  0  0  0  0
   -2.9242    2.8476    1.2759 H   0  0  0  0  0  0  0  0  0  0  0  0
   -1.6719    2.3208   -0.5383 H   0  0  0  0  0  0  0  0  0  0  0  0
   -3.6723    0.1235   -1.0136 H   0  0  0  0  0  0  0  0  0  0  0  0
   -2.8123   -1.0167   -3.5323 H   0  0  0  0  0  0  0  0  0  0  0  0
   -4.5627    1.4938   -3.5409 H   0  0  0  0  0  0  0  0  0  0  0  0
   -3.2122    1.1197   -4.6131 H   0  0  0  0  0  0  0  0  0  0  0  0
   -4.5576   -0.2745   -5.9499 H   0  0  0  0  0  0  0  0  0  0  0  0
   -5.8963    0.6001   -5.2000 H   0  0  0  0  0  0  0  0  0  0  0  0
   -5.0142   -2.1879   -4.7956 H   0  0  0  0  0  0  0  0  0  0  0  0
   -6.5299   -1.4555   -4.2579 H   0  0  0  0  0  0  0  0  0  0  0  0
   -5.5683   -0.6957   -2.2108 H   0  0  0  0  0  0  0  0  0  0  0  0
   -4.6595   -2.1990   -2.4295 H   0  0  0  0  0  0  0  0  0  0  0  0
    2.8001    0.2462   -0.6699 H   0  0  0  0  0  0  0  0  0  0  0  0
    2.4209    0.7577    0.9941 H   0  0  0  0  0  0  0  0  0  0  0  0
    2.0761   -1.5882    1.6730 H   0  0  0  0  0  0  0  0  0  0  0  0
    2.3697   -2.1454    0.0153 H   0  0  0  0  0  0  0  0  0  0  0  0
    3.6992   -3.3357    1.8575 H   0  0  0  0  0  0  0  0  0  0  0  0
    7.1461   -1.5699    1.1472 H   0  0  0  0  0  0  0  0  0  0  0  0
    9.7724   -2.5605    1.6763 H   0  0  0  0  0  0  0  0  0  0  0  0
    9.7220   -4.3295    1.5944 H   0  0  0  0  0  0  0  0  0  0  0  0
    9.6911   -3.5115    3.1697 H   0  0  0  0  0  0  0  0  0  0  0  0
    2.0031    2.0674   -1.8366 H   0  0  0  0  0  0  0  0  0  0  0  0
    3.1292    4.2576   -1.8108 H   0  0  0  0  0  0  0  0  0  0  0  0
    2.4767    5.9809   -0.1485 H   0  0  0  0  0  0  0  0  0  0  0  0
    0.6967    5.4902    1.5108 H   0  0  0  0  0  0  0  0  0  0  0  0
   -0.4033    3.2849    1.5356 H   0  0  0  0  0  0  0  0  0  0  0  0
   -1.8035   -1.2946    0.7367 H   0  0  0  0  0  0  0  0  0  0  0  0
   -3.1379   -1.9002    2.6837 H   0  0  0  0  0  0  0  0  0  0  0  0
  1  2  1  0
  2  3  2  0
  3  4  1  0
  4  5  2  0
  5  6  1  0
  6  7  1  0
  7  8  2  0
  7  9  1  0
  9 10  1  0
 10 11  1  0
 11 12  1  0
 12 13  1  0
 13 14  1  0
  6 15  1  0
 15 16  1  0
 16 17  2  0
 16 18  1  0
 18 19  1  0
 19 20  1  0
 20 21  2  0
 20 22  1  0
 22 23  1  0
 23 24  1  0
 24 25  2  0
 25 26  1  0
 25 27  1  0
 27 28  1  0
 15 29  1  0
 29 30  2  0
 30 31  1  0
 31 32  2  0
 32 33  1  0
 33 34  2  0
  5 35  1  0
 35 36  2  0
 36  2  1  0
 14 10  1  0
 28 23  2  0
 34 29  1  0
  1 37  1  0
  1 38  1  0
  1 39  1  0
  3 40  1  0
  4 41  1  0
  6 42  1  0
  9 43  1  0
 10 44  1  0
 11 45  1  0
 11 46  1  0
 12 47  1  0
 12 48  1  0
 13 49  1  0
 13 50  1  0
 14 51  1  0
 14 52  1  0
 18 53  1  0
 18 54  1  0
 19 55  1  0
 19 56  1  0
 22 57  1  0
 24 58  1  0
 26 59  1  0
 26 60  1  0
 26 61  1  0
 30 62  1  0
 31 63  1  0
 32 64  1  0
 33 65  1  0
 34 66  1  0
 35 67  1  0
 36 68  1  0
M  END
$$$$
