
     RDKit          3D

 81 84  0  0  0  0  0  0  0  0999 V2000
   -6.7125    4.9303    1.3246 C   0  0  0  0  0  0  0  0  0  0  0  0
   -5.9348    4.3737    0.2689 O   0  0  0  0  0  0  0  0  0  0  0  0
   -4.7630    3.7658    0.6276 C   0  0  0  0  0  0  0  0  0  0  0  0
   -4.3979    3.3947    1.9224 C   0  0  0  0  0  0  0  0  0  0  0  0
   -3.1627    2.7779    2.1548 C   0  0  0  0  0  0  0  0  0  0  0  0
   -2.2977    2.5260    1.0867 C   0  0  0  0  0  0  0  0  0  0  0  0
   -0.7022    1.8096    1.3998 S   0  0  0  0  0  6  0  0  0  0  0  0
   -0.3670    2.0449    2.7867 O   0  0  0  0  0  0  0  0  0  0  0  0
    0.1949    2.2386    0.3423 O   0  0  0  0  0  0  0  0  0  0  0  0
   -0.9465    0.1544    1.1725 N   0  0  0  0  0  0  0  0  0  0  0  0
   -1.7518   -0.5547    2.1856 C   0  0  0  0  0  0  0  0  0  0  0  0
   -1.1487   -0.3387   -0.2184 C   0  0  0  0  0  0  0  0  0  0  0  0
   -0.2645   -1.5817   -0.5619 C   0  0  0  0  0  0  0  0  0  0  0  0
    0.6094   -1.8572    0.5510 O   0  0  0  0  0  0  0  0  0  0  0  0
    1.8575   -2.2892    0.1693 C   0  0  0  0  0  0  0  0  0  0  0  0
    2.8504   -1.3835   -0.2602 C   0  0  0  0  0  0  0  0  0  0  0  0
    2.5616    0.0070   -0.2636 N   0  0  0  0  0  0  0  0  0  0  0  0
    3.4165    1.0444   -0.6217 C   0  0  0  0  0  0  0  0  0  0  0  0
    4.5698    0.8933   -1.0081 O   0  0  0  0  0  0  0  0  0  0  0  0
    2.7865    2.2743   -0.5170 N   0  0  0  0  0  0  0  0  0  0  0  0
    3.3351    3.5510   -0.7688 C   0  0  0  0  0  0  0  0  0  0  0  0
    4.6766    3.7827   -1.0764 C   0  0  0  0  0  0  0  0  0  0  0  0
    5.1409    5.0825   -1.3158 C   0  0  0  0  0  0  0  0  0  0  0  0
    4.2693    6.1774   -1.2552 C   0  0  0  0  0  0  0  0  0  0  0  0
    4.7658    7.5802   -1.4971 C   0  0  0  0  0  0  0  0  0  0  0  0
    3.8677    8.3484   -2.1757 F   0  0  0  0  0  0  0  0  0  0  0  0
    5.0238    8.2466   -0.3394 F   0  0  0  0  0  0  0  0  0  0  0  0
    5.9167    7.6302   -2.2244 F   0  0  0  0  0  0  0  0  0  0  0  0
    2.9260    5.9462   -0.9301 C   0  0  0  0  0  0  0  0  0  0  0  0
    2.4670    4.6467   -0.6918 C   0  0  0  0  0  0  0  0  0  0  0  0
    4.0987   -1.8964   -0.6428 C   0  0  0  0  0  0  0  0  0  0  0  0
    4.3864   -3.2588   -0.5418 C   0  0  0  0  0  0  0  0  0  0  0  0
    3.4258   -4.1344   -0.0543 C   0  0  0  0  0  0  0  0  0  0  0  0
    2.1603   -3.6525    0.2962 C   0  0  0  0  0  0  0  0  0  0  0  0
    1.2008   -4.6372    0.8398 C   0  0  0  0  0  0  0  0  0  0  0  0
    1.6044   -5.4025    1.7121 O   0  0  0  0  0  0  0  0  0  0  0  0
   -0.0895   -4.7183    0.2973 N   0  0  0  0  0  0  0  0  0  0  0  0
   -0.9649   -5.7712    0.8603 C   0  0  0  0  0  0  0  0  0  0  0  0
   -2.4597   -5.4414    0.8048 C   0  0  0  0  0  0  0  0  0  0  0  0
   -0.6749   -7.1512    0.2294 C   0  0  0  0  0  0  0  0  0  0  0  0
   -1.2647   -8.2002    0.9939 O   0  0  0  0  0  0  0  0  0  0  0  0
   -0.4129   -4.1346   -1.0090 C   0  0  0  0  0  0  0  0  0  0  0  0
   -1.1681   -2.7979   -0.9115 C   0  0  0  0  0  0  0  0  0  0  0  0
   -1.8912   -2.5635   -2.2500 C   0  0  0  0  0  0  0  0  0  0  0  0
   -2.6491    2.9055   -0.2099 C   0  0  0  0  0  0  0  0  0  0  0  0
   -3.8865    3.5130   -0.4343 C   0  0  0  0  0  0  0  0  0  0  0  0
   -6.1258    5.6430    1.9174 H   0  0  0  0  0  0  0  0  0  0  0  0
   -7.1352    4.1415    1.9557 H   0  0  0  0  0  0  0  0  0  0  0  0
   -7.5448    5.4762    0.8717 H   0  0  0  0  0  0  0  0  0  0  0  0
   -5.0496    3.5734    2.7722 H   0  0  0  0  0  0  0  0  0  0  0  0
   -2.8817    2.5135    3.1721 H   0  0  0  0  0  0  0  0  0  0  0  0
   -1.4185   -0.3006    3.1946 H   0  0  0  0  0  0  0  0  0  0  0  0
   -1.6370   -1.6376    2.0745 H   0  0  0  0  0  0  0  0  0  0  0  0
   -2.8124   -0.3101    2.0794 H   0  0  0  0  0  0  0  0  0  0  0  0
   -2.2172   -0.5314   -0.3701 H   0  0  0  0  0  0  0  0  0  0  0  0
   -0.8938    0.4395   -0.9466 H   0  0  0  0  0  0  0  0  0  0  0  0
    0.3245   -1.3256   -1.4538 H   0  0  0  0  0  0  0  0  0  0  0  0
    1.6886    0.2677    0.1768 H   0  0  0  0  0  0  0  0  0  0  0  0
    1.8040    2.2634   -0.2518 H   0  0  0  0  0  0  0  0  0  0  0  0
    5.3976    2.9737   -1.1243 H   0  0  0  0  0  0  0  0  0  0  0  0
    6.1949    5.2300   -1.5506 H   0  0  0  0  0  0  0  0  0  0  0  0
    2.2274    6.7800   -0.8637 H   0  0  0  0  0  0  0  0  0  0  0  0
    1.4173    4.5046   -0.4469 H   0  0  0  0  0  0  0  0  0  0  0  0
    4.9015   -1.2569   -0.9983 H   0  0  0  0  0  0  0  0  0  0  0  0
    5.3747   -3.6245   -0.8155 H   0  0  0  0  0  0  0  0  0  0  0  0
    3.6629   -5.1884    0.0608 H   0  0  0  0  0  0  0  0  0  0  0  0
   -0.7300   -5.8480    1.9307 H   0  0  0  0  0  0  0  0  0  0  0  0
   -2.6663   -4.4931    1.3125 H   0  0  0  0  0  0  0  0  0  0  0  0
   -2.8279   -5.3650   -0.2236 H   0  0  0  0  0  0  0  0  0  0  0  0
   -3.0480   -6.2170    1.3057 H   0  0  0  0  0  0  0  0  0  0  0  0
    0.3990   -7.3471    0.1576 H   0  0  0  0  0  0  0  0  0  0  0  0
   -1.0784   -7.2080   -0.7864 H   0  0  0  0  0  0  0  0  0  0  0  0
   -0.7059   -8.3061    1.7877 H   0  0  0  0  0  0  0  0  0  0  0  0
   -1.0120   -4.8744   -1.5546 H   0  0  0  0  0  0  0  0  0  0  0  0
    0.4955   -4.0122   -1.6107 H   0  0  0  0  0  0  0  0  0  0  0  0
   -1.9301   -2.8868   -0.1286 H   0  0  0  0  0  0  0  0  0  0  0  0
   -1.1744   -2.4898   -3.0732 H   0  0  0  0  0  0  0  0  0  0  0  0
   -2.4856   -1.6456   -2.2442 H   0  0  0  0  0  0  0  0  0  0  0  0
   -2.5760   -3.3902   -2.4712 H   0  0  0  0  0  0  0  0  0  0  0  0
   -1.9711    2.7566   -1.0452 H   0  0  0  0  0  0  0  0  0  0  0  0
   -4.1671    3.8152   -1.4416 H   0  0  0  0  0  0  0  0  0  0  0  0
  1  2  1  0
  2  3  1  0
  3  4  2  0
  4  5  1  0
  5  6  2  0
  6  7  1  0
  7  8  2  0
  7  9  2  0
  7 10  1  0
 10 11  1  0
 10 12  1  0
 12 13  1  0
 13 14  1  0
 14 15  1  0
 15 16  2  0
 16 17  1  0
 17 18  1  0
 18 19  2  0
 18 20  1  0
 20 21  1  0
 21 22  2  0
 22 23  1  0
 23 24  2  0
 24 25  1  0
 25 26  1  0
 25 27  1  0
 25 28  1  0
 24 29  1  0
 29 30  2  0
 16 31  1  0
 31 32  2  0
 32 33  1  0
 33 34  2  0
 34 35  1  0
 35 36  2  0
 35 37  1  0
 37 38  1  0
 38 39  1  0
 38 40  1  0
 40 41  1  0
 37 42  1  0
 42 43  1  0
 43 44  1  0
  6 45  1  0
 45 46  2  0
 46  3  1  0
 43 13  1  0
 34 15  1  0
 30 21  1  0
  1 47  1  0
  1 48  1  0
  1 49  1  0
  4 50  1  0
  5 51  1  0
 11 52  1  0
 11 53  1  0
 11 54  1  0
 12 55  1  0
 12 56  1  0
 13 57  1  0
 17 58  1  0
 20 59  1  0
 22 60  1  0
 23 61  1  0
 29 62  1  0
 30 63  1  0
 31 64  1  0
 32 65  1  0
 33 66  1  0
 38 67  1  0
 39 68  1  0
 39 69  1  0
 39 70  1  0
 40 71  1  0
 40 72  1  0
 41 73  1  0
 42 74  1  0
 42 75  1  0
 43 76  1  0
 44 77  1  0
 44 78  1  0
 44 79  1  0
 45 80  1  0
 46 81  1  0
M  END
$$$$
