
     RDKit          3D

 39 42  0  0  0  0  0  0  0  0999 V2000
   -8.0409   -2.0978   -1.0803 O   0  0  0  0  0  0  0  0  0  0  0  0
   -7.6500   -1.6380   -0.0218 C   0  0  0  0  0  0  0  0  0  0  0  0
   -8.3514   -1.8245    1.1125 O   0  0  0  0  0  0  0  0  0  0  0  0
   -6.4106   -0.8268    0.2118 C   0  0  0  0  0  0  0  0  0  0  0  0
   -5.6258   -0.6720   -1.0872 C   0  0  0  0  0  0  0  0  0  0  0  0
   -4.4070    0.1208   -0.8957 N   0  0  0  0  0  0  0  0  0  0  0  0
   -3.2632   -0.5215   -0.4536 C   0  0  0  0  0  0  0  0  0  0  0  0
   -3.1740   -1.7124   -0.1874 O   0  0  0  0  0  0  0  0  0  0  0  0
   -2.1403    0.4468   -0.3110 C   0  0  0  0  0  0  0  0  0  0  0  0
   -0.9263    0.0158    0.0536 C   0  0  0  0  0  0  0  0  0  0  0  0
    0.2511    0.7972    0.2233 C   0  0  0  0  0  0  0  0  0  0  0  0
    0.4651    2.1387    0.5064 C   0  0  0  0  0  0  0  0  0  0  0  0
    1.8637    2.3554    0.5768 C   0  0  0  0  0  0  0  0  0  0  0  0
    2.4779    1.1378    0.3506 C   0  0  0  0  0  0  0  0  0  0  0  0
    3.8771    0.7945    0.3154 C   0  0  0  0  0  0  0  0  0  0  0  0
    4.2858   -0.4362    0.0912 N   0  0  0  0  0  0  0  0  0  0  0  0
    5.6683   -0.4910    0.1098 C   0  0  0  0  0  0  0  0  0  0  0  0
    6.4526   -1.6447   -0.0921 C   0  0  0  0  0  0  0  0  0  0  0  0
    7.8477   -1.5549   -0.0459 C   0  0  0  0  0  0  0  0  0  0  0  0
    8.4671   -0.3332    0.1983 C   0  0  0  0  0  0  0  0  0  0  0  0
    7.7116    0.8260    0.4019 C   0  0  0  0  0  0  0  0  0  0  0  0
    6.3112    0.7234    0.3531 C   0  0  0  0  0  0  0  0  0  0  0  0
    5.1233    1.9506    0.5605 S   0  0  0  0  0  0  0  0  0  0  0  0
    1.4926    0.2061    0.1501 O   0  0  0  0  0  0  0  0  0  0  0  0
   -2.6845    2.0240   -0.7082 S   0  0  0  0  0  0  0  0  0  0  0  0
   -4.3215    1.4867   -1.0576 C   0  0  0  0  0  0  0  0  0  0  0  0
   -5.5269    2.5500   -1.5012 S   0  0  0  0  0  0  0  0  0  0  0  0
   -9.1254   -2.3611    0.8387 H   0  0  0  0  0  0  0  0  0  0  0  0
   -6.7038    0.1539    0.6009 H   0  0  0  0  0  0  0  0  0  0  0  0
   -5.7985   -1.3335    0.9658 H   0  0  0  0  0  0  0  0  0  0  0  0
   -6.2486   -0.2110   -1.8612 H   0  0  0  0  0  0  0  0  0  0  0  0
   -5.3403   -1.6613   -1.4670 H   0  0  0  0  0  0  0  0  0  0  0  0
   -0.7825   -1.0528    0.2121 H   0  0  0  0  0  0  0  0  0  0  0  0
   -0.2944    2.8916    0.6611 H   0  0  0  0  0  0  0  0  0  0  0  0
    2.3581    3.2956    0.7787 H   0  0  0  0  0  0  0  0  0  0  0  0
    5.9641   -2.5954   -0.2823 H   0  0  0  0  0  0  0  0  0  0  0  0
    8.4486   -2.4478   -0.2023 H   0  0  0  0  0  0  0  0  0  0  0  0
    9.5533   -0.2773    0.2316 H   0  0  0  0  0  0  0  0  0  0  0  0
    8.1966    1.7785    0.5923 H   0  0  0  0  0  0  0  0  0  0  0  0
  1  2  2  0
  2  3  1  0
  2  4  1  0
  4  5  1  0
  5  6  1  0
  6  7  1  0
  7  8  2  0
  7  9  1  0
  9 10  2  3
 10 11  1  0
 11 12  2  0
 12 13  1  0
 13 14  2  0
 14 15  1  0
 15 16  2  0
 16 17  1  0
 17 18  2  0
 18 19  1  0
 19 20  2  0
 20 21  1  0
 21 22  2  0
 22 23  1  0
 14 24  1  0
  9 25  1  0
 25 26  1  0
 26 27  2  0
 26  6  1  0
 24 11  1  0
 23 15  1  0
 22 17  1  0
  3 28  1  0
  4 29  1  0
  4 30  1  0
  5 31  1  0
  5 32  1  0
 10 33  1  0
 12 34  1  0
 13 35  1  0
 18 36  1  0
 19 37  1  0
 20 38  1  0
 21 39  1  0
M  END
$$$$
