
     RDKit          3D

 60 63  0  0  0  0  0  0  0  0999 V2000
    5.7550   -4.1775   -2.5223 C   0  0  0  0  0  0  0  0  0  0  0  0
    4.2903   -3.8679   -2.2743 C   0  0  0  0  0  0  0  0  0  0  0  0
    3.9852   -2.5316   -2.6681 O   0  0  0  0  0  0  0  0  0  0  0  0
    4.0805   -1.5360   -1.7346 C   0  0  0  0  0  0  0  0  0  0  0  0
    3.5552   -0.3060   -2.1394 C   0  0  0  0  0  0  0  0  0  0  0  0
    3.5871    0.8027   -1.2891 C   0  0  0  0  0  0  0  0  0  0  0  0
    4.1592    0.6969   -0.0158 C   0  0  0  0  0  0  0  0  0  0  0  0
    4.1813    1.8723    0.9251 C   0  0  0  0  0  0  0  0  0  0  0  0
    3.0286    1.8657    1.7915 N   0  0  0  0  0  0  0  0  0  0  0  0
    3.0275    1.2461    3.0209 C   0  0  0  0  0  0  0  0  0  0  0  0
    4.0497    0.8212    3.5541 O   0  0  0  0  0  0  0  0  0  0  0  0
    1.6845    1.2621    3.7513 C   0  0  0  0  0  0  0  0  0  0  0  0
    0.5374    1.3965    2.8509 N   0  0  0  0  0  0  0  0  0  0  0  0
    0.2165    2.7008    2.4490 N   0  0  0  0  0  0  0  0  0  0  0  0
   -0.8236    2.9395    1.6988 C   0  0  0  0  0  0  0  0  0  0  0  0
   -1.1047    4.3623    1.3075 C   0  0  0  0  0  0  0  0  0  0  0  0
   -1.6568    1.8418    1.2758 C   0  0  0  0  0  0  0  0  0  0  0  0
   -2.8518    1.7502    0.5803 C   0  0  0  0  0  0  0  0  0  0  0  0
   -3.7719    2.8246    0.1233 C   0  0  0  0  0  0  0  0  0  0  0  0
   -3.0977    0.3772    0.4399 N   0  0  0  0  0  0  0  0  0  0  0  0
   -4.1005   -0.3212   -0.3055 C   0  0  0  0  0  0  0  0  0  0  0  0
   -4.3476   -1.6716   -0.0054 C   0  0  0  0  0  0  0  0  0  0  0  0
   -5.3333   -2.3908   -0.6901 C   0  0  0  0  0  0  0  0  0  0  0  0
   -6.0745   -1.7834   -1.7067 C   0  0  0  0  0  0  0  0  0  0  0  0
   -7.1623   -2.5397   -2.4107 C   0  0  0  0  0  0  0  0  0  0  0  0
   -5.8151   -0.4469   -2.0248 C   0  0  0  0  0  0  0  0  0  0  0  0
   -4.8297    0.2770   -1.3393 C   0  0  0  0  0  0  0  0  0  0  0  0
   -2.2105   -0.3504    1.1723 N   0  0  0  0  0  0  0  0  0  0  0  0
   -1.3216    0.5313    1.6304 C   0  0  0  0  0  0  0  0  0  0  0  0
   -0.1536    0.2340    2.4522 C   0  0  0  0  0  0  0  0  0  0  0  0
    0.1842   -0.9021    2.7765 O   0  0  0  0  0  0  0  0  0  0  0  0
    4.6846   -0.5377    0.3868 C   0  0  0  0  0  0  0  0  0  0  0  0
    4.6506   -1.6446   -0.4684 C   0  0  0  0  0  0  0  0  0  0  0  0
    6.4123   -3.4868   -1.9807 H   0  0  0  0  0  0  0  0  0  0  0  0
    5.9963   -5.2005   -2.2167 H   0  0  0  0  0  0  0  0  0  0  0  0
    5.9923   -4.0675   -3.5863 H   0  0  0  0  0  0  0  0  0  0  0  0
    3.9865   -4.0820   -1.2446 H   0  0  0  0  0  0  0  0  0  0  0  0
    3.6860   -4.5272   -2.9077 H   0  0  0  0  0  0  0  0  0  0  0  0
    3.1126   -0.2136   -3.1282 H   0  0  0  0  0  0  0  0  0  0  0  0
    3.1635    1.7429   -1.6302 H   0  0  0  0  0  0  0  0  0  0  0  0
    4.1598    2.8104    0.3613 H   0  0  0  0  0  0  0  0  0  0  0  0
    5.1024    1.8721    1.5170 H   0  0  0  0  0  0  0  0  0  0  0  0
    2.1201    2.1062    1.4067 H   0  0  0  0  0  0  0  0  0  0  0  0
    1.6790    2.1085    4.4471 H   0  0  0  0  0  0  0  0  0  0  0  0
    1.5975    0.3350    4.3266 H   0  0  0  0  0  0  0  0  0  0  0  0
   -1.9617    4.7332    1.8752 H   0  0  0  0  0  0  0  0  0  0  0  0
   -1.3122    4.4270    0.2356 H   0  0  0  0  0  0  0  0  0  0  0  0
   -0.2421    4.9966    1.5335 H   0  0  0  0  0  0  0  0  0  0  0  0
   -3.5647    3.0964   -0.9152 H   0  0  0  0  0  0  0  0  0  0  0  0
   -3.6631    3.7253    0.7327 H   0  0  0  0  0  0  0  0  0  0  0  0
   -4.8211    2.5313    0.2279 H   0  0  0  0  0  0  0  0  0  0  0  0
   -3.7924   -2.1828    0.7808 H   0  0  0  0  0  0  0  0  0  0  0  0
   -5.5147   -3.4295   -0.4192 H   0  0  0  0  0  0  0  0  0  0  0  0
   -7.2823   -2.1860   -3.4413 H   0  0  0  0  0  0  0  0  0  0  0  0
   -6.9283   -3.6104   -2.4569 H   0  0  0  0  0  0  0  0  0  0  0  0
   -8.1101   -2.4082   -1.8797 H   0  0  0  0  0  0  0  0  0  0  0  0
   -6.3772    0.0432   -2.8185 H   0  0  0  0  0  0  0  0  0  0  0  0
   -4.6454    1.2895   -1.6753 H   0  0  0  0  0  0  0  0  0  0  0  0
    5.1216   -0.6447    1.3788 H   0  0  0  0  0  0  0  0  0  0  0  0
    5.0834   -2.5732   -0.1088 H   0  0  0  0  0  0  0  0  0  0  0  0
  1  2  1  0
  2  3  1  0
  3  4  1  0
  4  5  2  0
  5  6  1  0
  6  7  2  0
  7  8  1  0
  8  9  1  0
  9 10  1  0
 10 11  2  0
 10 12  1  0
 12 13  1  0
 13 14  1  0
 14 15  2  0
 15 16  1  0
 15 17  1  0
 17 18  2  0
 18 19  1  0
 18 20  1  0
 20 21  1  0
 21 22  2  0
 22 23  1  0
 23 24  2  0
 24 25  1  0
 24 26  1  0
 26 27  2  0
 20 28  1  0
 28 29  2  0
 29 30  1  0
 30 31  2  0
  7 32  1  0
 32 33  2  0
 33  4  1  0
 30 13  1  0
 29 17  1  0
 27 21  1  0
  1 34  1  0
  1 35  1  0
  1 36  1  0
  2 37  1  0
  2 38  1  0
  5 39  1  0
  6 40  1  0
  8 41  1  0
  8 42  1  0
  9 43  1  0
 12 44  1  0
 12 45  1  0
 16 46  1  0
 16 47  1  0
 16 48  1  0
 19 49  1  0
 19 50  1  0
 19 51  1  0
 22 52  1  0
 23 53  1  0
 25 54  1  0
 25 55  1  0
 25 56  1  0
 26 57  1  0
 27 58  1  0
 32 59  1  0
 33 60  1  0
M  END
$$$$
