
     RDKit          3D

 39 42  0  0  0  0  0  0  0  0999 V2000
   -3.8451    1.7248    2.0345 C   0  0  0  0  0  0  0  0  0  0  0  0
   -3.0514    0.1283    1.6980 S   0  0  0  0  0  0  0  0  0  0  0  0
   -4.0872   -0.4358    0.3364 C   0  0  0  0  0  0  0  0  0  0  0  0
   -5.4556   -0.6447    0.5556 C   0  0  0  0  0  0  0  0  0  0  0  0
   -6.2750   -1.0811   -0.4838 C   0  0  0  0  0  0  0  0  0  0  0  0
   -5.7301   -1.3184   -1.7424 C   0  0  0  0  0  0  0  0  0  0  0  0
   -4.3634   -1.1285   -1.9682 C   0  0  0  0  0  0  0  0  0  0  0  0
   -3.5279   -0.6916   -0.9369 C   0  0  0  0  0  0  0  0  0  0  0  0
   -2.1345   -0.4971   -1.0915 N   0  0  0  0  0  0  0  0  0  0  0  0
   -1.3657   -0.6183   -2.2378 C   0  0  0  0  0  0  0  0  0  0  0  0
   -1.8117   -0.8728   -3.3523 O   0  0  0  0  0  0  0  0  0  0  0  0
    0.0760   -0.3953   -2.0132 C   0  0  0  0  0  0  0  0  0  0  0  0
    0.8073   -0.3459   -0.7913 C   0  0  0  0  0  0  0  0  0  0  0  0
    2.1136   -0.1146   -1.1569 C   0  0  0  0  0  0  0  0  0  0  0  0
    3.3745    0.0469   -0.4388 C   0  0  0  0  0  0  0  0  0  0  0  0
    4.5868    0.2812   -1.1334 C   0  0  0  0  0  0  0  0  0  0  0  0
    5.8015    0.4383   -0.4537 C   0  0  0  0  0  0  0  0  0  0  0  0
    5.7806    0.3573    0.9192 C   0  0  0  0  0  0  0  0  0  0  0  0
    4.6144    0.1307    1.6080 C   0  0  0  0  0  0  0  0  0  0  0  0
    3.4031   -0.0280    0.9643 C   0  0  0  0  0  0  0  0  0  0  0  0
    4.8073    0.0859    2.9539 O   0  0  0  0  0  0  0  0  0  0  0  0
    6.2317    0.3076    3.0313 C   0  0  0  0  0  0  0  0  0  0  0  0
    6.8546    0.4837    1.7421 O   0  0  0  0  0  0  0  0  0  0  0  0
    2.1675   -0.0320   -2.5146 O   0  0  0  0  0  0  0  0  0  0  0  0
    0.9107   -0.2106   -3.0499 N   0  0  0  0  0  0  0  0  0  0  0  0
   -3.2618    2.2601    2.7886 H   0  0  0  0  0  0  0  0  0  0  0  0
   -4.8582    1.5842    2.4196 H   0  0  0  0  0  0  0  0  0  0  0  0
   -3.8806    2.3334    1.1266 H   0  0  0  0  0  0  0  0  0  0  0  0
   -5.8941   -0.4805    1.5366 H   0  0  0  0  0  0  0  0  0  0  0  0
   -7.3364   -1.2419   -0.3118 H   0  0  0  0  0  0  0  0  0  0  0  0
   -6.3661   -1.6616   -2.5555 H   0  0  0  0  0  0  0  0  0  0  0  0
   -3.9849   -1.3400   -2.9636 H   0  0  0  0  0  0  0  0  0  0  0  0
   -1.6787   -0.1980   -0.2382 H   0  0  0  0  0  0  0  0  0  0  0  0
    0.4402   -0.4756    0.2148 H   0  0  0  0  0  0  0  0  0  0  0  0
    4.5947    0.3433   -2.2210 H   0  0  0  0  0  0  0  0  0  0  0  0
    6.7263    0.6170   -0.9908 H   0  0  0  0  0  0  0  0  0  0  0  0
    2.5096   -0.2060    1.5519 H   0  0  0  0  0  0  0  0  0  0  0  0
    6.6936   -0.5524    3.5298 H   0  0  0  0  0  0  0  0  0  0  0  0
    6.4144    1.2042    3.6346 H   0  0  0  0  0  0  0  0  0  0  0  0
  1  2  1  0
  2  3  1  0
  3  4  2  0
  4  5  1  0
  5  6  2  0
  6  7  1  0
  7  8  2  0
  8  9  1  0
  9 10  1  0
 10 11  2  0
 10 12  1  0
 12 13  1  0
 13 14  2  0
 14 15  1  0
 15 16  2  0
 16 17  1  0
 17 18  2  0
 18 19  1  0
 19 20  2  0
 19 21  1  0
 21 22  1  0
 22 23  1  0
 14 24  1  0
 24 25  1  0
  8  3  1  0
 25 12  2  0
 20 15  1  0
 23 18  1  0
  1 26  1  0
  1 27  1  0
  1 28  1  0
  4 29  1  0
  5 30  1  0
  6 31  1  0
  7 32  1  0
  9 33  1  0
 13 34  1  0
 16 35  1  0
 17 36  1  0
 20 37  1  0
 22 38  1  0
 22 39  1  0
M  END
$$$$
