
     RDKit          3D

 50 52  0  0  0  0  0  0  0  0999 V2000
   -4.2427   -2.6947    3.0003 C   0  0  0  0  0  0  0  0  0  0  0  0
   -4.7971   -2.1661    1.8023 O   0  0  0  0  0  0  0  0  0  0  0  0
   -3.9769   -1.3798    1.0378 C   0  0  0  0  0  0  0  0  0  0  0  0
   -2.5834   -1.3492    1.1224 C   0  0  0  0  0  0  0  0  0  0  0  0
   -1.8507   -0.5278    0.2527 C   0  0  0  0  0  0  0  0  0  0  0  0
   -0.3773   -0.5131    0.3622 C   0  0  0  0  0  0  0  0  0  0  0  0
    0.3542    0.1870   -0.4432 N   0  0  0  0  0  0  0  0  0  0  0  0
    1.6996    0.1218   -0.2403 N   0  0  0  0  0  0  0  0  0  0  0  0
    2.5594    0.8369   -1.0755 C   0  0  0  0  0  0  0  0  0  0  0  0
    2.1988    1.5385   -2.0167 O   0  0  0  0  0  0  0  0  0  0  0  0
    4.0248    0.6412   -0.6762 C   0  0  0  0  0  0  0  0  0  0  0  0
    4.9057    1.3362   -1.5434 O   0  0  0  0  0  0  0  0  0  0  0  0
    6.2449    1.2368   -1.2903 C   0  0  0  0  0  0  0  0  0  0  0  0
    7.0572    1.9483   -2.1755 C   0  0  0  0  0  0  0  0  0  0  0  0
    8.4470    1.9361   -2.0369 C   0  0  0  0  0  0  0  0  0  0  0  0
    9.0465    1.1987   -1.0117 C   0  0  0  0  0  0  0  0  0  0  0  0
   10.5360    1.2082   -0.8368 C   0  0  0  0  0  0  0  0  0  0  0  0
    8.2304    0.4979   -0.1163 C   0  0  0  0  0  0  0  0  0  0  0  0
    6.8375    0.5118   -0.2569 C   0  0  0  0  0  0  0  0  0  0  0  0
   -2.4975    0.2579   -0.7086 C   0  0  0  0  0  0  0  0  0  0  0  0
   -3.8866    0.2315   -0.8011 C   0  0  0  0  0  0  0  0  0  0  0  0
   -4.6094   -0.5729    0.0796 C   0  0  0  0  0  0  0  0  0  0  0  0
   -6.0023   -0.5961   -0.0571 O   0  0  0  0  0  0  0  0  0  0  0  0
   -6.6693    0.1005    0.9509 C   0  0  0  0  0  0  0  0  0  0  0  0
   -6.1264    0.7851    1.8132 O   0  0  0  0  0  0  0  0  0  0  0  0
   -8.1011   -0.0981    0.7923 C   0  0  0  0  0  0  0  0  0  0  0  0
   -8.7920   -0.8486   -0.1442 C   0  0  0  0  0  0  0  0  0  0  0  0
  -10.2049   -0.7873    0.0366 C   0  0  0  0  0  0  0  0  0  0  0  0
  -10.5518    0.0071    1.1052 C   0  0  0  0  0  0  0  0  0  0  0  0
   -9.1818    0.6699    1.8826 S   0  0  0  0  0  0  0  0  0  0  0  0
   -3.7943   -1.9076    3.6161 H   0  0  0  0  0  0  0  0  0  0  0  0
   -3.5167   -3.4832    2.7779 H   0  0  0  0  0  0  0  0  0  0  0  0
   -5.0575   -3.1450    3.5753 H   0  0  0  0  0  0  0  0  0  0  0  0
   -2.0545   -1.9638    1.8420 H   0  0  0  0  0  0  0  0  0  0  0  0
    0.0683   -1.1306    1.1627 H   0  0  0  0  0  0  0  0  0  0  0  0
    2.0604   -0.4376    0.5229 H   0  0  0  0  0  0  0  0  0  0  0  0
    4.2321   -0.4352   -0.7163 H   0  0  0  0  0  0  0  0  0  0  0  0
    4.1344    1.0160    0.3488 H   0  0  0  0  0  0  0  0  0  0  0  0
    6.6012    2.5213   -2.9798 H   0  0  0  0  0  0  0  0  0  0  0  0
    9.0542    2.5061   -2.7363 H   0  0  0  0  0  0  0  0  0  0  0  0
   11.0426    1.3660   -1.7949 H   0  0  0  0  0  0  0  0  0  0  0  0
   10.8869    0.2506   -0.4381 H   0  0  0  0  0  0  0  0  0  0  0  0
   10.8267    2.0075   -0.1481 H   0  0  0  0  0  0  0  0  0  0  0  0
    8.6761   -0.0669    0.6997 H   0  0  0  0  0  0  0  0  0  0  0  0
    6.2515   -0.0516    0.4600 H   0  0  0  0  0  0  0  0  0  0  0  0
   -1.9240    0.8893   -1.3853 H   0  0  0  0  0  0  0  0  0  0  0  0
   -4.3963    0.8360   -1.5455 H   0  0  0  0  0  0  0  0  0  0  0  0
   -8.3083   -1.4203   -0.9281 H   0  0  0  0  0  0  0  0  0  0  0  0
  -10.9287   -1.2998   -0.5857 H   0  0  0  0  0  0  0  0  0  0  0  0
  -11.5449    0.2313    1.4703 H   0  0  0  0  0  0  0  0  0  0  0  0
  1  2  1  0
  2  3  1  0
  3  4  2  0
  4  5  1  0
  5  6  1  0
  6  7  2  3
  7  8  1  0
  8  9  1  0
  9 10  2  0
  9 11  1  0
 11 12  1  0
 12 13  1  0
 13 14  2  0
 14 15  1  0
 15 16  2  0
 16 17  1  0
 16 18  1  0
 18 19  2  0
  5 20  2  0
 20 21  1  0
 21 22  2  0
 22 23  1  0
 23 24  1  0
 24 25  2  0
 24 26  1  0
 26 27  2  0
 27 28  1  0
 28 29  2  0
 29 30  1  0
 22  3  1  0
 30 26  1  0
 19 13  1  0
  1 31  1  0
  1 32  1  0
  1 33  1  0
  4 34  1  0
  6 35  1  0
  8 36  1  0
 11 37  1  0
 11 38  1  0
 14 39  1  0
 15 40  1  0
 17 41  1  0
 17 42  1  0
 17 43  1  0
 18 44  1  0
 19 45  1  0
 20 46  1  0
 21 47  1  0
 27 48  1  0
 28 49  1  0
 29 50  1  0
M  END
$$$$
