
     RDKit          3D

 37 39  0  0  0  0  0  0  0  0999 V2000
   -6.4932    3.5949    1.2553 C   0  0  0  0  0  0  0  0  0  0  0  0
   -5.3433    3.6646    0.4221 O   0  0  0  0  0  0  0  0  0  0  0  0
   -4.5309    2.5662    0.3935 C   0  0  0  0  0  0  0  0  0  0  0  0
   -3.4116    2.6870   -0.4285 C   0  0  0  0  0  0  0  0  0  0  0  0
   -2.4981    1.6347   -0.5483 C   0  0  0  0  0  0  0  0  0  0  0  0
   -2.6799    0.4318    0.1523 C   0  0  0  0  0  0  0  0  0  0  0  0
   -1.6851   -0.6386   -0.0150 C   0  0  0  0  0  0  0  0  0  0  0  0
   -0.6356   -0.5837   -0.8113 N   0  0  0  0  0  0  0  0  0  0  0  0
    0.0869   -1.7526   -0.7144 C   0  0  0  0  0  0  0  0  0  0  0  0
    1.2338   -1.9607   -1.4341 N   0  0  0  0  0  0  0  0  0  0  0  0
    1.8317   -1.0543   -2.2742 C   0  0  0  0  0  0  0  0  0  0  0  0
    1.3972    0.0617   -2.5561 O   0  0  0  0  0  0  0  0  0  0  0  0
    3.0883   -1.5595   -2.9744 C   0  0  0  0  0  0  0  0  0  0  0  0
    3.9390   -2.9286   -2.1332 S   0  0  0  0  0  0  0  0  0  0  0  0
    4.6669   -2.0950   -0.7802 C   0  0  0  0  0  0  0  0  0  0  0  0
    4.4645   -0.8212   -0.5346 N   0  0  0  0  0  0  0  0  0  0  0  0
    5.1389   -0.3944    0.5916 N   0  0  0  0  0  0  0  0  0  0  0  0
    5.8178   -1.3682    1.1601 C   0  0  0  0  0  0  0  0  0  0  0  0
    6.6398   -1.2291    2.3877 C   0  0  0  0  0  0  0  0  0  0  0  0
    5.6874   -2.8788    0.3515 S   0  0  0  0  0  0  0  0  0  0  0  0
   -0.3480   -2.7164    0.0982 N   0  0  0  0  0  0  0  0  0  0  0  0
   -1.7389   -2.1437    0.8159 S   0  0  0  0  0  0  0  0  0  0  0  0
   -3.8117    0.3224    0.9756 C   0  0  0  0  0  0  0  0  0  0  0  0
   -4.7283    1.3789    1.0952 C   0  0  0  0  0  0  0  0  0  0  0  0
   -7.0271    4.5461    1.1689 H   0  0  0  0  0  0  0  0  0  0  0  0
   -7.1718    2.8012    0.9259 H   0  0  0  0  0  0  0  0  0  0  0  0
   -6.2126    3.4647    2.3056 H   0  0  0  0  0  0  0  0  0  0  0  0
   -3.2435    3.6073   -0.9832 H   0  0  0  0  0  0  0  0  0  0  0  0
   -1.6325    1.7632   -1.1995 H   0  0  0  0  0  0  0  0  0  0  0  0
    1.6701   -2.8536   -1.2604 H   0  0  0  0  0  0  0  0  0  0  0  0
    2.7856   -1.9140   -3.9651 H   0  0  0  0  0  0  0  0  0  0  0  0
    3.7822   -0.7243   -3.1137 H   0  0  0  0  0  0  0  0  0  0  0  0
    7.6954   -1.4225    2.1720 H   0  0  0  0  0  0  0  0  0  0  0  0
    6.3067   -1.9264    3.1628 H   0  0  0  0  0  0  0  0  0  0  0  0
    6.5579   -0.2147    2.7906 H   0  0  0  0  0  0  0  0  0  0  0  0
   -4.0131   -0.5821    1.5438 H   0  0  0  0  0  0  0  0  0  0  0  0
   -5.5851    1.2376    1.7458 H   0  0  0  0  0  0  0  0  0  0  0  0
  1  2  1  0
  2  3  1  0
  3  4  2  0
  4  5  1  0
  5  6  2  0
  6  7  1  0
  7  8  2  0
  8  9  1  0
  9 10  1  0
 10 11  1  0
 11 12  2  0
 11 13  1  0
 13 14  1  0
 14 15  1  0
 15 16  2  0
 16 17  1  0
 17 18  2  0
 18 19  1  0
 18 20  1  0
  9 21  2  0
 21 22  1  0
  6 23  1  0
 23 24  2  0
 24  3  1  0
 22  7  1  0
 20 15  1  0
  1 25  1  0
  1 26  1  0
  1 27  1  0
  4 28  1  0
  5 29  1  0
 10 30  1  0
 13 31  1  0
 13 32  1  0
 19 33  1  0
 19 34  1  0
 19 35  1  0
 23 36  1  0
 24 37  1  0
M  END
$$$$
