
     RDKit          3D

 36 37  0  0  0  0  0  0  0  0999 V2000
   -0.6683   -0.1492   -2.2281 O   0  0  0  0  0  0  0  0  0  0  0  0
   -0.8482   -1.0872   -1.4574 C   0  0  0  0  0  0  0  0  0  0  0  0
    0.2958   -1.8604   -0.7929 C   0  0  0  0  0  0  0  0  0  0  0  0
    1.5408   -1.1647   -0.8096 O   0  0  0  0  0  0  0  0  0  0  0  0
    1.7081   -0.2585    0.1854 C   0  0  0  0  0  0  0  0  0  0  0  0
    0.9365   -0.0442    1.1078 O   0  0  0  0  0  0  0  0  0  0  0  0
    3.0076    0.4268   -0.0094 C   0  0  0  0  0  0  0  0  0  0  0  0
    4.1318   -0.3503   -0.3419 C   0  0  0  0  0  0  0  0  0  0  0  0
    5.3831    0.2463   -0.5045 C   0  0  0  0  0  0  0  0  0  0  0  0
    5.5234    1.6208   -0.3341 C   0  0  0  0  0  0  0  0  0  0  0  0
    4.4137    2.4002   -0.0032 C   0  0  0  0  0  0  0  0  0  0  0  0
    3.1542    1.8091    0.1617 C   0  0  0  0  0  0  0  0  0  0  0  0
    1.7116    2.9742    0.5694 Br  0  0  0  0  0  0  0  0  0  0  0  0
   -2.1016   -1.5690   -1.1286 N   0  0  0  0  0  0  0  0  0  0  0  0
   -3.3124   -0.8698   -1.5337 C   0  0  0  0  0  0  0  0  0  0  0  0
   -3.5829    0.4154   -0.7322 C   0  0  0  0  0  0  0  0  0  0  0  0
   -3.5143    0.2000    0.7070 N   0  0  0  0  0  0  0  0  0  0  0  0
   -2.4056    0.5025    1.4584 C   0  0  0  0  0  0  0  0  0  0  0  0
   -1.3667    1.1379    0.8586 O   0  0  0  0  0  0  0  0  0  0  0  0
   -2.4680    0.1074    2.7337 C   0  0  0  0  0  0  0  0  0  0  0  0
   -3.9805   -0.6813    3.0695 S   0  0  0  0  0  0  0  0  0  0  0  0
   -4.5101   -0.4772    1.3869 C   0  0  0  0  0  0  0  0  0  0  0  0
   -5.5584   -0.9179    0.9457 O   0  0  0  0  0  0  0  0  0  0  0  0
    0.0227   -2.1488    0.2292 H   0  0  0  0  0  0  0  0  0  0  0  0
    0.4361   -2.7850   -1.3635 H   0  0  0  0  0  0  0  0  0  0  0  0
    4.0405   -1.4268   -0.4722 H   0  0  0  0  0  0  0  0  0  0  0  0
    6.2471   -0.3613   -0.7642 H   0  0  0  0  0  0  0  0  0  0  0  0
    6.4968    2.0891   -0.4626 H   0  0  0  0  0  0  0  0  0  0  0  0
    4.5408    3.4741    0.1184 H   0  0  0  0  0  0  0  0  0  0  0  0
   -2.1834   -2.1824   -0.3282 H   0  0  0  0  0  0  0  0  0  0  0  0
   -3.2426   -0.6297   -2.6002 H   0  0  0  0  0  0  0  0  0  0  0  0
   -4.1357   -1.5797   -1.4011 H   0  0  0  0  0  0  0  0  0  0  0  0
   -4.5918    0.7712   -0.9740 H   0  0  0  0  0  0  0  0  0  0  0  0
   -2.8862    1.2079   -1.0264 H   0  0  0  0  0  0  0  0  0  0  0  0
   -0.5339    0.9086    1.3246 H   0  0  0  0  0  0  0  0  0  0  0  0
   -1.6998    0.2515    3.4794 H   0  0  0  0  0  0  0  0  0  0  0  0
  1  2  2  0
  2  3  1  0
  3  4  1  0
  4  5  1  0
  5  6  2  0
  5  7  1  0
  7  8  2  0
  8  9  1  0
  9 10  2  0
 10 11  1  0
 11 12  2  0
 12 13  1  0
  2 14  1  0
 14 15  1  0
 15 16  1  0
 16 17  1  0
 17 18  1  0
 18 19  1  0
 18 20  2  0
 20 21  1  0
 21 22  1  0
 22 23  2  0
 12  7  1  0
 22 17  1  0
  3 24  1  0
  3 25  1  0
  8 26  1  0
  9 27  1  0
 10 28  1  0
 11 29  1  0
 14 30  1  0
 15 31  1  0
 15 32  1  0
 16 33  1  0
 16 34  1  0
 19 35  1  0
 20 36  1  0
M  END
$$$$
