
     RDKit          3D

 50 53  0  0  0  0  0  0  0  0999 V2000
   -6.3879   -2.3279    4.7493 C   0  0  0  0  0  0  0  0  0  0  0  0
   -5.3938   -1.9186    3.7036 C   0  0  0  0  0  0  0  0  0  0  0  0
   -4.3946   -2.8032    3.2904 C   0  0  0  0  0  0  0  0  0  0  0  0
   -3.4857   -2.4307    2.2956 C   0  0  0  0  0  0  0  0  0  0  0  0
   -3.5754   -1.1739    1.6743 C   0  0  0  0  0  0  0  0  0  0  0  0
   -2.6212   -0.8340    0.6651 N   0  0  0  0  0  0  0  0  0  0  0  0
   -1.4801   -1.5705    0.5749 N   0  0  0  0  0  0  0  0  0  0  0  0
   -0.6978   -0.8947   -0.2692 C   0  0  0  0  0  0  0  0  0  0  0  0
    0.6718   -1.2280   -0.6353 C   0  0  0  0  0  0  0  0  0  0  0  0
    1.2966   -2.1805   -0.1714 O   0  0  0  0  0  0  0  0  0  0  0  0
    1.2038   -0.3501   -1.5995 N   0  0  0  0  0  0  0  0  0  0  0  0
    2.5899   -0.5320   -1.9944 C   0  0  0  0  0  0  0  0  0  0  0  0
    3.5421    0.1013   -0.9766 C   0  0  0  0  0  0  0  0  0  0  0  0
    3.1892    0.8786   -0.0931 O   0  0  0  0  0  0  0  0  0  0  0  0
    4.8624   -0.2624   -1.1672 N   0  0  0  0  0  0  0  0  0  0  0  0
    5.9303    0.3175   -0.3854 C   0  0  0  0  0  0  0  0  0  0  0  0
    6.5303    1.4369   -1.1756 C   0  0  0  0  0  0  0  0  0  0  0  0
    6.0927    2.7446   -1.2648 C   0  0  0  0  0  0  0  0  0  0  0  0
    6.9147    3.5353   -2.1174 C   0  0  0  0  0  0  0  0  0  0  0  0
    7.9525    2.8059   -2.6526 C   0  0  0  0  0  0  0  0  0  0  0  0
    7.9302    1.1778   -2.1298 S   0  0  0  0  0  0  0  0  0  0  0  0
    0.5303    0.7387   -2.1658 N   0  0  0  0  0  0  0  0  0  0  0  0
   -0.6894    1.0290   -1.8068 C   0  0  0  0  0  0  0  0  0  0  0  0
   -1.3508    2.2236   -2.4330 C   0  0  0  0  0  0  0  0  0  0  0  0
   -1.3615    0.1983   -0.8369 C   0  0  0  0  0  0  0  0  0  0  0  0
   -2.6415    0.1743   -0.3074 C   0  0  0  0  0  0  0  0  0  0  0  0
   -3.8421    0.9649   -0.6818 C   0  0  0  0  0  0  0  0  0  0  0  0
   -4.5695   -0.2856    2.0980 C   0  0  0  0  0  0  0  0  0  0  0  0
   -5.4775   -0.6618    3.0960 C   0  0  0  0  0  0  0  0  0  0  0  0
   -6.7263   -1.4613    5.3270 H   0  0  0  0  0  0  0  0  0  0  0  0
   -7.2553   -2.7989    4.2766 H   0  0  0  0  0  0  0  0  0  0  0  0
   -5.9428   -3.0355    5.4568 H   0  0  0  0  0  0  0  0  0  0  0  0
   -4.3091   -3.7895    3.7416 H   0  0  0  0  0  0  0  0  0  0  0  0
   -2.7149   -3.1441    2.0057 H   0  0  0  0  0  0  0  0  0  0  0  0
    2.7529   -0.0636   -2.9711 H   0  0  0  0  0  0  0  0  0  0  0  0
    2.8092   -1.6024   -2.0747 H   0  0  0  0  0  0  0  0  0  0  0  0
    5.1232   -0.7826   -1.9936 H   0  0  0  0  0  0  0  0  0  0  0  0
    6.6585   -0.4749   -0.1839 H   0  0  0  0  0  0  0  0  0  0  0  0
    5.5528    0.6824    0.5756 H   0  0  0  0  0  0  0  0  0  0  0  0
    5.2159    3.1108   -0.7410 H   0  0  0  0  0  0  0  0  0  0  0  0
    6.7519    4.5854   -2.3272 H   0  0  0  0  0  0  0  0  0  0  0  0
    8.7245    3.1497   -3.3272 H   0  0  0  0  0  0  0  0  0  0  0  0
   -1.8298    2.8377   -1.6661 H   0  0  0  0  0  0  0  0  0  0  0  0
   -0.6107    2.8366   -2.9560 H   0  0  0  0  0  0  0  0  0  0  0  0
   -2.0972    1.8885   -3.1580 H   0  0  0  0  0  0  0  0  0  0  0  0
   -4.7661    0.3942   -0.5509 H   0  0  0  0  0  0  0  0  0  0  0  0
   -3.8163    1.2368   -1.7407 H   0  0  0  0  0  0  0  0  0  0  0  0
   -3.8956    1.8895   -0.0996 H   0  0  0  0  0  0  0  0  0  0  0  0
   -4.6480    0.7244    1.7153 H   0  0  0  0  0  0  0  0  0  0  0  0
   -6.2446    0.0441    3.4082 H   0  0  0  0  0  0  0  0  0  0  0  0
  1  2  1  0
  2  3  2  0
  3  4  1  0
  4  5  2  0
  5  6  1  0
  6  7  1  0
  7  8  2  0
  8  9  1  0
  9 10  2  0
  9 11  1  0
 11 12  1  0
 12 13  1  0
 13 14  2  0
 13 15  1  0
 15 16  1  0
 16 17  1  0
 17 18  2  0
 18 19  1  0
 19 20  2  0
 20 21  1  0
 11 22  1  0
 22 23  2  0
 23 24  1  0
 23 25  1  0
 25 26  2  0
 26 27  1  0
  5 28  1  0
 28 29  2  0
 29  2  1  0
 26  6  1  0
 25  8  1  0
 21 17  1  0
  1 30  1  0
  1 31  1  0
  1 32  1  0
  3 33  1  0
  4 34  1  0
 12 35  1  0
 12 36  1  0
 15 37  1  0
 16 38  1  0
 16 39  1  0
 18 40  1  0
 19 41  1  0
 20 42  1  0
 24 43  1  0
 24 44  1  0
 24 45  1  0
 27 46  1  0
 27 47  1  0
 27 48  1  0
 28 49  1  0
 29 50  1  0
M  END
$$$$
