
     RDKit          3D

 38 39  0  0  0  0  0  0  0  0999 V2000
   -0.1282    1.9322   -1.8157 C   0  0  0  0  0  0  0  0  0  0  0  0
    0.4133    1.2635   -0.5676 C   0  0  0  0  0  0  0  0  0  0  0  0
    1.8098    0.7388   -0.6620 C   0  0  0  0  0  0  0  0  0  0  0  0
    2.5406    0.5299    0.4431 C   0  0  0  0  0  0  0  0  0  0  0  0
    3.9317    0.0584    0.4317 C   0  0  0  0  0  0  0  0  0  0  0  0
    4.4050   -0.8752   -0.5005 C   0  0  0  0  0  0  0  0  0  0  0  0
    5.7323   -1.3118   -0.4600 C   0  0  0  0  0  0  0  0  0  0  0  0
    6.5980   -0.8270    0.5180 C   0  0  0  0  0  0  0  0  0  0  0  0
    6.1351    0.0875    1.4621 C   0  0  0  0  0  0  0  0  0  0  0  0
    4.8077    0.5226    1.4216 C   0  0  0  0  0  0  0  0  0  0  0  0
   -0.2684    1.1292    0.5363 N   0  0  0  0  0  0  0  0  0  0  0  0
   -1.5542    1.6073    0.5155 N   0  0  0  0  0  0  0  0  0  0  0  0
   -2.5878    0.6663    0.2823 C   0  0  0  0  0  0  0  0  0  0  0  0
   -3.7300    0.8800    0.9584 N   0  0  0  0  0  0  0  0  0  0  0  0
   -4.7448    0.0162    0.7561 C   0  0  0  0  0  0  0  0  0  0  0  0
   -6.0207    0.2704    1.4996 C   0  0  0  0  0  0  0  0  0  0  0  0
   -4.6418   -1.0571   -0.1029 C   0  0  0  0  0  0  0  0  0  0  0  0
   -3.4395   -1.2011   -0.7631 C   0  0  0  0  0  0  0  0  0  0  0  0
   -3.2312   -2.3360   -1.7197 C   0  0  0  0  0  0  0  0  0  0  0  0
   -2.4134   -0.3476   -0.5851 N   0  0  0  0  0  0  0  0  0  0  0  0
   -0.5707    2.8986   -1.5594 H   0  0  0  0  0  0  0  0  0  0  0  0
   -0.8841    1.2947   -2.2805 H   0  0  0  0  0  0  0  0  0  0  0  0
    0.6675    2.1113   -2.5447 H   0  0  0  0  0  0  0  0  0  0  0  0
    2.2012    0.5763   -1.6589 H   0  0  0  0  0  0  0  0  0  0  0  0
    2.1185    0.7381    1.4243 H   0  0  0  0  0  0  0  0  0  0  0  0
    3.7464   -1.2841   -1.2618 H   0  0  0  0  0  0  0  0  0  0  0  0
    6.0872   -2.0352   -1.1905 H   0  0  0  0  0  0  0  0  0  0  0  0
    7.6300   -1.1670    0.5497 H   0  0  0  0  0  0  0  0  0  0  0  0
    6.8050    0.4622    2.2320 H   0  0  0  0  0  0  0  0  0  0  0  0
    4.4649    1.2350    2.1693 H   0  0  0  0  0  0  0  0  0  0  0  0
   -1.8574    2.0311    1.3930 H   0  0  0  0  0  0  0  0  0  0  0  0
   -5.9208    1.1396    2.1585 H   0  0  0  0  0  0  0  0  0  0  0  0
   -6.2801   -0.5949    2.1168 H   0  0  0  0  0  0  0  0  0  0  0  0
   -6.8329    0.4685    0.7941 H   0  0  0  0  0  0  0  0  0  0  0  0
   -5.4623   -1.7464   -0.2555 H   0  0  0  0  0  0  0  0  0  0  0  0
   -3.3446   -3.2931   -1.2011 H   0  0  0  0  0  0  0  0  0  0  0  0
   -3.9548   -2.2808   -2.5385 H   0  0  0  0  0  0  0  0  0  0  0  0
   -2.2265   -2.3004   -2.1517 H   0  0  0  0  0  0  0  0  0  0  0  0
  1  2  1  0
  2  3  1  0
  3  4  2  3
  4  5  1  0
  5  6  2  0
  6  7  1  0
  7  8  2  0
  8  9  1  0
  9 10  2  0
  2 11  2  3
 11 12  1  0
 12 13  1  0
 13 14  2  0
 14 15  1  0
 15 16  1  0
 15 17  2  0
 17 18  1  0
 18 19  1  0
 18 20  2  0
 10  5  1  0
 20 13  1  0
  1 21  1  0
  1 22  1  0
  1 23  1  0
  3 24  1  0
  4 25  1  0
  6 26  1  0
  7 27  1  0
  8 28  1  0
  9 29  1  0
 10 30  1  0
 12 31  1  0
 16 32  1  0
 16 33  1  0
 16 34  1  0
 17 35  1  0
 19 36  1  0
 19 37  1  0
 19 38  1  0
M  END
$$$$
