
     RDKit          3D

 57 60  0  0  0  0  0  0  0  0999 V2000
   -1.7264   -1.0512    3.6447 C   0  0  0  0  0  0  0  0  0  0  0  0
   -1.7886   -0.8717    2.2355 O   0  0  0  0  0  0  0  0  0  0  0  0
   -0.7241   -0.2889    1.6097 C   0  0  0  0  0  0  0  0  0  0  0  0
    0.4855    0.0171    2.2454 C   0  0  0  0  0  0  0  0  0  0  0  0
    1.5370    0.6141    1.5376 C   0  0  0  0  0  0  0  0  0  0  0  0
    1.3940    0.9075    0.1780 C   0  0  0  0  0  0  0  0  0  0  0  0
    2.4849    1.5479   -0.6045 C   0  0  0  0  0  0  0  0  0  0  0  0
    2.2089    2.2810   -1.5466 O   0  0  0  0  0  0  0  0  0  0  0  0
    3.7708    1.2347   -0.2212 N   0  0  0  0  0  0  0  0  0  0  0  0
    4.9113    1.6616   -1.0024 C   0  0  0  0  0  0  0  0  0  0  0  0
    5.4133    0.5345   -1.8709 C   0  0  0  0  0  0  0  0  0  0  0  0
    4.7259    0.2001   -3.0626 C   0  0  0  0  0  0  0  0  0  0  0  0
    5.1565   -0.8562   -3.8725 C   0  0  0  0  0  0  0  0  0  0  0  0
    6.2703   -1.5592   -3.4687 C   0  0  0  0  0  0  0  0  0  0  0  0
    6.9435   -1.2458   -2.3110 C   0  0  0  0  0  0  0  0  0  0  0  0
    6.5416   -0.2118   -1.4900 C   0  0  0  0  0  0  0  0  0  0  0  0
    8.0104   -2.0618   -2.0944 O   0  0  0  0  0  0  0  0  0  0  0  0
    7.9393   -2.9143   -3.2577 C   0  0  0  0  0  0  0  0  0  0  0  0
    6.8289   -2.6104   -4.1265 O   0  0  0  0  0  0  0  0  0  0  0  0
    0.1887    0.6196   -0.4665 C   0  0  0  0  0  0  0  0  0  0  0  0
   -0.8594    0.0196    0.2475 C   0  0  0  0  0  0  0  0  0  0  0  0
   -2.3663   -0.3510   -0.6209 S   0  0  0  0  0  6  0  0  0  0  0  0
   -2.6255   -1.7674   -0.4622 O   0  0  0  0  0  0  0  0  0  0  0  0
   -2.2794    0.2288   -1.9478 O   0  0  0  0  0  0  0  0  0  0  0  0
   -3.5588    0.5352    0.2093 N   0  0  0  0  0  0  0  0  0  0  0  0
   -3.3863    2.0019    0.2120 C   0  0  0  0  0  0  0  0  0  0  0  0
   -4.9440    0.1322   -0.1421 C   0  0  0  0  0  0  0  0  0  0  0  0
   -5.8359    0.0846    1.0794 C   0  0  0  0  0  0  0  0  0  0  0  0
   -6.9027    0.9801    1.2385 C   0  0  0  0  0  0  0  0  0  0  0  0
   -7.7179    0.9136    2.3714 C   0  0  0  0  0  0  0  0  0  0  0  0
   -7.4732   -0.0470    3.3536 C   0  0  0  0  0  0  0  0  0  0  0  0
   -6.4115   -0.9419    3.2071 C   0  0  0  0  0  0  0  0  0  0  0  0
   -5.5969   -0.8753    2.0764 C   0  0  0  0  0  0  0  0  0  0  0  0
   -1.5809   -0.0953    4.1606 H   0  0  0  0  0  0  0  0  0  0  0  0
   -2.6861   -1.4623    3.9712 H   0  0  0  0  0  0  0  0  0  0  0  0
   -0.9457   -1.7715    3.9155 H   0  0  0  0  0  0  0  0  0  0  0  0
    0.6451   -0.1960    3.2986 H   0  0  0  0  0  0  0  0  0  0  0  0
    2.4513    0.8644    2.0698 H   0  0  0  0  0  0  0  0  0  0  0  0
    3.9164    0.4468    0.3936 H   0  0  0  0  0  0  0  0  0  0  0  0
    5.6874    1.9710   -0.2935 H   0  0  0  0  0  0  0  0  0  0  0  0
    4.6652    2.5343   -1.6180 H   0  0  0  0  0  0  0  0  0  0  0  0
    3.8438    0.7705   -3.3568 H   0  0  0  0  0  0  0  0  0  0  0  0
    4.6309   -1.1146   -4.7856 H   0  0  0  0  0  0  0  0  0  0  0  0
    7.0918    0.0090   -0.5813 H   0  0  0  0  0  0  0  0  0  0  0  0
    8.8694   -2.8069   -3.8273 H   0  0  0  0  0  0  0  0  0  0  0  0
    7.8497   -3.9547   -2.9250 H   0  0  0  0  0  0  0  0  0  0  0  0
    0.0757    0.8567   -1.5235 H   0  0  0  0  0  0  0  0  0  0  0  0
   -2.3974    2.2817    0.5843 H   0  0  0  0  0  0  0  0  0  0  0  0
   -4.1154    2.4629    0.8856 H   0  0  0  0  0  0  0  0  0  0  0  0
   -3.5278    2.4197   -0.7890 H   0  0  0  0  0  0  0  0  0  0  0  0
   -4.9744   -0.8636   -0.5999 H   0  0  0  0  0  0  0  0  0  0  0  0
   -5.3557    0.8168   -0.8949 H   0  0  0  0  0  0  0  0  0  0  0  0
   -7.1094    1.7347    0.4814 H   0  0  0  0  0  0  0  0  0  0  0  0
   -8.5472    1.6088    2.4865 H   0  0  0  0  0  0  0  0  0  0  0  0
   -8.1107   -0.1011    4.2327 H   0  0  0  0  0  0  0  0  0  0  0  0
   -6.2215   -1.6963    3.9666 H   0  0  0  0  0  0  0  0  0  0  0  0
   -4.7687   -1.5753    1.9663 H   0  0  0  0  0  0  0  0  0  0  0  0
  1  2  1  0
  2  3  1  0
  3  4  2  0
  4  5  1  0
  5  6  2  0
  6  7  1  0
  7  8  2  0
  7  9  1  0
  9 10  1  0
 10 11  1  0
 11 12  2  0
 12 13  1  0
 13 14  2  0
 14 15  1  0
 15 16  2  0
 15 17  1  0
 17 18  1  0
 18 19  1  0
  6 20  1  0
 20 21  2  0
 21 22  1  0
 22 23  2  0
 22 24  2  0
 22 25  1  0
 25 26  1  0
 25 27  1  0
 27 28  1  0
 28 29  2  0
 29 30  1  0
 30 31  2  0
 31 32  1  0
 32 33  2  0
 21  3  1  0
 33 28  1  0
 16 11  1  0
 19 14  1  0
  1 34  1  0
  1 35  1  0
  1 36  1  0
  4 37  1  0
  5 38  1  0
  9 39  1  0
 10 40  1  0
 10 41  1  0
 12 42  1  0
 13 43  1  0
 16 44  1  0
 18 45  1  0
 18 46  1  0
 20 47  1  0
 26 48  1  0
 26 49  1  0
 26 50  1  0
 27 51  1  0
 27 52  1  0
 29 53  1  0
 30 54  1  0
 31 55  1  0
 32 56  1  0
 33 57  1  0
M  END
$$$$
