
     RDKit          3D

 32 34  0  0  0  0  0  0  0  0999 V2000
   -2.6018   -2.4638   -0.1239 O   0  0  0  0  0  0  0  0  0  0  0  0
   -3.4135   -1.7538    0.4435 C   0  0  0  0  0  0  0  0  0  0  0  0
   -4.4110   -2.2520    1.2363 N   0  0  0  0  0  0  0  0  0  0  0  0
   -5.2304   -1.3783    1.8766 C   0  0  0  0  0  0  0  0  0  0  0  0
   -6.4563   -1.8385    2.8879 S   0  0  0  0  0  0  0  0  0  0  0  0
   -4.7800    0.2554    1.4631 S   0  0  0  0  0  0  0  0  0  0  0  0
   -3.4796   -0.2623    0.4192 C   0  0  0  0  0  0  0  0  0  0  0  0
   -2.7147    0.6325   -0.2202 C   0  0  0  0  0  0  0  0  0  0  0  0
   -1.6345    0.3584   -1.1003 C   0  0  0  0  0  0  0  0  0  0  0  0
   -1.4427   -0.6180   -2.0686 C   0  0  0  0  0  0  0  0  0  0  0  0
   -0.1855   -0.3902   -2.6783 C   0  0  0  0  0  0  0  0  0  0  0  0
    0.3448    0.7255   -2.0752 C   0  0  0  0  0  0  0  0  0  0  0  0
    1.8645    1.5047   -2.4159 S   0  0  0  0  0  0  0  0  0  0  0  0
    2.2461    2.2651   -0.8118 C   0  0  0  0  0  0  0  0  0  0  0  0
    2.7964    1.2786    0.1888 C   0  0  0  0  0  0  0  0  0  0  0  0
    1.9663    0.7155    1.1689 C   0  0  0  0  0  0  0  0  0  0  0  0
    2.4752   -0.2046    2.0868 C   0  0  0  0  0  0  0  0  0  0  0  0
    3.8180   -0.5730    2.0349 C   0  0  0  0  0  0  0  0  0  0  0  0
    4.6528   -0.0244    1.0635 C   0  0  0  0  0  0  0  0  0  0  0  0
    4.1454    0.8949    0.1438 C   0  0  0  0  0  0  0  0  0  0  0  0
   -0.5356    1.1895   -1.1459 O   0  0  0  0  0  0  0  0  0  0  0  0
   -4.4956   -3.2490    1.3661 H   0  0  0  0  0  0  0  0  0  0  0  0
   -2.8909    1.6921   -0.0452 H   0  0  0  0  0  0  0  0  0  0  0  0
   -2.1332   -1.4120   -2.3177 H   0  0  0  0  0  0  0  0  0  0  0  0
    0.2766   -0.9701   -3.4647 H   0  0  0  0  0  0  0  0  0  0  0  0
    1.3686    2.7838   -0.4093 H   0  0  0  0  0  0  0  0  0  0  0  0
    2.9960    3.0465   -0.9833 H   0  0  0  0  0  0  0  0  0  0  0  0
    0.9137    0.9857    1.2182 H   0  0  0  0  0  0  0  0  0  0  0  0
    1.8217   -0.6379    2.8393 H   0  0  0  0  0  0  0  0  0  0  0  0
    4.2126   -1.2917    2.7481 H   0  0  0  0  0  0  0  0  0  0  0  0
    5.6988   -0.3161    1.0184 H   0  0  0  0  0  0  0  0  0  0  0  0
    4.8080    1.3076   -0.6140 H   0  0  0  0  0  0  0  0  0  0  0  0
  1  2  2  0
  2  3  1  0
  3  4  1  0
  4  5  2  0
  4  6  1  0
  6  7  1  0
  7  8  2  3
  8  9  1  0
  9 10  2  0
 10 11  1  0
 11 12  2  0
 12 13  1  0
 13 14  1  0
 14 15  1  0
 15 16  2  0
 16 17  1  0
 17 18  2  0
 18 19  1  0
 19 20  2  0
 12 21  1  0
  7  2  1  0
 21  9  1  0
 20 15  1  0
  3 22  1  0
  8 23  1  0
 10 24  1  0
 11 25  1  0
 14 26  1  0
 14 27  1  0
 16 28  1  0
 17 29  1  0
 18 30  1  0
 19 31  1  0
 20 32  1  0
M  END
$$$$
