
     RDKit          3D

 59 62  0  0  0  0  0  0  0  0999 V2000
    5.6810    0.9516    5.5942 C   0  0  0  0  0  0  0  0  0  0  0  0
    5.0013    0.8460    4.2615 C   0  0  0  0  0  0  0  0  0  0  0  0
    4.5028    1.9832    3.6205 C   0  0  0  0  0  0  0  0  0  0  0  0
    3.8903    1.8763    2.3686 C   0  0  0  0  0  0  0  0  0  0  0  0
    3.7894    0.6323    1.7199 C   0  0  0  0  0  0  0  0  0  0  0  0
    3.1536    0.5727    0.4401 N   0  0  0  0  0  0  0  0  0  0  0  0
    2.3620    1.6141    0.0631 N   0  0  0  0  0  0  0  0  0  0  0  0
    1.7526    1.2022   -1.0506 C   0  0  0  0  0  0  0  0  0  0  0  0
    0.7416    1.9352   -1.8002 C   0  0  0  0  0  0  0  0  0  0  0  0
    0.2798    3.0189   -1.4435 O   0  0  0  0  0  0  0  0  0  0  0  0
    0.3348    1.2567   -2.9694 N   0  0  0  0  0  0  0  0  0  0  0  0
   -0.6811    1.8568   -3.8283 C   0  0  0  0  0  0  0  0  0  0  0  0
   -2.0753    1.2688   -3.6076 C   0  0  0  0  0  0  0  0  0  0  0  0
   -2.6144    1.5237   -2.2010 C   0  0  0  0  0  0  0  0  0  0  0  0
   -4.0510    1.0637   -2.0456 C   0  0  0  0  0  0  0  0  0  0  0  0
   -4.7259    0.6181   -2.9687 O   0  0  0  0  0  0  0  0  0  0  0  0
   -4.5218    1.2195   -0.7574 N   0  0  0  0  0  0  0  0  0  0  0  0
   -5.8196    0.7163   -0.3679 C   0  0  0  0  0  0  0  0  0  0  0  0
   -5.6681   -0.6854    0.0991 C   0  0  0  0  0  0  0  0  0  0  0  0
   -5.8064   -1.9076   -0.5273 C   0  0  0  0  0  0  0  0  0  0  0  0
   -5.5217   -2.8924    0.4488 C   0  0  0  0  0  0  0  0  0  0  0  0
   -5.2209   -2.2126    1.6105 C   0  0  0  0  0  0  0  0  0  0  0  0
   -4.8422   -2.6425    2.9713 C   0  0  0  0  0  0  0  0  0  0  0  0
   -5.3068   -0.8672    1.4042 O   0  0  0  0  0  0  0  0  0  0  0  0
    0.7920   -0.0048   -3.3680 N   0  0  0  0  0  0  0  0  0  0  0  0
    1.6823   -0.6513   -2.6689 C   0  0  0  0  0  0  0  0  0  0  0  0
    2.1223   -2.0050   -3.1523 C   0  0  0  0  0  0  0  0  0  0  0  0
    2.2131   -0.0509   -1.4686 C   0  0  0  0  0  0  0  0  0  0  0  0
    3.1871   -0.4156   -0.5534 C   0  0  0  0  0  0  0  0  0  0  0  0
    4.1443   -1.5514   -0.5840 C   0  0  0  0  0  0  0  0  0  0  0  0
    4.2709   -0.5072    2.3724 C   0  0  0  0  0  0  0  0  0  0  0  0
    4.8796   -0.3965    3.6296 C   0  0  0  0  0  0  0  0  0  0  0  0
    5.4899    1.9230    6.0637 H   0  0  0  0  0  0  0  0  0  0  0  0
    6.7622    0.8327    5.4721 H   0  0  0  0  0  0  0  0  0  0  0  0
    5.3089    0.1788    6.2742 H   0  0  0  0  0  0  0  0  0  0  0  0
    4.5885    2.9646    4.0848 H   0  0  0  0  0  0  0  0  0  0  0  0
    3.5112    2.7836    1.9002 H   0  0  0  0  0  0  0  0  0  0  0  0
   -0.7054    2.9414   -3.6733 H   0  0  0  0  0  0  0  0  0  0  0  0
   -0.3742    1.6906   -4.8682 H   0  0  0  0  0  0  0  0  0  0  0  0
   -2.0633    0.1893   -3.8035 H   0  0  0  0  0  0  0  0  0  0  0  0
   -2.7555    1.7110   -4.3462 H   0  0  0  0  0  0  0  0  0  0  0  0
   -2.5773    2.5949   -1.9723 H   0  0  0  0  0  0  0  0  0  0  0  0
   -2.0065    0.9892   -1.4622 H   0  0  0  0  0  0  0  0  0  0  0  0
   -3.8527    1.3708   -0.0103 H   0  0  0  0  0  0  0  0  0  0  0  0
   -6.5175    0.7754   -1.2108 H   0  0  0  0  0  0  0  0  0  0  0  0
   -6.1934    1.3561    0.4394 H   0  0  0  0  0  0  0  0  0  0  0  0
   -6.0732   -2.0580   -1.5657 H   0  0  0  0  0  0  0  0  0  0  0  0
   -5.5309   -3.9663    0.3194 H   0  0  0  0  0  0  0  0  0  0  0  0
   -3.9467   -2.1100    3.3079 H   0  0  0  0  0  0  0  0  0  0  0  0
   -5.6533   -2.4377    3.6774 H   0  0  0  0  0  0  0  0  0  0  0  0
   -4.6290   -3.7166    2.9982 H   0  0  0  0  0  0  0  0  0  0  0  0
    2.1365   -2.7194   -2.3243 H   0  0  0  0  0  0  0  0  0  0  0  0
    3.1200   -1.9287   -3.5924 H   0  0  0  0  0  0  0  0  0  0  0  0
    1.4335   -2.3741   -3.9168 H   0  0  0  0  0  0  0  0  0  0  0  0
    3.7193   -2.4281   -0.0851 H   0  0  0  0  0  0  0  0  0  0  0  0
    5.1025   -1.2928   -0.1225 H   0  0  0  0  0  0  0  0  0  0  0  0
    4.3841   -1.8345   -1.6142 H   0  0  0  0  0  0  0  0  0  0  0  0
    4.1533   -1.5052    1.9657 H   0  0  0  0  0  0  0  0  0  0  0  0
    5.2433   -1.2958    4.1254 H   0  0  0  0  0  0  0  0  0  0  0  0
  1  2  1  0
  2  3  2  0
  3  4  1  0
  4  5  2  0
  5  6  1  0
  6  7  1  0
  7  8  2  0
  8  9  1  0
  9 10  2  0
  9 11  1  0
 11 12  1  0
 12 13  1  0
 13 14  1  0
 14 15  1  0
 15 16  2  0
 15 17  1  0
 17 18  1  0
 18 19  1  0
 19 20  2  0
 20 21  1  0
 21 22  2  0
 22 23  1  0
 22 24  1  0
 11 25  1  0
 25 26  2  0
 26 27  1  0
 26 28  1  0
 28 29  2  0
 29 30  1  0
  5 31  1  0
 31 32  2  0
 32  2  1  0
 29  6  1  0
 28  8  1  0
 24 19  1  0
  1 33  1  0
  1 34  1  0
  1 35  1  0
  3 36  1  0
  4 37  1  0
 12 38  1  0
 12 39  1  0
 13 40  1  0
 13 41  1  0
 14 42  1  0
 14 43  1  0
 17 44  1  0
 18 45  1  0
 18 46  1  0
 20 47  1  0
 21 48  1  0
 23 49  1  0
 23 50  1  0
 23 51  1  0
 27 52  1  0
 27 53  1  0
 27 54  1  0
 30 55  1  0
 30 56  1  0
 30 57  1  0
 31 58  1  0
 32 59  1  0
M  END
$$$$
