
     RDKit          3D

 45 49  0  0  0  0  0  0  0  0999 V2000
    7.4155    0.8064    2.0062 Cl  0  0  0  0  0  0  0  0  0  0  0  0
    6.3654    0.6805    0.6470 C   0  0  0  0  0  0  0  0  0  0  0  0
    6.8802    0.8285   -0.6344 C   0  0  0  0  0  0  0  0  0  0  0  0
    6.0241    0.7166   -1.7230 C   0  0  0  0  0  0  0  0  0  0  0  0
    4.6618    0.4597   -1.5202 C   0  0  0  0  0  0  0  0  0  0  0  0
    4.1117    0.3125   -0.2351 C   0  0  0  0  0  0  0  0  0  0  0  0
    2.7651    0.0526   -0.0351 N   0  0  0  0  0  0  0  0  0  0  0  0
    1.8837   -0.3958   -1.1255 C   0  0  0  0  0  0  0  0  0  0  0  0
    0.6375   -1.1281   -0.5796 C   0  0  0  0  0  0  0  0  0  0  0  0
   -0.1335   -0.3172    0.3778 N   0  0  0  0  0  0  0  0  0  0  0  0
   -1.5229   -0.2561    0.3204 C   0  0  0  0  0  0  0  0  0  0  0  0
   -2.0955    0.9056    0.5237 N   0  0  0  0  0  0  0  0  0  0  0  0
   -3.4933    1.0480    0.4401 C   0  0  0  0  0  0  0  0  0  0  0  0
   -4.0445    2.3137    0.6497 C   0  0  0  0  0  0  0  0  0  0  0  0
   -5.4250    2.5139    0.5664 C   0  0  0  0  0  0  0  0  0  0  0  0
   -6.2705    1.4443    0.2705 C   0  0  0  0  0  0  0  0  0  0  0  0
   -5.7414    0.1708    0.0577 C   0  0  0  0  0  0  0  0  0  0  0  0
   -4.3580   -0.0135    0.1439 C   0  0  0  0  0  0  0  0  0  0  0  0
   -3.7428   -1.2621   -0.0409 N   0  0  0  0  0  0  0  0  0  0  0  0
   -4.3140   -2.4830   -0.3116 C   0  0  0  0  0  0  0  0  0  0  0  0
   -3.3156   -3.4313   -0.3275 C   0  0  0  0  0  0  0  0  0  0  0  0
   -2.0973   -2.7593   -0.0742 C   0  0  0  0  0  0  0  0  0  0  0  0
   -2.3751   -1.4093    0.0592 C   0  0  0  0  0  0  0  0  0  0  0  0
    0.6078    0.8048    0.9840 C   0  0  0  0  0  0  0  0  0  0  0  0
    2.0934    0.4613    1.2153 C   0  0  0  0  0  0  0  0  0  0  0  0
    5.0044    0.4257    0.8439 C   0  0  0  0  0  0  0  0  0  0  0  0
    7.9365    1.0272   -0.7896 H   0  0  0  0  0  0  0  0  0  0  0  0
    6.4086    0.8319   -2.7331 H   0  0  0  0  0  0  0  0  0  0  0  0
    4.0306    0.4004   -2.4028 H   0  0  0  0  0  0  0  0  0  0  0  0
    1.5740    0.4708   -1.7226 H   0  0  0  0  0  0  0  0  0  0  0  0
    2.4090   -1.0963   -1.7856 H   0  0  0  0  0  0  0  0  0  0  0  0
    0.0185   -1.4118   -1.4383 H   0  0  0  0  0  0  0  0  0  0  0  0
    0.9559   -2.0467   -0.0731 H   0  0  0  0  0  0  0  0  0  0  0  0
   -3.3880    3.1491    0.8782 H   0  0  0  0  0  0  0  0  0  0  0  0
   -5.8379    3.5056    0.7324 H   0  0  0  0  0  0  0  0  0  0  0  0
   -7.3442    1.6043    0.2074 H   0  0  0  0  0  0  0  0  0  0  0  0
   -6.4191   -0.6456   -0.1676 H   0  0  0  0  0  0  0  0  0  0  0  0
   -5.3791   -2.5958   -0.4517 H   0  0  0  0  0  0  0  0  0  0  0  0
   -3.4532   -4.4926   -0.4903 H   0  0  0  0  0  0  0  0  0  0  0  0
   -1.1233   -3.2211    0.0055 H   0  0  0  0  0  0  0  0  0  0  0  0
    0.5337    1.6840    0.3314 H   0  0  0  0  0  0  0  0  0  0  0  0
    0.1607    1.0646    1.9511 H   0  0  0  0  0  0  0  0  0  0  0  0
    2.5707    1.3496    1.6466 H   0  0  0  0  0  0  0  0  0  0  0  0
    2.1743   -0.3569    1.9412 H   0  0  0  0  0  0  0  0  0  0  0  0
    4.6511    0.2901    1.8620 H   0  0  0  0  0  0  0  0  0  0  0  0
  1  2  1  0
  2  3  2  0
  3  4  1  0
  4  5  2  0
  5  6  1  0
  6  7  1  0
  7  8  1  0
  8  9  1  0
  9 10  1  0
 10 11  1  0
 11 12  2  0
 12 13  1  0
 13 14  2  0
 14 15  1  0
 15 16  2  0
 16 17  1  0
 17 18  2  0
 18 19  1  0
 19 20  1  0
 20 21  2  0
 21 22  1  0
 22 23  2  0
 10 24  1  0
 24 25  1  0
  6 26  2  0
 26  2  1  0
 25  7  1  0
 23 11  1  0
 18 13  1  0
 23 19  1  0
  3 27  1  0
  4 28  1  0
  5 29  1  0
  8 30  1  0
  8 31  1  0
  9 32  1  0
  9 33  1  0
 14 34  1  0
 15 35  1  0
 16 36  1  0
 17 37  1  0
 20 38  1  0
 21 39  1  0
 22 40  1  0
 24 41  1  0
 24 42  1  0
 25 43  1  0
 25 44  1  0
 26 45  1  0
M  END
$$$$
