
     RDKit          3D

 46 49  0  0  0  0  0  0  0  0999 V2000
    4.0185    0.9176    1.7069 O   0  0  0  0  0  0  0  0  0  0  0  0
    3.3520    1.2865    0.7424 C   0  0  0  0  0  0  0  0  0  0  0  0
    2.7822    2.6987    0.6875 C   0  0  0  0  0  0  0  0  0  0  0  0
    1.1039    2.7423    1.3881 S   0  0  0  0  0  0  0  0  0  0  0  0
    0.2218    1.9311    0.1450 C   0  0  0  0  0  0  0  0  0  0  0  0
    0.6215    1.8024   -1.0975 N   0  0  0  0  0  0  0  0  0  0  0  0
   -0.2845    1.0097   -1.7468 N   0  0  0  0  0  0  0  0  0  0  0  0
   -1.2378    0.6819   -0.8930 C   0  0  0  0  0  0  0  0  0  0  0  0
   -2.4134   -0.1884   -1.2046 C   0  0  0  0  0  0  0  0  0  0  0  0
   -2.3018   -1.5755   -0.6296 C   0  0  0  0  0  0  0  0  0  0  0  0
   -3.1583   -2.2060    0.2541 C   0  0  0  0  0  0  0  0  0  0  0  0
   -2.7234   -3.5206    0.5881 C   0  0  0  0  0  0  0  0  0  0  0  0
   -1.5598   -3.8593   -0.0638 C   0  0  0  0  0  0  0  0  0  0  0  0
   -1.0085   -2.6078   -1.0855 S   0  0  0  0  0  0  0  0  0  0  0  0
   -0.9624    1.2688    0.3262 N   0  0  0  0  0  0  0  0  0  0  0  0
   -1.7301    1.1522    1.5497 C   0  0  0  0  0  0  0  0  0  0  0  0
   -2.7609    2.2151    1.6149 C   0  0  0  0  0  0  0  0  0  0  0  0
   -2.7494    3.5238    2.0531 C   0  0  0  0  0  0  0  0  0  0  0  0
   -4.0540    4.0290    1.8347 C   0  0  0  0  0  0  0  0  0  0  0  0
   -4.7809    2.9975    1.2867 C   0  0  0  0  0  0  0  0  0  0  0  0
   -4.0059    1.8888    1.1558 O   0  0  0  0  0  0  0  0  0  0  0  0
    3.0219    0.5196   -0.3633 N   0  0  0  0  0  0  0  0  0  0  0  0
    3.3981   -0.8114   -0.6281 C   0  0  0  0  0  0  0  0  0  0  0  0
    4.3715   -1.5071    0.0953 C   0  0  0  0  0  0  0  0  0  0  0  0
    4.6836   -2.8319   -0.2292 C   0  0  0  0  0  0  0  0  0  0  0  0
    4.0218   -3.4631   -1.2797 C   0  0  0  0  0  0  0  0  0  0  0  0
    4.4251   -5.2602   -1.6988 Br  0  0  0  0  0  0  0  0  0  0  0  0
    3.0562   -2.7783   -2.0162 C   0  0  0  0  0  0  0  0  0  0  0  0
    2.7518   -1.4536   -1.6933 C   0  0  0  0  0  0  0  0  0  0  0  0
    2.8013    3.0881   -0.3352 H   0  0  0  0  0  0  0  0  0  0  0  0
    3.4294    3.3477    1.2872 H   0  0  0  0  0  0  0  0  0  0  0  0
   -3.3328    0.2909   -0.8494 H   0  0  0  0  0  0  0  0  0  0  0  0
   -2.5194   -0.2657   -2.2952 H   0  0  0  0  0  0  0  0  0  0  0  0
   -4.0541   -1.7446    0.6507 H   0  0  0  0  0  0  0  0  0  0  0  0
   -3.2382   -4.1863    1.2707 H   0  0  0  0  0  0  0  0  0  0  0  0
   -1.0049   -4.7861    0.0020 H   0  0  0  0  0  0  0  0  0  0  0  0
   -1.0526    1.2097    2.4072 H   0  0  0  0  0  0  0  0  0  0  0  0
   -2.1840    0.1593    1.5866 H   0  0  0  0  0  0  0  0  0  0  0  0
   -1.9037    4.0541    2.4661 H   0  0  0  0  0  0  0  0  0  0  0  0
   -4.4193    5.0251    2.0461 H   0  0  0  0  0  0  0  0  0  0  0  0
   -5.8035    2.8998    0.9480 H   0  0  0  0  0  0  0  0  0  0  0  0
    2.3088    0.9051   -0.9865 H   0  0  0  0  0  0  0  0  0  0  0  0
    4.9126   -1.0433    0.9144 H   0  0  0  0  0  0  0  0  0  0  0  0
    5.4438   -3.3559    0.3465 H   0  0  0  0  0  0  0  0  0  0  0  0
    2.5313   -3.2622   -2.8354 H   0  0  0  0  0  0  0  0  0  0  0  0
    1.9863   -0.9373   -2.2712 H   0  0  0  0  0  0  0  0  0  0  0  0
  1  2  2  0
  2  3  1  0
  3  4  1  0
  4  5  1  0
  5  6  2  0
  6  7  1  0
  7  8  2  0
  8  9  1  0
  9 10  1  0
 10 11  2  0
 11 12  1  0
 12 13  2  0
 13 14  1  0
  8 15  1  0
 15 16  1  0
 16 17  1  0
 17 18  2  0
 18 19  1  0
 19 20  2  0
 20 21  1  0
  2 22  1  0
 22 23  1  0
 23 24  2  0
 24 25  1  0
 25 26  2  0
 26 27  1  0
 26 28  1  0
 28 29  2  0
 15  5  1  0
 21 17  1  0
 29 23  1  0
 14 10  1  0
  3 30  1  0
  3 31  1  0
  9 32  1  0
  9 33  1  0
 11 34  1  0
 12 35  1  0
 13 36  1  0
 16 37  1  0
 16 38  1  0
 18 39  1  0
 19 40  1  0
 20 41  1  0
 22 42  1  0
 24 43  1  0
 25 44  1  0
 28 45  1  0
 29 46  1  0
M  END
$$$$
