
     RDKit          3D

 62 65  0  0  0  0  0  0  0  0999 V2000
   -2.3016   -2.4741    1.2071 C   0  0  0  0  0  0  0  0  0  0  0  0
   -2.2784   -1.7818   -0.1494 C   0  0  0  0  0  0  0  0  0  0  0  0
   -2.8354   -0.4305   -0.0819 N   0  0  0  0  0  0  0  0  0  0  0  0
   -2.2951    0.6786    0.5987 C   0  0  0  0  0  0  0  0  0  0  0  0
   -1.0179    1.0590    0.8067 C   0  0  0  0  0  0  0  0  0  0  0  0
    0.1916    0.4810    0.2660 C   0  0  0  0  0  0  0  0  0  0  0  0
    1.4081    0.8713    0.6726 C   0  0  0  0  0  0  0  0  0  0  0  0
    2.6371    0.3393    0.0497 C   0  0  0  0  0  0  0  0  0  0  0  0
    3.0173   -0.9041   -0.0032 N   0  0  0  0  0  4  0  0  0  0  0  0
    2.3908   -2.1137    0.5676 C   0  0  0  0  0  0  0  0  0  0  0  0
    1.7271   -2.9345   -0.5236 C   0  0  0  0  0  0  0  0  0  0  0  0
    4.3285   -0.9854   -0.6753 C   0  0  0  0  0  0  0  0  0  0  0  0
    5.1138   -2.0979   -0.9211 C   0  0  0  0  0  0  0  0  0  0  0  0
    6.3278   -1.8985   -1.5842 C   0  0  0  0  0  0  0  0  0  0  0  0
    6.7267   -0.6105   -1.9782 C   0  0  0  0  0  0  0  0  0  0  0  0
    5.9226    0.5004   -1.7140 C   0  0  0  0  0  0  0  0  0  0  0  0
    4.7210    0.2940   -1.0558 C   0  0  0  0  0  0  0  0  0  0  0  0
    3.6696    1.2785   -0.6250 C   0  0  0  0  0  0  0  0  0  0  0  0
    4.2362    2.2871    0.3779 C   0  0  0  0  0  0  0  0  0  0  0  0
    3.0426    1.9866   -1.8290 C   0  0  0  0  0  0  0  0  0  0  0  0
   -3.4761    1.5695    1.1234 C   0  0  0  0  0  0  0  0  0  0  0  0
   -3.4338    2.9899    0.5390 C   0  0  0  0  0  0  0  0  0  0  0  0
   -3.5131    1.6058    2.6585 C   0  0  0  0  0  0  0  0  0  0  0  0
   -4.6792    0.8199    0.5891 C   0  0  0  0  0  0  0  0  0  0  0  0
   -6.0278    1.1329    0.7165 C   0  0  0  0  0  0  0  0  0  0  0  0
   -6.9646    0.2706    0.1509 C   0  0  0  0  0  0  0  0  0  0  0  0
   -6.5464   -0.8803   -0.5283 C   0  0  0  0  0  0  0  0  0  0  0  0
   -5.1854   -1.1859   -0.6487 C   0  0  0  0  0  0  0  0  0  0  0  0
   -4.2471   -0.3342   -0.0828 C   0  0  0  0  0  0  0  0  0  0  0  0
   -3.3226   -2.5736    1.5895 H   0  0  0  0  0  0  0  0  0  0  0  0
   -1.7176   -1.9184    1.9479 H   0  0  0  0  0  0  0  0  0  0  0  0
   -1.8722   -3.4776    1.1244 H   0  0  0  0  0  0  0  0  0  0  0  0
   -1.2505   -1.7552   -0.5119 H   0  0  0  0  0  0  0  0  0  0  0  0
   -2.8005   -2.3997   -0.8879 H   0  0  0  0  0  0  0  0  0  0  0  0
   -0.8636    1.9569    1.4064 H   0  0  0  0  0  0  0  0  0  0  0  0
    0.0752   -0.2239   -0.5478 H   0  0  0  0  0  0  0  0  0  0  0  0
    1.5354    1.6495    1.4210 H   0  0  0  0  0  0  0  0  0  0  0  0
    3.1579   -2.6902    1.0954 H   0  0  0  0  0  0  0  0  0  0  0  0
    1.6508   -1.8046    1.3125 H   0  0  0  0  0  0  0  0  0  0  0  0
    2.4565   -3.3404   -1.2316 H   0  0  0  0  0  0  0  0  0  0  0  0
    1.1908   -3.7803   -0.0813 H   0  0  0  0  0  0  0  0  0  0  0  0
    1.0093   -2.3432   -1.0997 H   0  0  0  0  0  0  0  0  0  0  0  0
    4.8311   -3.1022   -0.6255 H   0  0  0  0  0  0  0  0  0  0  0  0
    6.9773   -2.7464   -1.8009 H   0  0  0  0  0  0  0  0  0  0  0  0
    7.6778   -0.4781   -2.4944 H   0  0  0  0  0  0  0  0  0  0  0  0
    6.2453    1.4927   -2.0200 H   0  0  0  0  0  0  0  0  0  0  0  0
    5.0538    2.8717   -0.0590 H   0  0  0  0  0  0  0  0  0  0  0  0
    4.6275    1.7874    1.2721 H   0  0  0  0  0  0  0  0  0  0  0  0
    3.4681    2.9938    0.7109 H   0  0  0  0  0  0  0  0  0  0  0  0
    2.2468    2.6721   -1.5167 H   0  0  0  0  0  0  0  0  0  0  0  0
    2.5963    1.2696   -2.5289 H   0  0  0  0  0  0  0  0  0  0  0  0
    3.7862    2.5705   -2.3831 H   0  0  0  0  0  0  0  0  0  0  0  0
   -3.3934    2.9729   -0.5569 H   0  0  0  0  0  0  0  0  0  0  0  0
   -2.5608    3.5476    0.8952 H   0  0  0  0  0  0  0  0  0  0  0  0
   -4.3224    3.5658    0.8232 H   0  0  0  0  0  0  0  0  0  0  0  0
   -2.6356    2.1171    3.0697 H   0  0  0  0  0  0  0  0  0  0  0  0
   -4.4000    2.1365    3.0242 H   0  0  0  0  0  0  0  0  0  0  0  0
   -3.5390    0.5955    3.0853 H   0  0  0  0  0  0  0  0  0  0  0  0
   -6.3529    2.0239    1.2439 H   0  0  0  0  0  0  0  0  0  0  0  0
   -8.0261    0.4924    0.2340 H   0  0  0  0  0  0  0  0  0  0  0  0
   -7.2887   -1.5405   -0.9715 H   0  0  0  0  0  0  0  0  0  0  0  0
   -4.8992   -2.0744   -1.1982 H   0  0  0  0  0  0  0  0  0  0  0  0
  1  2  1  0
  2  3  1  0
  3  4  1  0
  4  5  2  3
  5  6  1  0
  6  7  2  3
  7  8  1  0
  8  9  2  0
  9 10  1  0
 10 11  1  0
  9 12  1  0
 12 13  2  0
 13 14  1  0
 14 15  2  0
 15 16  1  0
 16 17  2  0
 17 18  1  0
 18 19  1  0
 18 20  1  0
  4 21  1  0
 21 22  1  0
 21 23  1  0
 21 24  1  0
 24 25  2  0
 25 26  1  0
 26 27  2  0
 27 28  1  0
 28 29  2  0
 29  3  1  0
 18  8  1  0
 29 24  1  0
 17 12  1  0
  1 30  1  0
  1 31  1  0
  1 32  1  0
  2 33  1  0
  2 34  1  0
  5 35  1  0
  6 36  1  0
  7 37  1  0
 10 38  1  0
 10 39  1  0
 11 40  1  0
 11 41  1  0
 11 42  1  0
 13 43  1  0
 14 44  1  0
 15 45  1  0
 16 46  1  0
 19 47  1  0
 19 48  1  0
 19 49  1  0
 20 50  1  0
 20 51  1  0
 20 52  1  0
 22 53  1  0
 22 54  1  0
 22 55  1  0
 23 56  1  0
 23 57  1  0
 23 58  1  0
 25 59  1  0
 26 60  1  0
 27 61  1  0
 28 62  1  0
M  CHG  1   9   1
M  END
$$$$
