
     RDKit          3D

 39 40  0  0  0  0  0  0  0  0999 V2000
   -3.1103    4.0063   -1.8060 C   0  0  0  0  0  0  0  0  0  0  0  0
   -2.7337    2.7382   -1.0887 C   0  0  0  0  0  0  0  0  0  0  0  0
   -3.4582    2.2449   -0.2317 O   0  0  0  0  0  0  0  0  0  0  0  0
   -1.5022    2.2608   -1.4437 N   0  0  0  0  0  0  0  0  0  0  0  0
   -1.3269    0.9808   -1.5980 C   0  0  0  0  0  0  0  0  0  0  0  0
   -2.3406   -0.1404   -1.5336 C   0  0  0  0  0  0  0  0  0  0  0  0
   -2.0268   -1.1381   -0.4450 C   0  0  0  0  0  0  0  0  0  0  0  0
   -1.4249   -2.3668   -0.7529 C   0  0  0  0  0  0  0  0  0  0  0  0
   -1.1103   -3.2732    0.2608 C   0  0  0  0  0  0  0  0  0  0  0  0
   -1.3932   -2.9615    1.5892 C   0  0  0  0  0  0  0  0  0  0  0  0
   -1.9895   -1.7427    1.9056 C   0  0  0  0  0  0  0  0  0  0  0  0
   -2.3040   -0.8338    0.8943 C   0  0  0  0  0  0  0  0  0  0  0  0
    0.0774    0.5209   -1.9351 C   0  0  0  0  0  0  0  0  0  0  0  0
    0.3748    0.1226   -3.0461 O   0  0  0  0  0  0  0  0  0  0  0  0
    0.8438    0.5909   -0.8342 O   0  0  0  0  0  0  0  0  0  0  0  0
    2.1650    0.0819   -1.0225 C   0  0  0  0  0  0  0  0  0  0  0  0
    2.8509   -0.0078    0.3179 C   0  0  0  0  0  0  0  0  0  0  0  0
    4.1420    0.5086    0.4953 C   0  0  0  0  0  0  0  0  0  0  0  0
    4.7852    0.3998    1.7302 C   0  0  0  0  0  0  0  0  0  0  0  0
    4.1483   -0.2316    2.7970 C   0  0  0  0  0  0  0  0  0  0  0  0
    2.8685   -0.7564    2.6309 C   0  0  0  0  0  0  0  0  0  0  0  0
    2.2244   -0.6489    1.3976 C   0  0  0  0  0  0  0  0  0  0  0  0
   -3.0038    3.8680   -2.8855 H   0  0  0  0  0  0  0  0  0  0  0  0
   -4.1524    4.2565   -1.5886 H   0  0  0  0  0  0  0  0  0  0  0  0
   -2.4669    4.8231   -1.4689 H   0  0  0  0  0  0  0  0  0  0  0  0
   -2.3314   -0.6435   -2.5096 H   0  0  0  0  0  0  0  0  0  0  0  0
   -3.3641    0.2223   -1.4168 H   0  0  0  0  0  0  0  0  0  0  0  0
   -1.1952   -2.6295   -1.7838 H   0  0  0  0  0  0  0  0  0  0  0  0
   -0.6458   -4.2245    0.0140 H   0  0  0  0  0  0  0  0  0  0  0  0
   -1.1505   -3.6688    2.3779 H   0  0  0  0  0  0  0  0  0  0  0  0
   -2.2116   -1.4972    2.9411 H   0  0  0  0  0  0  0  0  0  0  0  0
   -2.7692    0.1145    1.1603 H   0  0  0  0  0  0  0  0  0  0  0  0
    2.1369   -0.9207   -1.4678 H   0  0  0  0  0  0  0  0  0  0  0  0
    2.7110    0.7592   -1.6897 H   0  0  0  0  0  0  0  0  0  0  0  0
    4.6569    1.0027   -0.3254 H   0  0  0  0  0  0  0  0  0  0  0  0
    5.7840    0.8089    1.8595 H   0  0  0  0  0  0  0  0  0  0  0  0
    4.6491   -0.3135    3.7580 H   0  0  0  0  0  0  0  0  0  0  0  0
    2.3691   -1.2487    3.4611 H   0  0  0  0  0  0  0  0  0  0  0  0
    1.2244   -1.0631    1.2827 H   0  0  0  0  0  0  0  0  0  0  0  0
  1  2  1  0
  2  3  2  0
  2  4  1  0
  4  5  2  3
  5  6  1  0
  6  7  1  0
  7  8  2  0
  8  9  1  0
  9 10  2  0
 10 11  1  0
 11 12  2  0
  5 13  1  0
 13 14  2  0
 13 15  1  0
 15 16  1  0
 16 17  1  0
 17 18  2  0
 18 19  1  0
 19 20  2  0
 20 21  1  0
 21 22  2  0
 12  7  1  0
 22 17  1  0
  1 23  1  0
  1 24  1  0
  1 25  1  0
  6 26  1  0
  6 27  1  0
  8 28  1  0
  9 29  1  0
 10 30  1  0
 11 31  1  0
 12 32  1  0
 16 33  1  0
 16 34  1  0
 18 35  1  0
 19 36  1  0
 20 37  1  0
 21 38  1  0
 22 39  1  0
M  END
$$$$
