
     RDKit          3D

 55 60  0  0  0  0  0  0  0  0999 V2000
   -5.1530   -0.6508    1.1308 O   0  0  0  0  0  0  0  0  0  0  0  0
   -4.4482    0.2236    0.6302 C   0  0  0  0  0  0  0  0  0  0  0  0
   -4.9880    1.5524    0.3792 C   0  0  0  0  0  0  0  0  0  0  0  0
   -4.3613    2.8344    0.3841 C   0  0  0  0  0  0  0  0  0  0  0  0
   -5.3469    3.7565    0.1216 C   0  0  0  0  0  0  0  0  0  0  0  0
   -6.5454    3.1381   -0.0229 O   0  0  0  0  0  0  0  0  0  0  0  0
   -6.3263    1.8105    0.1532 C   0  0  0  0  0  0  0  0  0  0  0  0
   -3.0906    0.0049    0.3351 N   0  0  0  0  0  0  0  0  0  0  0  0
   -2.5371    0.4631   -0.9390 C   0  0  0  0  0  0  0  0  0  0  0  0
   -1.0155    0.5739   -0.8726 C   0  0  0  0  0  0  0  0  0  0  0  0
   -0.3543   -0.7534   -0.4139 C   0  0  0  0  0  0  0  0  0  0  0  0
   -1.0180   -1.2034    0.9100 C   0  0  0  0  0  0  0  0  0  0  0  0
   -2.5399   -1.2614    0.8027 C   0  0  0  0  0  0  0  0  0  0  0  0
   -0.7086   -1.6967   -1.4595 O   0  0  0  0  0  0  0  0  0  0  0  0
    0.0340   -2.8331   -1.5742 C   0  0  0  0  0  0  0  0  0  0  0  0
   -0.4919   -3.8263   -2.4026 C   0  0  0  0  0  0  0  0  0  0  0  0
    0.1888   -5.0343   -2.5641 C   0  0  0  0  0  0  0  0  0  0  0  0
    1.3926   -5.2394   -1.8977 C   0  0  0  0  0  0  0  0  0  0  0  0
    2.0399   -6.4012   -2.0515 F   0  0  0  0  0  0  0  0  0  0  0  0
    1.9335   -4.2572   -1.0790 C   0  0  0  0  0  0  0  0  0  0  0  0
    1.2496   -3.0477   -0.9317 C   0  0  0  0  0  0  0  0  0  0  0  0
    1.7988   -1.9787   -0.0882 C   0  0  0  0  0  0  0  0  0  0  0  0
    2.6891   -2.2379    0.7173 O   0  0  0  0  0  0  0  0  0  0  0  0
    1.1872   -0.5952   -0.2794 C   0  0  0  0  0  0  0  0  0  0  0  0
    1.6560    0.3638    0.8066 C   0  0  0  0  0  0  0  0  0  0  0  0
    2.7781    1.0164    0.0733 C   0  0  0  0  0  0  0  0  0  0  0  0
    3.7697    1.8790    0.7587 C   0  0  0  0  0  0  0  0  0  0  0  0
    4.8313    2.4120    0.0166 C   0  0  0  0  0  0  0  0  0  0  0  0
    5.7793    3.2318    0.6317 C   0  0  0  0  0  0  0  0  0  0  0  0
    5.6713    3.5240    1.9900 C   0  0  0  0  0  0  0  0  0  0  0  0
    4.6163    2.9979    2.7343 C   0  0  0  0  0  0  0  0  0  0  0  0
    3.6651    2.1768    2.1223 C   0  0  0  0  0  0  0  0  0  0  0  0
    2.7915    0.7996   -1.2034 N   0  0  0  0  0  0  0  0  0  0  0  0
    1.7189   -0.0654   -1.5055 O   0  0  0  0  0  0  0  0  0  0  0  0
   -3.3200    3.0572    0.5685 H   0  0  0  0  0  0  0  0  0  0  0  0
   -5.3619    4.8333    0.0237 H   0  0  0  0  0  0  0  0  0  0  0  0
   -7.2019    1.1781    0.0902 H   0  0  0  0  0  0  0  0  0  0  0  0
   -2.9562    1.4236   -1.2430 H   0  0  0  0  0  0  0  0  0  0  0  0
   -2.8485   -0.2541   -1.7090 H   0  0  0  0  0  0  0  0  0  0  0  0
   -0.7630    1.3930   -0.1914 H   0  0  0  0  0  0  0  0  0  0  0  0
   -0.6566    0.8535   -1.8706 H   0  0  0  0  0  0  0  0  0  0  0  0
   -0.7533   -0.5080    1.7158 H   0  0  0  0  0  0  0  0  0  0  0  0
   -0.6633   -2.1957    1.2108 H   0  0  0  0  0  0  0  0  0  0  0  0
   -2.9554   -1.4997    1.7891 H   0  0  0  0  0  0  0  0  0  0  0  0
   -2.8628   -2.0527    0.1152 H   0  0  0  0  0  0  0  0  0  0  0  0
   -1.4353   -3.6637   -2.9187 H   0  0  0  0  0  0  0  0  0  0  0  0
   -0.2117   -5.8159   -3.2029 H   0  0  0  0  0  0  0  0  0  0  0  0
    2.8791   -4.4359   -0.5754 H   0  0  0  0  0  0  0  0  0  0  0  0
    1.9821   -0.1278    1.7260 H   0  0  0  0  0  0  0  0  0  0  0  0
    0.9265    1.1367    1.0593 H   0  0  0  0  0  0  0  0  0  0  0  0
    4.9297    2.1903   -1.0444 H   0  0  0  0  0  0  0  0  0  0  0  0
    6.6022    3.6395    0.0498 H   0  0  0  0  0  0  0  0  0  0  0  0
    6.4113    4.1608    2.4688 H   0  0  0  0  0  0  0  0  0  0  0  0
    4.5363    3.2261    3.7946 H   0  0  0  0  0  0  0  0  0  0  0  0
    2.8566    1.7848    2.7312 H   0  0  0  0  0  0  0  0  0  0  0  0
  1  2  2  0
  2  3  1  0
  3  4  1  0
  4  5  2  0
  5  6  1  0
  6  7  1  0
  2  8  1  0
  8  9  1  0
  9 10  1  0
 10 11  1  0
 11 12  1  0
 12 13  1  0
 11 14  1  0
 14 15  1  0
 15 16  2  0
 16 17  1  0
 17 18  2  0
 18 19  1  0
 18 20  1  0
 20 21  2  0
 21 22  1  0
 22 23  2  0
 22 24  1  0
 24 25  1  0
 25 26  1  0
 26 27  1  0
 27 28  2  0
 28 29  1  0
 29 30  2  0
 30 31  1  0
 31 32  2  0
 26 33  2  0
 33 34  1  0
  7  3  2  0
 13  8  1  0
 21 15  1  0
 34 24  1  0
 24 11  1  0
 32 27  1  0
  4 35  1  0
  5 36  1  0
  7 37  1  0
  9 38  1  0
  9 39  1  0
 10 40  1  0
 10 41  1  0
 12 42  1  0
 12 43  1  0
 13 44  1  0
 13 45  1  0
 16 46  1  0
 17 47  1  0
 20 48  1  0
 25 49  1  0
 25 50  1  0
 28 51  1  0
 29 52  1  0
 30 53  1  0
 31 54  1  0
 32 55  1  0
M  END
$$$$
