
     RDKit          3D

 45 49  0  0  0  0  0  0  0  0999 V2000
    1.1174   -0.1765   -1.8682 O   0  0  0  0  0  0  0  0  0  0  0  0
    1.5743   -0.0922   -0.7377 C   0  0  0  0  0  0  0  0  0  0  0  0
    0.9281    0.3326    0.3889 O   0  0  0  0  0  0  0  0  0  0  0  0
   -0.4535    0.5016    0.1955 C   0  0  0  0  0  0  0  0  0  0  0  0
   -1.3411   -0.5174    0.3109 C   0  0  0  0  0  0  0  0  0  0  0  0
   -0.8646   -1.8747    0.6311 C   0  0  0  0  0  0  0  0  0  0  0  0
   -0.6715   -2.8126   -0.3906 C   0  0  0  0  0  0  0  0  0  0  0  0
   -0.1788   -4.0844   -0.0941 C   0  0  0  0  0  0  0  0  0  0  0  0
    0.1227   -4.4265    1.2235 C   0  0  0  0  0  0  0  0  0  0  0  0
   -0.0689   -3.4991    2.2470 C   0  0  0  0  0  0  0  0  0  0  0  0
   -0.5601   -2.2258    1.9530 C   0  0  0  0  0  0  0  0  0  0  0  0
   -2.8248   -0.2767    0.1087 C   0  0  0  0  0  0  0  0  0  0  0  0
   -3.6456   -1.1869    0.1897 O   0  0  0  0  0  0  0  0  0  0  0  0
   -3.1788    1.0206   -0.1554 N   0  0  0  0  0  0  0  0  0  0  0  0
   -2.2597    2.0504   -0.2357 C   0  0  0  0  0  0  0  0  0  0  0  0
   -2.8761    3.2628   -0.4979 C   0  0  0  0  0  0  0  0  0  0  0  0
   -2.1019    4.4006   -0.6035 C   0  0  0  0  0  0  0  0  0  0  0  0
   -0.7130    4.2734   -0.4381 C   0  0  0  0  0  0  0  0  0  0  0  0
   -0.1150    3.0211   -0.1720 C   0  0  0  0  0  0  0  0  0  0  0  0
   -0.9023    1.8746   -0.0679 C   0  0  0  0  0  0  0  0  0  0  0  0
   -4.3573    3.0727   -0.6204 C   0  0  0  0  0  0  0  0  0  0  0  0
   -4.5214    1.5498   -0.3851 C   0  0  0  0  0  0  0  0  0  0  0  0
    2.9874   -0.4267   -0.4095 C   0  0  0  0  0  0  0  0  0  0  0  0
    3.4413   -0.5654    0.9120 C   0  0  0  0  0  0  0  0  0  0  0  0
    4.7776   -0.8891    1.1620 C   0  0  0  0  0  0  0  0  0  0  0  0
    5.6519   -1.0762    0.0969 C   0  0  0  0  0  0  0  0  0  0  0  0
    6.9313   -1.3863    0.3414 F   0  0  0  0  0  0  0  0  0  0  0  0
    5.2171   -0.9494   -1.2172 C   0  0  0  0  0  0  0  0  0  0  0  0
    3.8825   -0.6267   -1.4725 C   0  0  0  0  0  0  0  0  0  0  0  0
   -0.8993   -2.5546   -1.4232 H   0  0  0  0  0  0  0  0  0  0  0  0
   -0.0343   -4.8080   -0.8921 H   0  0  0  0  0  0  0  0  0  0  0  0
    0.5007   -5.4194    1.4530 H   0  0  0  0  0  0  0  0  0  0  0  0
    0.1585   -3.7698    3.2747 H   0  0  0  0  0  0  0  0  0  0  0  0
   -0.7087   -1.5123    2.7599 H   0  0  0  0  0  0  0  0  0  0  0  0
   -2.5471    5.3688   -0.8097 H   0  0  0  0  0  0  0  0  0  0  0  0
   -0.0823    5.1568   -0.5194 H   0  0  0  0  0  0  0  0  0  0  0  0
    0.9638    2.9661   -0.0544 H   0  0  0  0  0  0  0  0  0  0  0  0
   -4.7128    3.3548   -1.6161 H   0  0  0  0  0  0  0  0  0  0  0  0
   -4.8951    3.6456    0.1411 H   0  0  0  0  0  0  0  0  0  0  0  0
   -5.1460    1.3351    0.4889 H   0  0  0  0  0  0  0  0  0  0  0  0
   -4.9608    1.0462   -1.2532 H   0  0  0  0  0  0  0  0  0  0  0  0
    2.7676   -0.4371    1.7559 H   0  0  0  0  0  0  0  0  0  0  0  0
    5.1404   -1.0013    2.1793 H   0  0  0  0  0  0  0  0  0  0  0  0
    5.9160   -1.1051   -2.0333 H   0  0  0  0  0  0  0  0  0  0  0  0
    3.5422   -0.5333   -2.5026 H   0  0  0  0  0  0  0  0  0  0  0  0
  1  2  2  0
  2  3  1  0
  3  4  1  0
  4  5  2  0
  5  6  1  0
  6  7  2  0
  7  8  1  0
  8  9  2  0
  9 10  1  0
 10 11  2  0
  5 12  1  0
 12 13  2  0
 12 14  1  0
 14 15  1  0
 15 16  2  0
 16 17  1  0
 17 18  2  0
 18 19  1  0
 19 20  2  0
 16 21  1  0
 21 22  1  0
  2 23  1  0
 23 24  2  0
 24 25  1  0
 25 26  2  0
 26 27  1  0
 26 28  1  0
 28 29  2  0
 20  4  1  0
 29 23  1  0
 11  6  1  0
 22 14  1  0
 20 15  1  0
  7 30  1  0
  8 31  1  0
  9 32  1  0
 10 33  1  0
 11 34  1  0
 17 35  1  0
 18 36  1  0
 19 37  1  0
 21 38  1  0
 21 39  1  0
 22 40  1  0
 22 41  1  0
 24 42  1  0
 25 43  1  0
 28 44  1  0
 29 45  1  0
M  END
$$$$
