
     RDKit          3D

 36 37  0  0  0  0  0  0  0  0999 V2000
    0.3898   -2.5183   -1.8816 O   0  0  0  0  0  0  0  0  0  0  0  0
    0.1930   -1.3082   -1.9473 C   0  0  0  0  0  0  0  0  0  0  0  0
   -1.0040   -0.7131   -2.6935 C   0  0  0  0  0  0  0  0  0  0  0  0
   -2.1282   -0.4758   -1.8424 O   0  0  0  0  0  0  0  0  0  0  0  0
   -2.0121    0.6022   -1.0315 C   0  0  0  0  0  0  0  0  0  0  0  0
   -1.0758    1.3821   -0.9931 O   0  0  0  0  0  0  0  0  0  0  0  0
   -3.2004    0.6708   -0.1637 C   0  0  0  0  0  0  0  0  0  0  0  0
   -4.4706    0.6577   -0.7601 C   0  0  0  0  0  0  0  0  0  0  0  0
   -5.6069    0.7504    0.0399 C   0  0  0  0  0  0  0  0  0  0  0  0
   -7.1650    0.7394   -0.6869 Cl  0  0  0  0  0  0  0  0  0  0  0  0
   -5.4903    0.8560    1.4250 C   0  0  0  0  0  0  0  0  0  0  0  0
   -4.2249    0.8653    2.0181 C   0  0  0  0  0  0  0  0  0  0  0  0
   -3.0751    0.7731    1.2268 C   0  0  0  0  0  0  0  0  0  0  0  0
   -1.5487    0.7430    2.0338 Cl  0  0  0  0  0  0  0  0  0  0  0  0
    1.0118   -0.3678   -1.3533 N   0  0  0  0  0  0  0  0  0  0  0  0
    2.0753   -0.7853   -0.4580 C   0  0  0  0  0  0  0  0  0  0  0  0
    3.0079    0.3693   -0.0869 C   0  0  0  0  0  0  0  0  0  0  0  0
    4.0645   -0.0440    0.8177 N   0  0  0  0  0  0  0  0  0  0  0  0
    3.9002   -0.1450    2.1767 C   0  0  0  0  0  0  0  0  0  0  0  0
    2.7012    0.2014    2.7214 O   0  0  0  0  0  0  0  0  0  0  0  0
    4.9740   -0.5951    2.8354 C   0  0  0  0  0  0  0  0  0  0  0  0
    6.2827   -0.9371    1.7442 S   0  0  0  0  0  0  0  0  0  0  0  0
    5.2995   -0.4574    0.3456 C   0  0  0  0  0  0  0  0  0  0  0  0
    5.6924   -0.5087   -0.8074 O   0  0  0  0  0  0  0  0  0  0  0  0
   -0.7113    0.2029   -3.2215 H   0  0  0  0  0  0  0  0  0  0  0  0
   -1.3132   -1.4307   -3.4611 H   0  0  0  0  0  0  0  0  0  0  0  0
   -4.5702    0.5817   -1.8405 H   0  0  0  0  0  0  0  0  0  0  0  0
   -6.3787    0.9277    2.0486 H   0  0  0  0  0  0  0  0  0  0  0  0
   -4.1437    0.9399    3.1007 H   0  0  0  0  0  0  0  0  0  0  0  0
    0.5716    0.5355   -1.1665 H   0  0  0  0  0  0  0  0  0  0  0  0
    2.6385   -1.5956   -0.9359 H   0  0  0  0  0  0  0  0  0  0  0  0
    1.6021   -1.2058    0.4370 H   0  0  0  0  0  0  0  0  0  0  0  0
    3.4633    0.7708   -1.0008 H   0  0  0  0  0  0  0  0  0  0  0  0
    2.4453    1.1944    0.3669 H   0  0  0  0  0  0  0  0  0  0  0  0
    2.7512    0.0728    3.6838 H   0  0  0  0  0  0  0  0  0  0  0  0
    5.0547   -0.7483    3.9013 H   0  0  0  0  0  0  0  0  0  0  0  0
  1  2  2  0
  2  3  1  0
  3  4  1  0
  4  5  1  0
  5  6  2  0
  5  7  1  0
  7  8  2  0
  8  9  1  0
  9 10  1  0
  9 11  2  0
 11 12  1  0
 12 13  2  0
 13 14  1  0
  2 15  1  0
 15 16  1  0
 16 17  1  0
 17 18  1  0
 18 19  1  0
 19 20  1  0
 19 21  2  0
 21 22  1  0
 22 23  1  0
 23 24  2  0
 13  7  1  0
 23 18  1  0
  3 25  1  0
  3 26  1  0
  8 27  1  0
 11 28  1  0
 12 29  1  0
 15 30  1  0
 16 31  1  0
 16 32  1  0
 17 33  1  0
 17 34  1  0
 20 35  1  0
 21 36  1  0
M  END
$$$$
