
     RDKit          3D

 43 45  0  0  0  0  0  0  0  0999 V2000
    4.9732    2.9973   -1.7703 C   0  0  0  0  0  0  0  0  0  0  0  0
    5.2755    1.7558   -1.1452 O   0  0  0  0  0  0  0  0  0  0  0  0
    4.2223    1.0395   -0.6461 C   0  0  0  0  0  0  0  0  0  0  0  0
    2.8837    1.4202   -0.6831 C   0  0  0  0  0  0  0  0  0  0  0  0
    1.8995    0.5908   -0.1323 C   0  0  0  0  0  0  0  0  0  0  0  0
    2.2352   -0.6343    0.4573 C   0  0  0  0  0  0  0  0  0  0  0  0
    1.2876   -1.4871    1.0829 N   0  0  0  0  0  0  0  0  0  0  0  0
   -0.0613   -1.3147    1.1933 C   0  0  0  0  0  0  0  0  0  0  0  0
   -0.8660   -2.2890    0.8934 N   0  0  0  0  0  0  0  0  0  0  0  0
   -2.2002   -1.9966    1.0881 C   0  0  0  0  0  0  0  0  0  0  0  0
   -3.0847   -2.8231    0.8901 O   0  0  0  0  0  0  0  0  0  0  0  0
   -2.6389   -0.6225    1.5994 C   0  0  0  0  0  0  0  0  0  0  0  0
   -4.1140   -0.3483    1.7141 C   0  0  0  0  0  0  0  0  0  0  0  0
   -4.6945    0.1664    0.4205 C   0  0  0  0  0  0  0  0  0  0  0  0
   -5.3137   -0.7094   -0.4811 C   0  0  0  0  0  0  0  0  0  0  0  0
   -5.8287   -0.2336   -1.6878 C   0  0  0  0  0  0  0  0  0  0  0  0
   -5.7262    1.1191   -2.0064 C   0  0  0  0  0  0  0  0  0  0  0  0
   -5.1052    1.9974   -1.1205 C   0  0  0  0  0  0  0  0  0  0  0  0
   -4.5885    1.5237    0.0863 C   0  0  0  0  0  0  0  0  0  0  0  0
   -1.7567    0.2853    1.9158 N   0  0  0  0  0  0  0  0  0  0  0  0
   -0.4684   -0.1060    1.7083 N   0  0  0  0  0  0  0  0  0  0  0  0
    3.5966   -1.0151    0.4911 C   0  0  0  0  0  0  0  0  0  0  0  0
    3.8457   -2.2361    1.0749 O   0  0  0  0  0  0  0  0  0  0  0  0
    5.2056   -2.6404    1.1786 C   0  0  0  0  0  0  0  0  0  0  0  0
    4.5736   -0.1795   -0.0595 C   0  0  0  0  0  0  0  0  0  0  0  0
    5.9147    3.4358   -2.1150 H   0  0  0  0  0  0  0  0  0  0  0  0
    4.3327    2.8523   -2.6466 H   0  0  0  0  0  0  0  0  0  0  0  0
    4.5204    3.6967   -1.0598 H   0  0  0  0  0  0  0  0  0  0  0  0
    2.5654    2.3529   -1.1376 H   0  0  0  0  0  0  0  0  0  0  0  0
    0.8649    0.9144   -0.2101 H   0  0  0  0  0  0  0  0  0  0  0  0
    1.5581   -2.4558    0.9196 H   0  0  0  0  0  0  0  0  0  0  0  0
   -4.6423   -1.2485    2.0472 H   0  0  0  0  0  0  0  0  0  0  0  0
   -4.2727    0.3974    2.5035 H   0  0  0  0  0  0  0  0  0  0  0  0
   -5.3948   -1.7712   -0.2526 H   0  0  0  0  0  0  0  0  0  0  0  0
   -6.3073   -0.9212   -2.3804 H   0  0  0  0  0  0  0  0  0  0  0  0
   -6.1274    1.4876   -2.9467 H   0  0  0  0  0  0  0  0  0  0  0  0
   -5.0210    3.0517   -1.3704 H   0  0  0  0  0  0  0  0  0  0  0  0
   -4.0990    2.2201    0.7644 H   0  0  0  0  0  0  0  0  0  0  0  0
    0.2682    0.4960    2.0719 H   0  0  0  0  0  0  0  0  0  0  0  0
    5.6526   -2.7759    0.1884 H   0  0  0  0  0  0  0  0  0  0  0  0
    5.7837   -1.9336    1.7830 H   0  0  0  0  0  0  0  0  0  0  0  0
    5.2275   -3.6086    1.6881 H   0  0  0  0  0  0  0  0  0  0  0  0
    5.6245   -0.4497   -0.0521 H   0  0  0  0  0  0  0  0  0  0  0  0
  1  2  1  0
  2  3  1  0
  3  4  2  0
  4  5  1  0
  5  6  2  0
  6  7  1  0
  7  8  1  0
  8  9  2  0
  9 10  1  0
 10 11  2  0
 10 12  1  0
 12 13  1  0
 13 14  1  0
 14 15  2  0
 15 16  1  0
 16 17  2  0
 17 18  1  0
 18 19  2  0
 12 20  2  0
 20 21  1  0
  6 22  1  0
 22 23  1  0
 23 24  1  0
 22 25  2  0
 25  3  1  0
 21  8  1  0
 19 14  1  0
  1 26  1  0
  1 27  1  0
  1 28  1  0
  4 29  1  0
  5 30  1  0
  7 31  1  0
 13 32  1  0
 13 33  1  0
 15 34  1  0
 16 35  1  0
 17 36  1  0
 18 37  1  0
 19 38  1  0
 21 39  1  0
 24 40  1  0
 24 41  1  0
 24 42  1  0
 25 43  1  0
M  END
$$$$
