
     RDKit          3D

 53 52  0  0  0  0  0  0  0  0999 V2000
   -8.1839    0.5693   -0.2650 C   0  0  0  0  0  0  0  0  0  0  0  0
   -6.8466    1.2486   -0.5839 C   0  0  0  0  0  0  0  0  0  0  0  0
   -7.0997    2.6081   -1.2377 C   0  0  0  0  0  0  0  0  0  0  0  0
   -6.0011    1.3715    0.7020 C   0  0  0  0  0  0  0  0  0  0  0  0
   -4.5991    1.9466    0.4917 C   0  0  0  0  0  0  0  0  0  0  0  0
   -3.7842    1.1035   -0.3611 N   0  0  0  0  0  0  0  0  0  0  0  0
   -2.6580    1.6160   -0.9735 C   0  0  0  0  0  0  0  0  0  0  0  0
   -2.3608    2.8061   -0.9620 O   0  0  0  0  0  0  0  0  0  0  0  0
   -1.8439    0.5850   -1.7289 C   0  0  0  0  0  0  0  0  0  0  0  0
   -0.3569    0.7080   -1.4227 C   0  0  0  0  0  0  0  0  0  0  0  0
    0.0738    0.0363    0.2252 S   0  0  0  0  0  0  0  0  0  0  0  0
    0.1176   -1.7579   -0.1447 C   0  0  0  0  0  0  0  0  0  0  0  0
    1.4452   -2.1887   -0.7575 C   0  0  0  0  0  0  0  0  0  0  0  0
    2.5278   -2.2874    0.2964 C   0  0  0  0  0  0  0  0  0  0  0  0
    2.4389   -3.0557    1.2491 O   0  0  0  0  0  0  0  0  0  0  0  0
    3.6166   -1.4718    0.0640 N   0  0  0  0  0  0  0  0  0  0  0  0
    4.6755   -1.3687    1.0502 C   0  0  0  0  0  0  0  0  0  0  0  0
    5.9500   -0.7962    0.4318 C   0  0  0  0  0  0  0  0  0  0  0  0
    7.0838   -0.5652    1.4471 C   0  0  0  0  0  0  0  0  0  0  0  0
    7.5227   -1.8563    2.1386 C   0  0  0  0  0  0  0  0  0  0  0  0
    8.2871    0.0739    0.7445 C   0  0  0  0  0  0  0  0  0  0  0  0
   -8.0229   -0.4292    0.1589 H   0  0  0  0  0  0  0  0  0  0  0  0
   -8.7903    0.4535   -1.1746 H   0  0  0  0  0  0  0  0  0  0  0  0
   -8.7653    1.1532    0.4578 H   0  0  0  0  0  0  0  0  0  0  0  0
   -6.3167    0.6147   -1.3068 H   0  0  0  0  0  0  0  0  0  0  0  0
   -7.5466    3.3124   -0.5265 H   0  0  0  0  0  0  0  0  0  0  0  0
   -7.7790    2.5139   -2.0944 H   0  0  0  0  0  0  0  0  0  0  0  0
   -6.1683    3.0482   -1.6173 H   0  0  0  0  0  0  0  0  0  0  0  0
   -5.9107    0.3832    1.1690 H   0  0  0  0  0  0  0  0  0  0  0  0
   -6.5290    2.0080    1.4236 H   0  0  0  0  0  0  0  0  0  0  0  0
   -4.6408    2.9598    0.0796 H   0  0  0  0  0  0  0  0  0  0  0  0
   -4.0826    2.0157    1.4562 H   0  0  0  0  0  0  0  0  0  0  0  0
   -3.7920    0.1124   -0.1653 H   0  0  0  0  0  0  0  0  0  0  0  0
   -2.0091    0.7906   -2.7943 H   0  0  0  0  0  0  0  0  0  0  0  0
   -2.2151   -0.4295   -1.5491 H   0  0  0  0  0  0  0  0  0  0  0  0
    0.2313    0.1881   -2.1837 H   0  0  0  0  0  0  0  0  0  0  0  0
   -0.0422    1.7560   -1.4388 H   0  0  0  0  0  0  0  0  0  0  0  0
   -0.7073   -2.0067   -0.8195 H   0  0  0  0  0  0  0  0  0  0  0  0
   -0.0691   -2.2896    0.7956 H   0  0  0  0  0  0  0  0  0  0  0  0
    1.7490   -1.5375   -1.5862 H   0  0  0  0  0  0  0  0  0  0  0  0
    1.3398   -3.1974   -1.1810 H   0  0  0  0  0  0  0  0  0  0  0  0
    3.4612   -0.6648   -0.5262 H   0  0  0  0  0  0  0  0  0  0  0  0
    4.3107   -0.7167    1.8483 H   0  0  0  0  0  0  0  0  0  0  0  0
    4.8527   -2.3591    1.4769 H   0  0  0  0  0  0  0  0  0  0  0  0
    6.2978   -1.4579   -0.3750 H   0  0  0  0  0  0  0  0  0  0  0  0
    5.7077    0.1629   -0.0462 H   0  0  0  0  0  0  0  0  0  0  0  0
    6.7292    0.1346    2.2158 H   0  0  0  0  0  0  0  0  0  0  0  0
    7.8197   -2.6148    1.4082 H   0  0  0  0  0  0  0  0  0  0  0  0
    8.3764   -1.6729    2.8005 H   0  0  0  0  0  0  0  0  0  0  0  0
    6.7207   -2.2722    2.7563 H   0  0  0  0  0  0  0  0  0  0  0  0
    8.6972   -0.5954   -0.0197 H   0  0  0  0  0  0  0  0  0  0  0  0
    8.0057    1.0139    0.2565 H   0  0  0  0  0  0  0  0  0  0  0  0
    9.0831    0.2974    1.4656 H   0  0  0  0  0  0  0  0  0  0  0  0
  1  2  1  0
  2  3  1  0
  2  4  1  0
  4  5  1  0
  5  6  1  0
  6  7  1  0
  7  8  2  0
  7  9  1  0
  9 10  1  0
 10 11  1  0
 11 12  1  0
 12 13  1  0
 13 14  1  0
 14 15  2  0
 14 16  1  0
 16 17  1  0
 17 18  1  0
 18 19  1  0
 19 20  1  0
 19 21  1  0
  1 22  1  0
  1 23  1  0
  1 24  1  0
  2 25  1  0
  3 26  1  0
  3 27  1  0
  3 28  1  0
  4 29  1  0
  4 30  1  0
  5 31  1  0
  5 32  1  0
  6 33  1  0
  9 34  1  0
  9 35  1  0
 10 36  1  0
 10 37  1  0
 12 38  1  0
 12 39  1  0
 13 40  1  0
 13 41  1  0
 16 42  1  0
 17 43  1  0
 17 44  1  0
 18 45  1  0
 18 46  1  0
 19 47  1  0
 20 48  1  0
 20 49  1  0
 20 50  1  0
 21 51  1  0
 21 52  1  0
 21 53  1  0
M  END
$$$$
