
     RDKit          3D

 57 59  0  0  0  0  0  0  0  0999 V2000
    4.7686   -0.8853    1.6547 C   0  0  0  0  0  0  0  0  0  0  0  0
    4.5762    0.5922    1.3354 C   0  0  0  0  0  0  0  0  0  0  0  0
    5.3374    0.9918   -0.2956 S   0  0  0  0  0  0  0  0  0  0  0  0
    6.8455    1.8480    0.2659 C   0  0  0  0  0  0  0  0  0  0  0  0
    7.8277    0.9429    0.9633 C   0  0  0  0  0  0  0  0  0  0  0  0
    8.5211   -0.0464    0.2494 C   0  0  0  0  0  0  0  0  0  0  0  0
    9.4267   -0.8873    0.8982 C   0  0  0  0  0  0  0  0  0  0  0  0
    9.6524   -0.7468    2.2657 C   0  0  0  0  0  0  0  0  0  0  0  0
    8.9752    0.2354    2.9854 C   0  0  0  0  0  0  0  0  0  0  0  0
    8.0692    1.0777    2.3385 C   0  0  0  0  0  0  0  0  0  0  0  0
    3.0844    0.9348    1.3247 C   0  0  0  0  0  0  0  0  0  0  0  0
    2.5630    1.5158    2.2764 O   0  0  0  0  0  0  0  0  0  0  0  0
    2.4065    0.4692    0.2062 N   0  0  0  0  0  0  0  0  0  0  0  0
    1.0695    0.6887    0.0730 N   0  0  0  0  0  0  0  0  0  0  0  0
    0.5571    0.3272   -1.0590 C   0  0  0  0  0  0  0  0  0  0  0  0
   -0.8792    0.5039   -1.3499 C   0  0  0  0  0  0  0  0  0  0  0  0
   -1.3745    0.0942   -2.5881 C   0  0  0  0  0  0  0  0  0  0  0  0
   -2.7325    0.2568   -2.8739 C   0  0  0  0  0  0  0  0  0  0  0  0
   -3.5985    0.8298   -1.9363 C   0  0  0  0  0  0  0  0  0  0  0  0
   -4.9002    0.9146   -2.3472 O   0  0  0  0  0  0  0  0  0  0  0  0
   -5.8078    1.6583   -1.5426 C   0  0  0  0  0  0  0  0  0  0  0  0
   -6.4244    0.8906   -0.3682 C   0  0  0  0  0  0  0  0  0  0  0  0
   -7.0355    1.4610    0.5316 O   0  0  0  0  0  0  0  0  0  0  0  0
   -6.2583   -0.4723   -0.4279 N   0  0  0  0  0  0  0  0  0  0  0  0
   -6.8997   -1.3720    0.4990 C   0  0  0  0  0  0  0  0  0  0  0  0
   -8.1554   -1.8609   -0.1188 C   0  0  0  0  0  0  0  0  0  0  0  0
   -9.4646   -1.4279   -0.0697 C   0  0  0  0  0  0  0  0  0  0  0  0
  -10.2085   -2.3122   -0.8868 C   0  0  0  0  0  0  0  0  0  0  0  0
   -9.3074   -3.2241   -1.3842 C   0  0  0  0  0  0  0  0  0  0  0  0
   -8.0568   -2.9571   -0.9267 O   0  0  0  0  0  0  0  0  0  0  0  0
   -3.0975    1.2307   -0.6969 C   0  0  0  0  0  0  0  0  0  0  0  0
   -1.7384    1.0699   -0.4045 C   0  0  0  0  0  0  0  0  0  0  0  0
    4.2858   -1.1329    2.6072 H   0  0  0  0  0  0  0  0  0  0  0  0
    4.3206   -1.5339    0.8933 H   0  0  0  0  0  0  0  0  0  0  0  0
    5.8269   -1.1476    1.7469 H   0  0  0  0  0  0  0  0  0  0  0  0
    5.0370    1.2115    2.1119 H   0  0  0  0  0  0  0  0  0  0  0  0
    7.3337    2.2842   -0.6134 H   0  0  0  0  0  0  0  0  0  0  0  0
    6.5591    2.6919    0.9035 H   0  0  0  0  0  0  0  0  0  0  0  0
    8.3547   -0.1699   -0.8189 H   0  0  0  0  0  0  0  0  0  0  0  0
    9.9557   -1.6524    0.3359 H   0  0  0  0  0  0  0  0  0  0  0  0
   10.3574   -1.4023    2.7704 H   0  0  0  0  0  0  0  0  0  0  0  0
    9.1533    0.3461    4.0522 H   0  0  0  0  0  0  0  0  0  0  0  0
    7.5518    1.8389    2.9189 H   0  0  0  0  0  0  0  0  0  0  0  0
    2.9520    0.1531   -0.5910 H   0  0  0  0  0  0  0  0  0  0  0  0
    1.1722   -0.1292   -1.8556 H   0  0  0  0  0  0  0  0  0  0  0  0
   -0.7227   -0.3494   -3.3355 H   0  0  0  0  0  0  0  0  0  0  0  0
   -3.1198   -0.0619   -3.8392 H   0  0  0  0  0  0  0  0  0  0  0  0
   -6.6437    1.9383   -2.1943 H   0  0  0  0  0  0  0  0  0  0  0  0
   -5.3611    2.5939   -1.1865 H   0  0  0  0  0  0  0  0  0  0  0  0
   -5.8671   -0.8641   -1.2772 H   0  0  0  0  0  0  0  0  0  0  0  0
   -7.1016   -0.8664    1.4486 H   0  0  0  0  0  0  0  0  0  0  0  0
   -6.2103   -2.2012    0.6862 H   0  0  0  0  0  0  0  0  0  0  0  0
   -9.8276   -0.5735    0.4859 H   0  0  0  0  0  0  0  0  0  0  0  0
  -11.2696   -2.2872   -1.0908 H   0  0  0  0  0  0  0  0  0  0  0  0
   -9.3916   -4.0775   -2.0425 H   0  0  0  0  0  0  0  0  0  0  0  0
   -3.7287    1.6636    0.0730 H   0  0  0  0  0  0  0  0  0  0  0  0
   -1.3573    1.3866    0.5653 H   0  0  0  0  0  0  0  0  0  0  0  0
  1  2  1  0
  2  3  1  0
  3  4  1  0
  4  5  1  0
  5  6  2  0
  6  7  1  0
  7  8  2  0
  8  9  1  0
  9 10  2  0
  2 11  1  0
 11 12  2  0
 11 13  1  0
 13 14  1  0
 14 15  2  3
 15 16  1  0
 16 17  2  0
 17 18  1  0
 18 19  2  0
 19 20  1  0
 20 21  1  0
 21 22  1  0
 22 23  2  0
 22 24  1  0
 24 25  1  0
 25 26  1  0
 26 27  2  0
 27 28  1  0
 28 29  2  0
 29 30  1  0
 19 31  1  0
 31 32  2  0
 10  5  1  0
 32 16  1  0
 30 26  1  0
  1 33  1  0
  1 34  1  0
  1 35  1  0
  2 36  1  0
  4 37  1  0
  4 38  1  0
  6 39  1  0
  7 40  1  0
  8 41  1  0
  9 42  1  0
 10 43  1  0
 13 44  1  0
 15 45  1  0
 17 46  1  0
 18 47  1  0
 21 48  1  0
 21 49  1  0
 24 50  1  0
 25 51  1  0
 25 52  1  0
 27 53  1  0
 28 54  1  0
 29 55  1  0
 31 56  1  0
 32 57  1  0
M  END
$$$$
