
     RDKit          3D

 46 47  0  0  0  0  0  0  0  0999 V2000
    0.0261    0.0114   -4.2044 C   0  0  0  0  0  0  0  0  0  0  0  0
    1.3867    0.3543   -3.6507 C   0  0  0  0  0  0  0  0  0  0  0  0
    2.0574    1.2544   -4.1453 O   0  0  0  0  0  0  0  0  0  0  0  0
    1.7172   -0.4207   -2.5596 N   0  0  0  0  0  0  0  0  0  0  0  0
    2.8970   -0.3826   -1.7866 C   0  0  0  0  0  0  0  0  0  0  0  0
    3.9843    0.4448   -2.0718 C   0  0  0  0  0  0  0  0  0  0  0  0
    5.1303    0.4143   -1.2678 C   0  0  0  0  0  0  0  0  0  0  0  0
    5.2056   -0.4496   -0.1762 C   0  0  0  0  0  0  0  0  0  0  0  0
    4.1300   -1.2814    0.1221 C   0  0  0  0  0  0  0  0  0  0  0  0
    2.9791   -1.2300   -0.6681 C   0  0  0  0  0  0  0  0  0  0  0  0
    1.9420   -2.0791   -0.3660 O   0  0  0  0  0  0  0  0  0  0  0  0
    1.0935   -1.5290    0.6524 C   0  0  0  0  0  0  0  0  0  0  0  0
    0.8763   -2.6142    1.7009 C   0  0  0  0  0  0  0  0  0  0  0  0
   -0.2543   -1.1086    0.0367 C   0  0  0  0  0  0  0  0  0  0  0  0
   -0.5391   -1.3084   -1.1441 O   0  0  0  0  0  0  0  0  0  0  0  0
   -1.1058   -0.4608    0.9056 N   0  0  0  0  0  0  0  0  0  0  0  0
   -2.4053    0.0383    0.4858 C   0  0  0  0  0  0  0  0  0  0  0  0
   -3.4276   -1.0972    0.3785 C   0  0  0  0  0  0  0  0  0  0  0  0
   -2.8403    1.1485    1.4280 C   0  0  0  0  0  0  0  0  0  0  0  0
   -2.6639    2.4894    1.0405 C   0  0  0  0  0  0  0  0  0  0  0  0
   -3.0266    3.5320    1.8953 C   0  0  0  0  0  0  0  0  0  0  0  0
   -3.5586    3.2402    3.1440 C   0  0  0  0  0  0  0  0  0  0  0  0
   -3.9045    4.2400    3.9652 F   0  0  0  0  0  0  0  0  0  0  0  0
   -3.7307    1.9253    3.5565 C   0  0  0  0  0  0  0  0  0  0  0  0
   -3.3681    0.8804    2.7037 C   0  0  0  0  0  0  0  0  0  0  0  0
   -0.1469   -1.0683   -4.1735 H   0  0  0  0  0  0  0  0  0  0  0  0
   -0.0334    0.3341   -5.2479 H   0  0  0  0  0  0  0  0  0  0  0  0
   -0.7427    0.5250   -3.6211 H   0  0  0  0  0  0  0  0  0  0  0  0
    1.0048   -1.0757   -2.2312 H   0  0  0  0  0  0  0  0  0  0  0  0
    3.9773    1.1204   -2.9216 H   0  0  0  0  0  0  0  0  0  0  0  0
    5.9703    1.0620   -1.5083 H   0  0  0  0  0  0  0  0  0  0  0  0
    6.1055   -0.4793    0.4326 H   0  0  0  0  0  0  0  0  0  0  0  0
    4.1915   -1.9707    0.9587 H   0  0  0  0  0  0  0  0  0  0  0  0
    1.5370   -0.6448    1.1318 H   0  0  0  0  0  0  0  0  0  0  0  0
    0.2594   -2.2605    2.5326 H   0  0  0  0  0  0  0  0  0  0  0  0
    1.8356   -2.9581    2.1020 H   0  0  0  0  0  0  0  0  0  0  0  0
    0.3831   -3.4881    1.2601 H   0  0  0  0  0  0  0  0  0  0  0  0
   -0.8039   -0.2574    1.8497 H   0  0  0  0  0  0  0  0  0  0  0  0
   -2.2895    0.4580   -0.5223 H   0  0  0  0  0  0  0  0  0  0  0  0
   -3.5123   -1.6636    1.3123 H   0  0  0  0  0  0  0  0  0  0  0  0
   -3.1356   -1.8114   -0.3991 H   0  0  0  0  0  0  0  0  0  0  0  0
   -4.4198   -0.7103    0.1223 H   0  0  0  0  0  0  0  0  0  0  0  0
   -2.2400    2.7305    0.0668 H   0  0  0  0  0  0  0  0  0  0  0  0
   -2.8950    4.5669    1.5952 H   0  0  0  0  0  0  0  0  0  0  0  0
   -4.1444    1.7222    4.5394 H   0  0  0  0  0  0  0  0  0  0  0  0
   -3.5014   -0.1424    3.0484 H   0  0  0  0  0  0  0  0  0  0  0  0
  1  2  1  0
  2  3  2  0
  2  4  1  0
  4  5  1  0
  5  6  2  0
  6  7  1  0
  7  8  2  0
  8  9  1  0
  9 10  2  0
 10 11  1  0
 11 12  1  0
 12 13  1  0
 12 14  1  0
 14 15  2  0
 14 16  1  0
 16 17  1  0
 17 18  1  0
 17 19  1  0
 19 20  2  0
 20 21  1  0
 21 22  2  0
 22 23  1  0
 22 24  1  0
 24 25  2  0
 10  5  1  0
 25 19  1  0
  1 26  1  0
  1 27  1  0
  1 28  1  0
  4 29  1  0
  6 30  1  0
  7 31  1  0
  8 32  1  0
  9 33  1  0
 12 34  1  0
 13 35  1  0
 13 36  1  0
 13 37  1  0
 16 38  1  0
 17 39  1  0
 18 40  1  0
 18 41  1  0
 18 42  1  0
 20 43  1  0
 21 44  1  0
 24 45  1  0
 25 46  1  0
M  END
$$$$
