
     RDKit          3D

 42 44  0  0  0  0  0  0  0  0999 V2000
   -6.9310    0.0231    0.4129 C   0  0  0  0  0  0  0  0  0  0  0  0
   -5.9184    0.8849   -0.0921 O   0  0  0  0  0  0  0  0  0  0  0  0
   -4.6485    0.7070    0.3870 C   0  0  0  0  0  0  0  0  0  0  0  0
   -4.2467   -0.2762    1.2919 C   0  0  0  0  0  0  0  0  0  0  0  0
   -2.9100   -0.3423    1.6865 C   0  0  0  0  0  0  0  0  0  0  0  0
   -2.5055   -1.3281    2.5439 O   0  0  0  0  0  0  0  0  0  0  0  0
   -1.9764    0.5707    1.1850 C   0  0  0  0  0  0  0  0  0  0  0  0
   -0.5786    0.5059    1.6520 C   0  0  0  0  0  0  0  0  0  0  0  0
   -0.2654    0.9387    2.7543 O   0  0  0  0  0  0  0  0  0  0  0  0
    0.3854   -0.1141    0.7041 C   0  0  0  0  0  0  0  0  0  0  0  0
    1.6812   -0.2062    1.0386 C   0  0  0  0  0  0  0  0  0  0  0  0
    2.7152   -0.7842    0.1899 C   0  0  0  0  0  0  0  0  0  0  0  0
    4.0051   -0.4289    0.4183 C   0  0  0  0  0  0  0  0  0  0  0  0
    5.0792   -1.1140   -0.3615 C   0  0  2  0  0  0  0  0  0  0  0  0
    6.2960   -0.4167   -0.5892 O   0  0  0  0  0  0  0  0  0  0  0  0
    6.8237   -1.1343   -1.7330 C   0  0  0  0  0  0  0  0  0  0  0  0
    5.7822   -1.9300   -2.3533 O   0  0  0  0  0  0  0  0  0  0  0  0
    4.6165   -1.3486   -1.7883 C   0  0  1  0  0  0  0  0  0  0  0  0
    3.3635   -2.1561   -1.7659 C   0  0  0  0  0  0  0  0  0  0  0  0
    2.4634   -1.8552   -0.8059 C   0  0  0  0  0  0  0  0  0  0  0  0
   -2.3676    1.5628    0.2743 C   0  0  0  0  0  0  0  0  0  0  0  0
   -1.3891    2.4053   -0.1825 O   0  0  0  0  0  0  0  0  0  0  0  0
   -1.8009    3.5455   -0.9265 C   0  0  0  0  0  0  0  0  0  0  0  0
   -3.7085    1.6159   -0.1199 C   0  0  0  0  0  0  0  0  0  0  0  0
   -7.8791    0.3141   -0.0496 H   0  0  0  0  0  0  0  0  0  0  0  0
   -7.0405    0.1346    1.4967 H   0  0  0  0  0  0  0  0  0  0  0  0
   -6.7328   -1.0186    0.1399 H   0  0  0  0  0  0  0  0  0  0  0  0
   -4.9519   -0.9995    1.6836 H   0  0  0  0  0  0  0  0  0  0  0  0
   -3.2785   -1.7164    2.9856 H   0  0  0  0  0  0  0  0  0  0  0  0
   -0.0005   -0.4634   -0.2451 H   0  0  0  0  0  0  0  0  0  0  0  0
    2.0056    0.1885    2.0021 H   0  0  0  0  0  0  0  0  0  0  0  0
    4.2938    0.2906    1.1761 H   0  0  0  0  0  0  0  0  0  0  0  0
    5.3456   -2.0481    0.1563 H   0  0  0  0  0  0  0  0  0  0  0  0
    7.2107   -0.4114   -2.4576 H   0  0  0  0  0  0  0  0  0  0  0  0
    7.6302   -1.7981   -1.4068 H   0  0  0  0  0  0  0  0  0  0  0  0
    4.4300   -0.4126   -2.3360 H   0  0  0  0  0  0  0  0  0  0  0  0
    3.1843   -2.9135   -2.5179 H   0  0  0  0  0  0  0  0  0  0  0  0
    1.5211   -2.3927   -0.7491 H   0  0  0  0  0  0  0  0  0  0  0  0
   -0.9147    4.1592   -1.1145 H   0  0  0  0  0  0  0  0  0  0  0  0
   -2.2131    3.2506   -1.8968 H   0  0  0  0  0  0  0  0  0  0  0  0
   -2.5141    4.1543   -0.3608 H   0  0  0  0  0  0  0  0  0  0  0  0
   -4.0609    2.3576   -0.8306 H   0  0  0  0  0  0  0  0  0  0  0  0
  1  2  1  0
  2  3  1  0
  3  4  2  0
  4  5  1  0
  5  6  1  0
  5  7  2  0
  7  8  1  0
  8  9  2  0
  8 10  1  0
 10 11  2  0
 11 12  1  0
 12 13  2  0
 13 14  1  0
 14 15  1  0
 15 16  1  0
 16 17  1  0
 17 18  1  0
 18 19  1  0
 19 20  2  0
  7 21  1  0
 21 22  1  0
 22 23  1  0
 21 24  2  0
 24  3  1  0
 20 12  1  0
 18 14  1  0
  1 25  1  0
  1 26  1  0
  1 27  1  0
  4 28  1  0
  6 29  1  0
 10 30  1  0
 11 31  1  0
 13 32  1  0
 14 33  1  1
 16 34  1  0
 16 35  1  0
 18 36  1  6
 19 37  1  0
 20 38  1  0
 23 39  1  0
 23 40  1  0
 23 41  1  0
 24 42  1  0
M  END
$$$$
