
     RDKit          3D

 50 52  0  0  0  0  0  0  0  0999 V2000
   -3.9628    0.3889   -2.6009 C   0  0  0  0  0  0  0  0  0  0  0  0
   -4.3294   -0.1141   -1.3223 O   0  0  0  0  0  0  0  0  0  0  0  0
   -3.3123   -0.4866   -0.4847 C   0  0  0  0  0  0  0  0  0  0  0  0
   -1.9670   -0.5951   -0.8409 C   0  0  0  0  0  0  0  0  0  0  0  0
   -1.0242   -1.0182    0.1086 C   0  0  0  0  0  0  0  0  0  0  0  0
    0.3926   -1.1217   -0.3030 C   0  0  0  0  0  0  0  0  0  0  0  0
    1.3054   -1.5493    0.5103 N   0  0  0  0  0  0  0  0  0  0  0  0
    2.5894   -1.6635    0.0480 N   0  0  0  0  0  0  0  0  0  0  0  0
    2.9735   -2.0108   -1.2430 C   0  0  0  0  0  0  0  0  0  0  0  0
    2.2301   -2.1415   -2.2139 O   0  0  0  0  0  0  0  0  0  0  0  0
    4.4779   -2.2783   -1.3613 C   0  0  0  0  0  0  0  0  0  0  0  0
    5.2725   -1.8054   -0.2819 O   0  0  0  0  0  0  0  0  0  0  0  0
    5.6709   -0.4968   -0.3058 C   0  0  0  0  0  0  0  0  0  0  0  0
    5.2179    0.4873   -1.1837 C   0  0  0  0  0  0  0  0  0  0  0  0
    5.7016    1.7968   -1.0815 C   0  0  0  0  0  0  0  0  0  0  0  0
    6.6470    2.1363   -0.1075 C   0  0  0  0  0  0  0  0  0  0  0  0
    7.1355    3.5486    0.0201 C   0  0  0  0  0  0  0  0  0  0  0  0
    7.0825    1.1512    0.7832 C   0  0  0  0  0  0  0  0  0  0  0  0
    6.5985   -0.1550    0.6806 C   0  0  0  0  0  0  0  0  0  0  0  0
   -1.4153   -1.3439    1.4124 C   0  0  0  0  0  0  0  0  0  0  0  0
   -2.7550   -1.2390    1.7773 C   0  0  0  0  0  0  0  0  0  0  0  0
   -3.6821   -0.7980    0.8328 C   0  0  0  0  0  0  0  0  0  0  0  0
   -5.0256   -0.7304    1.2193 O   0  0  0  0  0  0  0  0  0  0  0  0
   -5.4572    0.5706    1.4754 C   0  0  0  0  0  0  0  0  0  0  0  0
   -4.7315    1.5596    1.5164 O   0  0  0  0  0  0  0  0  0  0  0  0
   -6.8916    0.5519    1.7146 C   0  0  0  0  0  0  0  0  0  0  0  0
   -7.7824   -0.5076    1.6690 C   0  0  0  0  0  0  0  0  0  0  0  0
   -9.1198   -0.1141    1.9680 C   0  0  0  0  0  0  0  0  0  0  0  0
   -9.2117    1.2332    2.2319 C   0  0  0  0  0  0  0  0  0  0  0  0
   -7.6957    2.0137    2.1176 S   0  0  0  0  0  0  0  0  0  0  0  0
   -3.2956    1.2527   -2.5122 H   0  0  0  0  0  0  0  0  0  0  0  0
   -3.5137   -0.3971   -3.2166 H   0  0  0  0  0  0  0  0  0  0  0  0
   -4.8760    0.7235   -3.1025 H   0  0  0  0  0  0  0  0  0  0  0  0
   -1.6317   -0.3700   -1.8477 H   0  0  0  0  0  0  0  0  0  0  0  0
    0.6156   -0.7846   -1.3289 H   0  0  0  0  0  0  0  0  0  0  0  0
    3.2875   -1.7830    0.7805 H   0  0  0  0  0  0  0  0  0  0  0  0
    4.8488   -1.9147   -2.3268 H   0  0  0  0  0  0  0  0  0  0  0  0
    4.5910   -3.3688   -1.3757 H   0  0  0  0  0  0  0  0  0  0  0  0
    4.4809    0.2841   -1.9537 H   0  0  0  0  0  0  0  0  0  0  0  0
    5.3301    2.5536   -1.7696 H   0  0  0  0  0  0  0  0  0  0  0  0
    8.1568    3.5746    0.4145 H   0  0  0  0  0  0  0  0  0  0  0  0
    6.4816    4.1113    0.6934 H   0  0  0  0  0  0  0  0  0  0  0  0
    7.1518    4.0456   -0.9556 H   0  0  0  0  0  0  0  0  0  0  0  0
    7.8008    1.3923    1.5635 H   0  0  0  0  0  0  0  0  0  0  0  0
    6.9504   -0.9114    1.3780 H   0  0  0  0  0  0  0  0  0  0  0  0
   -0.6819   -1.6775    2.1428 H   0  0  0  0  0  0  0  0  0  0  0  0
   -3.0695   -1.4905    2.7855 H   0  0  0  0  0  0  0  0  0  0  0  0
   -7.4917   -1.5241    1.4288 H   0  0  0  0  0  0  0  0  0  0  0  0
   -9.9700   -0.7853    1.9869 H   0  0  0  0  0  0  0  0  0  0  0  0
  -10.0968    1.8007    2.4856 H   0  0  0  0  0  0  0  0  0  0  0  0
  1  2  1  0
  2  3  1  0
  3  4  2  0
  4  5  1  0
  5  6  1  0
  6  7  2  3
  7  8  1  0
  8  9  1  0
  9 10  2  0
  9 11  1  0
 11 12  1  0
 12 13  1  0
 13 14  2  0
 14 15  1  0
 15 16  2  0
 16 17  1  0
 16 18  1  0
 18 19  2  0
  5 20  2  0
 20 21  1  0
 21 22  2  0
 22 23  1  0
 23 24  1  0
 24 25  2  0
 24 26  1  0
 26 27  2  0
 27 28  1  0
 28 29  2  0
 29 30  1  0
 22  3  1  0
 30 26  1  0
 19 13  1  0
  1 31  1  0
  1 32  1  0
  1 33  1  0
  4 34  1  0
  6 35  1  0
  8 36  1  0
 11 37  1  0
 11 38  1  0
 14 39  1  0
 15 40  1  0
 17 41  1  0
 17 42  1  0
 17 43  1  0
 18 44  1  0
 19 45  1  0
 20 46  1  0
 21 47  1  0
 27 48  1  0
 28 49  1  0
 29 50  1  0
M  END
$$$$
