
     RDKit          3D

 44 46  0  0  0  0  0  0  0  0999 V2000
   -0.9967   -1.2689   -2.4657 C   0  0  0  0  0  0  0  0  0  0  0  0
   -2.0631   -0.6294   -1.6280 C   0  0  0  0  0  0  0  0  0  0  0  0
   -3.4033   -0.7094   -2.0231 C   0  0  0  0  0  0  0  0  0  0  0  0
   -4.4079   -0.1219   -1.2536 C   0  0  0  0  0  0  0  0  0  0  0  0
   -4.0958    0.5612   -0.0735 C   0  0  0  0  0  0  0  0  0  0  0  0
   -5.1643    1.2267    0.7788 C   0  0  0  0  0  0  0  0  0  0  0  0
   -6.1796    2.0192   -0.0517 C   0  0  0  0  0  0  0  0  0  0  0  0
   -5.8697    0.1901    1.6565 C   0  0  0  0  0  0  0  0  0  0  0  0
   -2.7524    0.6127    0.3332 C   0  0  0  0  0  0  0  0  0  0  0  0
   -1.7422    0.0176   -0.4277 C   0  0  0  0  0  0  0  0  0  0  0  0
   -0.4114    0.0604   -0.1023 O   0  0  0  0  0  0  0  0  0  0  0  0
   -0.1045    0.1367    1.2856 C   0  0  0  0  0  0  0  0  0  0  0  0
    1.3972   -0.0842    1.4813 C   0  0  0  0  0  0  0  0  0  0  0  0
    1.8312   -0.5543    2.5237 O   0  0  0  0  0  0  0  0  0  0  0  0
    2.1344    0.3848    0.4181 N   0  0  0  0  0  0  0  0  0  0  0  0
    3.4904    0.3221    0.2428 C   0  0  0  0  0  0  0  0  0  0  0  0
    4.0790    0.8577   -0.8022 N   0  0  0  0  0  0  0  0  0  0  0  0
    5.4447    0.6596   -0.7848 N   0  0  0  0  0  0  0  0  0  0  0  0
    5.8153   -0.0413    0.2663 C   0  0  0  0  0  0  0  0  0  0  0  0
    7.3046   -0.4302    0.5220 C   0  0  0  0  0  0  0  0  0  0  0  0
    7.7948   -1.7977    0.1155 C   0  0  0  0  0  0  0  0  0  0  0  0
    8.2259   -0.5914   -0.6600 C   0  0  0  0  0  0  0  0  0  0  0  0
    4.5465   -0.4751    1.3226 S   0  0  0  0  0  0  0  0  0  0  0  0
   -0.5744   -2.1351   -1.9479 H   0  0  0  0  0  0  0  0  0  0  0  0
   -0.1956   -0.5513   -2.6704 H   0  0  0  0  0  0  0  0  0  0  0  0
   -1.3891   -1.5964   -3.4310 H   0  0  0  0  0  0  0  0  0  0  0  0
   -3.6768   -1.2290   -2.9396 H   0  0  0  0  0  0  0  0  0  0  0  0
   -5.4372   -0.2056   -1.5912 H   0  0  0  0  0  0  0  0  0  0  0  0
   -4.6742    1.9521    1.4454 H   0  0  0  0  0  0  0  0  0  0  0  0
   -5.6789    2.6908   -0.7584 H   0  0  0  0  0  0  0  0  0  0  0  0
   -6.8412    1.3590   -0.6240 H   0  0  0  0  0  0  0  0  0  0  0  0
   -6.8127    2.6326    0.6027 H   0  0  0  0  0  0  0  0  0  0  0  0
   -5.1552   -0.3311    2.3031 H   0  0  0  0  0  0  0  0  0  0  0  0
   -6.3843   -0.5676    1.0513 H   0  0  0  0  0  0  0  0  0  0  0  0
   -6.6119    0.6698    2.3046 H   0  0  0  0  0  0  0  0  0  0  0  0
   -2.5150    1.1421    1.2485 H   0  0  0  0  0  0  0  0  0  0  0  0
   -0.3338    1.1307    1.6680 H   0  0  0  0  0  0  0  0  0  0  0  0
   -0.6415   -0.6381    1.8412 H   0  0  0  0  0  0  0  0  0  0  0  0
    1.6314    0.7907   -0.3610 H   0  0  0  0  0  0  0  0  0  0  0  0
    7.7288    0.0110    1.4175 H   0  0  0  0  0  0  0  0  0  0  0  0
    8.5286   -2.2829    0.7471 H   0  0  0  0  0  0  0  0  0  0  0  0
    7.0925   -2.4824   -0.3456 H   0  0  0  0  0  0  0  0  0  0  0  0
    7.8216   -0.4531   -1.6534 H   0  0  0  0  0  0  0  0  0  0  0  0
    9.2456   -0.2511   -0.5576 H   0  0  0  0  0  0  0  0  0  0  0  0
  1  2  1  0
  2  3  2  0
  3  4  1  0
  4  5  2  0
  5  6  1  0
  6  7  1  0
  6  8  1  0
  5  9  1  0
  9 10  2  0
 10 11  1  0
 11 12  1  0
 12 13  1  0
 13 14  2  0
 13 15  1  0
 15 16  1  0
 16 17  2  0
 17 18  1  0
 18 19  2  0
 19 20  1  0
 20 21  1  0
 21 22  1  0
 19 23  1  0
 10  2  1  0
 23 16  1  0
 22 20  1  0
  1 24  1  0
  1 25  1  0
  1 26  1  0
  3 27  1  0
  4 28  1  0
  6 29  1  0
  7 30  1  0
  7 31  1  0
  7 32  1  0
  8 33  1  0
  8 34  1  0
  8 35  1  0
  9 36  1  0
 12 37  1  0
 12 38  1  0
 15 39  1  0
 20 40  1  0
 21 41  1  0
 21 42  1  0
 22 43  1  0
 22 44  1  0
M  END
$$$$
