
     RDKit          3D

 51 55  0  0  0  0  0  0  0  0999 V2000
   -1.8923    2.5864    0.1478 O   0  0  0  0  0  0  0  0  0  0  0  0
   -2.6338    1.6549   -0.1866 C   0  0  0  0  0  0  0  0  0  0  0  0
   -3.9105    1.9034   -1.0425 C   0  0  0  0  0  0  0  0  0  0  0  0
   -5.2632    2.0369   -0.2864 C   0  0  0  0  0  0  0  0  0  0  0  0
   -5.6715    3.0940   -1.3282 C   0  0  0  0  0  0  0  0  0  0  0  0
   -4.1704    3.3548   -1.5461 C   0  0  0  0  0  0  0  0  0  0  0  0
   -2.3910    0.3290    0.1619 N   0  0  0  0  0  0  0  0  0  0  0  0
   -3.2200   -0.8218   -0.2305 C   0  0  0  0  0  0  0  0  0  0  0  0
   -2.5964   -2.0807    0.3841 C   0  0  0  0  0  0  0  0  0  0  0  0
   -1.3950   -1.5286    1.0797 C   0  0  0  0  0  0  0  0  0  0  0  0
   -0.4470   -2.2399    1.8016 C   0  0  0  0  0  0  0  0  0  0  0  0
    0.6044   -1.5234    2.3826 C   0  0  0  0  0  0  0  0  0  0  0  0
    1.8413   -2.3980    3.3189 S   0  0  0  0  0  6  0  0  0  0  0  0
    2.4681   -1.4624    4.2270 O   0  0  0  0  0  0  0  0  0  0  0  0
    1.2327   -3.6199    3.8035 O   0  0  0  0  0  0  0  0  0  0  0  0
    2.9521   -2.8695    2.1346 N   0  0  0  0  0  0  0  0  0  0  0  0
    3.5063   -1.8826    1.2725 C   0  0  0  0  0  0  0  0  0  0  0  0
    4.3405   -0.8834    1.7768 C   0  0  0  0  0  0  0  0  0  0  0  0
    4.8319    0.1106    0.9282 C   0  0  0  0  0  0  0  0  0  0  0  0
    4.4823    0.1054   -0.4200 C   0  0  0  0  0  0  0  0  0  0  0  0
    3.6710   -0.9138   -0.9296 C   0  0  0  0  0  0  0  0  0  0  0  0
    3.1722   -1.9019   -0.0823 C   0  0  0  0  0  0  0  0  0  0  0  0
    3.3106   -0.9986   -2.2507 O   0  0  0  0  0  0  0  0  0  0  0  0
    4.1160   -0.1419   -3.0698 C   0  0  0  0  0  0  0  0  0  0  0  0
    4.2690    1.2287   -2.4312 C   0  0  0  0  0  0  0  0  0  0  0  0
    4.9745    1.1280   -1.1889 O   0  0  0  0  0  0  0  0  0  0  0  0
    0.6802   -0.1250    2.2666 C   0  0  0  0  0  0  0  0  0  0  0  0
   -0.2841    0.5723    1.5308 C   0  0  0  0  0  0  0  0  0  0  0  0
   -1.3150   -0.1406    0.9388 C   0  0  0  0  0  0  0  0  0  0  0  0
   -3.9770    1.2022   -1.8870 H   0  0  0  0  0  0  0  0  0  0  0  0
   -5.8887    1.1408   -0.2651 H   0  0  0  0  0  0  0  0  0  0  0  0
   -5.1713    2.4305    0.7327 H   0  0  0  0  0  0  0  0  0  0  0  0
   -6.2519    3.9381   -0.9484 H   0  0  0  0  0  0  0  0  0  0  0  0
   -6.1785    2.6758   -2.2054 H   0  0  0  0  0  0  0  0  0  0  0  0
   -3.7675    4.1448   -0.9019 H   0  0  0  0  0  0  0  0  0  0  0  0
   -3.8748    3.5567   -2.5792 H   0  0  0  0  0  0  0  0  0  0  0  0
   -4.2439   -0.6705    0.1265 H   0  0  0  0  0  0  0  0  0  0  0  0
   -3.2435   -0.8885   -1.3238 H   0  0  0  0  0  0  0  0  0  0  0  0
   -3.2821   -2.5531    1.0944 H   0  0  0  0  0  0  0  0  0  0  0  0
   -2.3147   -2.8008   -0.3903 H   0  0  0  0  0  0  0  0  0  0  0  0
   -0.5261   -3.3173    1.9137 H   0  0  0  0  0  0  0  0  0  0  0  0
    2.7139   -3.7740    1.7315 H   0  0  0  0  0  0  0  0  0  0  0  0
    4.6134   -0.8684    2.8296 H   0  0  0  0  0  0  0  0  0  0  0  0
    5.4730    0.8945    1.3223 H   0  0  0  0  0  0  0  0  0  0  0  0
    2.5237   -2.6712   -0.4889 H   0  0  0  0  0  0  0  0  0  0  0  0
    5.0895   -0.6236   -3.2237 H   0  0  0  0  0  0  0  0  0  0  0  0
    3.6216   -0.0532   -4.0422 H   0  0  0  0  0  0  0  0  0  0  0  0
    3.2944    1.6965   -2.2435 H   0  0  0  0  0  0  0  0  0  0  0  0
    4.8444    1.8898   -3.0868 H   0  0  0  0  0  0  0  0  0  0  0  0
    1.4901    0.4275    2.7395 H   0  0  0  0  0  0  0  0  0  0  0  0
   -0.2070    1.6510    1.4434 H   0  0  0  0  0  0  0  0  0  0  0  0
  1  2  2  0
  2  3  1  0
  3  4  1  0
  4  5  1  0
  5  6  1  0
  2  7  1  0
  7  8  1  0
  8  9  1  0
  9 10  1  0
 10 11  2  0
 11 12  1  0
 12 13  1  0
 13 14  2  0
 13 15  2  0
 13 16  1  0
 16 17  1  0
 17 18  2  0
 18 19  1  0
 19 20  2  0
 20 21  1  0
 21 22  2  0
 21 23  1  0
 23 24  1  0
 24 25  1  0
 25 26  1  0
 12 27  2  0
 27 28  1  0
 28 29  2  0
  6  3  1  0
 29  7  1  0
 29 10  1  0
 22 17  1  0
 26 20  1  0
  3 30  1  0
  4 31  1  0
  4 32  1  0
  5 33  1  0
  5 34  1  0
  6 35  1  0
  6 36  1  0
  8 37  1  0
  8 38  1  0
  9 39  1  0
  9 40  1  0
 11 41  1  0
 16 42  1  0
 18 43  1  0
 19 44  1  0
 22 45  1  0
 24 46  1  0
 24 47  1  0
 25 48  1  0
 25 49  1  0
 27 50  1  0
 28 51  1  0
M  END
$$$$
