
     RDKit          3D

 62 65  0  0  0  0  0  0  0  0999 V2000
   -5.4774    1.1183   -1.2771 C   0  0  0  0  0  0  0  0  0  0  0  0
   -4.5173    0.0403   -0.8524 C   0  0  0  0  0  0  0  0  0  0  0  0
   -4.7227   -0.6000    0.3821 C   0  0  0  0  0  0  0  0  0  0  0  0
   -3.8819   -1.6299    0.8045 C   0  0  0  0  0  0  0  0  0  0  0  0
   -2.8239   -2.0362   -0.0010 C   0  0  0  0  0  0  0  0  0  0  0  0
   -2.6092   -1.4151   -1.2312 C   0  0  0  0  0  0  0  0  0  0  0  0
   -3.4456   -0.3765   -1.6651 C   0  0  0  0  0  0  0  0  0  0  0  0
   -3.1332    0.3181   -3.2845 S   0  0  0  0  0  0  0  0  0  0  0  0
   -2.0366    1.6973   -2.8294 C   0  0  0  0  0  0  0  0  0  0  0  0
   -0.6813    1.1965   -2.3541 C   0  0  0  0  0  0  0  0  0  0  0  0
    0.1033    0.6413   -3.1190 O   0  0  0  0  0  0  0  0  0  0  0  0
   -0.4599    1.4406   -1.0147 N   0  0  0  0  0  0  0  0  0  0  0  0
    0.6870    1.1563   -0.2458 C   0  0  0  0  0  0  0  0  0  0  0  0
    1.8681    0.6315   -0.7653 C   0  0  0  0  0  0  0  0  0  0  0  0
    2.9409    0.3839    0.0959 C   0  0  0  0  0  0  0  0  0  0  0  0
    4.4398   -0.2857   -0.5763 S   0  0  0  0  0  6  0  0  0  0  0  0
    5.3366   -0.5909    0.5197 O   0  0  0  0  0  0  0  0  0  0  0  0
    4.8548    0.5816   -1.6565 O   0  0  0  0  0  0  0  0  0  0  0  0
    3.9342   -1.7739   -1.2367 N   0  0  0  0  0  0  0  0  0  0  0  0
    3.3338   -2.7413   -0.2606 C   0  0  0  0  0  0  0  0  0  0  0  0
    3.3836   -4.1686   -0.8149 C   0  0  0  0  0  0  0  0  0  0  0  0
    4.7222   -4.6387   -1.0264 O   0  0  0  0  0  0  0  0  0  0  0  0
    5.6374   -3.5951   -1.3936 C   0  0  0  0  0  0  0  0  0  0  0  0
    4.9609   -2.4267   -2.1164 C   0  0  0  0  0  0  0  0  0  0  0  0
    2.8502    0.6570    1.4626 C   0  0  0  0  0  0  0  0  0  0  0  0
    1.6693    1.1911    1.9800 C   0  0  0  0  0  0  0  0  0  0  0  0
    0.5790    1.4548    1.1382 C   0  0  0  0  0  0  0  0  0  0  0  0
   -0.6487    1.9944    1.6091 N   0  0  0  0  0  0  0  0  0  0  0  0
   -1.4065    1.0038    2.4137 C   0  0  0  0  0  0  0  0  0  0  0  0
   -2.7685    1.6074    2.7940 C   0  0  0  0  0  0  0  0  0  0  0  0
   -2.6097    2.8357    3.5261 O   0  0  0  0  0  0  0  0  0  0  0  0
   -1.8798    3.7975    2.7430 C   0  0  0  0  0  0  0  0  0  0  0  0
   -0.4883    3.2650    2.3583 C   0  0  0  0  0  0  0  0  0  0  0  0
   -6.0438    0.7988   -2.1576 H   0  0  0  0  0  0  0  0  0  0  0  0
   -4.9438    2.0472   -1.4981 H   0  0  0  0  0  0  0  0  0  0  0  0
   -6.1992    1.3454   -0.4848 H   0  0  0  0  0  0  0  0  0  0  0  0
   -5.5555   -0.3079    1.0189 H   0  0  0  0  0  0  0  0  0  0  0  0
   -4.0628   -2.1247    1.7557 H   0  0  0  0  0  0  0  0  0  0  0  0
   -2.1727   -2.8454    0.3185 H   0  0  0  0  0  0  0  0  0  0  0  0
   -1.7871   -1.7570   -1.8581 H   0  0  0  0  0  0  0  0  0  0  0  0
   -1.8701    2.3211   -3.7137 H   0  0  0  0  0  0  0  0  0  0  0  0
   -2.5188    2.3293   -2.0777 H   0  0  0  0  0  0  0  0  0  0  0  0
   -1.2122    1.8208   -0.4444 H   0  0  0  0  0  0  0  0  0  0  0  0
    1.9814    0.4144   -1.8234 H   0  0  0  0  0  0  0  0  0  0  0  0
    2.2915   -2.4602   -0.0800 H   0  0  0  0  0  0  0  0  0  0  0  0
    3.8809   -2.7107    0.6876 H   0  0  0  0  0  0  0  0  0  0  0  0
    2.8456   -4.2355   -1.7676 H   0  0  0  0  0  0  0  0  0  0  0  0
    2.9006   -4.8605   -0.1170 H   0  0  0  0  0  0  0  0  0  0  0  0
    6.1364   -3.2516   -0.4806 H   0  0  0  0  0  0  0  0  0  0  0  0
    6.4009   -4.0444   -2.0356 H   0  0  0  0  0  0  0  0  0  0  0  0
    5.7151   -1.7079   -2.4524 H   0  0  0  0  0  0  0  0  0  0  0  0
    4.4394   -2.7849   -3.0120 H   0  0  0  0  0  0  0  0  0  0  0  0
    3.6907    0.4647    2.1262 H   0  0  0  0  0  0  0  0  0  0  0  0
    1.6104    1.3928    3.0458 H   0  0  0  0  0  0  0  0  0  0  0  0
   -1.5608    0.0837    1.8417 H   0  0  0  0  0  0  0  0  0  0  0  0
   -0.8546    0.7571    3.3294 H   0  0  0  0  0  0  0  0  0  0  0  0
   -3.3756    1.8060    1.9035 H   0  0  0  0  0  0  0  0  0  0  0  0
   -3.3213    0.9102    3.4308 H   0  0  0  0  0  0  0  0  0  0  0  0
   -2.4673    4.0471    1.8514 H   0  0  0  0  0  0  0  0  0  0  0  0
   -1.7773    4.7059    3.3448 H   0  0  0  0  0  0  0  0  0  0  0  0
    0.0294    4.0088    1.7413 H   0  0  0  0  0  0  0  0  0  0  0  0
    0.0899    3.1033    3.2767 H   0  0  0  0  0  0  0  0  0  0  0  0
  1  2  1  0
  2  3  2  0
  3  4  1  0
  4  5  2  0
  5  6  1  0
  6  7  2  0
  7  8  1  0
  8  9  1  0
  9 10  1  0
 10 11  2  0
 10 12  1  0
 12 13  1  0
 13 14  2  0
 14 15  1  0
 15 16  1  0
 16 17  2  0
 16 18  2  0
 16 19  1  0
 19 20  1  0
 20 21  1  0
 21 22  1  0
 22 23  1  0
 23 24  1  0
 15 25  2  0
 25 26  1  0
 26 27  2  0
 27 28  1  0
 28 29  1  0
 29 30  1  0
 30 31  1  0
 31 32  1  0
 32 33  1  0
  7  2  1  0
 27 13  1  0
 33 28  1  0
 24 19  1  0
  1 34  1  0
  1 35  1  0
  1 36  1  0
  3 37  1  0
  4 38  1  0
  5 39  1  0
  6 40  1  0
  9 41  1  0
  9 42  1  0
 12 43  1  0
 14 44  1  0
 20 45  1  0
 20 46  1  0
 21 47  1  0
 21 48  1  0
 23 49  1  0
 23 50  1  0
 24 51  1  0
 24 52  1  0
 25 53  1  0
 26 54  1  0
 29 55  1  0
 29 56  1  0
 30 57  1  0
 30 58  1  0
 32 59  1  0
 32 60  1  0
 33 61  1  0
 33 62  1  0
M  END
$$$$
