
     RDKit          3D

 57 60  0  0  0  0  0  0  0  0999 V2000
   -8.7141    1.2535    2.5996 C   0  0  0  0  0  0  0  0  0  0  0  0
   -8.1321    2.0658    1.4527 C   0  0  0  0  0  0  0  0  0  0  0  0
   -6.8289    1.4887    0.9629 C   0  0  0  0  0  0  0  0  0  0  0  0
   -6.8144    0.4818   -0.0050 C   0  0  0  0  0  0  0  0  0  0  0  0
   -5.6020   -0.0684   -0.4398 C   0  0  0  0  0  0  0  0  0  0  0  0
   -4.3617    0.3588    0.0735 C   0  0  0  0  0  0  0  0  0  0  0  0
   -3.0953   -0.2543   -0.4013 C   0  0  0  0  0  0  0  0  0  0  0  0
   -1.8893   -0.1467    0.2696 C   0  0  0  0  0  0  0  0  0  0  0  0
   -0.7597   -0.7646   -0.2724 C   0  0  0  0  0  0  0  0  0  0  0  0
    0.5120   -0.5481    0.4567 C   0  0  0  0  0  0  0  0  0  0  0  0
    0.5604   -0.8667    1.6370 O   0  0  0  0  0  0  0  0  0  0  0  0
    1.4989    0.0540   -0.3000 N   0  0  0  0  0  0  0  0  0  0  0  0
    2.7968    0.4141    0.1151 C   0  0  0  0  0  0  0  0  0  0  0  0
    3.2818    0.2225    1.4119 C   0  0  0  0  0  0  0  0  0  0  0  0
    4.5820    0.6136    1.7505 C   0  0  0  0  0  0  0  0  0  0  0  0
    5.4073    1.1862    0.7808 C   0  0  0  0  0  0  0  0  0  0  0  0
    7.0406    1.7183    1.2199 S   0  0  0  0  0  6  0  0  0  0  0  0
    7.5072    2.6802    0.2484 O   0  0  0  0  0  0  0  0  0  0  0  0
    7.0272    2.0394    2.6334 O   0  0  0  0  0  0  0  0  0  0  0  0
    7.9436    0.3304    1.0993 N   0  0  0  0  0  0  0  0  0  0  0  0
    8.1768   -0.3856   -0.0799 C   0  0  0  0  0  0  0  0  0  0  0  0
    9.0846   -1.5710    0.0989 C   0  0  0  0  0  0  0  0  0  0  0  0
    7.6713   -0.1000   -1.1547 O   0  0  0  0  0  0  0  0  0  0  0  0
    4.9336    1.3941   -0.5150 C   0  0  0  0  0  0  0  0  0  0  0  0
    3.6324    1.0050   -0.8437 C   0  0  0  0  0  0  0  0  0  0  0  0
   -0.8387   -1.5367   -1.4500 C   0  0  0  0  0  0  0  0  0  0  0  0
    0.2331   -2.2682   -2.0260 C   0  0  0  0  0  0  0  0  0  0  0  0
    0.0572   -2.9950   -3.2018 C   0  0  0  0  0  0  0  0  0  0  0  0
   -1.1871   -3.0085   -3.8142 C   0  0  0  0  0  0  0  0  0  0  0  0
   -2.2485   -2.3069   -3.2386 C   0  0  0  0  0  0  0  0  0  0  0  0
   -2.1012   -1.5806   -2.0640 C   0  0  0  0  0  0  0  0  0  0  0  0
   -3.1789   -0.9533   -1.5636 N   0  0  0  0  0  0  0  0  0  0  0  0
   -4.4006    1.3787    1.0430 C   0  0  0  0  0  0  0  0  0  0  0  0
   -5.6116    1.9304    1.4856 C   0  0  0  0  0  0  0  0  0  0  0  0
   -8.0231    1.2120    3.4487 H   0  0  0  0  0  0  0  0  0  0  0  0
   -9.6498    1.7043    2.9455 H   0  0  0  0  0  0  0  0  0  0  0  0
   -8.9278    0.2251    2.2897 H   0  0  0  0  0  0  0  0  0  0  0  0
   -7.9808    3.1037    1.7738 H   0  0  0  0  0  0  0  0  0  0  0  0
   -8.8500    2.1067    0.6245 H   0  0  0  0  0  0  0  0  0  0  0  0
   -7.7444    0.1117   -0.4300 H   0  0  0  0  0  0  0  0  0  0  0  0
   -5.6345   -0.8521   -1.1959 H   0  0  0  0  0  0  0  0  0  0  0  0
   -1.7992    0.3967    1.2044 H   0  0  0  0  0  0  0  0  0  0  0  0
    1.2626    0.2843   -1.2591 H   0  0  0  0  0  0  0  0  0  0  0  0
    2.6684   -0.2211    2.1902 H   0  0  0  0  0  0  0  0  0  0  0  0
    4.9327    0.4721    2.7702 H   0  0  0  0  0  0  0  0  0  0  0  0
    8.3358    0.0353    1.9877 H   0  0  0  0  0  0  0  0  0  0  0  0
    8.6202   -2.2868    0.7831 H   0  0  0  0  0  0  0  0  0  0  0  0
    9.2546   -2.0572   -0.8654 H   0  0  0  0  0  0  0  0  0  0  0  0
   10.0468   -1.2440    0.5036 H   0  0  0  0  0  0  0  0  0  0  0  0
    5.5714    1.8461   -1.2729 H   0  0  0  0  0  0  0  0  0  0  0  0
    3.2861    1.1727   -1.8606 H   0  0  0  0  0  0  0  0  0  0  0  0
    1.2114   -2.2972   -1.5488 H   0  0  0  0  0  0  0  0  0  0  0  0
    0.8851   -3.5556   -3.6290 H   0  0  0  0  0  0  0  0  0  0  0  0
   -1.3429   -3.5727   -4.7304 H   0  0  0  0  0  0  0  0  0  0  0  0
   -3.2260   -2.3352   -3.7169 H   0  0  0  0  0  0  0  0  0  0  0  0
   -3.4871    1.7784    1.4757 H   0  0  0  0  0  0  0  0  0  0  0  0
   -5.5921    2.7117    2.2436 H   0  0  0  0  0  0  0  0  0  0  0  0
  1  2  1  0
  2  3  1  0
  3  4  2  0
  4  5  1  0
  5  6  2  0
  6  7  1  0
  7  8  2  0
  8  9  1  0
  9 10  1  0
 10 11  2  0
 10 12  1  0
 12 13  1  0
 13 14  2  0
 14 15  1  0
 15 16  2  0
 16 17  1  0
 17 18  2  0
 17 19  2  0
 17 20  1  0
 20 21  1  0
 21 22  1  0
 21 23  2  0
 16 24  1  0
 24 25  2  0
  9 26  2  0
 26 27  1  0
 27 28  2  0
 28 29  1  0
 29 30  2  0
 30 31  1  0
 31 32  2  0
  6 33  1  0
 33 34  2  0
 34  3  1  0
 32  7  1  0
 25 13  1  0
 31 26  1  0
  1 35  1  0
  1 36  1  0
  1 37  1  0
  2 38  1  0
  2 39  1  0
  4 40  1  0
  5 41  1  0
  8 42  1  0
 12 43  1  0
 14 44  1  0
 15 45  1  0
 20 46  1  0
 22 47  1  0
 22 48  1  0
 22 49  1  0
 24 50  1  0
 25 51  1  0
 27 52  1  0
 28 53  1  0
 29 54  1  0
 30 55  1  0
 33 56  1  0
 34 57  1  0
M  END
$$$$
