
     RDKit          3D

 69 75  0  0  0  0  0  0  0  0999 V2000
   -4.2513    5.0662    2.4435 C   0  0  0  0  0  0  0  0  0  0  0  0
   -3.7741    4.2726    1.2649 C   0  0  0  0  0  0  0  0  0  0  0  0
   -4.2049    4.5648   -0.0436 C   0  0  0  0  0  0  0  0  0  0  0  0
   -5.3110    5.8599   -0.3541 Cl  0  0  0  0  0  0  0  0  0  0  0  0
   -3.7547    3.8236   -1.1547 C   0  0  0  0  0  0  0  0  0  0  0  0
   -2.8644    2.7624   -0.9925 C   0  0  0  0  0  0  0  0  0  0  0  0
   -2.4446    2.4569    0.2916 C   0  0  0  0  0  0  0  0  0  0  0  0
   -2.8900    3.2079    1.3911 C   0  0  0  0  0  0  0  0  0  0  0  0
   -2.3033    2.7205    2.5595 N   0  0  0  0  0  0  0  0  0  0  0  0
   -1.4592    1.6370    2.3051 C   0  0  0  0  0  0  0  0  0  0  0  0
   -0.8137    1.0415    3.1553 O   0  0  0  0  0  0  0  0  0  0  0  0
   -1.5044    1.3940    0.7776 C   0  0  1  0  0  0  0  0  0  0  0  0
   -2.0144    0.0462    0.4103 C   0  0  0  0  0  0  0  0  0  0  0  0
   -0.9561   -0.7756   -0.0187 C   0  0  0  0  0  0  0  0  0  0  0  0
   -1.4596   -2.0005   -0.3644 C   0  0  0  0  0  0  0  0  0  0  0  0
   -0.8328   -3.1063   -0.7583 O   0  0  0  0  0  0  0  0  0  0  0  0
   -2.8505   -1.9572   -0.1309 N   0  0  0  0  0  0  0  0  0  0  0  0
   -3.7601   -3.0542   -0.2658 C   0  0  0  0  0  0  0  0  0  0  0  0
   -3.5616   -4.0266   -1.2539 C   0  0  0  0  0  0  0  0  0  0  0  0
   -4.4609   -5.0879   -1.3872 C   0  0  0  0  0  0  0  0  0  0  0  0
   -5.5547   -5.1922   -0.5303 C   0  0  0  0  0  0  0  0  0  0  0  0
   -5.7489   -4.2394    0.4673 C   0  0  0  0  0  0  0  0  0  0  0  0
   -4.8552   -3.1743    0.6032 C   0  0  0  0  0  0  0  0  0  0  0  0
   -3.1844   -0.6551    0.2991 C   0  0  0  0  0  0  0  0  0  0  0  0
   -4.4266   -0.2116    0.4883 O   0  0  0  0  0  0  0  0  0  0  0  0
    0.3222   -0.0431    0.1065 C   0  0  1  0  0  0  0  0  0  0  0  0
    1.3759   -0.1672   -0.9989 C   0  0  0  0  0  0  0  0  0  0  0  0
    2.4739    0.7866   -0.7091 N   0  0  0  0  0  0  0  0  0  0  0  0
    3.5877    0.4179    0.0348 C   0  0  0  0  0  0  0  0  0  0  0  0
    4.1807    1.1893    0.7815 O   0  0  0  0  0  0  0  0  0  0  0  0
    3.9682   -0.8870   -0.1437 N   0  0  0  0  0  0  0  0  0  0  0  0
    5.1564   -1.4043    0.5041 C   0  0  0  0  0  0  0  0  0  0  0  0
    6.3394   -1.3833   -0.4310 C   0  0  0  0  0  0  0  0  0  0  0  0
    7.0303   -0.1869   -0.6711 C   0  0  0  0  0  0  0  0  0  0  0  0
    8.1110   -0.1565   -1.5535 C   0  0  0  0  0  0  0  0  0  0  0  0
    8.5110   -1.3204   -2.2065 C   0  0  0  0  0  0  0  0  0  0  0  0
    7.8294   -2.5148   -1.9801 C   0  0  0  0  0  0  0  0  0  0  0  0
    6.7464   -2.5468   -1.0992 C   0  0  0  0  0  0  0  0  0  0  0  0
    2.0111    2.1807   -0.5653 C   0  0  0  0  0  0  0  0  0  0  0  0
    0.8616    2.3102    0.4726 C   0  0  0  0  0  0  0  0  0  0  0  0
   -0.1863    1.3668    0.1060 N   0  0  0  0  0  0  0  0  0  0  0  0
   -3.9890    6.1224    2.3231 H   0  0  0  0  0  0  0  0  0  0  0  0
   -3.8035    4.7321    3.3834 H   0  0  0  0  0  0  0  0  0  0  0  0
   -5.3367    4.9701    2.5511 H   0  0  0  0  0  0  0  0  0  0  0  0
   -4.1035    4.0757   -2.1539 H   0  0  0  0  0  0  0  0  0  0  0  0
   -2.5164    2.1875   -1.8451 H   0  0  0  0  0  0  0  0  0  0  0  0
   -2.4512    3.0714    3.4929 H   0  0  0  0  0  0  0  0  0  0  0  0
    0.1238   -2.9641   -0.6580 H   0  0  0  0  0  0  0  0  0  0  0  0
   -2.7318   -3.9635   -1.9527 H   0  0  0  0  0  0  0  0  0  0  0  0
   -4.3057   -5.8337   -2.1628 H   0  0  0  0  0  0  0  0  0  0  0  0
   -6.2488   -6.0224   -0.6330 H   0  0  0  0  0  0  0  0  0  0  0  0
   -6.5882   -4.3346    1.1521 H   0  0  0  0  0  0  0  0  0  0  0  0
   -5.0029   -2.4823    1.4302 H   0  0  0  0  0  0  0  0  0  0  0  0
   -5.0398   -0.7754   -0.0169 H   0  0  0  0  0  0  0  0  0  0  0  0
    0.7693   -0.2825    1.0821 H   0  0  0  0  0  0  0  0  0  0  0  0
    0.9618    0.0921   -1.9815 H   0  0  0  0  0  0  0  0  0  0  0  0
    1.7372   -1.1970   -1.0600 H   0  0  0  0  0  0  0  0  0  0  0  0
    3.8262   -1.2187   -1.0854 H   0  0  0  0  0  0  0  0  0  0  0  0
    4.9304   -2.4344    0.8014 H   0  0  0  0  0  0  0  0  0  0  0  0
    5.3828   -0.8473    1.4202 H   0  0  0  0  0  0  0  0  0  0  0  0
    6.7230    0.7303   -0.1702 H   0  0  0  0  0  0  0  0  0  0  0  0
    8.6383    0.7773   -1.7303 H   0  0  0  0  0  0  0  0  0  0  0  0
    9.3536   -1.2956   -2.8928 H   0  0  0  0  0  0  0  0  0  0  0  0
    8.1425   -3.4222   -2.4899 H   0  0  0  0  0  0  0  0  0  0  0  0
    6.2255   -3.4872   -0.9355 H   0  0  0  0  0  0  0  0  0  0  0  0
    2.8406    2.8409   -0.2905 H   0  0  0  0  0  0  0  0  0  0  0  0
    1.6553    2.4994   -1.5533 H   0  0  0  0  0  0  0  0  0  0  0  0
    0.4851    3.3384    0.4501 H   0  0  0  0  0  0  0  0  0  0  0  0
    1.2446    2.1092    1.4798 H   0  0  0  0  0  0  0  0  0  0  0  0
  1  2  1  0
  2  3  2  0
  3  4  1  0
  3  5  1  0
  5  6  2  0
  6  7  1  0
  7  8  2  0
  8  9  1  0
  9 10  1  0
 10 11  2  0
 10 12  1  0
 12 13  1  0
 13 14  1  0
 14 15  2  0
 15 16  1  0
 15 17  1  0
 17 18  1  0
 18 19  2  0
 19 20  1  0
 20 21  2  0
 21 22  1  0
 22 23  2  0
 17 24  1  0
 24 25  1  0
 14 26  1  0
 26 27  1  0
 27 28  1  0
 28 29  1  0
 29 30  2  0
 29 31  1  0
 31 32  1  0
 32 33  1  0
 33 34  2  0
 34 35  1  0
 35 36  2  0
 36 37  1  0
 37 38  2  0
 28 39  1  0
 39 40  1  0
 40 41  1  0
  8  2  1  0
 12 41  1  6
 12  7  1  0
 24 13  2  0
 41 26  1  0
 23 18  1  0
 38 33  1  0
  1 42  1  0
  1 43  1  0
  1 44  1  0
  5 45  1  0
  6 46  1  0
  9 47  1  0
 16 48  1  0
 19 49  1  0
 20 50  1  0
 21 51  1  0
 22 52  1  0
 23 53  1  0
 25 54  1  0
 26 55  1  1
 27 56  1  0
 27 57  1  0
 31 58  1  0
 32 59  1  0
 32 60  1  0
 34 61  1  0
 35 62  1  0
 36 63  1  0
 37 64  1  0
 38 65  1  0
 39 66  1  0
 39 67  1  0
 40 68  1  0
 40 69  1  0
M  END
$$$$
