
     RDKit          3D

 55 60  0  0  0  0  0  0  0  0999 V2000
    3.7684    2.5103    0.8097 O   0  0  0  0  0  0  0  0  0  0  0  0
    3.6532    1.2965    0.9667 C   0  0  0  0  0  0  0  0  0  0  0  0
    4.1909    0.6575    2.1581 C   0  0  0  0  0  0  0  0  0  0  0  0
    4.7959   -0.6219    2.3401 C   0  0  0  0  0  0  0  0  0  0  0  0
    5.1633   -0.6993    3.6628 C   0  0  0  0  0  0  0  0  0  0  0  0
    4.8485    0.4515    4.3084 O   0  0  0  0  0  0  0  0  0  0  0  0
    4.2822    1.2751    3.3902 C   0  0  0  0  0  0  0  0  0  0  0  0
    3.0437    0.4819    0.0019 N   0  0  0  0  0  0  0  0  0  0  0  0
    2.2228   -0.6738    0.3491 C   0  0  0  0  0  0  0  0  0  0  0  0
    0.7434   -0.2762    0.4060 C   0  0  0  0  0  0  0  0  0  0  0  0
    0.2536    0.3749   -0.9195 C   0  0  0  0  0  0  0  0  0  0  0  0
    1.2195    1.5560   -1.2414 C   0  0  0  0  0  0  0  0  0  0  0  0
    2.6782    1.1003   -1.2646 C   0  0  0  0  0  0  0  0  0  0  0  0
    0.3850   -0.6622   -1.9248 O   0  0  0  0  0  0  0  0  0  0  0  0
   -0.1919   -0.3999   -3.1355 C   0  0  0  0  0  0  0  0  0  0  0  0
    0.2433   -1.1819   -4.2049 C   0  0  0  0  0  0  0  0  0  0  0  0
   -0.2787   -0.9697   -5.4831 C   0  0  0  0  0  0  0  0  0  0  0  0
   -1.2394    0.0214   -5.6868 C   0  0  0  0  0  0  0  0  0  0  0  0
   -1.8769    0.2776   -7.2630 Cl  0  0  0  0  0  0  0  0  0  0  0  0
   -1.6908    0.7970   -4.6222 C   0  0  0  0  0  0  0  0  0  0  0  0
   -1.1687    0.5733   -3.3442 C   0  0  0  0  0  0  0  0  0  0  0  0
   -1.6620    1.3488   -2.1897 C   0  0  0  0  0  0  0  0  0  0  0  0
   -2.4157    2.2980   -2.3758 O   0  0  0  0  0  0  0  0  0  0  0  0
   -1.2284    0.8376   -0.8203 C   0  0  0  0  0  0  0  0  0  0  0  0
   -2.2329   -0.2294   -0.3965 C   0  0  0  0  0  0  0  0  0  0  0  0
   -2.4512    0.1925    1.0142 C   0  0  0  0  0  0  0  0  0  0  0  0
   -3.1738   -0.6585    1.9880 C   0  0  0  0  0  0  0  0  0  0  0  0
   -3.7950   -1.8513    1.5987 C   0  0  0  0  0  0  0  0  0  0  0  0
   -4.4637   -2.6333    2.5467 C   0  0  0  0  0  0  0  0  0  0  0  0
   -4.5127   -2.2242    3.8787 C   0  0  0  0  0  0  0  0  0  0  0  0
   -5.3339   -3.1919    5.0390 Cl  0  0  0  0  0  0  0  0  0  0  0  0
   -3.9014   -1.0368    4.2735 C   0  0  0  0  0  0  0  0  0  0  0  0
   -3.2332   -0.2534    3.3285 C   0  0  0  0  0  0  0  0  0  0  0  0
   -1.9612    1.3509    1.3153 N   0  0  0  0  0  0  0  0  0  0  0  0
   -1.3674    1.8818    0.1474 O   0  0  0  0  0  0  0  0  0  0  0  0
    4.9559   -1.3855    1.5921 H   0  0  0  0  0  0  0  0  0  0  0  0
    5.6459   -1.4560    4.2658 H   0  0  0  0  0  0  0  0  0  0  0  0
    3.9957    2.2542    3.7508 H   0  0  0  0  0  0  0  0  0  0  0  0
    2.3941   -1.4471   -0.4083 H   0  0  0  0  0  0  0  0  0  0  0  0
    2.4960   -1.0970    1.3163 H   0  0  0  0  0  0  0  0  0  0  0  0
    0.1708   -1.1845    0.6248 H   0  0  0  0  0  0  0  0  0  0  0  0
    0.6032    0.4191    1.2422 H   0  0  0  0  0  0  0  0  0  0  0  0
    0.9960    2.0034   -2.2156 H   0  0  0  0  0  0  0  0  0  0  0  0
    1.1013    2.3465   -0.4898 H   0  0  0  0  0  0  0  0  0  0  0  0
    2.8441    0.3614   -2.0572 H   0  0  0  0  0  0  0  0  0  0  0  0
    3.3339    1.9508   -1.4809 H   0  0  0  0  0  0  0  0  0  0  0  0
    0.9979   -1.9498   -4.0502 H   0  0  0  0  0  0  0  0  0  0  0  0
    0.0697   -1.5768   -6.3156 H   0  0  0  0  0  0  0  0  0  0  0  0
   -2.4470    1.5632   -4.7815 H   0  0  0  0  0  0  0  0  0  0  0  0
   -1.8504   -1.2493   -0.4773 H   0  0  0  0  0  0  0  0  0  0  0  0
   -3.1870   -0.1603   -0.9312 H   0  0  0  0  0  0  0  0  0  0  0  0
   -3.7832   -2.1904    0.5671 H   0  0  0  0  0  0  0  0  0  0  0  0
   -4.9472   -3.5578    2.2401 H   0  0  0  0  0  0  0  0  0  0  0  0
   -3.9412   -0.7123    5.3104 H   0  0  0  0  0  0  0  0  0  0  0  0
   -2.7618    0.6752    3.6472 H   0  0  0  0  0  0  0  0  0  0  0  0
  1  2  2  0
  2  3  1  0
  3  4  1  0
  4  5  2  0
  5  6  1  0
  6  7  1  0
  2  8  1  0
  8  9  1  0
  9 10  1  0
 10 11  1  0
 11 12  1  0
 12 13  1  0
 11 14  1  0
 14 15  1  0
 15 16  2  0
 16 17  1  0
 17 18  2  0
 18 19  1  0
 18 20  1  0
 20 21  2  0
 21 22  1  0
 22 23  2  0
 22 24  1  0
 24 25  1  0
 25 26  1  0
 26 27  1  0
 27 28  2  0
 28 29  1  0
 29 30  2  0
 30 31  1  0
 30 32  1  0
 32 33  2  0
 26 34  2  0
 34 35  1  0
  7  3  2  0
 13  8  1  0
 21 15  1  0
 35 24  1  0
 24 11  1  0
 33 27  1  0
  4 36  1  0
  5 37  1  0
  7 38  1  0
  9 39  1  0
  9 40  1  0
 10 41  1  0
 10 42  1  0
 12 43  1  0
 12 44  1  0
 13 45  1  0
 13 46  1  0
 16 47  1  0
 17 48  1  0
 20 49  1  0
 25 50  1  0
 25 51  1  0
 28 52  1  0
 29 53  1  0
 32 54  1  0
 33 55  1  0
M  END
$$$$
