
     RDKit          3D

 74 80  0  0  0  0  0  0  0  0999 V2000
    3.2009    1.6023   -0.9335 O   0  0  0  0  0  0  0  0  0  0  0  0
    2.2814    0.7792   -0.1965 C   0  0  0  0  0  0  0  0  0  0  0  0
    2.8906   -0.5891    0.1814 C   0  0  0  0  0  0  0  0  0  0  0  0
    4.0921   -0.4413    0.9933 N   0  0  0  0  0  0  0  0  0  0  0  0
    5.3359   -0.1531    0.4849 C   0  0  0  0  0  0  0  0  0  0  0  0
    5.4927   -0.0890   -0.8127 N   0  0  0  0  0  0  0  0  0  0  0  0
    6.7603    0.2069   -1.3584 C   0  0  0  0  0  0  0  0  0  0  0  0
    6.8893    0.2456   -2.7482 C   0  0  0  0  0  0  0  0  0  0  0  0
    8.1205    0.5396   -3.3412 C   0  0  0  0  0  0  0  0  0  0  0  0
    9.2378    0.8001   -2.5458 C   0  0  0  0  0  0  0  0  0  0  0  0
    9.1325    0.7654   -1.1549 C   0  0  0  0  0  0  0  0  0  0  0  0
    7.8951    0.4679   -0.5752 C   0  0  0  0  0  0  0  0  0  0  0  0
    7.7016    0.4038    0.8149 N   0  0  0  0  0  0  0  0  0  0  0  0
    8.5990    0.6036    1.8367 C   0  0  0  0  0  0  0  0  0  0  0  0
    7.9392    0.4128    3.0322 C   0  0  0  0  0  0  0  0  0  0  0  0
    6.5950    0.0931    2.7260 C   0  0  0  0  0  0  0  0  0  0  0  0
    6.4692    0.0989    1.3489 C   0  0  0  0  0  0  0  0  0  0  0  0
    1.0191    0.6093   -1.0703 C   0  0  0  0  0  0  0  0  0  0  0  0
   -0.0732   -0.1416   -0.4342 N   0  0  0  0  0  0  0  0  0  0  0  0
   -0.7543    0.6250    0.6296 C   0  0  0  0  0  0  0  0  0  0  0  0
   -2.2578    0.9129    0.3850 C   0  0  0  0  0  0  0  0  0  0  0  0
   -3.0416   -0.3044    0.1090 N   0  0  0  0  0  0  0  0  0  0  0  0
   -4.4405   -0.0314   -0.3172 C   0  0  0  0  0  0  0  0  0  0  0  0
   -5.1698    0.9835    0.5769 C   0  0  0  0  0  0  0  0  0  0  0  0
   -5.3203    2.2946    0.0586 C   0  0  0  0  0  0  0  0  0  0  0  0
   -5.9369    3.3090    0.7893 C   0  0  0  0  0  0  0  0  0  0  0  0
   -6.4198    3.0402    2.0600 C   0  0  0  0  0  0  0  0  0  0  0  0
   -6.2908    1.7566    2.5887 C   0  0  0  0  0  0  0  0  0  0  0  0
   -5.6721    0.7082    1.8680 C   0  0  0  0  0  0  0  0  0  0  0  0
   -5.6717   -0.6372    2.5708 C   0  0  0  0  0  0  0  0  0  0  0  0
   -4.9962   -1.8576    1.9495 C   0  0  0  0  0  0  0  0  0  0  0  0
   -5.5311   -2.1753    0.5786 C   0  0  0  0  0  0  0  0  0  0  0  0
   -6.3030   -3.3288    0.3722 C   0  0  0  0  0  0  0  0  0  0  0  0
   -6.8364   -3.6113   -0.8846 C   0  0  0  0  0  0  0  0  0  0  0  0
   -6.6106   -2.7420   -1.9468 C   0  0  0  0  0  0  0  0  0  0  0  0
   -5.8429   -1.5935   -1.7547 C   0  0  0  0  0  0  0  0  0  0  0  0
   -5.2857   -1.2987   -0.4957 C   0  0  0  0  0  0  0  0  0  0  0  0
   -2.3185   -1.2068   -0.8141 C   0  0  0  0  0  0  0  0  0  0  0  0
   -1.0357   -0.6157   -1.4435 C   0  0  0  0  0  0  0  0  0  0  0  0
    4.0017    1.0609   -1.1127 H   0  0  0  0  0  0  0  0  0  0  0  0
    2.0438    1.3336    0.7183 H   0  0  0  0  0  0  0  0  0  0  0  0
    3.1237   -1.1692   -0.7195 H   0  0  0  0  0  0  0  0  0  0  0  0
    2.1676   -1.1753    0.7587 H   0  0  0  0  0  0  0  0  0  0  0  0
    3.9369   -0.2255    1.9685 H   0  0  0  0  0  0  0  0  0  0  0  0
    6.0223    0.0443   -3.3718 H   0  0  0  0  0  0  0  0  0  0  0  0
    8.2044    0.5650   -4.4243 H   0  0  0  0  0  0  0  0  0  0  0  0
   10.1926    1.0291   -3.0135 H   0  0  0  0  0  0  0  0  0  0  0  0
   10.0152    0.9681   -0.5574 H   0  0  0  0  0  0  0  0  0  0  0  0
    9.6313    0.8601    1.6467 H   0  0  0  0  0  0  0  0  0  0  0  0
    8.3817    0.4945    4.0169 H   0  0  0  0  0  0  0  0  0  0  0  0
    5.8081   -0.1207    3.4376 H   0  0  0  0  0  0  0  0  0  0  0  0
    1.3351    0.0920   -1.9867 H   0  0  0  0  0  0  0  0  0  0  0  0
    0.6678    1.5943   -1.4079 H   0  0  0  0  0  0  0  0  0  0  0  0
   -0.6615    0.0428    1.5554 H   0  0  0  0  0  0  0  0  0  0  0  0
   -0.2554    1.5825    0.8228 H   0  0  0  0  0  0  0  0  0  0  0  0
   -2.6392    1.4082    1.2866 H   0  0  0  0  0  0  0  0  0  0  0  0
   -2.3443    1.6266   -0.4469 H   0  0  0  0  0  0  0  0  0  0  0  0
   -4.3653    0.4257   -1.3153 H   0  0  0  0  0  0  0  0  0  0  0  0
   -4.9446    2.5346   -0.9346 H   0  0  0  0  0  0  0  0  0  0  0  0
   -6.0400    4.3034    0.3641 H   0  0  0  0  0  0  0  0  0  0  0  0
   -6.9033    3.8217    2.6399 H   0  0  0  0  0  0  0  0  0  0  0  0
   -6.6925    1.5641    3.5834 H   0  0  0  0  0  0  0  0  0  0  0  0
   -5.2143   -0.4892    3.5583 H   0  0  0  0  0  0  0  0  0  0  0  0
   -6.7245   -0.8994    2.7494 H   0  0  0  0  0  0  0  0  0  0  0  0
   -3.9089   -1.7440    1.9267 H   0  0  0  0  0  0  0  0  0  0  0  0
   -5.1669   -2.7150    2.6147 H   0  0  0  0  0  0  0  0  0  0  0  0
   -6.4993   -4.0121    1.1950 H   0  0  0  0  0  0  0  0  0  0  0  0
   -7.4331   -4.5068   -1.0333 H   0  0  0  0  0  0  0  0  0  0  0  0
   -7.0333   -2.9561   -2.9249 H   0  0  0  0  0  0  0  0  0  0  0  0
   -5.6802   -0.9272   -2.5988 H   0  0  0  0  0  0  0  0  0  0  0  0
   -2.0416   -2.1012   -0.2400 H   0  0  0  0  0  0  0  0  0  0  0  0
   -2.9476   -1.5591   -1.6400 H   0  0  0  0  0  0  0  0  0  0  0  0
   -1.3201    0.2016   -2.1238 H   0  0  0  0  0  0  0  0  0  0  0  0
   -0.5597   -1.3940   -2.0550 H   0  0  0  0  0  0  0  0  0  0  0  0
  1  2  1  0
  2  3  1  0
  3  4  1  0
  4  5  1  0
  5  6  2  0
  6  7  1  0
  7  8  2  0
  8  9  1  0
  9 10  2  0
 10 11  1  0
 11 12  2  0
 12 13  1  0
 13 14  1  0
 14 15  2  0
 15 16  1  0
 16 17  2  0
  2 18  1  0
 18 19  1  0
 19 20  1  0
 20 21  1  0
 21 22  1  0
 22 23  1  0
 23 24  1  0
 24 25  2  0
 25 26  1  0
 26 27  2  0
 27 28  1  0
 28 29  2  0
 29 30  1  0
 30 31  1  0
 31 32  1  0
 32 33  2  0
 33 34  1  0
 34 35  2  0
 35 36  1  0
 36 37  2  0
 22 38  1  0
 38 39  1  0
 17  5  1  0
 39 19  1  0
 12  7  1  0
 17 13  1  0
 37 23  1  0
 29 24  1  0
 37 32  1  0
  1 40  1  0
  2 41  1  0
  3 42  1  0
  3 43  1  0
  4 44  1  0
  8 45  1  0
  9 46  1  0
 10 47  1  0
 11 48  1  0
 14 49  1  0
 15 50  1  0
 16 51  1  0
 18 52  1  0
 18 53  1  0
 20 54  1  0
 20 55  1  0
 21 56  1  0
 21 57  1  0
 23 58  1  0
 25 59  1  0
 26 60  1  0
 27 61  1  0
 28 62  1  0
 30 63  1  0
 30 64  1  0
 31 65  1  0
 31 66  1  0
 33 67  1  0
 34 68  1  0
 35 69  1  0
 36 70  1  0
 38 71  1  0
 38 72  1  0
 39 73  1  0
 39 74  1  0
M  END
$$$$
