
     RDKit          3D

 52 54  0  0  0  0  0  0  0  0999 V2000
   -4.8370   -0.9680    1.7220 C   0  0  0  0  0  0  0  0  0  0  0  0
   -4.3987   -1.4446    0.4178 N   0  0  0  0  0  0  0  0  0  0  0  0
   -5.4124   -1.5150   -0.6342 C   0  0  0  0  0  0  0  0  0  0  0  0
   -5.9240   -0.1515   -1.0395 C   0  0  0  0  0  0  0  0  0  0  0  0
   -5.0833    0.7548   -1.7019 C   0  0  0  0  0  0  0  0  0  0  0  0
   -5.5500    2.0183   -2.0673 C   0  0  0  0  0  0  0  0  0  0  0  0
   -6.8616    2.3887   -1.7773 C   0  0  0  0  0  0  0  0  0  0  0  0
   -7.7075    1.4964   -1.1216 C   0  0  0  0  0  0  0  0  0  0  0  0
   -7.2424    0.2323   -0.7536 C   0  0  0  0  0  0  0  0  0  0  0  0
   -3.0606   -1.5667    0.0524 C   0  0  0  0  0  0  0  0  0  0  0  0
   -2.7154   -1.9066   -1.0831 O   0  0  0  0  0  0  0  0  0  0  0  0
   -2.0074   -1.2769    1.1316 C   0  0  0  0  0  0  0  0  0  0  0  0
   -0.6814   -1.2709    0.5994 O   0  0  0  0  0  0  0  0  0  0  0  0
   -0.3745   -0.1476   -0.1142 C   0  0  0  0  0  0  0  0  0  0  0  0
   -1.1198    0.8132   -0.2662 O   0  0  0  0  0  0  0  0  0  0  0  0
    0.9890   -0.2689   -0.7655 C   0  0  0  0  0  0  0  0  0  0  0  0
    1.8948   -1.2370   -0.1164 N   0  0  0  0  0  0  0  0  0  0  0  0
    2.5767   -0.7828    1.3514 S   0  0  0  0  0  6  0  0  0  0  0  0
    1.7195    0.2046    1.9674 O   0  0  0  0  0  0  0  0  0  0  0  0
    2.9384   -2.0083    2.0277 O   0  0  0  0  0  0  0  0  0  0  0  0
    4.0739    0.0049    0.8223 C   0  0  0  0  0  0  0  0  0  0  0  0
    4.1745    1.3957    0.8443 C   0  0  0  0  0  0  0  0  0  0  0  0
    5.3638    2.0029    0.4375 C   0  0  0  0  0  0  0  0  0  0  0  0
    6.4582    1.2292    0.0155 C   0  0  0  0  0  0  0  0  0  0  0  0
    7.6594    1.8282   -0.3951 C   0  0  0  0  0  0  0  0  0  0  0  0
    8.7411    1.0484   -0.8073 C   0  0  0  0  0  0  0  0  0  0  0  0
    8.6365   -0.3394   -0.8143 C   0  0  0  0  0  0  0  0  0  0  0  0
    7.4497   -0.9519   -0.4094 C   0  0  0  0  0  0  0  0  0  0  0  0
    6.3520   -0.1826    0.0075 C   0  0  0  0  0  0  0  0  0  0  0  0
    5.1536   -0.7856    0.4172 C   0  0  0  0  0  0  0  0  0  0  0  0
   -5.8286   -1.3713    1.9472 H   0  0  0  0  0  0  0  0  0  0  0  0
   -4.1525   -1.2902    2.5095 H   0  0  0  0  0  0  0  0  0  0  0  0
   -4.8740    0.1253    1.7081 H   0  0  0  0  0  0  0  0  0  0  0  0
   -6.2316   -2.1417   -0.2606 H   0  0  0  0  0  0  0  0  0  0  0  0
   -5.0236   -2.0231   -1.5244 H   0  0  0  0  0  0  0  0  0  0  0  0
   -4.0551    0.4799   -1.9334 H   0  0  0  0  0  0  0  0  0  0  0  0
   -4.8873    2.7118   -2.5779 H   0  0  0  0  0  0  0  0  0  0  0  0
   -7.2235    3.3724   -2.0637 H   0  0  0  0  0  0  0  0  0  0  0  0
   -8.7311    1.7852   -0.8973 H   0  0  0  0  0  0  0  0  0  0  0  0
   -7.9171   -0.4507   -0.2429 H   0  0  0  0  0  0  0  0  0  0  0  0
   -2.0488   -2.0835    1.8706 H   0  0  0  0  0  0  0  0  0  0  0  0
   -2.2135   -0.3288    1.6402 H   0  0  0  0  0  0  0  0  0  0  0  0
    0.8300   -0.5987   -1.7973 H   0  0  0  0  0  0  0  0  0  0  0  0
    1.4612    0.7179   -0.7945 H   0  0  0  0  0  0  0  0  0  0  0  0
    1.5570   -2.2008   -0.0834 H   0  0  0  0  0  0  0  0  0  0  0  0
    3.3422    2.0125    1.1754 H   0  0  0  0  0  0  0  0  0  0  0  0
    5.4338    3.0885    0.4557 H   0  0  0  0  0  0  0  0  0  0  0  0
    7.7634    2.9112   -0.3947 H   0  0  0  0  0  0  0  0  0  0  0  0
    9.6656    1.5258   -1.1215 H   0  0  0  0  0  0  0  0  0  0  0  0
    9.4797   -0.9468   -1.1331 H   0  0  0  0  0  0  0  0  0  0  0  0
    7.3898   -2.0381   -0.4191 H   0  0  0  0  0  0  0  0  0  0  0  0
    5.0591   -1.8698    0.4215 H   0  0  0  0  0  0  0  0  0  0  0  0
  1  2  1  0
  2  3  1  0
  3  4  1  0
  4  5  2  0
  5  6  1  0
  6  7  2  0
  7  8  1  0
  8  9  2  0
  2 10  1  0
 10 11  2  0
 10 12  1  0
 12 13  1  0
 13 14  1  0
 14 15  2  0
 14 16  1  0
 16 17  1  0
 17 18  1  0
 18 19  2  0
 18 20  2  0
 18 21  1  0
 21 22  2  0
 22 23  1  0
 23 24  2  0
 24 25  1  0
 25 26  2  0
 26 27  1  0
 27 28  2  0
 28 29  1  0
 29 30  2  0
  9  4  1  0
 30 21  1  0
 29 24  1  0
  1 31  1  0
  1 32  1  0
  1 33  1  0
  3 34  1  0
  3 35  1  0
  5 36  1  0
  6 37  1  0
  7 38  1  0
  8 39  1  0
  9 40  1  0
 12 41  1  0
 12 42  1  0
 16 43  1  0
 16 44  1  0
 17 45  1  0
 22 46  1  0
 23 47  1  0
 25 48  1  0
 26 49  1  0
 27 50  1  0
 28 51  1  0
 30 52  1  0
M  END
$$$$
