
     RDKit          3D

 52 54  0  0  0  0  0  0  0  0999 V2000
    6.9394   -1.9270   -4.8402 C   0  0  0  0  0  0  0  0  0  0  0  0
    6.3630   -1.7904   -3.4624 C   0  0  0  0  0  0  0  0  0  0  0  0
    6.1095   -2.9249   -2.6835 C   0  0  0  0  0  0  0  0  0  0  0  0
    5.6009   -2.7973   -1.3884 C   0  0  0  0  0  0  0  0  0  0  0  0
    5.3541   -1.5308   -0.8431 C   0  0  0  0  0  0  0  0  0  0  0  0
    4.7834   -1.3867    0.5430 C   0  0  0  0  0  0  0  0  0  0  0  0
    3.3478   -1.2941    0.4994 N   0  0  0  0  0  0  0  0  0  0  0  0
    2.6863   -0.0902    0.5098 C   0  0  0  0  0  0  0  0  0  0  0  0
    3.1827    1.0129    0.6922 O   0  0  0  0  0  0  0  0  0  0  0  0
    1.1675   -0.2200    0.2515 C   0  0  0  0  0  0  0  0  0  0  0  0
    0.6667   -1.3222    0.0758 O   0  0  0  0  0  0  0  0  0  0  0  0
    0.5085    0.9891    0.2405 N   0  0  0  0  0  0  0  0  0  0  0  0
   -0.9406    1.0716    0.2205 C   0  0  0  0  0  0  0  0  0  0  0  0
   -1.5751    1.0790    1.6314 C   0  0  0  0  0  0  0  0  0  0  0  0
   -1.2065   -0.1099    2.3601 O   0  0  0  0  0  0  0  0  0  0  0  0
   -2.3433   -0.9739    2.3461 C   0  0  0  0  0  0  0  0  0  0  0  0
   -3.5159   -0.0219    2.3903 C   0  0  0  0  0  0  0  0  0  0  0  0
   -3.0524    1.0704    1.5217 N   0  0  0  0  0  0  0  0  0  0  0  0
   -3.7597    2.5870    1.7052 S   0  0  0  0  0  6  0  0  0  0  0  0
   -3.7218    2.9296    3.1101 O   0  0  0  0  0  0  0  0  0  0  0  0
   -3.1878    3.4622    0.7054 O   0  0  0  0  0  0  0  0  0  0  0  0
   -5.4457    2.2755    1.2448 C   0  0  0  0  0  0  0  0  0  0  0  0
   -5.7484    2.0359   -0.0999 C   0  0  0  0  0  0  0  0  0  0  0  0
   -7.0713    1.7937   -0.4738 C   0  0  0  0  0  0  0  0  0  0  0  0
   -8.0764    1.7998    0.4949 C   0  0  0  0  0  0  0  0  0  0  0  0
   -9.8672    1.4706   -0.0139 Br  0  0  0  0  0  0  0  0  0  0  0  0
   -7.7741    2.0491    1.8350 C   0  0  0  0  0  0  0  0  0  0  0  0
   -6.4526    2.2918    2.2148 C   0  0  0  0  0  0  0  0  0  0  0  0
    5.6128   -0.3960   -1.6233 C   0  0  0  0  0  0  0  0  0  0  0  0
    6.1208   -0.5246   -2.9179 C   0  0  0  0  0  0  0  0  0  0  0  0
    6.6062   -2.8571   -5.3127 H   0  0  0  0  0  0  0  0  0  0  0  0
    8.0326   -1.9273   -4.7901 H   0  0  0  0  0  0  0  0  0  0  0  0
    6.6145   -1.1023   -5.4833 H   0  0  0  0  0  0  0  0  0  0  0  0
    6.3037   -3.9180   -3.0826 H   0  0  0  0  0  0  0  0  0  0  0  0
    5.4015   -3.6951   -0.8078 H   0  0  0  0  0  0  0  0  0  0  0  0
    5.0384   -2.2598    1.1536 H   0  0  0  0  0  0  0  0  0  0  0  0
    5.2086   -0.5072    1.0399 H   0  0  0  0  0  0  0  0  0  0  0  0
    2.8010   -2.1028    0.2190 H   0  0  0  0  0  0  0  0  0  0  0  0
    1.0666    1.8058    0.4779 H   0  0  0  0  0  0  0  0  0  0  0  0
   -1.2004    1.9851   -0.3229 H   0  0  0  0  0  0  0  0  0  0  0  0
   -1.3232    0.2199   -0.3544 H   0  0  0  0  0  0  0  0  0  0  0  0
   -1.2006    1.9283    2.2132 H   0  0  0  0  0  0  0  0  0  0  0  0
   -2.3128   -1.6542    3.2011 H   0  0  0  0  0  0  0  0  0  0  0  0
   -2.3265   -1.5592    1.4200 H   0  0  0  0  0  0  0  0  0  0  0  0
   -4.4310   -0.4876    2.0178 H   0  0  0  0  0  0  0  0  0  0  0  0
   -3.6695    0.3328    3.4148 H   0  0  0  0  0  0  0  0  0  0  0  0
   -4.9634    2.0392   -0.8533 H   0  0  0  0  0  0  0  0  0  0  0  0
   -7.3087    1.6068   -1.5183 H   0  0  0  0  0  0  0  0  0  0  0  0
   -8.5598    2.0616    2.5868 H   0  0  0  0  0  0  0  0  0  0  0  0
   -6.2211    2.4948    3.2583 H   0  0  0  0  0  0  0  0  0  0  0  0
    5.4170    0.5979   -1.2237 H   0  0  0  0  0  0  0  0  0  0  0  0
    6.3219    0.3722   -3.4998 H   0  0  0  0  0  0  0  0  0  0  0  0
  1  2  1  0
  2  3  2  0
  3  4  1  0
  4  5  2  0
  5  6  1  0
  6  7  1  0
  7  8  1  0
  8  9  2  0
  8 10  1  0
 10 11  2  0
 10 12  1  0
 12 13  1  0
 13 14  1  0
 14 15  1  0
 15 16  1  0
 16 17  1  0
 17 18  1  0
 18 19  1  0
 19 20  2  0
 19 21  2  0
 19 22  1  0
 22 23  2  0
 23 24  1  0
 24 25  2  0
 25 26  1  0
 25 27  1  0
 27 28  2  0
  5 29  1  0
 29 30  2  0
 30  2  1  0
 18 14  1  0
 28 22  1  0
  1 31  1  0
  1 32  1  0
  1 33  1  0
  3 34  1  0
  4 35  1  0
  6 36  1  0
  6 37  1  0
  7 38  1  0
 12 39  1  0
 13 40  1  0
 13 41  1  0
 14 42  1  0
 16 43  1  0
 16 44  1  0
 17 45  1  0
 17 46  1  0
 23 47  1  0
 24 48  1  0
 27 49  1  0
 28 50  1  0
 29 51  1  0
 30 52  1  0
M  END
$$$$
