
     RDKit          3D

 33 34  0  0  0  0  0  0  0  0999 V2000
   -6.5147    1.4896    0.2652 N   0  0  0  0  0  0  0  0  0  0  0  0
   -5.1644    1.2291    0.5182 C   0  0  0  0  0  0  0  0  0  0  0  0
   -4.3813    0.5811   -0.4404 C   0  0  0  0  0  0  0  0  0  0  0  0
   -3.0034    0.4209   -0.2531 C   0  0  0  0  0  0  0  0  0  0  0  0
   -2.3831    0.9485    0.8853 C   0  0  0  0  0  0  0  0  0  0  0  0
   -0.9229    0.8131    1.1386 C   0  0  0  0  0  0  0  0  0  0  0  0
   -0.3630    1.2717    2.1216 O   0  0  0  0  0  0  0  0  0  0  0  0
   -0.3263    0.1182    0.1382 O   0  0  0  0  0  0  0  0  0  0  0  0
    1.0893   -0.0577    0.3050 C   0  0  0  0  0  0  0  0  0  0  0  0
    1.6137   -0.8478   -0.8908 C   0  0  0  0  0  0  0  0  0  0  0  0
    3.0981   -1.0874   -0.8104 C   0  0  0  0  0  0  0  0  0  0  0  0
    3.9977   -0.1601   -1.3529 C   0  0  0  0  0  0  0  0  0  0  0  0
    5.3739   -0.3731   -1.2603 C   0  0  0  0  0  0  0  0  0  0  0  0
    5.8630   -1.5112   -0.6218 C   0  0  0  0  0  0  0  0  0  0  0  0
    4.9767   -2.4367   -0.0742 C   0  0  0  0  0  0  0  0  0  0  0  0
    3.6001   -2.2257   -0.1657 C   0  0  0  0  0  0  0  0  0  0  0  0
   -3.1553    1.6495    1.8187 C   0  0  0  0  0  0  0  0  0  0  0  0
   -4.5315    1.8048    1.6221 C   0  0  0  0  0  0  0  0  0  0  0  0
   -6.9605    0.8122   -0.3456 H   0  0  0  0  0  0  0  0  0  0  0  0
   -7.0634    1.6753    1.0992 H   0  0  0  0  0  0  0  0  0  0  0  0
   -4.8385    0.1927   -1.3470 H   0  0  0  0  0  0  0  0  0  0  0  0
   -2.4296   -0.1051   -1.0116 H   0  0  0  0  0  0  0  0  0  0  0  0
    1.5753    0.9244    0.3562 H   0  0  0  0  0  0  0  0  0  0  0  0
    1.2814   -0.6034    1.2369 H   0  0  0  0  0  0  0  0  0  0  0  0
    1.3684   -0.3206   -1.8221 H   0  0  0  0  0  0  0  0  0  0  0  0
    1.0823   -1.8056   -0.9664 H   0  0  0  0  0  0  0  0  0  0  0  0
    3.6322    0.7352   -1.8511 H   0  0  0  0  0  0  0  0  0  0  0  0
    6.0649    0.3504   -1.6849 H   0  0  0  0  0  0  0  0  0  0  0  0
    6.9347   -1.6758   -0.5493 H   0  0  0  0  0  0  0  0  0  0  0  0
    5.3579   -3.3230    0.4263 H   0  0  0  0  0  0  0  0  0  0  0  0
    2.9218   -2.9558    0.2703 H   0  0  0  0  0  0  0  0  0  0  0  0
   -2.6887    2.0911    2.6973 H   0  0  0  0  0  0  0  0  0  0  0  0
   -5.1048    2.3816    2.3435 H   0  0  0  0  0  0  0  0  0  0  0  0
  1  2  1  0
  2  3  2  0
  3  4  1  0
  4  5  2  0
  5  6  1  0
  6  7  2  0
  6  8  1  0
  8  9  1  0
  9 10  1  0
 10 11  1  0
 11 12  2  0
 12 13  1  0
 13 14  2  0
 14 15  1  0
 15 16  2  0
  5 17  1  0
 17 18  2  0
 18  2  1  0
 16 11  1  0
  1 19  1  0
  1 20  1  0
  3 21  1  0
  4 22  1  0
  9 23  1  0
  9 24  1  0
 10 25  1  0
 10 26  1  0
 12 27  1  0
 13 28  1  0
 14 29  1  0
 15 30  1  0
 16 31  1  0
 17 32  1  0
 18 33  1  0
M  END
$$$$
