
     RDKit          3D

 68 71  0  0  0  0  0  0  0  0999 V2000
   -4.8131   -4.3017    1.4678 C   0  0  0  0  0  0  0  0  0  0  0  0
   -3.9419   -3.1498    1.0636 C   0  0  0  0  0  0  0  0  0  0  0  0
   -3.9371   -2.6793   -0.2526 C   0  0  0  0  0  0  0  0  0  0  0  0
   -3.1294   -1.5983   -0.6177 C   0  0  0  0  0  0  0  0  0  0  0  0
   -2.3222   -0.9527    0.3320 C   0  0  0  0  0  0  0  0  0  0  0  0
   -1.4218    0.2305   -0.0129 C   0  0  0  0  0  0  0  0  0  0  0  0
   -1.9120    1.0386   -1.2498 C   0  0  0  0  0  0  0  0  0  0  0  0
   -1.3676    0.9884   -2.3530 O   0  0  0  0  0  0  0  0  0  0  0  0
   -3.0550    1.7882   -1.0184 N   0  0  0  0  0  0  0  0  0  0  0  0
   -3.7245    2.5121   -2.0860 C   0  0  0  0  0  0  0  0  0  0  0  0
   -4.7206    3.5249   -1.5298 C   0  0  0  0  0  0  0  0  0  0  0  0
   -5.9770    2.7112   -1.2241 C   0  0  0  0  0  0  0  0  0  0  0  0
   -5.8963    1.4575   -2.0948 C   0  0  0  0  0  0  0  0  0  0  0  0
   -4.6204    1.5984   -2.9198 C   0  0  0  0  0  0  0  0  0  0  0  0
    0.0046   -0.1190   -0.1634 N   0  0  0  0  0  0  0  0  0  0  0  0
    0.3617   -1.2595   -1.0143 C   0  0  0  0  0  0  0  0  0  0  0  0
    0.4786   -2.5090   -0.2100 C   0  0  0  0  0  0  0  0  0  0  0  0
   -0.0924   -3.7606   -0.3308 C   0  0  0  0  0  0  0  0  0  0  0  0
    0.4079   -4.5372    0.7413 C   0  0  0  0  0  0  0  0  0  0  0  0
    1.2567   -3.7162    1.4439 C   0  0  0  0  0  0  0  0  0  0  0  0
    1.3100   -2.4862    0.8733 O   0  0  0  0  0  0  0  0  0  0  0  0
    0.9281    0.8044    0.3097 C   0  0  0  0  0  0  0  0  0  0  0  0
    0.5753    1.8148    0.9242 O   0  0  0  0  0  0  0  0  0  0  0  0
    2.4013    0.5547    0.0332 C   0  0  0  0  0  0  0  0  0  0  0  0
    3.2793    1.5713    0.7575 C   0  0  0  0  0  0  0  0  0  0  0  0
    4.7552    1.3085    0.5383 C   0  0  0  0  0  0  0  0  0  0  0  0
    5.1661    0.4099   -0.1883 O   0  0  0  0  0  0  0  0  0  0  0  0
    5.5381    2.1958    1.2421 N   0  0  0  0  0  0  0  0  0  0  0  0
    6.9146    2.1997    1.2655 C   0  0  0  0  0  0  0  0  0  0  0  0
    7.8280    1.3433    0.6134 C   0  0  0  0  0  0  0  0  0  0  0  0
    9.0643    1.7987    0.9983 C   0  0  0  0  0  0  0  0  0  0  0  0
   10.4489    1.3865    0.7140 C   0  0  0  0  0  0  0  0  0  0  0  0
    8.9071    2.8632    1.8273 O   0  0  0  0  0  0  0  0  0  0  0  0
    7.5584    3.1171    1.9960 N   0  0  0  0  0  0  0  0  0  0  0  0
   -2.3335   -1.4315    1.6521 C   0  0  0  0  0  0  0  0  0  0  0  0
   -3.1372   -2.5143    2.0142 C   0  0  0  0  0  0  0  0  0  0  0  0
   -4.2368   -5.0301    2.0479 H   0  0  0  0  0  0  0  0  0  0  0  0
   -5.2173   -4.8235    0.5938 H   0  0  0  0  0  0  0  0  0  0  0  0
   -5.6521   -3.9432    2.0727 H   0  0  0  0  0  0  0  0  0  0  0  0
   -4.5578   -3.1561   -1.0082 H   0  0  0  0  0  0  0  0  0  0  0  0
   -3.1383   -1.2764   -1.6574 H   0  0  0  0  0  0  0  0  0  0  0  0
   -1.5192    0.9317    0.8280 H   0  0  0  0  0  0  0  0  0  0  0  0
   -3.5570    1.6299   -0.1519 H   0  0  0  0  0  0  0  0  0  0  0  0
   -2.9615    2.9948   -2.7062 H   0  0  0  0  0  0  0  0  0  0  0  0
   -4.3521    4.0562   -0.6466 H   0  0  0  0  0  0  0  0  0  0  0  0
   -4.9550    4.2716   -2.2985 H   0  0  0  0  0  0  0  0  0  0  0  0
   -6.8826    3.2908   -1.4291 H   0  0  0  0  0  0  0  0  0  0  0  0
   -6.0026    2.4273   -0.1659 H   0  0  0  0  0  0  0  0  0  0  0  0
   -6.7771    1.3475   -2.7353 H   0  0  0  0  0  0  0  0  0  0  0  0
   -5.8416    0.5670   -1.4583 H   0  0  0  0  0  0  0  0  0  0  0  0
   -4.8594    2.0874   -3.8721 H   0  0  0  0  0  0  0  0  0  0  0  0
   -4.1717    0.6267   -3.1456 H   0  0  0  0  0  0  0  0  0  0  0  0
    1.3107   -1.0800   -1.5258 H   0  0  0  0  0  0  0  0  0  0  0  0
   -0.3901   -1.3787   -1.8013 H   0  0  0  0  0  0  0  0  0  0  0  0
   -0.7955   -4.0678   -1.0924 H   0  0  0  0  0  0  0  0  0  0  0  0
    0.1757   -5.5662    0.9749 H   0  0  0  0  0  0  0  0  0  0  0  0
    1.8670   -3.8479    2.3262 H   0  0  0  0  0  0  0  0  0  0  0  0
    2.6740   -0.4521    0.3600 H   0  0  0  0  0  0  0  0  0  0  0  0
    2.5728    0.6357   -1.0461 H   0  0  0  0  0  0  0  0  0  0  0  0
    3.0791    1.5375    1.8356 H   0  0  0  0  0  0  0  0  0  0  0  0
    3.0550    2.5848    0.4029 H   0  0  0  0  0  0  0  0  0  0  0  0
    5.1151    2.9190    1.8081 H   0  0  0  0  0  0  0  0  0  0  0  0
    7.6201    0.5099   -0.0406 H   0  0  0  0  0  0  0  0  0  0  0  0
   10.4756    0.5934   -0.0397 H   0  0  0  0  0  0  0  0  0  0  0  0
   10.9292    1.0095    1.6219 H   0  0  0  0  0  0  0  0  0  0  0  0
   11.0339    2.2317    0.3396 H   0  0  0  0  0  0  0  0  0  0  0  0
   -1.6988   -0.9682    2.4061 H   0  0  0  0  0  0  0  0  0  0  0  0
   -3.1238   -2.8646    3.0438 H   0  0  0  0  0  0  0  0  0  0  0  0
  1  2  1  0
  2  3  2  0
  3  4  1  0
  4  5  2  0
  5  6  1  0
  6  7  1  0
  7  8  2  0
  7  9  1  0
  9 10  1  0
 10 11  1  0
 11 12  1  0
 12 13  1  0
 13 14  1  0
  6 15  1  0
 15 16  1  0
 16 17  1  0
 17 18  2  0
 18 19  1  0
 19 20  2  0
 20 21  1  0
 15 22  1  0
 22 23  2  0
 22 24  1  0
 24 25  1  0
 25 26  1  0
 26 27  2  0
 26 28  1  0
 28 29  1  0
 29 30  1  0
 30 31  2  0
 31 32  1  0
 31 33  1  0
 33 34  1  0
  5 35  1  0
 35 36  2  0
 36  2  1  0
 14 10  1  0
 21 17  1  0
 34 29  2  0
  1 37  1  0
  1 38  1  0
  1 39  1  0
  3 40  1  0
  4 41  1  0
  6 42  1  0
  9 43  1  0
 10 44  1  0
 11 45  1  0
 11 46  1  0
 12 47  1  0
 12 48  1  0
 13 49  1  0
 13 50  1  0
 14 51  1  0
 14 52  1  0
 16 53  1  0
 16 54  1  0
 18 55  1  0
 19 56  1  0
 20 57  1  0
 24 58  1  0
 24 59  1  0
 25 60  1  0
 25 61  1  0
 28 62  1  0
 30 63  1  0
 32 64  1  0
 32 65  1  0
 32 66  1  0
 35 67  1  0
 36 68  1  0
M  END
$$$$
