
     RDKit          3D

 50 53  0  0  0  0  0  0  0  0999 V2000
    5.6655   -3.5685    2.1039 C   0  0  0  0  0  0  0  0  0  0  0  0
    4.2529   -3.7272    2.0936 O   0  0  0  0  0  0  0  0  0  0  0  0
    3.5074   -2.6436    1.7208 C   0  0  0  0  0  0  0  0  0  0  0  0
    2.1354   -2.8739    1.6614 C   0  0  0  0  0  0  0  0  0  0  0  0
    1.2597   -1.8544    1.2772 C   0  0  0  0  0  0  0  0  0  0  0  0
    1.7252   -0.5634    0.9573 C   0  0  0  0  0  0  0  0  0  0  0  0
    0.7618    0.4784    0.5600 C   0  0  0  0  0  0  0  0  0  0  0  0
    0.9721    1.7449    0.9888 N   0  0  0  0  0  0  0  0  0  0  0  0
    0.0509    2.6725    0.6225 C   0  0  0  0  0  0  0  0  0  0  0  0
    0.2860    4.0694    1.0804 C   0  0  0  0  0  0  0  0  0  0  0  0
    1.4209    4.2607    1.8212 N   0  0  0  0  0  0  0  0  0  0  0  0
   -0.4772    4.9892    0.8144 O   0  0  0  0  0  0  0  0  0  0  0  0
   -1.0415    2.3502   -0.1221 C   0  0  0  0  0  0  0  0  0  0  0  0
   -2.1162    3.0856   -0.6018 N   0  0  0  0  0  0  0  0  0  0  0  0
   -2.9642    2.2223   -1.3189 C   0  0  0  0  0  0  0  0  0  0  0  0
   -3.9505    2.6070   -1.9256 O   0  0  0  0  0  0  0  0  0  0  0  0
   -2.3749    0.9297   -1.2311 N   0  0  0  0  0  0  0  0  0  0  0  0
   -2.8685   -0.2848   -1.7597 C   0  0  0  0  0  0  0  0  0  0  0  0
   -1.9814   -1.2470   -2.2754 C   0  0  0  0  0  0  0  0  0  0  0  0
   -2.4471   -2.4403   -2.8360 C   0  0  0  0  0  0  0  0  0  0  0  0
   -3.8111   -2.7031   -2.8790 C   0  0  0  0  0  0  0  0  0  0  0  0
   -4.7095   -1.7756   -2.3561 C   0  0  0  0  0  0  0  0  0  0  0  0
   -4.2478   -0.5683   -1.8095 C   0  0  0  0  0  0  0  0  0  0  0  0
   -5.1259    0.2633   -1.1579 O   0  0  0  0  0  0  0  0  0  0  0  0
   -6.2422    0.6392   -1.9637 C   0  0  0  0  0  0  0  0  0  0  0  0
   -1.1712    1.0371   -0.5011 C   0  0  0  0  0  0  0  0  0  0  0  0
   -0.3037    0.0749   -0.1679 N   0  0  0  0  0  0  0  0  0  0  0  0
    3.1152   -0.3425    1.0413 C   0  0  0  0  0  0  0  0  0  0  0  0
    3.6118    0.8840    0.6632 O   0  0  0  0  0  0  0  0  0  0  0  0
    4.5091    1.4488    1.6178 C   0  0  0  0  0  0  0  0  0  0  0  0
    3.9966   -1.3786    1.4009 C   0  0  0  0  0  0  0  0  0  0  0  0
    6.0424   -3.3315    1.1034 H   0  0  0  0  0  0  0  0  0  0  0  0
    5.9728   -2.8106    2.8324 H   0  0  0  0  0  0  0  0  0  0  0  0
    6.1069   -4.5222    2.4092 H   0  0  0  0  0  0  0  0  0  0  0  0
    1.7409   -3.8583    1.9036 H   0  0  0  0  0  0  0  0  0  0  0  0
    0.1935   -2.0760    1.2305 H   0  0  0  0  0  0  0  0  0  0  0  0
    1.6502    5.1863    2.1534 H   0  0  0  0  0  0  0  0  0  0  0  0
    2.0405    3.4795    2.0052 H   0  0  0  0  0  0  0  0  0  0  0  0
   -2.2567    4.0817   -0.4860 H   0  0  0  0  0  0  0  0  0  0  0  0
   -0.9087   -1.0703   -2.2852 H   0  0  0  0  0  0  0  0  0  0  0  0
   -1.7393   -3.1617   -3.2370 H   0  0  0  0  0  0  0  0  0  0  0  0
   -4.1747   -3.6369   -3.3001 H   0  0  0  0  0  0  0  0  0  0  0  0
   -5.7671   -2.0213   -2.3436 H   0  0  0  0  0  0  0  0  0  0  0  0
   -5.9506    0.8512   -2.9978 H   0  0  0  0  0  0  0  0  0  0  0  0
   -6.6696    1.5522   -1.5390 H   0  0  0  0  0  0  0  0  0  0  0  0
   -7.0145   -0.1345   -1.9337 H   0  0  0  0  0  0  0  0  0  0  0  0
    4.5515    2.5273    1.4352 H   0  0  0  0  0  0  0  0  0  0  0  0
    5.5189    1.0469    1.4830 H   0  0  0  0  0  0  0  0  0  0  0  0
    4.1636    1.2953    2.6472 H   0  0  0  0  0  0  0  0  0  0  0  0
    5.0625   -1.1833    1.4004 H   0  0  0  0  0  0  0  0  0  0  0  0
  1  2  1  0
  2  3  1  0
  3  4  2  0
  4  5  1  0
  5  6  2  0
  6  7  1  0
  7  8  2  0
  8  9  1  0
  9 10  1  0
 10 11  1  0
 10 12  2  0
  9 13  2  0
 13 14  1  0
 14 15  1  0
 15 16  2  0
 15 17  1  0
 17 18  1  0
 18 19  2  0
 19 20  1  0
 20 21  2  0
 21 22  1  0
 22 23  2  0
 23 24  1  0
 24 25  1  0
 17 26  1  0
 26 27  2  0
  6 28  1  0
 28 29  1  0
 29 30  1  0
 28 31  2  0
 31  3  1  0
 27  7  1  0
 26 13  1  0
 23 18  1  0
  1 32  1  0
  1 33  1  0
  1 34  1  0
  4 35  1  0
  5 36  1  0
 11 37  1  0
 11 38  1  0
 14 39  1  0
 19 40  1  0
 20 41  1  0
 21 42  1  0
 22 43  1  0
 25 44  1  0
 25 45  1  0
 25 46  1  0
 30 47  1  0
 30 48  1  0
 30 49  1  0
 31 50  1  0
M  END
$$$$
