
     RDKit          3D

 34 35  0  0  0  0  0  0  0  0999 V2000
   -3.7029    0.1456    1.7571 C   0  0  0  0  0  0  0  0  0  0  0  0
   -3.6067   -0.1169    0.2780 C   0  0  0  0  0  0  0  0  0  0  0  0
   -4.7765   -0.0023   -0.4951 C   0  0  0  0  0  0  0  0  0  0  0  0
   -4.7519   -0.2354   -1.8681 C   0  0  0  0  0  0  0  0  0  0  0  0
   -3.5552   -0.5726   -2.4870 C   0  0  0  0  0  0  0  0  0  0  0  0
   -2.3846   -0.6868   -1.7329 C   0  0  0  0  0  0  0  0  0  0  0  0
   -2.3948   -0.4844   -0.3478 C   0  0  0  0  0  0  0  0  0  0  0  0
   -1.2135   -0.5533    0.4310 N   0  0  0  0  0  0  0  0  0  0  0  0
   -0.0312   -1.2595    0.2334 C   0  0  0  0  0  0  0  0  0  0  0  0
    0.1880   -2.5958   -0.7473 S   0  0  0  0  0  0  0  0  0  0  0  0
    0.9500   -0.7278    1.0605 N   0  0  0  0  0  0  0  0  0  0  0  0
    2.3506   -1.1237    1.1409 C   0  0  0  0  0  0  0  0  0  0  0  0
    3.2371   -0.0535    0.5561 C   0  0  0  0  0  0  0  0  0  0  0  0
    3.4068    0.0466   -0.8321 C   0  0  0  0  0  0  0  0  0  0  0  0
    4.2085    1.0502   -1.3778 C   0  0  0  0  0  0  0  0  0  0  0  0
    4.8449    1.9663   -0.5427 C   0  0  0  0  0  0  0  0  0  0  0  0
    4.6785    1.8816    0.8383 C   0  0  0  0  0  0  0  0  0  0  0  0
    3.8763    0.8790    1.3862 C   0  0  0  0  0  0  0  0  0  0  0  0
   -3.1091    1.0253    2.0251 H   0  0  0  0  0  0  0  0  0  0  0  0
   -4.7356    0.3373    2.0678 H   0  0  0  0  0  0  0  0  0  0  0  0
   -3.3505   -0.7233    2.3225 H   0  0  0  0  0  0  0  0  0  0  0  0
   -5.7209    0.2691   -0.0280 H   0  0  0  0  0  0  0  0  0  0  0  0
   -5.6627   -0.1452   -2.4539 H   0  0  0  0  0  0  0  0  0  0  0  0
   -3.5234   -0.7380   -3.5608 H   0  0  0  0  0  0  0  0  0  0  0  0
   -1.4642   -0.8987   -2.2668 H   0  0  0  0  0  0  0  0  0  0  0  0
   -1.2967   -0.1920    1.3699 H   0  0  0  0  0  0  0  0  0  0  0  0
    0.7742    0.2151    1.3781 H   0  0  0  0  0  0  0  0  0  0  0  0
    2.5446   -2.0842    0.6565 H   0  0  0  0  0  0  0  0  0  0  0  0
    2.5754   -1.2554    2.2055 H   0  0  0  0  0  0  0  0  0  0  0  0
    2.9113   -0.6585   -1.4969 H   0  0  0  0  0  0  0  0  0  0  0  0
    4.3343    1.1169   -2.4554 H   0  0  0  0  0  0  0  0  0  0  0  0
    5.4693    2.7470   -0.9691 H   0  0  0  0  0  0  0  0  0  0  0  0
    5.1742    2.5976    1.4888 H   0  0  0  0  0  0  0  0  0  0  0  0
    3.7562    0.8293    2.4660 H   0  0  0  0  0  0  0  0  0  0  0  0
  1  2  1  0
  2  3  2  0
  3  4  1  0
  4  5  2  0
  5  6  1  0
  6  7  2  0
  7  8  1  0
  8  9  1  0
  9 10  2  0
  9 11  1  0
 11 12  1  0
 12 13  1  0
 13 14  2  0
 14 15  1  0
 15 16  2  0
 16 17  1  0
 17 18  2  0
  7  2  1  0
 18 13  1  0
  1 19  1  0
  1 20  1  0
  1 21  1  0
  3 22  1  0
  4 23  1  0
  5 24  1  0
  6 25  1  0
  8 26  1  0
 11 27  1  0
 12 28  1  0
 12 29  1  0
 14 30  1  0
 15 31  1  0
 16 32  1  0
 17 33  1  0
 18 34  1  0
M  END
$$$$
