
     RDKit          3D

 39 40  0  0  0  0  0  0  0  0999 V2000
   -1.2353   -2.5346    1.9765 C   0  0  0  0  0  0  0  0  0  0  0  0
   -1.4723   -1.4600    0.9171 C   0  0  0  0  0  0  0  0  0  0  0  0
   -2.7505   -0.8793    1.2006 O   0  0  0  0  0  0  0  0  0  0  0  0
   -3.3678   -0.4055    0.0726 C   0  0  0  0  0  0  0  0  0  0  0  0
   -3.3005    0.9682   -0.1714 C   0  0  0  0  0  0  0  0  0  0  0  0
   -3.9491    1.5151   -1.2800 C   0  0  0  0  0  0  0  0  0  0  0  0
   -4.6832    0.6780   -2.1314 C   0  0  0  0  0  0  0  0  0  0  0  0
   -5.3680    1.2486   -3.2981 N   0  0  0  0  0  4  0  0  0  0  0  0
   -5.2972    2.4736   -3.4661 O   0  0  0  0  0  0  0  0  0  0  0  0
   -5.9723    0.4685   -4.0471 O   0  0  0  0  0  1  0  0  0  0  0  0
   -4.7785   -0.6972   -1.8776 C   0  0  0  0  0  0  0  0  0  0  0  0
   -4.1258   -1.2337   -0.7661 C   0  0  0  0  0  0  0  0  0  0  0  0
   -4.2900   -2.9239   -0.4568 Cl  0  0  0  0  0  0  0  0  0  0  0  0
   -0.3083   -0.4387    0.9581 C   0  0  0  0  0  0  0  0  0  0  0  0
   -0.4599    0.7031    1.3832 O   0  0  0  0  0  0  0  0  0  0  0  0
    0.8779   -0.9634    0.4567 N   0  0  0  0  0  0  0  0  0  0  0  0
    2.1251   -0.3145    0.3422 C   0  0  0  0  0  0  0  0  0  0  0  0
    2.3598    1.0081    0.7237 C   0  0  0  0  0  0  0  0  0  0  0  0
    3.6311    1.5808    0.5770 C   0  0  0  0  0  0  0  0  0  0  0  0
    4.6867    0.8296    0.0521 C   0  0  0  0  0  0  0  0  0  0  0  0
    6.0537    1.3882   -0.1264 C   0  0  0  0  0  0  0  0  0  0  0  0
    6.3949    2.4831    0.6180 N   0  0  0  0  0  0  0  0  0  0  0  0
    6.8632    0.8711   -0.8860 O   0  0  0  0  0  0  0  0  0  0  0  0
    4.4528   -0.4909   -0.3437 C   0  0  0  0  0  0  0  0  0  0  0  0
    3.1827   -1.0584   -0.1961 C   0  0  0  0  0  0  0  0  0  0  0  0
   -1.1940   -2.0891    2.9771 H   0  0  0  0  0  0  0  0  0  0  0  0
   -0.3001   -3.0773    1.8090 H   0  0  0  0  0  0  0  0  0  0  0  0
   -2.0585   -3.2568    1.9839 H   0  0  0  0  0  0  0  0  0  0  0  0
   -1.4667   -1.9392   -0.0715 H   0  0  0  0  0  0  0  0  0  0  0  0
   -2.7434    1.6147    0.5051 H   0  0  0  0  0  0  0  0  0  0  0  0
   -3.8778    2.5868   -1.4583 H   0  0  0  0  0  0  0  0  0  0  0  0
   -5.3606   -1.3482   -2.5266 H   0  0  0  0  0  0  0  0  0  0  0  0
    0.8548   -1.9220    0.1306 H   0  0  0  0  0  0  0  0  0  0  0  0
    1.5725    1.6332    1.1341 H   0  0  0  0  0  0  0  0  0  0  0  0
    3.7631    2.6219    0.8564 H   0  0  0  0  0  0  0  0  0  0  0  0
    5.8740    2.7672    1.4347 H   0  0  0  0  0  0  0  0  0  0  0  0
    7.3657    2.7658    0.5665 H   0  0  0  0  0  0  0  0  0  0  0  0
    5.2612   -1.0841   -0.7681 H   0  0  0  0  0  0  0  0  0  0  0  0
    3.0407   -2.0889   -0.5119 H   0  0  0  0  0  0  0  0  0  0  0  0
  1  2  1  0
  2  3  1  0
  3  4  1  0
  4  5  2  0
  5  6  1  0
  6  7  2  0
  7  8  1  0
  8  9  2  0
  8 10  1  0
  7 11  1  0
 11 12  2  0
 12 13  1  0
  2 14  1  0
 14 15  2  0
 14 16  1  0
 16 17  1  0
 17 18  2  0
 18 19  1  0
 19 20  2  0
 20 21  1  0
 21 22  1  0
 21 23  2  0
 20 24  1  0
 24 25  2  0
 12  4  1  0
 25 17  1  0
  1 26  1  0
  1 27  1  0
  1 28  1  0
  2 29  1  0
  5 30  1  0
  6 31  1  0
 11 32  1  0
 16 33  1  0
 18 34  1  0
 19 35  1  0
 22 36  1  0
 22 37  1  0
 24 38  1  0
 25 39  1  0
M  CHG  2   8   1  10  -1
M  END
$$$$
