
     RDKit          3D

 37 39  0  0  0  0  0  0  0  0999 V2000
   -6.7639    2.6371   -0.5766 C   0  0  0  0  0  0  0  0  0  0  0  0
   -6.3021    1.9943    0.7217 C   0  0  0  0  0  0  0  0  0  0  0  0
   -5.3007    0.9164    0.4729 C   0  0  0  0  0  0  0  0  0  0  0  0
   -5.6022   -0.3348    0.1933 N   0  0  0  0  0  0  0  0  0  0  0  0
   -4.4735   -1.1133    0.0093 N   0  0  0  0  0  0  0  0  0  0  0  0
   -3.3742   -0.4179    0.1590 C   0  0  0  0  0  0  0  0  0  0  0  0
   -2.0669   -0.7946    0.0647 N   0  0  0  0  0  0  0  0  0  0  0  0
   -1.6811   -2.0813   -0.2295 C   0  0  0  0  0  0  0  0  0  0  0  0
   -2.4184   -3.0390   -0.4413 O   0  0  0  0  0  0  0  0  0  0  0  0
   -0.1605   -2.2477   -0.2778 C   0  0  0  0  0  0  0  0  0  0  0  0
    0.5003   -1.0127   -0.0031 O   0  0  0  0  0  0  0  0  0  0  0  0
    1.8684   -1.0282   -0.0163 C   0  0  0  0  0  0  0  0  0  0  0  0
    2.6723   -2.1367   -0.2726 C   0  0  0  0  0  0  0  0  0  0  0  0
    4.0659   -2.0121   -0.2543 C   0  0  0  0  0  0  0  0  0  0  0  0
    4.6771   -0.7795    0.0200 C   0  0  0  0  0  0  0  0  0  0  0  0
    6.0745   -0.6413    0.0414 C   0  0  0  0  0  0  0  0  0  0  0  0
    6.6644    0.5933    0.3164 C   0  0  0  0  0  0  0  0  0  0  0  0
    5.8659    1.7038    0.5731 C   0  0  0  0  0  0  0  0  0  0  0  0
    4.4755    1.5822    0.5555 C   0  0  0  0  0  0  0  0  0  0  0  0
    3.8664    0.3467    0.2804 C   0  0  0  0  0  0  0  0  0  0  0  0
    2.4687    0.2046    0.2582 C   0  0  0  0  0  0  0  0  0  0  0  0
   -3.6098    1.2313    0.5340 S   0  0  0  0  0  0  0  0  0  0  0  0
   -5.9285    3.1062   -1.1073 H   0  0  0  0  0  0  0  0  0  0  0  0
   -7.2140    1.8969   -1.2471 H   0  0  0  0  0  0  0  0  0  0  0  0
   -7.5123    3.4094   -0.3720 H   0  0  0  0  0  0  0  0  0  0  0  0
   -5.8909    2.7624    1.3870 H   0  0  0  0  0  0  0  0  0  0  0  0
   -7.1679    1.5630    1.2381 H   0  0  0  0  0  0  0  0  0  0  0  0
   -1.3521   -0.0954    0.2179 H   0  0  0  0  0  0  0  0  0  0  0  0
    0.0924   -2.5952   -1.2861 H   0  0  0  0  0  0  0  0  0  0  0  0
    0.1048   -2.9945    0.4794 H   0  0  0  0  0  0  0  0  0  0  0  0
    2.2565   -3.1150   -0.4909 H   0  0  0  0  0  0  0  0  0  0  0  0
    4.6740   -2.8914   -0.4574 H   0  0  0  0  0  0  0  0  0  0  0  0
    6.7155   -1.4975   -0.1567 H   0  0  0  0  0  0  0  0  0  0  0  0
    7.7473    0.6867    0.3298 H   0  0  0  0  0  0  0  0  0  0  0  0
    6.3243    2.6658    0.7874 H   0  0  0  0  0  0  0  0  0  0  0  0
    3.8690    2.4619    0.7587 H   0  0  0  0  0  0  0  0  0  0  0  0
    1.8358    1.0663    0.4575 H   0  0  0  0  0  0  0  0  0  0  0  0
  1  2  1  0
  2  3  1  0
  3  4  2  0
  4  5  1  0
  5  6  2  0
  6  7  1  0
  7  8  1  0
  8  9  2  0
  8 10  1  0
 10 11  1  0
 11 12  1  0
 12 13  2  0
 13 14  1  0
 14 15  2  0
 15 16  1  0
 16 17  2  0
 17 18  1  0
 18 19  2  0
 19 20  1  0
 20 21  2  0
  6 22  1  0
 22  3  1  0
 21 12  1  0
 20 15  1  0
  1 23  1  0
  1 24  1  0
  1 25  1  0
  2 26  1  0
  2 27  1  0
  7 28  1  0
 10 29  1  0
 10 30  1  0
 13 31  1  0
 14 32  1  0
 16 33  1  0
 17 34  1  0
 18 35  1  0
 19 36  1  0
 21 37  1  0
M  END
$$$$
