
     RDKit          3D

 58 63  0  0  0  0  0  0  0  0999 V2000
    5.4987    3.6338   -2.0630 C   0  0  0  0  0  0  0  0  0  0  0  0
    5.4000    2.3259   -1.3555 C   0  0  0  0  0  0  0  0  0  0  0  0
    6.2440    1.2388   -1.4408 C   0  0  0  0  0  0  0  0  0  0  0  0
    5.8295    0.1694   -0.5957 C   0  0  0  0  0  0  0  0  0  0  0  0
    4.6573    0.4528    0.0779 C   0  0  0  0  0  0  0  0  0  0  0  0
    3.9855   -0.3906    1.0555 C   0  0  0  0  0  0  0  0  0  0  0  0
    4.6197   -0.9376    1.9590 O   0  0  0  0  0  0  0  0  0  0  0  0
    2.6015   -0.5969    0.9382 N   0  0  0  0  0  0  0  0  0  0  0  0
    1.9319   -1.3197    2.0150 C   0  0  0  0  0  0  0  0  0  0  0  0
    0.4361   -1.0306    2.0232 C   0  0  0  0  0  0  0  0  0  0  0  0
   -0.2348   -1.5178    0.7111 C   0  0  0  0  0  0  0  0  0  0  0  0
    0.7414   -1.3934   -0.4924 C   0  0  0  0  0  0  0  0  0  0  0  0
    1.8397   -0.3547   -0.2842 C   0  0  0  0  0  0  0  0  0  0  0  0
   -0.4268   -2.9422    0.9572 O   0  0  0  0  0  0  0  0  0  0  0  0
   -1.3539   -3.6034    0.2099 C   0  0  0  0  0  0  0  0  0  0  0  0
   -1.3230   -4.9960    0.2878 C   0  0  0  0  0  0  0  0  0  0  0  0
   -2.2215   -5.7611   -0.4601 C   0  0  0  0  0  0  0  0  0  0  0  0
   -3.1527   -5.1292   -1.2839 C   0  0  0  0  0  0  0  0  0  0  0  0
   -4.2522   -6.0736   -2.2092 Cl  0  0  0  0  0  0  0  0  0  0  0  0
   -3.1990   -3.7400   -1.3595 C   0  0  0  0  0  0  0  0  0  0  0  0
   -2.3009   -2.9852   -0.5979 C   0  0  0  0  0  0  0  0  0  0  0  0
   -2.3383   -1.5187   -0.6392 C   0  0  0  0  0  0  0  0  0  0  0  0
   -2.9316   -0.9506   -1.5526 O   0  0  0  0  0  0  0  0  0  0  0  0
   -1.5935   -0.7973    0.4801 C   0  0  0  0  0  0  0  0  0  0  0  0
   -1.5068    0.6960    0.1964 C   0  0  0  0  0  0  0  0  0  0  0  0
   -2.7212    1.1374    0.9420 C   0  0  0  0  0  0  0  0  0  0  0  0
   -3.3077    2.4872    0.7683 C   0  0  0  0  0  0  0  0  0  0  0  0
   -4.5002    2.7983    1.4363 C   0  0  0  0  0  0  0  0  0  0  0  0
   -5.0785    4.0631    1.2975 C   0  0  0  0  0  0  0  0  0  0  0  0
   -4.4644    5.0187    0.4919 C   0  0  0  0  0  0  0  0  0  0  0  0
   -5.1719    6.5766    0.3198 Cl  0  0  0  0  0  0  0  0  0  0  0  0
   -3.2769    4.7203   -0.1750 C   0  0  0  0  0  0  0  0  0  0  0  0
   -2.6962    3.4549   -0.0377 C   0  0  0  0  0  0  0  0  0  0  0  0
   -3.1939    0.2629    1.7721 N   0  0  0  0  0  0  0  0  0  0  0  0
   -2.4000   -0.8996    1.6654 O   0  0  0  0  0  0  0  0  0  0  0  0
    4.1262    2.0484   -0.2474 S   0  0  0  0  0  0  0  0  0  0  0  0
    6.3249    3.6280   -2.7818 H   0  0  0  0  0  0  0  0  0  0  0  0
    5.6789    4.4459   -1.3508 H   0  0  0  0  0  0  0  0  0  0  0  0
    4.5777    3.8497   -2.6147 H   0  0  0  0  0  0  0  0  0  0  0  0
    7.1292    1.2147   -2.0654 H   0  0  0  0  0  0  0  0  0  0  0  0
    6.3607   -0.7689   -0.4850 H   0  0  0  0  0  0  0  0  0  0  0  0
    2.3709   -1.0257    2.9753 H   0  0  0  0  0  0  0  0  0  0  0  0
    2.1302   -2.3892    1.8773 H   0  0  0  0  0  0  0  0  0  0  0  0
   -0.0135   -1.5321    2.8896 H   0  0  0  0  0  0  0  0  0  0  0  0
    0.2995    0.0453    2.1722 H   0  0  0  0  0  0  0  0  0  0  0  0
    1.2243   -2.3635   -0.6751 H   0  0  0  0  0  0  0  0  0  0  0  0
    0.2018   -1.1565   -1.4165 H   0  0  0  0  0  0  0  0  0  0  0  0
    2.5057   -0.3692   -1.1527 H   0  0  0  0  0  0  0  0  0  0  0  0
    1.4060    0.6468   -0.2088 H   0  0  0  0  0  0  0  0  0  0  0  0
   -0.5945   -5.4893    0.9275 H   0  0  0  0  0  0  0  0  0  0  0  0
   -2.1889   -6.8461   -0.3961 H   0  0  0  0  0  0  0  0  0  0  0  0
   -3.9317   -3.2467   -1.9940 H   0  0  0  0  0  0  0  0  0  0  0  0
   -1.5398    0.9529   -0.8647 H   0  0  0  0  0  0  0  0  0  0  0  0
   -0.6456    1.1855    0.6559 H   0  0  0  0  0  0  0  0  0  0  0  0
   -4.9890    2.0580    2.0676 H   0  0  0  0  0  0  0  0  0  0  0  0
   -6.0043    4.2918    1.8192 H   0  0  0  0  0  0  0  0  0  0  0  0
   -2.7988    5.4682   -0.8029 H   0  0  0  0  0  0  0  0  0  0  0  0
   -1.7695    3.2541   -0.5666 H   0  0  0  0  0  0  0  0  0  0  0  0
  1  2  1  0
  2  3  2  0
  3  4  1  0
  4  5  2  0
  5  6  1  0
  6  7  2  0
  6  8  1  0
  8  9  1  0
  9 10  1  0
 10 11  1  0
 11 12  1  0
 12 13  1  0
 11 14  1  0
 14 15  1  0
 15 16  2  0
 16 17  1  0
 17 18  2  0
 18 19  1  0
 18 20  1  0
 20 21  2  0
 21 22  1  0
 22 23  2  0
 22 24  1  0
 24 25  1  0
 25 26  1  0
 26 27  1  0
 27 28  2  0
 28 29  1  0
 29 30  2  0
 30 31  1  0
 30 32  1  0
 32 33  2  0
 26 34  2  0
 34 35  1  0
  5 36  1  0
 36  2  1  0
 13  8  1  0
 21 15  1  0
 35 24  1  0
 24 11  1  0
 33 27  1  0
  1 37  1  0
  1 38  1  0
  1 39  1  0
  3 40  1  0
  4 41  1  0
  9 42  1  0
  9 43  1  0
 10 44  1  0
 10 45  1  0
 12 46  1  0
 12 47  1  0
 13 48  1  0
 13 49  1  0
 16 50  1  0
 17 51  1  0
 20 52  1  0
 25 53  1  0
 25 54  1  0
 28 55  1  0
 29 56  1  0
 32 57  1  0
 33 58  1  0
M  END
$$$$
