
     RDKit          3D

 40 41  0  0  0  0  0  0  0  0999 V2000
   -6.9366    0.1593   -0.1327 C   0  0  0  0  0  0  0  0  0  0  0  0
   -5.4419    0.0599   -0.0415 C   0  0  0  0  0  0  0  0  0  0  0  0
   -4.7454    0.7431    0.9492 C   0  0  0  0  0  0  0  0  0  0  0  0
   -3.3655    0.6073    1.0327 C   0  0  0  0  0  0  0  0  0  0  0  0
   -2.6844   -0.2170    0.1296 C   0  0  0  0  0  0  0  0  0  0  0  0
   -1.2329   -0.3887    0.2366 C   0  0  0  0  0  0  0  0  0  0  0  0
   -0.3743    0.6364    0.1158 C   0  0  0  0  0  0  0  0  0  0  0  0
    1.0825    0.4683    0.1867 C   0  0  0  0  0  0  0  0  0  0  0  0
    1.8939    1.1889   -0.6875 C   0  0  0  0  0  0  0  0  0  0  0  0
    3.2908    1.0556   -0.6426 C   0  0  0  0  0  0  0  0  0  0  0  0
    3.9393    0.2214    0.2838 C   0  0  0  0  0  0  0  0  0  0  0  0
    5.3289    0.0715    0.3056 N   0  0  0  0  0  0  0  0  0  0  0  0
    6.1641    1.0350   -0.4122 C   0  0  0  0  0  0  0  0  0  0  0  0
    5.9625   -0.5669    1.4597 C   0  0  0  0  0  0  0  0  0  0  0  0
    3.0963   -0.4844    1.1592 C   0  0  0  0  0  0  0  0  0  0  0  0
    1.6981   -0.3606    1.1233 C   0  0  0  0  0  0  0  0  0  0  0  0
   -3.3838   -0.8890   -0.8257 N   0  0  0  0  0  4  0  0  0  0  0  0
   -2.6876   -1.7497   -1.8046 C   0  0  0  0  0  0  0  0  0  0  0  0
   -4.7303   -0.7641   -0.9120 C   0  0  0  0  0  0  0  0  0  0  0  0
   -7.2844    1.1401    0.2077 H   0  0  0  0  0  0  0  0  0  0  0  0
   -7.2728    0.0368   -1.1677 H   0  0  0  0  0  0  0  0  0  0  0  0
   -7.4014   -0.6153    0.4849 H   0  0  0  0  0  0  0  0  0  0  0  0
   -5.2691    1.3802    1.6621 H   0  0  0  0  0  0  0  0  0  0  0  0
   -2.8234    1.1386    1.8140 H   0  0  0  0  0  0  0  0  0  0  0  0
   -0.8779   -1.4030    0.4005 H   0  0  0  0  0  0  0  0  0  0  0  0
   -0.7166    1.6518   -0.0792 H   0  0  0  0  0  0  0  0  0  0  0  0
    1.4629    1.8588   -1.4279 H   0  0  0  0  0  0  0  0  0  0  0  0
    3.8602    1.6321   -1.3660 H   0  0  0  0  0  0  0  0  0  0  0  0
    7.2282    0.7944   -0.3094 H   0  0  0  0  0  0  0  0  0  0  0  0
    6.0152    2.0490   -0.0249 H   0  0  0  0  0  0  0  0  0  0  0  0
    5.9561    1.0164   -1.4873 H   0  0  0  0  0  0  0  0  0  0  0  0
    7.0507   -0.6166    1.3401 H   0  0  0  0  0  0  0  0  0  0  0  0
    5.6264   -1.6032    1.5731 H   0  0  0  0  0  0  0  0  0  0  0  0
    5.7557   -0.0095    2.3798 H   0  0  0  0  0  0  0  0  0  0  0  0
    3.5088   -1.1570    1.9058 H   0  0  0  0  0  0  0  0  0  0  0  0
    1.1155   -0.9199    1.8505 H   0  0  0  0  0  0  0  0  0  0  0  0
   -1.9234   -1.1530   -2.3093 H   0  0  0  0  0  0  0  0  0  0  0  0
   -2.2520   -2.5938   -1.2638 H   0  0  0  0  0  0  0  0  0  0  0  0
   -3.3972   -2.1217   -2.5481 H   0  0  0  0  0  0  0  0  0  0  0  0
   -5.2352   -1.3312   -1.6902 H   0  0  0  0  0  0  0  0  0  0  0  0
  1  2  1  0
  2  3  2  0
  3  4  1  0
  4  5  2  0
  5  6  1  0
  6  7  2  3
  7  8  1  0
  8  9  2  0
  9 10  1  0
 10 11  2  0
 11 12  1  0
 12 13  1  0
 12 14  1  0
 11 15  1  0
 15 16  2  0
  5 17  1  0
 17 18  1  0
 17 19  2  0
 19  2  1  0
 16  8  1  0
  1 20  1  0
  1 21  1  0
  1 22  1  0
  3 23  1  0
  4 24  1  0
  6 25  1  0
  7 26  1  0
  9 27  1  0
 10 28  1  0
 13 29  1  0
 13 30  1  0
 13 31  1  0
 14 32  1  0
 14 33  1  0
 14 34  1  0
 15 35  1  0
 16 36  1  0
 18 37  1  0
 18 38  1  0
 18 39  1  0
 19 40  1  0
M  CHG  1  17   1
M  END
$$$$
