
     RDKit          3D

 59 64  0  0  0  0  0  0  0  0999 V2000
   -5.5028   -2.5284    0.7125 C   0  0  0  0  0  0  0  0  0  0  0  0
   -5.9406   -1.1732    1.1341 C   0  0  0  0  0  0  0  0  0  0  0  0
   -6.9504   -0.9184    1.9419 N   0  0  0  0  0  0  0  0  0  0  0  0
   -6.9995    0.4466    2.0635 C   0  0  0  0  0  0  0  0  0  0  0  0
   -7.8828    1.2442    2.8057 C   0  0  0  0  0  0  0  0  0  0  0  0
   -7.7262    2.6351    2.7719 C   0  0  0  0  0  0  0  0  0  0  0  0
   -6.7091    3.2203    2.0149 C   0  0  0  0  0  0  0  0  0  0  0  0
   -5.8192    2.4404    1.2673 C   0  0  0  0  0  0  0  0  0  0  0  0
   -5.9952    1.0511    1.3135 C   0  0  0  0  0  0  0  0  0  0  0  0
   -5.3343   -0.0045    0.7276 N   0  0  0  0  0  0  0  0  0  0  0  0
   -4.1972    0.1109   -0.1672 C   0  0  0  0  0  0  0  0  0  0  0  0
   -2.8791    0.1964    0.5942 C   0  0  0  0  0  0  0  0  0  0  0  0
   -1.7004    0.2776   -0.3074 C   0  0  0  0  0  0  0  0  0  0  0  0
   -1.8088    0.4825   -1.6628 N   0  0  0  0  0  0  0  0  0  0  0  0
   -0.5550    0.4844   -2.0605 C   0  0  0  0  0  0  0  0  0  0  0  0
    0.0477    0.6380   -3.3666 C   0  0  0  0  0  0  0  0  0  0  0  0
   -0.7041    0.8447   -4.5241 C   0  0  0  0  0  0  0  0  0  0  0  0
   -0.0515    0.9875   -5.7486 C   0  0  0  0  0  0  0  0  0  0  0  0
    1.3422    0.9239   -5.8123 C   0  0  0  0  0  0  0  0  0  0  0  0
    2.0930    0.7157   -4.6517 C   0  0  0  0  0  0  0  0  0  0  0  0
    1.4580    0.5689   -3.4186 C   0  0  0  0  0  0  0  0  0  0  0  0
    2.2530    0.3572   -2.2603 N   0  0  0  0  0  0  0  0  0  0  0  0
    1.6663    0.2318   -1.0994 C   0  0  0  0  0  0  0  0  0  0  0  0
    2.6727   -0.0148    0.3162 S   0  0  0  0  0  0  0  0  0  0  0  0
    3.5536   -1.4939   -0.2568 C   0  0  0  0  0  0  0  0  0  0  0  0
    4.3834   -2.0547    0.8805 C   0  0  0  0  0  0  0  0  0  0  0  0
    3.9909   -2.9756    1.5915 O   0  0  0  0  0  0  0  0  0  0  0  0
    5.6077   -1.4456    1.0441 N   0  0  0  0  0  0  0  0  0  0  0  0
    6.4744   -1.8224    2.1355 C   0  0  0  0  0  0  0  0  0  0  0  0
    7.7485   -1.0755    2.0138 C   0  0  0  0  0  0  0  0  0  0  0  0
    8.2473    0.0579    2.6236 C   0  0  0  0  0  0  0  0  0  0  0  0
    9.5330    0.2787    2.0705 C   0  0  0  0  0  0  0  0  0  0  0  0
    9.7358   -0.7302    1.1596 C   0  0  0  0  0  0  0  0  0  0  0  0
    8.6562   -1.5535    1.1133 O   0  0  0  0  0  0  0  0  0  0  0  0
    0.2714    0.2954   -0.9855 N   0  0  0  0  0  0  0  0  0  0  0  0
   -0.4475    0.1559    0.1517 N   0  0  0  0  0  0  0  0  0  0  0  0
   -6.0716   -3.2975    1.2464 H   0  0  0  0  0  0  0  0  0  0  0  0
   -5.6744   -2.6710   -0.3583 H   0  0  0  0  0  0  0  0  0  0  0  0
   -4.4416   -2.6802    0.9246 H   0  0  0  0  0  0  0  0  0  0  0  0
   -8.6691    0.7801    3.3909 H   0  0  0  0  0  0  0  0  0  0  0  0
   -8.4050    3.2631    3.3435 H   0  0  0  0  0  0  0  0  0  0  0  0
   -6.6062    4.3040    2.0051 H   0  0  0  0  0  0  0  0  0  0  0  0
   -5.0321    2.9037    0.6816 H   0  0  0  0  0  0  0  0  0  0  0  0
   -4.2100   -0.7496   -0.8463 H   0  0  0  0  0  0  0  0  0  0  0  0
   -4.3570    1.0000   -0.7900 H   0  0  0  0  0  0  0  0  0  0  0  0
   -2.7712   -0.6800    1.2457 H   0  0  0  0  0  0  0  0  0  0  0  0
   -2.8819    1.0756    1.2500 H   0  0  0  0  0  0  0  0  0  0  0  0
   -1.7896    0.8966   -4.4760 H   0  0  0  0  0  0  0  0  0  0  0  0
   -0.6297    1.1504   -6.6557 H   0  0  0  0  0  0  0  0  0  0  0  0
    1.8468    1.0379   -6.7695 H   0  0  0  0  0  0  0  0  0  0  0  0
    3.1775    0.6701   -4.7092 H   0  0  0  0  0  0  0  0  0  0  0  0
    2.8426   -2.2620   -0.5804 H   0  0  0  0  0  0  0  0  0  0  0  0
    4.2056   -1.2516   -1.1020 H   0  0  0  0  0  0  0  0  0  0  0  0
    5.8042   -0.5842    0.5493 H   0  0  0  0  0  0  0  0  0  0  0  0
    6.6424   -2.9045    2.1019 H   0  0  0  0  0  0  0  0  0  0  0  0
    5.9659   -1.5856    3.0770 H   0  0  0  0  0  0  0  0  0  0  0  0
    7.7443    0.6511    3.3762 H   0  0  0  0  0  0  0  0  0  0  0  0
   10.2281    1.0726    2.3088 H   0  0  0  0  0  0  0  0  0  0  0  0
   10.5505   -0.9931    0.4986 H   0  0  0  0  0  0  0  0  0  0  0  0
  1  2  1  0
  2  3  2  0
  3  4  1  0
  4  5  2  0
  5  6  1  0
  6  7  2  0
  7  8  1  0
  8  9  2  0
  9 10  1  0
 10 11  1  0
 11 12  1  0
 12 13  1  0
 13 14  1  0
 14 15  2  0
 15 16  1  0
 16 17  2  0
 17 18  1  0
 18 19  2  0
 19 20  1  0
 20 21  2  0
 21 22  1  0
 22 23  2  0
 23 24  1  0
 24 25  1  0
 25 26  1  0
 26 27  2  0
 26 28  1  0
 28 29  1  0
 29 30  1  0
 30 31  2  0
 31 32  1  0
 32 33  2  0
 33 34  1  0
 23 35  1  0
 35 36  1  0
 10  2  1  0
 36 13  2  0
  9  4  1  0
 35 15  1  0
 21 16  1  0
 34 30  1  0
  1 37  1  0
  1 38  1  0
  1 39  1  0
  5 40  1  0
  6 41  1  0
  7 42  1  0
  8 43  1  0
 11 44  1  0
 11 45  1  0
 12 46  1  0
 12 47  1  0
 17 48  1  0
 18 49  1  0
 19 50  1  0
 20 51  1  0
 25 52  1  0
 25 53  1  0
 28 54  1  0
 29 55  1  0
 29 56  1  0
 31 57  1  0
 32 58  1  0
 33 59  1  0
M  END
$$$$
