
     RDKit          3D

 36 36  0  0  0  0  0  0  0  0999 V2000
    0.6345   -6.2988    1.6011 C   0  0  0  0  0  0  0  0  0  0  0  0
    1.2032   -5.1363    2.3900 C   0  0  0  0  0  0  0  0  0  0  0  0
    1.0440   -3.9481    1.6185 O   0  0  0  0  0  0  0  0  0  0  0  0
    1.5438   -2.8013    2.2991 C   0  0  0  0  0  0  0  0  0  0  0  0
    1.4184   -1.5767    1.3999 C   0  0  0  0  0  0  0  0  0  0  0  0
   -0.0182   -1.3502    0.9344 C   0  0  0  0  0  0  0  0  0  0  0  0
   -0.1776   -0.0601    0.2842 N   0  0  0  0  0  0  0  0  0  0  0  0
    0.2102    0.1426   -1.0233 C   0  0  0  0  0  0  0  0  0  0  0  0
    0.6656   -0.7271   -1.7537 O   0  0  0  0  0  0  0  0  0  0  0  0
    0.0503    1.5407   -1.4968 C   0  0  0  0  0  0  0  0  0  0  0  0
    1.1991    2.1805   -2.0353 C   0  0  0  0  0  0  0  0  0  0  0  0
    2.1367    2.7115   -2.4673 N   0  0  0  0  0  0  0  0  0  0  0  0
   -1.1957    2.0481   -1.4726 C   0  0  0  0  0  0  0  0  0  0  0  0
   -1.5258    3.3636   -1.9009 C   0  0  0  0  0  0  0  0  0  0  0  0
   -2.7451    3.8324   -2.3879 C   0  0  0  0  0  0  0  0  0  0  0  0
   -2.6072    5.2138   -2.6759 C   0  0  0  0  0  0  0  0  0  0  0  0
   -1.3181    5.5211   -2.3266 C   0  0  0  0  0  0  0  0  0  0  0  0
   -0.5910    6.7503   -2.3606 N   0  0  0  0  0  4  0  0  0  0  0  0
    0.5348    6.7729   -1.8494 O   0  0  0  0  0  0  0  0  0  0  0  0
   -1.1695    7.7109   -2.8873 O   0  0  0  0  0  1  0  0  0  0  0  0
   -0.6562    4.4329   -1.8603 O   0  0  0  0  0  0  0  0  0  0  0  0
   -0.4247   -6.1322    1.3786 H   0  0  0  0  0  0  0  0  0  0  0  0
    1.1494   -6.4012    0.6401 H   0  0  0  0  0  0  0  0  0  0  0  0
    0.7356   -7.2348    2.1575 H   0  0  0  0  0  0  0  0  0  0  0  0
    2.2664   -5.3072    2.5911 H   0  0  0  0  0  0  0  0  0  0  0  0
    0.6689   -5.0343    3.3410 H   0  0  0  0  0  0  0  0  0  0  0  0
    2.5975   -2.9546    2.5591 H   0  0  0  0  0  0  0  0  0  0  0  0
    0.9734   -2.6493    3.2228 H   0  0  0  0  0  0  0  0  0  0  0  0
    2.0607   -1.7043    0.5200 H   0  0  0  0  0  0  0  0  0  0  0  0
    1.7856   -0.6956    1.9397 H   0  0  0  0  0  0  0  0  0  0  0  0
   -0.3277   -2.1347    0.2350 H   0  0  0  0  0  0  0  0  0  0  0  0
   -0.7063   -1.3582    1.7863 H   0  0  0  0  0  0  0  0  0  0  0  0
   -0.4096    0.7337    0.8678 H   0  0  0  0  0  0  0  0  0  0  0  0
   -2.0216    1.4252   -1.1349 H   0  0  0  0  0  0  0  0  0  0  0  0
   -3.6347    3.2316   -2.5307 H   0  0  0  0  0  0  0  0  0  0  0  0
   -3.3491    5.8929   -3.0740 H   0  0  0  0  0  0  0  0  0  0  0  0
  1  2  1  0
  2  3  1  0
  3  4  1  0
  4  5  1  0
  5  6  1  0
  6  7  1  0
  7  8  1  0
  8  9  2  0
  8 10  1  0
 10 11  1  0
 11 12  3  0
 10 13  2  3
 13 14  1  0
 14 15  2  0
 15 16  1  0
 16 17  2  0
 17 18  1  0
 18 19  2  0
 18 20  1  0
 17 21  1  0
 21 14  1  0
  1 22  1  0
  1 23  1  0
  1 24  1  0
  2 25  1  0
  2 26  1  0
  4 27  1  0
  4 28  1  0
  5 29  1  0
  5 30  1  0
  6 31  1  0
  6 32  1  0
  7 33  1  0
 13 34  1  0
 15 35  1  0
 16 36  1  0
M  CHG  2  18   1  20  -1
M  END
$$$$
