
     RDKit          3D

 58 61  0  0  0  0  0  0  0  0999 V2000
    5.3146   -2.6917    1.8517 C   0  0  0  0  0  0  0  0  0  0  0  0
    4.8636   -2.0770    0.5536 C   0  0  0  0  0  0  0  0  0  0  0  0
    5.1091   -2.7871   -0.6287 C   0  0  0  0  0  0  0  0  0  0  0  0
    4.7224   -2.2690   -1.8600 C   0  0  0  0  0  0  0  0  0  0  0  0
    4.0785   -1.0354   -1.9286 C   0  0  0  0  0  0  0  0  0  0  0  0
    3.8164   -0.2962   -0.7689 C   0  0  0  0  0  0  0  0  0  0  0  0
    3.1201    0.9373   -0.8136 N   0  0  0  0  0  0  0  0  0  0  0  0
    2.6891    1.6342   -1.9309 C   0  0  0  0  0  0  0  0  0  0  0  0
    2.9147    1.3717   -3.1076 O   0  0  0  0  0  0  0  0  0  0  0  0
    1.9209    2.8668   -1.5924 C   0  0  0  0  0  0  0  0  0  0  0  0
    2.4001    4.0839   -2.1469 C   0  0  0  0  0  0  0  0  0  0  0  0
    2.7588    5.1129   -2.5500 N   0  0  0  0  0  0  0  0  0  0  0  0
    0.8074    2.8715   -0.8324 C   0  0  0  0  0  0  0  0  0  0  0  0
    0.1254    1.7613   -0.2442 C   0  0  0  0  0  0  0  0  0  0  0  0
   -0.0381    0.5213   -0.8169 C   0  0  0  0  0  0  0  0  0  0  0  0
   -0.7659   -0.2584    0.0506 N   0  0  0  0  0  0  0  0  0  0  0  0
   -1.1431   -1.6352   -0.2304 C   0  0  0  0  0  0  0  0  0  0  0  0
   -2.3012   -1.7048   -1.2023 C   0  0  0  0  0  0  0  0  0  0  0  0
   -2.1749   -2.1516   -2.3390 O   0  0  0  0  0  0  0  0  0  0  0  0
   -3.5042   -1.2494   -0.7074 N   0  0  0  0  0  0  0  0  0  0  0  0
   -4.6672   -1.1791   -1.5633 C   0  0  0  0  0  0  0  0  0  0  0  0
   -5.7652   -0.5136   -0.8229 C   0  0  0  0  0  0  0  0  0  0  0  0
   -6.0270    0.8049   -0.5035 C   0  0  0  0  0  0  0  0  0  0  0  0
   -7.2366    0.8046    0.2299 C   0  0  0  0  0  0  0  0  0  0  0  0
   -7.6334   -0.5098    0.3131 C   0  0  0  0  0  0  0  0  0  0  0  0
   -6.7428   -1.3198   -0.3159 O   0  0  0  0  0  0  0  0  0  0  0  0
   -1.0930    0.4626    1.1811 C   0  0  0  0  0  0  0  0  0  0  0  0
   -1.8200    0.1062    2.3309 C   0  0  0  0  0  0  0  0  0  0  0  0
   -2.0116    1.0787    3.3168 C   0  0  0  0  0  0  0  0  0  0  0  0
   -1.4963    2.3660    3.1658 C   0  0  0  0  0  0  0  0  0  0  0  0
   -0.7665    2.7098    2.0232 C   0  0  0  0  0  0  0  0  0  0  0  0
   -0.5570    1.7478    1.0101 C   0  0  0  0  0  0  0  0  0  0  0  0
    4.2342   -0.8066    0.4909 C   0  0  0  0  0  0  0  0  0  0  0  0
    3.9871   -0.0267    1.7626 C   0  0  0  0  0  0  0  0  0  0  0  0
    6.1609   -2.1311    2.2456 H   0  0  0  0  0  0  0  0  0  0  0  0
    4.5013   -2.6983    2.5773 H   0  0  0  0  0  0  0  0  0  0  0  0
    5.6387   -3.7306    1.7221 H   0  0  0  0  0  0  0  0  0  0  0  0
    5.6053   -3.7543   -0.5997 H   0  0  0  0  0  0  0  0  0  0  0  0
    4.9137   -2.8290   -2.7720 H   0  0  0  0  0  0  0  0  0  0  0  0
    3.7783   -0.6885   -2.9139 H   0  0  0  0  0  0  0  0  0  0  0  0
    2.8816    1.3419    0.0825 H   0  0  0  0  0  0  0  0  0  0  0  0
    0.3458    3.8402   -0.6302 H   0  0  0  0  0  0  0  0  0  0  0  0
    0.2852    0.1182   -1.7715 H   0  0  0  0  0  0  0  0  0  0  0  0
   -0.2713   -2.1401   -0.6594 H   0  0  0  0  0  0  0  0  0  0  0  0
   -1.4027   -2.1446    0.7007 H   0  0  0  0  0  0  0  0  0  0  0  0
   -3.5207   -0.7243    0.1585 H   0  0  0  0  0  0  0  0  0  0  0  0
   -4.4087   -0.6108   -2.4664 H   0  0  0  0  0  0  0  0  0  0  0  0
   -4.9361   -2.1950   -1.8653 H   0  0  0  0  0  0  0  0  0  0  0  0
   -5.4176    1.6589   -0.7715 H   0  0  0  0  0  0  0  0  0  0  0  0
   -7.7545    1.6598    0.6381 H   0  0  0  0  0  0  0  0  0  0  0  0
   -8.4813   -1.0119    0.7567 H   0  0  0  0  0  0  0  0  0  0  0  0
   -2.2282   -0.8923    2.4675 H   0  0  0  0  0  0  0  0  0  0  0  0
   -2.5745    0.8267    4.2136 H   0  0  0  0  0  0  0  0  0  0  0  0
   -1.6591    3.1112    3.9423 H   0  0  0  0  0  0  0  0  0  0  0  0
   -0.3670    3.7171    1.9237 H   0  0  0  0  0  0  0  0  0  0  0  0
    4.6319   -0.3491    2.5840 H   0  0  0  0  0  0  0  0  0  0  0  0
    4.2137    1.0342    1.6217 H   0  0  0  0  0  0  0  0  0  0  0  0
    2.9468   -0.1381    2.0769 H   0  0  0  0  0  0  0  0  0  0  0  0
  1  2  1  0
  2  3  2  0
  3  4  1  0
  4  5  2  0
  5  6  1  0
  6  7  1  0
  7  8  1  0
  8  9  2  0
  8 10  1  0
 10 11  1  0
 11 12  3  0
 10 13  2  3
 13 14  1  0
 14 15  2  0
 15 16  1  0
 16 17  1  0
 17 18  1  0
 18 19  2  0
 18 20  1  0
 20 21  1  0
 21 22  1  0
 22 23  2  0
 23 24  1  0
 24 25  2  0
 25 26  1  0
 16 27  1  0
 27 28  2  0
 28 29  1  0
 29 30  2  0
 30 31  1  0
 31 32  2  0
  6 33  2  0
 33 34  1  0
 33  2  1  0
 32 14  1  0
 26 22  1  0
 32 27  1  0
  1 35  1  0
  1 36  1  0
  1 37  1  0
  3 38  1  0
  4 39  1  0
  5 40  1  0
  7 41  1  0
 13 42  1  0
 15 43  1  0
 17 44  1  0
 17 45  1  0
 20 46  1  0
 21 47  1  0
 21 48  1  0
 23 49  1  0
 24 50  1  0
 25 51  1  0
 28 52  1  0
 29 53  1  0
 30 54  1  0
 31 55  1  0
 34 56  1  0
 34 57  1  0
 34 58  1  0
M  END
$$$$
