
     RDKit          3D

 52 54  0  0  0  0  0  0  0  0999 V2000
    7.3831   -3.1979   -0.3813 C   0  0  0  0  0  0  0  0  0  0  0  0
    6.4283   -2.1277   -0.8204 C   0  0  0  0  0  0  0  0  0  0  0  0
    6.3726   -0.9046   -0.1430 C   0  0  0  0  0  0  0  0  0  0  0  0
    5.4602    0.0802   -0.5304 C   0  0  0  0  0  0  0  0  0  0  0  0
    4.5851   -0.1431   -1.6013 C   0  0  0  0  0  0  0  0  0  0  0  0
    3.5815    0.9035   -2.0070 C   0  0  0  0  0  0  0  0  0  0  0  0
    2.3242    0.6948   -1.3368 N   0  0  0  0  0  0  0  0  0  0  0  0
    1.2893    0.0023   -1.9181 C   0  0  0  0  0  0  0  0  0  0  0  0
    1.2303   -0.3807   -3.0779 O   0  0  0  0  0  0  0  0  0  0  0  0
    0.1231   -0.2905   -0.9459 C   0  0  0  0  0  0  0  0  0  0  0  0
    0.1468    0.1393    0.1995 O   0  0  0  0  0  0  0  0  0  0  0  0
   -0.8923   -1.0303   -1.5034 N   0  0  0  0  0  0  0  0  0  0  0  0
   -2.1066   -1.3531   -0.7723 C   0  0  0  0  0  0  0  0  0  0  0  0
   -2.9635   -0.1191   -0.4314 C   0  0  0  0  0  0  0  0  0  0  0  0
   -3.4257    0.4884   -1.6579 O   0  0  0  0  0  0  0  0  0  0  0  0
   -4.6445    1.1513   -1.3120 C   0  0  0  0  0  0  0  0  0  0  0  0
   -5.3144    0.2000   -0.3446 C   0  0  0  0  0  0  0  0  0  0  0  0
   -4.1853   -0.4765    0.3038 N   0  0  0  0  0  0  0  0  0  0  0  0
   -4.1187   -0.5787    1.9753 S   0  0  0  0  0  6  0  0  0  0  0  0
   -5.4432   -0.9268    2.4455 O   0  0  0  0  0  0  0  0  0  0  0  0
   -2.9691   -1.3791    2.3335 O   0  0  0  0  0  0  0  0  0  0  0  0
   -3.7930    1.0927    2.5036 C   0  0  0  0  0  0  0  0  0  0  0  0
   -2.4717    1.5127    2.6971 C   0  0  0  0  0  0  0  0  0  0  0  0
   -2.2183    2.8140    3.1346 C   0  0  0  0  0  0  0  0  0  0  0  0
   -3.2832    3.6768    3.3956 C   0  0  0  0  0  0  0  0  0  0  0  0
   -2.9373    5.4380    3.9886 Br  0  0  0  0  0  0  0  0  0  0  0  0
   -4.6019    3.2495    3.2323 C   0  0  0  0  0  0  0  0  0  0  0  0
   -4.8607    1.9495    2.7929 C   0  0  0  0  0  0  0  0  0  0  0  0
    4.6261   -1.3779   -2.2624 C   0  0  0  0  0  0  0  0  0  0  0  0
    5.5382   -2.3617   -1.8742 C   0  0  0  0  0  0  0  0  0  0  0  0
    7.6916   -3.8177   -1.2298 H   0  0  0  0  0  0  0  0  0  0  0  0
    6.9092   -3.8367    0.3703 H   0  0  0  0  0  0  0  0  0  0  0  0
    8.2907   -2.7601    0.0475 H   0  0  0  0  0  0  0  0  0  0  0  0
    7.0397   -0.7114    0.6942 H   0  0  0  0  0  0  0  0  0  0  0  0
    5.4369    1.0220    0.0130 H   0  0  0  0  0  0  0  0  0  0  0  0
    3.4417    0.8958   -3.0940 H   0  0  0  0  0  0  0  0  0  0  0  0
    3.9391    1.9019   -1.7323 H   0  0  0  0  0  0  0  0  0  0  0  0
    2.2694    0.8244   -0.3313 H   0  0  0  0  0  0  0  0  0  0  0  0
   -0.8309   -1.2190   -2.5008 H   0  0  0  0  0  0  0  0  0  0  0  0
   -1.8070   -1.8844    0.1355 H   0  0  0  0  0  0  0  0  0  0  0  0
   -2.6722   -2.0470   -1.4039 H   0  0  0  0  0  0  0  0  0  0  0  0
   -2.3823    0.6437    0.0907 H   0  0  0  0  0  0  0  0  0  0  0  0
   -5.2421    1.3395   -2.2077 H   0  0  0  0  0  0  0  0  0  0  0  0
   -4.3995    2.1077   -0.8362 H   0  0  0  0  0  0  0  0  0  0  0  0
   -5.8929   -0.5569   -0.8854 H   0  0  0  0  0  0  0  0  0  0  0  0
   -5.9879    0.7244    0.3356 H   0  0  0  0  0  0  0  0  0  0  0  0
   -1.6362    0.8386    2.5103 H   0  0  0  0  0  0  0  0  0  0  0  0
   -1.1906    3.1404    3.2757 H   0  0  0  0  0  0  0  0  0  0  0  0
   -5.4313    3.9164    3.4557 H   0  0  0  0  0  0  0  0  0  0  0  0
   -5.8901    1.6120    2.6924 H   0  0  0  0  0  0  0  0  0  0  0  0
    3.9392   -1.5821   -3.0824 H   0  0  0  0  0  0  0  0  0  0  0  0
    5.5463   -3.3143   -2.3994 H   0  0  0  0  0  0  0  0  0  0  0  0
  1  2  1  0
  2  3  2  0
  3  4  1  0
  4  5  2  0
  5  6  1  0
  6  7  1  0
  7  8  1  0
  8  9  2  0
  8 10  1  0
 10 11  2  0
 10 12  1  0
 12 13  1  0
 13 14  1  0
 14 15  1  0
 15 16  1  0
 16 17  1  0
 17 18  1  0
 18 19  1  0
 19 20  2  0
 19 21  2  0
 19 22  1  0
 22 23  2  0
 23 24  1  0
 24 25  2  0
 25 26  1  0
 25 27  1  0
 27 28  2  0
  5 29  1  0
 29 30  2  0
 30  2  1  0
 18 14  1  0
 28 22  1  0
  1 31  1  0
  1 32  1  0
  1 33  1  0
  3 34  1  0
  4 35  1  0
  6 36  1  0
  6 37  1  0
  7 38  1  0
 12 39  1  0
 13 40  1  0
 13 41  1  0
 14 42  1  0
 16 43  1  0
 16 44  1  0
 17 45  1  0
 17 46  1  0
 23 47  1  0
 24 48  1  0
 27 49  1  0
 28 50  1  0
 29 51  1  0
 30 52  1  0
M  END
$$$$
