
     RDKit          3D

 51 55  0  0  0  0  0  0  0  0999 V2000
    8.1562   -0.1794   -0.4026 C   0  0  0  0  0  0  0  0  0  0  0  0
    7.4643    0.9553   -0.8222 C   0  0  0  0  0  0  0  0  0  0  0  0
    6.1232    1.1250   -0.4748 C   0  0  0  0  0  0  0  0  0  0  0  0
    5.4636    0.1611    0.2997 C   0  0  0  0  0  0  0  0  0  0  0  0
    4.0059    0.3322    0.6588 C   0  0  0  0  0  0  0  0  0  0  0  0
    3.0861   -0.2481   -0.4286 C   0  0  0  0  0  0  0  0  0  0  0  0
    1.6602   -0.2176   -0.0690 N   0  0  0  0  0  0  0  0  0  0  0  0
    1.0929    1.1382   -0.0008 C   0  0  0  0  0  0  0  0  0  0  0  0
   -0.3908    1.1498    0.4487 C   0  0  0  0  0  0  0  0  0  0  0  0
   -1.1797    0.0423   -0.1256 N   0  0  0  0  0  0  0  0  0  0  0  0
   -2.5626    0.0575    0.0151 C   0  0  0  0  0  0  0  0  0  0  0  0
   -3.1676    1.2047    0.1996 N   0  0  0  0  0  0  0  0  0  0  0  0
   -4.5706    1.2693    0.3061 C   0  0  0  0  0  0  0  0  0  0  0  0
   -5.1650    2.5202    0.4838 C   0  0  0  0  0  0  0  0  0  0  0  0
   -6.5536    2.6433    0.5826 C   0  0  0  0  0  0  0  0  0  0  0  0
   -7.3644    1.5104    0.5036 C   0  0  0  0  0  0  0  0  0  0  0  0
   -6.7923    0.2500    0.3270 C   0  0  0  0  0  0  0  0  0  0  0  0
   -5.4017    0.1430    0.2292 C   0  0  0  0  0  0  0  0  0  0  0  0
   -4.7426   -1.0860    0.0672 N   0  0  0  0  0  0  0  0  0  0  0  0
   -5.2645   -2.3558   -0.0094 C   0  0  0  0  0  0  0  0  0  0  0  0
   -4.2166   -3.2481   -0.0799 C   0  0  0  0  0  0  0  0  0  0  0  0
   -3.0218   -2.4920   -0.0634 C   0  0  0  0  0  0  0  0  0  0  0  0
   -3.3697   -1.1531   -0.0181 C   0  0  0  0  0  0  0  0  0  0  0  0
   -0.5637   -0.5629   -1.3074 C   0  0  0  0  0  0  0  0  0  0  0  0
    0.8629   -1.0690   -0.9840 C   0  0  0  0  0  0  0  0  0  0  0  0
    6.1669   -0.9785    0.7124 C   0  0  0  0  0  0  0  0  0  0  0  0
    7.5079   -1.1461    0.3637 C   0  0  0  0  0  0  0  0  0  0  0  0
    9.2006   -0.3105   -0.6728 H   0  0  0  0  0  0  0  0  0  0  0  0
    7.9698    1.7090   -1.4201 H   0  0  0  0  0  0  0  0  0  0  0  0
    5.5964    2.0152   -0.8106 H   0  0  0  0  0  0  0  0  0  0  0  0
    3.8097    1.3993    0.8149 H   0  0  0  0  0  0  0  0  0  0  0  0
    3.8088   -0.1579    1.6211 H   0  0  0  0  0  0  0  0  0  0  0  0
    3.3818   -1.2941   -0.5890 H   0  0  0  0  0  0  0  0  0  0  0  0
    3.2525    0.2719   -1.3816 H   0  0  0  0  0  0  0  0  0  0  0  0
    1.1751    1.6250   -0.9821 H   0  0  0  0  0  0  0  0  0  0  0  0
    1.6478    1.7628    0.7071 H   0  0  0  0  0  0  0  0  0  0  0  0
   -0.8174    2.1209    0.1705 H   0  0  0  0  0  0  0  0  0  0  0  0
   -0.4341    1.0640    1.5412 H   0  0  0  0  0  0  0  0  0  0  0  0
   -4.5361    3.4043    0.5439 H   0  0  0  0  0  0  0  0  0  0  0  0
   -7.0002    3.6246    0.7212 H   0  0  0  0  0  0  0  0  0  0  0  0
   -8.4442    1.6110    0.5822 H   0  0  0  0  0  0  0  0  0  0  0  0
   -7.4423   -0.6167    0.2724 H   0  0  0  0  0  0  0  0  0  0  0  0
   -6.3291   -2.5369    0.0145 H   0  0  0  0  0  0  0  0  0  0  0  0
   -4.3051   -4.3260   -0.1232 H   0  0  0  0  0  0  0  0  0  0  0  0
   -2.0129   -2.8821   -0.0783 H   0  0  0  0  0  0  0  0  0  0  0  0
   -1.1503   -1.3941   -1.7094 H   0  0  0  0  0  0  0  0  0  0  0  0
   -0.5160    0.1909   -2.1042 H   0  0  0  0  0  0  0  0  0  0  0  0
    0.7860   -2.0579   -0.5155 H   0  0  0  0  0  0  0  0  0  0  0  0
    1.3768   -1.2141   -1.9433 H   0  0  0  0  0  0  0  0  0  0  0  0
    5.6730   -1.7426    1.3089 H   0  0  0  0  0  0  0  0  0  0  0  0
    8.0466   -2.0317    0.6906 H   0  0  0  0  0  0  0  0  0  0  0  0
  1  2  2  0
  2  3  1  0
  3  4  2  0
  4  5  1  0
  5  6  1  0
  6  7  1  0
  7  8  1  0
  8  9  1  0
  9 10  1  0
 10 11  1  0
 11 12  2  0
 12 13  1  0
 13 14  2  0
 14 15  1  0
 15 16  2  0
 16 17  1  0
 17 18  2  0
 18 19  1  0
 19 20  1  0
 20 21  2  0
 21 22  1  0
 22 23  2  0
 10 24  1  0
 24 25  1  0
  4 26  1  0
 26 27  2  0
 27  1  1  0
 25  7  1  0
 23 11  1  0
 18 13  1  0
 23 19  1  0
  1 28  1  0
  2 29  1  0
  3 30  1  0
  5 31  1  0
  5 32  1  0
  6 33  1  0
  6 34  1  0
  8 35  1  0
  8 36  1  0
  9 37  1  0
  9 38  1  0
 14 39  1  0
 15 40  1  0
 16 41  1  0
 17 42  1  0
 20 43  1  0
 21 44  1  0
 22 45  1  0
 24 46  1  0
 24 47  1  0
 25 48  1  0
 25 49  1  0
 26 50  1  0
 27 51  1  0
M  END
$$$$
