
     RDKit          3D

 64 67  0  0  0  0  0  0  0  0999 V2000
    3.0469   -7.1446   -5.2778 C   0  0  0  0  0  0  0  0  0  0  0  0
    3.6446   -5.8642   -5.4753 O   0  0  0  0  0  0  0  0  0  0  0  0
    3.4206   -4.9461   -4.4872 C   0  0  0  0  0  0  0  0  0  0  0  0
    4.3405   -3.8974   -4.4327 C   0  0  0  0  0  0  0  0  0  0  0  0
    4.2443   -2.9101   -3.4425 C   0  0  0  0  0  0  0  0  0  0  0  0
    3.2060   -2.9461   -2.5092 C   0  0  0  0  0  0  0  0  0  0  0  0
    3.0500   -2.0083   -1.4722 N   0  0  0  0  0  0  0  0  0  0  0  0
    3.8400   -0.9034   -1.2028 C   0  0  0  0  0  0  0  0  0  0  0  0
    4.7260   -0.4403   -1.9180 O   0  0  0  0  0  0  0  0  0  0  0  0
    3.4256   -0.1992    0.0976 C   0  0  0  0  0  0  0  0  0  0  0  0
    2.5545    0.9366   -0.1877 N   0  0  0  0  0  0  0  0  0  0  0  0
    3.2111    2.2090   -0.4569 C   0  0  0  0  0  0  0  0  0  0  0  0
    1.2324    0.6391   -0.4947 C   0  0  0  0  0  0  0  0  0  0  0  0
    0.7744   -0.4960   -0.3956 O   0  0  0  0  0  0  0  0  0  0  0  0
    0.4283    1.7619   -1.0406 C   0  0  0  0  0  0  0  0  0  0  0  0
   -0.7854    2.1514   -0.6252 C   0  0  0  0  0  0  0  0  0  0  0  0
   -1.6124    1.5867    0.3873 C   0  0  0  0  0  0  0  0  0  0  0  0
   -2.0673    0.2903    0.4174 C   0  0  0  0  0  0  0  0  0  0  0  0
   -2.9316    0.1912    1.4862 N   0  0  0  0  0  0  0  0  0  0  0  0
   -3.6842   -0.9423    1.9084 C   0  0  0  0  0  0  0  0  0  0  0  0
   -4.5254   -0.8333    3.0295 C   0  0  0  0  0  0  0  0  0  0  0  0
   -5.2757   -1.9318    3.4538 C   0  0  0  0  0  0  0  0  0  0  0  0
   -5.1998   -3.1410    2.7630 C   0  0  0  0  0  0  0  0  0  0  0  0
   -4.3744   -3.2542    1.6451 C   0  0  0  0  0  0  0  0  0  0  0  0
   -3.6173   -2.1602    1.2166 C   0  0  0  0  0  0  0  0  0  0  0  0
   -3.0388    1.3718    2.1454 N   0  0  0  0  0  0  0  0  0  0  0  0
   -2.2397    2.2289    1.4935 C   0  0  0  0  0  0  0  0  0  0  0  0
   -2.0959    3.6047    1.9701 C   0  0  0  0  0  0  0  0  0  0  0  0
   -0.8327    4.2029    2.0735 C   0  0  0  0  0  0  0  0  0  0  0  0
   -0.7013    5.4983    2.5788 C   0  0  0  0  0  0  0  0  0  0  0  0
   -1.8292    6.2159    2.9991 C   0  0  0  0  0  0  0  0  0  0  0  0
   -1.6681    7.5963    3.5608 C   0  0  0  0  0  0  0  0  0  0  0  0
   -3.0949    5.6244    2.8896 C   0  0  0  0  0  0  0  0  0  0  0  0
   -3.2263    4.3287    2.3816 C   0  0  0  0  0  0  0  0  0  0  0  0
    2.2644   -3.9809   -2.5873 C   0  0  0  0  0  0  0  0  0  0  0  0
    2.3693   -4.9773   -3.5683 C   0  0  0  0  0  0  0  0  0  0  0  0
    1.9764   -7.1135   -5.5083 H   0  0  0  0  0  0  0  0  0  0  0  0
    3.5199   -7.8453   -5.9757 H   0  0  0  0  0  0  0  0  0  0  0  0
    3.2318   -7.5208   -4.2637 H   0  0  0  0  0  0  0  0  0  0  0  0
    5.1551   -3.8493   -5.1544 H   0  0  0  0  0  0  0  0  0  0  0  0
    4.9992   -2.1320   -3.4304 H   0  0  0  0  0  0  0  0  0  0  0  0
    2.1969   -2.0822   -0.9214 H   0  0  0  0  0  0  0  0  0  0  0  0
    4.3282    0.1379    0.6212 H   0  0  0  0  0  0  0  0  0  0  0  0
    2.9113   -0.8977    0.7656 H   0  0  0  0  0  0  0  0  0  0  0  0
    4.0306    2.3513    0.2550 H   0  0  0  0  0  0  0  0  0  0  0  0
    2.5177    3.0449   -0.3491 H   0  0  0  0  0  0  0  0  0  0  0  0
    3.6065    2.1938   -1.4775 H   0  0  0  0  0  0  0  0  0  0  0  0
    0.8993    2.3095   -1.8471 H   0  0  0  0  0  0  0  0  0  0  0  0
   -1.2025    3.0309   -1.1169 H   0  0  0  0  0  0  0  0  0  0  0  0
   -1.8663   -0.5400   -0.2404 H   0  0  0  0  0  0  0  0  0  0  0  0
   -4.6062    0.0994    3.5846 H   0  0  0  0  0  0  0  0  0  0  0  0
   -5.9177   -1.8408    4.3261 H   0  0  0  0  0  0  0  0  0  0  0  0
   -5.7877   -3.9937    3.0935 H   0  0  0  0  0  0  0  0  0  0  0  0
   -4.3220   -4.1972    1.1034 H   0  0  0  0  0  0  0  0  0  0  0  0
   -2.9893   -2.2953    0.3416 H   0  0  0  0  0  0  0  0  0  0  0  0
    0.0635    3.6554    1.7954 H   0  0  0  0  0  0  0  0  0  0  0  0
    0.2901    5.9407    2.6640 H   0  0  0  0  0  0  0  0  0  0  0  0
   -0.9103    7.5997    4.3524 H   0  0  0  0  0  0  0  0  0  0  0  0
   -2.6060    7.9650    3.9925 H   0  0  0  0  0  0  0  0  0  0  0  0
   -1.3614    8.2898    2.7701 H   0  0  0  0  0  0  0  0  0  0  0  0
   -3.9817    6.1511    3.2349 H   0  0  0  0  0  0  0  0  0  0  0  0
   -4.2116    3.8700    2.3355 H   0  0  0  0  0  0  0  0  0  0  0  0
    1.4433   -4.0336   -1.8749 H   0  0  0  0  0  0  0  0  0  0  0  0
    1.6140   -5.7594   -3.5893 H   0  0  0  0  0  0  0  0  0  0  0  0
  1  2  1  0
  2  3  1  0
  3  4  2  0
  4  5  1  0
  5  6  2  0
  6  7  1  0
  7  8  1  0
  8  9  2  0
  8 10  1  0
 10 11  1  0
 11 12  1  0
 11 13  1  0
 13 14  2  0
 13 15  1  0
 15 16  2  3
 16 17  1  0
 17 18  2  0
 18 19  1  0
 19 20  1  0
 20 21  2  0
 21 22  1  0
 22 23  2  0
 23 24  1  0
 24 25  2  0
 19 26  1  0
 26 27  2  0
 27 28  1  0
 28 29  2  0
 29 30  1  0
 30 31  2  0
 31 32  1  0
 31 33  1  0
 33 34  2  0
  6 35  1  0
 35 36  2  0
 36  3  1  0
 27 17  1  0
 34 28  1  0
 25 20  1  0
  1 37  1  0
  1 38  1  0
  1 39  1  0
  4 40  1  0
  5 41  1  0
  7 42  1  0
 10 43  1  0
 10 44  1  0
 12 45  1  0
 12 46  1  0
 12 47  1  0
 15 48  1  0
 16 49  1  0
 18 50  1  0
 21 51  1  0
 22 52  1  0
 23 53  1  0
 24 54  1  0
 25 55  1  0
 29 56  1  0
 30 57  1  0
 32 58  1  0
 32 59  1  0
 32 60  1  0
 33 61  1  0
 34 62  1  0
 35 63  1  0
 36 64  1  0
M  END
$$$$
