
     RDKit          3D

 35 35  0  0  0  0  0  0  0  0999 V2000
   -3.6812   -1.1871    1.2530 C   0  0  0  0  0  0  0  0  0  0  0  0
   -3.5786   -0.4044   -0.0633 C   0  0  0  0  0  0  0  0  0  0  0  0
   -3.3033   -1.3626   -1.2286 C   0  0  0  0  0  0  0  0  0  0  0  0
   -2.6251    0.7195    0.0757 N   0  0  0  0  0  0  0  0  0  0  0  0
   -2.8649    1.7424   -0.9486 C   0  0  0  0  0  0  0  0  0  0  0  0
   -1.2088    0.3061    0.0877 C   0  0  0  0  0  0  0  0  0  0  0  0
   -0.2588    1.3830    0.6402 C   0  0  0  0  0  0  0  0  0  0  0  0
    1.0690    0.8504    0.8035 O   0  0  0  0  0  0  0  0  0  0  0  0
    1.8265    0.8323   -0.3182 C   0  0  0  0  0  0  0  0  0  0  0  0
    1.4834    1.1505   -1.4439 O   0  0  0  0  0  0  0  0  0  0  0  0
    3.1375    0.2410   -0.0031 C   0  0  0  0  0  0  0  0  0  0  0  0
    3.5012   -0.9074   -0.7222 C   0  0  0  0  0  0  0  0  0  0  0  0
    4.7253   -1.5292   -0.4759 C   0  0  0  0  0  0  0  0  0  0  0  0
    5.5922   -1.0018    0.4797 C   0  0  0  0  0  0  0  0  0  0  0  0
    5.2423    0.1536    1.1829 C   0  0  0  0  0  0  0  0  0  0  0  0
    4.0163    0.7837    0.9408 C   0  0  0  0  0  0  0  0  0  0  0  0
    3.6612    2.3924    1.8846 Br  0  0  0  0  0  0  0  0  0  0  0  0
   -2.7721   -1.7549    1.4739 H   0  0  0  0  0  0  0  0  0  0  0  0
   -3.8781   -0.5139    2.0947 H   0  0  0  0  0  0  0  0  0  0  0  0
   -4.5101   -1.9023    1.2057 H   0  0  0  0  0  0  0  0  0  0  0  0
   -4.5787    0.0222   -0.2215 H   0  0  0  0  0  0  0  0  0  0  0  0
   -3.2623   -0.8320   -2.1848 H   0  0  0  0  0  0  0  0  0  0  0  0
   -2.3635   -1.9090   -1.0976 H   0  0  0  0  0  0  0  0  0  0  0  0
   -4.1048   -2.1060   -1.3046 H   0  0  0  0  0  0  0  0  0  0  0  0
   -2.6033    1.3974   -1.9545 H   0  0  0  0  0  0  0  0  0  0  0  0
   -3.9171    2.0494   -0.9531 H   0  0  0  0  0  0  0  0  0  0  0  0
   -2.2932    2.6517   -0.7389 H   0  0  0  0  0  0  0  0  0  0  0  0
   -1.0739   -0.5768    0.7234 H   0  0  0  0  0  0  0  0  0  0  0  0
   -0.8793   -0.0028   -0.9122 H   0  0  0  0  0  0  0  0  0  0  0  0
   -0.5920    1.6987    1.6351 H   0  0  0  0  0  0  0  0  0  0  0  0
   -0.2266    2.2796    0.0112 H   0  0  0  0  0  0  0  0  0  0  0  0
    2.8292   -1.3181   -1.4734 H   0  0  0  0  0  0  0  0  0  0  0  0
    5.0040   -2.4221   -1.0308 H   0  0  0  0  0  0  0  0  0  0  0  0
    6.5482   -1.4843    0.6712 H   0  0  0  0  0  0  0  0  0  0  0  0
    5.9395    0.5606    1.9120 H   0  0  0  0  0  0  0  0  0  0  0  0
  1  2  1  0
  2  3  1  0
  2  4  1  0
  4  5  1  0
  4  6  1  0
  6  7  1  0
  7  8  1  0
  8  9  1  0
  9 10  2  0
  9 11  1  0
 11 12  2  0
 12 13  1  0
 13 14  2  0
 14 15  1  0
 15 16  2  0
 16 17  1  0
 16 11  1  0
  1 18  1  0
  1 19  1  0
  1 20  1  0
  2 21  1  0
  3 22  1  0
  3 23  1  0
  3 24  1  0
  5 25  1  0
  5 26  1  0
  5 27  1  0
  6 28  1  0
  6 29  1  0
  7 30  1  0
  7 31  1  0
 12 32  1  0
 13 33  1  0
 14 34  1  0
 15 35  1  0
M  END
$$$$
