
     RDKit          3D

 55 59  0  0  0  0  0  0  0  0999 V2000
    6.7170    0.8240    3.0134 C   0  0  0  0  0  0  0  0  0  0  0  0
    6.5645   -0.3506    2.2251 O   0  0  0  0  0  0  0  0  0  0  0  0
    5.3184   -0.5920    1.7148 C   0  0  0  0  0  0  0  0  0  0  0  0
    5.1892   -1.8091    1.0418 C   0  0  0  0  0  0  0  0  0  0  0  0
    3.9680   -2.1876    0.4848 C   0  0  0  0  0  0  0  0  0  0  0  0
    2.8664   -1.3389    0.5858 C   0  0  0  0  0  0  0  0  0  0  0  0
    2.9852   -0.1018    1.2328 C   0  0  0  0  0  0  0  0  0  0  0  0
    1.8483    0.8081    1.3481 C   0  0  0  0  0  0  0  0  0  0  0  0
    1.4586    1.4092    2.4584 N   0  0  0  0  0  0  0  0  0  0  0  0
    0.3340    2.1479    2.1826 N   0  0  0  0  0  0  0  0  0  0  0  0
    0.0600    1.9927    0.9106 C   0  0  0  0  0  0  0  0  0  0  0  0
   -1.2873    2.6971    0.0925 S   0  0  0  0  0  0  0  0  0  0  0  0
   -2.5763    1.4016    0.2547 C   0  0  0  0  0  0  0  0  0  0  0  0
   -2.1168    0.1108   -0.4434 C   0  0  0  0  0  0  0  0  0  0  0  0
   -1.4949   -0.7701    0.1536 O   0  0  0  0  0  0  0  0  0  0  0  0
   -2.3550   -0.0360   -1.8939 C   0  0  0  0  0  0  0  0  0  0  0  0
   -2.9023    0.9038   -2.7524 C   0  0  0  0  0  0  0  0  0  0  0  0
   -2.9302    0.3797   -4.0185 N   0  0  0  0  0  0  0  0  0  0  0  0
   -2.3989   -0.8860   -4.0201 C   0  0  0  0  0  0  0  0  0  0  0  0
   -2.2193   -1.7829   -5.0804 C   0  0  0  0  0  0  0  0  0  0  0  0
   -1.6481   -3.0247   -4.7911 C   0  0  0  0  0  0  0  0  0  0  0  0
   -1.2741   -3.3544   -3.4920 C   0  0  0  0  0  0  0  0  0  0  0  0
   -1.4612   -2.4451   -2.4447 C   0  0  0  0  0  0  0  0  0  0  0  0
   -2.0339   -1.1807   -2.7057 C   0  0  0  0  0  0  0  0  0  0  0  0
   -3.1280    1.2503    1.6670 C   0  0  0  0  0  0  0  0  0  0  0  0
   -4.3403    1.8858    2.0007 C   0  0  0  0  0  0  0  0  0  0  0  0
   -4.8820    1.7809    3.2842 C   0  0  0  0  0  0  0  0  0  0  0  0
   -4.2188    1.0462    4.2616 C   0  0  0  0  0  0  0  0  0  0  0  0
   -3.0137    0.4212    3.9564 C   0  0  0  0  0  0  0  0  0  0  0  0
   -2.4726    0.5233    2.6720 C   0  0  0  0  0  0  0  0  0  0  0  0
    1.0273    1.2273    0.3200 N   0  0  0  0  0  0  0  0  0  0  0  0
    1.2222    0.9628   -1.0826 C   0  0  0  0  0  0  0  0  0  0  0  0
    4.2139    0.2565    1.8105 C   0  0  0  0  0  0  0  0  0  0  0  0
    7.7465    0.8460    3.3837 H   0  0  0  0  0  0  0  0  0  0  0  0
    6.0508    0.8079    3.8824 H   0  0  0  0  0  0  0  0  0  0  0  0
    6.5612    1.7248    2.4106 H   0  0  0  0  0  0  0  0  0  0  0  0
    6.0460   -2.4745    0.9660 H   0  0  0  0  0  0  0  0  0  0  0  0
    3.8740   -3.1481   -0.0150 H   0  0  0  0  0  0  0  0  0  0  0  0
    1.9116   -1.6634    0.1774 H   0  0  0  0  0  0  0  0  0  0  0  0
   -3.4198    1.7774   -0.3353 H   0  0  0  0  0  0  0  0  0  0  0  0
   -3.2735    1.9072   -2.5896 H   0  0  0  0  0  0  0  0  0  0  0  0
   -3.2829    0.8523   -4.8404 H   0  0  0  0  0  0  0  0  0  0  0  0
   -2.5129   -1.5315   -6.0946 H   0  0  0  0  0  0  0  0  0  0  0  0
   -1.4975   -3.7450   -5.5922 H   0  0  0  0  0  0  0  0  0  0  0  0
   -0.8361   -4.3278   -3.2844 H   0  0  0  0  0  0  0  0  0  0  0  0
   -1.1692   -2.7210   -1.4343 H   0  0  0  0  0  0  0  0  0  0  0  0
   -4.8767    2.4792    1.2629 H   0  0  0  0  0  0  0  0  0  0  0  0
   -5.8174    2.2800    3.5228 H   0  0  0  0  0  0  0  0  0  0  0  0
   -4.6324    0.9690    5.2633 H   0  0  0  0  0  0  0  0  0  0  0  0
   -2.4808   -0.1400    4.7200 H   0  0  0  0  0  0  0  0  0  0  0  0
   -1.5185    0.0340    2.4828 H   0  0  0  0  0  0  0  0  0  0  0  0
    0.8118   -0.0218   -1.3141 H   0  0  0  0  0  0  0  0  0  0  0  0
    0.7285    1.7267   -1.6864 H   0  0  0  0  0  0  0  0  0  0  0  0
    2.2915    0.9903   -1.3089 H   0  0  0  0  0  0  0  0  0  0  0  0
    4.2767    1.2087    2.3299 H   0  0  0  0  0  0  0  0  0  0  0  0
  1  2  1  0
  2  3  1  0
  3  4  2  0
  4  5  1  0
  5  6  2  0
  6  7  1  0
  7  8  1  0
  8  9  2  0
  9 10  1  0
 10 11  2  0
 11 12  1  0
 12 13  1  0
 13 14  1  0
 14 15  2  0
 14 16  1  0
 16 17  2  0
 17 18  1  0
 18 19  1  0
 19 20  2  0
 20 21  1  0
 21 22  2  0
 22 23  1  0
 23 24  2  0
 13 25  1  0
 25 26  2  0
 26 27  1  0
 27 28  2  0
 28 29  1  0
 29 30  2  0
 11 31  1  0
 31 32  1  0
  7 33  2  0
 33  3  1  0
 31  8  1  0
 24 16  1  0
 30 25  1  0
 24 19  1  0
  1 34  1  0
  1 35  1  0
  1 36  1  0
  4 37  1  0
  5 38  1  0
  6 39  1  0
 13 40  1  0
 17 41  1  0
 18 42  1  0
 20 43  1  0
 21 44  1  0
 22 45  1  0
 23 46  1  0
 26 47  1  0
 27 48  1  0
 28 49  1  0
 29 50  1  0
 30 51  1  0
 32 52  1  0
 32 53  1  0
 32 54  1  0
 33 55  1  0
M  END
$$$$
