
     RDKit          3D

 72 77  0  0  0  0  0  0  0  0999 V2000
   -9.9212   -1.2797    2.7195 C   0  0  0  0  0  0  0  0  0  0  0  0
   -8.8153   -1.2447    1.7070 C   0  0  0  0  0  0  0  0  0  0  0  0
   -8.3597   -2.4190    1.1085 C   0  0  0  0  0  0  0  0  0  0  0  0
   -7.3032   -2.3817    0.1976 C   0  0  0  0  0  0  0  0  0  0  0  0
   -6.6717   -1.1716   -0.1346 C   0  0  0  0  0  0  0  0  0  0  0  0
   -5.5311   -1.2050   -1.1149 C   0  0  0  0  0  0  0  0  0  0  0  0
   -7.1115    0.0216    0.4763 C   0  0  0  0  0  0  0  0  0  0  0  0
   -6.4787    1.3697    0.2033 C   0  0  0  0  0  0  0  0  0  0  0  0
   -5.5290    1.7456    1.2325 N   0  0  0  0  0  0  0  0  0  0  0  0
   -5.9512    2.2675    2.4140 N   0  0  0  0  0  0  0  0  0  0  0  0
   -4.8733    2.5520    3.1440 N   0  0  0  0  0  0  0  0  0  0  0  0
   -3.7846    2.2408    2.3922 C   0  0  0  0  0  0  0  0  0  0  0  0
   -2.3812    2.3619    2.6750 C   0  0  0  0  0  0  0  0  0  0  0  0
   -1.8868    2.7812    3.7156 O   0  0  0  0  0  0  0  0  0  0  0  0
   -1.5943    1.9450    1.6082 N   0  0  0  0  0  0  0  0  0  0  0  0
   -2.0996    1.4804    0.3995 C   0  0  0  0  0  0  0  0  0  0  0  0
   -1.0790    1.0765   -0.6535 C   0  0  0  0  0  0  0  0  0  0  0  0
   -0.2297   -0.1009   -0.1696 C   0  0  0  0  0  0  0  0  0  0  0  0
    0.7247   -0.5725   -1.2671 C   0  0  0  0  0  0  0  0  0  0  0  0
    1.2920    0.5688   -2.0225 N   0  0  0  0  0  0  0  0  0  0  0  0
    2.6054    0.2406   -3.0485 S   0  0  0  0  0  6  0  0  0  0  0  0
    2.8601    1.4175   -3.8517 O   0  0  0  0  0  0  0  0  0  0  0  0
    2.3831   -1.0529   -3.6590 O   0  0  0  0  0  0  0  0  0  0  0  0
    3.9722    0.0716   -1.9146 C   0  0  0  0  0  0  0  0  0  0  0  0
    4.6969    1.2088   -1.5379 C   0  0  0  0  0  0  0  0  0  0  0  0
    5.7889    1.0787   -0.6784 C   0  0  0  0  0  0  0  0  0  0  0  0
    6.1606   -0.1915   -0.2241 C   0  0  0  0  0  0  0  0  0  0  0  0
    7.5369   -0.3623    0.8889 S   0  0  0  0  0  6  0  0  0  0  0  0
    7.3201   -1.5543    1.6792 O   0  0  0  0  0  0  0  0  0  0  0  0
    7.7780    0.9274    1.4999 O   0  0  0  0  0  0  0  0  0  0  0  0
    8.8044   -0.6131   -0.2118 N   0  0  0  0  0  0  0  0  0  0  0  0
    9.6033   -1.8255    0.0123 C   0  0  0  0  0  0  0  0  0  0  0  0
   10.9805   -1.9440   -0.5768 C   0  0  0  0  0  0  0  0  0  0  0  0
   10.8059   -1.8221    0.9106 C   0  0  0  0  0  0  0  0  0  0  0  0
    5.4441   -1.3304   -0.6092 C   0  0  0  0  0  0  0  0  0  0  0  0
    4.3522   -1.1994   -1.4681 C   0  0  0  0  0  0  0  0  0  0  0  0
    1.2548    1.8691   -1.3346 C   0  0  0  0  0  0  0  0  0  0  0  0
   -0.2048    2.2614   -1.0978 C   0  0  0  0  0  0  0  0  0  0  0  0
   -3.3722    1.3683    0.1342 N   0  0  0  0  0  0  0  0  0  0  0  0
   -4.1641    1.7516    1.1655 C   0  0  0  0  0  0  0  0  0  0  0  0
   -8.1793   -0.0375    1.3964 C   0  0  0  0  0  0  0  0  0  0  0  0
   -9.5027   -1.3483    3.7284 H   0  0  0  0  0  0  0  0  0  0  0  0
  -10.5380   -0.3772    2.6510 H   0  0  0  0  0  0  0  0  0  0  0  0
  -10.5804   -2.1378    2.5520 H   0  0  0  0  0  0  0  0  0  0  0  0
   -8.8216   -3.3739    1.3485 H   0  0  0  0  0  0  0  0  0  0  0  0
   -6.9713   -3.3161   -0.2515 H   0  0  0  0  0  0  0  0  0  0  0  0
   -5.7086   -0.5095   -1.9412 H   0  0  0  0  0  0  0  0  0  0  0  0
   -5.4134   -2.2006   -1.5580 H   0  0  0  0  0  0  0  0  0  0  0  0
   -4.5936   -0.9572   -0.6105 H   0  0  0  0  0  0  0  0  0  0  0  0
   -5.9705    1.3990   -0.7648 H   0  0  0  0  0  0  0  0  0  0  0  0
   -7.2484    2.1507    0.1651 H   0  0  0  0  0  0  0  0  0  0  0  0
   -0.6021    2.0204    1.7721 H   0  0  0  0  0  0  0  0  0  0  0  0
   -1.6476    0.7349   -1.5301 H   0  0  0  0  0  0  0  0  0  0  0  0
    0.3527    0.1890    0.7150 H   0  0  0  0  0  0  0  0  0  0  0  0
   -0.8666   -0.9348    0.1497 H   0  0  0  0  0  0  0  0  0  0  0  0
    0.1714   -1.2031   -1.9731 H   0  0  0  0  0  0  0  0  0  0  0  0
    1.5138   -1.1800   -0.8138 H   0  0  0  0  0  0  0  0  0  0  0  0
    4.4231    2.1918   -1.9159 H   0  0  0  0  0  0  0  0  0  0  0  0
    6.3482    1.9628   -0.3795 H   0  0  0  0  0  0  0  0  0  0  0  0
    9.3686    0.2389   -0.2537 H   0  0  0  0  0  0  0  0  0  0  0  0
    8.9956   -2.7291   -0.0064 H   0  0  0  0  0  0  0  0  0  0  0  0
   11.3916   -1.0965   -1.1125 H   0  0  0  0  0  0  0  0  0  0  0  0
   11.2736   -2.9074   -0.9799 H   0  0  0  0  0  0  0  0  0  0  0  0
   10.9804   -2.7035    1.5191 H   0  0  0  0  0  0  0  0  0  0  0  0
   11.1015   -0.8936    1.3861 H   0  0  0  0  0  0  0  0  0  0  0  0
    5.7378   -2.3165   -0.2541 H   0  0  0  0  0  0  0  0  0  0  0  0
    3.8107   -2.0871   -1.7885 H   0  0  0  0  0  0  0  0  0  0  0  0
    1.7321    2.6538   -1.9300 H   0  0  0  0  0  0  0  0  0  0  0  0
    1.7953    1.8033   -0.3829 H   0  0  0  0  0  0  0  0  0  0  0  0
   -0.6216    2.6584   -2.0331 H   0  0  0  0  0  0  0  0  0  0  0  0
   -0.2389    3.0947   -0.3872 H   0  0  0  0  0  0  0  0  0  0  0  0
   -8.5136    0.8763    1.8897 H   0  0  0  0  0  0  0  0  0  0  0  0
  1  2  1  0
  2  3  2  0
  3  4  1  0
  4  5  2  0
  5  6  1  0
  5  7  1  0
  7  8  1  0
  8  9  1  0
  9 10  1  0
 10 11  2  0
 11 12  1  0
 12 13  1  0
 13 14  2  0
 13 15  1  0
 15 16  1  0
 16 17  1  0
 17 18  1  0
 18 19  1  0
 19 20  1  0
 20 21  1  0
 21 22  2  0
 21 23  2  0
 21 24  1  0
 24 25  2  0
 25 26  1  0
 26 27  2  0
 27 28  1  0
 28 29  2  0
 28 30  2  0
 28 31  1  0
 31 32  1  0
 32 33  1  0
 33 34  1  0
 27 35  1  0
 35 36  2  0
 20 37  1  0
 37 38  1  0
 16 39  2  0
 39 40  1  0
  7 41  2  0
 41  2  1  0
 40  9  1  0
 40 12  2  0
 38 17  1  0
 36 24  1  0
 34 32  1  0
  1 42  1  0
  1 43  1  0
  1 44  1  0
  3 45  1  0
  4 46  1  0
  6 47  1  0
  6 48  1  0
  6 49  1  0
  8 50  1  0
  8 51  1  0
 15 52  1  0
 17 53  1  0
 18 54  1  0
 18 55  1  0
 19 56  1  0
 19 57  1  0
 25 58  1  0
 26 59  1  0
 31 60  1  0
 32 61  1  0
 33 62  1  0
 33 63  1  0
 34 64  1  0
 34 65  1  0
 35 66  1  0
 36 67  1  0
 37 68  1  0
 37 69  1  0
 38 70  1  0
 38 71  1  0
 41 72  1  0
M  END
$$$$
