
     RDKit          3D

 35 36  0  0  0  0  0  0  0  0999 V2000
    2.8088    1.1985   -1.9669 C   0  0  0  0  0  0  0  0  0  0  0  0
    2.7396    0.2412   -0.8564 N   0  0  0  0  0  0  0  0  0  0  0  0
    1.3901   -0.3418   -0.7323 C   0  0  0  0  0  0  0  0  0  0  0  0
    0.3283    0.6766   -0.3036 C   0  0  0  0  0  0  0  0  0  0  0  0
   -1.0107   -0.0063   -0.0301 C   0  0  0  0  0  0  0  0  0  0  0  0
   -1.9523    1.0039    0.3287 O   0  0  0  0  0  0  0  0  0  0  0  0
   -3.2355    0.6190    0.6137 C   0  0  0  0  0  0  0  0  0  0  0  0
   -3.6889   -0.7045    0.5982 C   0  0  0  0  0  0  0  0  0  0  0  0
   -5.0219   -0.9988    0.9057 C   0  0  0  0  0  0  0  0  0  0  0  0
   -5.9066    0.0270    1.2299 C   0  0  0  0  0  0  0  0  0  0  0  0
   -7.5432   -0.3455    1.6061 Cl  0  0  0  0  0  0  0  0  0  0  0  0
   -5.4750    1.3484    1.2511 C   0  0  0  0  0  0  0  0  0  0  0  0
   -4.1439    1.6410    0.9439 C   0  0  0  0  0  0  0  0  0  0  0  0
   -3.6545    3.3004    0.9823 Cl  0  0  0  0  0  0  0  0  0  0  0  0
    3.7618   -0.8055   -1.0559 C   0  0  0  0  0  0  0  0  0  0  0  0
    4.0362   -1.5355    0.2245 C   0  0  0  0  0  0  0  0  0  0  0  0
    4.8497   -0.9007    1.3211 C   0  0  0  0  0  0  0  0  0  0  0  0
    5.4137   -1.8806    0.4367 O   0  0  0  0  0  0  0  0  0  0  0  0
    2.1492    2.0550   -1.7985 H   0  0  0  0  0  0  0  0  0  0  0  0
    3.8179    1.6182   -2.0531 H   0  0  0  0  0  0  0  0  0  0  0  0
    2.5464    0.7363   -2.9254 H   0  0  0  0  0  0  0  0  0  0  0  0
    1.0878   -0.8205   -1.6731 H   0  0  0  0  0  0  0  0  0  0  0  0
    1.4027   -1.1287    0.0307 H   0  0  0  0  0  0  0  0  0  0  0  0
    0.1767    1.4416   -1.0737 H   0  0  0  0  0  0  0  0  0  0  0  0
    0.6516    1.2108    0.5990 H   0  0  0  0  0  0  0  0  0  0  0  0
   -1.3465   -0.5269   -0.9350 H   0  0  0  0  0  0  0  0  0  0  0  0
   -0.8949   -0.7206    0.7938 H   0  0  0  0  0  0  0  0  0  0  0  0
   -3.0329   -1.5333    0.3525 H   0  0  0  0  0  0  0  0  0  0  0  0
   -5.3618   -2.0318    0.8904 H   0  0  0  0  0  0  0  0  0  0  0  0
   -6.1667    2.1469    1.5043 H   0  0  0  0  0  0  0  0  0  0  0  0
    3.4619   -1.5142   -1.8381 H   0  0  0  0  0  0  0  0  0  0  0  0
    4.7007   -0.3462   -1.3928 H   0  0  0  0  0  0  0  0  0  0  0  0
    3.2959   -2.2801    0.4781 H   0  0  0  0  0  0  0  0  0  0  0  0
    5.1634    0.1290    1.2018 H   0  0  0  0  0  0  0  0  0  0  0  0
    4.6529   -1.1997    2.3424 H   0  0  0  0  0  0  0  0  0  0  0  0
  1  2  1  0
  2  3  1  0
  3  4  1  0
  4  5  1  0
  5  6  1  0
  6  7  1  0
  7  8  2  0
  8  9  1  0
  9 10  2  0
 10 11  1  0
 10 12  1  0
 12 13  2  0
 13 14  1  0
  2 15  1  0
 15 16  1  0
 16 17  1  0
 17 18  1  0
 13  7  1  0
 18 16  1  0
  1 19  1  0
  1 20  1  0
  1 21  1  0
  3 22  1  0
  3 23  1  0
  4 24  1  0
  4 25  1  0
  5 26  1  0
  5 27  1  0
  8 28  1  0
  9 29  1  0
 12 30  1  0
 15 31  1  0
 15 32  1  0
 16 33  1  0
 17 34  1  0
 17 35  1  0
M  END
$$$$
