
     RDKit          3D

 32 33  0  0  0  0  0  0  0  0999 V2000
    5.5860   -0.2732   -0.2754 C   0  0  0  0  0  0  0  0  0  0  0  0
    4.1792   -0.8114   -0.4693 C   0  0  0  0  0  0  0  0  0  0  0  0
    2.9623    0.4602   -0.0234 S   0  0  0  0  0  0  0  0  0  0  0  0
    1.4497   -0.3420   -0.3112 C   0  0  0  0  0  0  0  0  0  0  0  0
    1.1416   -1.6063   -0.7541 C   0  0  0  0  0  0  0  0  0  0  0  0
   -0.2125   -1.7928   -0.8051 N   0  0  0  0  0  0  0  0  0  0  0  0
   -0.7542   -0.6520   -0.4199 C   0  0  0  0  0  0  0  0  0  0  0  0
   -2.1923   -0.4151   -0.3180 C   0  0  0  0  0  0  0  0  0  0  0  0
   -2.9354   -1.0659    0.6737 C   0  0  0  0  0  0  0  0  0  0  0  0
   -4.3098   -0.8463    0.7841 C   0  0  0  0  0  0  0  0  0  0  0  0
   -4.9512    0.0166   -0.1037 C   0  0  0  0  0  0  0  0  0  0  0  0
   -4.2222    0.6538   -1.1072 C   0  0  0  0  0  0  0  0  0  0  0  0
   -2.8474    0.4349   -1.2179 C   0  0  0  0  0  0  0  0  0  0  0  0
    0.2327    0.2642   -0.0879 N   0  0  0  0  0  0  0  0  0  0  0  0
    0.0010    1.5967    0.4443 C   0  0  0  0  0  0  0  0  0  0  0  0
   -0.0818    1.6098    1.9617 C   0  0  0  0  0  0  0  0  0  0  0  0
    5.7741    0.5996   -0.9100 H   0  0  0  0  0  0  0  0  0  0  0  0
    5.7696    0.0073    0.7674 H   0  0  0  0  0  0  0  0  0  0  0  0
    6.3185   -1.0414   -0.5448 H   0  0  0  0  0  0  0  0  0  0  0  0
    4.0392   -1.1026   -1.5152 H   0  0  0  0  0  0  0  0  0  0  0  0
    4.0348   -1.6946    0.1612 H   0  0  0  0  0  0  0  0  0  0  0  0
    1.8162   -2.4033   -1.0352 H   0  0  0  0  0  0  0  0  0  0  0  0
   -2.4426   -1.7523    1.3591 H   0  0  0  0  0  0  0  0  0  0  0  0
   -4.8798   -1.3560    1.5565 H   0  0  0  0  0  0  0  0  0  0  0  0
   -6.0225    0.1820   -0.0215 H   0  0  0  0  0  0  0  0  0  0  0  0
   -4.7257    1.3127   -1.8099 H   0  0  0  0  0  0  0  0  0  0  0  0
   -2.2915    0.9201   -2.0167 H   0  0  0  0  0  0  0  0  0  0  0  0
   -0.9231    1.9906    0.0125 H   0  0  0  0  0  0  0  0  0  0  0  0
    0.7999    2.2576    0.0944 H   0  0  0  0  0  0  0  0  0  0  0  0
    0.8438    1.2411    2.4153 H   0  0  0  0  0  0  0  0  0  0  0  0
   -0.2548    2.6286    2.3222 H   0  0  0  0  0  0  0  0  0  0  0  0
   -0.9018    0.9791    2.3200 H   0  0  0  0  0  0  0  0  0  0  0  0
  1  2  1  0
  2  3  1  0
  3  4  1  0
  4  5  2  0
  5  6  1  0
  6  7  2  0
  7  8  1  0
  8  9  2  0
  9 10  1  0
 10 11  2  0
 11 12  1  0
 12 13  2  0
  7 14  1  0
 14 15  1  0
 15 16  1  0
 14  4  1  0
 13  8  1  0
  1 17  1  0
  1 18  1  0
  1 19  1  0
  2 20  1  0
  2 21  1  0
  5 22  1  0
  9 23  1  0
 10 24  1  0
 11 25  1  0
 12 26  1  0
 13 27  1  0
 15 28  1  0
 15 29  1  0
 16 30  1  0
 16 31  1  0
 16 32  1  0
M  END
$$$$
