
     RDKit          3D

 45 48  0  0  0  0  0  0  0  0999 V2000
    0.3950   -3.7632   -0.2629 C   0  0  0  0  0  0  0  0  0  0  0  0
    1.5839   -3.0351   -0.8640 C   0  0  0  0  0  0  0  0  0  0  0  0
    1.5977   -1.7102   -0.3374 O   0  0  0  0  0  0  0  0  0  0  0  0
    2.5157   -0.8240   -0.8443 C   0  0  0  0  0  0  0  0  0  0  0  0
    3.5908   -1.2027   -1.6611 C   0  0  0  0  0  0  0  0  0  0  0  0
    4.5169   -0.2563   -2.1035 C   0  0  0  0  0  0  0  0  0  0  0  0
    4.3852    1.0750   -1.7293 C   0  0  0  0  0  0  0  0  0  0  0  0
    3.3215    1.4615   -0.9141 C   0  0  0  0  0  0  0  0  0  0  0  0
    2.3636    0.5285   -0.4627 C   0  0  0  0  0  0  0  0  0  0  0  0
    1.2493    0.9910    0.3775 C   0  0  0  0  0  0  0  0  0  0  0  0
    1.5583    1.8106    1.4100 N   0  0  0  0  0  0  0  0  0  0  0  0
    0.5151    2.2414    2.1619 C   0  0  0  0  0  0  0  0  0  0  0  0
    0.8362    3.1306    3.3129 C   0  0  0  0  0  0  0  0  0  0  0  0
    2.1658    3.3929    3.5044 N   0  0  0  0  0  0  0  0  0  0  0  0
   -0.0279    3.5965    4.0452 O   0  0  0  0  0  0  0  0  0  0  0  0
   -0.7719    1.8850    1.8866 C   0  0  0  0  0  0  0  0  0  0  0  0
   -1.9797    2.1888    2.4923 N   0  0  0  0  0  0  0  0  0  0  0  0
   -3.0079    1.5503    1.7867 C   0  0  0  0  0  0  0  0  0  0  0  0
   -4.1836    1.6428    2.0994 O   0  0  0  0  0  0  0  0  0  0  0  0
   -2.3858    0.8365    0.7150 N   0  0  0  0  0  0  0  0  0  0  0  0
   -3.0286    0.0344   -0.2700 C   0  0  0  0  0  0  0  0  0  0  0  0
   -2.3284   -0.6397   -1.2874 C   0  0  0  0  0  0  0  0  0  0  0  0
   -2.9891   -1.4214   -2.2455 C   0  0  0  0  0  0  0  0  0  0  0  0
   -4.3668   -1.5444   -2.2011 C   0  0  0  0  0  0  0  0  0  0  0  0
   -4.9980   -2.2906   -3.1159 F   0  0  0  0  0  0  0  0  0  0  0  0
   -5.0941   -0.8994   -1.2167 C   0  0  0  0  0  0  0  0  0  0  0  0
   -4.4286   -0.1187   -0.2620 C   0  0  0  0  0  0  0  0  0  0  0  0
   -0.9877    1.0666    0.8049 C   0  0  0  0  0  0  0  0  0  0  0  0
   -0.0004    0.6169    0.0276 N   0  0  0  0  0  0  0  0  0  0  0  0
    0.3382   -4.7904   -0.6339 H   0  0  0  0  0  0  0  0  0  0  0  0
   -0.5385   -3.2471   -0.5085 H   0  0  0  0  0  0  0  0  0  0  0  0
    0.4687   -3.7851    0.8294 H   0  0  0  0  0  0  0  0  0  0  0  0
    2.5028   -3.5620   -0.5834 H   0  0  0  0  0  0  0  0  0  0  0  0
    1.4774   -3.0142   -1.9549 H   0  0  0  0  0  0  0  0  0  0  0  0
    3.7435   -2.2340   -1.9627 H   0  0  0  0  0  0  0  0  0  0  0  0
    5.3462   -0.5636   -2.7363 H   0  0  0  0  0  0  0  0  0  0  0  0
    5.1066    1.8129   -2.0712 H   0  0  0  0  0  0  0  0  0  0  0  0
    3.2301    2.5101   -0.6341 H   0  0  0  0  0  0  0  0  0  0  0  0
    2.8644    2.9551    2.9136 H   0  0  0  0  0  0  0  0  0  0  0  0
    2.4524    3.9582    4.2913 H   0  0  0  0  0  0  0  0  0  0  0  0
   -2.1042    2.7761    3.3088 H   0  0  0  0  0  0  0  0  0  0  0  0
   -1.2494   -0.5916   -1.3786 H   0  0  0  0  0  0  0  0  0  0  0  0
   -2.4276   -1.9302   -3.0228 H   0  0  0  0  0  0  0  0  0  0  0  0
   -6.1745   -1.0008   -1.1887 H   0  0  0  0  0  0  0  0  0  0  0  0
   -5.0523    0.3628    0.4855 H   0  0  0  0  0  0  0  0  0  0  0  0
  1  2  1  0
  2  3  1  0
  3  4  1  0
  4  5  2  0
  5  6  1  0
  6  7  2  0
  7  8  1  0
  8  9  2  0
  9 10  1  0
 10 11  2  0
 11 12  1  0
 12 13  1  0
 13 14  1  0
 13 15  2  0
 12 16  2  0
 16 17  1  0
 17 18  1  0
 18 19  2  0
 18 20  1  0
 20 21  1  0
 21 22  2  0
 22 23  1  0
 23 24  2  0
 24 25  1  0
 24 26  1  0
 26 27  2  0
 20 28  1  0
 28 29  2  0
  9  4  1  0
 29 10  1  0
 28 16  1  0
 27 21  1  0
  1 30  1  0
  1 31  1  0
  1 32  1  0
  2 33  1  0
  2 34  1  0
  5 35  1  0
  6 36  1  0
  7 37  1  0
  8 38  1  0
 14 39  1  0
 14 40  1  0
 17 41  1  0
 22 42  1  0
 23 43  1  0
 26 44  1  0
 27 45  1  0
M  END
$$$$
