
     RDKit          3D

 35 36  0  0  0  0  0  0  0  0999 V2000
    3.7867   -1.5056    0.9666 C   0  0  0  0  0  0  0  0  0  0  0  0
    2.4676   -1.0368    1.2518 O   0  0  0  0  0  0  0  0  0  0  0  0
    2.3861    0.3161    1.0525 C   0  0  0  0  0  0  0  0  0  0  0  0
    2.8559    1.1726    2.0520 C   0  0  0  0  0  0  0  0  0  0  0  0
    2.7168    2.5542    1.9100 C   0  0  0  0  0  0  0  0  0  0  0  0
    2.0931    3.0824    0.7795 C   0  0  0  0  0  0  0  0  0  0  0  0
    1.6036    2.2288   -0.2113 C   0  0  0  0  0  0  0  0  0  0  0  0
    1.7440    0.8399   -0.0744 C   0  0  0  0  0  0  0  0  0  0  0  0
    1.2394   -0.0569   -1.1351 C   0  0  0  0  0  0  0  0  0  0  0  0
    1.8558   -0.9971   -1.6065 O   0  0  0  0  0  0  0  0  0  0  0  0
   -0.0151    0.3355   -1.4695 O   0  0  0  0  0  0  0  0  0  0  0  0
   -0.6900   -0.4939   -2.4309 C   0  0  0  0  0  0  0  0  0  0  0  0
   -1.2417   -1.7727   -1.7943 C   0  0  0  0  0  0  0  0  0  0  0  0
   -2.3551   -1.4954   -0.8111 C   0  0  0  0  0  0  0  0  0  0  0  0
   -2.0699   -1.3118    0.5490 C   0  0  0  0  0  0  0  0  0  0  0  0
   -3.0947   -1.0388    1.4559 C   0  0  0  0  0  0  0  0  0  0  0  0
   -4.4125   -0.9449    1.0126 C   0  0  0  0  0  0  0  0  0  0  0  0
   -4.7067   -1.1223   -0.3382 C   0  0  0  0  0  0  0  0  0  0  0  0
   -3.6831   -1.3946   -1.2474 C   0  0  0  0  0  0  0  0  0  0  0  0
    3.7549   -2.5988    0.9399 H   0  0  0  0  0  0  0  0  0  0  0  0
    4.1445   -1.1518   -0.0069 H   0  0  0  0  0  0  0  0  0  0  0  0
    4.4824   -1.2056    1.7573 H   0  0  0  0  0  0  0  0  0  0  0  0
    3.3162    0.7651    2.9481 H   0  0  0  0  0  0  0  0  0  0  0  0
    3.0848    3.2190    2.6880 H   0  0  0  0  0  0  0  0  0  0  0  0
    1.9809    4.1589    0.6732 H   0  0  0  0  0  0  0  0  0  0  0  0
    1.1142    2.6486   -1.0870 H   0  0  0  0  0  0  0  0  0  0  0  0
   -0.0085   -0.7368   -3.2553 H   0  0  0  0  0  0  0  0  0  0  0  0
   -1.5004    0.1073   -2.8582 H   0  0  0  0  0  0  0  0  0  0  0  0
   -1.6215   -2.4348   -2.5822 H   0  0  0  0  0  0  0  0  0  0  0  0
   -0.4472   -2.3289   -1.2830 H   0  0  0  0  0  0  0  0  0  0  0  0
   -1.0449   -1.3781    0.9091 H   0  0  0  0  0  0  0  0  0  0  0  0
   -2.8626   -0.8983    2.5082 H   0  0  0  0  0  0  0  0  0  0  0  0
   -5.2097   -0.7325    1.7198 H   0  0  0  0  0  0  0  0  0  0  0  0
   -5.7342   -1.0481   -0.6840 H   0  0  0  0  0  0  0  0  0  0  0  0
   -3.9289   -1.5288   -2.2981 H   0  0  0  0  0  0  0  0  0  0  0  0
  1  2  1  0
  2  3  1  0
  3  4  2  0
  4  5  1  0
  5  6  2  0
  6  7  1  0
  7  8  2  0
  8  9  1  0
  9 10  2  0
  9 11  1  0
 11 12  1  0
 12 13  1  0
 13 14  1  0
 14 15  2  0
 15 16  1  0
 16 17  2  0
 17 18  1  0
 18 19  2  0
  8  3  1  0
 19 14  1  0
  1 20  1  0
  1 21  1  0
  1 22  1  0
  4 23  1  0
  5 24  1  0
  6 25  1  0
  7 26  1  0
 12 27  1  0
 12 28  1  0
 13 29  1  0
 13 30  1  0
 15 31  1  0
 16 32  1  0
 17 33  1  0
 18 34  1  0
 19 35  1  0
M  END
$$$$
