
     RDKit          3D

 60 65  0  0  0  0  0  0  0  0999 V2000
    0.4196   -0.1348    2.6650 O   0  0  0  0  0  0  0  0  0  0  0  0
   -0.4861   -0.3187    1.8603 C   0  0  0  0  0  0  0  0  0  0  0  0
   -0.3431   -0.0343    0.5093 N   0  0  0  0  0  0  0  0  0  0  0  0
   -1.3151   -0.2640   -0.4552 C   0  0  0  0  0  0  0  0  0  0  0  0
   -0.9448    0.0955   -1.8929 C   0  0  0  0  0  0  0  0  0  0  0  0
    0.3656   -0.5791   -2.3305 C   0  0  0  0  0  0  0  0  0  0  0  0
    1.5514    0.3846   -2.3746 C   0  0  0  0  0  0  0  0  0  0  0  0
    1.4327    1.3366   -1.2359 N   0  0  0  0  0  0  0  0  0  0  0  0
    2.9025    2.1635   -0.8439 S   0  0  0  0  0  6  0  0  0  0  0  0
    3.4803    2.6164   -2.0904 O   0  0  0  0  0  0  0  0  0  0  0  0
    2.6052    3.0810    0.2333 O   0  0  0  0  0  0  0  0  0  0  0  0
    3.9012    0.8588   -0.1790 C   0  0  0  0  0  0  0  0  0  0  0  0
    3.6119    0.3634    1.0977 C   0  0  0  0  0  0  0  0  0  0  0  0
    4.3842   -0.6725    1.6244 C   0  0  0  0  0  0  0  0  0  0  0  0
    5.4415   -1.1974    0.8820 C   0  0  0  0  0  0  0  0  0  0  0  0
    5.7516   -0.6647   -0.3759 C   0  0  0  0  0  0  0  0  0  0  0  0
    4.9775    0.3589   -0.9162 C   0  0  0  0  0  0  0  0  0  0  0  0
    6.7999   -1.1092   -1.1404 O   0  0  0  0  0  0  0  0  0  0  0  0
    7.7211   -1.8812   -0.3604 C   0  0  0  0  0  0  0  0  0  0  0  0
    6.9779   -2.8907    0.4984 C   0  0  0  0  0  0  0  0  0  0  0  0
    6.1437   -2.2262    1.4543 O   0  0  0  0  0  0  0  0  0  0  0  0
    0.3038    2.3009   -1.4535 C   0  0  0  0  0  0  0  0  0  0  0  0
   -0.9057    1.6132   -2.0931 C   0  0  0  0  0  0  0  0  0  0  0  0
   -2.4990   -0.7495   -0.1963 N   0  0  0  0  0  0  0  0  0  0  0  0
   -2.6792   -1.0137    1.1228 C   0  0  0  0  0  0  0  0  0  0  0  0
   -1.7890   -0.8482    2.1576 C   0  0  0  0  0  0  0  0  0  0  0  0
   -2.3421   -1.2453    3.3346 N   0  0  0  0  0  0  0  0  0  0  0  0
   -3.5819   -1.6586    3.0696 N   0  0  0  0  0  0  0  0  0  0  0  0
   -3.7967   -1.5016    1.7403 N   0  0  0  0  0  0  0  0  0  0  0  0
   -5.0540   -1.8904    1.1355 C   0  0  0  0  0  0  0  0  0  0  0  0
   -5.9992   -0.7262    1.0271 C   0  0  0  0  0  0  0  0  0  0  0  0
   -5.9194    0.1783   -0.0426 C   0  0  0  0  0  0  0  0  0  0  0  0
   -6.7932    1.2654   -0.1166 C   0  0  0  0  0  0  0  0  0  0  0  0
   -7.7524    1.4630    0.8768 C   0  0  0  0  0  0  0  0  0  0  0  0
   -7.8385    0.5725    1.9445 C   0  0  0  0  0  0  0  0  0  0  0  0
   -6.9658   -0.5090    2.0119 C   0  0  0  0  0  0  0  0  0  0  0  0
   -7.0736   -1.3600    3.0412 F   0  0  0  0  0  0  0  0  0  0  0  0
    0.5517    0.3586    0.2364 H   0  0  0  0  0  0  0  0  0  0  0  0
   -1.7516   -0.3083   -2.5205 H   0  0  0  0  0  0  0  0  0  0  0  0
    0.2406   -1.0111   -3.3317 H   0  0  0  0  0  0  0  0  0  0  0  0
    0.6027   -1.4229   -1.6695 H   0  0  0  0  0  0  0  0  0  0  0  0
    1.5625    0.9355   -3.3230 H   0  0  0  0  0  0  0  0  0  0  0  0
    2.4738   -0.1993   -2.3184 H   0  0  0  0  0  0  0  0  0  0  0  0
    2.7964    0.7770    1.6896 H   0  0  0  0  0  0  0  0  0  0  0  0
    4.1587   -1.0707    2.6110 H   0  0  0  0  0  0  0  0  0  0  0  0
    5.2242    0.7619   -1.8952 H   0  0  0  0  0  0  0  0  0  0  0  0
    8.3924   -2.3960   -1.0547 H   0  0  0  0  0  0  0  0  0  0  0  0
    8.3211   -1.1956    0.2506 H   0  0  0  0  0  0  0  0  0  0  0  0
    6.3496   -3.5507   -0.1126 H   0  0  0  0  0  0  0  0  0  0  0  0
    7.6882   -3.5122    1.0524 H   0  0  0  0  0  0  0  0  0  0  0  0
    0.0097    2.7041   -0.4777 H   0  0  0  0  0  0  0  0  0  0  0  0
    0.6213    3.1384   -2.0844 H   0  0  0  0  0  0  0  0  0  0  0  0
   -0.8831    1.8132   -3.1728 H   0  0  0  0  0  0  0  0  0  0  0  0
   -1.8257    2.0802   -1.7210 H   0  0  0  0  0  0  0  0  0  0  0  0
   -5.4822   -2.7038    1.7325 H   0  0  0  0  0  0  0  0  0  0  0  0
   -4.8400   -2.3069    0.1445 H   0  0  0  0  0  0  0  0  0  0  0  0
   -5.1717    0.0453   -0.8226 H   0  0  0  0  0  0  0  0  0  0  0  0
   -6.7232    1.9620   -0.9487 H   0  0  0  0  0  0  0  0  0  0  0  0
   -8.4300    2.3109    0.8198 H   0  0  0  0  0  0  0  0  0  0  0  0
   -8.5782    0.7134    2.7266 H   0  0  0  0  0  0  0  0  0  0  0  0
  1  2  2  0
  2  3  1  0
  3  4  1  0
  4  5  1  0
  5  6  1  0
  6  7  1  0
  7  8  1  0
  8  9  1  0
  9 10  2  0
  9 11  2  0
  9 12  1  0
 12 13  2  0
 13 14  1  0
 14 15  2  0
 15 16  1  0
 16 17  2  0
 16 18  1  0
 18 19  1  0
 19 20  1  0
 20 21  1  0
  8 22  1  0
 22 23  1  0
  4 24  2  0
 24 25  1  0
 25 26  2  0
 26 27  1  0
 27 28  2  0
 28 29  1  0
 29 30  1  0
 30 31  1  0
 31 32  2  0
 32 33  1  0
 33 34  2  0
 34 35  1  0
 35 36  2  0
 36 37  1  0
 26  2  1  0
 36 31  1  0
 23  5  1  0
 29 25  1  0
 17 12  1  0
 21 15  1  0
  3 38  1  0
  5 39  1  0
  6 40  1  0
  6 41  1  0
  7 42  1  0
  7 43  1  0
 13 44  1  0
 14 45  1  0
 17 46  1  0
 19 47  1  0
 19 48  1  0
 20 49  1  0
 20 50  1  0
 22 51  1  0
 22 52  1  0
 23 53  1  0
 23 54  1  0
 30 55  1  0
 30 56  1  0
 32 57  1  0
 33 58  1  0
 34 59  1  0
 35 60  1  0
M  END
$$$$
