
     RDKit          3D

 54 57  0  0  0  0  0  0  0  0999 V2000
   -5.6668    4.1068    0.6020 C   0  0  0  0  0  0  0  0  0  0  0  0
   -5.6870    2.9352   -0.2023 O   0  0  0  0  0  0  0  0  0  0  0  0
   -4.4997    2.2829   -0.3805 C   0  0  0  0  0  0  0  0  0  0  0  0
   -3.2499    2.7140    0.0673 C   0  0  0  0  0  0  0  0  0  0  0  0
   -2.1040    1.9512   -0.1919 C   0  0  0  0  0  0  0  0  0  0  0  0
   -2.2080    0.7451   -0.8946 C   0  0  0  0  0  0  0  0  0  0  0  0
   -1.0534   -0.0371   -1.1502 N   0  0  0  0  0  0  0  0  0  0  0  0
   -0.8959   -1.4077   -0.9606 C   0  0  0  0  0  0  0  0  0  0  0  0
   -1.8545   -2.3168   -0.2639 C   0  0  0  0  0  0  0  0  0  0  0  0
   -1.9464   -2.0477    1.2090 C   0  0  0  0  0  0  0  0  0  0  0  0
   -2.9760   -1.4570    1.9223 C   0  0  0  0  0  0  0  0  0  0  0  0
   -2.6099   -1.4410    3.2865 C   0  0  0  0  0  0  0  0  0  0  0  0
   -1.3685   -2.0257    3.3815 C   0  0  0  0  0  0  0  0  0  0  0  0
   -0.9638   -2.3808    2.1207 N   0  0  0  0  0  0  0  0  0  0  0  0
    0.3141   -2.9950    1.8259 C   0  0  0  0  0  0  0  0  0  0  0  0
    0.3039   -1.7767   -1.3762 N   0  0  0  0  0  0  0  0  0  0  0  0
    0.9661   -0.6685   -1.8115 N   0  0  0  0  0  0  0  0  0  0  0  0
    0.1716    0.3678   -1.6537 C   0  0  0  0  0  0  0  0  0  0  0  0
    0.5661    1.9747   -2.1780 S   0  0  0  0  0  0  0  0  0  0  0  0
    2.1825    1.7192   -2.9670 C   0  0  0  0  0  0  0  0  0  0  0  0
    3.2865    1.5847   -1.9254 C   0  0  0  0  0  0  0  0  0  0  0  0
    3.8220    2.5781   -1.4399 O   0  0  0  0  0  0  0  0  0  0  0  0
    3.5570    0.2680   -1.5921 N   0  0  0  0  0  0  0  0  0  0  0  0
    4.5975   -0.1972   -0.7624 C   0  0  0  0  0  0  0  0  0  0  0  0
    4.4073   -1.4450   -0.1536 C   0  0  0  0  0  0  0  0  0  0  0  0
    5.3857   -1.9867    0.6885 C   0  0  0  0  0  0  0  0  0  0  0  0
    6.5719   -1.2945    0.9182 C   0  0  0  0  0  0  0  0  0  0  0  0
    6.7829   -0.0680    0.2952 C   0  0  0  0  0  0  0  0  0  0  0  0
    5.8058    0.4717   -0.5444 C   0  0  0  0  0  0  0  0  0  0  0  0
    6.1126    1.6049   -1.1917 F   0  0  0  0  0  0  0  0  0  0  0  0
   -3.4586    0.3124   -1.3485 C   0  0  0  0  0  0  0  0  0  0  0  0
   -4.5934    1.0853   -1.0924 C   0  0  0  0  0  0  0  0  0  0  0  0
   -5.0424    4.8856    0.1523 H   0  0  0  0  0  0  0  0  0  0  0  0
   -6.6910    4.4921    0.6564 H   0  0  0  0  0  0  0  0  0  0  0  0
   -5.3408    3.8778    1.6244 H   0  0  0  0  0  0  0  0  0  0  0  0
   -3.1294    3.6391    0.6237 H   0  0  0  0  0  0  0  0  0  0  0  0
   -1.1517    2.3028    0.2022 H   0  0  0  0  0  0  0  0  0  0  0  0
   -2.8460   -2.2666   -0.7179 H   0  0  0  0  0  0  0  0  0  0  0  0
   -1.5327   -3.3550   -0.4166 H   0  0  0  0  0  0  0  0  0  0  0  0
   -3.8998   -1.0758    1.5027 H   0  0  0  0  0  0  0  0  0  0  0  0
   -3.1907   -1.0514    4.1118 H   0  0  0  0  0  0  0  0  0  0  0  0
   -0.7427   -2.2097    4.2476 H   0  0  0  0  0  0  0  0  0  0  0  0
    0.9706   -2.2280    1.4079 H   0  0  0  0  0  0  0  0  0  0  0  0
    0.7482   -3.3901    2.7482 H   0  0  0  0  0  0  0  0  0  0  0  0
    0.1677   -3.8145    1.1195 H   0  0  0  0  0  0  0  0  0  0  0  0
    2.1658    0.8531   -3.6377 H   0  0  0  0  0  0  0  0  0  0  0  0
    2.4134    2.5914   -3.5886 H   0  0  0  0  0  0  0  0  0  0  0  0
    2.7936   -0.3848   -1.7554 H   0  0  0  0  0  0  0  0  0  0  0  0
    3.4848   -2.0005   -0.3098 H   0  0  0  0  0  0  0  0  0  0  0  0
    5.2195   -2.9483    1.1646 H   0  0  0  0  0  0  0  0  0  0  0  0
    7.3346   -1.7122    1.5760 H   0  0  0  0  0  0  0  0  0  0  0  0
    7.7099    0.4746    0.4494 H   0  0  0  0  0  0  0  0  0  0  0  0
   -3.5749   -0.5915   -1.9422 H   0  0  0  0  0  0  0  0  0  0  0  0
   -5.5636    0.7549   -1.4547 H   0  0  0  0  0  0  0  0  0  0  0  0
  1  2  1  0
  2  3  1  0
  3  4  2  0
  4  5  1  0
  5  6  2  0
  6  7  1  0
  7  8  1  0
  8  9  1  0
  9 10  1  0
 10 11  2  0
 11 12  1  0
 12 13  2  0
 13 14  1  0
 14 15  1  0
  8 16  2  0
 16 17  1  0
 17 18  2  0
 18 19  1  0
 19 20  1  0
 20 21  1  0
 21 22  2  0
 21 23  1  0
 23 24  1  0
 24 25  2  0
 25 26  1  0
 26 27  2  0
 27 28  1  0
 28 29  2  0
 29 30  1  0
  6 31  1  0
 31 32  2  0
 32  3  1  0
 18  7  1  0
 29 24  1  0
 14 10  1  0
  1 33  1  0
  1 34  1  0
  1 35  1  0
  4 36  1  0
  5 37  1  0
  9 38  1  0
  9 39  1  0
 11 40  1  0
 12 41  1  0
 13 42  1  0
 15 43  1  0
 15 44  1  0
 15 45  1  0
 20 46  1  0
 20 47  1  0
 23 48  1  0
 25 49  1  0
 26 50  1  0
 27 51  1  0
 28 52  1  0
 31 53  1  0
 32 54  1  0
M  END
$$$$
