
     RDKit          3D

 48 51  0  0  0  0  0  0  0  0999 V2000
    0.5963   -1.0311    2.6539 C   0  0  0  0  0  0  0  0  0  0  0  0
   -0.4222   -0.1993    1.8916 C   0  0  0  0  0  0  0  0  0  0  0  0
   -0.8472   -0.8176    0.6553 N   0  0  0  0  0  0  0  0  0  0  0  0
   -2.0316   -1.4911    0.4585 C   0  0  0  0  0  0  0  0  0  0  0  0
   -3.3453   -1.5221    1.5837 S   0  0  0  0  0  0  0  0  0  0  0  0
   -4.7123   -2.0923    0.5281 C   0  0  0  0  0  0  0  0  0  0  0  0
   -5.3900   -0.9538   -0.1983 C   0  0  0  0  0  0  0  0  0  0  0  0
   -6.4380   -0.2427    0.4111 C   0  0  0  0  0  0  0  0  0  0  0  0
   -7.0630    0.8091   -0.2607 C   0  0  0  0  0  0  0  0  0  0  0  0
   -6.6351    1.1600   -1.5350 C   0  0  0  0  0  0  0  0  0  0  0  0
   -7.2379    2.1702   -2.1774 F   0  0  0  0  0  0  0  0  0  0  0  0
   -5.5948    0.4770   -2.1519 C   0  0  0  0  0  0  0  0  0  0  0  0
   -4.9729   -0.5804   -1.4873 C   0  0  0  0  0  0  0  0  0  0  0  0
   -1.9879   -2.1523   -0.6711 N   0  0  0  0  0  0  0  0  0  0  0  0
   -0.7701   -1.9137   -1.2392 N   0  0  0  0  0  0  0  0  0  0  0  0
   -0.0977   -1.0684   -0.4771 C   0  0  0  0  0  0  0  0  0  0  0  0
    1.3303   -0.6176   -0.9265 C   0  0  0  0  0  0  0  0  0  0  0  0
    2.0143   -1.2469   -1.9818 C   0  0  0  0  0  0  0  0  0  0  0  0
    3.2273   -0.7402   -2.1772 N   0  0  0  0  0  0  0  0  0  0  0  0
    3.3813    0.1755   -1.1849 N   0  0  0  0  0  0  0  0  0  0  0  0
    4.6917    0.6891   -0.9350 C   0  0  0  0  0  0  0  0  0  0  0  0
    5.0485    1.2694    0.2902 C   0  0  0  0  0  0  0  0  0  0  0  0
    6.3500    1.7446    0.4927 C   0  0  0  0  0  0  0  0  0  0  0  0
    7.3065    1.6311   -0.5141 C   0  0  0  0  0  0  0  0  0  0  0  0
    6.9701    1.0303   -1.7247 C   0  0  0  0  0  0  0  0  0  0  0  0
    5.6731    0.5549   -1.9330 C   0  0  0  0  0  0  0  0  0  0  0  0
    2.1693    0.4176   -0.5545 C   0  0  0  0  0  0  0  0  0  0  0  0
    1.9173    1.6610    0.1730 C   0  0  0  0  0  0  0  0  0  0  0  0
    0.6268    2.0608    0.0328 F   0  0  0  0  0  0  0  0  0  0  0  0
    2.6680    2.7059   -0.2472 F   0  0  0  0  0  0  0  0  0  0  0  0
    2.1349    1.5174    1.5048 F   0  0  0  0  0  0  0  0  0  0  0  0
    0.1797   -2.0068    2.9220 H   0  0  0  0  0  0  0  0  0  0  0  0
    0.8877   -0.5213    3.5772 H   0  0  0  0  0  0  0  0  0  0  0  0
    1.5020   -1.2071    2.0643 H   0  0  0  0  0  0  0  0  0  0  0  0
   -1.2917   -0.0284    2.5324 H   0  0  0  0  0  0  0  0  0  0  0  0
   -0.0437    0.7915    1.6681 H   0  0  0  0  0  0  0  0  0  0  0  0
   -5.4456   -2.5863    1.1750 H   0  0  0  0  0  0  0  0  0  0  0  0
   -4.3851   -2.8639   -0.1787 H   0  0  0  0  0  0  0  0  0  0  0  0
   -6.7754   -0.5110    1.4103 H   0  0  0  0  0  0  0  0  0  0  0  0
   -7.8792    1.3557    0.2007 H   0  0  0  0  0  0  0  0  0  0  0  0
   -5.2745    0.7704   -3.1472 H   0  0  0  0  0  0  0  0  0  0  0  0
   -4.1588   -1.1120   -1.9789 H   0  0  0  0  0  0  0  0  0  0  0  0
    1.6757   -2.0631   -2.6067 H   0  0  0  0  0  0  0  0  0  0  0  0
    4.3647    1.3439    1.1263 H   0  0  0  0  0  0  0  0  0  0  0  0
    6.6176    2.2033    1.4418 H   0  0  0  0  0  0  0  0  0  0  0  0
    8.3153    2.0039   -0.3524 H   0  0  0  0  0  0  0  0  0  0  0  0
    7.7149    0.9308   -2.5107 H   0  0  0  0  0  0  0  0  0  0  0  0
    5.4368    0.0960   -2.8941 H   0  0  0  0  0  0  0  0  0  0  0  0
  1  2  1  0
  2  3  1  0
  3  4  1  0
  4  5  1  0
  5  6  1  0
  6  7  1  0
  7  8  2  0
  8  9  1  0
  9 10  2  0
 10 11  1  0
 10 12  1  0
 12 13  2  0
  4 14  2  0
 14 15  1  0
 15 16  2  0
 16 17  1  0
 17 18  1  0
 18 19  2  0
 19 20  1  0
 20 21  1  0
 21 22  2  0
 22 23  1  0
 23 24  2  0
 24 25  1  0
 25 26  2  0
 20 27  1  0
 27 28  1  0
 28 29  1  0
 28 30  1  0
 28 31  1  0
 16  3  1  0
 27 17  2  0
 13  7  1  0
 26 21  1  0
  1 32  1  0
  1 33  1  0
  1 34  1  0
  2 35  1  0
  2 36  1  0
  6 37  1  0
  6 38  1  0
  8 39  1  0
  9 40  1  0
 12 41  1  0
 13 42  1  0
 18 43  1  0
 22 44  1  0
 23 45  1  0
 24 46  1  0
 25 47  1  0
 26 48  1  0
M  END
$$$$
