
     RDKit          3D

 82 86  0  0  0  0  0  0  0  0999 V2000
   -0.3172    5.3847    0.8261 C   0  0  0  0  0  0  0  0  0  0  0  0
    0.1320    4.2689   -0.0876 C   0  0  0  0  0  0  0  0  0  0  0  0
    1.3284    3.6919    0.1489 C   0  0  0  0  0  0  0  0  0  0  0  0
    2.0908    2.7270   -0.7249 C   0  0  0  0  0  0  0  0  0  0  0  0
    2.1246    1.2771   -0.2124 C   0  0  0  0  0  0  0  0  0  0  0  0
    0.7730    0.5907   -0.3868 C   0  0  0  0  0  0  0  0  0  0  0  0
    0.8598   -0.8988   -0.0729 C   0  0  0  0  0  0  0  0  0  0  0  0
    2.0225   -1.5415   -0.8206 C   0  0  0  0  0  0  0  0  0  0  0  0
    3.3292   -0.7690   -0.5954 C   0  0  0  0  0  0  0  0  0  0  0  0
    4.4321   -1.3512   -1.5068 C   0  0  0  0  0  0  0  0  0  0  0  0
    5.1901   -2.4733   -0.8166 C   0  0  0  0  0  0  0  0  0  0  0  0
    5.7883   -2.0128    0.5231 C   0  0  0  0  0  0  0  0  0  0  0  0
    7.3022   -1.8280    0.4295 C   0  0  0  0  0  0  0  0  0  0  0  0
    5.0467   -0.7991    1.1250 C   0  0  0  0  0  0  0  0  0  0  0  0
    5.6252    0.5893    0.8450 C   0  0  0  0  0  0  0  0  0  0  0  0
    3.6576   -0.8775    0.7951 O   0  0  0  0  0  0  0  0  0  0  0  0
    3.1284    0.5936   -0.9840 O   0  0  0  0  0  0  0  0  0  0  0  0
   -0.3513   -1.5143   -0.5565 O   0  0  0  0  0  0  0  0  0  0  0  0
   -1.3688   -1.6794    0.3322 C   0  0  0  0  0  0  0  0  0  0  0  0
   -1.2948   -1.4721    1.5321 O   0  0  0  0  0  0  0  0  0  0  0  0
   -2.6073   -2.1477   -0.4233 C   0  0  0  0  0  0  0  0  0  0  0  0
   -2.6840   -3.6665   -0.3552 C   0  0  0  0  0  0  0  0  0  0  0  0
   -3.6705   -4.3570    0.2589 C   0  0  0  0  0  0  0  0  0  0  0  0
   -3.7394   -5.8553    0.1851 C   0  0  0  0  0  0  0  0  0  0  0  0
   -4.7878   -3.6525    1.0114 C   0  0  0  0  0  0  0  0  0  0  0  0
   -5.0649   -4.3709    2.2173 O   0  0  0  0  0  0  0  0  0  0  0  0
   -4.3712   -2.2133    1.3470 C   0  0  0  0  0  0  0  0  0  0  0  0
   -5.4315   -1.4129    1.8918 O   0  0  0  0  0  0  0  0  0  0  0  0
   -5.0332   -0.0453    1.6565 C   0  0  0  0  0  0  0  0  0  0  0  0
   -3.9659   -0.0612    0.5833 C   0  0  0  0  0  0  0  0  0  0  0  0
   -3.2359    0.9839    0.1548 C   0  0  0  0  0  0  0  0  0  0  0  0
   -3.2713    2.2915    0.7632 C   0  0  0  0  0  0  0  0  0  0  0  0
   -2.8186    3.4447    0.2448 C   0  0  0  0  0  0  0  0  0  0  0  0
   -2.2863    3.7393   -1.1378 C   0  0  0  0  0  0  0  0  0  0  0  0
   -3.0371    4.9665   -1.6806 C   0  0  0  0  0  0  0  0  0  0  0  0
   -0.7430    3.9388   -1.2875 C   0  0  0  0  0  0  0  0  0  0  0  0
   -3.8939   -1.4756    0.0920 C   0  0  0  0  0  0  0  0  0  0  0  0
   -4.8968   -1.5518   -0.9487 O   0  0  0  0  0  0  0  0  0  0  0  0
   -0.9522    5.0082    1.6379 H   0  0  0  0  0  0  0  0  0  0  0  0
    0.5414    5.8849    1.2959 H   0  0  0  0  0  0  0  0  0  0  0  0
   -0.8645    6.1562    0.2693 H   0  0  0  0  0  0  0  0  0  0  0  0
    1.8772    3.9884    1.0412 H   0  0  0  0  0  0  0  0  0  0  0  0
    3.1246    3.0971   -0.7900 H   0  0  0  0  0  0  0  0  0  0  0  0
    1.7396    2.7487   -1.7655 H   0  0  0  0  0  0  0  0  0  0  0  0
    2.4207    1.2746    0.8438 H   0  0  0  0  0  0  0  0  0  0  0  0
    0.4216    0.7069   -1.4196 H   0  0  0  0  0  0  0  0  0  0  0  0
    0.0079    1.0570    0.2429 H   0  0  0  0  0  0  0  0  0  0  0  0
    0.9827   -1.0639    1.0052 H   0  0  0  0  0  0  0  0  0  0  0  0
    2.1205   -2.5835   -0.4943 H   0  0  0  0  0  0  0  0  0  0  0  0
    1.7773   -1.5622   -1.8908 H   0  0  0  0  0  0  0  0  0  0  0  0
    4.0028   -1.7063   -2.4525 H   0  0  0  0  0  0  0  0  0  0  0  0
    5.1418   -0.5687   -1.8051 H   0  0  0  0  0  0  0  0  0  0  0  0
    4.4984   -3.3048   -0.6346 H   0  0  0  0  0  0  0  0  0  0  0  0
    5.9643   -2.8685   -1.4849 H   0  0  0  0  0  0  0  0  0  0  0  0
    5.6279   -2.8478    1.2185 H   0  0  0  0  0  0  0  0  0  0  0  0
    7.5771   -1.0927   -0.3307 H   0  0  0  0  0  0  0  0  0  0  0  0
    7.7841   -2.7744    0.1608 H   0  0  0  0  0  0  0  0  0  0  0  0
    7.7162   -1.5035    1.3915 H   0  0  0  0  0  0  0  0  0  0  0  0
    5.0876   -0.9134    2.2165 H   0  0  0  0  0  0  0  0  0  0  0  0
    6.6183    0.7065    1.2917 H   0  0  0  0  0  0  0  0  0  0  0  0
    4.9719    1.3629    1.2646 H   0  0  0  0  0  0  0  0  0  0  0  0
    5.7187    0.8018   -0.2227 H   0  0  0  0  0  0  0  0  0  0  0  0
   -2.4885   -1.8731   -1.4827 H   0  0  0  0  0  0  0  0  0  0  0  0
   -1.9047   -4.2029   -0.8953 H   0  0  0  0  0  0  0  0  0  0  0  0
   -2.9110   -6.2767   -0.4025 H   0  0  0  0  0  0  0  0  0  0  0  0
   -3.6827   -6.2943    1.1870 H   0  0  0  0  0  0  0  0  0  0  0  0
   -4.6684   -6.1787   -0.2940 H   0  0  0  0  0  0  0  0  0  0  0  0
   -5.7028   -3.6728    0.4063 H   0  0  0  0  0  0  0  0  0  0  0  0
   -5.2776   -3.7173    2.9055 H   0  0  0  0  0  0  0  0  0  0  0  0
   -3.6022   -2.2445    2.1289 H   0  0  0  0  0  0  0  0  0  0  0  0
   -5.9226    0.4999    1.3154 H   0  0  0  0  0  0  0  0  0  0  0  0
   -4.6867    0.3794    2.6055 H   0  0  0  0  0  0  0  0  0  0  0  0
   -2.5510    0.8577   -0.6772 H   0  0  0  0  0  0  0  0  0  0  0  0
   -3.6777    2.3430    1.7733 H   0  0  0  0  0  0  0  0  0  0  0  0
   -2.9250    4.3183    0.8863 H   0  0  0  0  0  0  0  0  0  0  0  0
   -2.5602    2.9122   -1.8054 H   0  0  0  0  0  0  0  0  0  0  0  0
   -2.7742    5.1580   -2.7299 H   0  0  0  0  0  0  0  0  0  0  0  0
   -2.8072    5.8687   -1.1067 H   0  0  0  0  0  0  0  0  0  0  0  0
   -4.1217    4.8118   -1.6342 H   0  0  0  0  0  0  0  0  0  0  0  0
   -0.5527    4.7169   -2.0428 H   0  0  0  0  0  0  0  0  0  0  0  0
   -0.3762    3.0108   -1.7453 H   0  0  0  0  0  0  0  0  0  0  0  0
   -4.6729   -0.8805   -1.6185 H   0  0  0  0  0  0  0  0  0  0  0  0
  1  2  1  0
  2  3  2  3
  3  4  1  0
  4  5  1  0
  5  6  1  0
  6  7  1  0
  7  8  1  0
  8  9  1  0
  9 10  1  0
 10 11  1  0
 11 12  1  0
 12 13  1  0
 12 14  1  0
 14 15  1  0
 14 16  1  0
  9 17  1  0
  7 18  1  0
 18 19  1  0
 19 20  2  0
 19 21  1  0
 21 22  1  0
 22 23  2  0
 23 24  1  0
 23 25  1  0
 25 26  1  0
 25 27  1  0
 27 28  1  0
 28 29  1  0
 29 30  1  0
 30 31  2  3
 31 32  1  0
 32 33  2  3
 33 34  1  0
 34 35  1  0
 34 36  1  0
 30 37  1  0
 37 38  1  0
 36  2  1  0
 17  5  1  0
 37 21  1  0
 16  9  1  0
 37 27  1  0
  1 39  1  0
  1 40  1  0
  1 41  1  0
  3 42  1  0
  4 43  1  0
  4 44  1  0
  5 45  1  0
  6 46  1  0
  6 47  1  0
  7 48  1  0
  8 49  1  0
  8 50  1  0
 10 51  1  0
 10 52  1  0
 11 53  1  0
 11 54  1  0
 12 55  1  0
 13 56  1  0
 13 57  1  0
 13 58  1  0
 14 59  1  0
 15 60  1  0
 15 61  1  0
 15 62  1  0
 21 63  1  0
 22 64  1  0
 24 65  1  0
 24 66  1  0
 24 67  1  0
 25 68  1  0
 26 69  1  0
 27 70  1  0
 29 71  1  0
 29 72  1  0
 31 73  1  0
 32 74  1  0
 33 75  1  0
 34 76  1  0
 35 77  1  0
 35 78  1  0
 35 79  1  0
 36 80  1  0
 36 81  1  0
 38 82  1  0
M  END
$$$$
