
     RDKit          3D

 37 38  0  0  0  0  0  0  0  0999 V2000
   -5.0980    2.5517   -0.3462 C   0  0  0  0  0  0  0  0  0  0  0  0
   -4.6320    1.3864    0.3182 O   0  0  0  0  0  0  0  0  0  0  0  0
   -3.4261    0.8627   -0.0763 C   0  0  0  0  0  0  0  0  0  0  0  0
   -2.6268    1.3985   -1.0924 C   0  0  0  0  0  0  0  0  0  0  0  0
   -1.4089    0.7986   -1.4261 C   0  0  0  0  0  0  0  0  0  0  0  0
   -0.9780   -0.3393   -0.7380 C   0  0  0  0  0  0  0  0  0  0  0  0
    0.3119   -1.0114   -1.0573 C   0  0  0  0  0  0  0  0  0  0  0  0
    0.4480   -2.2109   -0.8449 O   0  0  0  0  0  0  0  0  0  0  0  0
    1.3150   -0.2055   -1.5528 N   0  0  0  0  0  0  0  0  0  0  0  0
    2.6466   -0.7201   -1.7797 C   0  0  0  0  0  0  0  0  0  0  0  0
    3.5385   -0.4404   -0.5964 C   0  0  0  0  0  0  0  0  0  0  0  0
    3.5305   -1.2976    0.5127 C   0  0  0  0  0  0  0  0  0  0  0  0
    4.3354   -1.0309    1.6227 C   0  0  0  0  0  0  0  0  0  0  0  0
    5.1546    0.1004    1.6412 C   0  0  0  0  0  0  0  0  0  0  0  0
    6.1228    0.3712    3.0460 Cl  0  0  0  0  0  0  0  0  0  0  0  0
    5.1643    0.9678    0.5439 C   0  0  0  0  0  0  0  0  0  0  0  0
    6.1438    2.3910    0.4954 Cl  0  0  0  0  0  0  0  0  0  0  0  0
    4.3569    0.6984   -0.5678 C   0  0  0  0  0  0  0  0  0  0  0  0
   -1.7818   -0.8915    0.2677 C   0  0  0  0  0  0  0  0  0  0  0  0
   -3.0022   -0.2970    0.6057 C   0  0  0  0  0  0  0  0  0  0  0  0
   -3.8460   -0.7632    1.5837 O   0  0  0  0  0  0  0  0  0  0  0  0
   -3.4974   -1.9796    2.2303 C   0  0  0  0  0  0  0  0  0  0  0  0
   -5.2647    2.3591   -1.4111 H   0  0  0  0  0  0  0  0  0  0  0  0
   -4.4121    3.3922   -0.1979 H   0  0  0  0  0  0  0  0  0  0  0  0
   -6.0605    2.8267    0.0960 H   0  0  0  0  0  0  0  0  0  0  0  0
   -2.9290    2.2787   -1.6505 H   0  0  0  0  0  0  0  0  0  0  0  0
   -0.8265    1.2172   -2.2418 H   0  0  0  0  0  0  0  0  0  0  0  0
    1.2162    0.7970   -1.4808 H   0  0  0  0  0  0  0  0  0  0  0  0
    3.0377   -0.2261   -2.6761 H   0  0  0  0  0  0  0  0  0  0  0  0
    2.6175   -1.7953   -1.9897 H   0  0  0  0  0  0  0  0  0  0  0  0
    2.8878   -2.1784    0.5168 H   0  0  0  0  0  0  0  0  0  0  0  0
    4.3143   -1.7102    2.4718 H   0  0  0  0  0  0  0  0  0  0  0  0
    4.3680    1.3799   -1.4159 H   0  0  0  0  0  0  0  0  0  0  0  0
   -1.4273   -1.7837    0.7752 H   0  0  0  0  0  0  0  0  0  0  0  0
   -2.5686   -1.8703    2.7996 H   0  0  0  0  0  0  0  0  0  0  0  0
   -3.4294   -2.8046    1.5135 H   0  0  0  0  0  0  0  0  0  0  0  0
   -4.2947   -2.2212    2.9398 H   0  0  0  0  0  0  0  0  0  0  0  0
  1  2  1  0
  2  3  1  0
  3  4  2  0
  4  5  1  0
  5  6  2  0
  6  7  1  0
  7  8  2  0
  7  9  1  0
  9 10  1  0
 10 11  1  0
 11 12  2  0
 12 13  1  0
 13 14  2  0
 14 15  1  0
 14 16  1  0
 16 17  1  0
 16 18  2  0
  6 19  1  0
 19 20  2  0
 20 21  1  0
 21 22  1  0
 20  3  1  0
 18 11  1  0
  1 23  1  0
  1 24  1  0
  1 25  1  0
  4 26  1  0
  5 27  1  0
  9 28  1  0
 10 29  1  0
 10 30  1  0
 12 31  1  0
 13 32  1  0
 18 33  1  0
 19 34  1  0
 22 35  1  0
 22 36  1  0
 22 37  1  0
M  END
$$$$
