
     RDKit          3D

 44 47  0  0  0  0  0  0  0  0999 V2000
   -6.3348   -2.2936    2.2500 C   0  0  0  0  0  0  0  0  0  0  0  0
   -4.9731   -1.6341    2.3763 C   0  0  0  0  0  0  0  0  0  0  0  0
   -4.6661   -1.0188    1.1288 O   0  0  0  0  0  0  0  0  0  0  0  0
   -3.4586   -0.3775    1.0078 C   0  0  0  0  0  0  0  0  0  0  0  0
   -2.5230   -0.2519    2.0393 C   0  0  0  0  0  0  0  0  0  0  0  0
   -1.3177    0.4209    1.8223 C   0  0  0  0  0  0  0  0  0  0  0  0
   -1.0329    0.9706    0.5707 C   0  0  0  0  0  0  0  0  0  0  0  0
    0.2233    1.6869    0.3293 C   0  0  0  0  0  0  0  0  0  0  0  0
    1.4413    1.1300    0.2691 C   0  0  0  0  0  0  0  0  0  0  0  0
    1.8413   -0.5683    0.4509 S   0  0  0  0  0  0  0  0  0  0  0  0
    3.4966   -0.1971    0.2004 C   0  0  0  0  0  0  0  0  0  0  0  0
    4.6047   -0.8770    0.1632 N   0  0  0  0  0  0  0  0  0  0  0  0
    5.5344    0.1215   -0.0886 C   0  0  0  0  0  0  0  0  0  0  0  0
    7.0626   -0.1804   -0.2301 C   0  0  0  0  0  0  0  0  0  0  0  0
    8.0517    0.7522   -0.4797 C   0  0  0  0  0  0  0  0  0  0  0  0
    9.2773    0.0446   -0.5280 C   0  0  0  0  0  0  0  0  0  0  0  0
    8.9632   -1.2748   -0.3053 C   0  0  0  0  0  0  0  0  0  0  0  0
    7.6261   -1.4220   -0.1237 O   0  0  0  0  0  0  0  0  0  0  0  0
    5.0246    1.3672   -0.2013 N   0  0  0  0  0  0  0  0  0  0  0  0
    3.7187    1.1149   -0.0088 N   0  0  0  0  0  0  0  0  0  0  0  0
    2.6440    1.9773    0.0021 C   0  0  0  0  0  0  0  0  0  0  0  0
    2.7256    3.1786   -0.1772 O   0  0  0  0  0  0  0  0  0  0  0  0
   -1.9699    0.8566   -0.4634 C   0  0  0  0  0  0  0  0  0  0  0  0
   -3.1804    0.1838   -0.2552 C   0  0  0  0  0  0  0  0  0  0  0  0
   -4.1526    0.0211   -1.2114 O   0  0  0  0  0  0  0  0  0  0  0  0
   -3.9104    0.5516   -2.5107 C   0  0  0  0  0  0  0  0  0  0  0  0
   -5.1143    0.2314   -3.3786 C   0  0  0  0  0  0  0  0  0  0  0  0
   -7.0991   -1.5534    1.9908 H   0  0  0  0  0  0  0  0  0  0  0  0
   -6.3289   -3.0396    1.4484 H   0  0  0  0  0  0  0  0  0  0  0  0
   -6.6195   -2.7826    3.1858 H   0  0  0  0  0  0  0  0  0  0  0  0
   -4.2269   -2.3995    2.6183 H   0  0  0  0  0  0  0  0  0  0  0  0
   -5.0138   -0.8812    3.1717 H   0  0  0  0  0  0  0  0  0  0  0  0
   -2.7015   -0.6646    3.0264 H   0  0  0  0  0  0  0  0  0  0  0  0
   -0.6095    0.5105    2.6432 H   0  0  0  0  0  0  0  0  0  0  0  0
    0.1078    2.7595    0.1736 H   0  0  0  0  0  0  0  0  0  0  0  0
    7.8969    1.8147   -0.6101 H   0  0  0  0  0  0  0  0  0  0  0  0
   10.2657    0.4456   -0.7033 H   0  0  0  0  0  0  0  0  0  0  0  0
    9.5442   -2.1848   -0.2478 H   0  0  0  0  0  0  0  0  0  0  0  0
   -1.7349    1.2975   -1.4266 H   0  0  0  0  0  0  0  0  0  0  0  0
   -3.7860    1.6394   -2.4604 H   0  0  0  0  0  0  0  0  0  0  0  0
   -3.0197    0.0893   -2.9514 H   0  0  0  0  0  0  0  0  0  0  0  0
   -4.9787    0.6192   -4.3921 H   0  0  0  0  0  0  0  0  0  0  0  0
   -6.0239    0.6669   -2.9519 H   0  0  0  0  0  0  0  0  0  0  0  0
   -5.2739   -0.8507   -3.4322 H   0  0  0  0  0  0  0  0  0  0  0  0
  1  2  1  0
  2  3  1  0
  3  4  1  0
  4  5  2  0
  5  6  1  0
  6  7  2  0
  7  8  1  0
  8  9  2  3
  9 10  1  0
 10 11  1  0
 11 12  2  0
 12 13  1  0
 13 14  1  0
 14 15  2  0
 15 16  1  0
 16 17  2  0
 17 18  1  0
 13 19  2  0
 19 20  1  0
 20 21  1  0
 21 22  2  0
  7 23  1  0
 23 24  2  0
 24 25  1  0
 25 26  1  0
 26 27  1  0
 24  4  1  0
 21  9  1  0
 20 11  1  0
 18 14  1  0
  1 28  1  0
  1 29  1  0
  1 30  1  0
  2 31  1  0
  2 32  1  0
  5 33  1  0
  6 34  1  0
  8 35  1  0
 15 36  1  0
 16 37  1  0
 17 38  1  0
 23 39  1  0
 26 40  1  0
 26 41  1  0
 27 42  1  0
 27 43  1  0
 27 44  1  0
M  END
$$$$
