
     RDKit          3D

 49 52  0  0  0  0  0  0  0  0999 V2000
    2.0065   -0.5483    2.3130 C   0  0  0  0  0  0  0  0  0  0  0  0
    2.9057    0.3919    1.5544 C   0  0  0  0  0  0  0  0  0  0  0  0
    3.4125    1.5149    2.2385 C   0  0  0  0  0  0  0  0  0  0  0  0
    4.2389    2.4266    1.5896 C   0  0  0  0  0  0  0  0  0  0  0  0
    4.8464    3.7907    2.4412 Cl  0  0  0  0  0  0  0  0  0  0  0  0
    4.5745    2.2364    0.2578 C   0  0  0  0  0  0  0  0  0  0  0  0
    4.0721    1.1301   -0.4342 C   0  0  0  0  0  0  0  0  0  0  0  0
    3.2309    0.2001    0.1927 C   0  0  0  0  0  0  0  0  0  0  0  0
    2.7167   -0.9307   -0.4851 N   0  0  0  0  0  0  0  0  0  0  0  0
    2.8569   -1.2559   -1.8255 C   0  0  0  0  0  0  0  0  0  0  0  0
    3.4052   -0.5712   -2.6869 O   0  0  0  0  0  0  0  0  0  0  0  0
    2.2658   -2.6096   -2.1879 C   0  0  0  0  0  0  0  0  0  0  0  0
    0.5077   -2.4545   -2.6089 S   0  0  0  0  0  0  0  0  0  0  0  0
   -0.1978   -2.3682   -1.0353 C   0  0  0  0  0  0  0  0  0  0  0  0
    0.4021   -2.7017    0.0825 N   0  0  0  0  0  0  0  0  0  0  0  0
   -0.4958   -2.5351    1.1016 N   0  0  0  0  0  0  0  0  0  0  0  0
   -1.6274   -2.0881    0.5909 C   0  0  0  0  0  0  0  0  0  0  0  0
   -2.8769   -1.8182    1.3657 C   0  0  0  0  0  0  0  0  0  0  0  0
   -3.2009   -0.3580    1.5109 C   0  0  0  0  0  0  0  0  0  0  0  0
   -2.3511    0.7054    1.7547 C   0  0  0  0  0  0  0  0  0  0  0  0
   -3.0436    1.9474    1.8400 C   0  0  0  0  0  0  0  0  0  0  0  0
   -4.4011    1.7934    1.6706 C   0  0  0  0  0  0  0  0  0  0  0  0
   -4.8361    0.1600    1.4196 S   0  0  0  0  0  0  0  0  0  0  0  0
   -1.4716   -1.9413   -0.7728 N   0  0  0  0  0  0  0  0  0  0  0  0
   -2.4627   -1.4755   -1.7264 C   0  0  0  0  0  0  0  0  0  0  0  0
   -2.3803   -0.0101   -1.9509 C   0  0  0  0  0  0  0  0  0  0  0  0
   -3.3338    0.9835   -2.0406 C   0  0  0  0  0  0  0  0  0  0  0  0
   -2.6362    2.1897   -2.2965 C   0  0  0  0  0  0  0  0  0  0  0  0
   -1.3053    1.8553   -2.3565 C   0  0  0  0  0  0  0  0  0  0  0  0
   -1.1414    0.5246   -2.1524 O   0  0  0  0  0  0  0  0  0  0  0  0
    1.9824   -0.3097    3.3823 H   0  0  0  0  0  0  0  0  0  0  0  0
    2.3592   -1.5812    2.2255 H   0  0  0  0  0  0  0  0  0  0  0  0
    0.9854   -0.4664    1.9332 H   0  0  0  0  0  0  0  0  0  0  0  0
    3.1606    1.6742    3.2845 H   0  0  0  0  0  0  0  0  0  0  0  0
    5.2262    2.9399   -0.2555 H   0  0  0  0  0  0  0  0  0  0  0  0
    4.3687    1.0231   -1.4726 H   0  0  0  0  0  0  0  0  0  0  0  0
    2.1085   -1.5438    0.0550 H   0  0  0  0  0  0  0  0  0  0  0  0
    2.4339   -3.3383   -1.3877 H   0  0  0  0  0  0  0  0  0  0  0  0
    2.7997   -2.9829   -3.0683 H   0  0  0  0  0  0  0  0  0  0  0  0
   -3.7075   -2.3653    0.9021 H   0  0  0  0  0  0  0  0  0  0  0  0
   -2.7614   -2.2403    2.3728 H   0  0  0  0  0  0  0  0  0  0  0  0
   -1.2771    0.6017    1.8582 H   0  0  0  0  0  0  0  0  0  0  0  0
   -2.5692    2.9049    2.0180 H   0  0  0  0  0  0  0  0  0  0  0  0
   -5.1608    2.5628    1.6922 H   0  0  0  0  0  0  0  0  0  0  0  0
   -2.3291   -2.0151   -2.6680 H   0  0  0  0  0  0  0  0  0  0  0  0
   -3.4504   -1.7553   -1.3478 H   0  0  0  0  0  0  0  0  0  0  0  0
   -4.4022    0.8593   -1.9324 H   0  0  0  0  0  0  0  0  0  0  0  0
   -3.0506    3.1793   -2.4250 H   0  0  0  0  0  0  0  0  0  0  0  0
   -0.3962    2.4168   -2.5306 H   0  0  0  0  0  0  0  0  0  0  0  0
  1  2  1  0
  2  3  2  0
  3  4  1  0
  4  5  1  0
  4  6  2  0
  6  7  1  0
  7  8  2  0
  8  9  1  0
  9 10  1  0
 10 11  2  0
 10 12  1  0
 12 13  1  0
 13 14  1  0
 14 15  2  0
 15 16  1  0
 16 17  2  0
 17 18  1  0
 18 19  1  0
 19 20  2  0
 20 21  1  0
 21 22  2  0
 22 23  1  0
 17 24  1  0
 24 25  1  0
 25 26  1  0
 26 27  2  0
 27 28  1  0
 28 29  2  0
 29 30  1  0
  8  2  1  0
 24 14  1  0
 30 26  1  0
 23 19  1  0
  1 31  1  0
  1 32  1  0
  1 33  1  0
  3 34  1  0
  6 35  1  0
  7 36  1  0
  9 37  1  0
 12 38  1  0
 12 39  1  0
 18 40  1  0
 18 41  1  0
 20 42  1  0
 21 43  1  0
 22 44  1  0
 25 45  1  0
 25 46  1  0
 27 47  1  0
 28 48  1  0
 29 49  1  0
M  END
$$$$
