
     RDKit          3D

 51 53  0  0  0  0  0  0  0  0999 V2000
    7.1176    0.1591    2.4643 C   0  0  0  0  0  0  0  0  0  0  0  0
    6.8767    0.8253    1.2329 O   0  0  0  0  0  0  0  0  0  0  0  0
    5.9584    0.2618    0.3803 C   0  0  0  0  0  0  0  0  0  0  0  0
    5.4215   -1.0217    0.5365 C   0  0  0  0  0  0  0  0  0  0  0  0
    4.4946   -1.5208   -0.3836 C   0  0  0  0  0  0  0  0  0  0  0  0
    4.0907   -0.7428   -1.4727 C   0  0  0  0  0  0  0  0  0  0  0  0
    3.0671   -1.2548   -2.4583 C   0  0  0  0  0  0  0  0  0  0  0  0
    1.7060   -0.6013   -2.2603 C   0  0  0  0  0  0  0  0  0  0  0  0
    1.4089    0.4251   -2.8651 O   0  0  0  0  0  0  0  0  0  0  0  0
    0.9149   -1.2801   -1.3490 N   0  0  0  0  0  0  0  0  0  0  0  0
   -0.3821   -0.9402   -0.9146 C   0  0  0  0  0  0  0  0  0  0  0  0
   -1.0104   -1.8188   -0.0254 C   0  0  0  0  0  0  0  0  0  0  0  0
   -2.3052   -1.5640    0.4464 C   0  0  0  0  0  0  0  0  0  0  0  0
   -2.9911   -0.4216    0.0406 C   0  0  0  0  0  0  0  0  0  0  0  0
   -4.2922   -0.0898    0.4697 N   0  0  0  0  0  0  0  0  0  0  0  0
   -5.1549   -0.8820    1.2060 C   0  0  0  0  0  0  0  0  0  0  0  0
   -4.9788   -2.0427    1.5544 O   0  0  0  0  0  0  0  0  0  0  0  0
   -6.4509   -0.2335    1.5452 C   0  0  0  0  0  0  0  0  0  0  0  0
   -6.5131    1.1078    1.9493 C   0  0  0  0  0  0  0  0  0  0  0  0
   -7.7477    1.6835    2.2628 C   0  0  0  0  0  0  0  0  0  0  0  0
   -8.9117    0.9182    2.1760 C   0  0  0  0  0  0  0  0  0  0  0  0
  -10.5794    1.7017    2.5982 Br  0  0  0  0  0  0  0  0  0  0  0  0
   -8.8549   -0.4208    1.7881 C   0  0  0  0  0  0  0  0  0  0  0  0
   -7.6220   -0.9999    1.4794 C   0  0  0  0  0  0  0  0  0  0  0  0
   -2.3574    0.4649   -0.8358 C   0  0  0  0  0  0  0  0  0  0  0  0
   -1.0668    0.2043   -1.3155 C   0  0  0  0  0  0  0  0  0  0  0  0
    4.6322    0.5436   -1.6317 C   0  0  0  0  0  0  0  0  0  0  0  0
    5.5643    1.0506   -0.7180 C   0  0  0  0  0  0  0  0  0  0  0  0
    6.1406    2.2950   -0.8077 O   0  0  0  0  0  0  0  0  0  0  0  0
    5.7126    3.1441   -1.8647 C   0  0  0  0  0  0  0  0  0  0  0  0
    7.6381   -0.7877    2.3026 H   0  0  0  0  0  0  0  0  0  0  0  0
    7.7686    0.7928    3.0706 H   0  0  0  0  0  0  0  0  0  0  0  0
    6.1905    0.0097    3.0240 H   0  0  0  0  0  0  0  0  0  0  0  0
    5.7134   -1.6627    1.3621 H   0  0  0  0  0  0  0  0  0  0  0  0
    4.0982   -2.5241   -0.2375 H   0  0  0  0  0  0  0  0  0  0  0  0
    3.4031   -1.0524   -3.4851 H   0  0  0  0  0  0  0  0  0  0  0  0
    2.9698   -2.3469   -2.3898 H   0  0  0  0  0  0  0  0  0  0  0  0
    1.3095   -2.1163   -0.9389 H   0  0  0  0  0  0  0  0  0  0  0  0
   -0.5124   -2.7238    0.3132 H   0  0  0  0  0  0  0  0  0  0  0  0
   -2.7463   -2.2799    1.1344 H   0  0  0  0  0  0  0  0  0  0  0  0
   -4.6573    0.7882    0.1223 H   0  0  0  0  0  0  0  0  0  0  0  0
   -5.6093    1.7027    2.0533 H   0  0  0  0  0  0  0  0  0  0  0  0
   -7.7913    2.7221    2.5830 H   0  0  0  0  0  0  0  0  0  0  0  0
   -9.7592   -1.0221    1.7276 H   0  0  0  0  0  0  0  0  0  0  0  0
   -7.5739   -2.0477    1.1853 H   0  0  0  0  0  0  0  0  0  0  0  0
   -2.8564    1.3688   -1.1749 H   0  0  0  0  0  0  0  0  0  0  0  0
   -0.6288    0.9213   -2.0021 H   0  0  0  0  0  0  0  0  0  0  0  0
    4.3002    1.1365   -2.4811 H   0  0  0  0  0  0  0  0  0  0  0  0
    6.2505    4.0939   -1.7698 H   0  0  0  0  0  0  0  0  0  0  0  0
    4.6430    3.3624   -1.7876 H   0  0  0  0  0  0  0  0  0  0  0  0
    5.9623    2.7150   -2.8406 H   0  0  0  0  0  0  0  0  0  0  0  0
  1  2  1  0
  2  3  1  0
  3  4  2  0
  4  5  1  0
  5  6  2  0
  6  7  1  0
  7  8  1  0
  8  9  2  0
  8 10  1  0
 10 11  1  0
 11 12  2  0
 12 13  1  0
 13 14  2  0
 14 15  1  0
 15 16  1  0
 16 17  2  0
 16 18  1  0
 18 19  2  0
 19 20  1  0
 20 21  2  0
 21 22  1  0
 21 23  1  0
 23 24  2  0
 14 25  1  0
 25 26  2  0
  6 27  1  0
 27 28  2  0
 28 29  1  0
 29 30  1  0
 28  3  1  0
 26 11  1  0
 24 18  1  0
  1 31  1  0
  1 32  1  0
  1 33  1  0
  4 34  1  0
  5 35  1  0
  7 36  1  0
  7 37  1  0
 10 38  1  0
 12 39  1  0
 13 40  1  0
 15 41  1  0
 19 42  1  0
 20 43  1  0
 23 44  1  0
 24 45  1  0
 25 46  1  0
 26 47  1  0
 27 48  1  0
 30 49  1  0
 30 50  1  0
 30 51  1  0
M  END
$$$$
