
     RDKit          3D

 56 61  0  0  0  0  0  0  0  0999 V2000
    5.2649   -0.3042   -1.5016 C   0  0  0  0  0  0  0  0  0  0  0  0
    4.0618   -1.0985   -1.0862 C   0  0  0  0  0  0  0  0  0  0  0  0
    3.8460   -2.3789   -1.5963 C   0  0  0  0  0  0  0  0  0  0  0  0
    2.7533   -3.1248   -1.1627 C   0  0  0  0  0  0  0  0  0  0  0  0
    1.8763   -2.6026   -0.2102 C   0  0  0  0  0  0  0  0  0  0  0  0
    2.0477   -1.3089    0.3010 C   0  0  0  0  0  0  0  0  0  0  0  0
    3.1710   -0.5832   -0.1312 C   0  0  0  0  0  0  0  0  0  0  0  0
    1.0670   -0.7389    1.3168 C   0  0  0  0  0  0  0  0  0  0  0  0
   -0.1752   -1.6303    1.4570 C   0  0  0  0  0  0  0  0  0  0  0  0
    0.2151   -3.0936    1.3710 C   0  0  0  0  0  0  0  0  0  0  0  0
    0.8391   -3.4268    0.1345 O   0  0  0  0  0  0  0  0  0  0  0  0
   -1.0659   -1.1131    0.3021 C   0  0  0  0  0  0  0  0  0  0  0  0
   -2.4634   -1.6889    0.1598 C   0  0  0  0  0  0  0  0  0  0  0  0
   -3.0387   -1.7727   -1.1211 C   0  0  0  0  0  0  0  0  0  0  0  0
   -4.3132   -2.3123   -1.3091 C   0  0  0  0  0  0  0  0  0  0  0  0
   -5.0378   -2.7810   -0.2189 C   0  0  0  0  0  0  0  0  0  0  0  0
   -4.4845   -2.7137    1.0561 C   0  0  0  0  0  0  0  0  0  0  0  0
   -3.2069   -2.1778    1.2424 C   0  0  0  0  0  0  0  0  0  0  0  0
   -0.8791    0.4450    0.4178 C   0  0  0  0  0  0  0  0  0  0  0  0
   -1.0754    1.0660   -0.9761 C   0  0  0  0  0  0  0  0  0  0  0  0
   -1.8000    1.0980    1.4887 C   0  0  0  0  0  0  0  0  0  0  0  0
   -2.6079    0.4811    2.1822 O   0  0  0  0  0  0  0  0  0  0  0  0
   -1.7536    2.4532    1.6755 N   0  0  0  0  0  0  0  0  0  0  0  0
   -0.7830    3.3747    1.2667 C   0  0  0  0  0  0  0  0  0  0  0  0
   -1.2000    4.7117    1.1833 C   0  0  0  0  0  0  0  0  0  0  0  0
   -0.3109    5.6992    0.7685 C   0  0  0  0  0  0  0  0  0  0  0  0
   -0.7381    6.9649    0.6696 F   0  0  0  0  0  0  0  0  0  0  0  0
    1.0015    5.3773    0.4598 C   0  0  0  0  0  0  0  0  0  0  0  0
    1.8572    6.3300    0.0690 F   0  0  0  0  0  0  0  0  0  0  0  0
    1.4444    4.0670    0.5782 C   0  0  0  0  0  0  0  0  0  0  0  0
    0.5551    3.0551    0.9850 C   0  0  0  0  0  0  0  0  0  0  0  0
    1.1627    1.7363    1.2650 C   0  0  0  0  0  0  0  0  0  0  0  0
    2.2608    1.7479    1.8202 O   0  0  0  0  0  0  0  0  0  0  0  0
    0.5037    0.5698    0.9361 N   0  0  0  0  0  0  0  0  0  0  0  0
    6.0903   -0.4842   -0.8064 H   0  0  0  0  0  0  0  0  0  0  0  0
    5.0381    0.7672   -1.5139 H   0  0  0  0  0  0  0  0  0  0  0  0
    5.5877   -0.5786   -2.5116 H   0  0  0  0  0  0  0  0  0  0  0  0
    4.5289   -2.8069   -2.3261 H   0  0  0  0  0  0  0  0  0  0  0  0
    2.5889   -4.1238   -1.5585 H   0  0  0  0  0  0  0  0  0  0  0  0
    3.3753    0.4015    0.2794 H   0  0  0  0  0  0  0  0  0  0  0  0
    1.5850   -0.6569    2.2807 H   0  0  0  0  0  0  0  0  0  0  0  0
   -0.6526   -1.4348    2.4255 H   0  0  0  0  0  0  0  0  0  0  0  0
   -0.6698   -3.7313    1.4658 H   0  0  0  0  0  0  0  0  0  0  0  0
    0.8880   -3.3686    2.1937 H   0  0  0  0  0  0  0  0  0  0  0  0
   -0.5647   -1.4200   -0.6287 H   0  0  0  0  0  0  0  0  0  0  0  0
   -2.4887   -1.4325   -1.9962 H   0  0  0  0  0  0  0  0  0  0  0  0
   -4.7355   -2.3724   -2.3086 H   0  0  0  0  0  0  0  0  0  0  0  0
   -6.0301   -3.1996   -0.3610 H   0  0  0  0  0  0  0  0  0  0  0  0
   -5.0487   -3.0726    1.9126 H   0  0  0  0  0  0  0  0  0  0  0  0
   -2.8177   -2.1298    2.2564 H   0  0  0  0  0  0  0  0  0  0  0  0
   -2.1239    1.0019   -1.2865 H   0  0  0  0  0  0  0  0  0  0  0  0
   -0.4624    0.5531   -1.7261 H   0  0  0  0  0  0  0  0  0  0  0  0
   -0.8035    2.1203   -1.0397 H   0  0  0  0  0  0  0  0  0  0  0  0
   -2.5477    2.7949    2.2070 H   0  0  0  0  0  0  0  0  0  0  0  0
   -2.2220    5.0027    1.4114 H   0  0  0  0  0  0  0  0  0  0  0  0
    2.4909    3.8433    0.3827 H   0  0  0  0  0  0  0  0  0  0  0  0
  1  2  1  0
  2  3  2  0
  3  4  1  0
  4  5  2  0
  5  6  1  0
  6  7  2  0
  6  8  1  0
  8  9  1  0
  9 10  1  0
 10 11  1  0
  9 12  1  0
 12 13  1  0
 13 14  2  0
 14 15  1  0
 15 16  2  0
 16 17  1  0
 17 18  2  0
 12 19  1  0
 19 20  1  0
 19 21  1  0
 21 22  2  0
 21 23  1  0
 23 24  1  0
 24 25  2  0
 25 26  1  0
 26 27  1  0
 26 28  2  0
 28 29  1  0
 28 30  1  0
 30 31  2  0
 31 32  1  0
 32 33  2  0
 32 34  1  0
  7  2  1  0
 34  8  1  0
 11  5  1  0
 18 13  1  0
 34 19  1  0
 31 24  1  0
  1 35  1  0
  1 36  1  0
  1 37  1  0
  3 38  1  0
  4 39  1  0
  7 40  1  0
  8 41  1  0
  9 42  1  0
 10 43  1  0
 10 44  1  0
 12 45  1  0
 14 46  1  0
 15 47  1  0
 16 48  1  0
 17 49  1  0
 18 50  1  0
 20 51  1  0
 20 52  1  0
 20 53  1  0
 23 54  1  0
 25 55  1  0
 30 56  1  0
M  END
$$$$
