
     RDKit          3D

 41 42  0  0  0  0  0  0  0  0999 V2000
    7.0908   -0.7559    0.5229 C   0  0  0  0  0  0  0  0  0  0  0  0
    5.7360   -0.3073    0.5737 O   0  0  0  0  0  0  0  0  0  0  0  0
    5.1547   -0.1598   -0.6483 C   0  0  0  0  0  0  0  0  0  0  0  0
    5.7168   -0.3931   -1.7110 O   0  0  0  0  0  0  0  0  0  0  0  0
    3.7690    0.2584   -0.5216 C   0  0  0  0  0  0  0  0  0  0  0  0
    2.8268    0.1959   -1.5380 C   0  0  0  0  0  0  0  0  0  0  0  0
    1.5860    0.6163   -1.0235 C   0  0  0  0  0  0  0  0  0  0  0  0
    1.7617    0.9444    0.3116 C   0  0  0  0  0  0  0  0  0  0  0  0
    0.5848    1.4875    1.5362 S   0  0  0  0  0  6  0  0  0  0  0  0
    0.7188    2.9244    1.5260 O   0  0  0  0  0  0  0  0  0  0  0  0
    0.8609    0.6787    2.7002 O   0  0  0  0  0  0  0  0  0  0  0  0
   -0.9399    1.1124    0.9574 N   0  0  0  0  0  0  0  0  0  0  0  0
   -1.3036   -0.3074    0.9480 C   0  0  0  0  0  0  0  0  0  0  0  0
   -2.6084   -0.5189    0.2194 C   0  0  0  0  0  0  0  0  0  0  0  0
   -2.6443   -1.1744   -1.0166 C   0  0  0  0  0  0  0  0  0  0  0  0
   -3.8582   -1.3470   -1.6865 C   0  0  0  0  0  0  0  0  0  0  0  0
   -5.0512   -0.8682   -1.1402 C   0  0  0  0  0  0  0  0  0  0  0  0
   -6.1628   -1.1041   -1.9009 O   0  0  0  0  0  0  0  0  0  0  0  0
   -7.4049   -0.6442   -1.3831 C   0  0  0  0  0  0  0  0  0  0  0  0
   -5.0209   -0.2099    0.0885 C   0  0  0  0  0  0  0  0  0  0  0  0
   -3.8071   -0.0356    0.7626 C   0  0  0  0  0  0  0  0  0  0  0  0
    3.1178    0.8059    0.5770 N   0  0  0  0  0  0  0  0  0  0  0  0
    3.7618    1.2198    1.8108 C   0  0  0  0  0  0  0  0  0  0  0  0
    7.7145   -0.0342   -0.0140 H   0  0  0  0  0  0  0  0  0  0  0  0
    7.1506   -1.7447    0.0574 H   0  0  0  0  0  0  0  0  0  0  0  0
    7.4595   -0.8344    1.5494 H   0  0  0  0  0  0  0  0  0  0  0  0
    3.0277   -0.1525   -2.5452 H   0  0  0  0  0  0  0  0  0  0  0  0
    0.6486    0.6590   -1.5628 H   0  0  0  0  0  0  0  0  0  0  0  0
   -1.1622    1.6223    0.1039 H   0  0  0  0  0  0  0  0  0  0  0  0
   -0.5200   -0.9000    0.4640 H   0  0  0  0  0  0  0  0  0  0  0  0
   -1.4080   -0.6750    1.9752 H   0  0  0  0  0  0  0  0  0  0  0  0
   -1.7339   -1.5597   -1.4702 H   0  0  0  0  0  0  0  0  0  0  0  0
   -3.8763   -1.8609   -2.6449 H   0  0  0  0  0  0  0  0  0  0  0  0
   -8.1862   -0.9134   -2.1005 H   0  0  0  0  0  0  0  0  0  0  0  0
   -7.6424   -1.1340   -0.4329 H   0  0  0  0  0  0  0  0  0  0  0  0
   -7.4098    0.4458   -1.2791 H   0  0  0  0  0  0  0  0  0  0  0  0
   -5.9205    0.1825    0.5507 H   0  0  0  0  0  0  0  0  0  0  0  0
   -3.7990    0.4873    1.7179 H   0  0  0  0  0  0  0  0  0  0  0  0
    3.8782    0.3401    2.4478 H   0  0  0  0  0  0  0  0  0  0  0  0
    4.7281    1.6725    1.5749 H   0  0  0  0  0  0  0  0  0  0  0  0
    3.1667    1.9814    2.3160 H   0  0  0  0  0  0  0  0  0  0  0  0
  1  2  1  0
  2  3  1  0
  3  4  2  0
  3  5  1  0
  5  6  2  0
  6  7  1  0
  7  8  2  0
  8  9  1  0
  9 10  2  0
  9 11  2  0
  9 12  1  0
 12 13  1  0
 13 14  1  0
 14 15  2  0
 15 16  1  0
 16 17  2  0
 17 18  1  0
 18 19  1  0
 17 20  1  0
 20 21  2  0
  8 22  1  0
 22 23  1  0
 22  5  1  0
 21 14  1  0
  1 24  1  0
  1 25  1  0
  1 26  1  0
  6 27  1  0
  7 28  1  0
 12 29  1  0
 13 30  1  0
 13 31  1  0
 15 32  1  0
 16 33  1  0
 19 34  1  0
 19 35  1  0
 19 36  1  0
 20 37  1  0
 21 38  1  0
 23 39  1  0
 23 40  1  0
 23 41  1  0
M  END
$$$$
