
     RDKit          3D

 46 49  0  0  0  0  0  0  0  0999 V2000
    1.8263    1.4311    0.5443 O   0  0  0  0  0  0  0  0  0  0  0  0
    1.8832    1.5367   -0.6754 C   0  0  0  0  0  0  0  0  0  0  0  0
    0.6788    1.4230   -1.5990 C   0  0  0  0  0  0  0  0  0  0  0  0
   -0.4964    0.8707   -0.8983 N   0  0  0  0  0  4  0  0  0  0  0  0
   -1.7397    1.4761   -0.7325 C   0  0  0  0  0  0  0  0  0  0  0  0
   -2.5508    0.6403    0.0294 C   0  0  0  0  0  0  0  0  0  0  0  0
   -4.0279    0.9336    0.4869 C   0  0  0  0  0  0  0  0  0  0  0  0
   -4.7086    0.0434    1.3192 C   0  0  0  0  0  0  0  0  0  0  0  0
   -6.0221    0.3164    1.7192 C   0  0  0  0  0  0  0  0  0  0  0  0
   -6.6651    1.4811    1.2941 C   0  0  0  0  0  0  0  0  0  0  0  0
   -8.2833    1.7499    1.8261 Cl  0  0  0  0  0  0  0  0  0  0  0  0
   -5.9856    2.3768    0.4648 C   0  0  0  0  0  0  0  0  0  0  0  0
   -6.7038    3.8388   -0.1094 Cl  0  0  0  0  0  0  0  0  0  0  0  0
   -4.6700    2.1040    0.0637 C   0  0  0  0  0  0  0  0  0  0  0  0
   -1.7428   -0.4574    0.2663 N   0  0  0  0  0  0  0  0  0  0  0  0
   -0.5269   -0.2902   -0.2484 C   0  0  0  0  0  0  0  0  0  0  0  0
    0.3837   -1.4302    0.0158 C   0  0  0  0  0  0  0  0  0  0  0  0
   -0.5980   -2.5143    0.5009 C   0  0  0  0  0  0  0  0  0  0  0  0
   -1.8611   -1.7342    0.9585 C   0  0  0  0  0  0  0  0  0  0  0  0
    3.0130    1.7215   -1.4085 O   0  0  0  0  0  0  0  0  0  0  0  0
    4.2432    1.6210   -0.6721 C   0  0  0  0  0  0  0  0  0  0  0  0
    4.5999    0.1648   -0.5048 C   0  0  0  0  0  0  0  0  0  0  0  0
    4.5629   -0.4372    0.7608 C   0  0  0  0  0  0  0  0  0  0  0  0
    4.8662   -1.7915    0.9100 C   0  0  0  0  0  0  0  0  0  0  0  0
    5.2077   -2.5573   -0.2028 C   0  0  0  0  0  0  0  0  0  0  0  0
    5.2488   -1.9705   -1.4659 C   0  0  0  0  0  0  0  0  0  0  0  0
    4.9445   -0.6160   -1.6179 C   0  0  0  0  0  0  0  0  0  0  0  0
    0.4349    2.4134   -1.9922 H   0  0  0  0  0  0  0  0  0  0  0  0
    0.9107    0.7384   -2.4202 H   0  0  0  0  0  0  0  0  0  0  0  0
   -1.8889    2.4483   -1.1710 H   0  0  0  0  0  0  0  0  0  0  0  0
   -4.2504   -0.8657    1.6886 H   0  0  0  0  0  0  0  0  0  0  0  0
   -6.5423   -0.3857    2.3700 H   0  0  0  0  0  0  0  0  0  0  0  0
   -4.1736    2.8190   -0.5883 H   0  0  0  0  0  0  0  0  0  0  0  0
    1.0699   -1.1152    0.8038 H   0  0  0  0  0  0  0  0  0  0  0  0
    0.9054   -1.6915   -0.9051 H   0  0  0  0  0  0  0  0  0  0  0  0
   -0.1810   -3.1477    1.2887 H   0  0  0  0  0  0  0  0  0  0  0  0
   -0.8655   -3.1590   -0.3450 H   0  0  0  0  0  0  0  0  0  0  0  0
   -1.8450   -1.5538    2.0372 H   0  0  0  0  0  0  0  0  0  0  0  0
   -2.7728   -2.2571    0.6624 H   0  0  0  0  0  0  0  0  0  0  0  0
    4.1761    2.1509    0.2863 H   0  0  0  0  0  0  0  0  0  0  0  0
    5.0232    2.1254   -1.2548 H   0  0  0  0  0  0  0  0  0  0  0  0
    4.3004    0.1477    1.6416 H   0  0  0  0  0  0  0  0  0  0  0  0
    4.8493   -2.2471    1.8968 H   0  0  0  0  0  0  0  0  0  0  0  0
    5.4536   -3.6107   -0.0829 H   0  0  0  0  0  0  0  0  0  0  0  0
    5.5290   -2.5680   -2.3307 H   0  0  0  0  0  0  0  0  0  0  0  0
    4.9908   -0.1718   -2.6103 H   0  0  0  0  0  0  0  0  0  0  0  0
  1  2  2  0
  2  3  1  0
  3  4  1  0
  4  5  1  0
  5  6  2  0
  6  7  1  0
  7  8  2  0
  8  9  1  0
  9 10  2  0
 10 11  1  0
 10 12  1  0
 12 13  1  0
 12 14  2  0
  6 15  1  0
 15 16  1  0
 16 17  1  0
 17 18  1  0
 18 19  1  0
  2 20  1  0
 20 21  1  0
 21 22  1  0
 22 23  2  0
 23 24  1  0
 24 25  2  0
 25 26  1  0
 26 27  2  0
 16  4  2  0
 27 22  1  0
 14  7  1  0
 19 15  1  0
  3 28  1  0
  3 29  1  0
  5 30  1  0
  8 31  1  0
  9 32  1  0
 14 33  1  0
 17 34  1  0
 17 35  1  0
 18 36  1  0
 18 37  1  0
 19 38  1  0
 19 39  1  0
 21 40  1  0
 21 41  1  0
 23 42  1  0
 24 43  1  0
 25 44  1  0
 26 45  1  0
 27 46  1  0
M  CHG  1   4   1
M  END
$$$$
