
     RDKit          3D

 24 24  0  0  0  0  0  0  0  0999 V2000
   -4.6941   -0.7756   -0.6536 C   0  0  0  0  0  0  0  0  0  0  0  0
   -3.4015   -0.8262    0.0047 N   0  0  0  0  0  0  0  0  0  0  0  0
   -2.3215    0.0062   -0.2836 C   0  0  0  0  0  0  0  0  0  0  0  0
   -2.3946    1.2761   -1.3680 S   0  0  0  0  0  0  0  0  0  0  0  0
   -1.2490   -0.3625    0.5192 N   0  0  0  0  0  0  0  0  0  0  0  0
    0.1245   -0.0412    0.4501 C   0  0  0  0  0  0  0  0  0  0  0  0
    0.8776   -0.2165    1.6182 C   0  0  0  0  0  0  0  0  0  0  0  0
    2.2504    0.0510    1.6355 C   0  0  0  0  0  0  0  0  0  0  0  0
    2.9024    0.4731    0.4746 C   0  0  0  0  0  0  0  0  0  0  0  0
    4.3664    0.7965    0.4946 C   0  0  0  0  0  0  0  0  0  0  0  0
    2.1549    0.6371   -0.6950 C   0  0  0  0  0  0  0  0  0  0  0  0
    0.7803    0.3694   -0.7095 C   0  0  0  0  0  0  0  0  0  0  0  0
   -5.1090    0.2337   -0.5950 H   0  0  0  0  0  0  0  0  0  0  0  0
   -4.5772   -1.0744   -1.6987 H   0  0  0  0  0  0  0  0  0  0  0  0
   -5.3632   -1.4740   -0.1449 H   0  0  0  0  0  0  0  0  0  0  0  0
   -3.1423   -1.7346    0.3652 H   0  0  0  0  0  0  0  0  0  0  0  0
   -1.5406   -0.7806    1.3927 H   0  0  0  0  0  0  0  0  0  0  0  0
    0.4049   -0.5458    2.5397 H   0  0  0  0  0  0  0  0  0  0  0  0
    2.8050   -0.0730    2.5628 H   0  0  0  0  0  0  0  0  0  0  0  0
    4.8236    0.5985   -0.4805 H   0  0  0  0  0  0  0  0  0  0  0  0
    4.5132    1.8512    0.7469 H   0  0  0  0  0  0  0  0  0  0  0  0
    4.8929    0.1800    1.2308 H   0  0  0  0  0  0  0  0  0  0  0  0
    2.6361    0.9675   -1.6132 H   0  0  0  0  0  0  0  0  0  0  0  0
    0.2610    0.4639   -1.6564 H   0  0  0  0  0  0  0  0  0  0  0  0
  1  2  1  0
  2  3  1  0
  3  4  2  0
  3  5  1  0
  5  6  1  0
  6  7  2  0
  7  8  1  0
  8  9  2  0
  9 10  1  0
  9 11  1  0
 11 12  2  0
 12  6  1  0
  1 13  1  0
  1 14  1  0
  1 15  1  0
  2 16  1  0
  5 17  1  0
  7 18  1  0
  8 19  1  0
 10 20  1  0
 10 21  1  0
 10 22  1  0
 11 23  1  0
 12 24  1  0
M  END
$$$$
