
     RDKit          3D

 43 45  0  0  0  0  0  0  0  0999 V2000
   -1.6476   -2.8536    2.7284 C   0  0  0  0  0  0  0  0  0  0  0  0
   -1.5481   -1.8263    1.6427 C   0  0  0  0  0  0  0  0  0  0  0  0
   -0.3334   -1.5425    1.0595 C   0  0  0  0  0  0  0  0  0  0  0  0
   -0.3203   -0.5827    0.0676 C   0  0  0  0  0  0  0  0  0  0  0  0
    0.8644   -0.2319   -0.5991 N   0  0  0  0  0  0  0  0  0  0  0  0
    2.0653   -0.4457   -0.0028 N   0  0  0  0  0  0  0  0  0  0  0  0
    3.0738    0.0888   -0.6190 C   0  0  0  0  0  0  0  0  0  0  0  0
    4.4545   -0.0445   -0.0965 C   0  0  0  0  0  0  0  0  0  0  0  0
    4.6576   -0.7089    1.1222 C   0  0  0  0  0  0  0  0  0  0  0  0
    5.9417   -0.8226    1.6666 C   0  0  0  0  0  0  0  0  0  0  0  0
    7.0401   -0.2725    1.0052 C   0  0  0  0  0  0  0  0  0  0  0  0
    6.8602    0.3899   -0.2076 C   0  0  0  0  0  0  0  0  0  0  0  0
    5.5696    0.4918   -0.7489 C   0  0  0  0  0  0  0  0  0  0  0  0
    5.4365    1.1703   -2.0192 N   0  0  0  0  0  4  0  0  0  0  0  0
    5.8115    2.3481   -2.0691 O   0  0  0  0  0  0  0  0  0  0  0  0
    4.9656    0.5210   -2.9611 O   0  0  0  0  0  1  0  0  0  0  0  0
   -1.4389    0.0456   -0.3334 N   0  0  0  0  0  0  0  0  0  0  0  0
   -2.5945   -0.2856    0.2839 C   0  0  0  0  0  0  0  0  0  0  0  0
   -3.8113    0.3807   -0.1286 N   0  0  0  0  0  0  0  0  0  0  0  0
   -5.0089    0.0865    0.4674 N   0  0  0  0  0  0  0  0  0  0  0  0
   -5.9085    0.8632   -0.1369 C   0  0  0  0  0  0  0  0  0  0  0  0
   -7.3331    0.8011    0.2677 C   0  0  0  0  0  0  0  0  0  0  0  0
   -5.3218    1.6701   -1.1264 C   0  0  0  0  0  0  0  0  0  0  0  0
   -3.9789    1.3545   -1.1144 C   0  0  0  0  0  0  0  0  0  0  0  0
   -2.8860    1.9032   -1.9555 C   0  0  0  0  0  0  0  0  0  0  0  0
   -2.6814   -1.2077    1.2689 N   0  0  0  0  0  0  0  0  0  0  0  0
   -1.3223   -3.8302    2.3564 H   0  0  0  0  0  0  0  0  0  0  0  0
   -1.0224   -2.5666    3.5797 H   0  0  0  0  0  0  0  0  0  0  0  0
   -2.6795   -2.9500    3.0812 H   0  0  0  0  0  0  0  0  0  0  0  0
    0.5740   -2.0494    1.3604 H   0  0  0  0  0  0  0  0  0  0  0  0
    0.6999    0.5550   -1.2235 H   0  0  0  0  0  0  0  0  0  0  0  0
    2.9164    0.6650   -1.5465 H   0  0  0  0  0  0  0  0  0  0  0  0
    3.8170   -1.1396    1.6645 H   0  0  0  0  0  0  0  0  0  0  0  0
    6.0820   -1.3399    2.6141 H   0  0  0  0  0  0  0  0  0  0  0  0
    8.0350   -0.3618    1.4373 H   0  0  0  0  0  0  0  0  0  0  0  0
    7.7193    0.8170   -0.7216 H   0  0  0  0  0  0  0  0  0  0  0  0
   -7.7265   -0.2121    0.1362 H   0  0  0  0  0  0  0  0  0  0  0  0
   -7.4463    1.0839    1.3193 H   0  0  0  0  0  0  0  0  0  0  0  0
   -7.9443    1.4817   -0.3336 H   0  0  0  0  0  0  0  0  0  0  0  0
   -5.8106    2.3898   -1.7686 H   0  0  0  0  0  0  0  0  0  0  0  0
   -3.2771    2.6509   -2.6542 H   0  0  0  0  0  0  0  0  0  0  0  0
   -2.4155    1.1166   -2.5534 H   0  0  0  0  0  0  0  0  0  0  0  0
   -2.1274    2.3990   -1.3420 H   0  0  0  0  0  0  0  0  0  0  0  0
  1  2  1  0
  2  3  2  0
  3  4  1  0
  4  5  1  0
  5  6  1  0
  6  7  2  3
  7  8  1  0
  8  9  2  0
  9 10  1  0
 10 11  2  0
 11 12  1  0
 12 13  2  0
 13 14  1  0
 14 15  2  0
 14 16  1  0
  4 17  2  0
 17 18  1  0
 18 19  1  0
 19 20  1  0
 20 21  2  0
 21 22  1  0
 21 23  1  0
 23 24  2  0
 24 25  1  0
 18 26  2  0
 26  2  1  0
 13  8  1  0
 24 19  1  0
  1 27  1  0
  1 28  1  0
  1 29  1  0
  3 30  1  0
  5 31  1  0
  7 32  1  0
  9 33  1  0
 10 34  1  0
 11 35  1  0
 12 36  1  0
 22 37  1  0
 22 38  1  0
 22 39  1  0
 23 40  1  0
 25 41  1  0
 25 42  1  0
 25 43  1  0
M  CHG  2  14   1  16  -1
M  END
$$$$
