
     RDKit          3D

 68 71  0  0  0  0  0  0  0  0999 V2000
   -4.4889   -4.9859   -0.7541 C   0  0  0  0  0  0  0  0  0  0  0  0
   -3.6479   -3.7471   -0.8433 C   0  0  0  0  0  0  0  0  0  0  0  0
   -3.8852   -2.6678    0.0139 C   0  0  0  0  0  0  0  0  0  0  0  0
   -3.0783   -1.5286   -0.0387 C   0  0  0  0  0  0  0  0  0  0  0  0
   -2.0107   -1.4495   -0.9475 C   0  0  0  0  0  0  0  0  0  0  0  0
   -1.0978   -0.2235   -1.0184 C   0  0  0  0  0  0  0  0  0  0  0  0
   -1.8816    1.1207   -0.8854 C   0  0  0  0  0  0  0  0  0  0  0  0
   -1.6553    1.9706   -0.0239 O   0  0  0  0  0  0  0  0  0  0  0  0
   -2.8708    1.2982   -1.8468 N   0  0  0  0  0  0  0  0  0  0  0  0
   -3.7715    2.4277   -1.7876 C   0  0  0  0  0  0  0  0  0  0  0  0
   -4.5150    2.6520   -3.0982 C   0  0  0  0  0  0  0  0  0  0  0  0
   -5.6673    3.5517   -2.6797 C   0  0  0  0  0  0  0  0  0  0  0  0
   -6.0839    3.0367   -1.3043 C   0  0  0  0  0  0  0  0  0  0  0  0
   -4.8977    2.2337   -0.7692 C   0  0  0  0  0  0  0  0  0  0  0  0
    0.0844   -0.2810   -0.1278 N   0  0  0  0  0  0  0  0  0  0  0  0
    1.2233    0.3999   -0.5625 C   0  0  0  0  0  0  0  0  0  0  0  0
    1.2932    0.9098   -1.6845 O   0  0  0  0  0  0  0  0  0  0  0  0
    2.4151    0.4450    0.3822 C   0  0  0  0  0  0  0  0  0  0  0  0
    3.6818    0.8802   -0.3498 C   0  0  0  0  0  0  0  0  0  0  0  0
    4.9053    0.7675    0.5370 C   0  0  0  0  0  0  0  0  0  0  0  0
    4.8227    0.6638    1.7560 O   0  0  0  0  0  0  0  0  0  0  0  0
    6.0752    0.8166   -0.1887 N   0  0  0  0  0  0  0  0  0  0  0  0
    7.3424    0.7374    0.3454 C   0  0  0  0  0  0  0  0  0  0  0  0
    7.7426    0.6703    1.6993 C   0  0  0  0  0  0  0  0  0  0  0  0
    9.1133    0.5985    1.6510 C   0  0  0  0  0  0  0  0  0  0  0  0
   10.1718    0.5010    2.6704 C   0  0  0  0  0  0  0  0  0  0  0  0
    9.5150    0.6176    0.3506 O   0  0  0  0  0  0  0  0  0  0  0  0
    8.4051    0.7209   -0.4695 N   0  0  0  0  0  0  0  0  0  0  0  0
   -0.1067   -0.6400    1.2340 C   0  0  0  0  0  0  0  0  0  0  0  0
   -0.2320    0.3345    2.2289 C   0  0  0  0  0  0  0  0  0  0  0  0
   -0.4199   -0.0411    3.5603 C   0  0  0  0  0  0  0  0  0  0  0  0
   -0.4765   -1.3914    3.9037 C   0  0  0  0  0  0  0  0  0  0  0  0
   -0.3404   -2.3675    2.9178 C   0  0  0  0  0  0  0  0  0  0  0  0
   -0.1536   -1.9931    1.5862 C   0  0  0  0  0  0  0  0  0  0  0  0
   -1.7626   -2.5461   -1.7892 C   0  0  0  0  0  0  0  0  0  0  0  0
   -2.5726   -3.6830   -1.7356 C   0  0  0  0  0  0  0  0  0  0  0  0
   -5.5185   -4.7403   -0.4711 H   0  0  0  0  0  0  0  0  0  0  0  0
   -4.5321   -5.5007   -1.7208 H   0  0  0  0  0  0  0  0  0  0  0  0
   -4.0672   -5.6678   -0.0085 H   0  0  0  0  0  0  0  0  0  0  0  0
   -4.6967   -2.7091    0.7379 H   0  0  0  0  0  0  0  0  0  0  0  0
   -3.2778   -0.7129    0.6555 H   0  0  0  0  0  0  0  0  0  0  0  0
   -0.7179   -0.1967   -2.0506 H   0  0  0  0  0  0  0  0  0  0  0  0
   -3.1543    0.4869   -2.3869 H   0  0  0  0  0  0  0  0  0  0  0  0
   -3.1974    3.3264   -1.5327 H   0  0  0  0  0  0  0  0  0  0  0  0
   -3.8814    3.1152   -3.8613 H   0  0  0  0  0  0  0  0  0  0  0  0
   -4.8987    1.7079   -3.5035 H   0  0  0  0  0  0  0  0  0  0  0  0
   -5.3203    4.5896   -2.5972 H   0  0  0  0  0  0  0  0  0  0  0  0
   -6.4918    3.5287   -3.3979 H   0  0  0  0  0  0  0  0  0  0  0  0
   -6.3454    3.8654   -0.6369 H   0  0  0  0  0  0  0  0  0  0  0  0
   -6.9657    2.3903   -1.3844 H   0  0  0  0  0  0  0  0  0  0  0  0
   -4.6005    2.5637    0.2328 H   0  0  0  0  0  0  0  0  0  0  0  0
   -5.1791    1.1755   -0.6879 H   0  0  0  0  0  0  0  0  0  0  0  0
    2.5700   -0.5484    0.8189 H   0  0  0  0  0  0  0  0  0  0  0  0
    2.2050    1.1561    1.1879 H   0  0  0  0  0  0  0  0  0  0  0  0
    3.5922    1.9232   -0.6703 H   0  0  0  0  0  0  0  0  0  0  0  0
    3.8300    0.2641   -1.2431 H   0  0  0  0  0  0  0  0  0  0  0  0
    6.0572    0.8840   -1.1972 H   0  0  0  0  0  0  0  0  0  0  0  0
    7.1276    0.6684    2.5877 H   0  0  0  0  0  0  0  0  0  0  0  0
   11.0687    1.0458    2.3581 H   0  0  0  0  0  0  0  0  0  0  0  0
   10.4442   -0.5459    2.8398 H   0  0  0  0  0  0  0  0  0  0  0  0
    9.8357    0.9258    3.6226 H   0  0  0  0  0  0  0  0  0  0  0  0
   -0.2028    1.3920    1.9756 H   0  0  0  0  0  0  0  0  0  0  0  0
   -0.5263    0.7205    4.3286 H   0  0  0  0  0  0  0  0  0  0  0  0
   -0.6251   -1.6815    4.9410 H   0  0  0  0  0  0  0  0  0  0  0  0
   -0.3808   -3.4213    3.1840 H   0  0  0  0  0  0  0  0  0  0  0  0
   -0.0433   -2.7644    0.8291 H   0  0  0  0  0  0  0  0  0  0  0  0
   -0.9273   -2.5270   -2.4877 H   0  0  0  0  0  0  0  0  0  0  0  0
   -2.3551   -4.5224   -2.3933 H   0  0  0  0  0  0  0  0  0  0  0  0
  1  2  1  0
  2  3  2  0
  3  4  1  0
  4  5  2  0
  5  6  1  0
  6  7  1  0
  7  8  2  0
  7  9  1  0
  9 10  1  0
 10 11  1  0
 11 12  1  0
 12 13  1  0
 13 14  1  0
  6 15  1  0
 15 16  1  0
 16 17  2  0
 16 18  1  0
 18 19  1  0
 19 20  1  0
 20 21  2  0
 20 22  1  0
 22 23  1  0
 23 24  1  0
 24 25  2  0
 25 26  1  0
 25 27  1  0
 27 28  1  0
 15 29  1  0
 29 30  2  0
 30 31  1  0
 31 32  2  0
 32 33  1  0
 33 34  2  0
  5 35  1  0
 35 36  2  0
 36  2  1  0
 14 10  1  0
 28 23  2  0
 34 29  1  0
  1 37  1  0
  1 38  1  0
  1 39  1  0
  3 40  1  0
  4 41  1  0
  6 42  1  0
  9 43  1  0
 10 44  1  0
 11 45  1  0
 11 46  1  0
 12 47  1  0
 12 48  1  0
 13 49  1  0
 13 50  1  0
 14 51  1  0
 14 52  1  0
 18 53  1  0
 18 54  1  0
 19 55  1  0
 19 56  1  0
 22 57  1  0
 24 58  1  0
 26 59  1  0
 26 60  1  0
 26 61  1  0
 30 62  1  0
 31 63  1  0
 32 64  1  0
 33 65  1  0
 34 66  1  0
 35 67  1  0
 36 68  1  0
M  END
$$$$
