
     RDKit          3D

 36 38  0  0  0  0  0  0  0  0999 V2000
    4.8255    0.1043   -1.5475 C   0  0  0  0  0  0  0  0  0  0  0  0
    3.8656   -0.1580   -0.4230 C   0  0  0  0  0  0  0  0  0  0  0  0
    4.0336   -1.2772    0.3988 C   0  0  0  0  0  0  0  0  0  0  0  0
    3.1460   -1.5574    1.4434 C   0  0  0  0  0  0  0  0  0  0  0  0
    2.0690   -0.6851    1.6313 C   0  0  0  0  0  0  0  0  0  0  0  0
    1.0674   -0.7043    2.5764 N   0  0  0  0  0  0  0  0  0  0  0  0
    0.2021    0.3395    2.3725 C   0  0  0  0  0  0  0  0  0  0  0  0
    0.6706    1.0643    1.2993 C   0  0  0  0  0  0  0  0  0  0  0  0
    0.0714    2.2543    0.7949 C   0  0  0  0  0  0  0  0  0  0  0  0
   -1.1269    2.3656    0.1957 C   0  0  0  0  0  0  0  0  0  0  0  0
   -2.0424    1.2610   -0.1078 C   0  0  0  0  0  0  0  0  0  0  0  0
   -3.3715    1.3345    0.2989 C   0  0  0  0  0  0  0  0  0  0  0  0
   -4.2375    0.2882    0.0023 C   0  0  0  0  0  0  0  0  0  0  0  0
   -3.8056   -0.7905   -0.6890 N   0  0  0  0  0  4  0  0  0  0  0  0
   -4.7360   -1.8939   -0.9787 C   0  0  0  0  0  0  0  0  0  0  0  0
   -2.5208   -0.8780   -1.0995 C   0  0  0  0  0  0  0  0  0  0  0  0
   -1.6220    0.1446   -0.8291 C   0  0  0  0  0  0  0  0  0  0  0  0
    1.8562    0.4332    0.8242 C   0  0  0  0  0  0  0  0  0  0  0  0
    2.7675    0.6948   -0.2210 C   0  0  0  0  0  0  0  0  0  0  0  0
    4.9023    1.1771   -1.7535 H   0  0  0  0  0  0  0  0  0  0  0  0
    5.8303   -0.2499   -1.2943 H   0  0  0  0  0  0  0  0  0  0  0  0
    4.4873   -0.4070   -2.4540 H   0  0  0  0  0  0  0  0  0  0  0  0
    4.8785   -1.9455    0.2382 H   0  0  0  0  0  0  0  0  0  0  0  0
    3.3016   -2.4193    2.0846 H   0  0  0  0  0  0  0  0  0  0  0  0
    1.0003   -1.3846    3.3214 H   0  0  0  0  0  0  0  0  0  0  0  0
   -0.6445    0.4897    3.0285 H   0  0  0  0  0  0  0  0  0  0  0  0
    0.6652    3.1610    0.9088 H   0  0  0  0  0  0  0  0  0  0  0  0
   -1.4619    3.3549   -0.1119 H   0  0  0  0  0  0  0  0  0  0  0  0
   -3.7345    2.1943    0.8586 H   0  0  0  0  0  0  0  0  0  0  0  0
   -5.2774    0.3039    0.3163 H   0  0  0  0  0  0  0  0  0  0  0  0
   -5.7532   -1.4995   -1.0446 H   0  0  0  0  0  0  0  0  0  0  0  0
   -4.6509   -2.6162   -0.1631 H   0  0  0  0  0  0  0  0  0  0  0  0
   -4.4628   -2.3496   -1.9340 H   0  0  0  0  0  0  0  0  0  0  0  0
   -2.2211   -1.7693   -1.6435 H   0  0  0  0  0  0  0  0  0  0  0  0
   -0.5931    0.0591   -1.1747 H   0  0  0  0  0  0  0  0  0  0  0  0
    2.6218    1.5610   -0.8609 H   0  0  0  0  0  0  0  0  0  0  0  0
  1  2  1  0
  2  3  2  0
  3  4  1  0
  4  5  2  0
  5  6  1  0
  6  7  1  0
  7  8  2  0
  8  9  1  0
  9 10  2  3
 10 11  1  0
 11 12  2  0
 12 13  1  0
 13 14  2  0
 14 15  1  0
 14 16  1  0
 16 17  2  0
  8 18  1  0
 18 19  2  0
 19  2  1  0
 18  5  1  0
 17 11  1  0
  1 20  1  0
  1 21  1  0
  1 22  1  0
  3 23  1  0
  4 24  1  0
  6 25  1  0
  7 26  1  0
  9 27  1  0
 10 28  1  0
 12 29  1  0
 13 30  1  0
 15 31  1  0
 15 32  1  0
 15 33  1  0
 16 34  1  0
 17 35  1  0
 19 36  1  0
M  CHG  1  14   1
M  END
$$$$
