
     RDKit          3D

 34 35  0  0  0  0  0  0  0  0999 V2000
   -2.5320   -2.2192   -0.0367 C   0  0  0  0  0  0  0  0  0  0  0  0
   -3.2724   -0.9101   -0.0295 C   0  0  0  0  0  0  0  0  0  0  0  0
   -4.6767   -0.9620    0.0469 C   0  0  0  0  0  0  0  0  0  0  0  0
   -5.4358    0.2022    0.1631 C   0  0  0  0  0  0  0  0  0  0  0  0
   -4.8022    1.4381    0.2139 C   0  0  0  0  0  0  0  0  0  0  0  0
   -3.4122    1.5096    0.1192 C   0  0  0  0  0  0  0  0  0  0  0  0
   -2.6437    0.3481   -0.0495 C   0  0  0  0  0  0  0  0  0  0  0  0
   -1.2417    0.5196   -0.1401 N   0  0  0  0  0  0  0  0  0  0  0  0
   -0.4213    0.0458   -1.1403 C   0  0  0  0  0  0  0  0  0  0  0  0
   -0.8596   -0.5452   -2.6400 S   0  0  0  0  0  0  0  0  0  0  0  0
    0.9179    0.1340   -0.8659 N   0  0  0  0  0  0  0  0  0  0  0  0
    1.5085    0.2799    0.4506 C   0  0  0  0  0  0  0  0  0  0  0  0
    3.0103    0.2798    0.3692 C   0  0  0  0  0  0  0  0  0  0  0  0
    3.6996    1.4342   -0.0293 C   0  0  0  0  0  0  0  0  0  0  0  0
    5.0918    1.4291   -0.1273 C   0  0  0  0  0  0  0  0  0  0  0  0
    5.8074    0.2696    0.1648 C   0  0  0  0  0  0  0  0  0  0  0  0
    5.1322   -0.8868    0.5509 C   0  0  0  0  0  0  0  0  0  0  0  0
    3.7398   -0.8841    0.6493 C   0  0  0  0  0  0  0  0  0  0  0  0
   -3.0027   -2.9218    0.6607 H   0  0  0  0  0  0  0  0  0  0  0  0
   -1.4960   -2.1108    0.2966 H   0  0  0  0  0  0  0  0  0  0  0  0
   -2.5508   -2.6654   -1.0349 H   0  0  0  0  0  0  0  0  0  0  0  0
   -5.1865   -1.9236    0.0374 H   0  0  0  0  0  0  0  0  0  0  0  0
   -6.5190    0.1404    0.2275 H   0  0  0  0  0  0  0  0  0  0  0  0
   -5.3887    2.3470    0.3167 H   0  0  0  0  0  0  0  0  0  0  0  0
   -2.9407    2.4885    0.1404 H   0  0  0  0  0  0  0  0  0  0  0  0
   -0.9158    1.4203    0.1872 H   0  0  0  0  0  0  0  0  0  0  0  0
    1.5069   -0.2771   -1.5827 H   0  0  0  0  0  0  0  0  0  0  0  0
    1.1468   -0.5400    1.0823 H   0  0  0  0  0  0  0  0  0  0  0  0
    1.1567    1.2135    0.9040 H   0  0  0  0  0  0  0  0  0  0  0  0
    3.1524    2.3429   -0.2713 H   0  0  0  0  0  0  0  0  0  0  0  0
    5.6180    2.3287   -0.4360 H   0  0  0  0  0  0  0  0  0  0  0  0
    6.8915    0.2656    0.0865 H   0  0  0  0  0  0  0  0  0  0  0  0
    5.6905   -1.7929    0.7722 H   0  0  0  0  0  0  0  0  0  0  0  0
    3.2276   -1.7977    0.9439 H   0  0  0  0  0  0  0  0  0  0  0  0
  1  2  1  0
  2  3  2  0
  3  4  1  0
  4  5  2  0
  5  6  1  0
  6  7  2  0
  7  8  1  0
  8  9  1  0
  9 10  2  0
  9 11  1  0
 11 12  1  0
 12 13  1  0
 13 14  2  0
 14 15  1  0
 15 16  2  0
 16 17  1  0
 17 18  2  0
  7  2  1  0
 18 13  1  0
  1 19  1  0
  1 20  1  0
  1 21  1  0
  3 22  1  0
  4 23  1  0
  5 24  1  0
  6 25  1  0
  8 26  1  0
 11 27  1  0
 12 28  1  0
 12 29  1  0
 14 30  1  0
 15 31  1  0
 16 32  1  0
 17 33  1  0
 18 34  1  0
M  END
$$$$
