
     RDKit          3D

 46 48  0  0  0  0  0  0  0  0999 V2000
   -8.0749   -0.9023   -0.9197 C   0  0  0  0  0  0  0  0  0  0  0  0
   -7.5488    0.3756   -0.5854 O   0  0  0  0  0  0  0  0  0  0  0  0
   -6.2961    0.4046   -0.0353 C   0  0  0  0  0  0  0  0  0  0  0  0
   -5.7933    1.6869    0.1958 C   0  0  0  0  0  0  0  0  0  0  0  0
   -4.5325    1.8660    0.7691 C   0  0  0  0  0  0  0  0  0  0  0  0
   -3.7525    0.7570    1.1116 C   0  0  0  0  0  0  0  0  0  0  0  0
   -2.4412    0.9827    1.7288 C   0  0  0  0  0  0  0  0  0  0  0  0
   -1.2565    0.8484    1.1160 C   0  0  0  0  0  0  0  0  0  0  0  0
    0.2501    1.1160    1.9581 S   0  0  0  0  0  0  0  0  0  0  0  0
    1.1609    0.7243    0.5379 C   0  0  0  0  0  0  0  0  0  0  0  0
    2.4981    0.7259    0.5070 C   0  0  0  0  0  0  0  0  0  0  0  0
    3.2585    0.3862   -0.7260 C   0  0  0  0  0  0  0  0  0  0  0  0
    2.7001    0.2373   -1.8093 O   0  0  0  0  0  0  0  0  0  0  0  0
    4.7369    0.2621   -0.6265 C   0  0  0  0  0  0  0  0  0  0  0  0
    5.5000    0.5773   -1.7571 C   0  0  0  0  0  0  0  0  0  0  0  0
    6.8926    0.4750   -1.7194 C   0  0  0  0  0  0  0  0  0  0  0  0
    7.5390    0.0355   -0.5587 C   0  0  0  0  0  0  0  0  0  0  0  0
    9.0367   -0.0450   -0.5085 C   0  0  0  0  0  0  0  0  0  0  0  0
    6.7734   -0.2830    0.5696 C   0  0  0  0  0  0  0  0  0  0  0  0
    5.3790   -0.1809    0.5357 C   0  0  0  0  0  0  0  0  0  0  0  0
    0.3489    0.4238   -0.5111 N   0  0  0  0  0  0  0  0  0  0  0  0
   -1.0071    0.4717   -0.3097 C   0  0  0  0  0  0  0  0  0  0  0  0
   -1.8403    0.2466   -1.1707 O   0  0  0  0  0  0  0  0  0  0  0  0
   -4.2491   -0.5329    0.8642 C   0  0  0  0  0  0  0  0  0  0  0  0
   -3.4764   -1.6032    1.2484 O   0  0  0  0  0  0  0  0  0  0  0  0
   -3.3479   -2.5926    0.2285 C   0  0  0  0  0  0  0  0  0  0  0  0
   -5.5246   -0.7067    0.3090 C   0  0  0  0  0  0  0  0  0  0  0  0
   -8.2282   -1.5111   -0.0226 H   0  0  0  0  0  0  0  0  0  0  0  0
   -7.4352   -1.4178   -1.6438 H   0  0  0  0  0  0  0  0  0  0  0  0
   -9.0518   -0.7494   -1.3885 H   0  0  0  0  0  0  0  0  0  0  0  0
   -6.3906    2.5553   -0.0714 H   0  0  0  0  0  0  0  0  0  0  0  0
   -4.1662    2.8752    0.9395 H   0  0  0  0  0  0  0  0  0  0  0  0
   -2.4898    1.2678    2.7765 H   0  0  0  0  0  0  0  0  0  0  0  0
    3.0623    0.9982    1.3903 H   0  0  0  0  0  0  0  0  0  0  0  0
    5.0132    0.9088   -2.6728 H   0  0  0  0  0  0  0  0  0  0  0  0
    7.4682    0.7358   -2.6054 H   0  0  0  0  0  0  0  0  0  0  0  0
    9.3625   -0.8370    0.1741 H   0  0  0  0  0  0  0  0  0  0  0  0
    9.4488   -0.2779   -1.4959 H   0  0  0  0  0  0  0  0  0  0  0  0
    9.4510    0.9089   -0.1679 H   0  0  0  0  0  0  0  0  0  0  0  0
    7.2603   -0.6238    1.4815 H   0  0  0  0  0  0  0  0  0  0  0  0
    4.8192   -0.4743    1.4190 H   0  0  0  0  0  0  0  0  0  0  0  0
    0.7309    0.1994   -1.4272 H   0  0  0  0  0  0  0  0  0  0  0  0
   -2.4461   -3.1746    0.4413 H   0  0  0  0  0  0  0  0  0  0  0  0
   -3.2356   -2.1514   -0.7681 H   0  0  0  0  0  0  0  0  0  0  0  0
   -4.2014   -3.2773    0.2523 H   0  0  0  0  0  0  0  0  0  0  0  0
   -5.9043   -1.7112    0.1726 H   0  0  0  0  0  0  0  0  0  0  0  0
  1  2  1  0
  2  3  1  0
  3  4  2  0
  4  5  1  0
  5  6  2  0
  6  7  1  0
  7  8  2  3
  8  9  1  0
  9 10  1  0
 10 11  2  3
 11 12  1  0
 12 13  2  0
 12 14  1  0
 14 15  2  0
 15 16  1  0
 16 17  2  0
 17 18  1  0
 17 19  1  0
 19 20  2  0
 10 21  1  0
 21 22  1  0
 22 23  2  0
  6 24  1  0
 24 25  1  0
 25 26  1  0
 24 27  2  0
 27  3  1  0
 22  8  1  0
 20 14  1  0
  1 28  1  0
  1 29  1  0
  1 30  1  0
  4 31  1  0
  5 32  1  0
  7 33  1  0
 11 34  1  0
 15 35  1  0
 16 36  1  0
 18 37  1  0
 18 38  1  0
 18 39  1  0
 19 40  1  0
 20 41  1  0
 21 42  1  0
 26 43  1  0
 26 44  1  0
 26 45  1  0
 27 46  1  0
M  END
$$$$
