
     RDKit          3D

 29 29  0  0  0  0  0  0  0  0999 V2000
   -4.1787   -4.3799   -1.1834 C   0  0  0  0  0  0  0  0  0  0  0  0
   -3.8267   -3.2425   -1.0236 C   0  0  0  0  0  0  0  0  0  0  0  0
   -3.3955   -1.8517   -0.8294 C   0  0  0  0  0  0  0  0  0  0  0  0
   -2.6089   -1.7571    0.3964 N   0  0  0  0  0  0  0  0  0  0  0  0
   -2.1630   -0.3962    0.6850 C   0  0  0  0  0  0  0  0  0  0  0  0
   -0.9856    0.0528   -0.1796 C   0  0  0  0  0  0  0  0  0  0  0  0
   -0.5111    1.4476    0.2245 C   0  0  0  0  0  0  0  0  0  0  0  0
    0.5566    1.8737   -0.6207 O   0  0  0  0  0  0  0  0  0  0  0  0
    1.8522    1.6337   -0.2502 C   0  0  0  0  0  0  0  0  0  0  0  0
    2.2396    0.8091    0.8108 C   0  0  0  0  0  0  0  0  0  0  0  0
    3.5953    0.6203    1.1029 C   0  0  0  0  0  0  0  0  0  0  0  0
    4.5701    1.2509    0.3335 C   0  0  0  0  0  0  0  0  0  0  0  0
    6.2333    1.0119    0.7004 Cl  0  0  0  0  0  0  0  0  0  0  0  0
    4.2062    2.0684   -0.7301 C   0  0  0  0  0  0  0  0  0  0  0  0
    2.8524    2.2554   -1.0203 C   0  0  0  0  0  0  0  0  0  0  0  0
    2.4506    3.2810   -2.3555 Cl  0  0  0  0  0  0  0  0  0  0  0  0
   -4.4928   -5.3890   -1.3181 H   0  0  0  0  0  0  0  0  0  0  0  0
   -2.8109   -1.5353   -1.6996 H   0  0  0  0  0  0  0  0  0  0  0  0
   -4.2792   -1.2070   -0.7635 H   0  0  0  0  0  0  0  0  0  0  0  0
   -1.8116   -2.3878    0.3263 H   0  0  0  0  0  0  0  0  0  0  0  0
   -1.8523   -0.3736    1.7365 H   0  0  0  0  0  0  0  0  0  0  0  0
   -2.9988    0.3089    0.6002 H   0  0  0  0  0  0  0  0  0  0  0  0
   -0.1597   -0.6635   -0.0965 H   0  0  0  0  0  0  0  0  0  0  0  0
   -1.2600    0.0693   -1.2410 H   0  0  0  0  0  0  0  0  0  0  0  0
   -0.2578    1.5221    1.2882 H   0  0  0  0  0  0  0  0  0  0  0  0
   -1.3302    2.1589    0.0637 H   0  0  0  0  0  0  0  0  0  0  0  0
    1.5165    0.2863    1.4279 H   0  0  0  0  0  0  0  0  0  0  0  0
    3.8821   -0.0238    1.9310 H   0  0  0  0  0  0  0  0  0  0  0  0
    4.9679    2.5571   -1.3312 H   0  0  0  0  0  0  0  0  0  0  0  0
  1  2  3  0
  2  3  1  0
  3  4  1  0
  4  5  1  0
  5  6  1  0
  6  7  1  0
  7  8  1  0
  8  9  1  0
  9 10  2  0
 10 11  1  0
 11 12  2  0
 12 13  1  0
 12 14  1  0
 14 15  2  0
 15 16  1  0
 15  9  1  0
  1 17  1  0
  3 18  1  0
  3 19  1  0
  4 20  1  0
  5 21  1  0
  5 22  1  0
  6 23  1  0
  6 24  1  0
  7 25  1  0
  7 26  1  0
 10 27  1  0
 11 28  1  0
 14 29  1  0
M  END
$$$$
