
     RDKit          3D

 40 42  0  0  0  0  0  0  0  0999 V2000
   -6.4718   -1.5479    0.3962 C   0  0  0  0  0  0  0  0  0  0  0  0
   -6.4804    0.0375    1.2116 S   0  0  0  0  0  6  0  0  0  0  0  0
   -5.8155   -0.0947    2.4887 O   0  0  0  0  0  0  0  0  0  0  0  0
   -7.8244    0.5671    1.1166 O   0  0  0  0  0  0  0  0  0  0  0  0
   -5.5486    0.9834    0.1755 N   0  0  0  0  0  0  0  0  0  0  0  0
   -4.1958    0.6330   -0.0909 C   0  0  0  0  0  0  0  0  0  0  0  0
   -3.2519    0.5385    0.9323 C   0  0  0  0  0  0  0  0  0  0  0  0
   -1.9304    0.1827    0.6431 C   0  0  0  0  0  0  0  0  0  0  0  0
   -1.5463   -0.0631   -0.6807 C   0  0  0  0  0  0  0  0  0  0  0  0
   -0.1531   -0.4541   -1.0392 C   0  0  0  0  0  0  0  0  0  0  0  0
    0.0020   -1.2295   -1.9747 O   0  0  0  0  0  0  0  0  0  0  0  0
    0.8356    0.1453   -0.2809 N   0  0  0  0  0  0  0  0  0  0  0  0
    2.2285   -0.0649   -0.3706 C   0  0  0  0  0  0  0  0  0  0  0  0
    2.8232   -1.0090   -1.2119 C   0  0  0  0  0  0  0  0  0  0  0  0
    4.2148   -1.1570   -1.2444 C   0  0  0  0  0  0  0  0  0  0  0  0
    5.0197   -0.3614   -0.4360 C   0  0  0  0  0  0  0  0  0  0  0  0
    4.4331    0.5627    0.4304 C   0  0  0  0  0  0  0  0  0  0  0  0
    3.0465    0.7200    0.4532 C   0  0  0  0  0  0  0  0  0  0  0  0
    5.1564    1.3577    1.2835 O   0  0  0  0  0  0  0  0  0  0  0  0
    6.5011    0.8831    1.4231 C   0  0  0  0  0  0  0  0  0  0  0  0
    7.0926    0.5367    0.0666 C   0  0  0  0  0  0  0  0  0  0  0  0
    6.3742   -0.5456   -0.5361 O   0  0  0  0  0  0  0  0  0  0  0  0
   -2.4976    0.0287   -1.7047 C   0  0  0  0  0  0  0  0  0  0  0  0
   -3.8169    0.3845   -1.4112 C   0  0  0  0  0  0  0  0  0  0  0  0
   -5.4600   -1.9561    0.4064 H   0  0  0  0  0  0  0  0  0  0  0  0
   -6.8394   -1.4240   -0.6241 H   0  0  0  0  0  0  0  0  0  0  0  0
   -7.1399   -2.2109    0.9507 H   0  0  0  0  0  0  0  0  0  0  0  0
   -6.0982    1.3645   -0.5946 H   0  0  0  0  0  0  0  0  0  0  0  0
   -3.5299    0.7435    1.9641 H   0  0  0  0  0  0  0  0  0  0  0  0
   -1.2273    0.0770    1.4651 H   0  0  0  0  0  0  0  0  0  0  0  0
    0.5467    0.8648    0.3691 H   0  0  0  0  0  0  0  0  0  0  0  0
    2.2323   -1.6496   -1.8593 H   0  0  0  0  0  0  0  0  0  0  0  0
    4.6648   -1.8884   -1.9102 H   0  0  0  0  0  0  0  0  0  0  0  0
    2.6199    1.4562    1.1282 H   0  0  0  0  0  0  0  0  0  0  0  0
    6.4959    0.0141    2.0928 H   0  0  0  0  0  0  0  0  0  0  0  0
    7.0849    1.6771    1.8991 H   0  0  0  0  0  0  0  0  0  0  0  0
    8.1350    0.2220    0.1774 H   0  0  0  0  0  0  0  0  0  0  0  0
    7.0654    1.3961   -0.6148 H   0  0  0  0  0  0  0  0  0  0  0  0
   -2.2095   -0.1753   -2.7349 H   0  0  0  0  0  0  0  0  0  0  0  0
   -4.5358    0.4552   -2.2230 H   0  0  0  0  0  0  0  0  0  0  0  0
  1  2  1  0
  2  3  2  0
  2  4  2  0
  2  5  1  0
  5  6  1  0
  6  7  2  0
  7  8  1  0
  8  9  2  0
  9 10  1  0
 10 11  2  0
 10 12  1  0
 12 13  1  0
 13 14  2  0
 14 15  1  0
 15 16  2  0
 16 17  1  0
 17 18  2  0
 17 19  1  0
 19 20  1  0
 20 21  1  0
 21 22  1  0
  9 23  1  0
 23 24  2  0
 24  6  1  0
 18 13  1  0
 22 16  1  0
  1 25  1  0
  1 26  1  0
  1 27  1  0
  5 28  1  0
  7 29  1  0
  8 30  1  0
 12 31  1  0
 14 32  1  0
 15 33  1  0
 18 34  1  0
 20 35  1  0
 20 36  1  0
 21 37  1  0
 21 38  1  0
 23 39  1  0
 24 40  1  0
M  END
$$$$
