
     RDKit          3D

 48 51  0  0  0  0  0  0  0  0999 V2000
    3.4695    2.8095    0.8096 C   0  0  0  0  0  0  0  0  0  0  0  0
    3.5892    1.4645    1.5105 C   0  0  0  0  0  0  0  0  0  0  0  0
    3.1174    0.3856    0.6471 N   0  0  0  0  0  0  0  0  0  0  0  0
    1.8178   -0.1193    0.5473 C   0  0  0  0  0  0  0  0  0  0  0  0
    0.7349    0.3285    1.2117 C   0  0  0  0  0  0  0  0  0  0  0  0
   -0.6224   -0.2220    1.0981 C   0  0  0  0  0  0  0  0  0  0  0  0
   -0.9579   -1.2847    1.9368 C   0  0  0  0  0  0  0  0  0  0  0  0
   -2.2230   -1.8365    1.8829 C   0  0  0  0  0  0  0  0  0  0  0  0
   -3.1582   -1.3144    0.9984 C   0  0  0  0  0  0  0  0  0  0  0  0
   -4.4476   -1.8681    0.9509 C   0  0  0  0  0  0  0  0  0  0  0  0
   -5.4163   -1.3681    0.0770 C   0  0  0  0  0  0  0  0  0  0  0  0
   -6.8011   -1.9499    0.0607 C   0  0  0  0  0  0  0  0  0  0  0  0
   -5.0942   -0.2826   -0.7344 C   0  0  0  0  0  0  0  0  0  0  0  0
   -3.8113    0.2775   -0.6988 C   0  0  0  0  0  0  0  0  0  0  0  0
   -2.8091   -0.2247    0.1541 C   0  0  0  0  0  0  0  0  0  0  0  0
   -1.5332    0.2918    0.2166 N   0  0  0  0  0  4  0  0  0  0  0  0
   -1.1208    1.3992   -0.6982 C   0  0  0  0  0  0  0  0  0  0  0  0
   -1.4567    2.7379   -0.0679 C   0  0  0  0  0  0  0  0  0  0  0  0
    1.6519   -1.4535   -0.6316 S   0  0  0  0  0  0  0  0  0  0  0  0
    3.3884   -1.2762   -1.0154 C   0  0  0  0  0  0  0  0  0  0  0  0
    4.0898   -2.0242   -1.9511 C   0  0  0  0  0  0  0  0  0  0  0  0
    5.4427   -1.7495   -2.1377 C   0  0  0  0  0  0  0  0  0  0  0  0
    6.0663   -0.7398   -1.3950 C   0  0  0  0  0  0  0  0  0  0  0  0
    5.3476    0.0082   -0.4528 C   0  0  0  0  0  0  0  0  0  0  0  0
    3.9971   -0.2557   -0.2505 C   0  0  0  0  0  0  0  0  0  0  0  0
    2.4321    3.0170    0.5267 H   0  0  0  0  0  0  0  0  0  0  0  0
    3.8083    3.6127    1.4713 H   0  0  0  0  0  0  0  0  0  0  0  0
    4.0763    2.8409   -0.1010 H   0  0  0  0  0  0  0  0  0  0  0  0
    4.6214    1.2983    1.8387 H   0  0  0  0  0  0  0  0  0  0  0  0
    3.0032    1.4904    2.4368 H   0  0  0  0  0  0  0  0  0  0  0  0
    0.8238    1.1482    1.9175 H   0  0  0  0  0  0  0  0  0  0  0  0
   -0.2261   -1.6959    2.6314 H   0  0  0  0  0  0  0  0  0  0  0  0
   -2.4688   -2.6723    2.5375 H   0  0  0  0  0  0  0  0  0  0  0  0
   -4.7101   -2.7030    1.6024 H   0  0  0  0  0  0  0  0  0  0  0  0
   -6.7761   -3.0217    0.2840 H   0  0  0  0  0  0  0  0  0  0  0  0
   -7.2617   -1.8348   -0.9261 H   0  0  0  0  0  0  0  0  0  0  0  0
   -7.4266   -1.4467    0.8043 H   0  0  0  0  0  0  0  0  0  0  0  0
   -5.8443    0.1378   -1.4047 H   0  0  0  0  0  0  0  0  0  0  0  0
   -3.6490    1.1243   -1.3581 H   0  0  0  0  0  0  0  0  0  0  0  0
   -0.0523    1.3308   -0.9118 H   0  0  0  0  0  0  0  0  0  0  0  0
   -1.6065    1.2630   -1.6679 H   0  0  0  0  0  0  0  0  0  0  0  0
   -1.1609    3.5539   -0.7342 H   0  0  0  0  0  0  0  0  0  0  0  0
   -0.9329    2.8701    0.8839 H   0  0  0  0  0  0  0  0  0  0  0  0
   -2.5283    2.8328    0.1307 H   0  0  0  0  0  0  0  0  0  0  0  0
    3.6036   -2.8059   -2.5257 H   0  0  0  0  0  0  0  0  0  0  0  0
    6.0186   -2.3208   -2.8627 H   0  0  0  0  0  0  0  0  0  0  0  0
    7.1240   -0.5351   -1.5515 H   0  0  0  0  0  0  0  0  0  0  0  0
    5.8712    0.7825    0.0970 H   0  0  0  0  0  0  0  0  0  0  0  0
  1  2  1  0
  2  3  1  0
  3  4  1  0
  4  5  2  3
  5  6  1  0
  6  7  2  0
  7  8  1  0
  8  9  2  0
  9 10  1  0
 10 11  2  0
 11 12  1  0
 11 13  1  0
 13 14  2  0
 14 15  1  0
 15 16  2  0
 16 17  1  0
 17 18  1  0
  4 19  1  0
 19 20  1  0
 20 21  2  0
 21 22  1  0
 22 23  2  0
 23 24  1  0
 24 25  2  0
 25  3  1  0
 16  6  1  0
 25 20  1  0
 15  9  1  0
  1 26  1  0
  1 27  1  0
  1 28  1  0
  2 29  1  0
  2 30  1  0
  5 31  1  0
  7 32  1  0
  8 33  1  0
 10 34  1  0
 12 35  1  0
 12 36  1  0
 12 37  1  0
 13 38  1  0
 14 39  1  0
 17 40  1  0
 17 41  1  0
 18 42  1  0
 18 43  1  0
 18 44  1  0
 21 45  1  0
 22 46  1  0
 23 47  1  0
 24 48  1  0
M  CHG  1  16   1
M  END
$$$$
