
     RDKit          3D

 46 48  0  0  0  0  0  0  0  0999 V2000
    1.8114    1.4562   -2.6496 O   0  0  0  0  0  0  0  0  0  0  0  0
    1.2990    0.7010   -1.8215 C   0  0  0  0  0  0  0  0  0  0  0  0
   -0.0632    0.9660   -1.1903 C   0  0  0  0  0  0  0  0  0  0  0  0
   -0.6682   -0.2497   -0.7613 O   0  0  0  0  0  0  0  0  0  0  0  0
   -1.9914   -0.1757   -0.4255 C   0  0  0  0  0  0  0  0  0  0  0  0
   -2.6737    0.9849   -0.0611 C   0  0  0  0  0  0  0  0  0  0  0  0
   -4.0353    0.9255    0.2635 C   0  0  0  0  0  0  0  0  0  0  0  0
   -4.7390   -0.2893    0.2307 C   0  0  0  0  0  0  0  0  0  0  0  0
   -6.1731   -0.3444    0.5493 C   0  0  0  0  0  0  0  0  0  0  0  0
   -6.6583    0.0970    1.7917 C   0  0  0  0  0  0  0  0  0  0  0  0
   -8.0227    0.0437    2.0911 C   0  0  0  0  0  0  0  0  0  0  0  0
   -8.9243   -0.4478    1.1491 C   0  0  0  0  0  0  0  0  0  0  0  0
   -8.4629   -0.8906   -0.0882 C   0  0  0  0  0  0  0  0  0  0  0  0
   -7.0983   -0.8398   -0.3841 C   0  0  0  0  0  0  0  0  0  0  0  0
   -4.0331   -1.4496   -0.1204 C   0  0  0  0  0  0  0  0  0  0  0  0
   -2.6722   -1.3932   -0.4361 C   0  0  0  0  0  0  0  0  0  0  0  0
    1.9459   -0.4320   -1.3525 N   0  0  0  0  0  0  0  0  0  0  0  0
    3.3424   -0.5012   -1.6135 N   0  0  0  0  0  0  0  0  0  0  0  0
    4.1658   -0.3262   -0.5053 C   0  0  0  0  0  0  0  0  0  0  0  0
    3.7169   -0.3033    0.6361 O   0  0  0  0  0  0  0  0  0  0  0  0
    5.4851   -0.2155   -0.8791 N   0  0  0  0  0  0  0  0  0  0  0  0
    6.5968    0.0448   -0.0518 C   0  0  0  0  0  0  0  0  0  0  0  0
    6.5070    0.3888    1.2985 C   0  0  0  0  0  0  0  0  0  0  0  0
    7.6708    0.6420    2.0353 C   0  0  0  0  0  0  0  0  0  0  0  0
    8.9162    0.5533    1.4206 C   0  0  0  0  0  0  0  0  0  0  0  0
   10.0223    0.8047    2.1320 F   0  0  0  0  0  0  0  0  0  0  0  0
    9.0275    0.2196    0.0799 C   0  0  0  0  0  0  0  0  0  0  0  0
    7.8672   -0.0322   -0.6427 C   0  0  0  0  0  0  0  0  0  0  0  0
    7.9702   -0.3569   -1.9422 F   0  0  0  0  0  0  0  0  0  0  0  0
    0.1020    1.6294   -0.3334 H   0  0  0  0  0  0  0  0  0  0  0  0
   -0.6827    1.4605   -1.9500 H   0  0  0  0  0  0  0  0  0  0  0  0
   -2.1796    1.9497   -0.0101 H   0  0  0  0  0  0  0  0  0  0  0  0
   -4.5525    1.8443    0.5320 H   0  0  0  0  0  0  0  0  0  0  0  0
   -5.9690    0.4763    2.5439 H   0  0  0  0  0  0  0  0  0  0  0  0
   -8.3801    0.3846    3.0601 H   0  0  0  0  0  0  0  0  0  0  0  0
   -9.9857   -0.4882    1.3806 H   0  0  0  0  0  0  0  0  0  0  0  0
   -9.1637   -1.2702   -0.8264 H   0  0  0  0  0  0  0  0  0  0  0  0
   -6.7580   -1.1784   -1.3617 H   0  0  0  0  0  0  0  0  0  0  0  0
   -4.5400   -2.4124   -0.1409 H   0  0  0  0  0  0  0  0  0  0  0  0
   -2.1459   -2.3070   -0.7011 H   0  0  0  0  0  0  0  0  0  0  0  0
    1.6673   -0.7869   -0.4354 H   0  0  0  0  0  0  0  0  0  0  0  0
    3.6025    0.0431   -2.4362 H   0  0  0  0  0  0  0  0  0  0  0  0
    5.7013   -0.4747   -1.8349 H   0  0  0  0  0  0  0  0  0  0  0  0
    5.5496    0.4786    1.8046 H   0  0  0  0  0  0  0  0  0  0  0  0
    7.6078    0.9065    3.0866 H   0  0  0  0  0  0  0  0  0  0  0  0
    9.9982    0.1645   -0.3970 H   0  0  0  0  0  0  0  0  0  0  0  0
  1  2  2  0
  2  3  1  0
  3  4  1  0
  4  5  1  0
  5  6  2  0
  6  7  1  0
  7  8  2  0
  8  9  1  0
  9 10  2  0
 10 11  1  0
 11 12  2  0
 12 13  1  0
 13 14  2  0
  8 15  1  0
 15 16  2  0
  2 17  1  0
 17 18  1  0
 18 19  1  0
 19 20  2  0
 19 21  1  0
 21 22  1  0
 22 23  2  0
 23 24  1  0
 24 25  2  0
 25 26  1  0
 25 27  1  0
 27 28  2  0
 28 29  1  0
 16  5  1  0
 28 22  1  0
 14  9  1  0
  3 30  1  0
  3 31  1  0
  6 32  1  0
  7 33  1  0
 10 34  1  0
 11 35  1  0
 12 36  1  0
 13 37  1  0
 14 38  1  0
 15 39  1  0
 16 40  1  0
 17 41  1  0
 18 42  1  0
 21 43  1  0
 23 44  1  0
 24 45  1  0
 27 46  1  0
M  END
$$$$
