
     RDKit          3D

 51 55  0  0  0  0  0  0  0  0999 V2000
   -6.6850    1.7864   -3.7517 C   0  0  0  0  0  0  0  0  0  0  0  0
   -6.3142    1.6277   -2.3059 C   0  0  0  0  0  0  0  0  0  0  0  0
   -6.7424    2.5660   -1.3591 C   0  0  0  0  0  0  0  0  0  0  0  0
   -6.3866    2.4314   -0.0155 C   0  0  0  0  0  0  0  0  0  0  0  0
   -5.5828    1.3665    0.3943 C   0  0  0  0  0  0  0  0  0  0  0  0
   -5.1223    0.4381   -0.5482 C   0  0  0  0  0  0  0  0  0  0  0  0
   -4.2576   -0.7133   -0.1605 C   0  0  0  0  0  0  0  0  0  0  0  0
   -4.3866   -1.7666   -0.7704 O   0  0  0  0  0  0  0  0  0  0  0  0
   -3.3575   -0.4419    0.8445 N   0  0  0  0  0  0  0  0  0  0  0  0
   -2.4725   -1.3261    1.4119 C   0  0  0  0  0  0  0  0  0  0  0  0
   -1.5901   -0.9471    2.3133 N   0  0  0  0  0  0  0  0  0  0  0  0
   -0.8291   -2.0042    2.7662 N   0  0  0  0  0  0  0  0  0  0  0  0
   -1.1556   -3.1344    2.1725 C   0  0  0  0  0  0  0  0  0  0  0  0
   -0.3390   -4.6402    2.5120 S   0  0  0  0  0  0  0  0  0  0  0  0
    1.0968   -4.0652    3.4620 C   0  0  0  0  0  0  0  0  0  0  0  0
    2.1392   -3.4391    2.5466 C   0  0  0  0  0  0  0  0  0  0  0  0
    3.0327   -4.1241    2.0559 O   0  0  0  0  0  0  0  0  0  0  0  0
    1.9533   -2.0796    2.3553 N   0  0  0  0  0  0  0  0  0  0  0  0
    2.7413   -1.1989    1.5850 C   0  0  0  0  0  0  0  0  0  0  0  0
    2.2615    0.1146    1.4516 C   0  0  0  0  0  0  0  0  0  0  0  0
    2.9565    1.0841    0.7105 C   0  0  0  0  0  0  0  0  0  0  0  0
    4.1650    0.7201    0.0932 C   0  0  0  0  0  0  0  0  0  0  0  0
    4.6158   -0.5854    0.2488 C   0  0  0  0  0  0  0  0  0  0  0  0
    3.9451   -1.5702    0.9774 C   0  0  0  0  0  0  0  0  0  0  0  0
    5.7969   -0.7630   -0.4067 O   0  0  0  0  0  0  0  0  0  0  0  0
    6.1100    0.4240   -0.9933 C   0  0  0  0  0  0  0  0  0  0  0  0
    7.2446    0.6654   -1.7650 C   0  0  0  0  0  0  0  0  0  0  0  0
    7.3840    1.9557   -2.2858 C   0  0  0  0  0  0  0  0  0  0  0  0
    6.4275    2.9429   -2.0346 C   0  0  0  0  0  0  0  0  0  0  0  0
    5.2959    2.6705   -1.2516 C   0  0  0  0  0  0  0  0  0  0  0  0
    5.1354    1.3775   -0.7185 C   0  0  0  0  0  0  0  0  0  0  0  0
   -2.4365   -2.9914    1.0506 S   0  0  0  0  0  0  0  0  0  0  0  0
   -5.4964    0.5676   -1.8928 C   0  0  0  0  0  0  0  0  0  0  0  0
   -7.7067    2.1678   -3.8503 H   0  0  0  0  0  0  0  0  0  0  0  0
   -6.6453    0.8267   -4.2764 H   0  0  0  0  0  0  0  0  0  0  0  0
   -5.9959    2.4821   -4.2407 H   0  0  0  0  0  0  0  0  0  0  0  0
   -7.3686    3.4030   -1.6632 H   0  0  0  0  0  0  0  0  0  0  0  0
   -6.7474    3.1542    0.7124 H   0  0  0  0  0  0  0  0  0  0  0  0
   -5.3521    1.2635    1.4507 H   0  0  0  0  0  0  0  0  0  0  0  0
   -3.2484    0.5054    1.1771 H   0  0  0  0  0  0  0  0  0  0  0  0
    1.5579   -4.9289    3.9533 H   0  0  0  0  0  0  0  0  0  0  0  0
    0.8051   -3.3724    4.2580 H   0  0  0  0  0  0  0  0  0  0  0  0
    1.0941   -1.6840    2.7349 H   0  0  0  0  0  0  0  0  0  0  0  0
    1.3245    0.4066    1.9231 H   0  0  0  0  0  0  0  0  0  0  0  0
    2.5642    2.0919    0.6176 H   0  0  0  0  0  0  0  0  0  0  0  0
    4.3703   -2.5625    1.0477 H   0  0  0  0  0  0  0  0  0  0  0  0
    7.9754   -0.1125   -1.9491 H   0  0  0  0  0  0  0  0  0  0  0  0
    8.2528    2.1927   -2.8964 H   0  0  0  0  0  0  0  0  0  0  0  0
    6.5612    3.9383   -2.4532 H   0  0  0  0  0  0  0  0  0  0  0  0
    4.5586    3.4449   -1.0651 H   0  0  0  0  0  0  0  0  0  0  0  0
   -5.1469   -0.1646   -2.6195 H   0  0  0  0  0  0  0  0  0  0  0  0
  1  2  1  0
  2  3  2  0
  3  4  1  0
  4  5  2  0
  5  6  1  0
  6  7  1  0
  7  8  2  0
  7  9  1  0
  9 10  1  0
 10 11  2  0
 11 12  1  0
 12 13  2  0
 13 14  1  0
 14 15  1  0
 15 16  1  0
 16 17  2  0
 16 18  1  0
 18 19  1  0
 19 20  2  0
 20 21  1  0
 21 22  2  0
 22 23  1  0
 23 24  2  0
 23 25  1  0
 25 26  1  0
 26 27  2  0
 27 28  1  0
 28 29  2  0
 29 30  1  0
 30 31  2  0
 13 32  1  0
  6 33  2  0
 33  2  1  0
 32 10  1  0
 24 19  1  0
 31 26  1  0
 31 22  1  0
  1 34  1  0
  1 35  1  0
  1 36  1  0
  3 37  1  0
  4 38  1  0
  5 39  1  0
  9 40  1  0
 15 41  1  0
 15 42  1  0
 18 43  1  0
 20 44  1  0
 21 45  1  0
 24 46  1  0
 27 47  1  0
 28 48  1  0
 29 49  1  0
 30 50  1  0
 33 51  1  0
M  END
$$$$
