
     RDKit          3D

 57 60  0  0  0  0  0  0  0  0999 V2000
   -6.0508   -3.1314    0.2850 C   0  0  0  0  0  0  0  0  0  0  0  0
   -5.3815   -1.7710    0.0649 C   0  0  0  0  0  0  0  0  0  0  0  0
   -6.2439   -0.9249   -0.8695 C   0  0  0  0  0  0  0  0  0  0  0  0
   -3.9713   -1.9495   -0.5086 C   0  0  0  0  0  0  0  0  0  0  0  0
   -3.6108   -3.0378   -0.9636 O   0  0  0  0  0  0  0  0  0  0  0  0
   -3.1188   -0.8557   -0.5297 N   0  0  0  0  0  0  0  0  0  0  0  0
   -1.7969   -1.0326   -1.1473 C   0  0  0  0  0  0  0  0  0  0  0  0
   -1.1168    0.3021   -1.4898 C   0  0  0  0  0  0  0  0  0  0  0  0
   -0.9577    1.1429   -0.2746 N   0  0  0  0  0  0  0  0  0  0  0  0
   -0.5690    2.4641   -0.6267 C   0  0  0  0  0  0  0  0  0  0  0  0
   -1.4856    3.4257   -1.0765 C   0  0  0  0  0  0  0  0  0  0  0  0
   -1.0528    4.7010   -1.4438 C   0  0  0  0  0  0  0  0  0  0  0  0
    0.2995    5.0282   -1.3691 C   0  0  0  0  0  0  0  0  0  0  0  0
    1.2287    4.0845   -0.9272 C   0  0  0  0  0  0  0  0  0  0  0  0
    0.8044    2.8083   -0.5577 C   0  0  0  0  0  0  0  0  0  0  0  0
    1.6645    1.7982   -0.0791 N   0  0  0  0  0  0  0  0  0  0  0  0
    3.0374    1.8159    0.0158 C   0  0  0  0  0  0  0  0  0  0  0  0
    3.7877    2.7087   -0.3599 O   0  0  0  0  0  0  0  0  0  0  0  0
    3.6357    0.5855    0.6065 C   0  0  0  0  0  0  0  0  0  0  0  0
    2.9977   -0.1226    1.6362 C   0  0  0  0  0  0  0  0  0  0  0  0
    3.5935   -1.2686    2.1691 C   0  0  0  0  0  0  0  0  0  0  0  0
    4.8250   -1.7023    1.6815 C   0  0  0  0  0  0  0  0  0  0  0  0
    5.4553   -1.0058    0.6444 C   0  0  0  0  0  0  0  0  0  0  0  0
    4.8752    0.1486    0.1226 C   0  0  0  0  0  0  0  0  0  0  0  0
    6.6502   -1.3971    0.0963 O   0  0  0  0  0  0  0  0  0  0  0  0
    6.9727   -2.7455    0.4546 C   0  0  0  0  0  0  0  0  0  0  0  0
    6.7438   -2.9743    1.9394 C   0  0  0  0  0  0  0  0  0  0  0  0
    5.3572   -2.8225    2.2669 O   0  0  0  0  0  0  0  0  0  0  0  0
   -2.0704    1.0587    0.7023 C   0  0  0  0  0  0  0  0  0  0  0  0
   -3.3549    0.4475    0.1094 C   0  0  0  0  0  0  0  0  0  0  0  0
   -5.4377   -3.7663    0.9339 H   0  0  0  0  0  0  0  0  0  0  0  0
   -6.1991   -3.6656   -0.6600 H   0  0  0  0  0  0  0  0  0  0  0  0
   -7.0288   -3.0107    0.7620 H   0  0  0  0  0  0  0  0  0  0  0  0
   -5.3099   -1.2956    1.0479 H   0  0  0  0  0  0  0  0  0  0  0  0
   -7.2637   -0.8320   -0.4807 H   0  0  0  0  0  0  0  0  0  0  0  0
   -5.8463    0.0858   -0.9920 H   0  0  0  0  0  0  0  0  0  0  0  0
   -6.2997   -1.3744   -1.8672 H   0  0  0  0  0  0  0  0  0  0  0  0
   -1.8964   -1.6416   -2.0530 H   0  0  0  0  0  0  0  0  0  0  0  0
   -1.1838   -1.5954   -0.4324 H   0  0  0  0  0  0  0  0  0  0  0  0
   -1.7218    0.8202   -2.2460 H   0  0  0  0  0  0  0  0  0  0  0  0
   -0.1317    0.1015   -1.9273 H   0  0  0  0  0  0  0  0  0  0  0  0
   -2.5410    3.1895   -1.1623 H   0  0  0  0  0  0  0  0  0  0  0  0
   -1.7694    5.4390   -1.7947 H   0  0  0  0  0  0  0  0  0  0  0  0
    0.6375    6.0210   -1.6562 H   0  0  0  0  0  0  0  0  0  0  0  0
    2.2740    4.3723   -0.8751 H   0  0  0  0  0  0  0  0  0  0  0  0
    1.1550    0.9520    0.1572 H   0  0  0  0  0  0  0  0  0  0  0  0
    2.0554    0.2220    2.0542 H   0  0  0  0  0  0  0  0  0  0  0  0
    3.1083   -1.8123    2.9755 H   0  0  0  0  0  0  0  0  0  0  0  0
    5.3798    0.6980   -0.6687 H   0  0  0  0  0  0  0  0  0  0  0  0
    8.0248   -2.9133    0.2028 H   0  0  0  0  0  0  0  0  0  0  0  0
    6.3628   -3.4237   -0.1550 H   0  0  0  0  0  0  0  0  0  0  0  0
    7.0399   -3.9911    2.2159 H   0  0  0  0  0  0  0  0  0  0  0  0
    7.3253   -2.2707    2.5483 H   0  0  0  0  0  0  0  0  0  0  0  0
   -1.7244    0.4092    1.5165 H   0  0  0  0  0  0  0  0  0  0  0  0
   -2.2948    2.0288    1.1627 H   0  0  0  0  0  0  0  0  0  0  0  0
   -3.7552    1.1082   -0.6677 H   0  0  0  0  0  0  0  0  0  0  0  0
   -4.1063    0.3668    0.8966 H   0  0  0  0  0  0  0  0  0  0  0  0
  1  2  1  0
  2  3  1  0
  2  4  1  0
  4  5  2  0
  4  6  1  0
  6  7  1  0
  7  8  1  0
  8  9  1  0
  9 10  1  0
 10 11  2  0
 11 12  1  0
 12 13  2  0
 13 14  1  0
 14 15  2  0
 15 16  1  0
 16 17  1  0
 17 18  2  0
 17 19  1  0
 19 20  2  0
 20 21  1  0
 21 22  2  0
 22 23  1  0
 23 24  2  0
 23 25  1  0
 25 26  1  0
 26 27  1  0
 27 28  1  0
  9 29  1  0
 29 30  1  0
 30  6  1  0
 15 10  1  0
 24 19  1  0
 28 22  1  0
  1 31  1  0
  1 32  1  0
  1 33  1  0
  2 34  1  0
  3 35  1  0
  3 36  1  0
  3 37  1  0
  7 38  1  0
  7 39  1  0
  8 40  1  0
  8 41  1  0
 11 42  1  0
 12 43  1  0
 13 44  1  0
 14 45  1  0
 16 46  1  0
 20 47  1  0
 21 48  1  0
 24 49  1  0
 26 50  1  0
 26 51  1  0
 27 52  1  0
 27 53  1  0
 29 54  1  0
 29 55  1  0
 30 56  1  0
 30 57  1  0
M  END
$$$$
