
     RDKit          3D

 47 48  0  0  0  0  0  0  0  0999 V2000
    5.0189    3.3882    2.0370 C   0  0  0  0  0  0  0  0  0  0  0  0
    4.4840    1.9740    1.9204 C   0  0  0  0  0  0  0  0  0  0  0  0
    3.0588    2.0241    2.0617 O   0  0  0  0  0  0  0  0  0  0  0  0
    2.4434    0.8224    1.9182 C   0  0  0  0  0  0  0  0  0  0  0  0
    2.9899   -0.2433    1.6836 O   0  0  0  0  0  0  0  0  0  0  0  0
    0.9903    0.9997    2.0860 C   0  0  0  0  0  0  0  0  0  0  0  0
    0.5610    1.5009    3.3461 C   0  0  0  0  0  0  0  0  0  0  0  0
    0.1884    1.9056    4.3681 N   0  0  0  0  0  0  0  0  0  0  0  0
    0.0814    0.6754    1.1465 C   0  0  0  0  0  0  0  0  0  0  0  0
    0.2375    0.1928   -0.2313 C   0  0  0  0  0  0  0  0  0  0  0  0
   -0.7592   -0.5036   -0.8465 C   0  0  0  0  0  0  0  0  0  0  0  0
   -1.9019   -0.9049   -0.1128 N   0  0  0  0  0  0  0  0  0  0  0  0
   -3.2824   -0.7001   -0.6001 C   0  0  0  0  0  0  0  0  0  0  0  0
   -4.2630   -0.6805    0.5837 C   0  0  0  0  0  0  0  0  0  0  0  0
   -4.1770   -1.8857    1.3596 O   0  0  0  0  0  0  0  0  0  0  0  0
   -2.8472   -2.0428    1.8796 C   0  0  0  0  0  0  0  0  0  0  0  0
   -1.8095   -2.1150    0.7507 C   0  0  0  0  0  0  0  0  0  0  0  0
   -0.6119   -0.9438   -2.3403 C   0  0  0  0  0  0  0  0  0  0  0  0
   -1.5763   -0.2022   -3.2822 C   0  0  0  0  0  0  0  0  0  0  0  0
   -0.8111   -2.4585   -2.5032 C   0  0  0  0  0  0  0  0  0  0  0  0
    0.7265   -0.7223   -2.8458 O   0  0  0  0  0  0  0  0  0  0  0  0
    1.2625    0.5439   -2.4922 C   0  0  0  0  0  0  0  0  0  0  0  0
    1.4828    0.5825   -0.9913 C   0  0  0  0  0  0  0  0  0  0  0  0
    4.5786    4.0319    1.2683 H   0  0  0  0  0  0  0  0  0  0  0  0
    4.7520    3.8220    3.0066 H   0  0  0  0  0  0  0  0  0  0  0  0
    6.1076    3.4047    1.9310 H   0  0  0  0  0  0  0  0  0  0  0  0
    4.9091    1.3502    2.7150 H   0  0  0  0  0  0  0  0  0  0  0  0
    4.7475    1.5582    0.9412 H   0  0  0  0  0  0  0  0  0  0  0  0
   -0.9678    0.7942    1.4307 H   0  0  0  0  0  0  0  0  0  0  0  0
   -3.5543   -1.5136   -1.2815 H   0  0  0  0  0  0  0  0  0  0  0  0
   -3.3617    0.2542   -1.1316 H   0  0  0  0  0  0  0  0  0  0  0  0
   -5.2897   -0.5970    0.2136 H   0  0  0  0  0  0  0  0  0  0  0  0
   -4.0723    0.1788    1.2380 H   0  0  0  0  0  0  0  0  0  0  0  0
   -2.6308   -1.2117    2.5615 H   0  0  0  0  0  0  0  0  0  0  0  0
   -2.8269   -2.9686    2.4631 H   0  0  0  0  0  0  0  0  0  0  0  0
   -0.8087   -2.2113    1.1855 H   0  0  0  0  0  0  0  0  0  0  0  0
   -1.9998   -3.0028    0.1367 H   0  0  0  0  0  0  0  0  0  0  0  0
   -2.5998   -0.5814   -3.2176 H   0  0  0  0  0  0  0  0  0  0  0  0
   -1.2543   -0.3027   -4.3257 H   0  0  0  0  0  0  0  0  0  0  0  0
   -1.6038    0.8713   -3.0647 H   0  0  0  0  0  0  0  0  0  0  0  0
   -0.1238   -3.0137   -1.8536 H   0  0  0  0  0  0  0  0  0  0  0  0
   -0.5833   -2.7724   -3.5291 H   0  0  0  0  0  0  0  0  0  0  0  0
   -1.8329   -2.7761   -2.2775 H   0  0  0  0  0  0  0  0  0  0  0  0
    0.6122    1.3561   -2.8345 H   0  0  0  0  0  0  0  0  0  0  0  0
    2.2210    0.6590   -3.0092 H   0  0  0  0  0  0  0  0  0  0  0  0
    2.2797   -0.1264   -0.7403 H   0  0  0  0  0  0  0  0  0  0  0  0
    1.8163    1.5906   -0.7213 H   0  0  0  0  0  0  0  0  0  0  0  0
  1  2  1  0
  2  3  1  0
  3  4  1  0
  4  5  2  0
  4  6  1  0
  6  7  1  0
  7  8  3  0
  6  9  2  3
  9 10  1  0
 10 11  2  0
 11 12  1  0
 12 13  1  0
 13 14  1  0
 14 15  1  0
 15 16  1  0
 16 17  1  0
 11 18  1  0
 18 19  1  0
 18 20  1  0
 18 21  1  0
 21 22  1  0
 22 23  1  0
 23 10  1  0
 17 12  1  0
  1 24  1  0
  1 25  1  0
  1 26  1  0
  2 27  1  0
  2 28  1  0
  9 29  1  0
 13 30  1  0
 13 31  1  0
 14 32  1  0
 14 33  1  0
 16 34  1  0
 16 35  1  0
 17 36  1  0
 17 37  1  0
 19 38  1  0
 19 39  1  0
 19 40  1  0
 20 41  1  0
 20 42  1  0
 20 43  1  0
 22 44  1  0
 22 45  1  0
 23 46  1  0
 23 47  1  0
M  END
$$$$
