
     RDKit          3D

 71 75  0  0  0  0  0  0  0  0999 V2000
   -6.7960   -4.0077    3.6150 C   0  0  0  0  0  0  0  0  0  0  0  0
   -5.7775   -2.9606    3.2750 C   0  0  0  0  0  0  0  0  0  0  0  0
   -4.4752   -3.0501    3.7646 C   0  0  0  0  0  0  0  0  0  0  0  0
   -3.5234   -2.0938    3.4097 C   0  0  0  0  0  0  0  0  0  0  0  0
   -3.8469   -1.0222    2.5599 C   0  0  0  0  0  0  0  0  0  0  0  0
   -2.7457   -0.0620    2.1969 C   0  0  0  0  0  0  0  0  0  0  0  0
   -5.1557   -0.9311    2.0412 C   0  0  0  0  0  0  0  0  0  0  0  0
   -5.6001    0.1579    1.0887 C   0  0  0  0  0  0  0  0  0  0  0  0
   -5.4733   -0.2460   -0.2972 N   0  0  0  0  0  0  0  0  0  0  0  0
   -6.4488   -0.9669   -0.9098 N   0  0  0  0  0  0  0  0  0  0  0  0
   -6.0718   -1.1722   -2.1724 N   0  0  0  0  0  0  0  0  0  0  0  0
   -4.8785   -0.5428   -2.3443 C   0  0  0  0  0  0  0  0  0  0  0  0
   -4.0241   -0.4367   -3.4950 C   0  0  0  0  0  0  0  0  0  0  0  0
   -4.2387   -0.9198   -4.6013 O   0  0  0  0  0  0  0  0  0  0  0  0
   -2.8778    0.3049   -3.2295 N   0  0  0  0  0  0  0  0  0  0  0  0
   -2.6049    0.9150   -2.0075 C   0  0  0  0  0  0  0  0  0  0  0  0
   -1.2827    1.6684   -1.9504 C   0  0  0  0  0  0  0  0  0  0  0  0
   -0.1233    0.6653   -1.8904 C   0  0  0  0  0  0  0  0  0  0  0  0
    1.2258    1.3558   -1.7207 C   0  0  0  0  0  0  0  0  0  0  0  0
    1.2275    2.3146   -0.5918 N   0  0  0  0  0  0  0  0  0  0  0  0
    1.5666    1.7146    0.9686 S   0  0  0  0  0  6  0  0  0  0  0  0
    1.5864    2.8249    1.8949 O   0  0  0  0  0  0  0  0  0  0  0  0
    0.7205    0.5621    1.1916 O   0  0  0  0  0  0  0  0  0  0  0  0
    3.2451    1.1517    0.8034 C   0  0  0  0  0  0  0  0  0  0  0  0
    3.5638   -0.1899    1.0426 C   0  0  0  0  0  0  0  0  0  0  0  0
    4.8824   -0.6205    0.8861 C   0  0  0  0  0  0  0  0  0  0  0  0
    5.8619    0.2957    0.4851 C   0  0  0  0  0  0  0  0  0  0  0  0
    7.5458   -0.2325    0.2663 S   0  0  0  0  0  6  0  0  0  0  0  0
    7.6304   -1.6426    0.5818 O   0  0  0  0  0  0  0  0  0  0  0  0
    8.3858    0.7418    0.9292 O   0  0  0  0  0  0  0  0  0  0  0  0
    7.7628   -0.0711   -1.4257 N   0  0  0  0  0  0  0  0  0  0  0  0
    6.9737   -1.0136   -2.2506 C   0  0  0  0  0  0  0  0  0  0  0  0
    9.1894   -0.0677   -1.8260 C   0  0  0  0  0  0  0  0  0  0  0  0
    5.5460    1.6421    0.2655 C   0  0  0  0  0  0  0  0  0  0  0  0
    4.2297    2.0729    0.4260 C   0  0  0  0  0  0  0  0  0  0  0  0
    0.1370    3.3143   -0.6809 C   0  0  0  0  0  0  0  0  0  0  0  0
   -1.2197    2.6326   -0.7593 C   0  0  0  0  0  0  0  0  0  0  0  0
   -3.3836    0.8334   -0.9657 N   0  0  0  0  0  0  0  0  0  0  0  0
   -4.4894    0.0828   -1.1850 C   0  0  0  0  0  0  0  0  0  0  0  0
   -6.1019   -1.9127    2.4058 C   0  0  0  0  0  0  0  0  0  0  0  0
   -6.8019   -4.7875    2.8472 H   0  0  0  0  0  0  0  0  0  0  0  0
   -6.5752   -4.4683    4.5834 H   0  0  0  0  0  0  0  0  0  0  0  0
   -7.7972   -3.5687    3.6840 H   0  0  0  0  0  0  0  0  0  0  0  0
   -4.1884   -3.8682    4.4209 H   0  0  0  0  0  0  0  0  0  0  0  0
   -2.5114   -2.1944    3.7993 H   0  0  0  0  0  0  0  0  0  0  0  0
   -2.2996   -0.3497    1.2410 H   0  0  0  0  0  0  0  0  0  0  0  0
   -3.1068    0.9682    2.1435 H   0  0  0  0  0  0  0  0  0  0  0  0
   -1.9546   -0.0686    2.9548 H   0  0  0  0  0  0  0  0  0  0  0  0
   -5.0444    1.0889    1.2321 H   0  0  0  0  0  0  0  0  0  0  0  0
   -6.6541    0.4108    1.2618 H   0  0  0  0  0  0  0  0  0  0  0  0
   -2.2556    0.4067   -4.0169 H   0  0  0  0  0  0  0  0  0  0  0  0
   -1.1934    2.2495   -2.8785 H   0  0  0  0  0  0  0  0  0  0  0  0
   -0.0984    0.0644   -2.8066 H   0  0  0  0  0  0  0  0  0  0  0  0
   -0.2910   -0.0456   -1.0740 H   0  0  0  0  0  0  0  0  0  0  0  0
    2.0174    0.6096   -1.6021 H   0  0  0  0  0  0  0  0  0  0  0  0
    1.4742    1.9120   -2.6335 H   0  0  0  0  0  0  0  0  0  0  0  0
    2.7986   -0.8980    1.3547 H   0  0  0  0  0  0  0  0  0  0  0  0
    5.1376   -1.6613    1.0786 H   0  0  0  0  0  0  0  0  0  0  0  0
    5.9188   -1.0068   -1.9637 H   0  0  0  0  0  0  0  0  0  0  0  0
    7.0155   -0.7030   -3.3009 H   0  0  0  0  0  0  0  0  0  0  0  0
    7.3655   -2.0323   -2.1701 H   0  0  0  0  0  0  0  0  0  0  0  0
    9.6702   -1.0176   -1.5735 H   0  0  0  0  0  0  0  0  0  0  0  0
    9.2722    0.0875   -2.9070 H   0  0  0  0  0  0  0  0  0  0  0  0
    9.7214    0.7567   -1.3421 H   0  0  0  0  0  0  0  0  0  0  0  0
    6.3209    2.3494   -0.0263 H   0  0  0  0  0  0  0  0  0  0  0  0
    3.9726    3.1174    0.2612 H   0  0  0  0  0  0  0  0  0  0  0  0
    0.3067    3.9269   -1.5749 H   0  0  0  0  0  0  0  0  0  0  0  0
    0.1702    4.0065    0.1660 H   0  0  0  0  0  0  0  0  0  0  0  0
   -2.0055    3.3921   -0.8553 H   0  0  0  0  0  0  0  0  0  0  0  0
   -1.4151    2.0995    0.1795 H   0  0  0  0  0  0  0  0  0  0  0  0
   -7.1106   -1.8640    1.9932 H   0  0  0  0  0  0  0  0  0  0  0  0
  1  2  1  0
  2  3  2  0
  3  4  1  0
  4  5  2  0
  5  6  1  0
  5  7  1  0
  7  8  1  0
  8  9  1  0
  9 10  1  0
 10 11  2  0
 11 12  1  0
 12 13  1  0
 13 14  2  0
 13 15  1  0
 15 16  1  0
 16 17  1  0
 17 18  1  0
 18 19  1  0
 19 20  1  0
 20 21  1  0
 21 22  2  0
 21 23  2  0
 21 24  1  0
 24 25  2  0
 25 26  1  0
 26 27  2  0
 27 28  1  0
 28 29  2  0
 28 30  2  0
 28 31  1  0
 31 32  1  0
 31 33  1  0
 27 34  1  0
 34 35  2  0
 20 36  1  0
 36 37  1  0
 16 38  2  0
 38 39  1  0
  7 40  2  0
 40  2  1  0
 39  9  1  0
 39 12  2  0
 37 17  1  0
 35 24  1  0
  1 41  1  0
  1 42  1  0
  1 43  1  0
  3 44  1  0
  4 45  1  0
  6 46  1  0
  6 47  1  0
  6 48  1  0
  8 49  1  0
  8 50  1  0
 15 51  1  0
 17 52  1  0
 18 53  1  0
 18 54  1  0
 19 55  1  0
 19 56  1  0
 25 57  1  0
 26 58  1  0
 32 59  1  0
 32 60  1  0
 32 61  1  0
 33 62  1  0
 33 63  1  0
 33 64  1  0
 34 65  1  0
 35 66  1  0
 36 67  1  0
 36 68  1  0
 37 69  1  0
 37 70  1  0
 40 71  1  0
M  END
$$$$
