
     RDKit          3D

 33 34  0  0  0  0  0  0  0  0999 V2000
   -2.2844    1.7382   -1.7450 C   0  0  0  0  0  0  0  0  0  0  0  0
   -2.6699    0.6516   -0.7510 C   0  0  0  0  0  0  0  0  0  0  0  0
   -1.5515    0.3237    0.1418 N   0  0  0  0  0  0  0  0  0  0  0  0
   -1.9099   -0.0067    1.5327 C   0  0  0  0  0  0  0  0  0  0  0  0
   -2.1360    1.2602    2.3468 C   0  0  0  0  0  0  0  0  0  0  0  0
   -0.3779   -0.3052   -0.3410 C   0  0  0  0  0  0  0  0  0  0  0  0
   -0.4383   -1.1133   -1.4953 C   0  0  0  0  0  0  0  0  0  0  0  0
    0.6888   -1.7473   -1.9973 C   0  0  0  0  0  0  0  0  0  0  0  0
    1.9021   -1.5725   -1.3374 C   0  0  0  0  0  0  0  0  0  0  0  0
    3.0469   -2.2688   -1.8951 N   0  0  0  0  0  4  0  0  0  0  0  0
    3.5944   -3.1235   -1.1862 O   0  0  0  0  0  0  0  0  0  0  0  0
    3.3763   -1.9722   -3.0512 O   0  0  0  0  0  1  0  0  0  0  0  0
    2.0388   -0.7629   -0.1860 C   0  0  0  0  0  0  0  0  0  0  0  0
    3.2670   -0.5353    0.4875 C   0  0  0  0  0  0  0  0  0  0  0  0
    3.3295    0.2847    1.6035 C   0  0  0  0  0  0  0  0  0  0  0  0
    2.1603    0.8659    2.0248 C   0  0  0  0  0  0  0  0  0  0  0  0
    0.9743    0.6760    1.4129 N   0  0  0  0  0  0  0  0  0  0  0  0
    0.8804   -0.1216    0.3200 C   0  0  0  0  0  0  0  0  0  0  0  0
   -1.4997    1.4064   -2.4314 H   0  0  0  0  0  0  0  0  0  0  0  0
   -1.9194    2.6304   -1.2251 H   0  0  0  0  0  0  0  0  0  0  0  0
   -3.1536    2.0254   -2.3452 H   0  0  0  0  0  0  0  0  0  0  0  0
   -3.5104    1.0384   -0.1618 H   0  0  0  0  0  0  0  0  0  0  0  0
   -3.0587   -0.2363   -1.2607 H   0  0  0  0  0  0  0  0  0  0  0  0
   -2.8284   -0.6076    1.5360 H   0  0  0  0  0  0  0  0  0  0  0  0
   -1.1565   -0.6271    2.0326 H   0  0  0  0  0  0  0  0  0  0  0  0
   -2.3732    1.0042    3.3842 H   0  0  0  0  0  0  0  0  0  0  0  0
   -2.9680    1.8496    1.9489 H   0  0  0  0  0  0  0  0  0  0  0  0
   -1.2492    1.9009    2.3476 H   0  0  0  0  0  0  0  0  0  0  0  0
   -1.3777   -1.2787   -2.0133 H   0  0  0  0  0  0  0  0  0  0  0  0
    0.6115   -2.3694   -2.8861 H   0  0  0  0  0  0  0  0  0  0  0  0
    4.1944   -0.9933    0.1484 H   0  0  0  0  0  0  0  0  0  0  0  0
    4.2637    0.4633    2.1228 H   0  0  0  0  0  0  0  0  0  0  0  0
    2.1344    1.5226    2.8893 H   0  0  0  0  0  0  0  0  0  0  0  0
  1  2  1  0
  2  3  1  0
  3  4  1  0
  4  5  1  0
  3  6  1  0
  6  7  2  0
  7  8  1  0
  8  9  2  0
  9 10  1  0
 10 11  2  0
 10 12  1  0
  9 13  1  0
 13 14  2  0
 14 15  1  0
 15 16  2  0
 16 17  1  0
 17 18  2  0
 18  6  1  0
 18 13  1  0
  1 19  1  0
  1 20  1  0
  1 21  1  0
  2 22  1  0
  2 23  1  0
  4 24  1  0
  4 25  1  0
  5 26  1  0
  5 27  1  0
  5 28  1  0
  7 29  1  0
  8 30  1  0
 14 31  1  0
 15 32  1  0
 16 33  1  0
M  CHG  2  10   1  12  -1
M  END
$$$$
