
     RDKit          3D

 64 69  0  0  0  0  0  0  0  0999 V2000
    5.3404   -1.1746   -2.9040 F   0  0  0  0  0  0  0  0  0  0  0  0
    6.2283   -0.1503   -2.7572 C   0  0  0  0  0  0  0  0  0  0  0  0
    5.7225    0.8935   -3.4745 F   0  0  0  0  0  0  0  0  0  0  0  0
    7.3510   -0.5408   -3.4306 F   0  0  0  0  0  0  0  0  0  0  0  0
    6.4827    0.1980   -1.3043 C   0  0  0  0  0  0  0  0  0  0  0  0
    7.7515   -0.0775   -0.7560 C   0  0  0  0  0  0  0  0  0  0  0  0
    8.0397    0.2217    0.5732 C   0  0  0  0  0  0  0  0  0  0  0  0
    7.0649    0.7997    1.3747 C   0  0  0  0  0  0  0  0  0  0  0  0
    5.8003    1.0764    0.8520 C   0  0  0  0  0  0  0  0  0  0  0  0
    5.4794    0.7755   -0.4830 C   0  0  0  0  0  0  0  0  0  0  0  0
    4.1121    1.1039   -1.0654 C   0  0  0  0  0  0  0  0  0  0  0  0
    2.9498    1.4529   -0.1061 C   0  0  0  0  0  0  0  0  0  0  0  0
    2.5892    0.3935    0.8512 N   0  0  0  0  0  0  0  0  0  0  0  0
    2.1593   -0.8519    0.1665 C   0  0  0  0  0  0  0  0  0  0  0  0
    1.0626   -1.6245    0.9251 C   0  0  0  0  0  0  0  0  0  0  0  0
   -0.1647   -0.8033    1.0226 N   0  0  0  0  0  0  0  0  0  0  0  0
   -1.1829   -1.0240    0.0910 C   0  0  0  0  0  0  0  0  0  0  0  0
   -0.8987   -1.6523   -1.0225 N   0  0  0  0  0  0  0  0  0  0  0  0
   -1.8826   -1.8511   -2.0096 C   0  0  0  0  0  0  0  0  0  0  0  0
   -1.5197   -2.5165   -3.1821 C   0  0  0  0  0  0  0  0  0  0  0  0
   -2.4532   -2.7283   -4.2002 C   0  0  0  0  0  0  0  0  0  0  0  0
   -3.7643   -2.2739   -4.0538 C   0  0  0  0  0  0  0  0  0  0  0  0
   -4.1488   -1.6063   -2.8904 C   0  0  0  0  0  0  0  0  0  0  0  0
   -3.2035   -1.4007   -1.8810 C   0  0  0  0  0  0  0  0  0  0  0  0
   -3.5061   -0.7484   -0.6747 N   0  0  0  0  0  0  0  0  0  0  0  0
   -4.6989   -0.2162   -0.2460 C   0  0  0  0  0  0  0  0  0  0  0  0
   -4.5299    0.2647    1.0392 C   0  0  0  0  0  0  0  0  0  0  0  0
   -5.5951    0.8617    1.8326 C   0  0  0  0  0  0  0  0  0  0  0  0
   -6.5878    1.6514    1.2358 C   0  0  0  0  0  0  0  0  0  0  0  0
   -7.6026    2.2224    2.0089 C   0  0  0  0  0  0  0  0  0  0  0  0
   -7.6340    2.0108    3.3859 C   0  0  0  0  0  0  0  0  0  0  0  0
   -6.6511    1.2309    3.9914 C   0  0  0  0  0  0  0  0  0  0  0  0
   -5.6361    0.6605    3.2192 C   0  0  0  0  0  0  0  0  0  0  0  0
   -3.1747    0.0112    1.3872 C   0  0  0  0  0  0  0  0  0  0  0  0
   -2.5504   -0.5734    0.3000 C   0  0  0  0  0  0  0  0  0  0  0  0
    0.1010    0.6028    1.4076 C   0  0  0  0  0  0  0  0  0  0  0  0
    1.5696    0.8486    1.8202 C   0  0  0  0  0  0  0  0  0  0  0  0
    8.5284   -0.5290   -1.3712 H   0  0  0  0  0  0  0  0  0  0  0  0
    9.0221    0.0050    0.9833 H   0  0  0  0  0  0  0  0  0  0  0  0
    7.2861    1.0362    2.4132 H   0  0  0  0  0  0  0  0  0  0  0  0
    5.0668    1.5241    1.5177 H   0  0  0  0  0  0  0  0  0  0  0  0
    4.2494    1.9696   -1.7276 H   0  0  0  0  0  0  0  0  0  0  0  0
    3.7887    0.2709   -1.7003 H   0  0  0  0  0  0  0  0  0  0  0  0
    2.0735    1.7235   -0.7106 H   0  0  0  0  0  0  0  0  0  0  0  0
    3.2295    2.3604    0.4446 H   0  0  0  0  0  0  0  0  0  0  0  0
    1.7758   -0.6281   -0.8371 H   0  0  0  0  0  0  0  0  0  0  0  0
    3.0352   -1.4988    0.0451 H   0  0  0  0  0  0  0  0  0  0  0  0
    0.8676   -2.5862    0.4364 H   0  0  0  0  0  0  0  0  0  0  0  0
    1.4047   -1.8753    1.9369 H   0  0  0  0  0  0  0  0  0  0  0  0
   -0.4988   -2.8701   -3.2998 H   0  0  0  0  0  0  0  0  0  0  0  0
   -2.1549   -3.2479   -5.1071 H   0  0  0  0  0  0  0  0  0  0  0  0
   -4.4871   -2.4423   -4.8488 H   0  0  0  0  0  0  0  0  0  0  0  0
   -5.1746   -1.2659   -2.7983 H   0  0  0  0  0  0  0  0  0  0  0  0
   -5.5812   -0.2441   -0.8684 H   0  0  0  0  0  0  0  0  0  0  0  0
   -6.5744    1.8407    0.1651 H   0  0  0  0  0  0  0  0  0  0  0  0
   -8.3665    2.8333    1.5347 H   0  0  0  0  0  0  0  0  0  0  0  0
   -8.4234    2.4523    3.9881 H   0  0  0  0  0  0  0  0  0  0  0  0
   -6.6753    1.0623    5.0649 H   0  0  0  0  0  0  0  0  0  0  0  0
   -4.8870    0.0451    3.7113 H   0  0  0  0  0  0  0  0  0  0  0  0
   -2.7052    0.2370    2.3343 H   0  0  0  0  0  0  0  0  0  0  0  0
   -0.1423    1.2679    0.5696 H   0  0  0  0  0  0  0  0  0  0  0  0
   -0.5417    0.8755    2.2498 H   0  0  0  0  0  0  0  0  0  0  0  0
    1.7091    1.9072    2.0716 H   0  0  0  0  0  0  0  0  0  0  0  0
    1.7563    0.3108    2.7592 H   0  0  0  0  0  0  0  0  0  0  0  0
  1  2  1  0
  2  3  1  0
  2  4  1  0
  2  5  1  0
  5  6  2  0
  6  7  1  0
  7  8  2  0
  8  9  1  0
  9 10  2  0
 10 11  1  0
 11 12  1  0
 12 13  1  0
 13 14  1  0
 14 15  1  0
 15 16  1  0
 16 17  1  0
 17 18  2  0
 18 19  1  0
 19 20  2  0
 20 21  1  0
 21 22  2  0
 22 23  1  0
 23 24  2  0
 24 25  1  0
 25 26  1  0
 26 27  2  0
 27 28  1  0
 28 29  2  0
 29 30  1  0
 30 31  2  0
 31 32  1  0
 32 33  2  0
 27 34  1  0
 34 35  2  0
 16 36  1  0
 36 37  1  0
 10  5  1  0
 37 13  1  0
 35 17  1  0
 24 19  1  0
 35 25  1  0
 33 28  1  0
  6 38  1  0
  7 39  1  0
  8 40  1  0
  9 41  1  0
 11 42  1  0
 11 43  1  0
 12 44  1  0
 12 45  1  0
 14 46  1  0
 14 47  1  0
 15 48  1  0
 15 49  1  0
 20 50  1  0
 21 51  1  0
 22 52  1  0
 23 53  1  0
 26 54  1  0
 29 55  1  0
 30 56  1  0
 31 57  1  0
 32 58  1  0
 33 59  1  0
 34 60  1  0
 36 61  1  0
 36 62  1  0
 37 63  1  0
 37 64  1  0
M  END
$$$$
