
     RDKit          3D

 37 40  0  0  0  0  0  0  0  0999 V2000
   -1.7180    2.4801    1.1627 C   0  0  0  0  0  0  0  0  0  0  0  0
   -2.7859    1.5446    0.6245 C   0  0  0  0  0  0  0  0  0  0  0  0
   -2.4559    1.2400   -0.7328 O   0  0  0  0  0  0  0  0  0  0  0  0
   -3.0754    0.1279   -1.2499 C   0  0  0  0  0  0  0  0  0  0  0  0
   -4.3733   -0.2609   -0.9033 C   0  0  0  0  0  0  0  0  0  0  0  0
   -4.9515   -1.3872   -1.4934 C   0  0  0  0  0  0  0  0  0  0  0  0
   -4.2433   -2.1234   -2.4404 C   0  0  0  0  0  0  0  0  0  0  0  0
   -2.9542   -1.7337   -2.8040 C   0  0  0  0  0  0  0  0  0  0  0  0
   -2.3610   -0.6104   -2.2122 C   0  0  0  0  0  0  0  0  0  0  0  0
   -1.0099   -0.2279   -2.6429 C   0  0  0  0  0  0  0  0  0  0  0  0
    0.0890   -0.2497   -1.8746 C   0  0  0  0  0  0  0  0  0  0  0  0
    1.6446    0.3200   -2.4846 S   0  0  0  0  0  0  0  0  0  0  0  0
    2.3426    0.0423   -0.9460 C   0  0  0  0  0  0  0  0  0  0  0  0
    3.5252    0.2010   -0.4262 N   0  0  0  0  0  0  0  0  0  0  0  0
    3.3195   -0.2623    0.8665 C   0  0  0  0  0  0  0  0  0  0  0  0
    4.4652   -0.2822    1.9305 C   0  0  0  0  0  0  0  0  0  0  0  0
    5.7627    0.1421    1.7155 C   0  0  0  0  0  0  0  0  0  0  0  0
    6.4614   -0.0488    2.9323 C   0  0  0  0  0  0  0  0  0  0  0  0
    5.5497   -0.5770    3.8149 C   0  0  0  0  0  0  0  0  0  0  0  0
    4.3388   -0.7221    3.2191 O   0  0  0  0  0  0  0  0  0  0  0  0
    2.0688   -0.6904    1.1317 N   0  0  0  0  0  0  0  0  0  0  0  0
    1.4750   -0.4748   -0.0547 N   0  0  0  0  0  0  0  0  0  0  0  0
    0.1748   -0.7141   -0.4479 C   0  0  0  0  0  0  0  0  0  0  0  0
   -0.6565   -1.2223    0.2802 O   0  0  0  0  0  0  0  0  0  0  0  0
   -0.7315    2.0071    1.1154 H   0  0  0  0  0  0  0  0  0  0  0  0
   -1.9278    2.7557    2.1999 H   0  0  0  0  0  0  0  0  0  0  0  0
   -1.6634    3.3916    0.5583 H   0  0  0  0  0  0  0  0  0  0  0  0
   -3.7579    2.0482    0.6645 H   0  0  0  0  0  0  0  0  0  0  0  0
   -2.8095    0.6370    1.2399 H   0  0  0  0  0  0  0  0  0  0  0  0
   -4.9602    0.3040   -0.1867 H   0  0  0  0  0  0  0  0  0  0  0  0
   -5.9590   -1.6869   -1.2157 H   0  0  0  0  0  0  0  0  0  0  0  0
   -4.6963   -2.9993   -2.8978 H   0  0  0  0  0  0  0  0  0  0  0  0
   -2.4163   -2.3166   -3.5480 H   0  0  0  0  0  0  0  0  0  0  0  0
   -0.9583    0.1226   -3.6715 H   0  0  0  0  0  0  0  0  0  0  0  0
    6.1489    0.5401    0.7870 H   0  0  0  0  0  0  0  0  0  0  0  0
    7.4991    0.1706    3.1405 H   0  0  0  0  0  0  0  0  0  0  0  0
    5.6000   -0.8887    4.8490 H   0  0  0  0  0  0  0  0  0  0  0  0
  1  2  1  0
  2  3  1  0
  3  4  1  0
  4  5  2  0
  5  6  1  0
  6  7  2  0
  7  8  1  0
  8  9  2  0
  9 10  1  0
 10 11  2  3
 11 12  1  0
 12 13  1  0
 13 14  2  0
 14 15  1  0
 15 16  1  0
 16 17  2  0
 17 18  1  0
 18 19  2  0
 19 20  1  0
 15 21  2  0
 21 22  1  0
 22 23  1  0
 23 24  2  0
  9  4  1  0
 23 11  1  0
 22 13  1  0
 20 16  1  0
  1 25  1  0
  1 26  1  0
  1 27  1  0
  2 28  1  0
  2 29  1  0
  5 30  1  0
  6 31  1  0
  7 32  1  0
  8 33  1  0
 10 34  1  0
 17 35  1  0
 18 36  1  0
 19 37  1  0
M  END
$$$$
