
     RDKit          3D

 42 44  0  0  0  0  0  0  0  0999 V2000
   -6.9514    1.6168   -0.6100 C   0  0  0  0  0  0  0  0  0  0  0  0
   -5.9944    0.6462   -1.0197 O   0  0  0  0  0  0  0  0  0  0  0  0
   -4.8036    0.6302   -0.3458 C   0  0  0  0  0  0  0  0  0  0  0  0
   -4.4513    1.4643    0.7093 C   0  0  0  0  0  0  0  0  0  0  0  0
   -3.1957    1.3344    1.3006 C   0  0  0  0  0  0  0  0  0  0  0  0
   -2.9437    2.1791    2.3534 O   0  0  0  0  0  0  0  0  0  0  0  0
   -2.2612    0.3922    0.8346 C   0  0  0  0  0  0  0  0  0  0  0  0
   -0.9291    0.3621    1.4944 C   0  0  0  0  0  0  0  0  0  0  0  0
   -0.8558    0.6431    2.6907 O   0  0  0  0  0  0  0  0  0  0  0  0
    0.2836    0.1093    0.6732 C   0  0  0  0  0  0  0  0  0  0  0  0
    1.4746   -0.0490    1.2712 C   0  0  0  0  0  0  0  0  0  0  0  0
    2.7254   -0.2915    0.5634 C   0  0  0  0  0  0  0  0  0  0  0  0
    3.8888    0.0086    1.1944 C   0  0  0  0  0  0  0  0  0  0  0  0
    5.1740   -0.3579    0.5264 C   0  0  2  0  0  0  0  0  0  0  0  0
    6.3309    0.4108    0.8244 O   0  0  0  0  0  0  0  0  0  0  0  0
    7.1700    0.1150   -0.3204 C   0  0  0  0  0  0  0  0  0  0  0  0
    6.3797   -0.4704   -1.3862 O   0  0  0  0  0  0  0  0  0  0  0  0
    5.0642   -0.1349   -0.9712 C   0  0  1  0  0  0  0  0  0  0  0  0
    3.9280   -0.9425   -1.5000 C   0  0  0  0  0  0  0  0  0  0  0  0
    2.8122   -0.9925   -0.7419 C   0  0  0  0  0  0  0  0  0  0  0  0
   -2.6313   -0.4835   -0.2024 C   0  0  0  0  0  0  0  0  0  0  0  0
   -1.7322   -1.4517   -0.5673 O   0  0  0  0  0  0  0  0  0  0  0  0
   -2.1629   -2.4484   -1.4878 C   0  0  0  0  0  0  0  0  0  0  0  0
   -3.8972   -0.3413   -0.7898 C   0  0  0  0  0  0  0  0  0  0  0  0
   -7.2641    1.4489    0.4259 H   0  0  0  0  0  0  0  0  0  0  0  0
   -7.8342    1.5044   -1.2466 H   0  0  0  0  0  0  0  0  0  0  0  0
   -6.5675    2.6329   -0.7488 H   0  0  0  0  0  0  0  0  0  0  0  0
   -5.1255    2.2180    1.1017 H   0  0  0  0  0  0  0  0  0  0  0  0
   -2.1479    1.8439    2.8264 H   0  0  0  0  0  0  0  0  0  0  0  0
    0.1756    0.0844   -0.4035 H   0  0  0  0  0  0  0  0  0  0  0  0
    1.5370    0.0154    2.3578 H   0  0  0  0  0  0  0  0  0  0  0  0
    3.9283    0.4544    2.1818 H   0  0  0  0  0  0  0  0  0  0  0  0
    5.4160   -1.4007    0.7827 H   0  0  0  0  0  0  0  0  0  0  0  0
    7.9505   -0.5937   -0.0273 H   0  0  0  0  0  0  0  0  0  0  0  0
    7.6281    1.0437   -0.6740 H   0  0  0  0  0  0  0  0  0  0  0  0
    4.9064    0.9216   -1.2353 H   0  0  0  0  0  0  0  0  0  0  0  0
    3.9989   -1.4223   -2.4676 H   0  0  0  0  0  0  0  0  0  0  0  0
    1.9415   -1.5461   -1.0824 H   0  0  0  0  0  0  0  0  0  0  0  0
   -3.0385   -2.9866   -1.1103 H   0  0  0  0  0  0  0  0  0  0  0  0
   -1.3497   -3.1722   -1.5985 H   0  0  0  0  0  0  0  0  0  0  0  0
   -2.3563   -2.0132   -2.4736 H   0  0  0  0  0  0  0  0  0  0  0  0
   -4.2202   -0.9812   -1.6058 H   0  0  0  0  0  0  0  0  0  0  0  0
  1  2  1  0
  2  3  1  0
  3  4  2  0
  4  5  1  0
  5  6  1  0
  5  7  2  0
  7  8  1  0
  8  9  2  0
  8 10  1  0
 10 11  2  0
 11 12  1  0
 12 13  2  0
 13 14  1  0
 14 15  1  0
 15 16  1  0
 16 17  1  0
 17 18  1  0
 18 19  1  0
 19 20  2  0
  7 21  1  0
 21 22  1  0
 22 23  1  0
 21 24  2  0
 24  3  1  0
 20 12  1  0
 18 14  1  0
  1 25  1  0
  1 26  1  0
  1 27  1  0
  4 28  1  0
  6 29  1  0
 10 30  1  0
 11 31  1  0
 13 32  1  0
 14 33  1  6
 16 34  1  0
 16 35  1  0
 18 36  1  1
 19 37  1  0
 20 38  1  0
 23 39  1  0
 23 40  1  0
 23 41  1  0
 24 42  1  0
M  END
$$$$
