
     RDKit          3D

 38 39  0  0  0  0  0  0  0  0999 V2000
   -4.7158    2.9408    1.7633 C   0  0  0  0  0  0  0  0  0  0  0  0
   -3.4801    2.4538    1.5880 C   0  0  0  0  0  0  0  0  0  0  0  0
   -2.8885    1.3319    2.3934 C   0  0  0  0  0  0  0  0  0  0  0  0
   -2.4894    0.1576    1.5311 C   0  0  0  0  0  0  0  0  0  0  0  0
   -3.4414   -0.7928    1.1438 C   0  0  0  0  0  0  0  0  0  0  0  0
   -3.0747   -1.8682    0.3365 C   0  0  0  0  0  0  0  0  0  0  0  0
   -1.7570   -1.9976   -0.0966 C   0  0  0  0  0  0  0  0  0  0  0  0
   -1.4908   -3.0865   -0.8825 O   0  0  0  0  0  0  0  0  0  0  0  0
   -0.7744   -1.0616    0.2660 C   0  0  0  0  0  0  0  0  0  0  0  0
    0.6295   -1.1713   -0.1646 C   0  0  0  0  0  0  0  0  0  0  0  0
    1.1520   -0.2266   -1.0682 C   0  0  0  0  0  0  0  0  0  0  0  0
    2.4803   -0.2968   -1.5203 C   0  0  0  0  0  0  0  0  0  0  0  0
    3.0227    0.7377   -2.4782 C   0  0  0  0  0  0  0  0  0  0  0  0
    3.7588    1.8388   -1.7692 C   0  0  0  0  0  0  0  0  0  0  0  0
    5.0459    2.1454   -1.9791 C   0  0  0  0  0  0  0  0  0  0  0  0
    3.3040   -1.3252   -1.0474 C   0  0  0  0  0  0  0  0  0  0  0  0
    2.8062   -2.2708   -0.1527 C   0  0  0  0  0  0  0  0  0  0  0  0
    1.4852   -2.1915    0.2826 C   0  0  0  0  0  0  0  0  0  0  0  0
    1.0852   -3.1653    1.1577 O   0  0  0  0  0  0  0  0  0  0  0  0
   -1.1657    0.0168    1.0820 C   0  0  0  0  0  0  0  0  0  0  0  0
   -5.0833    3.7553    1.1464 H   0  0  0  0  0  0  0  0  0  0  0  0
   -5.3870    2.5409    2.5169 H   0  0  0  0  0  0  0  0  0  0  0  0
   -2.8469    2.8916    0.8189 H   0  0  0  0  0  0  0  0  0  0  0  0
   -2.0106    1.7095    2.9324 H   0  0  0  0  0  0  0  0  0  0  0  0
   -3.5860    0.9868    3.1674 H   0  0  0  0  0  0  0  0  0  0  0  0
   -4.4761   -0.6969    1.4659 H   0  0  0  0  0  0  0  0  0  0  0  0
   -3.8175   -2.6034    0.0385 H   0  0  0  0  0  0  0  0  0  0  0  0
   -0.5692   -3.0416   -1.1926 H   0  0  0  0  0  0  0  0  0  0  0  0
    0.5089    0.5749   -1.4314 H   0  0  0  0  0  0  0  0  0  0  0  0
    3.6653    0.2402   -3.2159 H   0  0  0  0  0  0  0  0  0  0  0  0
    2.1978    1.1776   -3.0525 H   0  0  0  0  0  0  0  0  0  0  0  0
    3.1918    2.4191   -1.0439 H   0  0  0  0  0  0  0  0  0  0  0  0
    5.5190    2.9557   -1.4325 H   0  0  0  0  0  0  0  0  0  0  0  0
    5.6556    1.5990   -2.6919 H   0  0  0  0  0  0  0  0  0  0  0  0
    4.3406   -1.3916   -1.3708 H   0  0  0  0  0  0  0  0  0  0  0  0
    3.4496   -3.0673    0.2116 H   0  0  0  0  0  0  0  0  0  0  0  0
    0.1788   -2.9754    1.4578 H   0  0  0  0  0  0  0  0  0  0  0  0
   -0.4226    0.7569    1.3785 H   0  0  0  0  0  0  0  0  0  0  0  0
  1  2  2  0
  2  3  1  0
  3  4  1  0
  4  5  2  0
  5  6  1  0
  6  7  2  0
  7  8  1  0
  7  9  1  0
  9 10  1  0
 10 11  2  0
 11 12  1  0
 12 13  1  0
 13 14  1  0
 14 15  2  0
 12 16  2  0
 16 17  1  0
 17 18  2  0
 18 19  1  0
  9 20  2  0
 20  4  1  0
 18 10  1  0
  1 21  1  0
  1 22  1  0
  2 23  1  0
  3 24  1  0
  3 25  1  0
  5 26  1  0
  6 27  1  0
  8 28  1  0
 11 29  1  0
 13 30  1  0
 13 31  1  0
 14 32  1  0
 15 33  1  0
 15 34  1  0
 16 35  1  0
 17 36  1  0
 19 37  1  0
 20 38  1  0
M  END
$$$$
