
     RDKit          3D

 51 53  0  0  0  0  0  0  0  0999 V2000
    7.9333    2.2092    0.9258 C   0  0  0  0  0  0  0  0  0  0  0  0
    8.7008    1.1706    0.3296 O   0  0  0  0  0  0  0  0  0  0  0  0
    8.0085    0.1227   -0.2152 C   0  0  0  0  0  0  0  0  0  0  0  0
    8.8116   -0.8663   -0.7864 C   0  0  0  0  0  0  0  0  0  0  0  0
    8.2369   -1.9892   -1.3770 C   0  0  0  0  0  0  0  0  0  0  0  0
    6.8495   -2.1269   -1.3981 C   0  0  0  0  0  0  0  0  0  0  0  0
    6.0300   -1.1447   -0.8297 C   0  0  0  0  0  0  0  0  0  0  0  0
    4.6420   -1.3579   -0.8918 N   0  0  0  0  0  0  0  0  0  0  0  0
    3.6332   -0.5509   -0.4116 C   0  0  0  0  0  0  0  0  0  0  0  0
    3.7059    0.5227    0.1719 O   0  0  0  0  0  0  0  0  0  0  0  0
    2.2404   -1.1461   -0.6827 C   0  0  0  0  0  0  0  0  0  0  0  0
    2.1539   -2.2194   -1.2650 O   0  0  0  0  0  0  0  0  0  0  0  0
    1.2288   -0.3376   -0.2026 N   0  0  0  0  0  0  0  0  0  0  0  0
   -0.0782   -0.6947   -0.3502 N   0  0  0  0  0  0  0  0  0  0  0  0
   -0.9411    0.1377    0.1366 C   0  0  0  0  0  0  0  0  0  0  0  0
   -2.3550   -0.1653    0.0179 C   0  0  0  0  0  0  0  0  0  0  0  0
   -2.9367   -1.2932   -0.6072 C   0  0  0  0  0  0  0  0  0  0  0  0
   -4.3096   -1.1908   -0.5138 C   0  0  0  0  0  0  0  0  0  0  0  0
   -5.3149   -2.1073   -1.1251 C   0  0  0  0  0  0  0  0  0  0  0  0
   -4.6066   -0.0171    0.1709 N   0  0  0  0  0  0  0  0  0  0  0  0
   -5.9148    0.4753    0.4542 C   0  0  0  0  0  0  0  0  0  0  0  0
   -6.8991   -0.3854    0.9527 C   0  0  0  0  0  0  0  0  0  0  0  0
   -8.1789    0.1030    1.2304 C   0  0  0  0  0  0  0  0  0  0  0  0
   -8.4839    1.4491    1.0096 C   0  0  0  0  0  0  0  0  0  0  0  0
  -10.0851    1.9817    1.3781 Cl  0  0  0  0  0  0  0  0  0  0  0  0
   -7.5020    2.3103    0.5078 C   0  0  0  0  0  0  0  0  0  0  0  0
   -7.8075    3.9837    0.2017 Cl  0  0  0  0  0  0  0  0  0  0  0  0
   -6.2191    1.8244    0.2306 C   0  0  0  0  0  0  0  0  0  0  0  0
   -3.4020    0.6000    0.5214 C   0  0  0  0  0  0  0  0  0  0  0  0
   -3.3173    1.8279    1.3718 C   0  0  0  0  0  0  0  0  0  0  0  0
    6.6171   -0.0202   -0.2386 C   0  0  0  0  0  0  0  0  0  0  0  0
    8.6301    2.9616    1.3079 H   0  0  0  0  0  0  0  0  0  0  0  0
    7.2889    2.6978    0.1875 H   0  0  0  0  0  0  0  0  0  0  0  0
    7.3517    1.8335    1.7741 H   0  0  0  0  0  0  0  0  0  0  0  0
    9.8934   -0.7580   -0.7696 H   0  0  0  0  0  0  0  0  0  0  0  0
    8.8694   -2.7542   -1.8193 H   0  0  0  0  0  0  0  0  0  0  0  0
    6.4205   -3.0107   -1.8639 H   0  0  0  0  0  0  0  0  0  0  0  0
    4.3129   -2.2097   -1.3444 H   0  0  0  0  0  0  0  0  0  0  0  0
    1.4926    0.5308    0.2604 H   0  0  0  0  0  0  0  0  0  0  0  0
   -0.6447    1.0751    0.6368 H   0  0  0  0  0  0  0  0  0  0  0  0
   -2.3975   -2.0923   -1.1045 H   0  0  0  0  0  0  0  0  0  0  0  0
   -4.8546   -2.7005   -1.9232 H   0  0  0  0  0  0  0  0  0  0  0  0
   -6.1458   -1.5567   -1.5762 H   0  0  0  0  0  0  0  0  0  0  0  0
   -5.7040   -2.8084   -0.3811 H   0  0  0  0  0  0  0  0  0  0  0  0
   -6.6800   -1.4273    1.1735 H   0  0  0  0  0  0  0  0  0  0  0  0
   -8.9332   -0.5723    1.6286 H   0  0  0  0  0  0  0  0  0  0  0  0
   -5.4805    2.4971   -0.1978 H   0  0  0  0  0  0  0  0  0  0  0  0
   -2.3884    1.8376    1.9512 H   0  0  0  0  0  0  0  0  0  0  0  0
   -3.3307    2.7272    0.7488 H   0  0  0  0  0  0  0  0  0  0  0  0
   -4.1314    1.8807    2.1008 H   0  0  0  0  0  0  0  0  0  0  0  0
    5.9911    0.7438    0.2030 H   0  0  0  0  0  0  0  0  0  0  0  0
  1  2  1  0
  2  3  1  0
  3  4  2  0
  4  5  1  0
  5  6  2  0
  6  7  1  0
  7  8  1  0
  8  9  1  0
  9 10  2  0
  9 11  1  0
 11 12  2  0
 11 13  1  0
 13 14  1  0
 14 15  2  3
 15 16  1  0
 16 17  1  0
 17 18  2  0
 18 19  1  0
 18 20  1  0
 20 21  1  0
 21 22  2  0
 22 23  1  0
 23 24  2  0
 24 25  1  0
 24 26  1  0
 26 27  1  0
 26 28  2  0
 20 29  1  0
 29 30  1  0
  7 31  2  0
 31  3  1  0
 29 16  2  0
 28 21  1  0
  1 32  1  0
  1 33  1  0
  1 34  1  0
  4 35  1  0
  5 36  1  0
  6 37  1  0
  8 38  1  0
 13 39  1  0
 15 40  1  0
 17 41  1  0
 19 42  1  0
 19 43  1  0
 19 44  1  0
 22 45  1  0
 23 46  1  0
 28 47  1  0
 30 48  1  0
 30 49  1  0
 30 50  1  0
 31 51  1  0
M  END
$$$$
