
     RDKit          3D

 58 62  0  0  0  0  0  0  0  0999 V2000
   -0.0268    1.4882   -3.7329 O   0  0  0  0  0  0  0  0  0  0  0  0
   -0.5442    1.1865   -2.6593 C   0  0  0  0  0  0  0  0  0  0  0  0
   -2.0592    1.2448   -2.5076 C   0  0  0  0  0  0  0  0  0  0  0  0
   -2.5835    2.1746   -1.0348 S   0  0  0  0  0  0  0  0  0  0  0  0
   -2.9673    0.8267    0.0250 C   0  0  0  0  0  0  0  0  0  0  0  0
   -2.0207   -0.0438    0.1782 N   0  0  0  0  0  0  0  0  0  0  0  0
   -2.2943   -1.1914    0.9321 C   0  0  0  0  0  0  0  0  0  0  0  0
   -1.3055   -2.1722    1.0475 C   0  0  0  0  0  0  0  0  0  0  0  0
   -1.5412   -3.3386    1.7808 C   0  0  0  0  0  0  0  0  0  0  0  0
   -2.7731   -3.5346    2.4063 C   0  0  0  0  0  0  0  0  0  0  0  0
   -3.7705   -2.5668    2.2915 C   0  0  0  0  0  0  0  0  0  0  0  0
   -3.5246   -1.4034    1.5507 C   0  0  0  0  0  0  0  0  0  0  0  0
   -4.5614   -0.3678    1.3997 C   0  0  0  0  0  0  0  0  0  0  0  0
   -5.6185   -0.5040    2.0139 O   0  0  0  0  0  0  0  0  0  0  0  0
   -4.2324    0.7295    0.5962 N   0  0  0  0  0  0  0  0  0  0  0  0
   -5.2609    1.7013    0.3991 C   0  0  0  0  0  0  0  0  0  0  0  0
   -5.1075    3.0229    0.8423 C   0  0  0  0  0  0  0  0  0  0  0  0
   -6.1470    3.9418    0.6660 C   0  0  0  0  0  0  0  0  0  0  0  0
   -7.3326    3.5389    0.0550 C   0  0  0  0  0  0  0  0  0  0  0  0
   -8.3208    4.4283   -0.1127 F   0  0  0  0  0  0  0  0  0  0  0  0
   -7.5046    2.2353   -0.3876 C   0  0  0  0  0  0  0  0  0  0  0  0
   -6.4701    1.3240   -0.2087 C   0  0  0  0  0  0  0  0  0  0  0  0
   -6.6195    0.0775   -0.6851 F   0  0  0  0  0  0  0  0  0  0  0  0
    0.1193    0.7089   -1.5435 N   0  0  0  0  0  0  0  0  0  0  0  0
    1.4973    0.4718   -1.3869 C   0  0  0  0  0  0  0  0  0  0  0  0
    1.9397    0.0751   -0.1237 C   0  0  0  0  0  0  0  0  0  0  0  0
    3.2935   -0.2095    0.1111 C   0  0  0  0  0  0  0  0  0  0  0  0
    4.2496   -0.1221   -0.9085 C   0  0  0  0  0  0  0  0  0  0  0  0
    5.6131   -0.4043   -0.7237 N   0  0  0  0  0  0  0  0  0  0  0  0
    6.1478   -1.4319   -1.6546 C   0  0  0  0  0  0  0  0  0  0  0  0
    7.6790   -1.5111   -1.5392 C   0  0  0  0  0  0  0  0  0  0  0  0
    8.0983   -1.7604   -0.1888 O   0  0  0  0  0  0  0  0  0  0  0  0
    7.6364   -0.7026    0.6656 C   0  0  0  0  0  0  0  0  0  0  0  0
    6.1035   -0.6071    0.6569 C   0  0  0  0  0  0  0  0  0  0  0  0
    3.7877    0.3109   -2.1612 C   0  0  0  0  0  0  0  0  0  0  0  0
    2.4352    0.5994   -2.4039 C   0  0  0  0  0  0  0  0  0  0  0  0
   -2.4656    1.7669   -3.3803 H   0  0  0  0  0  0  0  0  0  0  0  0
   -2.4634    0.2276   -2.5184 H   0  0  0  0  0  0  0  0  0  0  0  0
   -0.3446   -2.0380    0.5546 H   0  0  0  0  0  0  0  0  0  0  0  0
   -0.7631   -4.0951    1.8604 H   0  0  0  0  0  0  0  0  0  0  0  0
   -2.9588   -4.4418    2.9775 H   0  0  0  0  0  0  0  0  0  0  0  0
   -4.7352   -2.7218    2.7742 H   0  0  0  0  0  0  0  0  0  0  0  0
   -4.1984    3.3430    1.3464 H   0  0  0  0  0  0  0  0  0  0  0  0
   -6.0461    4.9677    1.0081 H   0  0  0  0  0  0  0  0  0  0  0  0
   -8.4274    1.9336   -0.8680 H   0  0  0  0  0  0  0  0  0  0  0  0
   -0.4644    0.5197   -0.7292 H   0  0  0  0  0  0  0  0  0  0  0  0
    1.2420   -0.0104    0.7063 H   0  0  0  0  0  0  0  0  0  0  0  0
    3.5702   -0.5159    1.1154 H   0  0  0  0  0  0  0  0  0  0  0  0
    5.9027   -1.2128   -2.6987 H   0  0  0  0  0  0  0  0  0  0  0  0
    5.7121   -2.4063   -1.3957 H   0  0  0  0  0  0  0  0  0  0  0  0
    8.1481   -0.5847   -1.8920 H   0  0  0  0  0  0  0  0  0  0  0  0
    8.0548   -2.3305   -2.1594 H   0  0  0  0  0  0  0  0  0  0  0  0
    8.0939    0.2419    0.3466 H   0  0  0  0  0  0  0  0  0  0  0  0
    7.9876   -0.9192    1.6794 H   0  0  0  0  0  0  0  0  0  0  0  0
    5.8072    0.2289    1.3003 H   0  0  0  0  0  0  0  0  0  0  0  0
    5.6876   -1.5387    1.0624 H   0  0  0  0  0  0  0  0  0  0  0  0
    4.4897    0.4538   -2.9803 H   0  0  0  0  0  0  0  0  0  0  0  0
    2.1571    0.9173   -3.4039 H   0  0  0  0  0  0  0  0  0  0  0  0
  1  2  2  0
  2  3  1  0
  3  4  1  0
  4  5  1  0
  5  6  2  0
  6  7  1  0
  7  8  2  0
  8  9  1  0
  9 10  2  0
 10 11  1  0
 11 12  2  0
 12 13  1  0
 13 14  2  0
 13 15  1  0
 15 16  1  0
 16 17  2  0
 17 18  1  0
 18 19  2  0
 19 20  1  0
 19 21  1  0
 21 22  2  0
 22 23  1  0
  2 24  1  0
 24 25  1  0
 25 26  2  0
 26 27  1  0
 27 28  2  0
 28 29  1  0
 29 30  1  0
 30 31  1  0
 31 32  1  0
 32 33  1  0
 33 34  1  0
 28 35  1  0
 35 36  2  0
 15  5  1  0
 22 16  1  0
 36 25  1  0
 12  7  1  0
 34 29  1  0
  3 37  1  0
  3 38  1  0
  8 39  1  0
  9 40  1  0
 10 41  1  0
 11 42  1  0
 17 43  1  0
 18 44  1  0
 21 45  1  0
 24 46  1  0
 26 47  1  0
 27 48  1  0
 30 49  1  0
 30 50  1  0
 31 51  1  0
 31 52  1  0
 33 53  1  0
 33 54  1  0
 34 55  1  0
 34 56  1  0
 35 57  1  0
 36 58  1  0
M  END
$$$$
