
     RDKit          3D

 51 53  0  0  0  0  0  0  0  0999 V2000
    7.1776   -0.4638    2.3959 C   0  0  0  0  0  0  0  0  0  0  0  0
    7.0394   -0.8084    1.0253 O   0  0  0  0  0  0  0  0  0  0  0  0
    6.0589   -0.1642    0.3127 C   0  0  0  0  0  0  0  0  0  0  0  0
    5.4220    1.0091    0.7358 C   0  0  0  0  0  0  0  0  0  0  0  0
    4.4425    1.6103   -0.0598 C   0  0  0  0  0  0  0  0  0  0  0  0
    4.0893    1.0490   -1.2925 C   0  0  0  0  0  0  0  0  0  0  0  0
    3.0233    1.6788   -2.1531 C   0  0  0  0  0  0  0  0  0  0  0  0
    1.6903    0.9502   -2.0525 C   0  0  0  0  0  0  0  0  0  0  0  0
    1.4427   -0.0120   -2.7725 O   0  0  0  0  0  0  0  0  0  0  0  0
    0.8600    1.4901   -1.0851 N   0  0  0  0  0  0  0  0  0  0  0  0
   -0.4363    1.0671   -0.7292 C   0  0  0  0  0  0  0  0  0  0  0  0
   -1.0870   -0.0263   -1.2992 C   0  0  0  0  0  0  0  0  0  0  0  0
   -2.3806   -0.3757   -0.8866 C   0  0  0  0  0  0  0  0  0  0  0  0
   -3.0479    0.3659    0.0965 C   0  0  0  0  0  0  0  0  0  0  0  0
   -4.3453   -0.0542    0.4563 N   0  0  0  0  0  0  0  0  0  0  0  0
   -5.2235    0.5854    1.3123 C   0  0  0  0  0  0  0  0  0  0  0  0
   -5.0659    1.6734    1.8541 O   0  0  0  0  0  0  0  0  0  0  0  0
   -6.5088   -0.1336    1.5379 C   0  0  0  0  0  0  0  0  0  0  0  0
   -6.5590   -1.5299    1.6581 C   0  0  0  0  0  0  0  0  0  0  0  0
   -7.7856   -2.1656    1.8751 C   0  0  0  0  0  0  0  0  0  0  0  0
   -8.9542   -1.4070    1.9776 C   0  0  0  0  0  0  0  0  0  0  0  0
  -10.6103   -2.2707    2.2698 Br  0  0  0  0  0  0  0  0  0  0  0  0
   -8.9094   -0.0174    1.8739 C   0  0  0  0  0  0  0  0  0  0  0  0
   -7.6848    0.6204    1.6602 C   0  0  0  0  0  0  0  0  0  0  0  0
   -2.3947    1.4561    0.6704 C   0  0  0  0  0  0  0  0  0  0  0  0
   -1.0997    1.8017    0.2619 C   0  0  0  0  0  0  0  0  0  0  0  0
    4.7277   -0.1295   -1.7165 C   0  0  0  0  0  0  0  0  0  0  0  0
    5.7105   -0.7382   -0.9265 C   0  0  0  0  0  0  0  0  0  0  0  0
    6.3870   -1.8803   -1.2787 O   0  0  0  0  0  0  0  0  0  0  0  0
    5.9168   -2.5954   -2.4108 C   0  0  0  0  0  0  0  0  0  0  0  0
    7.8946   -1.1611    2.8438 H   0  0  0  0  0  0  0  0  0  0  0  0
    6.2282   -0.5722    2.9367 H   0  0  0  0  0  0  0  0  0  0  0  0
    7.5824    0.5490    2.5077 H   0  0  0  0  0  0  0  0  0  0  0  0
    5.6764    1.4872    1.6780 H   0  0  0  0  0  0  0  0  0  0  0  0
    3.9683    2.5260    0.2944 H   0  0  0  0  0  0  0  0  0  0  0  0
    3.3387    1.6765   -3.2006 H   0  0  0  0  0  0  0  0  0  0  0  0
    2.8941    2.7321   -1.8922 H   0  0  0  0  0  0  0  0  0  0  0  0
    1.2214    2.2782   -0.5629 H   0  0  0  0  0  0  0  0  0  0  0  0
   -0.6170   -0.6381   -2.0637 H   0  0  0  0  0  0  0  0  0  0  0  0
   -2.8511   -1.2373   -1.3556 H   0  0  0  0  0  0  0  0  0  0  0  0
   -4.6883   -0.8734   -0.0302 H   0  0  0  0  0  0  0  0  0  0  0  0
   -5.6523   -2.1310    1.6171 H   0  0  0  0  0  0  0  0  0  0  0  0
   -7.8187   -3.2482    1.9736 H   0  0  0  0  0  0  0  0  0  0  0  0
   -9.8163    0.5777    1.9613 H   0  0  0  0  0  0  0  0  0  0  0  0
   -7.6474    1.7060    1.5869 H   0  0  0  0  0  0  0  0  0  0  0  0
   -2.8610    2.0582    1.4476 H   0  0  0  0  0  0  0  0  0  0  0  0
   -0.6269    2.6591    0.7368 H   0  0  0  0  0  0  0  0  0  0  0  0
    4.4379   -0.5545   -2.6755 H   0  0  0  0  0  0  0  0  0  0  0  0
    4.8637   -2.8742   -2.2977 H   0  0  0  0  0  0  0  0  0  0  0  0
    6.4990   -3.5192   -2.4861 H   0  0  0  0  0  0  0  0  0  0  0  0
    6.0795   -2.0259   -3.3310 H   0  0  0  0  0  0  0  0  0  0  0  0
  1  2  1  0
  2  3  1  0
  3  4  2  0
  4  5  1  0
  5  6  2  0
  6  7  1  0
  7  8  1  0
  8  9  2  0
  8 10  1  0
 10 11  1  0
 11 12  2  0
 12 13  1  0
 13 14  2  0
 14 15  1  0
 15 16  1  0
 16 17  2  0
 16 18  1  0
 18 19  2  0
 19 20  1  0
 20 21  2  0
 21 22  1  0
 21 23  1  0
 23 24  2  0
 14 25  1  0
 25 26  2  0
  6 27  1  0
 27 28  2  0
 28 29  1  0
 29 30  1  0
 28  3  1  0
 26 11  1  0
 24 18  1  0
  1 31  1  0
  1 32  1  0
  1 33  1  0
  4 34  1  0
  5 35  1  0
  7 36  1  0
  7 37  1  0
 10 38  1  0
 12 39  1  0
 13 40  1  0
 15 41  1  0
 19 42  1  0
 20 43  1  0
 23 44  1  0
 24 45  1  0
 25 46  1  0
 26 47  1  0
 27 48  1  0
 30 49  1  0
 30 50  1  0
 30 51  1  0
M  END
$$$$
