
     RDKit          3D

 59 64  0  0  0  0  0  0  0  0999 V2000
   -5.4774   -2.1416    1.4705 C   0  0  0  0  0  0  0  0  0  0  0  0
   -5.5530   -0.7168    1.5483 O   0  0  0  0  0  0  0  0  0  0  0  0
   -5.7855   -0.2012    0.2908 C   0  0  0  0  0  0  0  0  0  0  0  0
   -7.1181    0.0949   -0.0194 C   0  0  0  0  0  0  0  0  0  0  0  0
   -7.4449    0.5749   -1.2825 C   0  0  0  0  0  0  0  0  0  0  0  0
   -6.4403    0.7528   -2.2262 C   0  0  0  0  0  0  0  0  0  0  0  0
   -5.1044    0.4827   -1.8980 C   0  0  0  0  0  0  0  0  0  0  0  0
   -4.7270    0.0302   -0.6212 C   0  0  0  0  0  0  0  0  0  0  0  0
   -3.3889   -0.1904   -0.2844 N   0  0  0  0  0  0  0  0  0  0  0  0
   -2.9285    0.3155    1.0347 C   0  0  0  0  0  0  0  0  0  0  0  0
   -1.5818    1.0672    0.9258 C   0  0  0  0  0  0  0  0  0  0  0  0
   -0.5186    0.2097    0.3486 N   0  0  0  0  0  0  0  0  0  0  0  0
    0.7174    0.7659    0.1520 C   0  0  0  0  0  0  0  0  0  0  0  0
    1.0428    2.0168   -0.3367 C   0  0  0  0  0  0  0  0  0  0  0  0
    2.4423    2.0680   -0.5137 C   0  0  0  0  0  0  0  0  0  0  0  0
    2.9565    0.8485   -0.1183 C   0  0  0  0  0  0  0  0  0  0  0  0
    4.3044    0.3209   -0.1107 C   0  0  0  0  0  0  0  0  0  0  0  0
    5.4102    1.0522   -0.7805 C   0  0  0  0  0  0  0  0  0  0  0  0
    5.2779    1.5113   -2.0954 C   0  0  0  0  0  0  0  0  0  0  0  0
    6.3396    2.1792   -2.7097 C   0  0  0  0  0  0  0  0  0  0  0  0
    7.5330    2.3784   -2.0178 C   0  0  0  0  0  0  0  0  0  0  0  0
    7.6727    1.9033   -0.7137 C   0  0  0  0  0  0  0  0  0  0  0  0
    6.6149    1.2330   -0.0961 C   0  0  0  0  0  0  0  0  0  0  0  0
    4.5763   -0.8036    0.4813 N   0  0  0  0  0  0  0  0  0  0  0  0
    3.5371   -1.5213    1.1059 C   0  0  0  0  0  0  0  0  0  0  0  0
    3.8768   -2.7016    1.7754 C   0  0  0  0  0  0  0  0  0  0  0  0
    2.9051   -3.4544    2.4350 C   0  0  0  0  0  0  0  0  0  0  0  0
    1.5802   -3.0237    2.4395 C   0  0  0  0  0  0  0  0  0  0  0  0
    1.2204   -1.8491    1.7739 C   0  0  0  0  0  0  0  0  0  0  0  0
    2.1924   -1.1107    1.0932 C   0  0  0  0  0  0  0  0  0  0  0  0
    1.9164    0.0992    0.4087 N   0  0  0  0  0  0  0  0  0  0  0  0
   -0.9933   -0.7191   -0.7171 C   0  0  0  0  0  0  0  0  0  0  0  0
   -2.3454   -0.2777   -1.3241 C   0  0  0  0  0  0  0  0  0  0  0  0
   -4.7704   -2.4853    0.7044 H   0  0  0  0  0  0  0  0  0  0  0  0
   -5.1257   -2.5110    2.4392 H   0  0  0  0  0  0  0  0  0  0  0  0
   -6.4709   -2.5648    1.2867 H   0  0  0  0  0  0  0  0  0  0  0  0
   -7.8941   -0.0601    0.7243 H   0  0  0  0  0  0  0  0  0  0  0  0
   -8.4765    0.8026   -1.5308 H   0  0  0  0  0  0  0  0  0  0  0  0
   -6.6894    1.1221   -3.2181 H   0  0  0  0  0  0  0  0  0  0  0  0
   -4.3589    0.6687   -2.6661 H   0  0  0  0  0  0  0  0  0  0  0  0
   -2.8093   -0.5411    1.7089 H   0  0  0  0  0  0  0  0  0  0  0  0
   -3.6510    1.0077    1.4841 H   0  0  0  0  0  0  0  0  0  0  0  0
   -1.7269    1.9659    0.3110 H   0  0  0  0  0  0  0  0  0  0  0  0
   -1.2740    1.3921    1.9291 H   0  0  0  0  0  0  0  0  0  0  0  0
    0.3381    2.7938   -0.6007 H   0  0  0  0  0  0  0  0  0  0  0  0
    3.0048    2.9039   -0.9096 H   0  0  0  0  0  0  0  0  0  0  0  0
    4.3635    1.3356   -2.6520 H   0  0  0  0  0  0  0  0  0  0  0  0
    6.2404    2.5350   -3.7331 H   0  0  0  0  0  0  0  0  0  0  0  0
    8.3602    2.8956   -2.4991 H   0  0  0  0  0  0  0  0  0  0  0  0
    8.6069    2.0485   -0.1811 H   0  0  0  0  0  0  0  0  0  0  0  0
    6.7294    0.8532    0.9166 H   0  0  0  0  0  0  0  0  0  0  0  0
    4.9132   -3.0296    1.7827 H   0  0  0  0  0  0  0  0  0  0  0  0
    3.1850   -4.3671    2.9557 H   0  0  0  0  0  0  0  0  0  0  0  0
    0.8248   -3.5976    2.9698 H   0  0  0  0  0  0  0  0  0  0  0  0
    0.1879   -1.5244    1.8302 H   0  0  0  0  0  0  0  0  0  0  0  0
   -0.2550   -0.8088   -1.5259 H   0  0  0  0  0  0  0  0  0  0  0  0
   -1.1075   -1.7151   -0.2711 H   0  0  0  0  0  0  0  0  0  0  0  0
   -2.6373   -1.0103   -2.0864 H   0  0  0  0  0  0  0  0  0  0  0  0
   -2.2169    0.6970   -1.8134 H   0  0  0  0  0  0  0  0  0  0  0  0
  1  2  1  0
  2  3  1  0
  3  4  2  0
  4  5  1  0
  5  6  2  0
  6  7  1  0
  7  8  2  0
  8  9  1  0
  9 10  1  0
 10 11  1  0
 11 12  1  0
 12 13  1  0
 13 14  2  0
 14 15  1  0
 15 16  2  0
 16 17  1  0
 17 18  1  0
 18 19  2  0
 19 20  1  0
 20 21  2  0
 21 22  1  0
 22 23  2  0
 17 24  2  0
 24 25  1  0
 25 26  2  0
 26 27  1  0
 27 28  2  0
 28 29  1  0
 29 30  2  0
 30 31  1  0
 12 32  1  0
 32 33  1  0
  8  3  1  0
 33  9  1  0
 31 13  1  0
 31 16  1  0
 23 18  1  0
 30 25  1  0
  1 34  1  0
  1 35  1  0
  1 36  1  0
  4 37  1  0
  5 38  1  0
  6 39  1  0
  7 40  1  0
 10 41  1  0
 10 42  1  0
 11 43  1  0
 11 44  1  0
 14 45  1  0
 15 46  1  0
 19 47  1  0
 20 48  1  0
 21 49  1  0
 22 50  1  0
 23 51  1  0
 26 52  1  0
 27 53  1  0
 28 54  1  0
 29 55  1  0
 32 56  1  0
 32 57  1  0
 33 58  1  0
 33 59  1  0
M  END
$$$$
