
     RDKit          3D

 32 32  0  0  0  0  0  0  0  0999 V2000
   -3.4701    0.6107   -4.0427 C   0  0  0  0  0  0  0  0  0  0  0  0
   -2.4303    0.5971   -3.4410 C   0  0  0  0  0  0  0  0  0  0  0  0
   -1.1516    0.5827   -2.7095 C   0  0  0  0  0  0  0  0  0  0  0  0
   -1.2734    0.3347   -1.2648 N   0  0  0  0  0  0  0  0  0  0  0  0
   -1.9816    1.4209   -0.5879 C   0  0  0  0  0  0  0  0  0  0  0  0
   -1.8378   -0.9850   -0.9661 C   0  0  0  0  0  0  0  0  0  0  0  0
   -1.6649   -1.4591    0.4880 C   0  0  0  0  0  0  0  0  0  0  0  0
   -0.2063   -1.5230    0.9455 C   0  0  0  0  0  0  0  0  0  0  0  0
    0.2029   -0.2366    1.4081 O   0  0  0  0  0  0  0  0  0  0  0  0
    1.5239   -0.0536    1.7178 C   0  0  0  0  0  0  0  0  0  0  0  0
    2.4668   -1.0841    1.7992 C   0  0  0  0  0  0  0  0  0  0  0  0
    3.7967   -0.8019    2.1294 C   0  0  0  0  0  0  0  0  0  0  0  0
    4.1886    0.5102    2.3839 C   0  0  0  0  0  0  0  0  0  0  0  0
    5.8259    0.8478    2.7896 Cl  0  0  0  0  0  0  0  0  0  0  0  0
    3.2647    1.5470    2.3154 C   0  0  0  0  0  0  0  0  0  0  0  0
    1.9368    1.2636    1.9856 C   0  0  0  0  0  0  0  0  0  0  0  0
    0.8253    2.5885    1.9187 Cl  0  0  0  0  0  0  0  0  0  0  0  0
   -4.3934    0.6248   -4.5743 H   0  0  0  0  0  0  0  0  0  0  0  0
   -0.4932   -0.1783   -3.1472 H   0  0  0  0  0  0  0  0  0  0  0  0
   -0.6306    1.5353   -2.8683 H   0  0  0  0  0  0  0  0  0  0  0  0
   -1.9175    1.3206    0.4997 H   0  0  0  0  0  0  0  0  0  0  0  0
   -1.5257    2.3882   -0.8284 H   0  0  0  0  0  0  0  0  0  0  0  0
   -3.0422    1.4638   -0.8592 H   0  0  0  0  0  0  0  0  0  0  0  0
   -1.3502   -1.7353   -1.6030 H   0  0  0  0  0  0  0  0  0  0  0  0
   -2.9066   -1.0173   -1.2142 H   0  0  0  0  0  0  0  0  0  0  0  0
   -2.0867   -2.4703    0.5474 H   0  0  0  0  0  0  0  0  0  0  0  0
   -2.2506   -0.8287    1.1665 H   0  0  0  0  0  0  0  0  0  0  0  0
   -0.1396   -2.2293    1.7817 H   0  0  0  0  0  0  0  0  0  0  0  0
    0.4303   -1.8704    0.1228 H   0  0  0  0  0  0  0  0  0  0  0  0
    2.1988   -2.1200    1.6176 H   0  0  0  0  0  0  0  0  0  0  0  0
    4.5196   -1.6121    2.1881 H   0  0  0  0  0  0  0  0  0  0  0  0
    3.5721    2.5691    2.5171 H   0  0  0  0  0  0  0  0  0  0  0  0
  1  2  3  0
  2  3  1  0
  3  4  1  0
  4  5  1  0
  4  6  1  0
  6  7  1  0
  7  8  1  0
  8  9  1  0
  9 10  1  0
 10 11  2  0
 11 12  1  0
 12 13  2  0
 13 14  1  0
 13 15  1  0
 15 16  2  0
 16 17  1  0
 16 10  1  0
  1 18  1  0
  3 19  1  0
  3 20  1  0
  5 21  1  0
  5 22  1  0
  5 23  1  0
  6 24  1  0
  6 25  1  0
  7 26  1  0
  7 27  1  0
  8 28  1  0
  8 29  1  0
 11 30  1  0
 12 31  1  0
 15 32  1  0
M  END
$$$$
