
     RDKit          3D

 40 41  0  0  0  0  0  0  0  0999 V2000
    8.1113    0.3278    0.9349 C   0  0  0  0  0  0  0  0  0  0  0  0
    6.3660    0.1163    1.3545 S   0  0  0  0  0  0  0  0  0  0  0  0
    5.6654    0.2952   -0.3140 C   0  0  0  0  0  0  0  0  0  0  0  0
    4.1614    0.1811   -0.2944 C   0  0  0  0  0  0  0  0  0  0  0  0
    3.5411   -1.0758   -0.3616 C   0  0  0  0  0  0  0  0  0  0  0  0
    2.1478   -1.1853   -0.3306 C   0  0  0  0  0  0  0  0  0  0  0  0
    1.3579   -0.0352   -0.2200 C   0  0  0  0  0  0  0  0  0  0  0  0
   -0.1280   -0.1017   -0.1808 C   0  0  0  0  0  0  0  0  0  0  0  0
   -0.8029    0.8345   -0.5946 O   0  0  0  0  0  0  0  0  0  0  0  0
   -0.6758   -1.2381    0.3797 N   0  0  0  0  0  0  0  0  0  0  0  0
   -2.1153   -1.3841    0.5189 C   0  0  0  0  0  0  0  0  0  0  0  0
   -2.6796   -0.5111    1.6421 C   0  0  0  0  0  0  0  0  0  0  0  0
   -4.4825   -0.7251    1.8591 S   0  0  0  0  0  0  0  0  0  0  0  0
   -5.1526   -0.0742    0.3346 C   0  0  0  0  0  0  0  0  0  0  0  0
   -4.5846    0.9883   -0.3768 C   0  0  0  0  0  0  0  0  0  0  0  0
   -5.1726    1.4479   -1.5605 C   0  0  0  0  0  0  0  0  0  0  0  0
   -6.3406    0.8543   -2.0309 C   0  0  0  0  0  0  0  0  0  0  0  0
   -7.1349    1.4762   -3.6287 Br  0  0  0  0  0  0  0  0  0  0  0  0
   -6.9285   -0.1926   -1.3271 C   0  0  0  0  0  0  0  0  0  0  0  0
   -6.3362   -0.6510   -0.1465 C   0  0  0  0  0  0  0  0  0  0  0  0
    1.9693    1.2219   -0.1630 C   0  0  0  0  0  0  0  0  0  0  0  0
    3.3619    1.3285   -0.1907 C   0  0  0  0  0  0  0  0  0  0  0  0
    8.2803    1.3131    0.4929 H   0  0  0  0  0  0  0  0  0  0  0  0
    8.4322   -0.4494    0.2364 H   0  0  0  0  0  0  0  0  0  0  0  0
    8.7129    0.2474    1.8441 H   0  0  0  0  0  0  0  0  0  0  0  0
    6.0838   -0.4767   -0.9698 H   0  0  0  0  0  0  0  0  0  0  0  0
    5.9588    1.2663   -0.7284 H   0  0  0  0  0  0  0  0  0  0  0  0
    4.1442   -1.9787   -0.4391 H   0  0  0  0  0  0  0  0  0  0  0  0
    1.6980   -2.1700   -0.4170 H   0  0  0  0  0  0  0  0  0  0  0  0
   -0.0794   -1.8777    0.8878 H   0  0  0  0  0  0  0  0  0  0  0  0
   -2.5658   -1.1333   -0.4471 H   0  0  0  0  0  0  0  0  0  0  0  0
   -2.3048   -2.4444    0.7187 H   0  0  0  0  0  0  0  0  0  0  0  0
   -2.4389    0.5468    1.5052 H   0  0  0  0  0  0  0  0  0  0  0  0
   -2.2094   -0.8032    2.5884 H   0  0  0  0  0  0  0  0  0  0  0  0
   -3.6799    1.4832   -0.0341 H   0  0  0  0  0  0  0  0  0  0  0  0
   -4.7079    2.2684   -2.1014 H   0  0  0  0  0  0  0  0  0  0  0  0
   -7.8436   -0.6578   -1.6832 H   0  0  0  0  0  0  0  0  0  0  0  0
   -6.8093   -1.4679    0.3950 H   0  0  0  0  0  0  0  0  0  0  0  0
    1.3622    2.1219   -0.0881 H   0  0  0  0  0  0  0  0  0  0  0  0
    3.8186    2.3142   -0.1272 H   0  0  0  0  0  0  0  0  0  0  0  0
  1  2  1  0
  2  3  1  0
  3  4  1  0
  4  5  2  0
  5  6  1  0
  6  7  2  0
  7  8  1  0
  8  9  2  0
  8 10  1  0
 10 11  1  0
 11 12  1  0
 12 13  1  0
 13 14  1  0
 14 15  2  0
 15 16  1  0
 16 17  2  0
 17 18  1  0
 17 19  1  0
 19 20  2  0
  7 21  1  0
 21 22  2  0
 22  4  1  0
 20 14  1  0
  1 23  1  0
  1 24  1  0
  1 25  1  0
  3 26  1  0
  3 27  1  0
  5 28  1  0
  6 29  1  0
 10 30  1  0
 11 31  1  0
 11 32  1  0
 12 33  1  0
 12 34  1  0
 15 35  1  0
 16 36  1  0
 19 37  1  0
 20 38  1  0
 21 39  1  0
 22 40  1  0
M  END
$$$$
