
     RDKit          3D

 37 39  0  0  0  0  0  0  0  0999 V2000
   -2.6053   -0.7945    1.3894 O   0  0  0  0  0  0  0  0  0  0  0  0
   -3.0476   -0.5896    0.2636 C   0  0  0  0  0  0  0  0  0  0  0  0
   -2.2978   -0.7247   -0.8892 N   0  0  0  0  0  0  0  0  0  0  0  0
   -0.9087   -0.8347   -0.7417 N   0  0  0  0  0  0  0  0  0  0  0  0
   -0.1535    0.3238   -0.6990 C   0  0  0  0  0  0  0  0  0  0  0  0
   -0.5574    1.4629   -0.8961 O   0  0  0  0  0  0  0  0  0  0  0  0
    1.2667   -0.0363   -0.4359 C   0  0  0  0  0  0  0  0  0  0  0  0
    2.2177    0.9008   -0.3239 C   0  0  0  0  0  0  0  0  0  0  0  0
    3.6409    0.6511   -0.0778 C   0  0  0  0  0  0  0  0  0  0  0  0
    4.5736    0.9288   -1.0897 C   0  0  0  0  0  0  0  0  0  0  0  0
    5.9394    0.7103   -0.8796 C   0  0  0  0  0  0  0  0  0  0  0  0
    6.3644    0.2198    0.3485 C   0  0  0  0  0  0  0  0  0  0  0  0
    7.6845   -0.0142    0.6165 O   0  0  0  0  0  0  0  0  0  0  0  0
    5.4416   -0.0481    1.3567 C   0  0  0  0  0  0  0  0  0  0  0  0
    5.8706   -0.5245    2.5627 O   0  0  0  0  0  0  0  0  0  0  0  0
    4.0843    0.1643    1.1573 C   0  0  0  0  0  0  0  0  0  0  0  0
    1.4484   -1.7500   -0.3468 S   0  0  0  0  0  0  0  0  0  0  0  0
   -0.2695   -2.0495   -0.6034 C   0  0  0  0  0  0  0  0  0  0  0  0
   -0.9290   -3.5784   -0.7083 S   0  0  0  0  0  0  0  0  0  0  0  0
   -4.4681   -0.2023    0.0735 C   0  0  0  0  0  0  0  0  0  0  0  0
   -5.4239   -0.7415    0.9427 C   0  0  0  0  0  0  0  0  0  0  0  0
   -6.7702   -0.4053    0.7962 C   0  0  0  0  0  0  0  0  0  0  0  0
   -7.1623    0.4778   -0.2095 C   0  0  0  0  0  0  0  0  0  0  0  0
   -6.2101    1.0336   -1.0646 C   0  0  0  0  0  0  0  0  0  0  0  0
   -4.8613    0.6993   -0.9239 C   0  0  0  0  0  0  0  0  0  0  0  0
   -2.6372   -0.4436   -1.8000 H   0  0  0  0  0  0  0  0  0  0  0  0
    1.9551    1.9528   -0.4274 H   0  0  0  0  0  0  0  0  0  0  0  0
    4.2407    1.3140   -2.0514 H   0  0  0  0  0  0  0  0  0  0  0  0
    6.6425    0.9279   -1.6769 H   0  0  0  0  0  0  0  0  0  0  0  0
    8.1998    0.2100   -0.1773 H   0  0  0  0  0  0  0  0  0  0  0  0
    6.8411   -0.5972    2.4674 H   0  0  0  0  0  0  0  0  0  0  0  0
    3.3877   -0.0489    1.9631 H   0  0  0  0  0  0  0  0  0  0  0  0
   -5.1210   -1.4256    1.7333 H   0  0  0  0  0  0  0  0  0  0  0  0
   -7.5114   -0.8282    1.4700 H   0  0  0  0  0  0  0  0  0  0  0  0
   -8.2114    0.7432   -0.3185 H   0  0  0  0  0  0  0  0  0  0  0  0
   -6.5195    1.7386   -1.8328 H   0  0  0  0  0  0  0  0  0  0  0  0
   -4.1339    1.1780   -1.5732 H   0  0  0  0  0  0  0  0  0  0  0  0
  1  2  2  0
  2  3  1  0
  3  4  1  0
  4  5  1  0
  5  6  2  0
  5  7  1  0
  7  8  2  3
  8  9  1  0
  9 10  2  0
 10 11  1  0
 11 12  2  0
 12 13  1  0
 12 14  1  0
 14 15  1  0
 14 16  2  0
  7 17  1  0
 17 18  1  0
 18 19  2  0
  2 20  1  0
 20 21  2  0
 21 22  1  0
 22 23  2  0
 23 24  1  0
 24 25  2  0
 18  4  1  0
 25 20  1  0
 16  9  1  0
  3 26  1  0
  8 27  1  0
 10 28  1  0
 11 29  1  0
 13 30  1  0
 15 31  1  0
 16 32  1  0
 21 33  1  0
 22 34  1  0
 23 35  1  0
 24 36  1  0
 25 37  1  0
M  END
$$$$
