
     RDKit          3D

 61 66  0  0  0  0  0  0  0  0999 V2000
    7.1507    4.2979   -0.0551 F   0  0  0  0  0  0  0  0  0  0  0  0
    7.7965    3.1079   -0.2035 C   0  0  0  0  0  0  0  0  0  0  0  0
    8.4267    3.1735   -1.4105 F   0  0  0  0  0  0  0  0  0  0  0  0
    8.7884    3.1022    0.7314 F   0  0  0  0  0  0  0  0  0  0  0  0
    6.8649    1.9285   -0.0765 C   0  0  0  0  0  0  0  0  0  0  0  0
    6.4193    1.5155    1.1876 C   0  0  0  0  0  0  0  0  0  0  0  0
    5.5423    0.4363    1.3127 C   0  0  0  0  0  0  0  0  0  0  0  0
    5.0864   -0.2484    0.1773 C   0  0  0  0  0  0  0  0  0  0  0  0
    4.1374   -1.4210    0.3202 C   0  0  0  0  0  0  0  0  0  0  0  0
    2.8564   -1.0582    0.9470 N   0  0  0  0  0  0  0  0  0  0  0  0
    2.0920   -0.1084    0.1045 C   0  0  0  0  0  0  0  0  0  0  0  0
    0.5757   -0.0933    0.3976 C   0  0  0  0  0  0  0  0  0  0  0  0
   -0.0299   -1.4161    0.1808 N   0  0  0  0  0  0  0  0  0  0  0  0
   -1.2287   -1.5710   -0.5081 C   0  0  0  0  0  0  0  0  0  0  0  0
   -1.3436   -2.5980   -1.3156 N   0  0  0  0  0  0  0  0  0  0  0  0
   -2.5132   -2.7944   -2.0734 C   0  0  0  0  0  0  0  0  0  0  0  0
   -2.5718   -3.8972   -2.9280 C   0  0  0  0  0  0  0  0  0  0  0  0
   -3.7039   -4.1334   -3.7123 C   0  0  0  0  0  0  0  0  0  0  0  0
   -4.7929   -3.2637   -3.6485 C   0  0  0  0  0  0  0  0  0  0  0  0
   -4.7561   -2.1554   -2.8014 C   0  0  0  0  0  0  0  0  0  0  0  0
   -3.6159   -1.9319   -2.0232 C   0  0  0  0  0  0  0  0  0  0  0  0
   -3.4997   -0.8513   -1.1338 N   0  0  0  0  0  0  0  0  0  0  0  0
   -4.4089    0.1386   -0.8444 C   0  0  0  0  0  0  0  0  0  0  0  0
   -3.8844    0.9410    0.1510 C   0  0  0  0  0  0  0  0  0  0  0  0
   -4.5858    2.0709    0.7438 C   0  0  0  0  0  0  0  0  0  0  0  0
   -5.4301    2.8844   -0.0245 C   0  0  0  0  0  0  0  0  0  0  0  0
   -6.0908    3.9714    0.5545 C   0  0  0  0  0  0  0  0  0  0  0  0
   -5.9135    4.2567    1.9065 C   0  0  0  0  0  0  0  0  0  0  0  0
   -5.0753    3.4572    2.6806 C   0  0  0  0  0  0  0  0  0  0  0  0
   -4.4135    2.3707    2.1021 C   0  0  0  0  0  0  0  0  0  0  0  0
   -2.6043    0.4067    0.4626 C   0  0  0  0  0  0  0  0  0  0  0  0
   -2.3646   -0.6689   -0.3750 C   0  0  0  0  0  0  0  0  0  0  0  0
    0.9066   -2.5500    0.2583 C   0  0  0  0  0  0  0  0  0  0  0  0
    2.0472   -2.2592    1.2543 C   0  0  0  0  0  0  0  0  0  0  0  0
    5.5262    0.1667   -1.0865 C   0  0  0  0  0  0  0  0  0  0  0  0
    6.4042    1.2466   -1.2123 C   0  0  0  0  0  0  0  0  0  0  0  0
    6.7537    2.0359    2.0838 H   0  0  0  0  0  0  0  0  0  0  0  0
    5.2015    0.1319    2.3010 H   0  0  0  0  0  0  0  0  0  0  0  0
    4.6577   -2.1625    0.9416 H   0  0  0  0  0  0  0  0  0  0  0  0
    3.9709   -1.9012   -0.6533 H   0  0  0  0  0  0  0  0  0  0  0  0
    2.4842    0.9033    0.2597 H   0  0  0  0  0  0  0  0  0  0  0  0
    2.2218   -0.3492   -0.9599 H   0  0  0  0  0  0  0  0  0  0  0  0
    0.1209    0.6567   -0.2592 H   0  0  0  0  0  0  0  0  0  0  0  0
    0.4021    0.2154    1.4349 H   0  0  0  0  0  0  0  0  0  0  0  0
   -1.7243   -4.5753   -2.9809 H   0  0  0  0  0  0  0  0  0  0  0  0
   -3.7335   -4.9966   -4.3721 H   0  0  0  0  0  0  0  0  0  0  0  0
   -5.6726   -3.4518   -4.2594 H   0  0  0  0  0  0  0  0  0  0  0  0
   -5.6168   -1.4962   -2.7668 H   0  0  0  0  0  0  0  0  0  0  0  0
   -5.3671    0.1823   -1.3411 H   0  0  0  0  0  0  0  0  0  0  0  0
   -5.5723    2.6903   -1.0846 H   0  0  0  0  0  0  0  0  0  0  0  0
   -6.7408    4.5963   -0.0525 H   0  0  0  0  0  0  0  0  0  0  0  0
   -6.4275    5.1021    2.3565 H   0  0  0  0  0  0  0  0  0  0  0  0
   -4.9371    3.6763    3.7361 H   0  0  0  0  0  0  0  0  0  0  0  0
   -3.7732    1.7540    2.7279 H   0  0  0  0  0  0  0  0  0  0  0  0
   -1.9277    0.7805    1.2180 H   0  0  0  0  0  0  0  0  0  0  0  0
    0.3716   -3.4453    0.5971 H   0  0  0  0  0  0  0  0  0  0  0  0
    1.3245   -2.7617   -0.7338 H   0  0  0  0  0  0  0  0  0  0  0  0
    2.6759   -3.1516    1.3617 H   0  0  0  0  0  0  0  0  0  0  0  0
    1.6009   -2.0944    2.2441 H   0  0  0  0  0  0  0  0  0  0  0  0
    5.1844   -0.3456   -1.9835 H   0  0  0  0  0  0  0  0  0  0  0  0
    6.7286    1.5541   -2.2055 H   0  0  0  0  0  0  0  0  0  0  0  0
  1  2  1  0
  2  3  1  0
  2  4  1  0
  2  5  1  0
  5  6  2  0
  6  7  1  0
  7  8  2  0
  8  9  1  0
  9 10  1  0
 10 11  1  0
 11 12  1  0
 12 13  1  0
 13 14  1  0
 14 15  2  0
 15 16  1  0
 16 17  2  0
 17 18  1  0
 18 19  2  0
 19 20  1  0
 20 21  2  0
 21 22  1  0
 22 23  1  0
 23 24  2  0
 24 25  1  0
 25 26  2  0
 26 27  1  0
 27 28  2  0
 28 29  1  0
 29 30  2  0
 24 31  1  0
 31 32  2  0
 13 33  1  0
 33 34  1  0
  8 35  1  0
 35 36  2  0
 36  5  1  0
 34 10  1  0
 32 14  1  0
 21 16  1  0
 32 22  1  0
 30 25  1  0
  6 37  1  0
  7 38  1  0
  9 39  1  0
  9 40  1  0
 11 41  1  0
 11 42  1  0
 12 43  1  0
 12 44  1  0
 17 45  1  0
 18 46  1  0
 19 47  1  0
 20 48  1  0
 23 49  1  0
 26 50  1  0
 27 51  1  0
 28 52  1  0
 29 53  1  0
 30 54  1  0
 31 55  1  0
 33 56  1  0
 33 57  1  0
 34 58  1  0
 34 59  1  0
 35 60  1  0
 36 61  1  0
M  END
$$$$
