
     RDKit          3D

 39 42  0  0  0  0  0  0  0  0999 V2000
   -6.2116   -2.4916    1.7395 O   0  0  0  0  0  0  0  0  0  0  0  0
   -5.7945   -2.1037    0.6620 C   0  0  0  0  0  0  0  0  0  0  0  0
   -4.6033   -2.5104    0.1854 O   0  0  0  0  0  0  0  0  0  0  0  0
   -6.4867   -1.1424   -0.2550 C   0  0  0  0  0  0  0  0  0  0  0  0
   -6.0887    0.2948    0.0589 C   0  0  0  0  0  0  0  0  0  0  0  0
   -4.7769    0.6605   -0.4896 N   0  0  0  0  0  0  0  0  0  0  0  0
   -3.6571    0.5446    0.3171 C   0  0  0  0  0  0  0  0  0  0  0  0
   -3.6534    0.1813    1.4857 O   0  0  0  0  0  0  0  0  0  0  0  0
   -2.4278    0.9251   -0.4328 C   0  0  0  0  0  0  0  0  0  0  0  0
   -1.2303    0.8490    0.1613 C   0  0  0  0  0  0  0  0  0  0  0  0
    0.0361    1.1530   -0.4124 C   0  0  0  0  0  0  0  0  0  0  0  0
    0.4285    1.9836   -1.4523 C   0  0  0  0  0  0  0  0  0  0  0  0
    1.8382    1.9024   -1.5711 C   0  0  0  0  0  0  0  0  0  0  0  0
    2.2818    1.0349   -0.5904 C   0  0  0  0  0  0  0  0  0  0  0  0
    3.6178    0.6021   -0.2669 C   0  0  0  0  0  0  0  0  0  0  0  0
    3.8576   -0.2368    0.7184 N   0  0  0  0  0  0  0  0  0  0  0  0
    5.2155   -0.4851    0.8141 C   0  0  0  0  0  0  0  0  0  0  0  0
    5.8366   -1.3332    1.7532 C   0  0  0  0  0  0  0  0  0  0  0  0
    7.2261   -1.4924    1.7354 C   0  0  0  0  0  0  0  0  0  0  0  0
    8.0001   -0.8186    0.7959 C   0  0  0  0  0  0  0  0  0  0  0  0
    7.4083    0.0285   -0.1464 C   0  0  0  0  0  0  0  0  0  0  0  0
    6.0119    0.1806   -0.1187 C   0  0  0  0  0  0  0  0  0  0  0  0
    5.0021    1.1376   -1.1309 S   0  0  0  0  0  0  0  0  0  0  0  0
    1.1849    0.6001    0.1074 O   0  0  0  0  0  0  0  0  0  0  0  0
   -2.8428    1.3724   -2.0351 S   0  0  0  0  0  0  0  0  0  0  0  0
   -4.5575    1.0781   -1.7856 C   0  0  0  0  0  0  0  0  0  0  0  0
   -5.6792    1.3054   -2.9996 S   0  0  0  0  0  0  0  0  0  0  0  0
   -4.2371   -3.0664    0.9073 H   0  0  0  0  0  0  0  0  0  0  0  0
   -6.2866   -1.4222   -1.2945 H   0  0  0  0  0  0  0  0  0  0  0  0
   -7.5641   -1.2729   -0.0987 H   0  0  0  0  0  0  0  0  0  0  0  0
   -6.0826    0.4607    1.1429 H   0  0  0  0  0  0  0  0  0  0  0  0
   -6.8395    0.9740   -0.3588 H   0  0  0  0  0  0  0  0  0  0  0  0
   -1.1829    0.4824    1.1863 H   0  0  0  0  0  0  0  0  0  0  0  0
   -0.2183    2.5986   -2.0616 H   0  0  0  0  0  0  0  0  0  0  0  0
    2.4531    2.4277   -2.2889 H   0  0  0  0  0  0  0  0  0  0  0  0
    5.2278   -1.8564    2.4841 H   0  0  0  0  0  0  0  0  0  0  0  0
    7.7007   -2.1477    2.4620 H   0  0  0  0  0  0  0  0  0  0  0  0
    9.0802   -0.9514    0.7931 H   0  0  0  0  0  0  0  0  0  0  0  0
    8.0139    0.5536   -0.8788 H   0  0  0  0  0  0  0  0  0  0  0  0
  1  2  2  0
  2  3  1  0
  2  4  1  0
  4  5  1  0
  5  6  1  0
  6  7  1  0
  7  8  2  0
  7  9  1  0
  9 10  2  3
 10 11  1  0
 11 12  2  0
 12 13  1  0
 13 14  2  0
 14 15  1  0
 15 16  2  0
 16 17  1  0
 17 18  2  0
 18 19  1  0
 19 20  2  0
 20 21  1  0
 21 22  2  0
 22 23  1  0
 14 24  1  0
  9 25  1  0
 25 26  1  0
 26 27  2  0
 26  6  1  0
 24 11  1  0
 23 15  1  0
 22 17  1  0
  3 28  1  0
  4 29  1  0
  4 30  1  0
  5 31  1  0
  5 32  1  0
 10 33  1  0
 12 34  1  0
 13 35  1  0
 18 36  1  0
 19 37  1  0
 20 38  1  0
 21 39  1  0
M  END
$$$$
