
     RDKit          3D

 32 34  0  0  0  0  0  0  0  0999 V2000
   -3.5994    1.5289   -2.2822 C   0  0  0  0  0  0  0  0  0  0  0  0
   -2.5763    0.5732   -1.6918 C   0  0  0  0  0  0  0  0  0  0  0  0
   -3.0164   -0.7579   -1.9664 O   0  0  0  0  0  0  0  0  0  0  0  0
   -2.1860   -1.7850   -1.5266 C   0  0  0  0  0  0  0  0  0  0  0  0
   -2.6622   -3.0647   -1.8540 C   0  0  0  0  0  0  0  0  0  0  0  0
   -1.9587   -4.2088   -1.4939 C   0  0  0  0  0  0  0  0  0  0  0  0
   -0.7546   -4.1115   -0.7964 C   0  0  0  0  0  0  0  0  0  0  0  0
   -0.2765   -2.8318   -0.4661 C   0  0  0  0  0  0  0  0  0  0  0  0
    1.1689   -2.4160    0.3826 S   0  0  0  0  0  0  0  0  0  0  0  0
    0.7731   -0.7697    0.2293 C   0  0  0  0  0  0  0  0  0  0  0  0
    1.6854    0.0765    0.7937 N   0  0  0  0  0  0  0  0  0  0  0  0
    1.5581    1.4508    0.7350 C   0  0  0  0  0  0  0  0  0  0  0  0
    0.6411    2.0367    0.1674 O   0  0  0  0  0  0  0  0  0  0  0  0
    2.6464    2.1654    1.4100 C   0  0  0  0  0  0  0  0  0  0  0  0
    3.5980    1.7210    2.3182 C   0  0  0  0  0  0  0  0  0  0  0  0
    4.4933    2.7567    2.7308 C   0  0  0  0  0  0  0  0  0  0  0  0
    4.1832    3.9477    2.1286 C   0  0  0  0  0  0  0  0  0  0  0  0
    5.1536    5.5657    2.4329 Br  0  0  0  0  0  0  0  0  0  0  0  0
    2.8503    3.8481    1.0943 S   0  0  0  0  0  0  0  0  0  0  0  0
   -0.3368   -0.4928   -0.3922 N   0  0  0  0  0  0  0  0  0  0  0  0
   -0.9641   -1.6605   -0.8115 C   0  0  0  0  0  0  0  0  0  0  0  0
   -4.5882    1.3553   -1.8445 H   0  0  0  0  0  0  0  0  0  0  0  0
   -3.3094    2.5680   -2.1018 H   0  0  0  0  0  0  0  0  0  0  0  0
   -3.6956    1.3723   -3.3621 H   0  0  0  0  0  0  0  0  0  0  0  0
   -1.6072    0.7630   -2.1669 H   0  0  0  0  0  0  0  0  0  0  0  0
   -2.5231    0.7418   -0.6106 H   0  0  0  0  0  0  0  0  0  0  0  0
   -3.5995   -3.1574   -2.3993 H   0  0  0  0  0  0  0  0  0  0  0  0
   -2.3518   -5.1880   -1.7598 H   0  0  0  0  0  0  0  0  0  0  0  0
   -0.2038   -5.0045   -0.5160 H   0  0  0  0  0  0  0  0  0  0  0  0
    2.4902   -0.3559    1.2128 H   0  0  0  0  0  0  0  0  0  0  0  0
    3.6608    0.7085    2.6969 H   0  0  0  0  0  0  0  0  0  0  0  0
    5.3071    2.6247    3.4338 H   0  0  0  0  0  0  0  0  0  0  0  0
  1  2  1  0
  2  3  1  0
  3  4  1  0
  4  5  2  0
  5  6  1  0
  6  7  2  0
  7  8  1  0
  8  9  1  0
  9 10  1  0
 10 11  1  0
 11 12  1  0
 12 13  2  0
 12 14  1  0
 14 15  2  0
 15 16  1  0
 16 17  2  0
 17 18  1  0
 17 19  1  0
 10 20  2  0
 20 21  1  0
 21  4  1  0
 21  8  2  0
 19 14  1  0
  1 22  1  0
  1 23  1  0
  1 24  1  0
  2 25  1  0
  2 26  1  0
  5 27  1  0
  6 28  1  0
  7 29  1  0
 11 30  1  0
 15 31  1  0
 16 32  1  0
M  END
$$$$
