
     RDKit          3D

 35 36  0  0  0  0  0  0  0  0999 V2000
   -5.9290    0.3222    1.2888 C   0  0  0  0  0  0  0  0  0  0  0  0
   -4.8665    1.2612    0.7807 C   0  0  0  0  0  0  0  0  0  0  0  0
   -4.9583    2.4760    0.9455 O   0  0  0  0  0  0  0  0  0  0  0  0
   -3.6855    0.6981    0.0606 C   0  0  0  0  0  0  0  0  0  0  0  0
   -3.5641   -0.6676   -0.2244 C   0  0  0  0  0  0  0  0  0  0  0  0
   -2.4363   -1.1460   -0.9005 C   0  0  0  0  0  0  0  0  0  0  0  0
   -1.4328   -0.2621   -1.2974 C   0  0  0  0  0  0  0  0  0  0  0  0
   -0.2582   -0.7536   -1.9370 N   0  0  0  0  0  0  0  0  0  0  0  0
    1.0044   -1.2821   -0.9212 S   0  0  0  0  0  6  0  0  0  0  0  0
    1.6642   -2.3182   -1.6906 O   0  0  0  0  0  0  0  0  0  0  0  0
    0.4719   -1.5468    0.3980 O   0  0  0  0  0  0  0  0  0  0  0  0
    2.0527    0.1784   -0.8923 C   0  0  0  0  0  0  0  0  0  0  0  0
    3.2950   -0.1185   -0.0913 C   0  0  0  0  0  0  0  0  0  0  0  0
    3.3127    0.0863    1.2969 C   0  0  0  0  0  0  0  0  0  0  0  0
    4.4620   -0.1937    2.0397 C   0  0  0  0  0  0  0  0  0  0  0  0
    5.5987   -0.6820    1.4002 C   0  0  0  0  0  0  0  0  0  0  0  0
    7.0143   -1.0256    2.3155 Cl  0  0  0  0  0  0  0  0  0  0  0  0
    5.5949   -0.8962    0.0240 C   0  0  0  0  0  0  0  0  0  0  0  0
    4.4462   -0.6167   -0.7201 C   0  0  0  0  0  0  0  0  0  0  0  0
   -1.5390    1.0959   -1.0090 C   0  0  0  0  0  0  0  0  0  0  0  0
   -2.6667    1.5759   -0.3380 C   0  0  0  0  0  0  0  0  0  0  0  0
   -6.4249   -0.1753    0.4516 H   0  0  0  0  0  0  0  0  0  0  0  0
   -5.4940   -0.4082    1.9759 H   0  0  0  0  0  0  0  0  0  0  0  0
   -6.6811    0.8955    1.8398 H   0  0  0  0  0  0  0  0  0  0  0  0
   -4.3248   -1.3828    0.0746 H   0  0  0  0  0  0  0  0  0  0  0  0
   -2.3415   -2.2119   -1.0924 H   0  0  0  0  0  0  0  0  0  0  0  0
   -0.4212   -1.4806   -2.6380 H   0  0  0  0  0  0  0  0  0  0  0  0
    2.3031    0.4401   -1.9250 H   0  0  0  0  0  0  0  0  0  0  0  0
    1.4896    0.9999   -0.4408 H   0  0  0  0  0  0  0  0  0  0  0  0
    2.4280    0.4546    1.8145 H   0  0  0  0  0  0  0  0  0  0  0  0
    4.4610   -0.0346    3.1149 H   0  0  0  0  0  0  0  0  0  0  0  0
    6.4787   -1.2856   -0.4744 H   0  0  0  0  0  0  0  0  0  0  0  0
    4.4558   -0.8025   -1.7929 H   0  0  0  0  0  0  0  0  0  0  0  0
   -0.7629    1.7920   -1.3125 H   0  0  0  0  0  0  0  0  0  0  0  0
   -2.7463    2.6407   -0.1233 H   0  0  0  0  0  0  0  0  0  0  0  0
  1  2  1  0
  2  3  2  0
  2  4  1  0
  4  5  2  0
  5  6  1  0
  6  7  2  0
  7  8  1  0
  8  9  1  0
  9 10  2  0
  9 11  2  0
  9 12  1  0
 12 13  1  0
 13 14  2  0
 14 15  1  0
 15 16  2  0
 16 17  1  0
 16 18  1  0
 18 19  2  0
  7 20  1  0
 20 21  2  0
 21  4  1  0
 19 13  1  0
  1 22  1  0
  1 23  1  0
  1 24  1  0
  5 25  1  0
  6 26  1  0
  8 27  1  0
 12 28  1  0
 12 29  1  0
 14 30  1  0
 15 31  1  0
 18 32  1  0
 19 33  1  0
 20 34  1  0
 21 35  1  0
M  END
$$$$
