
     RDKit          3D

 51 55  0  0  0  0  0  0  0  0999 V2000
    2.0727    3.1104   -0.3568 O   0  0  0  0  0  0  0  0  0  0  0  0
    1.1524    2.3908    0.0260 C   0  0  0  0  0  0  0  0  0  0  0  0
   -0.2584    2.9782    0.1727 C   0  0  0  0  0  0  0  0  0  0  0  0
   -1.3596    2.0019    0.1261 N   0  0  0  0  0  0  0  0  0  0  0  0
   -2.0635    1.7631    1.3044 C   0  0  0  0  0  0  0  0  0  0  0  0
   -1.6663    2.1388    2.4069 O   0  0  0  0  0  0  0  0  0  0  0  0
   -3.3810    1.0383    1.1838 C   0  0  0  0  0  0  0  0  0  0  0  0
   -3.1844   -0.4602    1.3258 C   0  0  0  0  0  0  0  0  0  0  0  0
   -4.4461   -1.2188    1.0662 C   0  0  0  0  0  0  0  0  0  0  0  0
   -5.0936   -2.2278    1.7514 C   0  0  0  0  0  0  0  0  0  0  0  0
   -6.2504   -2.5441    1.0005 C   0  0  0  0  0  0  0  0  0  0  0  0
   -6.2383   -1.7115   -0.0926 C   0  0  0  0  0  0  0  0  0  0  0  0
   -5.1494   -0.9027   -0.0612 O   0  0  0  0  0  0  0  0  0  0  0  0
   -1.8243   -1.1474    0.3047 S   0  0  0  0  0  0  0  0  0  0  0  0
   -1.9151   -0.0804   -1.1333 C   0  0  0  0  0  0  0  0  0  0  0  0
   -2.1455   -0.7210   -2.3597 C   0  0  0  0  0  0  0  0  0  0  0  0
   -2.0779   -0.0113   -3.5559 C   0  0  0  0  0  0  0  0  0  0  0  0
   -1.7583    1.3406   -3.5381 C   0  0  0  0  0  0  0  0  0  0  0  0
   -1.5188    1.9896   -2.3242 C   0  0  0  0  0  0  0  0  0  0  0  0
   -1.6107    1.3018   -1.1031 C   0  0  0  0  0  0  0  0  0  0  0  0
    1.2670    1.0821    0.4589 N   0  0  0  0  0  0  0  0  0  0  0  0
    2.4277    0.2846    0.5152 C   0  0  0  0  0  0  0  0  0  0  0  0
    2.2705   -1.0328    0.9706 C   0  0  0  0  0  0  0  0  0  0  0  0
    3.3691   -1.8901    1.0771 C   0  0  0  0  0  0  0  0  0  0  0  0
    4.6364   -1.4330    0.7367 C   0  0  0  0  0  0  0  0  0  0  0  0
    4.7998   -0.1321    0.2535 C   0  0  0  0  0  0  0  0  0  0  0  0
    3.7021    0.7271    0.1536 C   0  0  0  0  0  0  0  0  0  0  0  0
    6.0161    0.3764   -0.1284 O   0  0  0  0  0  0  0  0  0  0  0  0
    6.9912   -0.6590   -0.2909 C   0  0  0  0  0  0  0  0  0  0  0  0
    6.9357   -1.6364    0.8706 C   0  0  0  0  0  0  0  0  0  0  0  0
    5.6743   -2.3143    0.8972 O   0  0  0  0  0  0  0  0  0  0  0  0
   -0.2701    3.5120    1.1296 H   0  0  0  0  0  0  0  0  0  0  0  0
   -0.4102    3.7383   -0.5980 H   0  0  0  0  0  0  0  0  0  0  0  0
   -3.8872    1.3260    0.2552 H   0  0  0  0  0  0  0  0  0  0  0  0
   -4.0399    1.4070    1.9807 H   0  0  0  0  0  0  0  0  0  0  0  0
   -2.8834   -0.6643    2.3628 H   0  0  0  0  0  0  0  0  0  0  0  0
   -4.7651   -2.6823    2.6768 H   0  0  0  0  0  0  0  0  0  0  0  0
   -6.9996   -3.2899    1.2265 H   0  0  0  0  0  0  0  0  0  0  0  0
   -6.8948   -1.5774   -0.9403 H   0  0  0  0  0  0  0  0  0  0  0  0
   -2.3629   -1.7869   -2.3930 H   0  0  0  0  0  0  0  0  0  0  0  0
   -2.2571   -0.5186   -4.5003 H   0  0  0  0  0  0  0  0  0  0  0  0
   -1.6953    1.8959   -4.4712 H   0  0  0  0  0  0  0  0  0  0  0  0
   -1.2985    3.0523   -2.3655 H   0  0  0  0  0  0  0  0  0  0  0  0
    0.4045    0.6392    0.7582 H   0  0  0  0  0  0  0  0  0  0  0  0
    1.2914   -1.4116    1.2554 H   0  0  0  0  0  0  0  0  0  0  0  0
    3.2360   -2.9053    1.4404 H   0  0  0  0  0  0  0  0  0  0  0  0
    3.8768    1.7338   -0.2108 H   0  0  0  0  0  0  0  0  0  0  0  0
    6.8090   -1.1624   -1.2482 H   0  0  0  0  0  0  0  0  0  0  0  0
    7.9755   -0.1830   -0.3380 H   0  0  0  0  0  0  0  0  0  0  0  0
    7.0791   -1.1286    1.8326 H   0  0  0  0  0  0  0  0  0  0  0  0
    7.7181   -2.3949    0.7652 H   0  0  0  0  0  0  0  0  0  0  0  0
  1  2  2  0
  2  3  1  0
  3  4  1  0
  4  5  1  0
  5  6  2  0
  5  7  1  0
  7  8  1  0
  8  9  1  0
  9 10  2  0
 10 11  1  0
 11 12  2  0
 12 13  1  0
  8 14  1  0
 14 15  1  0
 15 16  2  0
 16 17  1  0
 17 18  2  0
 18 19  1  0
 19 20  2  0
  2 21  1  0
 21 22  1  0
 22 23  2  0
 23 24  1  0
 24 25  2  0
 25 26  1  0
 26 27  2  0
 26 28  1  0
 28 29  1  0
 29 30  1  0
 30 31  1  0
 20  4  1  0
 27 22  1  0
 13  9  1  0
 20 15  1  0
 31 25  1  0
  3 32  1  0
  3 33  1  0
  7 34  1  0
  7 35  1  0
  8 36  1  0
 10 37  1  0
 11 38  1  0
 12 39  1  0
 16 40  1  0
 17 41  1  0
 18 42  1  0
 19 43  1  0
 21 44  1  0
 23 45  1  0
 24 46  1  0
 27 47  1  0
 29 48  1  0
 29 49  1  0
 30 50  1  0
 30 51  1  0
M  END
$$$$
