
     RDKit          3D

 37 38  0  0  0  0  0  0  0  0999 V2000
    4.8720   -0.0460   -2.0657 C   0  0  0  0  0  0  0  0  0  0  0  0
    5.0272    0.2261   -0.5803 C   0  0  0  0  0  0  0  0  0  0  0  0
    3.8189   -0.0792    0.1607 N   0  0  0  0  0  0  0  0  0  0  0  0
    2.8466    0.7995    0.5366 C   0  0  0  0  0  0  0  0  0  0  0  0
    1.9075    0.0660    1.2345 C   0  0  0  0  0  0  0  0  0  0  0  0
    0.6500    0.5474    1.8568 C   0  0  0  0  0  0  0  0  0  0  0  0
   -0.4267    0.3132    0.9240 N   0  0  0  0  0  0  0  0  0  0  0  0
   -1.7329    0.4868    1.3187 C   0  0  0  0  0  0  0  0  0  0  0  0
   -2.0609    0.7757    2.4629 O   0  0  0  0  0  0  0  0  0  0  0  0
   -2.7696    0.3387    0.2611 C   0  0  0  0  0  0  0  0  0  0  0  0
   -2.5742   -0.4914   -0.8530 C   0  0  0  0  0  0  0  0  0  0  0  0
   -3.5737   -0.6167   -1.8216 C   0  0  0  0  0  0  0  0  0  0  0  0
   -4.7751    0.0792   -1.6814 C   0  0  0  0  0  0  0  0  0  0  0  0
   -4.9745    0.8976   -0.5606 C   0  0  0  0  0  0  0  0  0  0  0  0
   -6.2401    1.6264   -0.4118 N   0  0  0  0  0  4  0  0  0  0  0  0
   -7.1384    1.3912   -1.2325 O   0  0  0  0  0  0  0  0  0  0  0  0
   -6.3331    2.4377    0.5194 O   0  0  0  0  0  1  0  0  0  0  0  0
   -3.9791    1.0283    0.4155 C   0  0  0  0  0  0  0  0  0  0  0  0
    2.4168   -1.2624    1.2147 C   0  0  0  0  0  0  0  0  0  0  0  0
    1.8139   -2.4785    1.8158 C   0  0  0  0  0  0  0  0  0  0  0  0
    3.5753   -1.3416    0.5492 N   0  0  0  0  0  0  0  0  0  0  0  0
    4.6418   -1.1002   -2.2530 H   0  0  0  0  0  0  0  0  0  0  0  0
    4.0613    0.5534   -2.4935 H   0  0  0  0  0  0  0  0  0  0  0  0
    5.7968    0.2009   -2.5961 H   0  0  0  0  0  0  0  0  0  0  0  0
    5.2669    1.2809   -0.4073 H   0  0  0  0  0  0  0  0  0  0  0  0
    5.8380   -0.3763   -0.1559 H   0  0  0  0  0  0  0  0  0  0  0  0
    2.9018    1.8507    0.2900 H   0  0  0  0  0  0  0  0  0  0  0  0
    0.4396    0.0277    2.7977 H   0  0  0  0  0  0  0  0  0  0  0  0
    0.6940    1.6221    2.0654 H   0  0  0  0  0  0  0  0  0  0  0  0
   -0.1967    0.3382   -0.0598 H   0  0  0  0  0  0  0  0  0  0  0  0
   -1.6608   -1.0707   -0.9669 H   0  0  0  0  0  0  0  0  0  0  0  0
   -3.4194   -1.2660   -2.6814 H   0  0  0  0  0  0  0  0  0  0  0  0
   -5.5440   -0.0311   -2.4444 H   0  0  0  0  0  0  0  0  0  0  0  0
   -4.1301    1.6567    1.2925 H   0  0  0  0  0  0  0  0  0  0  0  0
    1.7310   -2.3652    2.9013 H   0  0  0  0  0  0  0  0  0  0  0  0
    0.8125   -2.6493    1.4078 H   0  0  0  0  0  0  0  0  0  0  0  0
    2.4172   -3.3696    1.6137 H   0  0  0  0  0  0  0  0  0  0  0  0
  1  2  1  0
  2  3  1  0
  3  4  1  0
  4  5  2  0
  5  6  1  0
  6  7  1  0
  7  8  1  0
  8  9  2  0
  8 10  1  0
 10 11  2  0
 11 12  1  0
 12 13  2  0
 13 14  1  0
 14 15  1  0
 15 16  2  0
 15 17  1  0
 14 18  2  0
  5 19  1  0
 19 20  1  0
 19 21  2  0
 21  3  1  0
 18 10  1  0
  1 22  1  0
  1 23  1  0
  1 24  1  0
  2 25  1  0
  2 26  1  0
  4 27  1  0
  6 28  1  0
  6 29  1  0
  7 30  1  0
 11 31  1  0
 12 32  1  0
 13 33  1  0
 18 34  1  0
 20 35  1  0
 20 36  1  0
 20 37  1  0
M  CHG  2  15   1  17  -1
M  END
$$$$
