
     RDKit          3D

 36 37  0  0  0  0  0  0  0  0999 V2000
   -4.0141   -0.4728    1.1774 C   0  0  0  0  0  0  0  0  0  0  0  0
   -2.7099    0.3171    1.2375 C   0  0  0  0  0  0  0  0  0  0  0  0
   -1.7214    0.0359    0.1816 N   0  0  0  0  0  0  0  0  0  0  0  0
   -2.2117    0.3260   -1.1860 C   0  0  0  0  0  0  0  0  0  0  0  0
   -2.5054    1.8196   -1.4013 C   0  0  0  0  0  0  0  0  0  0  0  0
   -1.3867    2.6038   -0.9922 O   0  0  0  0  0  0  0  0  0  0  0  0
   -1.2030   -1.3392    0.2924 C   0  0  0  0  0  0  0  0  0  0  0  0
    0.1414   -1.4492   -0.3783 C   0  0  0  0  0  0  0  0  0  0  0  0
    0.3832   -2.2350   -1.4894 C   0  0  0  0  0  0  0  0  0  0  0  0
    2.0007   -2.1704   -2.0121 S   0  0  0  0  0  0  0  0  0  0  0  0
    2.4423   -1.0875   -0.7513 C   0  0  0  0  0  0  0  0  0  0  0  0
    3.7235   -0.5470   -0.5142 C   0  0  0  0  0  0  0  0  0  0  0  0
    3.9143    0.3344    0.5586 C   0  0  0  0  0  0  0  0  0  0  0  0
    5.2785    0.8940    0.8385 C   0  0  0  0  0  0  0  0  0  0  0  0
    2.8422    0.6427    1.3913 C   0  0  0  0  0  0  0  0  0  0  0  0
    1.5739    0.1024    1.1520 C   0  0  0  0  0  0  0  0  0  0  0  0
    1.3504   -0.7787    0.0637 C   0  0  0  0  0  0  0  0  0  0  0  0
   -3.8381   -1.5519    1.2176 H   0  0  0  0  0  0  0  0  0  0  0  0
   -4.6432   -0.2106    2.0348 H   0  0  0  0  0  0  0  0  0  0  0  0
   -4.5853   -0.2456    0.2726 H   0  0  0  0  0  0  0  0  0  0  0  0
   -2.2395    0.1380    2.2133 H   0  0  0  0  0  0  0  0  0  0  0  0
   -2.9452    1.3875    1.2452 H   0  0  0  0  0  0  0  0  0  0  0  0
   -1.4257    0.0687   -1.9057 H   0  0  0  0  0  0  0  0  0  0  0  0
   -3.0891   -0.2758   -1.4468 H   0  0  0  0  0  0  0  0  0  0  0  0
   -2.6936    2.0210   -2.4604 H   0  0  0  0  0  0  0  0  0  0  0  0
   -3.3833    2.1463   -0.8364 H   0  0  0  0  0  0  0  0  0  0  0  0
   -0.9284    2.0644   -0.3153 H   0  0  0  0  0  0  0  0  0  0  0  0
   -1.9097   -2.0673   -0.1258 H   0  0  0  0  0  0  0  0  0  0  0  0
   -1.0551   -1.6127    1.3458 H   0  0  0  0  0  0  0  0  0  0  0  0
   -0.3256   -2.8491   -2.0277 H   0  0  0  0  0  0  0  0  0  0  0  0
    4.5520   -0.8129   -1.1655 H   0  0  0  0  0  0  0  0  0  0  0  0
    5.8287    0.2223    1.5046 H   0  0  0  0  0  0  0  0  0  0  0  0
    5.2076    1.8801    1.3095 H   0  0  0  0  0  0  0  0  0  0  0  0
    5.8476    1.0181   -0.0888 H   0  0  0  0  0  0  0  0  0  0  0  0
    2.9775    1.3137    2.2369 H   0  0  0  0  0  0  0  0  0  0  0  0
    0.7502    0.3695    1.8093 H   0  0  0  0  0  0  0  0  0  0  0  0
  1  2  1  0
  2  3  1  0
  3  4  1  0
  4  5  1  0
  5  6  1  0
  3  7  1  0
  7  8  1  0
  8  9  2  0
  9 10  1  0
 10 11  1  0
 11 12  2  0
 12 13  1  0
 13 14  1  0
 13 15  2  0
 15 16  1  0
 16 17  2  0
 17  8  1  0
 17 11  1  0
  1 18  1  0
  1 19  1  0
  1 20  1  0
  2 21  1  0
  2 22  1  0
  4 23  1  0
  4 24  1  0
  5 25  1  0
  5 26  1  0
  6 27  1  0
  7 28  1  0
  7 29  1  0
  9 30  1  0
 12 31  1  0
 14 32  1  0
 14 33  1  0
 14 34  1  0
 15 35  1  0
 16 36  1  0
M  END
$$$$
