
     RDKit          3D

 37 38  0  0  0  0  0  0  0  0999 V2000
   -5.4013   -0.7402   -2.5703 C   0  0  0  0  0  0  0  0  0  0  0  0
   -5.0132   -0.0241   -1.3556 N   0  0  0  0  0  0  0  0  0  0  0  0
   -6.0756    0.1615   -0.3678 C   0  0  0  0  0  0  0  0  0  0  0  0
   -3.6823   -0.0703   -0.9301 C   0  0  0  0  0  0  0  0  0  0  0  0
   -2.6413   -0.4944   -1.7738 C   0  0  0  0  0  0  0  0  0  0  0  0
   -1.2992   -0.5203   -1.3609 C   0  0  0  0  0  0  0  0  0  0  0  0
   -0.9408   -0.1003   -0.0810 C   0  0  0  0  0  0  0  0  0  0  0  0
    0.4461   -0.1312    0.4030 C   0  0  0  0  0  0  0  0  0  0  0  0
    1.4961    0.2427   -0.3463 C   0  0  0  0  0  0  0  0  0  0  0  0
    2.8861    0.2253    0.1236 C   0  0  0  0  0  0  0  0  0  0  0  0
    3.8995   -0.1180   -0.7697 C   0  0  0  0  0  0  0  0  0  0  0  0
    5.2244   -0.1130   -0.3476 C   0  0  0  0  0  0  0  0  0  0  0  0
    5.5412    0.2292    0.9208 N   0  0  0  0  0  4  0  0  0  0  0  0
    6.9523    0.2384    1.3424 C   0  0  0  0  0  0  0  0  0  0  0  0
    4.5790    0.5905    1.7983 C   0  0  0  0  0  0  0  0  0  0  0  0
    3.2411    0.5975    1.4195 C   0  0  0  0  0  0  0  0  0  0  0  0
   -1.9534    0.3203    0.7793 C   0  0  0  0  0  0  0  0  0  0  0  0
   -3.2917    0.3433    0.3549 C   0  0  0  0  0  0  0  0  0  0  0  0
   -5.1982   -1.8126   -2.4761 H   0  0  0  0  0  0  0  0  0  0  0  0
   -6.4709   -0.6237   -2.7779 H   0  0  0  0  0  0  0  0  0  0  0  0
   -4.8808   -0.3422   -3.4480 H   0  0  0  0  0  0  0  0  0  0  0  0
   -7.0627    0.1836   -0.8433 H   0  0  0  0  0  0  0  0  0  0  0  0
   -6.0791   -0.6544    0.3634 H   0  0  0  0  0  0  0  0  0  0  0  0
   -5.9715    1.1207    0.1505 H   0  0  0  0  0  0  0  0  0  0  0  0
   -2.8463   -0.8211   -2.7889 H   0  0  0  0  0  0  0  0  0  0  0  0
   -0.5514   -0.8818   -2.0614 H   0  0  0  0  0  0  0  0  0  0  0  0
    0.5656   -0.4724    1.4281 H   0  0  0  0  0  0  0  0  0  0  0  0
    1.3431    0.5814   -1.3701 H   0  0  0  0  0  0  0  0  0  0  0  0
    3.6652   -0.3984   -1.7953 H   0  0  0  0  0  0  0  0  0  0  0  0
    6.0371   -0.3781   -1.0181 H   0  0  0  0  0  0  0  0  0  0  0  0
    7.4992   -0.5229    0.7802 H   0  0  0  0  0  0  0  0  0  0  0  0
    7.3489    1.2355    1.1362 H   0  0  0  0  0  0  0  0  0  0  0  0
    7.0087    0.0092    2.4097 H   0  0  0  0  0  0  0  0  0  0  0  0
    4.8891    0.8786    2.7988 H   0  0  0  0  0  0  0  0  0  0  0  0
    2.4860    0.9080    2.1390 H   0  0  0  0  0  0  0  0  0  0  0  0
   -1.7241    0.6517    1.7891 H   0  0  0  0  0  0  0  0  0  0  0  0
   -4.0248    0.7020    1.0714 H   0  0  0  0  0  0  0  0  0  0  0  0
  1  2  1  0
  2  3  1  0
  2  4  1  0
  4  5  2  0
  5  6  1  0
  6  7  2  0
  7  8  1  0
  8  9  2  3
  9 10  1  0
 10 11  2  0
 11 12  1  0
 12 13  2  0
 13 14  1  0
 13 15  1  0
 15 16  2  0
  7 17  1  0
 17 18  2  0
 18  4  1  0
 16 10  1  0
  1 19  1  0
  1 20  1  0
  1 21  1  0
  3 22  1  0
  3 23  1  0
  3 24  1  0
  5 25  1  0
  6 26  1  0
  8 27  1  0
  9 28  1  0
 11 29  1  0
 12 30  1  0
 14 31  1  0
 14 32  1  0
 14 33  1  0
 15 34  1  0
 16 35  1  0
 17 36  1  0
 18 37  1  0
M  CHG  1  13   1
M  END
$$$$
