
     RDKit          3D

 43 45  0  0  0  0  0  0  0  0999 V2000
   -7.9558    1.0247    0.2384 C   0  0  0  0  0  0  0  0  0  0  0  0
   -6.5496    0.6964    0.3959 N   0  0  0  0  0  0  0  0  0  0  0  0
   -6.1528    0.2121    1.7112 C   0  0  0  0  0  0  0  0  0  0  0  0
   -5.6602    1.1687   -0.5690 C   0  0  0  0  0  0  0  0  0  0  0  0
   -5.9904    1.8999   -1.4996 O   0  0  0  0  0  0  0  0  0  0  0  0
   -4.2418    0.7536   -0.4994 C   0  0  0  0  0  0  0  0  0  0  0  0
   -3.2451    1.7296   -0.5065 C   0  0  0  0  0  0  0  0  0  0  0  0
   -1.8973    1.3533   -0.4670 C   0  0  0  0  0  0  0  0  0  0  0  0
   -1.5368    0.0031   -0.4392 C   0  0  0  0  0  0  0  0  0  0  0  0
   -0.2050   -0.4629   -0.4054 N   0  0  0  0  0  0  0  0  0  0  0  0
    0.9602    0.2894   -0.3162 C   0  0  0  0  0  0  0  0  0  0  0  0
    0.9843    1.5119   -0.2103 O   0  0  0  0  0  0  0  0  0  0  0  0
    2.1823   -0.5063   -0.3427 C   0  0  0  0  0  0  0  0  0  0  0  0
    2.4512   -1.8512   -0.5320 C   0  0  0  0  0  0  0  0  0  0  0  0
    3.8589   -2.0076   -0.4456 C   0  0  0  0  0  0  0  0  0  0  0  0
    4.3856   -0.7543   -0.2104 C   0  0  0  0  0  0  0  0  0  0  0  0
    5.7350   -0.2249   -0.0238 C   0  0  0  0  0  0  0  0  0  0  0  0
    5.9550    1.1463    0.1884 C   0  0  0  0  0  0  0  0  0  0  0  0
    7.2478    1.6505    0.3669 C   0  0  0  0  0  0  0  0  0  0  0  0
    8.3369    0.7855    0.3348 C   0  0  0  0  0  0  0  0  0  0  0  0
    9.9280    1.4006    0.5541 Cl  0  0  0  0  0  0  0  0  0  0  0  0
    8.1438   -0.5773    0.1258 C   0  0  0  0  0  0  0  0  0  0  0  0
    6.8492   -1.0787   -0.0525 C   0  0  0  0  0  0  0  0  0  0  0  0
    3.3683    0.1527   -0.1496 O   0  0  0  0  0  0  0  0  0  0  0  0
   -2.5487   -0.9695   -0.4625 C   0  0  0  0  0  0  0  0  0  0  0  0
   -3.8967   -0.5997   -0.4967 C   0  0  0  0  0  0  0  0  0  0  0  0
   -8.1717    1.9314    0.8113 H   0  0  0  0  0  0  0  0  0  0  0  0
   -8.5629    0.1963    0.6151 H   0  0  0  0  0  0  0  0  0  0  0  0
   -8.2098    1.1976   -0.8112 H   0  0  0  0  0  0  0  0  0  0  0  0
   -5.0718    0.1320    1.8295 H   0  0  0  0  0  0  0  0  0  0  0  0
   -6.5206    0.9141    2.4664 H   0  0  0  0  0  0  0  0  0  0  0  0
   -6.6108   -0.7675    1.8748 H   0  0  0  0  0  0  0  0  0  0  0  0
   -3.5120    2.7835   -0.5476 H   0  0  0  0  0  0  0  0  0  0  0  0
   -1.1562    2.1469   -0.4739 H   0  0  0  0  0  0  0  0  0  0  0  0
   -0.0957   -1.4655   -0.4235 H   0  0  0  0  0  0  0  0  0  0  0  0
    1.7356   -2.6383   -0.7192 H   0  0  0  0  0  0  0  0  0  0  0  0
    4.4172   -2.9274   -0.5480 H   0  0  0  0  0  0  0  0  0  0  0  0
    5.1161    1.8406    0.2162 H   0  0  0  0  0  0  0  0  0  0  0  0
    7.3911    2.7155    0.5290 H   0  0  0  0  0  0  0  0  0  0  0  0
    8.9927   -1.2553    0.0999 H   0  0  0  0  0  0  0  0  0  0  0  0
    6.7273   -2.1467   -0.2139 H   0  0  0  0  0  0  0  0  0  0  0  0
   -2.3046   -2.0288   -0.4593 H   0  0  0  0  0  0  0  0  0  0  0  0
   -4.6702   -1.3624   -0.5326 H   0  0  0  0  0  0  0  0  0  0  0  0
  1  2  1  0
  2  3  1  0
  2  4  1  0
  4  5  2  0
  4  6  1  0
  6  7  2  0
  7  8  1  0
  8  9  2  0
  9 10  1  0
 10 11  1  0
 11 12  2  0
 11 13  1  0
 13 14  2  0
 14 15  1  0
 15 16  2  0
 16 17  1  0
 17 18  2  0
 18 19  1  0
 19 20  2  0
 20 21  1  0
 20 22  1  0
 22 23  2  0
 16 24  1  0
  9 25  1  0
 25 26  2  0
 26  6  1  0
 24 13  1  0
 23 17  1  0
  1 27  1  0
  1 28  1  0
  1 29  1  0
  3 30  1  0
  3 31  1  0
  3 32  1  0
  7 33  1  0
  8 34  1  0
 10 35  1  0
 14 36  1  0
 15 37  1  0
 18 38  1  0
 19 39  1  0
 22 40  1  0
 23 41  1  0
 25 42  1  0
 26 43  1  0
M  END
$$$$
