
     RDKit          3D

 36 37  0  0  0  0  0  0  0  0999 V2000
   -6.9740    0.9066    1.2440 C   0  0  0  0  0  0  0  0  0  0  0  0
   -6.4343    0.1914    0.1398 O   0  0  0  0  0  0  0  0  0  0  0  0
   -5.0803    0.0035    0.1245 C   0  0  0  0  0  0  0  0  0  0  0  0
   -4.1780    0.4506    1.0904 C   0  0  0  0  0  0  0  0  0  0  0  0
   -2.8083    0.1887    0.9521 C   0  0  0  0  0  0  0  0  0  0  0  0
   -2.3303   -0.5236   -0.1557 C   0  0  0  0  0  0  0  0  0  0  0  0
   -0.8865   -0.8280   -0.3508 C   0  0  0  0  0  0  0  0  0  0  0  0
   -0.4523   -1.4577   -1.3021 O   0  0  0  0  0  0  0  0  0  0  0  0
   -0.1470   -0.3044    0.6589 O   0  0  0  0  0  0  0  0  0  0  0  0
    1.2677   -0.5516    0.5807 C   0  0  0  0  0  0  0  0  0  0  0  0
    1.9405    0.4728   -0.3316 C   0  0  0  0  0  0  0  0  0  0  0  0
    3.4354    0.2916   -0.3772 C   0  0  0  0  0  0  0  0  0  0  0  0
    4.2719    1.0367    0.4660 C   0  0  0  0  0  0  0  0  0  0  0  0
    5.6562    0.8522    0.4341 C   0  0  0  0  0  0  0  0  0  0  0  0
    6.2022   -0.0822   -0.4399 C   0  0  0  0  0  0  0  0  0  0  0  0
    7.5477   -0.2945   -0.5031 O   0  0  0  0  0  0  0  0  0  0  0  0
    5.3882   -0.8328   -1.2788 C   0  0  0  0  0  0  0  0  0  0  0  0
    4.0055   -0.6481   -1.2476 C   0  0  0  0  0  0  0  0  0  0  0  0
   -3.2378   -0.9709   -1.1223 C   0  0  0  0  0  0  0  0  0  0  0  0
   -4.6027   -0.7069   -0.9796 C   0  0  0  0  0  0  0  0  0  0  0  0
   -8.0577    0.9675    1.1054 H   0  0  0  0  0  0  0  0  0  0  0  0
   -6.5847    1.9295    1.2799 H   0  0  0  0  0  0  0  0  0  0  0  0
   -6.7877    0.3788    2.1852 H   0  0  0  0  0  0  0  0  0  0  0  0
   -4.5044    1.0054    1.9641 H   0  0  0  0  0  0  0  0  0  0  0  0
   -2.1277    0.5479    1.7202 H   0  0  0  0  0  0  0  0  0  0  0  0
    1.6582   -0.4632    1.6010 H   0  0  0  0  0  0  0  0  0  0  0  0
    1.4641   -1.5829    0.2610 H   0  0  0  0  0  0  0  0  0  0  0  0
    1.6922    1.4871    0.0068 H   0  0  0  0  0  0  0  0  0  0  0  0
    1.5319    0.4117   -1.3479 H   0  0  0  0  0  0  0  0  0  0  0  0
    3.8496    1.7673    1.1525 H   0  0  0  0  0  0  0  0  0  0  0  0
    6.2855    1.4412    1.0932 H   0  0  0  0  0  0  0  0  0  0  0  0
    7.9842    0.3031    0.1254 H   0  0  0  0  0  0  0  0  0  0  0  0
    5.8275   -1.5599   -1.9557 H   0  0  0  0  0  0  0  0  0  0  0  0
    3.3749   -1.2415   -1.9071 H   0  0  0  0  0  0  0  0  0  0  0  0
   -2.8895   -1.5267   -1.9909 H   0  0  0  0  0  0  0  0  0  0  0  0
   -5.3002   -1.0589   -1.7365 H   0  0  0  0  0  0  0  0  0  0  0  0
  1  2  1  0
  2  3  1  0
  3  4  2  0
  4  5  1  0
  5  6  2  0
  6  7  1  0
  7  8  2  0
  7  9  1  0
  9 10  1  0
 10 11  1  0
 11 12  1  0
 12 13  2  0
 13 14  1  0
 14 15  2  0
 15 16  1  0
 15 17  1  0
 17 18  2  0
  6 19  1  0
 19 20  2  0
 20  3  1  0
 18 12  1  0
  1 21  1  0
  1 22  1  0
  1 23  1  0
  4 24  1  0
  5 25  1  0
 10 26  1  0
 10 27  1  0
 11 28  1  0
 11 29  1  0
 13 30  1  0
 14 31  1  0
 16 32  1  0
 17 33  1  0
 18 34  1  0
 19 35  1  0
 20 36  1  0
M  END
$$$$
