
     RDKit          3D

 43 44  0  0  0  0  0  0  0  0999 V2000
   -2.5119   -2.6017   -0.5532 C   0  0  0  0  0  0  0  0  0  0  0  0
   -2.8216   -1.8165    0.7067 C   0  0  0  0  0  0  0  0  0  0  0  0
   -3.3213   -0.4628    0.3432 N   0  0  0  0  0  4  0  0  0  0  0  0
   -4.6586   -0.3073    0.1696 C   0  0  0  0  0  0  0  0  0  0  0  0
   -5.2120    0.9205   -0.1875 C   0  0  0  0  0  0  0  0  0  0  0  0
   -6.6902    1.0588   -0.4066 C   0  0  0  0  0  0  0  0  0  0  0  0
   -4.3611    1.9997   -0.3949 C   0  0  0  0  0  0  0  0  0  0  0  0
   -2.9938    1.8356   -0.2166 C   0  0  0  0  0  0  0  0  0  0  0  0
   -2.4761    0.5898    0.1581 C   0  0  0  0  0  0  0  0  0  0  0  0
   -1.0339    0.4377    0.3622 C   0  0  0  0  0  0  0  0  0  0  0  0
   -0.1515    0.5555   -0.6427 C   0  0  0  0  0  0  0  0  0  0  0  0
    1.2936    0.3715   -0.4616 C   0  0  0  0  0  0  0  0  0  0  0  0
    1.9838    0.8775    0.6387 C   0  0  0  0  0  0  0  0  0  0  0  0
    3.3689    0.6842    0.7646 C   0  0  0  0  0  0  0  0  0  0  0  0
    4.1267    0.0009   -0.2017 C   0  0  0  0  0  0  0  0  0  0  0  0
    5.5006   -0.2117   -0.0562 N   0  0  0  0  0  0  0  0  0  0  0  0
    6.2451    0.5699    0.9316 C   0  0  0  0  0  0  0  0  0  0  0  0
    6.2800   -0.6720   -1.2059 C   0  0  0  0  0  0  0  0  0  0  0  0
    3.4052   -0.4904   -1.3029 C   0  0  0  0  0  0  0  0  0  0  0  0
    2.0208   -0.3025   -1.4409 C   0  0  0  0  0  0  0  0  0  0  0  0
   -3.4023   -2.7036   -1.1819 H   0  0  0  0  0  0  0  0  0  0  0  0
   -2.1590   -3.6052   -0.2969 H   0  0  0  0  0  0  0  0  0  0  0  0
   -1.7389   -2.1114   -1.1520 H   0  0  0  0  0  0  0  0  0  0  0  0
   -3.6019   -2.3155    1.2929 H   0  0  0  0  0  0  0  0  0  0  0  0
   -1.9498   -1.7245    1.3590 H   0  0  0  0  0  0  0  0  0  0  0  0
   -5.2819   -1.1864    0.3150 H   0  0  0  0  0  0  0  0  0  0  0  0
   -7.2461    0.3678    0.2358 H   0  0  0  0  0  0  0  0  0  0  0  0
   -7.0277    2.0717   -0.1629 H   0  0  0  0  0  0  0  0  0  0  0  0
   -6.9351    0.8452   -1.4516 H   0  0  0  0  0  0  0  0  0  0  0  0
   -4.7539    2.9720   -0.6923 H   0  0  0  0  0  0  0  0  0  0  0  0
   -2.3305    2.6866   -0.3670 H   0  0  0  0  0  0  0  0  0  0  0  0
   -0.7115    0.2098    1.3749 H   0  0  0  0  0  0  0  0  0  0  0  0
   -0.4704    0.7604   -1.6637 H   0  0  0  0  0  0  0  0  0  0  0  0
    1.4722    1.4385    1.4163 H   0  0  0  0  0  0  0  0  0  0  0  0
    3.8410    1.0930    1.6535 H   0  0  0  0  0  0  0  0  0  0  0  0
    7.3083    0.3042    0.9315 H   0  0  0  0  0  0  0  0  0  0  0  0
    5.8865    0.3695    1.9468 H   0  0  0  0  0  0  0  0  0  0  0  0
    6.1725    1.6424    0.7196 H   0  0  0  0  0  0  0  0  0  0  0  0
    7.3371   -0.7985   -0.9460 H   0  0  0  0  0  0  0  0  0  0  0  0
    5.9370   -1.6538   -1.5495 H   0  0  0  0  0  0  0  0  0  0  0  0
    6.2259    0.0472   -2.0306 H   0  0  0  0  0  0  0  0  0  0  0  0
    3.9051   -1.0408   -2.0948 H   0  0  0  0  0  0  0  0  0  0  0  0
    1.5309   -0.7054   -2.3244 H   0  0  0  0  0  0  0  0  0  0  0  0
  1  2  1  0
  2  3  1  0
  3  4  2  0
  4  5  1  0
  5  6  1  0
  5  7  2  0
  7  8  1  0
  8  9  2  0
  9 10  1  0
 10 11  2  3
 11 12  1  0
 12 13  2  0
 13 14  1  0
 14 15  2  0
 15 16  1  0
 16 17  1  0
 16 18  1  0
 15 19  1  0
 19 20  2  0
  9  3  1  0
 20 12  1  0
  1 21  1  0
  1 22  1  0
  1 23  1  0
  2 24  1  0
  2 25  1  0
  4 26  1  0
  6 27  1  0
  6 28  1  0
  6 29  1  0
  7 30  1  0
  8 31  1  0
 10 32  1  0
 11 33  1  0
 13 34  1  0
 14 35  1  0
 17 36  1  0
 17 37  1  0
 17 38  1  0
 18 39  1  0
 18 40  1  0
 18 41  1  0
 19 42  1  0
 20 43  1  0
M  CHG  1   3   1
M  END
$$$$
