
     RDKit          3D

 67 72  0  0  0  0  0  0  0  0999 V2000
    3.4832   -2.1070    0.7911 O   0  0  0  0  0  0  0  0  0  0  0  0
    3.1227   -1.0033    0.3676 C   0  0  0  0  0  0  0  0  0  0  0  0
    4.1593    0.0134   -0.1463 C   0  0  0  0  0  0  0  0  0  0  0  0
    5.5038   -0.1072    0.6040 C   0  0  0  0  0  0  0  0  0  0  0  0
    5.4586    0.2285    2.0818 C   0  0  0  0  0  0  0  0  0  0  0  0
    5.5155    1.5599    2.5181 C   0  0  0  0  0  0  0  0  0  0  0  0
    5.4473    1.8651    3.8778 C   0  0  0  0  0  0  0  0  0  0  0  0
    5.3268    0.8437    4.8180 C   0  0  0  0  0  0  0  0  0  0  0  0
    5.2772   -0.4843    4.3989 C   0  0  0  0  0  0  0  0  0  0  0  0
    5.3451   -0.7899    3.0392 C   0  0  0  0  0  0  0  0  0  0  0  0
    3.6783    1.3905   -0.1237 N   0  0  0  0  0  0  0  0  0  0  0  0
    2.3798    1.5633   -0.5860 C   0  0  0  0  0  0  0  0  0  0  0  0
    2.1736    2.7409   -1.1959 N   0  0  0  0  0  0  0  0  0  0  0  0
    0.9223    2.9892   -1.5744 C   0  0  0  0  0  0  0  0  0  0  0  0
   -0.1258    2.1858   -1.3837 N   0  0  0  0  0  0  0  0  0  0  0  0
    0.0979    1.0096   -0.7522 C   0  0  0  0  0  0  0  0  0  0  0  0
   -1.0475    0.2266   -0.4883 N   0  0  0  0  0  0  0  0  0  0  0  0
   -1.8470   -0.0114   -1.7210 C   0  0  0  0  0  0  0  0  0  0  0  0
   -3.1039    0.8812   -1.8250 C   0  0  0  0  0  0  0  0  0  0  0  0
   -3.9871    0.6950   -0.6548 N   0  0  0  0  0  0  0  0  0  0  0  0
   -5.2940    1.1614   -0.6525 C   0  0  0  0  0  0  0  0  0  0  0  0
   -5.7906    2.0142   -1.6520 C   0  0  0  0  0  0  0  0  0  0  0  0
   -7.1079    2.4888   -1.6367 C   0  0  0  0  0  0  0  0  0  0  0  0
   -7.9736    2.1095   -0.6201 C   0  0  0  0  0  0  0  0  0  0  0  0
   -7.5241    1.2471    0.3705 C   0  0  0  0  0  0  0  0  0  0  0  0
   -6.2051    0.7798    0.3473 C   0  0  0  0  0  0  0  0  0  0  0  0
   -3.3024    0.3882    0.6202 C   0  0  0  0  0  0  0  0  0  0  0  0
   -1.8334    0.8686    0.6024 C   0  0  0  0  0  0  0  0  0  0  0  0
    1.3851    0.6062   -0.3581 C   0  0  0  0  0  0  0  0  0  0  0  0
    1.7695   -0.6702    0.1999 N   0  0  0  0  0  0  0  0  0  0  0  0
    0.8011   -1.7164    0.5077 C   0  0  0  0  0  0  0  0  0  0  0  0
    0.4251   -2.6362   -0.6433 C   0  0  0  0  0  0  0  0  0  0  0  0
   -0.4051   -3.7402   -0.3674 C   0  0  0  0  0  0  0  0  0  0  0  0
   -0.7707   -4.6365   -1.3758 C   0  0  0  0  0  0  0  0  0  0  0  0
   -0.3133   -4.4331   -2.6740 C   0  0  0  0  0  0  0  0  0  0  0  0
   -0.7908   -5.6529   -4.0405 Br  0  0  0  0  0  0  0  0  0  0  0  0
    0.5000   -3.3410   -2.9747 C   0  0  0  0  0  0  0  0  0  0  0  0
    0.8691   -2.4493   -1.9636 C   0  0  0  0  0  0  0  0  0  0  0  0
    4.3469   -0.2615   -1.1950 H   0  0  0  0  0  0  0  0  0  0  0  0
    5.9042   -1.1236    0.4822 H   0  0  0  0  0  0  0  0  0  0  0  0
    6.2426    0.5537    0.1290 H   0  0  0  0  0  0  0  0  0  0  0  0
    5.5998    2.3712    1.7989 H   0  0  0  0  0  0  0  0  0  0  0  0
    5.4800    2.9015    4.2032 H   0  0  0  0  0  0  0  0  0  0  0  0
    5.2624    1.0832    5.8747 H   0  0  0  0  0  0  0  0  0  0  0  0
    5.1790   -1.2842    5.1282 H   0  0  0  0  0  0  0  0  0  0  0  0
    5.2941   -1.8326    2.7281 H   0  0  0  0  0  0  0  0  0  0  0  0
    4.2730    2.0933   -0.5482 H   0  0  0  0  0  0  0  0  0  0  0  0
    0.7357    3.9337   -2.0735 H   0  0  0  0  0  0  0  0  0  0  0  0
   -2.1746   -1.0589   -1.6870 H   0  0  0  0  0  0  0  0  0  0  0  0
   -1.2395    0.0848   -2.6312 H   0  0  0  0  0  0  0  0  0  0  0  0
   -3.6317    0.5987   -2.7441 H   0  0  0  0  0  0  0  0  0  0  0  0
   -2.8139    1.9358   -1.9055 H   0  0  0  0  0  0  0  0  0  0  0  0
   -5.1530    2.3502   -2.4625 H   0  0  0  0  0  0  0  0  0  0  0  0
   -7.4475    3.1602   -2.4210 H   0  0  0  0  0  0  0  0  0  0  0  0
   -8.9929    2.4788   -0.6015 H   0  0  0  0  0  0  0  0  0  0  0  0
   -8.1952    0.9314    1.1637 H   0  0  0  0  0  0  0  0  0  0  0  0
   -5.9048    0.0827    1.1243 H   0  0  0  0  0  0  0  0  0  0  0  0
   -3.7925    0.8792    1.4692 H   0  0  0  0  0  0  0  0  0  0  0  0
   -3.3404   -0.6954    0.7866 H   0  0  0  0  0  0  0  0  0  0  0  0
   -1.3680    0.6265    1.5653 H   0  0  0  0  0  0  0  0  0  0  0  0
   -1.8373    1.9641    0.5104 H   0  0  0  0  0  0  0  0  0  0  0  0
   -0.0813   -1.2952    0.9915 H   0  0  0  0  0  0  0  0  0  0  0  0
    1.2369   -2.3608    1.2839 H   0  0  0  0  0  0  0  0  0  0  0  0
   -0.7662   -3.9157    0.6450 H   0  0  0  0  0  0  0  0  0  0  0  0
   -1.4019   -5.4894   -1.1339 H   0  0  0  0  0  0  0  0  0  0  0  0
    0.8601   -3.1800   -3.9876 H   0  0  0  0  0  0  0  0  0  0  0  0
    1.5072   -1.6096   -2.2280 H   0  0  0  0  0  0  0  0  0  0  0  0
  1  2  2  0
  2  3  1  0
  3  4  1  0
  4  5  1  0
  5  6  2  0
  6  7  1  0
  7  8  2  0
  8  9  1  0
  9 10  2  0
  3 11  1  0
 11 12  1  0
 12 13  2  0
 13 14  1  0
 14 15  2  0
 15 16  1  0
 16 17  1  0
 17 18  1  0
 18 19  1  0
 19 20  1  0
 20 21  1  0
 21 22  2  0
 22 23  1  0
 23 24  2  0
 24 25  1  0
 25 26  2  0
 20 27  1  0
 27 28  1  0
 16 29  2  0
 29 30  1  0
 30 31  1  0
 31 32  1  0
 32 33  2  0
 33 34  1  0
 34 35  2  0
 35 36  1  0
 35 37  1  0
 37 38  2  0
 30  2  1  0
 38 32  1  0
 10  5  1  0
 29 12  1  0
 28 17  1  0
 26 21  1  0
  3 39  1  0
  4 40  1  0
  4 41  1  0
  6 42  1  0
  7 43  1  0
  8 44  1  0
  9 45  1  0
 10 46  1  0
 11 47  1  0
 14 48  1  0
 18 49  1  0
 18 50  1  0
 19 51  1  0
 19 52  1  0
 22 53  1  0
 23 54  1  0
 24 55  1  0
 25 56  1  0
 26 57  1  0
 27 58  1  0
 27 59  1  0
 28 60  1  0
 28 61  1  0
 31 62  1  0
 31 63  1  0
 33 64  1  0
 34 65  1  0
 37 66  1  0
 38 67  1  0
M  END
$$$$
