
     RDKit          3D

 46 47  0  0  0  0  0  0  0  0999 V2000
    1.3088    2.5698   -3.1001 C   0  0  0  0  0  0  0  0  0  0  0  0
    2.4873    1.9802   -2.3661 C   0  0  0  0  0  0  0  0  0  0  0  0
    3.4662    2.6683   -2.0957 O   0  0  0  0  0  0  0  0  0  0  0  0
    2.2912    0.6553   -2.0398 N   0  0  0  0  0  0  0  0  0  0  0  0
    3.1656   -0.2134   -1.3527 C   0  0  0  0  0  0  0  0  0  0  0  0
    4.4464    0.1483   -0.9323 C   0  0  0  0  0  0  0  0  0  0  0  0
    5.2637   -0.7753   -0.2692 C   0  0  0  0  0  0  0  0  0  0  0  0
    4.8134   -2.0723   -0.0273 C   0  0  0  0  0  0  0  0  0  0  0  0
    3.5386   -2.4494   -0.4403 C   0  0  0  0  0  0  0  0  0  0  0  0
    2.7175   -1.5176   -1.0799 C   0  0  0  0  0  0  0  0  0  0  0  0
    1.4748   -1.9232   -1.5025 O   0  0  0  0  0  0  0  0  0  0  0  0
    0.5084   -1.8456   -0.4444 C   0  0  0  0  0  0  0  0  0  0  0  0
   -0.2394   -3.1739   -0.4120 C   0  0  0  0  0  0  0  0  0  0  0  0
   -0.4716   -0.6895   -0.7199 C   0  0  0  0  0  0  0  0  0  0  0  0
   -0.4229   -0.0032   -1.7407 O   0  0  0  0  0  0  0  0  0  0  0  0
   -1.3895   -0.4626    0.2830 N   0  0  0  0  0  0  0  0  0  0  0  0
   -2.3663    0.6120    0.2085 C   0  0  0  0  0  0  0  0  0  0  0  0
   -3.5144    0.2561   -0.7408 C   0  0  0  0  0  0  0  0  0  0  0  0
   -2.8411    0.9532    1.6113 C   0  0  0  0  0  0  0  0  0  0  0  0
   -3.7536    0.1391    2.3064 C   0  0  0  0  0  0  0  0  0  0  0  0
   -4.1489    0.4642    3.6057 C   0  0  0  0  0  0  0  0  0  0  0  0
   -3.6284    1.5962    4.2193 C   0  0  0  0  0  0  0  0  0  0  0  0
   -4.0070    1.9039    5.4665 F   0  0  0  0  0  0  0  0  0  0  0  0
   -2.7165    2.4093    3.5597 C   0  0  0  0  0  0  0  0  0  0  0  0
   -2.3200    2.0869    2.2603 C   0  0  0  0  0  0  0  0  0  0  0  0
    0.8668    1.8386   -3.7832 H   0  0  0  0  0  0  0  0  0  0  0  0
    0.5584    2.8978   -2.3761 H   0  0  0  0  0  0  0  0  0  0  0  0
    1.6422    3.4269   -3.6921 H   0  0  0  0  0  0  0  0  0  0  0  0
    1.3824    0.2543   -2.2798 H   0  0  0  0  0  0  0  0  0  0  0  0
    4.8453    1.1415   -1.1140 H   0  0  0  0  0  0  0  0  0  0  0  0
    6.2611   -0.4776    0.0463 H   0  0  0  0  0  0  0  0  0  0  0  0
    5.4607   -2.7882    0.4724 H   0  0  0  0  0  0  0  0  0  0  0  0
    3.1914   -3.4645   -0.2736 H   0  0  0  0  0  0  0  0  0  0  0  0
    0.9750   -1.6669    0.5347 H   0  0  0  0  0  0  0  0  0  0  0  0
   -0.9775   -3.2074    0.3951 H   0  0  0  0  0  0  0  0  0  0  0  0
   -0.7634   -3.3486   -1.3587 H   0  0  0  0  0  0  0  0  0  0  0  0
    0.4604   -4.0054   -0.2767 H   0  0  0  0  0  0  0  0  0  0  0  0
   -1.3406   -0.9977    1.1404 H   0  0  0  0  0  0  0  0  0  0  0  0
   -1.8605    1.4891   -0.2165 H   0  0  0  0  0  0  0  0  0  0  0  0
   -3.9988   -0.6868   -0.4646 H   0  0  0  0  0  0  0  0  0  0  0  0
   -4.2771    1.0424   -0.7476 H   0  0  0  0  0  0  0  0  0  0  0  0
   -3.1491    0.1356   -1.7664 H   0  0  0  0  0  0  0  0  0  0  0  0
   -4.1648   -0.7560    1.8454 H   0  0  0  0  0  0  0  0  0  0  0  0
   -4.8574   -0.1583    4.1431 H   0  0  0  0  0  0  0  0  0  0  0  0
   -2.3182    3.2864    4.0600 H   0  0  0  0  0  0  0  0  0  0  0  0
   -1.5985    2.7280    1.7562 H   0  0  0  0  0  0  0  0  0  0  0  0
  1  2  1  0
  2  3  2  0
  2  4  1  0
  4  5  1  0
  5  6  2  0
  6  7  1  0
  7  8  2  0
  8  9  1  0
  9 10  2  0
 10 11  1  0
 11 12  1  0
 12 13  1  0
 12 14  1  0
 14 15  2  0
 14 16  1  0
 16 17  1  0
 17 18  1  0
 17 19  1  0
 19 20  2  0
 20 21  1  0
 21 22  2  0
 22 23  1  0
 22 24  1  0
 24 25  2  0
 10  5  1  0
 25 19  1  0
  1 26  1  0
  1 27  1  0
  1 28  1  0
  4 29  1  0
  6 30  1  0
  7 31  1  0
  8 32  1  0
  9 33  1  0
 12 34  1  0
 13 35  1  0
 13 36  1  0
 13 37  1  0
 16 38  1  0
 17 39  1  0
 18 40  1  0
 18 41  1  0
 18 42  1  0
 20 43  1  0
 21 44  1  0
 24 45  1  0
 25 46  1  0
M  END
$$$$
