
     RDKit          3D

 56 58  0  0  0  0  0  0  0  0999 V2000
   -6.5193    0.7248   -2.6808 C   0  0  0  0  0  0  0  0  0  0  0  0
   -6.5374   -0.2267   -1.4943 C   0  0  0  0  0  0  0  0  0  0  0  0
   -5.4177   -1.1785   -1.5548 N   0  0  0  0  0  0  0  0  0  0  0  0
   -5.6592   -2.4146   -2.3160 C   0  0  0  0  0  0  0  0  0  0  0  0
   -4.8671   -2.4381   -3.6165 C   0  0  0  0  0  0  0  0  0  0  0  0
   -4.2233   -0.9412   -0.8845 C   0  0  0  0  0  0  0  0  0  0  0  0
   -3.8796    0.3276   -0.3891 C   0  0  0  0  0  0  0  0  0  0  0  0
   -2.6737    0.5764    0.2866 C   0  0  0  0  0  0  0  0  0  0  0  0
   -1.7481   -0.4461    0.4862 C   0  0  0  0  0  0  0  0  0  0  0  0
   -0.4823   -0.2425    1.2013 C   0  0  0  0  0  0  0  0  0  0  0  0
    0.2744    0.8568    1.0547 C   0  0  0  0  0  0  0  0  0  0  0  0
    1.5502    1.0227    1.7595 C   0  0  0  0  0  0  0  0  0  0  0  0
    1.5091    1.2775    3.1296 C   0  0  0  0  0  0  0  0  0  0  0  0
    2.6821    1.4497    3.8377 C   0  0  0  0  0  0  0  0  0  0  0  0
    3.8980    1.3558    3.1737 C   0  0  0  0  0  0  0  0  0  0  0  0
    5.0857    1.5203    3.8942 C   0  0  0  0  0  0  0  0  0  0  0  0
    6.3166    1.4179    3.2538 C   0  0  0  0  0  0  0  0  0  0  0  0
    6.3842    1.1471    1.8910 C   0  0  0  0  0  0  0  0  0  0  0  0
    7.6548    1.0653    1.3987 O   0  0  0  0  0  0  0  0  0  0  0  0
    7.8269    0.8078    0.0108 C   0  0  0  0  0  0  0  0  0  0  0  0
    5.2029    0.9826    1.1611 C   0  0  0  0  0  0  0  0  0  0  0  0
    3.9347    1.0893    1.7755 C   0  0  0  0  0  0  0  0  0  0  0  0
    2.7435    0.9405    1.0947 N   0  0  0  0  0  4  0  0  0  0  0  0
    2.7369    0.6756   -0.3775 C   0  0  0  0  0  0  0  0  0  0  0  0
    2.8663   -0.8139   -0.6369 C   0  0  0  0  0  0  0  0  0  0  0  0
   -2.0694   -1.7203    0.0230 C   0  0  0  0  0  0  0  0  0  0  0  0
   -3.2780   -1.9537   -0.6528 C   0  0  0  0  0  0  0  0  0  0  0  0
   -7.3338    1.4508   -2.5943 H   0  0  0  0  0  0  0  0  0  0  0  0
   -6.6537    0.1826   -3.6220 H   0  0  0  0  0  0  0  0  0  0  0  0
   -5.5764    1.2762   -2.7448 H   0  0  0  0  0  0  0  0  0  0  0  0
   -7.4897   -0.7719   -1.4948 H   0  0  0  0  0  0  0  0  0  0  0  0
   -6.5436    0.3334   -0.5521 H   0  0  0  0  0  0  0  0  0  0  0  0
   -5.4450   -3.3019   -1.7100 H   0  0  0  0  0  0  0  0  0  0  0  0
   -6.7225   -2.4985   -2.5734 H   0  0  0  0  0  0  0  0  0  0  0  0
   -3.7876   -2.4220   -3.4403 H   0  0  0  0  0  0  0  0  0  0  0  0
   -5.1130   -1.5766   -4.2450 H   0  0  0  0  0  0  0  0  0  0  0  0
   -5.1003   -3.3462   -4.1816 H   0  0  0  0  0  0  0  0  0  0  0  0
   -4.5451    1.1751   -0.5268 H   0  0  0  0  0  0  0  0  0  0  0  0
   -2.4932    1.5822    0.6561 H   0  0  0  0  0  0  0  0  0  0  0  0
   -0.1747   -1.0657    1.8449 H   0  0  0  0  0  0  0  0  0  0  0  0
   -0.0238    1.6721    0.4000 H   0  0  0  0  0  0  0  0  0  0  0  0
    0.5557    1.3485    3.6525 H   0  0  0  0  0  0  0  0  0  0  0  0
    2.6351    1.6519    4.9078 H   0  0  0  0  0  0  0  0  0  0  0  0
    5.0739    1.7274    4.9642 H   0  0  0  0  0  0  0  0  0  0  0  0
    7.2352    1.5463    3.8259 H   0  0  0  0  0  0  0  0  0  0  0  0
    7.4154   -0.1700   -0.2605 H   0  0  0  0  0  0  0  0  0  0  0  0
    7.3820    1.6042   -0.5945 H   0  0  0  0  0  0  0  0  0  0  0  0
    8.9009    0.7889   -0.1966 H   0  0  0  0  0  0  0  0  0  0  0  0
    5.2915    0.7582    0.1068 H   0  0  0  0  0  0  0  0  0  0  0  0
    3.5408    1.2500   -0.8454 H   0  0  0  0  0  0  0  0  0  0  0  0
    1.8212    1.0714   -0.8233 H   0  0  0  0  0  0  0  0  0  0  0  0
    2.8601   -1.0111   -1.7132 H   0  0  0  0  0  0  0  0  0  0  0  0
    2.0396   -1.3701   -0.1853 H   0  0  0  0  0  0  0  0  0  0  0  0
    3.7959   -1.2166   -0.2243 H   0  0  0  0  0  0  0  0  0  0  0  0
   -1.3925   -2.5584    0.1721 H   0  0  0  0  0  0  0  0  0  0  0  0
   -3.4637   -2.9721   -0.9816 H   0  0  0  0  0  0  0  0  0  0  0  0
  1  2  1  0
  2  3  1  0
  3  4  1  0
  4  5  1  0
  3  6  1  0
  6  7  2  0
  7  8  1  0
  8  9  2  0
  9 10  1  0
 10 11  2  3
 11 12  1  0
 12 13  2  0
 13 14  1  0
 14 15  2  0
 15 16  1  0
 16 17  2  0
 17 18  1  0
 18 19  1  0
 19 20  1  0
 18 21  2  0
 21 22  1  0
 22 23  2  0
 23 24  1  0
 24 25  1  0
  9 26  1  0
 26 27  2  0
 27  6  1  0
 23 12  1  0
 22 15  1  0
  1 28  1  0
  1 29  1  0
  1 30  1  0
  2 31  1  0
  2 32  1  0
  4 33  1  0
  4 34  1  0
  5 35  1  0
  5 36  1  0
  5 37  1  0
  7 38  1  0
  8 39  1  0
 10 40  1  0
 11 41  1  0
 13 42  1  0
 14 43  1  0
 16 44  1  0
 17 45  1  0
 20 46  1  0
 20 47  1  0
 20 48  1  0
 21 49  1  0
 24 50  1  0
 24 51  1  0
 25 52  1  0
 25 53  1  0
 25 54  1  0
 26 55  1  0
 27 56  1  0
M  CHG  1  23   1
M  END
$$$$
