
     RDKit          3D

 61 67  0  0  0  0  0  0  0  0999 V2000
    3.5919   -0.3738   -2.8342 O   0  0  0  0  0  0  0  0  0  0  0  0
    3.2496   -0.3552   -1.6549 C   0  0  0  0  0  0  0  0  0  0  0  0
    4.2945   -0.0843   -0.6432 C   0  0  0  0  0  0  0  0  0  0  0  0
    4.5471   -1.0127    0.3895 C   0  0  0  0  0  0  0  0  0  0  0  0
    5.5489   -0.7611    1.3311 C   0  0  0  0  0  0  0  0  0  0  0  0
    6.2735    0.4050    1.1975 C   0  0  0  0  0  0  0  0  0  0  0  0
    6.0374    1.2982    0.1765 C   0  0  0  0  0  0  0  0  0  0  0  0
    5.0588    1.0813   -0.7685 C   0  0  0  0  0  0  0  0  0  0  0  0
    6.8680    2.3736    0.2276 O   0  0  0  0  0  0  0  0  0  0  0  0
    7.6681    2.0467    1.3828 C   0  0  0  0  0  0  0  0  0  0  0  0
    7.2819    0.8084    2.0158 O   0  0  0  0  0  0  0  0  0  0  0  0
    1.9414   -0.5790   -1.2269 N   0  0  0  0  0  0  0  0  0  0  0  0
    0.9413   -0.9239   -2.2312 C   0  0  0  0  0  0  0  0  0  0  0  0
   -0.1767   -1.7583   -1.6183 C   0  0  0  0  0  0  0  0  0  0  0  0
   -0.9149   -1.0316   -0.4495 C   0  0  0  0  0  0  0  0  0  0  0  0
   -0.0249    0.1199    0.0952 C   0  0  0  0  0  0  0  0  0  0  0  0
    1.4514   -0.2686    0.1153 C   0  0  0  0  0  0  0  0  0  0  0  0
   -1.0322   -1.9519    0.6708 O   0  0  0  0  0  0  0  0  0  0  0  0
   -1.9545   -2.9505    0.5321 C   0  0  0  0  0  0  0  0  0  0  0  0
   -1.8024   -4.0493    1.3792 C   0  0  0  0  0  0  0  0  0  0  0  0
   -2.6897   -5.1230    1.2924 C   0  0  0  0  0  0  0  0  0  0  0  0
   -3.7253   -5.0868    0.3638 C   0  0  0  0  0  0  0  0  0  0  0  0
   -4.5735   -6.1194    0.2852 F   0  0  0  0  0  0  0  0  0  0  0  0
   -3.8983   -3.9932   -0.4746 C   0  0  0  0  0  0  0  0  0  0  0  0
   -3.0105   -2.9184   -0.3782 C   0  0  0  0  0  0  0  0  0  0  0  0
   -3.1959   -1.7200   -1.2166 C   0  0  0  0  0  0  0  0  0  0  0  0
   -4.0491   -1.7249   -2.0980 O   0  0  0  0  0  0  0  0  0  0  0  0
   -2.3249   -0.5190   -0.8601 C   0  0  0  0  0  0  0  0  0  0  0  0
   -3.0741    0.2901    0.1928 C   0  0  0  0  0  0  0  0  0  0  0  0
   -2.9336    1.6492   -0.3974 C   0  0  0  0  0  0  0  0  0  0  0  0
   -3.3162    2.8729    0.3459 C   0  0  0  0  0  0  0  0  0  0  0  0
   -3.9122    2.8055    1.6111 C   0  0  0  0  0  0  0  0  0  0  0  0
   -4.2553    3.9817    2.2865 C   0  0  0  0  0  0  0  0  0  0  0  0
   -4.0057    5.2214    1.6990 C   0  0  0  0  0  0  0  0  0  0  0  0
   -4.4279    6.6630    2.5359 Cl  0  0  0  0  0  0  0  0  0  0  0  0
   -3.4173    5.2976    0.4390 C   0  0  0  0  0  0  0  0  0  0  0  0
   -3.0734    4.1242   -0.2378 C   0  0  0  0  0  0  0  0  0  0  0  0
   -2.4547    1.6746   -1.5988 N   0  0  0  0  0  0  0  0  0  0  0  0
   -2.2245    0.3401   -2.0008 O   0  0  0  0  0  0  0  0  0  0  0  0
    3.9748   -1.9354    0.4453 H   0  0  0  0  0  0  0  0  0  0  0  0
    5.7604   -1.4609    2.1318 H   0  0  0  0  0  0  0  0  0  0  0  0
    4.8914    1.7827   -1.5782 H   0  0  0  0  0  0  0  0  0  0  0  0
    7.5746    2.8574    2.1145 H   0  0  0  0  0  0  0  0  0  0  0  0
    8.7170    1.9704    1.0737 H   0  0  0  0  0  0  0  0  0  0  0  0
    0.5543    0.0086   -2.6582 H   0  0  0  0  0  0  0  0  0  0  0  0
    1.4138   -1.4831   -3.0466 H   0  0  0  0  0  0  0  0  0  0  0  0
   -0.8734   -2.0407   -2.4155 H   0  0  0  0  0  0  0  0  0  0  0  0
    0.2590   -2.6983   -1.2530 H   0  0  0  0  0  0  0  0  0  0  0  0
   -0.3219    0.3848    1.1169 H   0  0  0  0  0  0  0  0  0  0  0  0
   -0.1245    1.0205   -0.5203 H   0  0  0  0  0  0  0  0  0  0  0  0
    2.0362    0.5517    0.5437 H   0  0  0  0  0  0  0  0  0  0  0  0
    1.6047   -1.1569    0.7383 H   0  0  0  0  0  0  0  0  0  0  0  0
   -0.9868   -4.0776    2.0978 H   0  0  0  0  0  0  0  0  0  0  0  0
   -2.5790   -5.9886    1.9389 H   0  0  0  0  0  0  0  0  0  0  0  0
   -4.7217   -3.9844   -1.1835 H   0  0  0  0  0  0  0  0  0  0  0  0
   -4.1397    0.0424    0.2518 H   0  0  0  0  0  0  0  0  0  0  0  0
   -2.6365    0.2215    1.1912 H   0  0  0  0  0  0  0  0  0  0  0  0
   -4.1274    1.8552    2.0909 H   0  0  0  0  0  0  0  0  0  0  0  0
   -4.7196    3.9251    3.2682 H   0  0  0  0  0  0  0  0  0  0  0  0
   -3.2248    6.2622   -0.0241 H   0  0  0  0  0  0  0  0  0  0  0  0
   -2.6169    4.1952   -1.2240 H   0  0  0  0  0  0  0  0  0  0  0  0
  1  2  2  0
  2  3  1  0
  3  4  2  0
  4  5  1  0
  5  6  2  0
  6  7  1  0
  7  8  2  0
  7  9  1  0
  9 10  1  0
 10 11  1  0
  2 12  1  0
 12 13  1  0
 13 14  1  0
 14 15  1  0
 15 16  1  0
 16 17  1  0
 15 18  1  0
 18 19  1  0
 19 20  2  0
 20 21  1  0
 21 22  2  0
 22 23  1  0
 22 24  1  0
 24 25  2  0
 25 26  1  0
 26 27  2  0
 26 28  1  0
 28 29  1  0
 29 30  1  0
 30 31  1  0
 31 32  2  0
 32 33  1  0
 33 34  2  0
 34 35  1  0
 34 36  1  0
 36 37  2  0
 30 38  2  0
 38 39  1  0
  8  3  1  0
 17 12  1  0
 25 19  1  0
 39 28  1  0
 11  6  1  0
 28 15  1  0
 37 31  1  0
  4 40  1  0
  5 41  1  0
  8 42  1  0
 10 43  1  0
 10 44  1  0
 13 45  1  0
 13 46  1  0
 14 47  1  0
 14 48  1  0
 16 49  1  0
 16 50  1  0
 17 51  1  0
 17 52  1  0
 20 53  1  0
 21 54  1  0
 24 55  1  0
 29 56  1  0
 29 57  1  0
 32 58  1  0
 33 59  1  0
 36 60  1  0
 37 61  1  0
M  END
$$$$
