
     RDKit          3D

 62 67  0  0  0  0  0  0  0  0999 V2000
   -4.9116   -3.7997   -0.6650 C   0  0  0  0  0  0  0  0  0  0  0  0
   -4.4794   -2.5921   -0.0549 O   0  0  0  0  0  0  0  0  0  0  0  0
   -3.8982   -2.6794    1.1857 C   0  0  0  0  0  0  0  0  0  0  0  0
   -3.6351   -3.8818    1.8526 C   0  0  0  0  0  0  0  0  0  0  0  0
   -3.0214   -3.8780    3.1090 C   0  0  0  0  0  0  0  0  0  0  0  0
   -2.6623   -2.6758    3.7110 C   0  0  0  0  0  0  0  0  0  0  0  0
   -2.9188   -1.4716    3.0584 C   0  0  0  0  0  0  0  0  0  0  0  0
   -3.5393   -1.4605    1.7982 C   0  0  0  0  0  0  0  0  0  0  0  0
   -3.7802   -0.1669    1.1448 C   0  0  0  0  0  0  0  0  0  0  0  0
   -5.3184    0.5546    1.3218 S   0  0  0  0  0  0  0  0  0  0  0  0
   -4.8806    1.9312    0.3885 C   0  0  0  0  0  0  0  0  0  0  0  0
   -5.7114    3.0318    0.0824 C   0  0  0  0  0  0  0  0  0  0  0  0
   -5.1534    4.0321   -0.6864 C   0  0  0  0  0  0  0  0  0  0  0  0
   -3.8631    3.9741   -1.1368 C   0  0  0  0  0  0  0  0  0  0  0  0
   -3.0334    2.9080   -0.8497 C   0  0  0  0  0  0  0  0  0  0  0  0
   -3.5515    1.8458   -0.0574 C   0  0  0  0  0  0  0  0  0  0  0  0
   -2.9249    0.6218    0.3941 C   0  0  0  0  0  0  0  0  0  0  0  0
   -1.5492    0.2174    0.1273 C   0  0  0  0  0  0  0  0  0  0  0  0
   -1.2766   -0.8269   -0.7597 C   0  0  0  0  0  0  0  0  0  0  0  0
    0.0452   -1.2016   -1.0110 C   0  0  0  0  0  0  0  0  0  0  0  0
    1.1057   -0.5382   -0.3878 C   0  0  0  0  0  0  0  0  0  0  0  0
    2.3462   -1.0059   -0.7233 O   0  0  0  0  0  0  0  0  0  0  0  0
    3.4719   -0.3386   -0.1445 C   0  0  0  0  0  0  0  0  0  0  0  0
    4.7470   -1.0284   -0.6580 C   0  0  0  0  0  0  0  0  0  0  0  0
    5.9956   -0.4771   -0.1025 N   0  0  0  0  0  0  0  0  0  0  0  0
    7.1678   -1.2987   -0.4818 C   0  0  0  0  0  0  0  0  0  0  0  0
    7.9576   -0.7287   -1.6704 C   0  0  0  0  0  0  0  0  0  0  0  0
    8.4680    0.5896   -1.4287 O   0  0  0  0  0  0  0  0  0  0  0  0
    7.6866    1.3298   -0.4811 C   0  0  0  0  0  0  0  0  0  0  0  0
    6.2022    0.9336   -0.5032 C   0  0  0  0  0  0  0  0  0  0  0  0
    0.8332    0.5077    0.4950 C   0  0  0  0  0  0  0  0  0  0  0  0
   -0.4901    0.8853    0.7508 C   0  0  0  0  0  0  0  0  0  0  0  0
   -3.5193    5.0631   -1.8766 O   0  0  0  0  0  0  0  0  0  0  0  0
   -4.7507    5.8128   -1.8433 C   0  0  0  0  0  0  0  0  0  0  0  0
   -5.7923    5.1664   -1.0838 O   0  0  0  0  0  0  0  0  0  0  0  0
   -5.6657   -4.3056   -0.0533 H   0  0  0  0  0  0  0  0  0  0  0  0
   -5.3775   -3.5422   -1.6208 H   0  0  0  0  0  0  0  0  0  0  0  0
   -4.0638   -4.4595   -0.8764 H   0  0  0  0  0  0  0  0  0  0  0  0
   -3.8901   -4.8434    1.4201 H   0  0  0  0  0  0  0  0  0  0  0  0
   -2.8204   -4.8187    3.6159 H   0  0  0  0  0  0  0  0  0  0  0  0
   -2.1815   -2.6747    4.6858 H   0  0  0  0  0  0  0  0  0  0  0  0
   -2.6327   -0.5359    3.5335 H   0  0  0  0  0  0  0  0  0  0  0  0
   -6.7355    3.0864    0.4322 H   0  0  0  0  0  0  0  0  0  0  0  0
   -2.0156    2.8840   -1.2251 H   0  0  0  0  0  0  0  0  0  0  0  0
   -2.0876   -1.3551   -1.2559 H   0  0  0  0  0  0  0  0  0  0  0  0
    0.2489   -2.0183   -1.6988 H   0  0  0  0  0  0  0  0  0  0  0  0
    3.4657    0.7147   -0.4470 H   0  0  0  0  0  0  0  0  0  0  0  0
    3.4343   -0.4180    0.9488 H   0  0  0  0  0  0  0  0  0  0  0  0
    4.7595   -1.0073   -1.7561 H   0  0  0  0  0  0  0  0  0  0  0  0
    4.6665   -2.0893   -0.3847 H   0  0  0  0  0  0  0  0  0  0  0  0
    6.8873   -2.3398   -0.6804 H   0  0  0  0  0  0  0  0  0  0  0  0
    7.8322   -1.3244    0.3913 H   0  0  0  0  0  0  0  0  0  0  0  0
    8.8134   -1.3731   -1.8961 H   0  0  0  0  0  0  0  0  0  0  0  0
    7.3322   -0.6924   -2.5700 H   0  0  0  0  0  0  0  0  0  0  0  0
    7.7961    2.3913   -0.7258 H   0  0  0  0  0  0  0  0  0  0  0  0
    8.1185    1.1801    0.5155 H   0  0  0  0  0  0  0  0  0  0  0  0
    5.8245    1.1004   -1.5207 H   0  0  0  0  0  0  0  0  0  0  0  0
    5.6444    1.5856    0.1775 H   0  0  0  0  0  0  0  0  0  0  0  0
    1.6233    1.0489    1.0044 H   0  0  0  0  0  0  0  0  0  0  0  0
   -0.6879    1.7002    1.4436 H   0  0  0  0  0  0  0  0  0  0  0  0
   -5.1028    5.9557   -2.8715 H   0  0  0  0  0  0  0  0  0  0  0  0
   -4.5515    6.7953   -1.4001 H   0  0  0  0  0  0  0  0  0  0  0  0
  1  2  1  0
  2  3  1  0
  3  4  2  0
  4  5  1  0
  5  6  2  0
  6  7  1  0
  7  8  2  0
  8  9  1  0
  9 10  1  0
 10 11  1  0
 11 12  2  0
 12 13  1  0
 13 14  2  0
 14 15  1  0
 15 16  2  0
 16 17  1  0
 17 18  1  0
 18 19  2  0
 19 20  1  0
 20 21  2  0
 21 22  1  0
 22 23  1  0
 23 24  1  0
 24 25  1  0
 25 26  1  0
 26 27  1  0
 27 28  1  0
 28 29  1  0
 29 30  1  0
 21 31  1  0
 31 32  2  0
 14 33  1  0
 33 34  1  0
 34 35  1  0
  8  3  1  0
 17  9  2  0
 32 18  1  0
 16 11  1  0
 30 25  1  0
 35 13  1  0
  1 36  1  0
  1 37  1  0
  1 38  1  0
  4 39  1  0
  5 40  1  0
  6 41  1  0
  7 42  1  0
 12 43  1  0
 15 44  1  0
 19 45  1  0
 20 46  1  0
 23 47  1  0
 23 48  1  0
 24 49  1  0
 24 50  1  0
 26 51  1  0
 26 52  1  0
 27 53  1  0
 27 54  1  0
 29 55  1  0
 29 56  1  0
 30 57  1  0
 30 58  1  0
 31 59  1  0
 32 60  1  0
 34 61  1  0
 34 62  1  0
M  END
$$$$
