
     RDKit          3D

 46 49  0  0  0  0  0  0  0  0999 V2000
   -4.1173   -3.6658   -1.5898 C   0  0  0  0  0  0  0  0  0  0  0  0
   -3.6677   -2.3171   -1.5787 O   0  0  0  0  0  0  0  0  0  0  0  0
   -2.7190   -1.9894   -0.6487 C   0  0  0  0  0  0  0  0  0  0  0  0
   -2.1551   -2.8559    0.2886 C   0  0  0  0  0  0  0  0  0  0  0  0
   -1.1876   -2.3897    1.1830 C   0  0  0  0  0  0  0  0  0  0  0  0
   -0.7829   -1.0555    1.1484 C   0  0  0  0  0  0  0  0  0  0  0  0
   -1.3491   -0.1766    0.2197 C   0  0  0  0  0  0  0  0  0  0  0  0
   -0.9194    1.2148    0.1734 C   0  0  0  0  0  0  0  0  0  0  0  0
    0.2068    1.7755   -0.4130 C   0  0  0  0  0  0  0  0  0  0  0  0
    1.2623    1.1097   -1.1690 C   0  0  0  0  0  0  0  0  0  0  0  0
    1.1704   -0.0479   -1.5677 O   0  0  0  0  0  0  0  0  0  0  0  0
    2.3670    1.9370   -1.3799 N   0  0  0  0  0  0  0  0  0  0  0  0
    3.3913    1.5881   -2.2240 N   0  0  0  0  0  0  0  0  0  0  0  0
    4.0787    0.5035   -1.9882 C   0  0  0  0  0  0  0  0  0  0  0  0
    5.0468    0.0624   -3.0654 C   0  0  0  0  0  0  0  0  0  0  0  0
    4.0334   -0.3285   -0.7946 C   0  0  0  0  0  0  0  0  0  0  0  0
    3.9255   -1.7071   -0.7184 C   0  0  0  0  0  0  0  0  0  0  0  0
    3.9203   -2.1787    0.6288 C   0  0  0  0  0  0  0  0  0  0  0  0
    4.0534   -1.1409    1.5129 C   0  0  0  0  0  0  0  0  0  0  0  0
    4.0854   -1.2525    3.2257 Cl  0  0  0  0  0  0  0  0  0  0  0  0
    4.2013    0.3686    0.7666 S   0  0  0  0  0  0  0  0  0  0  0  0
    0.2218    3.1242   -0.1736 N   0  0  0  0  0  0  0  0  0  0  0  0
   -0.8516    3.4318    0.5311 N   0  0  0  0  0  0  0  0  0  0  0  0
   -1.5658    2.2928    0.7838 N   0  0  0  0  0  0  0  0  0  0  0  0
   -2.7556    2.3243    1.5552 C   0  0  0  0  0  0  0  0  0  0  0  0
   -3.4609    1.2176    1.7900 N   0  0  0  0  0  0  0  0  0  0  0  0
   -4.5403    1.6558    2.5535 O   0  0  0  0  0  0  0  0  0  0  0  0
   -4.4770    3.0273    2.7766 N   0  0  0  0  0  0  0  0  0  0  0  0
   -3.3663    3.4366    2.1650 C   0  0  0  0  0  0  0  0  0  0  0  0
   -2.9328    4.7113    2.1556 N   0  0  0  0  0  0  0  0  0  0  0  0
   -2.3094   -0.6528   -0.6808 C   0  0  0  0  0  0  0  0  0  0  0  0
   -4.8654   -3.7622   -2.3827 H   0  0  0  0  0  0  0  0  0  0  0  0
   -4.6004   -3.9289   -0.6430 H   0  0  0  0  0  0  0  0  0  0  0  0
   -3.2972   -4.3537   -1.8208 H   0  0  0  0  0  0  0  0  0  0  0  0
   -2.4429   -3.9000    0.3482 H   0  0  0  0  0  0  0  0  0  0  0  0
   -0.7470   -3.0700    1.9074 H   0  0  0  0  0  0  0  0  0  0  0  0
   -0.0236   -0.7134    1.8477 H   0  0  0  0  0  0  0  0  0  0  0  0
    2.1802    2.9361   -1.3246 H   0  0  0  0  0  0  0  0  0  0  0  0
    5.2081    0.8676   -3.7882 H   0  0  0  0  0  0  0  0  0  0  0  0
    6.0088   -0.2099   -2.6214 H   0  0  0  0  0  0  0  0  0  0  0  0
    4.6348   -0.8037   -3.5914 H   0  0  0  0  0  0  0  0  0  0  0  0
    3.8155   -2.3458   -1.5872 H   0  0  0  0  0  0  0  0  0  0  0  0
    3.8178   -3.2161    0.9207 H   0  0  0  0  0  0  0  0  0  0  0  0
   -2.1874    5.0154    1.5319 H   0  0  0  0  0  0  0  0  0  0  0  0
   -3.5582    5.4491    2.4619 H   0  0  0  0  0  0  0  0  0  0  0  0
   -2.7496    0.0125   -1.4197 H   0  0  0  0  0  0  0  0  0  0  0  0
  1  2  1  0
  2  3  1  0
  3  4  2  0
  4  5  1  0
  5  6  2  0
  6  7  1  0
  7  8  1  0
  8  9  2  0
  9 10  1  0
 10 11  2  0
 10 12  1  0
 12 13  1  0
 13 14  2  3
 14 15  1  0
 14 16  1  0
 16 17  2  0
 17 18  1  0
 18 19  2  0
 19 20  1  0
 19 21  1  0
  9 22  1  0
 22 23  2  0
 23 24  1  0
 24 25  1  0
 25 26  2  0
 26 27  1  0
 27 28  1  0
 28 29  2  0
 29 30  1  0
  7 31  2  0
 31  3  1  0
 24  8  1  0
 29 25  1  0
 21 16  1  0
  1 32  1  0
  1 33  1  0
  1 34  1  0
  4 35  1  0
  5 36  1  0
  6 37  1  0
 12 38  1  0
 15 39  1  0
 15 40  1  0
 15 41  1  0
 17 42  1  0
 18 43  1  0
 30 44  1  0
 30 45  1  0
 31 46  1  0
M  END
$$$$
