
     RDKit          3D

 57 59  0  0  0  0  0  0  0  0999 V2000
   -2.1846    0.4936   -3.7946 C   0  0  0  0  0  0  0  0  0  0  0  0
   -1.9209    0.4019   -2.3705 N   0  0  0  0  0  0  0  0  0  0  0  0
   -1.3370   -0.6792   -1.7331 C   0  0  0  0  0  0  0  0  0  0  0  0
   -0.7668   -2.0334   -2.5467 S   0  0  0  0  0  0  0  0  0  0  0  0
   -1.2649   -0.5011   -0.3433 N   0  0  0  0  0  0  0  0  0  0  0  0
   -1.2988   -1.6492    0.5909 C   0  0  0  0  0  0  0  0  0  0  0  0
   -2.4557   -1.5876    1.6053 C   0  0  0  0  0  0  0  0  0  0  0  0
   -3.8196   -1.3846    0.9824 C   0  0  0  0  0  0  0  0  0  0  0  0
   -4.6090   -0.2903    1.3607 C   0  0  0  0  0  0  0  0  0  0  0  0
   -5.8593   -0.0834    0.7780 C   0  0  0  0  0  0  0  0  0  0  0  0
   -6.3380   -0.9710   -0.1848 C   0  0  0  0  0  0  0  0  0  0  0  0
   -5.5768   -2.0827   -0.5614 C   0  0  0  0  0  0  0  0  0  0  0  0
   -6.0714   -3.0217   -1.6211 C   0  0  0  0  0  0  0  0  0  0  0  0
   -4.3171   -2.2787    0.0222 C   0  0  0  0  0  0  0  0  0  0  0  0
   -0.9851    0.8230    0.2463 C   0  0  0  0  0  0  0  0  0  0  0  0
    0.4580    0.9161    0.6557 C   0  0  0  0  0  0  0  0  0  0  0  0
    1.4711    0.9795   -0.2283 C   0  0  0  0  0  0  0  0  0  0  0  0
    2.8586    1.0891    0.2202 C   0  0  0  0  0  0  0  0  0  0  0  0
    3.9178    1.1371   -0.6900 C   0  0  0  0  0  0  0  0  0  0  0  0
    5.2367    1.2488   -0.2314 C   0  0  0  0  0  0  0  0  0  0  0  0
    6.3384    1.3048   -1.0496 O   0  0  0  0  0  0  0  0  0  0  0  0
    6.1311    1.1645   -2.4485 C   0  0  0  0  0  0  0  0  0  0  0  0
    5.4944    1.3167    1.1555 C   0  0  0  0  0  0  0  0  0  0  0  0
    6.8150    1.4324    1.5152 O   0  0  0  0  0  0  0  0  0  0  0  0
    7.1217    1.5052    2.9003 C   0  0  0  0  0  0  0  0  0  0  0  0
    4.4307    1.2635    2.0636 C   0  0  0  0  0  0  0  0  0  0  0  0
    3.1236    1.1495    1.5906 C   0  0  0  0  0  0  0  0  0  0  0  0
    2.0560    1.0932    2.4954 N   0  0  0  0  0  0  0  0  0  0  0  0
    0.7443    0.9770    2.1194 C   0  0  0  0  0  0  0  0  0  0  0  0
   -0.1504    0.9246    2.9583 O   0  0  0  0  0  0  0  0  0  0  0  0
   -1.2613    0.3377   -4.3591 H   0  0  0  0  0  0  0  0  0  0  0  0
   -2.5777    1.4913   -4.0039 H   0  0  0  0  0  0  0  0  0  0  0  0
   -2.9282   -0.2580   -4.0734 H   0  0  0  0  0  0  0  0  0  0  0  0
   -2.6252    0.8432   -1.7921 H   0  0  0  0  0  0  0  0  0  0  0  0
   -0.3403   -1.6948    1.1195 H   0  0  0  0  0  0  0  0  0  0  0  0
   -1.3897   -2.5890    0.0404 H   0  0  0  0  0  0  0  0  0  0  0  0
   -2.2597   -0.7919    2.3331 H   0  0  0  0  0  0  0  0  0  0  0  0
   -2.4757   -2.5197    2.1843 H   0  0  0  0  0  0  0  0  0  0  0  0
   -4.2520    0.4132    2.1103 H   0  0  0  0  0  0  0  0  0  0  0  0
   -6.4616    0.7712    1.0757 H   0  0  0  0  0  0  0  0  0  0  0  0
   -7.3114   -0.7929   -0.6360 H   0  0  0  0  0  0  0  0  0  0  0  0
   -5.7095   -2.7016   -2.6030 H   0  0  0  0  0  0  0  0  0  0  0  0
   -5.7240   -4.0428   -1.4300 H   0  0  0  0  0  0  0  0  0  0  0  0
   -7.1660   -3.0502   -1.6400 H   0  0  0  0  0  0  0  0  0  0  0  0
   -3.7170   -3.1331   -0.2842 H   0  0  0  0  0  0  0  0  0  0  0  0
   -1.6810    0.9997    1.0704 H   0  0  0  0  0  0  0  0  0  0  0  0
   -1.1746    1.6260   -0.4735 H   0  0  0  0  0  0  0  0  0  0  0  0
    1.2779    0.9415   -1.2967 H   0  0  0  0  0  0  0  0  0  0  0  0
    3.6945    1.0859   -1.7495 H   0  0  0  0  0  0  0  0  0  0  0  0
    7.1100    1.1933   -2.9363 H   0  0  0  0  0  0  0  0  0  0  0  0
    5.5385    1.9960   -2.8435 H   0  0  0  0  0  0  0  0  0  0  0  0
    5.6702    0.1997   -2.6860 H   0  0  0  0  0  0  0  0  0  0  0  0
    6.8213    0.5889    3.4197 H   0  0  0  0  0  0  0  0  0  0  0  0
    6.6671    2.3892    3.3610 H   0  0  0  0  0  0  0  0  0  0  0  0
    8.2074    1.6013    2.9979 H   0  0  0  0  0  0  0  0  0  0  0  0
    4.5997    1.3093    3.1328 H   0  0  0  0  0  0  0  0  0  0  0  0
    2.2262    1.1292    3.4916 H   0  0  0  0  0  0  0  0  0  0  0  0
  1  2  1  0
  2  3  1  0
  3  4  2  0
  3  5  1  0
  5  6  1  0
  6  7  1  0
  7  8  1  0
  8  9  2  0
  9 10  1  0
 10 11  2  0
 11 12  1  0
 12 13  1  0
 12 14  2  0
  5 15  1  0
 15 16  1  0
 16 17  2  0
 17 18  1  0
 18 19  2  0
 19 20  1  0
 20 21  1  0
 21 22  1  0
 20 23  2  0
 23 24  1  0
 24 25  1  0
 23 26  1  0
 26 27  2  0
 27 28  1  0
 28 29  1  0
 29 30  2  0
 14  8  1  0
 29 16  1  0
 27 18  1  0
  1 31  1  0
  1 32  1  0
  1 33  1  0
  2 34  1  0
  6 35  1  0
  6 36  1  0
  7 37  1  0
  7 38  1  0
  9 39  1  0
 10 40  1  0
 11 41  1  0
 13 42  1  0
 13 43  1  0
 13 44  1  0
 14 45  1  0
 15 46  1  0
 15 47  1  0
 17 48  1  0
 19 49  1  0
 22 50  1  0
 22 51  1  0
 22 52  1  0
 25 53  1  0
 25 54  1  0
 25 55  1  0
 26 56  1  0
 28 57  1  0
M  END
$$$$
