
     RDKit          3D

 51 53  0  0  0  0  0  0  0  0999 V2000
    4.2876   -4.2867    1.5472 C   0  0  0  0  0  0  0  0  0  0  0  0
    4.1526   -2.9535    1.0714 O   0  0  0  0  0  0  0  0  0  0  0  0
    2.8878   -2.4274    1.0144 C   0  0  0  0  0  0  0  0  0  0  0  0
    1.7300   -3.0996    1.4255 C   0  0  0  0  0  0  0  0  0  0  0  0
    0.4756   -2.4958    1.3006 C   0  0  0  0  0  0  0  0  0  0  0  0
    0.3716   -1.2156    0.7600 C   0  0  0  0  0  0  0  0  0  0  0  0
   -0.9416   -0.5621    0.5843 C   0  0  0  0  0  0  0  0  0  0  0  0
   -2.0469   -1.1483    0.9263 N   0  0  0  0  0  0  0  0  0  0  0  0
   -3.2205   -0.4882    0.6545 N   0  0  0  0  0  0  0  0  0  0  0  0
   -3.4845    0.2403   -0.5000 C   0  0  0  0  0  0  0  0  0  0  0  0
   -2.6491    0.5209   -1.3592 O   0  0  0  0  0  0  0  0  0  0  0  0
   -4.8989    0.7143   -0.6888 C   0  0  0  0  0  0  0  0  0  0  0  0
   -5.0949    1.6949   -1.6810 C   0  0  0  0  0  0  0  0  0  0  0  0
   -6.3629    2.2096   -1.9441 C   0  0  0  0  0  0  0  0  0  0  0  0
   -7.4547    1.7477   -1.2207 C   0  0  0  0  0  0  0  0  0  0  0  0
   -7.2819    0.7702   -0.2369 C   0  0  0  0  0  0  0  0  0  0  0  0
   -6.0115    0.2407    0.0391 C   0  0  0  0  0  0  0  0  0  0  0  0
   -5.7905   -0.7279    0.9861 O   0  0  0  0  0  0  0  0  0  0  0  0
   -6.9227   -1.2888    1.6438 C   0  0  0  0  0  0  0  0  0  0  0  0
    1.5200   -0.5323    0.3544 C   0  0  0  0  0  0  0  0  0  0  0  0
    2.7914   -1.1214    0.4922 C   0  0  0  0  0  0  0  0  0  0  0  0
    4.0329   -0.3951    0.0089 C   0  0  0  0  0  0  0  0  0  0  0  0
    3.8224    1.0208    0.0524 O   0  0  0  0  0  0  0  0  0  0  0  0
    4.8131    1.8366   -0.4215 C   0  0  0  0  0  0  0  0  0  0  0  0
    6.0537    1.4429   -0.9282 C   0  0  0  0  0  0  0  0  0  0  0  0
    6.3992    0.1482   -0.9994 F   0  0  0  0  0  0  0  0  0  0  0  0
    6.9705    2.3931   -1.3780 C   0  0  0  0  0  0  0  0  0  0  0  0
    8.1563    1.9938   -1.8626 F   0  0  0  0  0  0  0  0  0  0  0  0
    6.6636    3.7464   -1.3282 C   0  0  0  0  0  0  0  0  0  0  0  0
    7.5513    4.6533   -1.7622 F   0  0  0  0  0  0  0  0  0  0  0  0
    5.4385    4.1554   -0.8276 C   0  0  0  0  0  0  0  0  0  0  0  0
    5.1360    5.4618   -0.7748 F   0  0  0  0  0  0  0  0  0  0  0  0
    4.5227    3.2082   -0.3785 C   0  0  0  0  0  0  0  0  0  0  0  0
    3.3413    3.6253    0.1033 F   0  0  0  0  0  0  0  0  0  0  0  0
    3.9684   -4.3680    2.5922 H   0  0  0  0  0  0  0  0  0  0  0  0
    3.7438   -4.9915    0.9101 H   0  0  0  0  0  0  0  0  0  0  0  0
    5.3484   -4.5489    1.5022 H   0  0  0  0  0  0  0  0  0  0  0  0
    1.7646   -4.1009    1.8415 H   0  0  0  0  0  0  0  0  0  0  0  0
   -0.4157   -3.0335    1.6154 H   0  0  0  0  0  0  0  0  0  0  0  0
   -0.9149    0.4601    0.1673 H   0  0  0  0  0  0  0  0  0  0  0  0
   -4.0272   -0.8630    1.1513 H   0  0  0  0  0  0  0  0  0  0  0  0
   -4.2488    2.0659   -2.2588 H   0  0  0  0  0  0  0  0  0  0  0  0
   -6.4936    2.9668   -2.7140 H   0  0  0  0  0  0  0  0  0  0  0  0
   -8.4462    2.1457   -1.4232 H   0  0  0  0  0  0  0  0  0  0  0  0
   -8.1683    0.4428    0.2966 H   0  0  0  0  0  0  0  0  0  0  0  0
   -6.5620   -2.0692    2.3196 H   0  0  0  0  0  0  0  0  0  0  0  0
   -7.6028   -1.7577    0.9271 H   0  0  0  0  0  0  0  0  0  0  0  0
   -7.4370   -0.5354    2.2481 H   0  0  0  0  0  0  0  0  0  0  0  0
    1.4274    0.4621   -0.0786 H   0  0  0  0  0  0  0  0  0  0  0  0
    4.2267   -0.7205   -1.0218 H   0  0  0  0  0  0  0  0  0  0  0  0
    4.8796   -0.6366    0.6617 H   0  0  0  0  0  0  0  0  0  0  0  0
  1  2  1  0
  2  3  1  0
  3  4  2  0
  4  5  1  0
  5  6  2  0
  6  7  1  0
  7  8  2  3
  8  9  1  0
  9 10  1  0
 10 11  2  0
 10 12  1  0
 12 13  2  0
 13 14  1  0
 14 15  2  0
 15 16  1  0
 16 17  2  0
 17 18  1  0
 18 19  1  0
  6 20  1  0
 20 21  2  0
 21 22  1  0
 22 23  1  0
 23 24  1  0
 24 25  2  0
 25 26  1  0
 25 27  1  0
 27 28  1  0
 27 29  2  0
 29 30  1  0
 29 31  1  0
 31 32  1  0
 31 33  2  0
 33 34  1  0
 21  3  1  0
 33 24  1  0
 17 12  1  0
  1 35  1  0
  1 36  1  0
  1 37  1  0
  4 38  1  0
  5 39  1  0
  7 40  1  0
  9 41  1  0
 13 42  1  0
 14 43  1  0
 15 44  1  0
 16 45  1  0
 19 46  1  0
 19 47  1  0
 19 48  1  0
 20 49  1  0
 22 50  1  0
 22 51  1  0
M  END
$$$$
