
     RDKit          3D

 61 66  0  0  0  0  0  0  0  0999 V2000
   -8.0489    0.6468   -3.5333 F   0  0  0  0  0  0  0  0  0  0  0  0
   -7.4901    1.0759   -2.3939 C   0  0  0  0  0  0  0  0  0  0  0  0
   -8.2111    1.9131   -1.5515 C   0  0  0  0  0  0  0  0  0  0  0  0
   -7.6311    2.3548   -0.3639 C   0  0  0  0  0  0  0  0  0  0  0  0
   -6.3334    1.9568   -0.0304 C   0  0  0  0  0  0  0  0  0  0  0  0
   -5.6024    1.1164   -0.8843 C   0  0  0  0  0  0  0  0  0  0  0  0
   -4.2073    0.6696   -0.5131 C   0  0  0  0  0  0  0  0  0  0  0  0
   -4.2325   -0.6042    0.3519 C   0  0  0  0  0  0  0  0  0  0  0  0
   -2.9393   -1.1660    0.7661 N   0  0  0  0  0  0  0  0  0  0  0  0
   -2.1491   -0.2587    1.6204 C   0  0  0  0  0  0  0  0  0  0  0  0
   -0.8376   -0.9089    2.1195 C   0  0  0  0  0  0  0  0  0  0  0  0
   -0.0189   -1.4521    1.0120 N   0  0  0  0  0  0  0  0  0  0  0  0
    0.9148   -0.6233    0.4530 C   0  0  0  0  0  0  0  0  0  0  0  0
    0.7274    0.4818   -0.3545 C   0  0  0  0  0  0  0  0  0  0  0  0
    1.9930    1.0064   -0.6838 C   0  0  0  0  0  0  0  0  0  0  0  0
    2.9442    0.2296   -0.0519 C   0  0  0  0  0  0  0  0  0  0  0  0
    4.3895    0.3021   -0.0343 C   0  0  0  0  0  0  0  0  0  0  0  0
    5.1035    1.4152   -0.7097 C   0  0  0  0  0  0  0  0  0  0  0  0
    4.7688    2.7496   -0.4532 C   0  0  0  0  0  0  0  0  0  0  0  0
    5.4707    3.7752   -1.0894 C   0  0  0  0  0  0  0  0  0  0  0  0
    6.5103    3.4696   -1.9692 C   0  0  0  0  0  0  0  0  0  0  0  0
    6.8583    2.1396   -2.2092 C   0  0  0  0  0  0  0  0  0  0  0  0
    6.1607    1.1109   -1.5749 C   0  0  0  0  0  0  0  0  0  0  0  0
    5.0971   -0.6113    0.5598 N   0  0  0  0  0  0  0  0  0  0  0  0
    4.4414   -1.6613    1.2309 C   0  0  0  0  0  0  0  0  0  0  0  0
    5.2417   -2.6133    1.8705 C   0  0  0  0  0  0  0  0  0  0  0  0
    4.6691   -3.6794    2.5637 C   0  0  0  0  0  0  0  0  0  0  0  0
    3.2834   -3.8010    2.6229 C   0  0  0  0  0  0  0  0  0  0  0  0
    2.4669   -2.8598    1.9906 C   0  0  0  0  0  0  0  0  0  0  0  0
    3.0423   -1.7912    1.2961 C   0  0  0  0  0  0  0  0  0  0  0  0
    2.2909   -0.7964    0.6173 N   0  0  0  0  0  0  0  0  0  0  0  0
   -0.8046   -2.3136    0.0992 C   0  0  0  0  0  0  0  0  0  0  0  0
   -2.1191   -1.6436   -0.3641 C   0  0  0  0  0  0  0  0  0  0  0  0
   -6.1971    0.6738   -2.0731 C   0  0  0  0  0  0  0  0  0  0  0  0
   -9.2186    2.2113   -1.8231 H   0  0  0  0  0  0  0  0  0  0  0  0
   -8.1893    3.0056    0.3049 H   0  0  0  0  0  0  0  0  0  0  0  0
   -5.8955    2.3063    0.9029 H   0  0  0  0  0  0  0  0  0  0  0  0
   -3.7061    1.4896    0.0139 H   0  0  0  0  0  0  0  0  0  0  0  0
   -3.6359    0.5042   -1.4336 H   0  0  0  0  0  0  0  0  0  0  0  0
   -4.7894   -1.3883   -0.1790 H   0  0  0  0  0  0  0  0  0  0  0  0
   -4.8230   -0.4111    1.2579 H   0  0  0  0  0  0  0  0  0  0  0  0
   -2.7419    0.0238    2.4987 H   0  0  0  0  0  0  0  0  0  0  0  0
   -1.9044    0.6650    1.0844 H   0  0  0  0  0  0  0  0  0  0  0  0
   -1.0830   -1.7370    2.7966 H   0  0  0  0  0  0  0  0  0  0  0  0
   -0.2622   -0.1848    2.7098 H   0  0  0  0  0  0  0  0  0  0  0  0
   -0.2266    0.8702   -0.6813 H   0  0  0  0  0  0  0  0  0  0  0  0
    2.1809    1.8627   -1.3179 H   0  0  0  0  0  0  0  0  0  0  0  0
    3.9801    2.9975    0.2521 H   0  0  0  0  0  0  0  0  0  0  0  0
    5.2149    4.8133   -0.8917 H   0  0  0  0  0  0  0  0  0  0  0  0
    7.0585    4.2698   -2.4608 H   0  0  0  0  0  0  0  0  0  0  0  0
    7.6772    1.9041   -2.8843 H   0  0  0  0  0  0  0  0  0  0  0  0
    6.4400    0.0748   -1.7531 H   0  0  0  0  0  0  0  0  0  0  0  0
    6.3232   -2.5148    1.8254 H   0  0  0  0  0  0  0  0  0  0  0  0
    5.3044   -4.4103    3.0560 H   0  0  0  0  0  0  0  0  0  0  0  0
    2.8334   -4.6308    3.1620 H   0  0  0  0  0  0  0  0  0  0  0  0
    1.3948   -2.9926    2.0606 H   0  0  0  0  0  0  0  0  0  0  0  0
   -1.0448   -3.2414    0.6341 H   0  0  0  0  0  0  0  0  0  0  0  0
   -0.2055   -2.6045   -0.7730 H   0  0  0  0  0  0  0  0  0  0  0  0
   -1.8761   -0.8196   -1.0436 H   0  0  0  0  0  0  0  0  0  0  0  0
   -2.6884   -2.3814   -0.9420 H   0  0  0  0  0  0  0  0  0  0  0  0
   -5.6681    0.0154   -2.7556 H   0  0  0  0  0  0  0  0  0  0  0  0
  1  2  1  0
  2  3  2  0
  3  4  1  0
  4  5  2  0
  5  6  1  0
  6  7  1  0
  7  8  1  0
  8  9  1  0
  9 10  1  0
 10 11  1  0
 11 12  1  0
 12 13  1  0
 13 14  2  0
 14 15  1  0
 15 16  2  0
 16 17  1  0
 17 18  1  0
 18 19  2  0
 19 20  1  0
 20 21  2  0
 21 22  1  0
 22 23  2  0
 17 24  2  0
 24 25  1  0
 25 26  2  0
 26 27  1  0
 27 28  2  0
 28 29  1  0
 29 30  2  0
 30 31  1  0
 12 32  1  0
 32 33  1  0
  6 34  2  0
 34  2  1  0
 33  9  1  0
 31 13  1  0
 31 16  1  0
 23 18  1  0
 30 25  1  0
  3 35  1  0
  4 36  1  0
  5 37  1  0
  7 38  1  0
  7 39  1  0
  8 40  1  0
  8 41  1  0
 10 42  1  0
 10 43  1  0
 11 44  1  0
 11 45  1  0
 14 46  1  0
 15 47  1  0
 19 48  1  0
 20 49  1  0
 21 50  1  0
 22 51  1  0
 23 52  1  0
 26 53  1  0
 27 54  1  0
 28 55  1  0
 29 56  1  0
 32 57  1  0
 32 58  1  0
 33 59  1  0
 33 60  1  0
 34 61  1  0
M  END
$$$$
