
     RDKit          3D

 59 61  0  0  0  0  0  0  0  0999 V2000
   -6.8136    1.2533   -4.9958 C   0  0  0  0  0  0  0  0  0  0  0  0
   -6.4100    1.4562   -3.5425 C   0  0  0  0  0  0  0  0  0  0  0  0
   -5.7091    0.2802   -3.1057 O   0  0  0  0  0  0  0  0  0  0  0  0
   -4.5225    0.5987   -2.4951 C   0  0  0  0  0  0  0  0  0  0  0  0
   -3.4329    0.9654   -3.2910 C   0  0  0  0  0  0  0  0  0  0  0  0
   -2.2125    1.2419   -2.6840 C   0  0  0  0  0  0  0  0  0  0  0  0
   -1.1222    1.6311   -3.4570 N   0  0  0  0  0  0  0  0  0  0  0  0
    0.1067    1.9505   -2.9463 C   0  0  0  0  0  0  0  0  0  0  0  0
    1.2707    2.4103   -4.0641 S   0  0  0  0  0  0  0  0  0  0  0  0
    0.2587    1.8572   -1.5638 N   0  0  0  0  0  0  0  0  0  0  0  0
    1.5432    2.1529   -0.9017 C   0  0  0  0  0  0  0  0  0  0  0  0
    2.4308    0.9127   -0.8133 C   0  0  0  0  0  0  0  0  0  0  0  0
    3.7235    1.2172   -0.0903 C   0  0  0  0  0  0  0  0  0  0  0  0
    3.9680    2.2987    0.4316 O   0  0  0  0  0  0  0  0  0  0  0  0
    4.5908    0.1477   -0.0771 N   0  0  0  0  0  0  0  0  0  0  0  0
    5.8133    0.1604    0.6948 C   0  0  0  0  0  0  0  0  0  0  0  0
    5.6932   -0.7793    1.8665 C   0  0  0  0  0  0  0  0  0  0  0  0
    6.2814   -2.0502    1.8358 C   0  0  0  0  0  0  0  0  0  0  0  0
    6.1298   -2.9344    2.9111 C   0  0  0  0  0  0  0  0  0  0  0  0
    5.3808   -2.5612    4.0264 C   0  0  0  0  0  0  0  0  0  0  0  0
    5.1495   -3.3299    5.1334 O   0  0  0  0  0  0  0  0  0  0  0  0
    5.5793   -4.6847    5.0753 C   0  0  0  0  0  0  0  0  0  0  0  0
    4.7990   -1.2929    4.0631 C   0  0  0  0  0  0  0  0  0  0  0  0
    4.9483   -0.4087    2.9923 C   0  0  0  0  0  0  0  0  0  0  0  0
   -0.7578    1.4010   -0.7089 C   0  0  0  0  0  0  0  0  0  0  0  0
   -0.6048    1.1975    0.4940 O   0  0  0  0  0  0  0  0  0  0  0  0
   -2.0764    1.1271   -1.3083 C   0  0  0  0  0  0  0  0  0  0  0  0
   -3.1647    0.7411   -0.5104 C   0  0  0  0  0  0  0  0  0  0  0  0
   -4.4000    0.4693   -1.1019 C   0  0  0  0  0  0  0  0  0  0  0  0
   -5.5306    0.0891   -0.4300 O   0  0  0  0  0  0  0  0  0  0  0  0
   -5.4231   -0.1295    0.9767 C   0  0  0  0  0  0  0  0  0  0  0  0
   -6.7748   -0.6038    1.4803 C   0  0  0  0  0  0  0  0  0  0  0  0
   -7.4447    0.3654   -5.0957 H   0  0  0  0  0  0  0  0  0  0  0  0
   -5.9267    1.0832   -5.6188 H   0  0  0  0  0  0  0  0  0  0  0  0
   -7.3602    2.1220   -5.3792 H   0  0  0  0  0  0  0  0  0  0  0  0
   -5.8178    2.3747   -3.4457 H   0  0  0  0  0  0  0  0  0  0  0  0
   -7.3073    1.5669   -2.9191 H   0  0  0  0  0  0  0  0  0  0  0  0
   -3.5516    1.0229   -4.3686 H   0  0  0  0  0  0  0  0  0  0  0  0
   -1.2246    1.7099   -4.4634 H   0  0  0  0  0  0  0  0  0  0  0  0
    2.0620    2.9598   -1.4302 H   0  0  0  0  0  0  0  0  0  0  0  0
    1.3435    2.5407    0.1060 H   0  0  0  0  0  0  0  0  0  0  0  0
    2.6679    0.5356   -1.8145 H   0  0  0  0  0  0  0  0  0  0  0  0
    1.9145    0.1132   -0.2690 H   0  0  0  0  0  0  0  0  0  0  0  0
    4.2664   -0.7500   -0.4127 H   0  0  0  0  0  0  0  0  0  0  0  0
    6.6202   -0.1599    0.0264 H   0  0  0  0  0  0  0  0  0  0  0  0
    6.0569    1.1700    1.0426 H   0  0  0  0  0  0  0  0  0  0  0  0
    6.8642   -2.3639    0.9742 H   0  0  0  0  0  0  0  0  0  0  0  0
    6.6111   -3.9036    2.8468 H   0  0  0  0  0  0  0  0  0  0  0  0
    5.1219   -5.2105    4.2310 H   0  0  0  0  0  0  0  0  0  0  0  0
    5.2494   -5.1811    5.9925 H   0  0  0  0  0  0  0  0  0  0  0  0
    6.6719   -4.7502    5.0339 H   0  0  0  0  0  0  0  0  0  0  0  0
    4.2152   -0.9922    4.9299 H   0  0  0  0  0  0  0  0  0  0  0  0
    4.4737    0.5706    3.0375 H   0  0  0  0  0  0  0  0  0  0  0  0
   -3.0169    0.6610    0.5624 H   0  0  0  0  0  0  0  0  0  0  0  0
   -5.1597    0.8053    1.4855 H   0  0  0  0  0  0  0  0  0  0  0  0
   -4.6725   -0.9009    1.1885 H   0  0  0  0  0  0  0  0  0  0  0  0
   -6.7499   -0.7791    2.5608 H   0  0  0  0  0  0  0  0  0  0  0  0
   -7.5508    0.1381    1.2593 H   0  0  0  0  0  0  0  0  0  0  0  0
   -7.0677   -1.5328    0.9783 H   0  0  0  0  0  0  0  0  0  0  0  0
  1  2  1  0
  2  3  1  0
  3  4  1  0
  4  5  2  0
  5  6  1  0
  6  7  1  0
  7  8  1  0
  8  9  2  0
  8 10  1  0
 10 11  1  0
 11 12  1  0
 12 13  1  0
 13 14  2  0
 13 15  1  0
 15 16  1  0
 16 17  1  0
 17 18  2  0
 18 19  1  0
 19 20  2  0
 20 21  1  0
 21 22  1  0
 20 23  1  0
 23 24  2  0
 10 25  1  0
 25 26  2  0
 25 27  1  0
 27 28  1  0
 28 29  2  0
 29 30  1  0
 30 31  1  0
 31 32  1  0
 29  4  1  0
 27  6  2  0
 24 17  1  0
  1 33  1  0
  1 34  1  0
  1 35  1  0
  2 36  1  0
  2 37  1  0
  5 38  1  0
  7 39  1  0
 11 40  1  0
 11 41  1  0
 12 42  1  0
 12 43  1  0
 15 44  1  0
 16 45  1  0
 16 46  1  0
 18 47  1  0
 19 48  1  0
 22 49  1  0
 22 50  1  0
 22 51  1  0
 23 52  1  0
 24 53  1  0
 28 54  1  0
 31 55  1  0
 31 56  1  0
 32 57  1  0
 32 58  1  0
 32 59  1  0
M  END
$$$$
