
     RDKit          3D

 47 49  0  0  0  0  0  0  0  0999 V2000
    8.4331    0.6444    0.6644 C   0  0  0  0  0  0  0  0  0  0  0  0
    7.5049   -0.5047    0.3020 C   0  0  0  0  0  0  0  0  0  0  0  0
    6.0572   -0.0839    0.3200 C   0  0  0  0  0  0  0  0  0  0  0  0
    5.4558    0.4415   -0.8309 C   0  0  0  0  0  0  0  0  0  0  0  0
    4.1204    0.8507   -0.8063 C   0  0  0  0  0  0  0  0  0  0  0  0
    3.3667    0.7343    0.3630 C   0  0  0  0  0  0  0  0  0  0  0  0
    2.0242    1.1313    0.3818 N   0  0  0  0  0  0  0  0  0  0  0  0
    1.1156    0.2641    0.0956 C   0  0  0  0  0  0  0  0  0  0  0  0
    1.2920   -1.0409   -0.2405 N   0  0  0  0  0  0  0  0  0  0  0  0
    0.1777   -1.7799   -0.5102 C   0  0  0  0  0  0  0  0  0  0  0  0
    0.1832   -2.9599   -0.8225 O   0  0  0  0  0  0  0  0  0  0  0  0
   -1.0376   -0.9321   -0.3668 C   0  0  0  0  0  0  0  0  0  0  0  0
   -2.2671   -1.4266   -0.5631 C   0  0  0  0  0  0  0  0  0  0  0  0
   -3.5340   -0.6944   -0.4320 C   0  0  0  0  0  0  0  0  0  0  0  0
   -4.4859   -1.1524    0.4933 C   0  0  0  0  0  0  0  0  0  0  0  0
   -5.7135   -0.5006    0.6333 C   0  0  0  0  0  0  0  0  0  0  0  0
   -6.7050   -0.8642    1.5048 O   0  0  0  0  0  0  0  0  0  0  0  0
   -6.4535   -1.9653    2.3651 C   0  0  0  0  0  0  0  0  0  0  0  0
   -5.9724    0.6126   -0.1745 C   0  0  0  0  0  0  0  0  0  0  0  0
   -7.1733    1.2723   -0.0572 O   0  0  0  0  0  0  0  0  0  0  0  0
   -5.0373    1.0811   -1.1090 C   0  0  0  0  0  0  0  0  0  0  0  0
   -5.4370    2.1805   -1.8275 O   0  0  0  0  0  0  0  0  0  0  0  0
   -4.4772    2.7501   -2.7106 C   0  0  0  0  0  0  0  0  0  0  0  0
   -3.8199    0.4154   -1.2407 C   0  0  0  0  0  0  0  0  0  0  0  0
   -0.5826    0.6666    0.0945 S   0  0  0  0  0  0  0  0  0  0  0  0
    3.9708    0.2363    1.5188 C   0  0  0  0  0  0  0  0  0  0  0  0
    5.3059   -0.1740    1.4987 C   0  0  0  0  0  0  0  0  0  0  0  0
    8.3298    1.4761   -0.0409 H   0  0  0  0  0  0  0  0  0  0  0  0
    8.2191    1.0269    1.6682 H   0  0  0  0  0  0  0  0  0  0  0  0
    9.4751    0.3099    0.6439 H   0  0  0  0  0  0  0  0  0  0  0  0
    7.7638   -0.8916   -0.6911 H   0  0  0  0  0  0  0  0  0  0  0  0
    7.6553   -1.3372    1.0002 H   0  0  0  0  0  0  0  0  0  0  0  0
    6.0267    0.5452   -1.7511 H   0  0  0  0  0  0  0  0  0  0  0  0
    3.6677    1.2694   -1.7011 H   0  0  0  0  0  0  0  0  0  0  0  0
    2.2045   -1.4648   -0.2921 H   0  0  0  0  0  0  0  0  0  0  0  0
   -2.3811   -2.4788   -0.8235 H   0  0  0  0  0  0  0  0  0  0  0  0
   -4.2445   -2.0208    1.0981 H   0  0  0  0  0  0  0  0  0  0  0  0
   -6.3102   -2.8880    1.7931 H   0  0  0  0  0  0  0  0  0  0  0  0
   -7.3338   -2.1019    3.0006 H   0  0  0  0  0  0  0  0  0  0  0  0
   -5.5982   -1.7687    3.0199 H   0  0  0  0  0  0  0  0  0  0  0  0
   -7.1292    2.0006   -0.7046 H   0  0  0  0  0  0  0  0  0  0  0  0
   -3.5798    3.0679   -2.1695 H   0  0  0  0  0  0  0  0  0  0  0  0
   -4.2280    2.0560   -3.5198 H   0  0  0  0  0  0  0  0  0  0  0  0
   -4.9263    3.6400   -3.1622 H   0  0  0  0  0  0  0  0  0  0  0  0
   -3.0817    0.7375   -1.9676 H   0  0  0  0  0  0  0  0  0  0  0  0
    3.4009    0.1745    2.4422 H   0  0  0  0  0  0  0  0  0  0  0  0
    5.7587   -0.5546    2.4117 H   0  0  0  0  0  0  0  0  0  0  0  0
  1  2  1  0
  2  3  1  0
  3  4  2  0
  4  5  1  0
  5  6  2  0
  6  7  1  0
  7  8  2  3
  8  9  1  0
  9 10  1  0
 10 11  2  0
 10 12  1  0
 12 13  2  3
 13 14  1  0
 14 15  2  0
 15 16  1  0
 16 17  1  0
 17 18  1  0
 16 19  2  0
 19 20  1  0
 19 21  1  0
 21 22  1  0
 22 23  1  0
 21 24  2  0
 12 25  1  0
  6 26  1  0
 26 27  2  0
 27  3  1  0
 25  8  1  0
 24 14  1  0
  1 28  1  0
  1 29  1  0
  1 30  1  0
  2 31  1  0
  2 32  1  0
  4 33  1  0
  5 34  1  0
  9 35  1  0
 13 36  1  0
 15 37  1  0
 18 38  1  0
 18 39  1  0
 18 40  1  0
 20 41  1  0
 23 42  1  0
 23 43  1  0
 23 44  1  0
 24 45  1  0
 26 46  1  0
 27 47  1  0
M  END
$$$$
