
     RDKit          3D

 53 54  0  0  0  0  0  0  0  0999 V2000
   -7.1476    0.0561   -0.4690 C   0  0  0  0  0  0  0  0  0  0  0  0
   -5.6992   -0.1553   -0.8799 C   0  0  0  0  0  0  0  0  0  0  0  0
   -4.8539   -0.4000    0.3129 N   0  0  0  0  0  0  0  0  0  0  0  0
   -4.5786    0.7966    1.1443 C   0  0  0  0  0  0  0  0  0  0  0  0
   -5.2022    0.6139    2.5172 C   0  0  0  0  0  0  0  0  0  0  0  0
   -3.6045   -1.5470    0.1607 S   0  0  0  0  0  6  0  0  0  0  0  0
   -4.1281   -2.7092   -0.5247 O   0  0  0  0  0  0  0  0  0  0  0  0
   -2.9397   -1.6693    1.4405 O   0  0  0  0  0  0  0  0  0  0  0  0
   -2.4595   -0.7522   -0.9547 C   0  0  0  0  0  0  0  0  0  0  0  0
   -2.6143   -0.9212   -2.3345 C   0  0  0  0  0  0  0  0  0  0  0  0
   -1.7028   -0.3304   -3.2077 C   0  0  0  0  0  0  0  0  0  0  0  0
   -0.6328    0.4117   -2.7019 C   0  0  0  0  0  0  0  0  0  0  0  0
   -0.4592    0.5604   -1.3173 C   0  0  0  0  0  0  0  0  0  0  0  0
    0.7099    1.3472   -0.8395 C   0  0  0  0  0  0  0  0  0  0  0  0
    1.5361    1.8537   -1.5842 O   0  0  0  0  0  0  0  0  0  0  0  0
    0.7279    1.4153    0.5126 O   0  0  0  0  0  0  0  0  0  0  0  0
    1.8001    2.1743    1.0745 C   0  0  0  0  0  0  0  0  0  0  0  0
    3.1398    1.4359    1.0653 C   0  0  0  0  0  0  0  0  0  0  0  0
    3.5740    0.8166    2.0362 O   0  0  0  0  0  0  0  0  0  0  0  0
    3.8275    1.4983   -0.1269 N   0  0  0  0  0  0  0  0  0  0  0  0
    5.0906    0.8071   -0.2922 C   0  0  0  0  0  0  0  0  0  0  0  0
    4.9413   -0.7211   -0.2668 C   0  0  0  0  0  0  0  0  0  0  0  0
    6.0624   -1.3595    0.3897 N   0  0  0  0  0  0  0  0  0  0  0  0
    6.1318   -1.6514    1.7318 C   0  0  0  0  0  0  0  0  0  0  0  0
    5.1211   -1.3493    2.5953 O   0  0  0  0  0  0  0  0  0  0  0  0
    7.2647   -2.2517    2.1086 C   0  0  0  0  0  0  0  0  0  0  0  0
    8.3522   -2.4608    0.7719 S   0  0  0  0  0  0  0  0  0  0  0  0
    7.2013   -1.6902   -0.3323 C   0  0  0  0  0  0  0  0  0  0  0  0
    7.4186   -1.4921   -1.5168 O   0  0  0  0  0  0  0  0  0  0  0  0
   -1.3742   -0.0334   -0.4389 C   0  0  0  0  0  0  0  0  0  0  0  0
   -7.2667    0.9572    0.1404 H   0  0  0  0  0  0  0  0  0  0  0  0
   -7.7799    0.1667   -1.3556 H   0  0  0  0  0  0  0  0  0  0  0  0
   -7.5181   -0.7949    0.1121 H   0  0  0  0  0  0  0  0  0  0  0  0
   -5.3277    0.7137   -1.4342 H   0  0  0  0  0  0  0  0  0  0  0  0
   -5.6704   -1.0122   -1.5599 H   0  0  0  0  0  0  0  0  0  0  0  0
   -4.9837    1.6990    0.6736 H   0  0  0  0  0  0  0  0  0  0  0  0
   -3.5043    0.9705    1.2501 H   0  0  0  0  0  0  0  0  0  0  0  0
   -6.2850    0.4702    2.4452 H   0  0  0  0  0  0  0  0  0  0  0  0
   -5.0163    1.4951    3.1389 H   0  0  0  0  0  0  0  0  0  0  0  0
   -4.7847   -0.2583    3.0300 H   0  0  0  0  0  0  0  0  0  0  0  0
   -3.4317   -1.5190   -2.7337 H   0  0  0  0  0  0  0  0  0  0  0  0
   -1.8169   -0.4567   -4.2825 H   0  0  0  0  0  0  0  0  0  0  0  0
    0.0738    0.8641   -3.3966 H   0  0  0  0  0  0  0  0  0  0  0  0
    1.8988    3.1450    0.5732 H   0  0  0  0  0  0  0  0  0  0  0  0
    1.5429    2.3875    2.1176 H   0  0  0  0  0  0  0  0  0  0  0  0
    3.3162    1.8073   -0.9565 H   0  0  0  0  0  0  0  0  0  0  0  0
    5.5291    1.1349   -1.2403 H   0  0  0  0  0  0  0  0  0  0  0  0
    5.7505    1.1491    0.5143 H   0  0  0  0  0  0  0  0  0  0  0  0
    4.8821   -1.0834   -1.3010 H   0  0  0  0  0  0  0  0  0  0  0  0
    4.0147   -1.0512    0.2157 H   0  0  0  0  0  0  0  0  0  0  0  0
    4.6230   -0.5673    2.2750 H   0  0  0  0  0  0  0  0  0  0  0  0
    7.4973   -2.5602    3.1178 H   0  0  0  0  0  0  0  0  0  0  0  0
   -1.2458    0.0497    0.6384 H   0  0  0  0  0  0  0  0  0  0  0  0
  1  2  1  0
  2  3  1  0
  3  4  1  0
  4  5  1  0
  3  6  1  0
  6  7  2  0
  6  8  2  0
  6  9  1  0
  9 10  2  0
 10 11  1  0
 11 12  2  0
 12 13  1  0
 13 14  1  0
 14 15  2  0
 14 16  1  0
 16 17  1  0
 17 18  1  0
 18 19  2  0
 18 20  1  0
 20 21  1  0
 21 22  1  0
 22 23  1  0
 23 24  1  0
 24 25  1  0
 24 26  2  0
 26 27  1  0
 27 28  1  0
 28 29  2  0
 13 30  2  0
 30  9  1  0
 28 23  1  0
  1 31  1  0
  1 32  1  0
  1 33  1  0
  2 34  1  0
  2 35  1  0
  4 36  1  0
  4 37  1  0
  5 38  1  0
  5 39  1  0
  5 40  1  0
 10 41  1  0
 11 42  1  0
 12 43  1  0
 17 44  1  0
 17 45  1  0
 20 46  1  0
 21 47  1  0
 21 48  1  0
 22 49  1  0
 22 50  1  0
 25 51  1  0
 26 52  1  0
 30 53  1  0
M  END
$$$$
