
     RDKit          3D

 36 35  0  0  0  0  0  0  0  0999 V2000
    2.8689   -2.7871   -0.6326 C   0  0  0  0  0  0  0  0  0  0  0  0
    3.6258   -1.4734   -0.7773 C   0  0  0  0  0  0  0  0  0  0  0  0
    2.7346   -0.3251   -1.0355 N   0  0  0  0  0  0  0  0  0  0  0  0
    2.7320    0.1571   -2.4309 C   0  0  0  0  0  0  0  0  0  0  0  0
    2.1222   -0.8304   -3.4147 C   0  0  0  0  0  0  0  0  0  0  0  0
    2.0345    0.3029    0.0181 C   0  0  0  0  0  0  0  0  0  0  0  0
    2.2851    0.0152    1.6645 S   0  0  0  0  0  0  0  0  0  0  0  0
    0.8383    1.5463   -0.3960 S   0  0  0  0  0  0  0  0  0  0  0  0
   -0.7145    0.4403   -1.1923 S   0  0  0  0  0  0  0  0  0  0  0  0
   -1.5126   -0.1902    0.2616 C   0  0  0  0  0  0  0  0  0  0  0  0
   -1.2603   -1.8191    0.6273 S   0  0  0  0  0  0  0  0  0  0  0  0
   -2.3426    0.6894    0.9870 N   0  0  0  0  0  0  0  0  0  0  0  0
   -2.9566    0.2892    2.2661 C   0  0  0  0  0  0  0  0  0  0  0  0
   -2.0552    0.6219    3.4460 C   0  0  0  0  0  0  0  0  0  0  0  0
   -2.7191    2.0388    0.5290 C   0  0  0  0  0  0  0  0  0  0  0  0
   -3.9610    2.0044   -0.3501 C   0  0  0  0  0  0  0  0  0  0  0  0
    2.2802   -3.0109   -1.5268 H   0  0  0  0  0  0  0  0  0  0  0  0
    2.1804   -2.7687    0.2163 H   0  0  0  0  0  0  0  0  0  0  0  0
    3.5729   -3.6105   -0.4759 H   0  0  0  0  0  0  0  0  0  0  0  0
    4.3459   -1.5577   -1.5997 H   0  0  0  0  0  0  0  0  0  0  0  0
    4.2215   -1.2868    0.1216 H   0  0  0  0  0  0  0  0  0  0  0  0
    2.2253    1.1180   -2.5297 H   0  0  0  0  0  0  0  0  0  0  0  0
    3.7757    0.3518   -2.7072 H   0  0  0  0  0  0  0  0  0  0  0  0
    2.7334   -1.7339   -3.5015 H   0  0  0  0  0  0  0  0  0  0  0  0
    1.1170   -1.1339   -3.1113 H   0  0  0  0  0  0  0  0  0  0  0  0
    2.0602   -0.3798   -4.4104 H   0  0  0  0  0  0  0  0  0  0  0  0
   -3.9170    0.8065    2.3749 H   0  0  0  0  0  0  0  0  0  0  0  0
   -3.1897   -0.7788    2.2701 H   0  0  0  0  0  0  0  0  0  0  0  0
   -1.8445    1.6954    3.4898 H   0  0  0  0  0  0  0  0  0  0  0  0
   -2.5360    0.3301    4.3848 H   0  0  0  0  0  0  0  0  0  0  0  0
   -1.0967    0.0986    3.3763 H   0  0  0  0  0  0  0  0  0  0  0  0
   -2.9012    2.6689    1.4076 H   0  0  0  0  0  0  0  0  0  0  0  0
   -1.9055    2.5177   -0.0165 H   0  0  0  0  0  0  0  0  0  0  0  0
   -4.2266    3.0165   -0.6707 H   0  0  0  0  0  0  0  0  0  0  0  0
   -4.8151    1.5832    0.1897 H   0  0  0  0  0  0  0  0  0  0  0  0
   -3.8000    1.3939   -1.2441 H   0  0  0  0  0  0  0  0  0  0  0  0
  1  2  1  0
  2  3  1  0
  3  4  1  0
  4  5  1  0
  3  6  1  0
  6  7  2  0
  6  8  1  0
  8  9  1  0
  9 10  1  0
 10 11  2  0
 10 12  1  0
 12 13  1  0
 13 14  1  0
 12 15  1  0
 15 16  1  0
  1 17  1  0
  1 18  1  0
  1 19  1  0
  2 20  1  0
  2 21  1  0
  4 22  1  0
  4 23  1  0
  5 24  1  0
  5 25  1  0
  5 26  1  0
 13 27  1  0
 13 28  1  0
 14 29  1  0
 14 30  1  0
 14 31  1  0
 15 32  1  0
 15 33  1  0
 16 34  1  0
 16 35  1  0
 16 36  1  0
M  END
$$$$
