
     RDKit          3D

 35 37  0  0  0  0  0  0  0  0999 V2000
   -2.4446    4.3200    4.2905 C   0  0  0  0  0  0  0  0  0  0  0  0
   -1.6912    3.1225    4.4343 O   0  0  0  0  0  0  0  0  0  0  0  0
   -1.4285    2.4180    3.2922 C   0  0  0  0  0  0  0  0  0  0  0  0
   -0.6310    1.2863    3.4745 C   0  0  0  0  0  0  0  0  0  0  0  0
   -0.2832    0.4756    2.3906 C   0  0  0  0  0  0  0  0  0  0  0  0
   -0.7271    0.7928    1.1041 C   0  0  0  0  0  0  0  0  0  0  0  0
   -0.3656   -0.0874   -0.0140 C   0  0  0  0  0  0  0  0  0  0  0  0
    0.3200    0.2598   -1.1240 C   0  0  0  0  0  0  0  0  0  0  0  0
    0.7822    1.6018   -1.3305 C   0  0  0  0  0  0  0  0  0  0  0  0
    1.1397    2.6921   -1.5129 N   0  0  0  0  0  0  0  0  0  0  0  0
    0.6246   -0.6961   -2.1534 C   0  0  0  0  0  0  0  0  0  0  0  0
    0.3965   -0.4931   -3.4997 C   0  0  0  0  0  0  0  0  0  0  0  0
    0.7980   -1.6172   -4.1714 N   0  0  0  0  0  0  0  0  0  0  0  0
    1.2918   -2.5500   -3.2885 C   0  0  0  0  0  0  0  0  0  0  0  0
    1.8109   -3.8278   -3.5304 C   0  0  0  0  0  0  0  0  0  0  0  0
    2.2611   -4.5647   -2.4320 C   0  0  0  0  0  0  0  0  0  0  0  0
    2.1982   -4.0411   -1.1439 C   0  0  0  0  0  0  0  0  0  0  0  0
    1.6760   -2.7620   -0.9186 C   0  0  0  0  0  0  0  0  0  0  0  0
    1.2035   -1.9978   -2.0082 C   0  0  0  0  0  0  0  0  0  0  0  0
   -1.5402    1.9170    0.9239 C   0  0  0  0  0  0  0  0  0  0  0  0
   -1.8848    2.7290    2.0117 C   0  0  0  0  0  0  0  0  0  0  0  0
   -1.9298    5.0363    3.6416 H   0  0  0  0  0  0  0  0  0  0  0  0
   -3.4544    4.1081    3.9240 H   0  0  0  0  0  0  0  0  0  0  0  0
   -2.5391    4.7762    5.2806 H   0  0  0  0  0  0  0  0  0  0  0  0
   -0.2746    1.0353    4.4707 H   0  0  0  0  0  0  0  0  0  0  0  0
    0.3414   -0.3974    2.5644 H   0  0  0  0  0  0  0  0  0  0  0  0
   -0.6975   -1.1167    0.1133 H   0  0  0  0  0  0  0  0  0  0  0  0
   -0.0191    0.3473   -4.0415 H   0  0  0  0  0  0  0  0  0  0  0  0
    0.7482   -1.7473   -5.1727 H   0  0  0  0  0  0  0  0  0  0  0  0
    1.8691   -4.2369   -4.5340 H   0  0  0  0  0  0  0  0  0  0  0  0
    2.6720   -5.5598   -2.5878 H   0  0  0  0  0  0  0  0  0  0  0  0
    2.5616   -4.6282   -0.3039 H   0  0  0  0  0  0  0  0  0  0  0  0
    1.6459   -2.3657    0.0920 H   0  0  0  0  0  0  0  0  0  0  0  0
   -1.9183    2.1771   -0.0626 H   0  0  0  0  0  0  0  0  0  0  0  0
   -2.5118    3.5937    1.8216 H   0  0  0  0  0  0  0  0  0  0  0  0
  1  2  1  0
  2  3  1  0
  3  4  2  0
  4  5  1  0
  5  6  2  0
  6  7  1  0
  7  8  2  3
  8  9  1  0
  9 10  3  0
  8 11  1  0
 11 12  2  0
 12 13  1  0
 13 14  1  0
 14 15  2  0
 15 16  1  0
 16 17  2  0
 17 18  1  0
 18 19  2  0
  6 20  1  0
 20 21  2  0
 21  3  1  0
 19 11  1  0
 19 14  1  0
  1 22  1  0
  1 23  1  0
  1 24  1  0
  4 25  1  0
  5 26  1  0
  7 27  1  0
 12 28  1  0
 13 29  1  0
 15 30  1  0
 16 31  1  0
 17 32  1  0
 18 33  1  0
 20 34  1  0
 21 35  1  0
M  END
$$$$
