
     RDKit          3D

 81 84  0  0  0  0  0  0  0  0999 V2000
   -5.8452    5.1936    3.2117 C   0  0  0  0  0  0  0  0  0  0  0  0
   -5.5550    4.5897    1.9575 O   0  0  0  0  0  0  0  0  0  0  0  0
   -4.3233    4.0101    1.8238 C   0  0  0  0  0  0  0  0  0  0  0  0
   -4.1223    3.3569    0.6054 C   0  0  0  0  0  0  0  0  0  0  0  0
   -2.9144    2.7151    0.3293 C   0  0  0  0  0  0  0  0  0  0  0  0
   -1.9036    2.7185    1.2912 C   0  0  0  0  0  0  0  0  0  0  0  0
   -0.3541    1.9157    0.9459 S   0  0  0  0  0  6  0  0  0  0  0  0
    0.6672    2.5929    1.7165 O   0  0  0  0  0  0  0  0  0  0  0  0
   -0.2319    1.7922   -0.4958 O   0  0  0  0  0  0  0  0  0  0  0  0
   -0.5754    0.3556    1.5758 N   0  0  0  0  0  0  0  0  0  0  0  0
   -0.5411    0.2205    3.0442 C   0  0  0  0  0  0  0  0  0  0  0  0
   -1.5930   -0.5043    0.9047 C   0  0  0  0  0  0  0  0  0  0  0  0
   -1.0273   -1.9112    0.5947 C   0  0  0  0  0  0  0  0  0  0  0  0
    0.0131   -1.7520   -0.3880 O   0  0  0  0  0  0  0  0  0  0  0  0
    1.2473   -2.2890   -0.1035 C   0  0  0  0  0  0  0  0  0  0  0  0
    2.3509   -1.4738   -0.4522 C   0  0  0  0  0  0  0  0  0  0  0  0
    2.0676   -0.1996   -0.9967 N   0  0  0  0  0  0  0  0  0  0  0  0
    2.9511    0.7855   -1.4039 C   0  0  0  0  0  0  0  0  0  0  0  0
    4.1668    0.6444   -1.5016 O   0  0  0  0  0  0  0  0  0  0  0  0
    2.2703    1.9604   -1.6687 N   0  0  0  0  0  0  0  0  0  0  0  0
    2.7979    3.2454   -1.8964 C   0  0  0  0  0  0  0  0  0  0  0  0
    1.8748    4.2915   -2.0125 C   0  0  0  0  0  0  0  0  0  0  0  0
    2.3018    5.6155   -2.1521 C   0  0  0  0  0  0  0  0  0  0  0  0
    3.6696    5.9171   -2.1752 C   0  0  0  0  0  0  0  0  0  0  0  0
    4.1577    7.3385   -2.2742 C   0  0  0  0  0  0  0  0  0  0  0  0
    3.1554    8.2601   -2.2201 F   0  0  0  0  0  0  0  0  0  0  0  0
    5.0192    7.6668   -1.2730 F   0  0  0  0  0  0  0  0  0  0  0  0
    4.8265    7.5887   -3.4338 F   0  0  0  0  0  0  0  0  0  0  0  0
    4.5913    4.8638   -2.1020 C   0  0  0  0  0  0  0  0  0  0  0  0
    4.1599    3.5374   -1.9617 C   0  0  0  0  0  0  0  0  0  0  0  0
    3.6524   -1.9209   -0.2019 C   0  0  0  0  0  0  0  0  0  0  0  0
    3.8720   -3.1636    0.3904 C   0  0  0  0  0  0  0  0  0  0  0  0
    2.7932   -3.9776    0.7214 C   0  0  0  0  0  0  0  0  0  0  0  0
    1.4828   -3.5575    0.4485 C   0  0  0  0  0  0  0  0  0  0  0  0
    0.4146   -4.5264    0.7725 C   0  0  0  0  0  0  0  0  0  0  0  0
    0.3960   -5.0776    1.8673 O   0  0  0  0  0  0  0  0  0  0  0  0
   -0.5600   -4.7239   -0.2132 N   0  0  0  0  0  0  0  0  0  0  0  0
   -0.5035   -6.0232   -0.9297 C   0  0  0  0  0  0  0  0  0  0  0  0
   -0.8704   -7.2162   -0.0423 C   0  0  0  0  0  0  0  0  0  0  0  0
    0.8608   -6.2807   -1.6096 C   0  0  0  0  0  0  0  0  0  0  0  0
    1.0869   -5.3209   -2.6375 O   0  0  0  0  0  0  0  0  0  0  0  0
   -1.8924   -4.3090    0.2095 C   0  0  0  0  0  0  0  0  0  0  0  0
   -2.1573   -2.8051    0.0160 C   0  0  0  0  0  0  0  0  0  0  0  0
   -2.4436   -2.5126   -1.4644 C   0  0  0  0  0  0  0  0  0  0  0  0
   -2.0784    3.3963    2.5009 C   0  0  0  0  0  0  0  0  0  0  0  0
   -3.2938    4.0355    2.7678 C   0  0  0  0  0  0  0  0  0  0  0  0
   -5.1860    6.0464    3.4049 H   0  0  0  0  0  0  0  0  0  0  0  0
   -6.8715    5.5686    3.1746 H   0  0  0  0  0  0  0  0  0  0  0  0
   -5.7904    4.4636    4.0250 H   0  0  0  0  0  0  0  0  0  0  0  0
   -4.9179    3.3563   -0.1373 H   0  0  0  0  0  0  0  0  0  0  0  0
   -2.7791    2.2243   -0.6308 H   0  0  0  0  0  0  0  0  0  0  0  0
   -0.4410   -0.8317    3.3219 H   0  0  0  0  0  0  0  0  0  0  0  0
   -1.4544    0.6125    3.4994 H   0  0  0  0  0  0  0  0  0  0  0  0
    0.3293    0.7335    3.4614 H   0  0  0  0  0  0  0  0  0  0  0  0
   -2.4829   -0.5729    1.5461 H   0  0  0  0  0  0  0  0  0  0  0  0
   -1.9064   -0.0398   -0.0351 H   0  0  0  0  0  0  0  0  0  0  0  0
   -0.6496   -2.3211    1.5376 H   0  0  0  0  0  0  0  0  0  0  0  0
    1.0771    0.0126   -1.0528 H   0  0  0  0  0  0  0  0  0  0  0  0
    1.2659    1.9249   -1.5262 H   0  0  0  0  0  0  0  0  0  0  0  0
    0.8062    4.0872   -1.9826 H   0  0  0  0  0  0  0  0  0  0  0  0
    1.5575    6.4069   -2.2138 H   0  0  0  0  0  0  0  0  0  0  0  0
    5.6622    5.0681   -2.1209 H   0  0  0  0  0  0  0  0  0  0  0  0
    4.9135    2.7573   -1.8913 H   0  0  0  0  0  0  0  0  0  0  0  0
    4.5191   -1.3104   -0.4399 H   0  0  0  0  0  0  0  0  0  0  0  0
    4.8896   -3.4919    0.5879 H   0  0  0  0  0  0  0  0  0  0  0  0
    2.9730   -4.9477    1.1792 H   0  0  0  0  0  0  0  0  0  0  0  0
   -1.2432   -5.9432   -1.7353 H   0  0  0  0  0  0  0  0  0  0  0  0
   -1.8611   -7.0899    0.4042 H   0  0  0  0  0  0  0  0  0  0  0  0
   -0.1536   -7.3584    0.7692 H   0  0  0  0  0  0  0  0  0  0  0  0
   -0.8919   -8.1419   -0.6279 H   0  0  0  0  0  0  0  0  0  0  0  0
    0.8635   -7.2713   -2.0781 H   0  0  0  0  0  0  0  0  0  0  0  0
    1.6924   -6.2443   -0.8978 H   0  0  0  0  0  0  0  0  0  0  0  0
    2.0187   -5.3931   -2.9041 H   0  0  0  0  0  0  0  0  0  0  0  0
   -2.0289   -4.5679    1.2667 H   0  0  0  0  0  0  0  0  0  0  0  0
   -2.6467   -4.8738   -0.3487 H   0  0  0  0  0  0  0  0  0  0  0  0
   -3.0814   -2.5978    0.5731 H   0  0  0  0  0  0  0  0  0  0  0  0
   -1.6037   -2.8037   -2.1044 H   0  0  0  0  0  0  0  0  0  0  0  0
   -2.6389   -1.4501   -1.6360 H   0  0  0  0  0  0  0  0  0  0  0  0
   -3.3273   -3.0653   -1.8034 H   0  0  0  0  0  0  0  0  0  0  0  0
   -1.2735    3.4374    3.2329 H   0  0  0  0  0  0  0  0  0  0  0  0
   -3.3999    4.5540    3.7129 H   0  0  0  0  0  0  0  0  0  0  0  0
  1  2  1  0
  2  3  1  0
  3  4  2  0
  4  5  1  0
  5  6  2  0
  6  7  1  0
  7  8  2  0
  7  9  2  0
  7 10  1  0
 10 11  1  0
 10 12  1  0
 12 13  1  0
 13 14  1  0
 14 15  1  0
 15 16  2  0
 16 17  1  0
 17 18  1  0
 18 19  2  0
 18 20  1  0
 20 21  1  0
 21 22  2  0
 22 23  1  0
 23 24  2  0
 24 25  1  0
 25 26  1  0
 25 27  1  0
 25 28  1  0
 24 29  1  0
 29 30  2  0
 16 31  1  0
 31 32  2  0
 32 33  1  0
 33 34  2  0
 34 35  1  0
 35 36  2  0
 35 37  1  0
 37 38  1  0
 38 39  1  0
 38 40  1  0
 40 41  1  0
 37 42  1  0
 42 43  1  0
 43 44  1  0
  6 45  1  0
 45 46  2  0
 46  3  1  0
 43 13  1  0
 34 15  1  0
 30 21  1  0
  1 47  1  0
  1 48  1  0
  1 49  1  0
  4 50  1  0
  5 51  1  0
 11 52  1  0
 11 53  1  0
 11 54  1  0
 12 55  1  0
 12 56  1  0
 13 57  1  0
 17 58  1  0
 20 59  1  0
 22 60  1  0
 23 61  1  0
 29 62  1  0
 30 63  1  0
 31 64  1  0
 32 65  1  0
 33 66  1  0
 38 67  1  0
 39 68  1  0
 39 69  1  0
 39 70  1  0
 40 71  1  0
 40 72  1  0
 41 73  1  0
 42 74  1  0
 42 75  1  0
 43 76  1  0
 44 77  1  0
 44 78  1  0
 44 79  1  0
 45 80  1  0
 46 81  1  0
M  END
$$$$
