
     RDKit          3D

 56 58  0  0  0  0  0  0  0  0999 V2000
    6.6452    0.2679   -3.8934 C   0  0  0  0  0  0  0  0  0  0  0  0
    5.5430    0.8460   -3.2082 O   0  0  0  0  0  0  0  0  0  0  0  0
    4.3071    0.3085   -3.4495 C   0  0  0  0  0  0  0  0  0  0  0  0
    4.0238   -0.7018   -4.3668 C   0  0  0  0  0  0  0  0  0  0  0  0
    2.7122   -1.1627   -4.5274 C   0  0  0  0  0  0  0  0  0  0  0  0
    1.6740   -0.6127   -3.7712 C   0  0  0  0  0  0  0  0  0  0  0  0
    0.3501   -0.9786   -3.8708 O   0  0  0  0  0  0  0  0  0  0  0  0
    0.0265   -1.9876   -4.8233 C   0  0  0  0  0  0  0  0  0  0  0  0
    1.9549    0.4064   -2.8359 C   0  0  0  0  0  0  0  0  0  0  0  0
    0.8583    0.9224   -2.1076 N   0  0  0  0  0  0  0  0  0  0  0  0
    0.8476    1.9282   -1.1615 C   0  0  0  0  0  0  0  0  0  0  0  0
    1.8284    2.5337   -0.7361 O   0  0  0  0  0  0  0  0  0  0  0  0
   -0.5589    2.3091   -0.7180 C   0  0  0  0  0  0  0  0  0  0  0  0
   -0.7658    2.1493    1.0732 S   0  0  0  0  0  0  0  0  0  0  0  0
   -1.0558    0.4278    1.2497 C   0  0  0  0  0  0  0  0  0  0  0  0
   -0.8645   -0.3330    0.2206 N   0  0  0  0  0  0  0  0  0  0  0  0
   -1.0934   -1.7064    0.3549 C   0  0  0  0  0  0  0  0  0  0  0  0
   -0.7878   -2.5540   -0.7101 C   0  0  0  0  0  0  0  0  0  0  0  0
   -1.0270   -3.9285   -0.6222 C   0  0  0  0  0  0  0  0  0  0  0  0
   -1.5777   -4.4676    0.5418 C   0  0  0  0  0  0  0  0  0  0  0  0
   -1.8802   -3.6331    1.6155 C   0  0  0  0  0  0  0  0  0  0  0  0
   -1.6284   -2.2596    1.5127 C   0  0  0  0  0  0  0  0  0  0  0  0
   -1.9114   -1.3506    2.6330 C   0  0  0  0  0  0  0  0  0  0  0  0
   -2.5041   -1.7846    3.6178 O   0  0  0  0  0  0  0  0  0  0  0  0
   -1.5055   -0.0260    2.4837 N   0  0  0  0  0  0  0  0  0  0  0  0
   -1.7269    0.8457    3.6493 C   0  0  0  0  0  0  0  0  0  0  0  0
   -3.1378    1.4548    3.6545 C   0  0  0  0  0  0  0  0  0  0  0  0
   -3.2507    2.6211    4.5104 N   0  0  0  0  0  0  0  0  0  0  0  0
   -3.2448    2.5156    5.8831 C   0  0  0  0  0  0  0  0  0  0  0  0
   -3.3529    3.8298    6.6083 C   0  0  0  0  0  0  0  0  0  0  0  0
   -3.1664    1.4480    6.4819 O   0  0  0  0  0  0  0  0  0  0  0  0
    3.2690    0.8598   -2.6890 C   0  0  0  0  0  0  0  0  0  0  0  0
    6.7482   -0.7960   -3.6568 H   0  0  0  0  0  0  0  0  0  0  0  0
    7.5538    0.7732   -3.5562 H   0  0  0  0  0  0  0  0  0  0  0  0
    6.5604    0.4229   -4.9759 H   0  0  0  0  0  0  0  0  0  0  0  0
    4.8000   -1.1514   -4.9792 H   0  0  0  0  0  0  0  0  0  0  0  0
    2.5405   -1.9496   -5.2558 H   0  0  0  0  0  0  0  0  0  0  0  0
    0.2840   -1.6716   -5.8391 H   0  0  0  0  0  0  0  0  0  0  0  0
   -1.0569   -2.1457   -4.7911 H   0  0  0  0  0  0  0  0  0  0  0  0
    0.5088   -2.9374   -4.5683 H   0  0  0  0  0  0  0  0  0  0  0  0
   -0.0156    0.4401   -2.2950 H   0  0  0  0  0  0  0  0  0  0  0  0
   -0.7018    3.3617   -0.9871 H   0  0  0  0  0  0  0  0  0  0  0  0
   -1.3327    1.7494   -1.2516 H   0  0  0  0  0  0  0  0  0  0  0  0
   -0.3523   -2.1423   -1.6150 H   0  0  0  0  0  0  0  0  0  0  0  0
   -0.7801   -4.5775   -1.4594 H   0  0  0  0  0  0  0  0  0  0  0  0
   -1.7641   -5.5362    0.6150 H   0  0  0  0  0  0  0  0  0  0  0  0
   -2.3045   -4.0492    2.5275 H   0  0  0  0  0  0  0  0  0  0  0  0
   -0.9640    1.6305    3.6790 H   0  0  0  0  0  0  0  0  0  0  0  0
   -1.5784    0.2643    4.5674 H   0  0  0  0  0  0  0  0  0  0  0  0
   -3.8686    0.7065    3.9820 H   0  0  0  0  0  0  0  0  0  0  0  0
   -3.4326    1.7797    2.6496 H   0  0  0  0  0  0  0  0  0  0  0  0
   -3.2301    3.5385    4.0826 H   0  0  0  0  0  0  0  0  0  0  0  0
   -3.2368    4.6790    5.9294 H   0  0  0  0  0  0  0  0  0  0  0  0
   -4.3325    3.8931    7.0877 H   0  0  0  0  0  0  0  0  0  0  0  0
   -2.5643    3.8832    7.3649 H   0  0  0  0  0  0  0  0  0  0  0  0
    3.5197    1.6473   -1.9835 H   0  0  0  0  0  0  0  0  0  0  0  0
  1  2  1  0
  2  3  1  0
  3  4  2  0
  4  5  1  0
  5  6  2  0
  6  7  1  0
  7  8  1  0
  6  9  1  0
  9 10  1  0
 10 11  1  0
 11 12  2  0
 11 13  1  0
 13 14  1  0
 14 15  1  0
 15 16  2  0
 16 17  1  0
 17 18  2  0
 18 19  1  0
 19 20  2  0
 20 21  1  0
 21 22  2  0
 22 23  1  0
 23 24  2  0
 23 25  1  0
 25 26  1  0
 26 27  1  0
 27 28  1  0
 28 29  1  0
 29 30  1  0
 29 31  2  0
  9 32  2  0
 32  3  1  0
 25 15  1  0
 22 17  1  0
  1 33  1  0
  1 34  1  0
  1 35  1  0
  4 36  1  0
  5 37  1  0
  8 38  1  0
  8 39  1  0
  8 40  1  0
 10 41  1  0
 13 42  1  0
 13 43  1  0
 18 44  1  0
 19 45  1  0
 20 46  1  0
 21 47  1  0
 26 48  1  0
 26 49  1  0
 27 50  1  0
 27 51  1  0
 28 52  1  0
 30 53  1  0
 30 54  1  0
 30 55  1  0
 32 56  1  0
M  END
$$$$
