
     RDKit          3D

 58 62  0  0  0  0  0  0  0  0999 V2000
    7.3886    2.6622    1.7466 C   0  0  0  0  0  0  0  0  0  0  0  0
    6.1086    3.2749    1.8494 O   0  0  0  0  0  0  0  0  0  0  0  0
    5.0189    2.4608    1.7088 C   0  0  0  0  0  0  0  0  0  0  0  0
    5.0437    1.0798    1.5201 C   0  0  0  0  0  0  0  0  0  0  0  0
    3.8467    0.3662    1.3885 C   0  0  0  0  0  0  0  0  0  0  0  0
    2.6114    1.0240    1.4498 C   0  0  0  0  0  0  0  0  0  0  0  0
    1.3263    0.2531    1.2803 C   0  0  0  0  0  0  0  0  0  0  0  0
    0.9272    0.1386   -0.1952 C   0  0  0  0  0  0  0  0  0  0  0  0
   -0.3428   -0.6019   -0.3329 N   0  0  0  0  0  0  0  0  0  0  0  0
   -1.5807    0.0612   -0.2642 C   0  0  0  0  0  0  0  0  0  0  0  0
   -1.7145    1.3317   -0.0003 N   0  0  0  0  0  0  0  0  0  0  0  0
   -2.8573   -0.7108   -0.4924 C   0  0  0  0  0  0  0  0  0  0  0  0
   -4.2414   -0.1428   -0.5357 C   0  0  0  0  0  0  0  0  0  0  0  0
   -5.2340   -0.8623   -0.6171 O   0  0  0  0  0  0  0  0  0  0  0  0
   -4.3171    1.2205   -0.4887 N   0  0  0  0  0  0  0  0  0  0  0  0
   -5.5696    1.9193   -0.3562 C   0  0  0  0  0  0  0  0  0  0  0  0
   -5.4397    3.2496   -0.9976 C   0  0  0  0  0  0  0  0  0  0  0  0
   -5.4324    3.6637   -2.3147 C   0  0  0  0  0  0  0  0  0  0  0  0
   -5.2757    5.0719   -2.2883 C   0  0  0  0  0  0  0  0  0  0  0  0
   -5.1995    5.4257   -0.9619 C   0  0  0  0  0  0  0  0  0  0  0  0
   -5.2959    4.3271   -0.1686 O   0  0  0  0  0  0  0  0  0  0  0  0
   -2.7173   -2.0350   -0.6746 C   0  0  0  0  0  0  0  0  0  0  0  0
   -1.4286   -2.7051   -0.6561 C   0  0  0  0  0  0  0  0  0  0  0  0
   -1.3707   -4.1851   -0.8286 C   0  0  0  0  0  0  0  0  0  0  0  0
   -2.4095   -4.8297   -0.9873 O   0  0  0  0  0  0  0  0  0  0  0  0
   -0.1078   -4.7502   -0.7981 N   0  0  0  0  0  0  0  0  0  0  0  0
    0.0311   -6.1267   -0.9464 C   0  0  0  0  0  0  0  0  0  0  0  0
    1.2309   -6.7209   -0.9258 C   0  0  0  0  0  0  0  0  0  0  0  0
    2.4185   -5.9289   -0.7483 C   0  0  0  0  0  0  0  0  0  0  0  0
    2.3308   -4.6014   -0.6021 C   0  0  0  0  0  0  0  0  0  0  0  0
    0.9956   -3.9378   -0.6213 C   0  0  0  0  0  0  0  0  0  0  0  0
    0.9429   -2.6531   -0.4729 N   0  0  0  0  0  0  0  0  0  0  0  0
   -0.2776   -2.0139   -0.4925 C   0  0  0  0  0  0  0  0  0  0  0  0
    2.5910    2.4089    1.6394 C   0  0  0  0  0  0  0  0  0  0  0  0
    3.7878    3.1177    1.7694 C   0  0  0  0  0  0  0  0  0  0  0  0
    7.5280    2.2012    0.7625 H   0  0  0  0  0  0  0  0  0  0  0  0
    8.1449    3.4466    1.8564 H   0  0  0  0  0  0  0  0  0  0  0  0
    7.5442    1.9354    2.5510 H   0  0  0  0  0  0  0  0  0  0  0  0
    5.9751    0.5259    1.4713 H   0  0  0  0  0  0  0  0  0  0  0  0
    3.8863   -0.7109    1.2399 H   0  0  0  0  0  0  0  0  0  0  0  0
    0.5304    0.7403    1.8581 H   0  0  0  0  0  0  0  0  0  0  0  0
    1.4395   -0.7439    1.7255 H   0  0  0  0  0  0  0  0  0  0  0  0
    0.8478    1.1301   -0.6590 H   0  0  0  0  0  0  0  0  0  0  0  0
    1.7284   -0.3476   -0.7680 H   0  0  0  0  0  0  0  0  0  0  0  0
   -0.8140    1.7792    0.1632 H   0  0  0  0  0  0  0  0  0  0  0  0
   -3.4485    1.7233   -0.2849 H   0  0  0  0  0  0  0  0  0  0  0  0
   -5.7877    2.0106    0.7137 H   0  0  0  0  0  0  0  0  0  0  0  0
   -6.3786    1.3449   -0.8207 H   0  0  0  0  0  0  0  0  0  0  0  0
   -5.5236    3.0213   -3.1817 H   0  0  0  0  0  0  0  0  0  0  0  0
   -5.2238    5.7456   -3.1315 H   0  0  0  0  0  0  0  0  0  0  0  0
   -5.0835    6.3660   -0.4411 H   0  0  0  0  0  0  0  0  0  0  0  0
   -3.5927   -2.6604   -0.8451 H   0  0  0  0  0  0  0  0  0  0  0  0
   -0.8803   -6.7049   -1.0799 H   0  0  0  0  0  0  0  0  0  0  0  0
    1.3292   -7.7963   -1.0409 H   0  0  0  0  0  0  0  0  0  0  0  0
    3.3804   -6.4315   -0.7379 H   0  0  0  0  0  0  0  0  0  0  0  0
    3.1999   -3.9699   -0.4681 H   0  0  0  0  0  0  0  0  0  0  0  0
    1.6491    2.9501    1.6927 H   0  0  0  0  0  0  0  0  0  0  0  0
    3.7617    4.1939    1.9193 H   0  0  0  0  0  0  0  0  0  0  0  0
  1  2  1  0
  2  3  1  0
  3  4  2  0
  4  5  1  0
  5  6  2  0
  6  7  1  0
  7  8  1  0
  8  9  1  0
  9 10  1  0
 10 11  2  3
 10 12  1  0
 12 13  1  0
 13 14  2  0
 13 15  1  0
 15 16  1  0
 16 17  1  0
 17 18  2  0
 18 19  1  0
 19 20  2  0
 20 21  1  0
 12 22  2  0
 22 23  1  0
 23 24  1  0
 24 25  2  0
 24 26  1  0
 26 27  1  0
 27 28  2  0
 28 29  1  0
 29 30  2  0
 30 31  1  0
 31 32  2  0
 32 33  1  0
  6 34  1  0
 34 35  2  0
 35  3  1  0
 33  9  1  0
 21 17  1  0
 33 23  2  0
 31 26  1  0
  1 36  1  0
  1 37  1  0
  1 38  1  0
  4 39  1  0
  5 40  1  0
  7 41  1  0
  7 42  1  0
  8 43  1  0
  8 44  1  0
 11 45  1  0
 15 46  1  0
 16 47  1  0
 16 48  1  0
 18 49  1  0
 19 50  1  0
 20 51  1  0
 22 52  1  0
 27 53  1  0
 28 54  1  0
 29 55  1  0
 30 56  1  0
 34 57  1  0
 35 58  1  0
M  END
$$$$
