
     RDKit          3D

 42 43  0  0  0  0  0  0  0  0999 V2000
   -5.7028   -1.3445   -0.7884 C   0  0  0  0  0  0  0  0  0  0  0  0
   -4.4808   -0.6653   -0.2590 C   0  0  0  0  0  0  0  0  0  0  0  0
   -4.0610    0.6000   -0.4730 C   0  0  0  0  0  0  0  0  0  0  0  0
   -4.8249    1.6130   -1.2868 C   0  0  0  0  0  0  0  0  0  0  0  0
   -2.7717    1.1681    0.1142 C   0  0  0  0  0  0  0  0  0  0  0  0
   -1.8274    0.1880    0.6670 N   0  0  0  0  0  0  0  0  0  0  0  0
   -1.1018   -0.5526   -0.3915 C   0  0  0  0  0  0  0  0  0  0  0  0
    0.3276   -0.0534   -0.7129 C   0  0  0  0  0  0  0  0  0  0  0  0
    1.1665   -0.0156    0.4959 N   0  0  0  0  0  0  0  0  0  0  0  0
    2.5413   -0.1648    0.4298 C   0  0  0  0  0  0  0  0  0  0  0  0
    3.2578    0.0882   -0.7506 C   0  0  0  0  0  0  0  0  0  0  0  0
    4.6505   -0.0556   -0.8249 C   0  0  0  0  0  0  0  0  0  0  0  0
    5.3821   -0.4519    0.2938 C   0  0  0  0  0  0  0  0  0  0  0  0
    6.8662   -0.6415    0.2115 C   0  0  0  0  0  0  0  0  0  0  0  0
    4.6928   -0.7232    1.4749 C   0  0  0  0  0  0  0  0  0  0  0  0
    3.2999   -0.5741    1.5375 C   0  0  0  0  0  0  0  0  0  0  0  0
    0.4565    0.0986    1.7793 C   0  0  0  0  0  0  0  0  0  0  0  0
   -0.8800    0.8515    1.5900 C   0  0  0  0  0  0  0  0  0  0  0  0
   -6.2290   -0.7720   -1.5540 H   0  0  0  0  0  0  0  0  0  0  0  0
   -5.4196   -2.3017   -1.2384 H   0  0  0  0  0  0  0  0  0  0  0  0
   -6.3987   -1.5482    0.0311 H   0  0  0  0  0  0  0  0  0  0  0  0
   -3.8748   -1.3071    0.3806 H   0  0  0  0  0  0  0  0  0  0  0  0
   -4.9636    2.5323   -0.7073 H   0  0  0  0  0  0  0  0  0  0  0  0
   -4.2678    1.8605   -2.1964 H   0  0  0  0  0  0  0  0  0  0  0  0
   -5.8201    1.2772   -1.5844 H   0  0  0  0  0  0  0  0  0  0  0  0
   -2.2639    1.7796   -0.6442 H   0  0  0  0  0  0  0  0  0  0  0  0
   -3.0864    1.8550    0.9124 H   0  0  0  0  0  0  0  0  0  0  0  0
   -1.6792   -0.6013   -1.3226 H   0  0  0  0  0  0  0  0  0  0  0  0
   -1.0215   -1.5916   -0.0444 H   0  0  0  0  0  0  0  0  0  0  0  0
    0.7491   -0.7381   -1.4589 H   0  0  0  0  0  0  0  0  0  0  0  0
    0.2815    0.9484   -1.1563 H   0  0  0  0  0  0  0  0  0  0  0  0
    2.7430    0.4278   -1.6448 H   0  0  0  0  0  0  0  0  0  0  0  0
    5.1534    0.1520   -1.7663 H   0  0  0  0  0  0  0  0  0  0  0  0
    7.3087    0.0492   -0.5140 H   0  0  0  0  0  0  0  0  0  0  0  0
    7.0965   -1.6676   -0.0909 H   0  0  0  0  0  0  0  0  0  0  0  0
    7.3397   -0.4428    1.1788 H   0  0  0  0  0  0  0  0  0  0  0  0
    5.2281   -1.0572    2.3605 H   0  0  0  0  0  0  0  0  0  0  0  0
    2.8151   -0.8150    2.4791 H   0  0  0  0  0  0  0  0  0  0  0  0
    1.0512    0.6685    2.5034 H   0  0  0  0  0  0  0  0  0  0  0  0
    0.2747   -0.8997    2.1954 H   0  0  0  0  0  0  0  0  0  0  0  0
   -0.6405    1.8613    1.2273 H   0  0  0  0  0  0  0  0  0  0  0  0
   -1.3664    0.9658    2.5657 H   0  0  0  0  0  0  0  0  0  0  0  0
  1  2  1  0
  2  3  2  3
  3  4  1  0
  3  5  1  0
  5  6  1  0
  6  7  1  0
  7  8  1  0
  8  9  1  0
  9 10  1  0
 10 11  2  0
 11 12  1  0
 12 13  2  0
 13 14  1  0
 13 15  1  0
 15 16  2  0
  9 17  1  0
 17 18  1  0
 18  6  1  0
 16 10  1  0
  1 19  1  0
  1 20  1  0
  1 21  1  0
  2 22  1  0
  4 23  1  0
  4 24  1  0
  4 25  1  0
  5 26  1  0
  5 27  1  0
  7 28  1  0
  7 29  1  0
  8 30  1  0
  8 31  1  0
 11 32  1  0
 12 33  1  0
 14 34  1  0
 14 35  1  0
 14 36  1  0
 15 37  1  0
 16 38  1  0
 17 39  1  0
 17 40  1  0
 18 41  1  0
 18 42  1  0
M  END
$$$$
