
     RDKit          3D

 28 29  0  0  0  0  0  0  0  0999 V2000
    4.7209   -0.2037    1.8182 C   0  0  0  0  0  0  0  0  0  0  0  0
    4.0697   -1.3098    1.0095 C   0  0  0  0  0  0  0  0  0  0  0  0
    2.7777   -0.8902    0.5472 O   0  0  0  0  0  0  0  0  0  0  0  0
    2.7678   -0.2079   -0.6340 C   0  0  0  0  0  0  0  0  0  0  0  0
    3.7571    0.0642   -1.2996 O   0  0  0  0  0  0  0  0  0  0  0  0
    1.4095    0.1438   -0.9704 C   0  0  0  0  0  0  0  0  0  0  0  0
    0.9434    0.8357   -2.0757 C   0  0  0  0  0  0  0  0  0  0  0  0
   -0.4660    0.9383   -1.9690 C   0  0  0  0  0  0  0  0  0  0  0  0
   -0.8408    0.3081   -0.8004 C   0  0  0  0  0  0  0  0  0  0  0  0
   -2.1278    0.1182   -0.2107 C   0  0  0  0  0  0  0  0  0  0  0  0
   -3.3673    0.5216   -0.6594 C   0  0  0  0  0  0  0  0  0  0  0  0
   -4.2805    0.0655    0.3162 C   0  0  0  0  0  0  0  0  0  0  0  0
   -5.7513    0.2200    0.3459 C   0  0  0  0  0  0  0  0  0  0  0  0
   -3.6504   -0.5776    1.3039 N   0  0  0  0  0  0  0  0  0  0  0  0
   -2.3091   -0.5441    0.9745 O   0  0  0  0  0  0  0  0  0  0  0  0
    0.3036   -0.1664   -0.2089 N   0  0  0  0  0  0  0  0  0  0  0  0
    5.6802   -0.5346    2.2259 H   0  0  0  0  0  0  0  0  0  0  0  0
    4.8908    0.6855    1.2030 H   0  0  0  0  0  0  0  0  0  0  0  0
    4.0714    0.1009    2.6455 H   0  0  0  0  0  0  0  0  0  0  0  0
    3.9114   -2.1862    1.6466 H   0  0  0  0  0  0  0  0  0  0  0  0
    4.7081   -1.6292    0.1777 H   0  0  0  0  0  0  0  0  0  0  0  0
    1.5645    1.2242   -2.8745 H   0  0  0  0  0  0  0  0  0  0  0  0
   -1.1278    1.4229   -2.6753 H   0  0  0  0  0  0  0  0  0  0  0  0
   -3.5818    1.0687   -1.5647 H   0  0  0  0  0  0  0  0  0  0  0  0
   -6.1086    0.7679   -0.5319 H   0  0  0  0  0  0  0  0  0  0  0  0
   -6.2412   -0.7590    0.3555 H   0  0  0  0  0  0  0  0  0  0  0  0
   -6.0626    0.7722    1.2385 H   0  0  0  0  0  0  0  0  0  0  0  0
    0.3391   -0.6749    0.6662 H   0  0  0  0  0  0  0  0  0  0  0  0
  1  2  1  0
  2  3  1  0
  3  4  1  0
  4  5  2  0
  4  6  1  0
  6  7  2  0
  7  8  1  0
  8  9  2  0
  9 10  1  0
 10 11  2  0
 11 12  1  0
 12 13  1  0
 12 14  2  0
 14 15  1  0
  9 16  1  0
 16  6  1  0
 15 10  1  0
  1 17  1  0
  1 18  1  0
  1 19  1  0
  2 20  1  0
  2 21  1  0
  7 22  1  0
  8 23  1  0
 11 24  1  0
 13 25  1  0
 13 26  1  0
 13 27  1  0
 16 28  1  0
M  END
$$$$
