
     RDKit          3D

 36 37  0  0  0  0  0  0  0  0999 V2000
   -1.3749    1.9896   -2.1125 O   0  0  0  0  0  0  0  0  0  0  0  0
   -1.1376    2.0958   -0.9139 C   0  0  0  0  0  0  0  0  0  0  0  0
   -0.0963    3.0731   -0.3643 C   0  0  0  0  0  0  0  0  0  0  0  0
    1.2162    2.5139   -0.2826 O   0  0  0  0  0  0  0  0  0  0  0  0
    1.4067    1.6191    0.7139 C   0  0  0  0  0  0  0  0  0  0  0  0
    0.5593    1.2503    1.5133 O   0  0  0  0  0  0  0  0  0  0  0  0
    2.8082    1.1234    0.7167 C   0  0  0  0  0  0  0  0  0  0  0  0
    3.7326    1.4835   -0.2727 C   0  0  0  0  0  0  0  0  0  0  0  0
    5.0339    0.9832   -0.2183 C   0  0  0  0  0  0  0  0  0  0  0  0
    6.1671    1.4286   -1.4338 Cl  0  0  0  0  0  0  0  0  0  0  0  0
    5.4267    0.1274    0.8076 C   0  0  0  0  0  0  0  0  0  0  0  0
    4.5044   -0.2290    1.7876 C   0  0  0  0  0  0  0  0  0  0  0  0
    4.9775   -1.2875    3.0584 Cl  0  0  0  0  0  0  0  0  0  0  0  0
    3.1998    0.2616    1.7499 C   0  0  0  0  0  0  0  0  0  0  0  0
   -1.7629    1.3360    0.0513 N   0  0  0  0  0  0  0  0  0  0  0  0
   -2.7137    0.2947   -0.2910 C   0  0  0  0  0  0  0  0  0  0  0  0
   -2.0399   -0.9513   -0.8822 C   0  0  0  0  0  0  0  0  0  0  0  0
   -2.9165   -2.1093   -0.8699 N   0  0  0  0  0  0  0  0  0  0  0  0
   -3.1402   -2.9270    0.2137 C   0  0  0  0  0  0  0  0  0  0  0  0
   -2.4286   -2.7978    1.3682 O   0  0  0  0  0  0  0  0  0  0  0  0
   -4.1045   -3.8348    0.0410 C   0  0  0  0  0  0  0  0  0  0  0  0
   -4.8121   -3.7187   -1.5371 S   0  0  0  0  0  0  0  0  0  0  0  0
   -3.7679   -2.3458   -1.9465 C   0  0  0  0  0  0  0  0  0  0  0  0
   -3.8381   -1.7360   -2.9997 O   0  0  0  0  0  0  0  0  0  0  0  0
   -0.4111    3.4647    0.6109 H   0  0  0  0  0  0  0  0  0  0  0  0
   -0.0513    3.9313   -1.0437 H   0  0  0  0  0  0  0  0  0  0  0  0
    3.4505    2.1473   -1.0871 H   0  0  0  0  0  0  0  0  0  0  0  0
    6.4422   -0.2583    0.8428 H   0  0  0  0  0  0  0  0  0  0  0  0
    2.4916   -0.0238    2.5256 H   0  0  0  0  0  0  0  0  0  0  0  0
   -1.2990    1.2830    0.9591 H   0  0  0  0  0  0  0  0  0  0  0  0
   -3.4439    0.6997   -1.0011 H   0  0  0  0  0  0  0  0  0  0  0  0
   -3.2472    0.0489    0.6335 H   0  0  0  0  0  0  0  0  0  0  0  0
   -1.1152   -1.1903   -0.3457 H   0  0  0  0  0  0  0  0  0  0  0  0
   -1.7405   -0.7451   -1.9173 H   0  0  0  0  0  0  0  0  0  0  0  0
   -1.5547   -2.4438    1.1453 H   0  0  0  0  0  0  0  0  0  0  0  0
   -4.4206   -4.5567    0.7804 H   0  0  0  0  0  0  0  0  0  0  0  0
  1  2  2  0
  2  3  1  0
  3  4  1  0
  4  5  1  0
  5  6  2  0
  5  7  1  0
  7  8  2  0
  8  9  1  0
  9 10  1  0
  9 11  2  0
 11 12  1  0
 12 13  1  0
 12 14  2  0
  2 15  1  0
 15 16  1  0
 16 17  1  0
 17 18  1  0
 18 19  1  0
 19 20  1  0
 19 21  2  0
 21 22  1  0
 22 23  1  0
 23 24  2  0
 14  7  1  0
 23 18  1  0
  3 25  1  0
  3 26  1  0
  8 27  1  0
 11 28  1  0
 14 29  1  0
 15 30  1  0
 16 31  1  0
 16 32  1  0
 17 33  1  0
 17 34  1  0
 20 35  1  0
 21 36  1  0
M  END
$$$$
