
     RDKit          3D

 61 66  0  0  0  0  0  0  0  0999 V2000
    5.5324   -3.4678   -1.7991 F   0  0  0  0  0  0  0  0  0  0  0  0
    6.0952   -3.1788   -0.5911 C   0  0  0  0  0  0  0  0  0  0  0  0
    5.4490   -3.9616    0.3176 F   0  0  0  0  0  0  0  0  0  0  0  0
    7.3710   -3.6563   -0.6563 F   0  0  0  0  0  0  0  0  0  0  0  0
    6.0191   -1.7114   -0.2455 C   0  0  0  0  0  0  0  0  0  0  0  0
    7.0991   -1.0576    0.3685 C   0  0  0  0  0  0  0  0  0  0  0  0
    7.0112    0.2941    0.7031 C   0  0  0  0  0  0  0  0  0  0  0  0
    5.8427    1.0055    0.4318 C   0  0  0  0  0  0  0  0  0  0  0  0
    4.7459    0.3745   -0.1740 C   0  0  0  0  0  0  0  0  0  0  0  0
    3.4791    1.1531   -0.4714 C   0  0  0  0  0  0  0  0  0  0  0  0
    2.8518    1.7214    0.7328 N   0  0  0  0  0  0  0  0  0  0  0  0
    1.7614    2.6558    0.3852 C   0  0  0  0  0  0  0  0  0  0  0  0
    0.3664    2.0194    0.1905 C   0  0  0  0  0  0  0  0  0  0  0  0
   -0.0328    1.1467    1.3177 N   0  0  0  0  0  0  0  0  0  0  0  0
   -0.8588    0.0583    1.0271 C   0  0  0  0  0  0  0  0  0  0  0  0
   -0.4653   -1.1443    1.3651 N   0  0  0  0  0  0  0  0  0  0  0  0
   -1.2470   -2.2731    1.0523 C   0  0  0  0  0  0  0  0  0  0  0  0
   -0.7744   -3.5311    1.4307 C   0  0  0  0  0  0  0  0  0  0  0  0
   -1.5032   -4.6860    1.1334 C   0  0  0  0  0  0  0  0  0  0  0  0
   -2.7164   -4.5923    0.4504 C   0  0  0  0  0  0  0  0  0  0  0  0
   -3.2084   -3.3452    0.0637 C   0  0  0  0  0  0  0  0  0  0  0  0
   -2.4684   -2.1983    0.3686 C   0  0  0  0  0  0  0  0  0  0  0  0
   -2.8948   -0.9034    0.0304 N   0  0  0  0  0  0  0  0  0  0  0  0
   -4.0437   -0.5017   -0.6100 C   0  0  0  0  0  0  0  0  0  0  0  0
   -4.0609    0.8802   -0.6598 C   0  0  0  0  0  0  0  0  0  0  0  0
   -5.1491    1.6658   -1.2275 C   0  0  0  0  0  0  0  0  0  0  0  0
   -5.4657    2.9205   -0.6870 C   0  0  0  0  0  0  0  0  0  0  0  0
   -6.5032    3.6872   -1.2253 C   0  0  0  0  0  0  0  0  0  0  0  0
   -7.2343    3.2090   -2.3108 C   0  0  0  0  0  0  0  0  0  0  0  0
   -6.9279    1.9654   -2.8598 C   0  0  0  0  0  0  0  0  0  0  0  0
   -5.8905    1.1979   -2.3221 C   0  0  0  0  0  0  0  0  0  0  0  0
   -2.8652    1.3178   -0.0247 C   0  0  0  0  0  0  0  0  0  0  0  0
   -2.1418    0.2020    0.3555 C   0  0  0  0  0  0  0  0  0  0  0  0
    1.0287    0.9728    2.3314 C   0  0  0  0  0  0  0  0  0  0  0  0
    2.3704    0.6509    1.6459 C   0  0  0  0  0  0  0  0  0  0  0  0
    4.8441   -0.9856   -0.5077 C   0  0  0  0  0  0  0  0  0  0  0  0
    8.0162   -1.6012    0.5905 H   0  0  0  0  0  0  0  0  0  0  0  0
    7.8512    0.7940    1.1801 H   0  0  0  0  0  0  0  0  0  0  0  0
    5.7794    2.0575    0.7045 H   0  0  0  0  0  0  0  0  0  0  0  0
    2.7650    0.5284   -1.0254 H   0  0  0  0  0  0  0  0  0  0  0  0
    3.7701    1.9616   -1.1554 H   0  0  0  0  0  0  0  0  0  0  0  0
    1.6909    3.3884    1.2004 H   0  0  0  0  0  0  0  0  0  0  0  0
    2.0206    3.2491   -0.5006 H   0  0  0  0  0  0  0  0  0  0  0  0
   -0.3646    2.8275    0.0837 H   0  0  0  0  0  0  0  0  0  0  0  0
    0.3714    1.4435   -0.7445 H   0  0  0  0  0  0  0  0  0  0  0  0
    0.1710   -3.6076    1.9617 H   0  0  0  0  0  0  0  0  0  0  0  0
   -1.1210   -5.6578    1.4357 H   0  0  0  0  0  0  0  0  0  0  0  0
   -3.2796   -5.4942    0.2209 H   0  0  0  0  0  0  0  0  0  0  0  0
   -4.1556   -3.2984   -0.4629 H   0  0  0  0  0  0  0  0  0  0  0  0
   -4.7739   -1.2204   -0.9524 H   0  0  0  0  0  0  0  0  0  0  0  0
   -4.9172    3.3092    0.1679 H   0  0  0  0  0  0  0  0  0  0  0  0
   -6.7419    4.6559   -0.7930 H   0  0  0  0  0  0  0  0  0  0  0  0
   -8.0418    3.8048   -2.7289 H   0  0  0  0  0  0  0  0  0  0  0  0
   -7.4943    1.5916   -3.7088 H   0  0  0  0  0  0  0  0  0  0  0  0
   -5.6619    0.2370   -2.7777 H   0  0  0  0  0  0  0  0  0  0  0  0
   -2.5666    2.3441    0.1364 H   0  0  0  0  0  0  0  0  0  0  0  0
    0.7730    0.1882    3.0534 H   0  0  0  0  0  0  0  0  0  0  0  0
    1.1136    1.8951    2.9206 H   0  0  0  0  0  0  0  0  0  0  0  0
    3.1338    0.4902    2.4161 H   0  0  0  0  0  0  0  0  0  0  0  0
    2.2497   -0.2990    1.1081 H   0  0  0  0  0  0  0  0  0  0  0  0
    3.9967   -1.4913   -0.9731 H   0  0  0  0  0  0  0  0  0  0  0  0
  1  2  1  0
  2  3  1  0
  2  4  1  0
  2  5  1  0
  5  6  2  0
  6  7  1  0
  7  8  2  0
  8  9  1  0
  9 10  1  0
 10 11  1  0
 11 12  1  0
 12 13  1  0
 13 14  1  0
 14 15  1  0
 15 16  2  0
 16 17  1  0
 17 18  2  0
 18 19  1  0
 19 20  2  0
 20 21  1  0
 21 22  2  0
 22 23  1  0
 23 24  1  0
 24 25  2  0
 25 26  1  0
 26 27  2  0
 27 28  1  0
 28 29  2  0
 29 30  1  0
 30 31  2  0
 25 32  1  0
 32 33  2  0
 14 34  1  0
 34 35  1  0
  9 36  2  0
 36  5  1  0
 35 11  1  0
 33 15  1  0
 22 17  1  0
 33 23  1  0
 31 26  1  0
  6 37  1  0
  7 38  1  0
  8 39  1  0
 10 40  1  0
 10 41  1  0
 12 42  1  0
 12 43  1  0
 13 44  1  0
 13 45  1  0
 18 46  1  0
 19 47  1  0
 20 48  1  0
 21 49  1  0
 24 50  1  0
 27 51  1  0
 28 52  1  0
 29 53  1  0
 30 54  1  0
 31 55  1  0
 32 56  1  0
 34 57  1  0
 34 58  1  0
 35 59  1  0
 35 60  1  0
 36 61  1  0
M  END
$$$$
