
     RDKit          3D

 50 53  0  0  0  0  0  0  0  0999 V2000
   -0.6820    2.5895    1.2290 C   0  0  0  0  0  0  0  0  0  0  0  0
   -1.7809    1.7529    1.6593 N   0  0  0  0  0  0  0  0  0  0  0  0
   -2.0537    1.4742    2.9738 C   0  0  0  0  0  0  0  0  0  0  0  0
   -3.1549    0.6522    3.0215 C   0  0  0  0  0  0  0  0  0  0  0  0
   -3.5626    0.4255    1.6891 C   0  0  0  0  0  0  0  0  0  0  0  0
   -2.6934    1.1054    0.8512 C   0  0  0  0  0  0  0  0  0  0  0  0
   -2.6942    1.1786   -0.6461 C   0  0  0  0  0  0  0  0  0  0  0  0
   -1.5093    0.5104   -1.2654 C   0  0  0  0  0  0  0  0  0  0  0  0
   -0.5026    1.1639   -1.8229 N   0  0  0  0  0  0  0  0  0  0  0  0
    0.4698    0.2661   -2.1342 N   0  0  0  0  0  0  0  0  0  0  0  0
    0.0589   -0.9249   -1.7581 C   0  0  0  0  0  0  0  0  0  0  0  0
    0.9449   -2.3855   -2.0548 S   0  0  0  0  0  0  0  0  0  0  0  0
    2.5332   -1.7353   -2.6527 C   0  0  0  0  0  0  0  0  0  0  0  0
    3.3707   -1.1933   -1.5030 C   0  0  0  0  0  0  0  0  0  0  0  0
    4.1967   -1.9086   -0.9401 O   0  0  0  0  0  0  0  0  0  0  0  0
    3.0935    0.1289   -1.2069 N   0  0  0  0  0  0  0  0  0  0  0  0
    3.6956    0.9457   -0.2343 C   0  0  0  0  0  0  0  0  0  0  0  0
    4.7954    0.5666    0.5300 C   0  0  0  0  0  0  0  0  0  0  0  0
    5.3325    1.4452    1.4739 C   0  0  0  0  0  0  0  0  0  0  0  0
    4.7767    2.7103    1.6601 C   0  0  0  0  0  0  0  0  0  0  0  0
    3.6805    3.0982    0.8987 C   0  0  0  0  0  0  0  0  0  0  0  0
    3.1436    2.2182   -0.0450 C   0  0  0  0  0  0  0  0  0  0  0  0
   -1.2146   -0.8486   -1.2231 N   0  0  0  0  0  0  0  0  0  0  0  0
   -2.0429   -1.9003   -0.7519 C   0  0  0  0  0  0  0  0  0  0  0  0
   -3.3809   -1.9716   -1.1655 C   0  0  0  0  0  0  0  0  0  0  0  0
   -4.1995   -3.0049   -0.7013 C   0  0  0  0  0  0  0  0  0  0  0  0
   -3.6804   -3.9514    0.1716 C   0  0  0  0  0  0  0  0  0  0  0  0
   -4.4694   -4.9325    0.6218 F   0  0  0  0  0  0  0  0  0  0  0  0
   -2.3573   -3.8931    0.5869 C   0  0  0  0  0  0  0  0  0  0  0  0
   -1.5290   -2.8665    0.1219 C   0  0  0  0  0  0  0  0  0  0  0  0
   -0.9826    3.1586    0.3517 H   0  0  0  0  0  0  0  0  0  0  0  0
   -0.4247    3.2818    2.0316 H   0  0  0  0  0  0  0  0  0  0  0  0
    0.1663    1.9385    1.0038 H   0  0  0  0  0  0  0  0  0  0  0  0
   -1.4437    1.8814    3.7748 H   0  0  0  0  0  0  0  0  0  0  0  0
   -3.6113    0.2601    3.9212 H   0  0  0  0  0  0  0  0  0  0  0  0
   -4.4036   -0.1800    1.3747 H   0  0  0  0  0  0  0  0  0  0  0  0
   -2.7072    2.2329   -0.9466 H   0  0  0  0  0  0  0  0  0  0  0  0
   -3.6253    0.7642   -1.0404 H   0  0  0  0  0  0  0  0  0  0  0  0
    3.0905   -2.5563   -3.1169 H   0  0  0  0  0  0  0  0  0  0  0  0
    2.3936   -0.9741   -3.4261 H   0  0  0  0  0  0  0  0  0  0  0  0
    2.2879    0.5378   -1.6814 H   0  0  0  0  0  0  0  0  0  0  0  0
    5.2618   -0.4082    0.4147 H   0  0  0  0  0  0  0  0  0  0  0  0
    6.1925    1.1388    2.0601 H   0  0  0  0  0  0  0  0  0  0  0  0
    5.2012    3.3898    2.3925 H   0  0  0  0  0  0  0  0  0  0  0  0
    3.2458    4.0841    1.0343 H   0  0  0  0  0  0  0  0  0  0  0  0
    2.2870    2.5410   -0.6289 H   0  0  0  0  0  0  0  0  0  0  0  0
   -3.7951   -1.2610   -1.8760 H   0  0  0  0  0  0  0  0  0  0  0  0
   -5.2330   -3.0802   -1.0186 H   0  0  0  0  0  0  0  0  0  0  0  0
   -1.9778   -4.6427    1.2748 H   0  0  0  0  0  0  0  0  0  0  0  0
   -0.5068   -2.8223    0.4891 H   0  0  0  0  0  0  0  0  0  0  0  0
  1  2  1  0
  2  3  1  0
  3  4  2  0
  4  5  1  0
  5  6  2  0
  6  7  1  0
  7  8  1  0
  8  9  2  0
  9 10  1  0
 10 11  2  0
 11 12  1  0
 12 13  1  0
 13 14  1  0
 14 15  2  0
 14 16  1  0
 16 17  1  0
 17 18  2  0
 18 19  1  0
 19 20  2  0
 20 21  1  0
 21 22  2  0
 11 23  1  0
 23 24  1  0
 24 25  2  0
 25 26  1  0
 26 27  2  0
 27 28  1  0
 27 29  1  0
 29 30  2  0
  6  2  1  0
 23  8  1  0
 30 24  1  0
 22 17  1  0
  1 31  1  0
  1 32  1  0
  1 33  1  0
  3 34  1  0
  4 35  1  0
  5 36  1  0
  7 37  1  0
  7 38  1  0
 13 39  1  0
 13 40  1  0
 16 41  1  0
 18 42  1  0
 19 43  1  0
 20 44  1  0
 21 45  1  0
 22 46  1  0
 25 47  1  0
 26 48  1  0
 29 49  1  0
 30 50  1  0
M  END
$$$$
