
     RDKit          3D

 56 58  0  0  0  0  0  0  0  0999 V2000
    0.8929    1.9625    1.9984 C   0  0  0  0  0  0  0  0  0  0  0  0
    1.7972    1.6600    0.9478 O   0  0  0  0  0  0  0  0  0  0  0  0
    1.3580    0.8367   -0.0608 C   0  0  0  0  0  0  0  0  0  0  0  0
    0.1105    0.1980   -0.0710 C   0  0  0  0  0  0  0  0  0  0  0  0
   -0.2654   -0.6260   -1.1407 C   0  0  0  0  0  0  0  0  0  0  0  0
   -1.5561   -1.3262   -1.1740 C   0  0  0  0  0  0  0  0  0  0  0  0
   -2.7104   -0.7764   -0.7685 C   0  0  0  0  0  0  0  0  0  0  0  0
   -3.9690   -1.5640   -0.8520 C   0  0  0  0  0  0  0  0  0  0  0  0
   -4.0242   -2.7096   -1.2795 O   0  0  0  0  0  0  0  0  0  0  0  0
   -5.1976   -0.8779   -0.4112 C   0  0  0  0  0  0  0  0  0  0  0  0
   -5.3802   -0.5277    0.9423 C   0  0  0  0  0  0  0  0  0  0  0  0
   -4.3519   -0.8230    1.7985 O   0  0  0  0  0  0  0  0  0  0  0  0
   -4.6133   -0.7367    3.1958 C   0  0  0  0  0  0  0  0  0  0  0  0
   -6.5729    0.1039    1.3335 C   0  0  0  0  0  0  0  0  0  0  0  0
   -7.5769    0.3748    0.3988 C   0  0  0  0  0  0  0  0  0  0  0  0
   -7.3732    0.0131   -0.9243 C   0  0  0  0  0  0  0  0  0  0  0  0
   -8.3514    0.2806   -1.8789 O   0  0  0  0  0  0  0  0  0  0  0  0
   -7.8693   -0.1679   -3.1047 C   0  0  0  0  0  0  0  0  0  0  0  0
   -8.5109   -0.0596   -4.1406 O   0  0  0  0  0  0  0  0  0  0  0  0
   -6.2606   -0.8911   -3.0725 S   0  0  0  0  0  0  0  0  0  0  0  0
   -6.2008   -0.6094   -1.3382 C   0  0  0  0  0  0  0  0  0  0  0  0
    0.6385   -0.8304   -2.1851 C   0  0  0  0  0  0  0  0  0  0  0  0
    1.8885   -0.2032   -2.1818 C   0  0  0  0  0  0  0  0  0  0  0  0
    2.2572    0.6344   -1.1275 C   0  0  0  0  0  0  0  0  0  0  0  0
    3.4568    1.2929   -1.0308 O   0  0  0  0  0  0  0  0  0  0  0  0
    4.4689    1.0794   -2.0130 C   0  0  0  0  0  0  0  0  0  0  0  0
    5.2596   -0.2105   -1.7711 C   0  0  0  0  0  0  0  0  0  0  0  0
    6.4781   -0.0339   -0.8477 C   0  0  0  0  0  0  0  0  0  0  0  0
    6.2027    0.5192    0.4838 N   0  0  0  0  0  0  0  0  0  0  0  0
    7.4540    0.7873    1.1949 C   0  0  0  0  0  0  0  0  0  0  0  0
    5.3533   -0.3605    1.2891 C   0  0  0  0  0  0  0  0  0  0  0  0
   -0.0110    2.4492    1.6169 H   0  0  0  0  0  0  0  0  0  0  0  0
    1.3883    2.6670    2.6742 H   0  0  0  0  0  0  0  0  0  0  0  0
    0.6463    1.0658    2.5766 H   0  0  0  0  0  0  0  0  0  0  0  0
   -0.5766    0.3176    0.7590 H   0  0  0  0  0  0  0  0  0  0  0  0
   -1.5420   -2.3379   -1.5770 H   0  0  0  0  0  0  0  0  0  0  0  0
   -2.7714    0.2360   -0.3885 H   0  0  0  0  0  0  0  0  0  0  0  0
   -5.4753   -1.3513    3.4807 H   0  0  0  0  0  0  0  0  0  0  0  0
   -4.7505    0.3064    3.5023 H   0  0  0  0  0  0  0  0  0  0  0  0
   -3.7377   -1.1258    3.7228 H   0  0  0  0  0  0  0  0  0  0  0  0
   -6.7500    0.4010    2.3637 H   0  0  0  0  0  0  0  0  0  0  0  0
   -8.4989    0.8627    0.7037 H   0  0  0  0  0  0  0  0  0  0  0  0
    0.3770   -1.4761   -3.0200 H   0  0  0  0  0  0  0  0  0  0  0  0
    2.5482   -0.3970   -3.0193 H   0  0  0  0  0  0  0  0  0  0  0  0
    5.1436    1.9425   -1.9696 H   0  0  0  0  0  0  0  0  0  0  0  0
    4.0427    1.1037   -3.0224 H   0  0  0  0  0  0  0  0  0  0  0  0
    4.6142   -1.0069   -1.3867 H   0  0  0  0  0  0  0  0  0  0  0  0
    5.6449   -0.5568   -2.7389 H   0  0  0  0  0  0  0  0  0  0  0  0
    6.9912   -1.0017   -0.7600 H   0  0  0  0  0  0  0  0  0  0  0  0
    7.1760    0.6375   -1.3674 H   0  0  0  0  0  0  0  0  0  0  0  0
    8.0321   -0.1270    1.3704 H   0  0  0  0  0  0  0  0  0  0  0  0
    7.2544    1.2613    2.1624 H   0  0  0  0  0  0  0  0  0  0  0  0
    8.0793    1.4861    0.6285 H   0  0  0  0  0  0  0  0  0  0  0  0
    5.1634    0.0851    2.2728 H   0  0  0  0  0  0  0  0  0  0  0  0
    5.8090   -1.3452    1.4416 H   0  0  0  0  0  0  0  0  0  0  0  0
    4.3713   -0.5051    0.8315 H   0  0  0  0  0  0  0  0  0  0  0  0
  1  2  1  0
  2  3  1  0
  3  4  2  0
  4  5  1  0
  5  6  1  0
  6  7  2  0
  7  8  1  0
  8  9  2  0
  8 10  1  0
 10 11  2  0
 11 12  1  0
 12 13  1  0
 11 14  1  0
 14 15  2  0
 15 16  1  0
 16 17  1  0
 17 18  1  0
 18 19  2  0
 18 20  1  0
 20 21  1  0
  5 22  2  0
 22 23  1  0
 23 24  2  0
 24 25  1  0
 25 26  1  0
 26 27  1  0
 27 28  1  0
 28 29  1  0
 29 30  1  0
 29 31  1  0
 24  3  1  0
 21 10  1  0
 21 16  2  0
  1 32  1  0
  1 33  1  0
  1 34  1  0
  4 35  1  0
  6 36  1  0
  7 37  1  0
 13 38  1  0
 13 39  1  0
 13 40  1  0
 14 41  1  0
 15 42  1  0
 22 43  1  0
 23 44  1  0
 26 45  1  0
 26 46  1  0
 27 47  1  0
 27 48  1  0
 28 49  1  0
 28 50  1  0
 30 51  1  0
 30 52  1  0
 30 53  1  0
 31 54  1  0
 31 55  1  0
 31 56  1  0
M  END
$$$$
