
     RDKit          3D

 49 50  0  0  0  0  0  0  0  0999 V2000
    2.6682   -1.1607    1.8397 C   0  0  0  0  0  0  0  0  0  0  0  0
    3.8003   -1.3438    0.8284 C   0  0  0  0  0  0  0  0  0  0  0  0
    5.0052   -0.4853    1.2116 C   0  0  0  0  0  0  0  0  0  0  0  0
    3.3348   -1.0895   -0.6166 C   0  0  0  0  0  0  0  0  0  0  0  0
    2.9108    0.3479   -0.9134 C   0  0  0  0  0  0  0  0  0  0  0  0
    2.3853    0.4266   -2.3053 N   0  0  0  0  0  4  0  0  0  0  0  0
    3.2694    0.6701   -3.3056 C   0  0  0  0  0  0  0  0  0  0  0  0
    2.8535    0.7903   -4.6247 C   0  0  0  0  0  0  0  0  0  0  0  0
    1.5085    0.6608   -4.9271 C   0  0  0  0  0  0  0  0  0  0  0  0
    0.6070    0.4110   -3.9011 C   0  0  0  0  0  0  0  0  0  0  0  0
    1.0560    0.2959   -2.5782 C   0  0  0  0  0  0  0  0  0  0  0  0
    0.0981    0.0021   -1.5090 C   0  0  0  0  0  0  0  0  0  0  0  0
   -0.8837    0.8538   -1.1726 C   0  0  0  0  0  0  0  0  0  0  0  0
   -1.8694    0.5777   -0.1189 C   0  0  0  0  0  0  0  0  0  0  0  0
   -1.5410   -0.0620    1.0757 C   0  0  0  0  0  0  0  0  0  0  0  0
   -2.5165   -0.2829    2.0617 C   0  0  0  0  0  0  0  0  0  0  0  0
   -3.8494    0.1361    1.9123 C   0  0  0  0  0  0  0  0  0  0  0  0
   -4.8189   -0.1110    2.8869 N   0  0  0  0  0  0  0  0  0  0  0  0
   -4.4009   -0.4747    4.2405 C   0  0  0  0  0  0  0  0  0  0  0  0
   -6.1272    0.5353    2.7841 C   0  0  0  0  0  0  0  0  0  0  0  0
   -4.1499    0.7822    0.7017 C   0  0  0  0  0  0  0  0  0  0  0  0
   -3.1831    1.0105   -0.2906 C   0  0  0  0  0  0  0  0  0  0  0  0
    2.9920   -1.4740    2.8382 H   0  0  0  0  0  0  0  0  0  0  0  0
    1.7995   -1.7685    1.5660 H   0  0  0  0  0  0  0  0  0  0  0  0
    2.3471   -0.1168    1.9095 H   0  0  0  0  0  0  0  0  0  0  0  0
    4.1162   -2.3943    0.8803 H   0  0  0  0  0  0  0  0  0  0  0  0
    5.8144   -0.6023    0.4831 H   0  0  0  0  0  0  0  0  0  0  0  0
    5.3930   -0.7843    2.1915 H   0  0  0  0  0  0  0  0  0  0  0  0
    4.7464    0.5768    1.2690 H   0  0  0  0  0  0  0  0  0  0  0  0
    4.1461   -1.3686   -1.3015 H   0  0  0  0  0  0  0  0  0  0  0  0
    2.5095   -1.7747   -0.8460 H   0  0  0  0  0  0  0  0  0  0  0  0
    3.7591    1.0388   -0.8486 H   0  0  0  0  0  0  0  0  0  0  0  0
    2.1472    0.7215   -0.2270 H   0  0  0  0  0  0  0  0  0  0  0  0
    4.3183    0.7669   -3.0370 H   0  0  0  0  0  0  0  0  0  0  0  0
    3.5769    0.9844   -5.4142 H   0  0  0  0  0  0  0  0  0  0  0  0
    1.1617    0.7488   -5.9558 H   0  0  0  0  0  0  0  0  0  0  0  0
   -0.4506    0.2965   -4.1366 H   0  0  0  0  0  0  0  0  0  0  0  0
    0.2112   -0.9569   -1.0108 H   0  0  0  0  0  0  0  0  0  0  0  0
   -1.0165    1.8020   -1.6923 H   0  0  0  0  0  0  0  0  0  0  0  0
   -0.5293   -0.4000    1.2768 H   0  0  0  0  0  0  0  0  0  0  0  0
   -2.1973   -0.8028    2.9604 H   0  0  0  0  0  0  0  0  0  0  0  0
   -3.8605   -1.4273    4.2447 H   0  0  0  0  0  0  0  0  0  0  0  0
   -5.2632   -0.6154    4.9019 H   0  0  0  0  0  0  0  0  0  0  0  0
   -3.7722    0.3072    4.6806 H   0  0  0  0  0  0  0  0  0  0  0  0
   -6.0307    1.6256    2.8303 H   0  0  0  0  0  0  0  0  0  0  0  0
   -6.6387    0.2492    1.8588 H   0  0  0  0  0  0  0  0  0  0  0  0
   -6.7897    0.2264    3.6005 H   0  0  0  0  0  0  0  0  0  0  0  0
   -5.1571    1.1306    0.4913 H   0  0  0  0  0  0  0  0  0  0  0  0
   -3.4899    1.5206   -1.2012 H   0  0  0  0  0  0  0  0  0  0  0  0
  1  2  1  0
  2  3  1  0
  2  4  1  0
  4  5  1  0
  5  6  1  0
  6  7  2  0
  7  8  1  0
  8  9  2  0
  9 10  1  0
 10 11  2  0
 11 12  1  0
 12 13  2  3
 13 14  1  0
 14 15  2  0
 15 16  1  0
 16 17  2  0
 17 18  1  0
 18 19  1  0
 18 20  1  0
 17 21  1  0
 21 22  2  0
 11  6  1  0
 22 14  1  0
  1 23  1  0
  1 24  1  0
  1 25  1  0
  2 26  1  0
  3 27  1  0
  3 28  1  0
  3 29  1  0
  4 30  1  0
  4 31  1  0
  5 32  1  0
  5 33  1  0
  7 34  1  0
  8 35  1  0
  9 36  1  0
 10 37  1  0
 12 38  1  0
 13 39  1  0
 15 40  1  0
 16 41  1  0
 19 42  1  0
 19 43  1  0
 19 44  1  0
 20 45  1  0
 20 46  1  0
 20 47  1  0
 21 48  1  0
 22 49  1  0
M  CHG  1   6   1
M  END
$$$$
