
     RDKit          3D

 48 51  0  0  0  0  0  0  0  0999 V2000
   -1.0025   -2.6542   -3.0243 C   0  0  0  0  0  0  0  0  0  0  0  0
   -1.3144   -1.2680   -2.4861 C   0  0  0  0  0  0  0  0  0  0  0  0
   -1.1626   -1.1803   -1.0507 N   0  0  0  0  0  0  0  0  0  0  0  0
   -2.1478   -1.3443   -0.1093 C   0  0  0  0  0  0  0  0  0  0  0  0
   -3.7747   -1.8021   -0.4757 S   0  0  0  0  0  0  0  0  0  0  0  0
   -4.6029   -1.5201    1.1177 C   0  0  0  0  0  0  0  0  0  0  0  0
   -5.1041   -0.1034    1.2585 C   0  0  0  0  0  0  0  0  0  0  0  0
   -4.3019    0.8824    1.8553 C   0  0  0  0  0  0  0  0  0  0  0  0
   -4.7584    2.1983    1.9598 C   0  0  0  0  0  0  0  0  0  0  0  0
   -6.0174    2.5287    1.4736 C   0  0  0  0  0  0  0  0  0  0  0  0
   -6.4536    3.7902    1.5701 F   0  0  0  0  0  0  0  0  0  0  0  0
   -6.8287    1.5692    0.8815 C   0  0  0  0  0  0  0  0  0  0  0  0
   -6.3718    0.2551    0.7684 C   0  0  0  0  0  0  0  0  0  0  0  0
   -1.6554   -1.1403    1.0865 N   0  0  0  0  0  0  0  0  0  0  0  0
   -0.3296   -0.8376    0.9440 N   0  0  0  0  0  0  0  0  0  0  0  0
   -0.0189   -0.8930   -0.3361 C   0  0  0  0  0  0  0  0  0  0  0  0
    1.4370   -0.6370   -0.8358 C   0  0  0  0  0  0  0  0  0  0  0  0
    1.9651   -0.6474   -2.1290 C   0  0  0  0  0  0  0  0  0  0  0  0
    3.2683   -0.3758   -2.1466 N   0  0  0  0  0  0  0  0  0  0  0  0
    3.5645   -0.0311   -0.8610 N   0  0  0  0  0  0  0  0  0  0  0  0
    4.7888    0.6578   -0.6108 C   0  0  0  0  0  0  0  0  0  0  0  0
    4.9530    1.5031    0.4949 C   0  0  0  0  0  0  0  0  0  0  0  0
    6.1612    2.1811    0.6873 C   0  0  0  0  0  0  0  0  0  0  0  0
    7.2082    2.0266   -0.2191 C   0  0  0  0  0  0  0  0  0  0  0  0
    7.0455    1.2076   -1.3348 C   0  0  0  0  0  0  0  0  0  0  0  0
    5.8379    0.5365   -1.5394 C   0  0  0  0  0  0  0  0  0  0  0  0
    2.5279   -0.3865   -0.0183 C   0  0  0  0  0  0  0  0  0  0  0  0
    2.6776   -0.5075    1.4404 C   0  0  0  0  0  0  0  0  0  0  0  0
    3.9673   -0.6995    1.8246 F   0  0  0  0  0  0  0  0  0  0  0  0
    2.0061   -1.5713    1.9439 F   0  0  0  0  0  0  0  0  0  0  0  0
    2.2381    0.5989    2.0887 F   0  0  0  0  0  0  0  0  0  0  0  0
   -1.6812   -3.4039   -2.6063 H   0  0  0  0  0  0  0  0  0  0  0  0
    0.0176   -2.9597   -2.7752 H   0  0  0  0  0  0  0  0  0  0  0  0
   -1.1075   -2.6721   -4.1130 H   0  0  0  0  0  0  0  0  0  0  0  0
   -2.3354   -0.9820   -2.7544 H   0  0  0  0  0  0  0  0  0  0  0  0
   -0.6747   -0.5117   -2.9425 H   0  0  0  0  0  0  0  0  0  0  0  0
   -5.4584   -2.2041    1.1666 H   0  0  0  0  0  0  0  0  0  0  0  0
   -3.9616   -1.7955    1.9629 H   0  0  0  0  0  0  0  0  0  0  0  0
   -3.3112    0.6322    2.2347 H   0  0  0  0  0  0  0  0  0  0  0  0
   -4.1393    2.9646    2.4125 H   0  0  0  0  0  0  0  0  0  0  0  0
   -7.8072    1.8516    0.5065 H   0  0  0  0  0  0  0  0  0  0  0  0
   -7.0084   -0.4876    0.2930 H   0  0  0  0  0  0  0  0  0  0  0  0
    1.4891   -0.8529   -3.0767 H   0  0  0  0  0  0  0  0  0  0  0  0
    4.1573    1.6931    1.2101 H   0  0  0  0  0  0  0  0  0  0  0  0
    6.2820    2.8379    1.5460 H   0  0  0  0  0  0  0  0  0  0  0  0
    8.1463    2.5522   -0.0620 H   0  0  0  0  0  0  0  0  0  0  0  0
    7.8560    1.0939   -2.0504 H   0  0  0  0  0  0  0  0  0  0  0  0
    5.7350   -0.0923   -2.4221 H   0  0  0  0  0  0  0  0  0  0  0  0
  1  2  1  0
  2  3  1  0
  3  4  1  0
  4  5  1  0
  5  6  1  0
  6  7  1  0
  7  8  2  0
  8  9  1  0
  9 10  2  0
 10 11  1  0
 10 12  1  0
 12 13  2  0
  4 14  2  0
 14 15  1  0
 15 16  2  0
 16 17  1  0
 17 18  1  0
 18 19  2  0
 19 20  1  0
 20 21  1  0
 21 22  2  0
 22 23  1  0
 23 24  2  0
 24 25  1  0
 25 26  2  0
 20 27  1  0
 27 28  1  0
 28 29  1  0
 28 30  1  0
 28 31  1  0
 16  3  1  0
 27 17  2  0
 13  7  1  0
 26 21  1  0
  1 32  1  0
  1 33  1  0
  1 34  1  0
  2 35  1  0
  2 36  1  0
  6 37  1  0
  6 38  1  0
  8 39  1  0
  9 40  1  0
 12 41  1  0
 13 42  1  0
 18 43  1  0
 22 44  1  0
 23 45  1  0
 24 46  1  0
 25 47  1  0
 26 48  1  0
M  END
$$$$
