
     RDKit          3D

 48 49  0  0  0  0  0  0  0  0999 V2000
   -6.5132    0.5686   -0.7050 C   0  0  0  0  0  0  0  0  0  0  0  0
   -5.7602   -0.6014   -0.0923 C   0  0  0  0  0  0  0  0  0  0  0  0
   -4.3244   -0.3355   -0.0135 N   0  0  0  0  0  0  0  0  0  0  0  0
   -3.5010   -0.7481   -1.1546 C   0  0  0  0  0  0  0  0  0  0  0  0
   -3.0582   -2.1994   -1.0395 C   0  0  0  0  0  0  0  0  0  0  0  0
   -3.8379    0.2657    1.1469 C   0  0  0  0  0  0  0  0  0  0  0  0
   -4.5351    0.5714    2.1113 O   0  0  0  0  0  0  0  0  0  0  0  0
   -2.3959    0.5529    1.2420 C   0  0  0  0  0  0  0  0  0  0  0  0
   -1.5703   -0.3161    1.9536 C   0  0  0  0  0  0  0  0  0  0  0  0
   -0.2060   -0.0337    2.0591 C   0  0  0  0  0  0  0  0  0  0  0  0
    0.3345    1.1181    1.4674 C   0  0  0  0  0  0  0  0  0  0  0  0
    1.7180    1.3238    1.6198 N   0  0  0  0  0  0  0  0  0  0  0  0
    2.4920    2.3438    1.0913 C   0  0  0  0  0  0  0  0  0  0  0  0
    2.1097    3.2745    0.3896 O   0  0  0  0  0  0  0  0  0  0  0  0
    3.9637    2.2225    1.5011 C   0  0  0  0  0  0  0  0  0  0  0  0
    4.4312    0.8807    1.5710 O   0  0  0  0  0  0  0  0  0  0  0  0
    4.6174    0.1843    0.4038 C   0  0  0  0  0  0  0  0  0  0  0  0
    4.5994    0.7516   -0.8751 C   0  0  0  0  0  0  0  0  0  0  0  0
    4.8048   -0.0457   -2.0080 C   0  0  0  0  0  0  0  0  0  0  0  0
    5.0305   -1.4197   -1.8622 C   0  0  0  0  0  0  0  0  0  0  0  0
    5.2437   -2.2538   -3.0516 N   0  0  0  0  0  4  0  0  0  0  0  0
    5.2454   -1.6915   -4.1554 O   0  0  0  0  0  0  0  0  0  0  0  0
    5.4074   -3.4699   -2.8790 O   0  0  0  0  0  1  0  0  0  0  0  0
    5.0518   -2.0044   -0.5931 C   0  0  0  0  0  0  0  0  0  0  0  0
    4.8457   -1.1993    0.5300 C   0  0  0  0  0  0  0  0  0  0  0  0
    4.8517   -1.9630    2.0826 Cl  0  0  0  0  0  0  0  0  0  0  0  0
   -0.5117    1.9910    0.7772 C   0  0  0  0  0  0  0  0  0  0  0  0
   -1.8788    1.7149    0.6686 C   0  0  0  0  0  0  0  0  0  0  0  0
   -6.3721    1.4794   -0.1157 H   0  0  0  0  0  0  0  0  0  0  0  0
   -7.5849    0.3515   -0.7490 H   0  0  0  0  0  0  0  0  0  0  0  0
   -6.1637    0.7724   -1.7213 H   0  0  0  0  0  0  0  0  0  0  0  0
   -5.9244   -1.5104   -0.6798 H   0  0  0  0  0  0  0  0  0  0  0  0
   -6.1530   -0.7935    0.9119 H   0  0  0  0  0  0  0  0  0  0  0  0
   -2.6175   -0.1101   -1.2377 H   0  0  0  0  0  0  0  0  0  0  0  0
   -4.0813   -0.6016   -2.0726 H   0  0  0  0  0  0  0  0  0  0  0  0
   -2.4716   -2.3661   -0.1312 H   0  0  0  0  0  0  0  0  0  0  0  0
   -3.9191   -2.8749   -1.0066 H   0  0  0  0  0  0  0  0  0  0  0  0
   -2.4409   -2.4763   -1.9003 H   0  0  0  0  0  0  0  0  0  0  0  0
   -1.9867   -1.2016    2.4265 H   0  0  0  0  0  0  0  0  0  0  0  0
    0.4246   -0.7232    2.6149 H   0  0  0  0  0  0  0  0  0  0  0  0
    2.2273    0.6174    2.1430 H   0  0  0  0  0  0  0  0  0  0  0  0
    4.6002    2.8383    0.8566 H   0  0  0  0  0  0  0  0  0  0  0  0
    4.0444    2.6442    2.5098 H   0  0  0  0  0  0  0  0  0  0  0  0
    4.4306    1.8129   -1.0378 H   0  0  0  0  0  0  0  0  0  0  0  0
    4.7854    0.4219   -2.9916 H   0  0  0  0  0  0  0  0  0  0  0  0
    5.2230   -3.0719   -0.4679 H   0  0  0  0  0  0  0  0  0  0  0  0
   -0.1415    2.9032    0.3195 H   0  0  0  0  0  0  0  0  0  0  0  0
   -2.5332    2.4057    0.1432 H   0  0  0  0  0  0  0  0  0  0  0  0
  1  2  1  0
  2  3  1  0
  3  4  1  0
  4  5  1  0
  3  6  1  0
  6  7  2  0
  6  8  1  0
  8  9  2  0
  9 10  1  0
 10 11  2  0
 11 12  1  0
 12 13  1  0
 13 14  2  0
 13 15  1  0
 15 16  1  0
 16 17  1  0
 17 18  2  0
 18 19  1  0
 19 20  2  0
 20 21  1  0
 21 22  2  0
 21 23  1  0
 20 24  1  0
 24 25  2  0
 25 26  1  0
 11 27  1  0
 27 28  2  0
 28  8  1  0
 25 17  1  0
  1 29  1  0
  1 30  1  0
  1 31  1  0
  2 32  1  0
  2 33  1  0
  4 34  1  0
  4 35  1  0
  5 36  1  0
  5 37  1  0
  5 38  1  0
  9 39  1  0
 10 40  1  0
 12 41  1  0
 15 42  1  0
 15 43  1  0
 18 44  1  0
 19 45  1  0
 24 46  1  0
 27 47  1  0
 28 48  1  0
M  CHG  2  21   1  23  -1
M  END
$$$$
