
     RDKit          3D

 43 45  0  0  0  0  0  0  0  0999 V2000
    5.2002    4.5107   -0.1001 C   0  0  0  0  0  0  0  0  0  0  0  0
    4.6946    3.7207    0.9668 O   0  0  0  0  0  0  0  0  0  0  0  0
    3.7570    2.7648    0.6700 C   0  0  0  0  0  0  0  0  0  0  0  0
    3.2294    2.5423   -0.6044 C   0  0  0  0  0  0  0  0  0  0  0  0
    2.2695    1.5461   -0.8094 C   0  0  0  0  0  0  0  0  0  0  0  0
    1.8141    0.7668    0.2585 C   0  0  0  0  0  0  0  0  0  0  0  0
    0.8114   -0.2927    0.0779 C   0  0  0  0  0  0  0  0  0  0  0  0
   -0.2898   -0.1346   -0.6745 C   0  0  0  0  0  0  0  0  0  0  0  0
   -1.3010   -1.1874   -0.8292 C   0  0  0  0  0  0  0  0  0  0  0  0
   -0.9249   -2.3881   -1.4357 C   0  0  0  0  0  0  0  0  0  0  0  0
   -1.8620   -3.3817   -1.6532 C   0  0  0  0  0  0  0  0  0  0  0  0
   -3.1838   -3.1656   -1.2831 C   0  0  0  0  0  0  0  0  0  0  0  0
   -4.1465   -4.1581   -1.5199 C   0  0  0  0  0  0  0  0  0  0  0  0
   -5.4783   -3.9531   -1.1688 C   0  0  0  0  0  0  0  0  0  0  0  0
   -5.8625   -2.7547   -0.5817 C   0  0  0  0  0  0  0  0  0  0  0  0
   -4.9135   -1.7570   -0.3371 C   0  0  0  0  0  0  0  0  0  0  0  0
   -3.5560   -1.9376   -0.6718 C   0  0  0  0  0  0  0  0  0  0  0  0
   -2.5931   -0.9841   -0.4386 N   0  0  0  0  0  4  0  0  0  0  0  0
   -2.9679    0.2626    0.2733 C   0  0  0  0  0  0  0  0  0  0  0  0
    2.3592    0.9739    1.5332 C   0  0  0  0  0  0  0  0  0  0  0  0
    3.3241    1.9670    1.7471 C   0  0  0  0  0  0  0  0  0  0  0  0
    3.8864    2.2469    2.9676 O   0  0  0  0  0  0  0  0  0  0  0  0
    3.6846    1.3167    4.0214 C   0  0  0  0  0  0  0  0  0  0  0  0
    4.4071    5.1140   -0.5537 H   0  0  0  0  0  0  0  0  0  0  0  0
    5.7024    3.8890   -0.8486 H   0  0  0  0  0  0  0  0  0  0  0  0
    5.9441    5.1974    0.3152 H   0  0  0  0  0  0  0  0  0  0  0  0
    3.5496    3.1255   -1.4620 H   0  0  0  0  0  0  0  0  0  0  0  0
    1.8981    1.3881   -1.8191 H   0  0  0  0  0  0  0  0  0  0  0  0
    1.0045   -1.2145    0.6253 H   0  0  0  0  0  0  0  0  0  0  0  0
   -0.4883    0.7989   -1.1963 H   0  0  0  0  0  0  0  0  0  0  0  0
    0.1042   -2.5506   -1.7549 H   0  0  0  0  0  0  0  0  0  0  0  0
   -1.5535   -4.3132   -2.1276 H   0  0  0  0  0  0  0  0  0  0  0  0
   -3.8723   -5.1051   -1.9852 H   0  0  0  0  0  0  0  0  0  0  0  0
   -6.2178   -4.7300   -1.3590 H   0  0  0  0  0  0  0  0  0  0  0  0
   -6.9069   -2.5963   -0.3148 H   0  0  0  0  0  0  0  0  0  0  0  0
   -5.2841   -0.8413    0.1146 H   0  0  0  0  0  0  0  0  0  0  0  0
   -2.0981    0.8442    0.5772 H   0  0  0  0  0  0  0  0  0  0  0  0
   -3.5904    0.8559   -0.4018 H   0  0  0  0  0  0  0  0  0  0  0  0
   -3.5059   -0.0099    1.1857 H   0  0  0  0  0  0  0  0  0  0  0  0
    2.0099    0.3626    2.3589 H   0  0  0  0  0  0  0  0  0  0  0  0
    4.3028    1.6301    4.8681 H   0  0  0  0  0  0  0  0  0  0  0  0
    4.0022    0.3096    3.7312 H   0  0  0  0  0  0  0  0  0  0  0  0
    2.6410    1.3218    4.3519 H   0  0  0  0  0  0  0  0  0  0  0  0
  1  2  1  0
  2  3  1  0
  3  4  2  0
  4  5  1  0
  5  6  2  0
  6  7  1  0
  7  8  2  3
  8  9  1  0
  9 10  2  0
 10 11  1  0
 11 12  2  0
 12 13  1  0
 13 14  2  0
 14 15  1  0
 15 16  2  0
 16 17  1  0
 17 18  2  0
 18 19  1  0
  6 20  1  0
 20 21  2  0
 21 22  1  0
 22 23  1  0
 21  3  1  0
 18  9  1  0
 17 12  1  0
  1 24  1  0
  1 25  1  0
  1 26  1  0
  4 27  1  0
  5 28  1  0
  7 29  1  0
  8 30  1  0
 10 31  1  0
 11 32  1  0
 13 33  1  0
 14 34  1  0
 15 35  1  0
 16 36  1  0
 19 37  1  0
 19 38  1  0
 19 39  1  0
 20 40  1  0
 23 41  1  0
 23 42  1  0
 23 43  1  0
M  CHG  1  18   1
M  END
$$$$
