
     RDKit          3D

 37 40  0  0  0  0  0  0  0  0999 V2000
   -1.3069   -2.9688    0.8024 C   0  0  0  0  0  0  0  0  0  0  0  0
   -0.5255   -1.7370    0.4402 C   0  0  0  0  0  0  0  0  0  0  0  0
    0.8796   -1.7843    0.4171 C   0  0  0  0  0  0  0  0  0  0  0  0
    1.6254   -0.6337    0.0817 C   0  0  0  0  0  0  0  0  0  0  0  0
    0.9403    0.5443   -0.2223 C   0  0  0  0  0  0  0  0  0  0  0  0
    1.8988    1.4919   -0.5062 N   0  0  0  0  0  0  0  0  0  0  0  0
    3.1663    0.9721   -0.3974 C   0  0  0  0  0  0  0  0  0  0  0  0
    4.4120    1.5793   -0.5961 C   0  0  0  0  0  0  0  0  0  0  0  0
    5.5521    0.7919   -0.4104 C   0  0  0  0  0  0  0  0  0  0  0  0
    5.4473   -0.5470   -0.0414 C   0  0  0  0  0  0  0  0  0  0  0  0
    4.1929   -1.1368    0.1527 C   0  0  0  0  0  0  0  0  0  0  0  0
    3.0272   -0.3637   -0.0285 C   0  0  0  0  0  0  0  0  0  0  0  0
   -0.4627    0.6158   -0.2059 C   0  0  0  0  0  0  0  0  0  0  0  0
   -1.1824   -0.5399    0.1248 C   0  0  0  0  0  0  0  0  0  0  0  0
   -2.5517   -0.5607    0.1772 O   0  0  0  0  0  0  0  0  0  0  0  0
   -3.2922    0.5893   -0.2782 C   0  0  0  0  0  0  0  0  0  0  0  0
   -4.0205    0.1674   -1.5598 C   0  0  0  0  0  0  0  0  0  0  0  0
   -4.3174    0.8911    0.8216 C   0  0  0  0  0  0  0  0  0  0  0  0
   -2.4770    1.8338   -0.5497 C   0  0  0  0  0  0  0  0  0  0  0  0
   -1.1418    1.8594   -0.5154 C   0  0  0  0  0  0  0  0  0  0  0  0
   -1.9645   -3.2573   -0.0240 H   0  0  0  0  0  0  0  0  0  0  0  0
   -0.6465   -3.8168    1.0121 H   0  0  0  0  0  0  0  0  0  0  0  0
   -1.9079   -2.7863    1.6992 H   0  0  0  0  0  0  0  0  0  0  0  0
    1.4028   -2.7058    0.6579 H   0  0  0  0  0  0  0  0  0  0  0  0
    1.6999    2.4463   -0.7635 H   0  0  0  0  0  0  0  0  0  0  0  0
    4.4977    2.6221   -0.8835 H   0  0  0  0  0  0  0  0  0  0  0  0
    6.5358    1.2326   -0.5566 H   0  0  0  0  0  0  0  0  0  0  0  0
    6.3467   -1.1417    0.0979 H   0  0  0  0  0  0  0  0  0  0  0  0
    4.1202   -2.1813    0.4403 H   0  0  0  0  0  0  0  0  0  0  0  0
   -4.6733    0.9604   -1.9410 H   0  0  0  0  0  0  0  0  0  0  0  0
   -3.3047   -0.0968   -2.3475 H   0  0  0  0  0  0  0  0  0  0  0  0
   -4.6301   -0.7271   -1.3859 H   0  0  0  0  0  0  0  0  0  0  0  0
   -4.9865    1.7137    0.5461 H   0  0  0  0  0  0  0  0  0  0  0  0
   -4.9298    0.0077    1.0379 H   0  0  0  0  0  0  0  0  0  0  0  0
   -3.8158    1.1550    1.7605 H   0  0  0  0  0  0  0  0  0  0  0  0
   -3.0185    2.7440   -0.7935 H   0  0  0  0  0  0  0  0  0  0  0  0
   -0.5895    2.7669   -0.7173 H   0  0  0  0  0  0  0  0  0  0  0  0
  1  2  1  0
  2  3  2  0
  3  4  1  0
  4  5  2  0
  5  6  1  0
  6  7  1  0
  7  8  2  0
  8  9  1  0
  9 10  2  0
 10 11  1  0
 11 12  2  0
  5 13  1  0
 13 14  2  0
 14 15  1  0
 15 16  1  0
 16 17  1  0
 16 18  1  0
 16 19  1  0
 19 20  2  0
 14  2  1  0
 12  4  1  0
 20 13  1  0
 12  7  1  0
  1 21  1  0
  1 22  1  0
  1 23  1  0
  3 24  1  0
  6 25  1  0
  8 26  1  0
  9 27  1  0
 10 28  1  0
 11 29  1  0
 17 30  1  0
 17 31  1  0
 17 32  1  0
 18 33  1  0
 18 34  1  0
 18 35  1  0
 19 36  1  0
 20 37  1  0
M  END
$$$$
