
     RDKit          3D

 39 42  0  0  0  0  0  0  0  0999 V2000
   -7.8850   -1.4524   -0.0841 O   0  0  0  0  0  0  0  0  0  0  0  0
   -7.2188   -1.2040    0.9054 C   0  0  0  0  0  0  0  0  0  0  0  0
   -7.7816   -1.1864    2.1288 O   0  0  0  0  0  0  0  0  0  0  0  0
   -5.7520   -0.8970    0.9579 C   0  0  0  0  0  0  0  0  0  0  0  0
   -5.1573   -0.9094   -0.4470 C   0  0  0  0  0  0  0  0  0  0  0  0
   -3.7217   -0.6122   -0.4324 N   0  0  0  0  0  0  0  0  0  0  0  0
   -3.3197    0.7119   -0.4396 C   0  0  0  0  0  0  0  0  0  0  0  0
   -4.0640    1.6839   -0.4486 O   0  0  0  0  0  0  0  0  0  0  0  0
   -1.8353    0.8100   -0.4090 C   0  0  0  0  0  0  0  0  0  0  0  0
   -1.2435    2.0117   -0.4361 C   0  0  0  0  0  0  0  0  0  0  0  0
    0.1596    2.2507   -0.4086 C   0  0  0  0  0  0  0  0  0  0  0  0
    0.8132    3.4749   -0.4490 C   0  0  0  0  0  0  0  0  0  0  0  0
    2.2060    3.2274   -0.3979 C   0  0  0  0  0  0  0  0  0  0  0  0
    2.3741    1.8559   -0.3266 C   0  0  0  0  0  0  0  0  0  0  0  0
    3.5794    1.0693   -0.2543 C   0  0  0  0  0  0  0  0  0  0  0  0
    3.5499   -0.2444   -0.1883 N   0  0  0  0  0  0  0  0  0  0  0  0
    4.8363   -0.7494   -0.1286 C   0  0  0  0  0  0  0  0  0  0  0  0
    5.1864   -2.1124   -0.0504 C   0  0  0  0  0  0  0  0  0  0  0  0
    6.5340   -2.4828    0.0042 C   0  0  0  0  0  0  0  0  0  0  0  0
    7.5322   -1.5138   -0.0181 C   0  0  0  0  0  0  0  0  0  0  0  0
    7.2111   -0.1548   -0.0953 C   0  0  0  0  0  0  0  0  0  0  0  0
    5.8541    0.2051   -0.1497 C   0  0  0  0  0  0  0  0  0  0  0  0
    5.1472    1.7708   -0.2477 S   0  0  0  0  0  0  0  0  0  0  0  0
    1.1286    1.2825   -0.3338 O   0  0  0  0  0  0  0  0  0  0  0  0
   -1.1549   -0.7631   -0.3354 S   0  0  0  0  0  0  0  0  0  0  0  0
   -2.7214   -1.5575   -0.3430 C   0  0  0  0  0  0  0  0  0  0  0  0
   -2.8807   -3.2150   -0.2446 S   0  0  0  0  0  0  0  0  0  0  0  0
   -8.7255   -1.3988    1.9691 H   0  0  0  0  0  0  0  0  0  0  0  0
   -5.6179    0.0883    1.4173 H   0  0  0  0  0  0  0  0  0  0  0  0
   -5.2608   -1.6462    1.5876 H   0  0  0  0  0  0  0  0  0  0  0  0
   -5.3301   -1.8770   -0.9301 H   0  0  0  0  0  0  0  0  0  0  0  0
   -5.6610   -0.1581   -1.0685 H   0  0  0  0  0  0  0  0  0  0  0  0
   -1.8752    2.8972   -0.4839 H   0  0  0  0  0  0  0  0  0  0  0  0
    0.3320    4.4420   -0.5094 H   0  0  0  0  0  0  0  0  0  0  0  0
    2.9925    3.9693   -0.4117 H   0  0  0  0  0  0  0  0  0  0  0  0
    4.4030   -2.8640   -0.0334 H   0  0  0  0  0  0  0  0  0  0  0  0
    6.7990   -3.5359    0.0644 H   0  0  0  0  0  0  0  0  0  0  0  0
    8.5767   -1.8159    0.0249 H   0  0  0  0  0  0  0  0  0  0  0  0
    7.9913    0.5999   -0.1127 H   0  0  0  0  0  0  0  0  0  0  0  0
  1  2  2  0
  2  3  1  0
  2  4  1  0
  4  5  1  0
  5  6  1  0
  6  7  1  0
  7  8  2  0
  7  9  1  0
  9 10  2  3
 10 11  1  0
 11 12  2  0
 12 13  1  0
 13 14  2  0
 14 15  1  0
 15 16  2  0
 16 17  1  0
 17 18  2  0
 18 19  1  0
 19 20  2  0
 20 21  1  0
 21 22  2  0
 22 23  1  0
 14 24  1  0
  9 25  1  0
 25 26  1  0
 26 27  2  0
 26  6  1  0
 24 11  1  0
 23 15  1  0
 22 17  1  0
  3 28  1  0
  4 29  1  0
  4 30  1  0
  5 31  1  0
  5 32  1  0
 10 33  1  0
 12 34  1  0
 13 35  1  0
 18 36  1  0
 19 37  1  0
 20 38  1  0
 21 39  1  0
M  END
$$$$
