
     RDKit          3D

 35 37  0  0  0  0  0  0  0  0999 V2000
   -2.0568   -2.6992    1.1475 C   0  0  0  0  0  0  0  0  0  0  0  0
   -1.5671   -1.4973    0.3476 C   0  0  0  0  0  0  0  0  0  0  0  0
   -2.0439   -0.2859    0.9429 O   0  0  0  0  0  0  0  0  0  0  0  0
   -3.2390    0.2322    0.5318 C   0  0  0  0  0  0  0  0  0  0  0  0
   -3.5185    1.5062    1.0377 C   0  0  0  0  0  0  0  0  0  0  0  0
   -4.7043    2.1638    0.7027 C   0  0  0  0  0  0  0  0  0  0  0  0
   -5.6193    1.5404   -0.1398 C   0  0  0  0  0  0  0  0  0  0  0  0
   -7.2274    2.4200   -0.5986 Br  0  0  0  0  0  0  0  0  0  0  0  0
   -5.3572    0.2681   -0.6433 C   0  0  0  0  0  0  0  0  0  0  0  0
   -4.1672   -0.3873   -0.3055 C   0  0  0  0  0  0  0  0  0  0  0  0
   -0.0238   -1.4491    0.3394 C   0  0  0  0  0  0  0  0  0  0  0  0
    0.6540   -2.4656    0.4537 O   0  0  0  0  0  0  0  0  0  0  0  0
    0.4465   -0.1716    0.1173 N   0  0  0  0  0  0  0  0  0  0  0  0
    1.7517    0.2314    0.0118 C   0  0  0  0  0  0  0  0  0  0  0  0
    2.0832    1.4978   -0.1212 N   0  0  0  0  0  0  0  0  0  0  0  0
    3.4515    1.6705   -0.2151 N   0  0  0  0  0  0  0  0  0  0  0  0
    4.0838    0.5197   -0.1598 C   0  0  0  0  0  0  0  0  0  0  0  0
    5.6380    0.4188   -0.2333 C   0  0  0  0  0  0  0  0  0  0  0  0
    6.2830   -0.1644   -1.4650 C   0  0  0  0  0  0  0  0  0  0  0  0
    6.3882    1.3076   -1.1928 C   0  0  0  0  0  0  0  0  0  0  0  0
    3.0732   -0.8449    0.0219 S   0  0  0  0  0  0  0  0  0  0  0  0
   -3.1494   -2.7267    1.1998 H   0  0  0  0  0  0  0  0  0  0  0  0
   -1.7092   -3.6395    0.7081 H   0  0  0  0  0  0  0  0  0  0  0  0
   -1.6930   -2.6508    2.1803 H   0  0  0  0  0  0  0  0  0  0  0  0
   -1.8562   -1.5770   -0.7075 H   0  0  0  0  0  0  0  0  0  0  0  0
   -2.8078    1.9943    1.7012 H   0  0  0  0  0  0  0  0  0  0  0  0
   -4.9015    3.1539    1.1049 H   0  0  0  0  0  0  0  0  0  0  0  0
   -6.0733   -0.2256   -1.2957 H   0  0  0  0  0  0  0  0  0  0  0  0
   -4.0119   -1.3833   -0.7064 H   0  0  0  0  0  0  0  0  0  0  0  0
   -0.2251    0.5875    0.1229 H   0  0  0  0  0  0  0  0  0  0  0  0
    6.1109    0.2204    0.7226 H   0  0  0  0  0  0  0  0  0  0  0  0
    7.1708   -0.7716   -1.3310 H   0  0  0  0  0  0  0  0  0  0  0  0
    5.6514   -0.4801   -2.2879 H   0  0  0  0  0  0  0  0  0  0  0  0
    5.8205    1.9852   -1.8214 H   0  0  0  0  0  0  0  0  0  0  0  0
    7.3452    1.7020   -0.8716 H   0  0  0  0  0  0  0  0  0  0  0  0
  1  2  1  0
  2  3  1  0
  3  4  1  0
  4  5  2  0
  5  6  1  0
  6  7  2  0
  7  8  1  0
  7  9  1  0
  9 10  2  0
  2 11  1  0
 11 12  2  0
 11 13  1  0
 13 14  1  0
 14 15  2  0
 15 16  1  0
 16 17  2  0
 17 18  1  0
 18 19  1  0
 19 20  1  0
 17 21  1  0
 10  4  1  0
 21 14  1  0
 20 18  1  0
  1 22  1  0
  1 23  1  0
  1 24  1  0
  2 25  1  0
  5 26  1  0
  6 27  1  0
  9 28  1  0
 10 29  1  0
 13 30  1  0
 18 31  1  0
 19 32  1  0
 19 33  1  0
 20 34  1  0
 20 35  1  0
M  END
$$$$
