
     RDKit          3D

 69 73  0  0  0  0  0  0  0  0999 V2000
    4.9546   -4.4958    0.0873 C   0  0  0  0  0  0  0  0  0  0  0  0
    4.9294   -3.0950    0.3286 O   0  0  0  0  0  0  0  0  0  0  0  0
    4.2197   -2.3215   -0.5502 C   0  0  0  0  0  0  0  0  0  0  0  0
    3.4870   -2.7853   -1.6462 C   0  0  0  0  0  0  0  0  0  0  0  0
    2.7995   -1.8830   -2.4634 C   0  0  0  0  0  0  0  0  0  0  0  0
    2.0488   -2.2050   -3.5621 O   0  0  0  0  0  0  0  0  0  0  0  0
    1.9534   -3.5817   -3.9034 C   0  0  0  0  0  0  0  0  0  0  0  0
    2.8491   -0.5156   -2.1790 C   0  0  0  0  0  0  0  0  0  0  0  0
    3.5803   -0.0362   -1.0869 C   0  0  0  0  0  0  0  0  0  0  0  0
    3.6134    1.4005   -0.7871 C   0  0  0  0  0  0  0  0  0  0  0  0
    5.1105    2.2194   -0.9158 S   0  0  0  0  0  0  0  0  0  0  0  0
    4.4256    3.7313   -0.4810 C   0  0  0  0  0  0  0  0  0  0  0  0
    5.1011    4.9618   -0.3669 C   0  0  0  0  0  0  0  0  0  0  0  0
    4.3854    6.1041    0.0088 C   0  0  0  0  0  0  0  0  0  0  0  0
    3.0245    6.0305    0.2706 C   0  0  0  0  0  0  0  0  0  0  0  0
    2.2206    7.0710    0.6493 O   0  0  0  0  0  0  0  0  0  0  0  0
    2.8417    8.3398    0.8107 C   0  0  0  0  0  0  0  0  0  0  0  0
    2.3648    4.8013    0.1501 C   0  0  0  0  0  0  0  0  0  0  0  0
    3.0568    3.6226   -0.2356 C   0  0  0  0  0  0  0  0  0  0  0  0
    2.5902    2.2645   -0.4246 C   0  0  0  0  0  0  0  0  0  0  0  0
    1.2123    1.8052   -0.2671 C   0  0  0  0  0  0  0  0  0  0  0  0
    0.8736    0.8897    0.7356 C   0  0  0  0  0  0  0  0  0  0  0  0
   -0.4467    0.4458    0.8743 C   0  0  0  0  0  0  0  0  0  0  0  0
   -1.4392    0.9188    0.0155 C   0  0  0  0  0  0  0  0  0  0  0  0
   -2.7609    0.5690    0.0436 O   0  0  0  0  0  0  0  0  0  0  0  0
   -3.1338   -0.4892    0.9322 C   0  0  0  0  0  0  0  0  0  0  0  0
   -4.6385   -0.7500    0.7513 C   0  0  0  0  0  0  0  0  0  0  0  0
   -5.1523   -1.8333    1.6050 N   0  0  0  0  0  0  0  0  0  0  0  0
   -6.6093   -1.7363    1.7534 C   0  0  0  0  0  0  0  0  0  0  0  0
   -7.1554   -2.9059    2.5695 C   0  0  0  0  0  0  0  0  0  0  0  0
   -6.8477   -4.2555    1.9250 C   0  0  0  0  0  0  0  0  0  0  0  0
   -5.8041   -4.1457    0.8197 C   0  0  0  0  0  0  0  0  0  0  0  0
   -4.6879   -3.1651    1.1836 C   0  0  0  0  0  0  0  0  0  0  0  0
   -1.1022    1.8441   -0.9756 C   0  0  0  0  0  0  0  0  0  0  0  0
    0.2151    2.2853   -1.1209 C   0  0  0  0  0  0  0  0  0  0  0  0
    4.2613   -0.9520   -0.2763 C   0  0  0  0  0  0  0  0  0  0  0  0
    5.5719   -4.9575    0.8640 H   0  0  0  0  0  0  0  0  0  0  0  0
    5.4129   -4.7222   -0.8811 H   0  0  0  0  0  0  0  0  0  0  0  0
    3.9507   -4.9267    0.1601 H   0  0  0  0  0  0  0  0  0  0  0  0
    3.4508   -3.8446   -1.8614 H   0  0  0  0  0  0  0  0  0  0  0  0
    2.9359   -3.9942   -4.1554 H   0  0  0  0  0  0  0  0  0  0  0  0
    1.3209   -3.6632   -4.7926 H   0  0  0  0  0  0  0  0  0  0  0  0
    1.4759   -4.1550   -3.1020 H   0  0  0  0  0  0  0  0  0  0  0  0
    2.3099    0.1782   -2.8206 H   0  0  0  0  0  0  0  0  0  0  0  0
    6.1673    5.0252   -0.5668 H   0  0  0  0  0  0  0  0  0  0  0  0
    4.9332    7.0375    0.0874 H   0  0  0  0  0  0  0  0  0  0  0  0
    2.0725    9.0503    1.1288 H   0  0  0  0  0  0  0  0  0  0  0  0
    3.2566    8.6987   -0.1370 H   0  0  0  0  0  0  0  0  0  0  0  0
    3.6089    8.3085    1.5914 H   0  0  0  0  0  0  0  0  0  0  0  0
    1.2988    4.7525    0.3622 H   0  0  0  0  0  0  0  0  0  0  0  0
    1.6343    0.5134    1.4160 H   0  0  0  0  0  0  0  0  0  0  0  0
   -0.6639   -0.2640    1.6656 H   0  0  0  0  0  0  0  0  0  0  0  0
   -2.9440   -0.1909    1.9705 H   0  0  0  0  0  0  0  0  0  0  0  0
   -2.5575   -1.3898    0.6916 H   0  0  0  0  0  0  0  0  0  0  0  0
   -4.8657   -0.9409   -0.3064 H   0  0  0  0  0  0  0  0  0  0  0  0
   -5.1521    0.1910    0.9935 H   0  0  0  0  0  0  0  0  0  0  0  0
   -6.8609   -0.8054    2.2760 H   0  0  0  0  0  0  0  0  0  0  0  0
   -7.1069   -1.7013    0.7754 H   0  0  0  0  0  0  0  0  0  0  0  0
   -6.7208   -2.8801    3.5776 H   0  0  0  0  0  0  0  0  0  0  0  0
   -8.2383   -2.7977    2.6998 H   0  0  0  0  0  0  0  0  0  0  0  0
   -7.7644   -4.6918    1.5097 H   0  0  0  0  0  0  0  0  0  0  0  0
   -6.5003   -4.9515    2.6990 H   0  0  0  0  0  0  0  0  0  0  0  0
   -6.2879   -3.8148   -0.1092 H   0  0  0  0  0  0  0  0  0  0  0  0
   -5.3818   -5.1357    0.6122 H   0  0  0  0  0  0  0  0  0  0  0  0
   -3.9995   -3.1109    0.3315 H   0  0  0  0  0  0  0  0  0  0  0  0
   -4.1088   -3.5859    2.0153 H   0  0  0  0  0  0  0  0  0  0  0  0
   -1.8717    2.2209   -1.6449 H   0  0  0  0  0  0  0  0  0  0  0  0
    0.4550    2.9986   -1.9059 H   0  0  0  0  0  0  0  0  0  0  0  0
    4.8287   -0.6031    0.5841 H   0  0  0  0  0  0  0  0  0  0  0  0
  1  2  1  0
  2  3  1  0
  3  4  2  0
  4  5  1  0
  5  6  1  0
  6  7  1  0
  5  8  2  0
  8  9  1  0
  9 10  1  0
 10 11  1  0
 11 12  1  0
 12 13  2  0
 13 14  1  0
 14 15  2  0
 15 16  1  0
 16 17  1  0
 15 18  1  0
 18 19  2  0
 19 20  1  0
 20 21  1  0
 21 22  2  0
 22 23  1  0
 23 24  2  0
 24 25  1  0
 25 26  1  0
 26 27  1  0
 27 28  1  0
 28 29  1  0
 29 30  1  0
 30 31  1  0
 31 32  1  0
 32 33  1  0
 24 34  1  0
 34 35  2  0
  9 36  2  0
 36  3  1  0
 20 10  2  0
 35 21  1  0
 19 12  1  0
 33 28  1  0
  1 37  1  0
  1 38  1  0
  1 39  1  0
  4 40  1  0
  7 41  1  0
  7 42  1  0
  7 43  1  0
  8 44  1  0
 13 45  1  0
 14 46  1  0
 17 47  1  0
 17 48  1  0
 17 49  1  0
 18 50  1  0
 22 51  1  0
 23 52  1  0
 26 53  1  0
 26 54  1  0
 27 55  1  0
 27 56  1  0
 29 57  1  0
 29 58  1  0
 30 59  1  0
 30 60  1  0
 31 61  1  0
 31 62  1  0
 32 63  1  0
 32 64  1  0
 33 65  1  0
 33 66  1  0
 34 67  1  0
 35 68  1  0
 36 69  1  0
M  END
$$$$
