
     RDKit          3D

 52 57  0  0  0  0  0  0  0  0999 V2000
    5.0514   -2.5125   -0.5224 C   0  0  0  0  0  0  0  0  0  0  0  0
    3.9830   -1.8081    0.2601 C   0  0  0  0  0  0  0  0  0  0  0  0
    3.8382   -1.9966    1.6465 C   0  0  0  0  0  0  0  0  0  0  0  0
    4.8964   -3.0436    2.5277 Cl  0  0  0  0  0  0  0  0  0  0  0  0
    2.8138   -1.3595    2.3716 C   0  0  0  0  0  0  0  0  0  0  0  0
    1.9073   -0.5097    1.7356 C   0  0  0  0  0  0  0  0  0  0  0  0
    2.0430   -0.3003    0.3705 C   0  0  0  0  0  0  0  0  0  0  0  0
    3.0533   -0.9665   -0.3427 C   0  0  0  0  0  0  0  0  0  0  0  0
    2.9328   -0.6861   -1.6996 N   0  0  0  0  0  0  0  0  0  0  0  0
    1.8583    0.1608   -1.9645 C   0  0  0  0  0  0  0  0  0  0  0  0
    1.5250    0.5198   -3.0846 O   0  0  0  0  0  0  0  0  0  0  0  0
    1.2191    0.5303   -0.5839 C   0  0  1  0  0  0  0  0  0  0  0  0
   -0.2023    0.1297   -0.4979 C   0  0  0  0  0  0  0  0  0  0  0  0
   -1.0243    1.2450   -0.6543 C   0  0  0  0  0  0  0  0  0  0  0  0
   -2.3332    0.8437   -0.6008 C   0  0  0  0  0  0  0  0  0  0  0  0
   -3.4457    1.5699   -0.6735 O   0  0  0  0  0  0  0  0  0  0  0  0
   -2.3408   -0.5541   -0.3852 N   0  0  0  0  0  0  0  0  0  0  0  0
   -3.5035   -1.3902   -0.2381 C   0  0  0  0  0  0  0  0  0  0  0  0
   -4.7408   -1.0066   -0.7761 C   0  0  0  0  0  0  0  0  0  0  0  0
   -5.8694   -1.8209   -0.6297 C   0  0  0  0  0  0  0  0  0  0  0  0
   -5.7789   -3.0274    0.0569 C   0  0  0  0  0  0  0  0  0  0  0  0
   -4.5591   -3.4217    0.5971 C   0  0  0  0  0  0  0  0  0  0  0  0
   -3.4285   -2.6103    0.4508 C   0  0  0  0  0  0  0  0  0  0  0  0
   -0.9932   -0.9810   -0.3435 C   0  0  0  0  0  0  0  0  0  0  0  0
   -0.6464   -2.2612   -0.2270 O   0  0  0  0  0  0  0  0  0  0  0  0
   -0.2200    2.4785   -0.8398 C   0  0  1  0  0  0  0  0  0  0  0  0
   -0.7286    3.7045   -0.0416 C   0  0  0  0  0  0  0  0  0  0  0  0
    0.3219    4.7180    0.1602 N   0  0  0  0  0  0  0  0  0  0  0  0
    1.4514    4.1211    0.9005 C   0  0  0  0  0  0  0  0  0  0  0  0
    1.5570    2.5745    0.8441 C   0  0  0  0  0  0  0  0  0  0  0  0
    1.1866    2.0316   -0.4688 N   0  0  0  0  0  0  0  0  0  0  0  0
    6.0297   -2.3797   -0.0489 H   0  0  0  0  0  0  0  0  0  0  0  0
    5.1480   -2.1215   -1.5392 H   0  0  0  0  0  0  0  0  0  0  0  0
    4.8237   -3.5808   -0.5933 H   0  0  0  0  0  0  0  0  0  0  0  0
    2.7164   -1.5343    3.4417 H   0  0  0  0  0  0  0  0  0  0  0  0
    1.1069   -0.0444    2.3039 H   0  0  0  0  0  0  0  0  0  0  0  0
    3.5079   -1.0532   -2.4430 H   0  0  0  0  0  0  0  0  0  0  0  0
   -3.2039    2.4912   -0.8649 H   0  0  0  0  0  0  0  0  0  0  0  0
   -4.8560   -0.0937   -1.3515 H   0  0  0  0  0  0  0  0  0  0  0  0
   -6.8175   -1.5103   -1.0611 H   0  0  0  0  0  0  0  0  0  0  0  0
   -6.6559   -3.6586    0.1696 H   0  0  0  0  0  0  0  0  0  0  0  0
   -4.4826   -4.3604    1.1395 H   0  0  0  0  0  0  0  0  0  0  0  0
   -2.5092   -2.9462    0.9198 H   0  0  0  0  0  0  0  0  0  0  0  0
    0.3226   -2.3272   -0.2761 H   0  0  0  0  0  0  0  0  0  0  0  0
   -0.1954    2.7357   -1.9070 H   0  0  0  0  0  0  0  0  0  0  0  0
   -1.5603    4.1690   -0.5841 H   0  0  0  0  0  0  0  0  0  0  0  0
   -1.1331    3.4069    0.9350 H   0  0  0  0  0  0  0  0  0  0  0  0
    0.6762    4.9751   -0.7640 H   0  0  0  0  0  0  0  0  0  0  0  0
    2.3773    4.5591    0.5082 H   0  0  0  0  0  0  0  0  0  0  0  0
    1.3822    4.4298    1.9500 H   0  0  0  0  0  0  0  0  0  0  0  0
    2.5912    2.3071    1.0894 H   0  0  0  0  0  0  0  0  0  0  0  0
    0.9082    2.1654    1.6285 H   0  0  0  0  0  0  0  0  0  0  0  0
  1  2  1  0
  2  3  2  0
  3  4  1  0
  3  5  1  0
  5  6  2  0
  6  7  1  0
  7  8  2  0
  8  9  1  0
  9 10  1  0
 10 11  2  0
 10 12  1  0
 12 13  1  0
 13 14  1  0
 14 15  2  0
 15 16  1  0
 15 17  1  0
 17 18  1  0
 18 19  2  0
 19 20  1  0
 20 21  2  0
 21 22  1  0
 22 23  2  0
 17 24  1  0
 24 25  1  0
 14 26  1  0
 26 27  1  0
 27 28  1  0
 28 29  1  0
 29 30  1  0
 30 31  1  0
  8  2  1  0
 12 31  1  1
 12  7  1  0
 24 13  2  0
 31 26  1  0
 23 18  1  0
  1 32  1  0
  1 33  1  0
  1 34  1  0
  5 35  1  0
  6 36  1  0
  9 37  1  0
 16 38  1  0
 19 39  1  0
 20 40  1  0
 21 41  1  0
 22 42  1  0
 23 43  1  0
 25 44  1  0
 26 45  1  6
 27 46  1  0
 27 47  1  0
 28 48  1  0
 29 49  1  0
 29 50  1  0
 30 51  1  0
 30 52  1  0
M  END
$$$$
