
     RDKit          3D

 64 69  0  0  0  0  0  0  0  0999 V2000
   -3.7750    3.1570    4.9058 C   0  0  0  0  0  0  0  0  0  0  0  0
   -4.6108    3.1685    3.7554 O   0  0  0  0  0  0  0  0  0  0  0  0
   -4.3722    2.2102    2.8097 C   0  0  0  0  0  0  0  0  0  0  0  0
   -5.2045    2.2748    1.6904 C   0  0  0  0  0  0  0  0  0  0  0  0
   -5.0681    1.3569    0.6451 C   0  0  0  0  0  0  0  0  0  0  0  0
   -4.0934    0.3541    0.7064 C   0  0  0  0  0  0  0  0  0  0  0  0
   -3.9278   -0.6047   -0.3942 C   0  0  0  0  0  0  0  0  0  0  0  0
   -5.2263   -1.6594   -0.7529 S   0  0  0  0  0  0  0  0  0  0  0  0
   -4.3706   -2.4391   -2.0223 C   0  0  0  0  0  0  0  0  0  0  0  0
   -4.8539   -3.4899   -2.8334 C   0  0  0  0  0  0  0  0  0  0  0  0
   -3.9965   -3.9670   -3.8029 C   0  0  0  0  0  0  0  0  0  0  0  0
   -2.7406   -3.4566   -3.9822 C   0  0  0  0  0  0  0  0  0  0  0  0
   -2.2482   -2.4296   -3.2010 C   0  0  0  0  0  0  0  0  0  0  0  0
   -3.0845   -1.8991   -2.1786 C   0  0  0  0  0  0  0  0  0  0  0  0
   -2.8393   -0.8392   -1.2212 C   0  0  0  0  0  0  0  0  0  0  0  0
   -1.6023   -0.0713   -1.1056 C   0  0  0  0  0  0  0  0  0  0  0  0
   -0.4245   -0.7025   -0.6905 C   0  0  0  0  0  0  0  0  0  0  0  0
    0.7687    0.0215   -0.5820 C   0  0  0  0  0  0  0  0  0  0  0  0
    0.7951    1.3813   -0.8912 C   0  0  0  0  0  0  0  0  0  0  0  0
    1.8817    2.2073   -0.8244 O   0  0  0  0  0  0  0  0  0  0  0  0
    3.1647    1.6347   -0.5517 C   0  0  0  0  0  0  0  0  0  0  0  0
    3.4245    1.5731    0.9648 C   0  0  0  0  0  0  0  0  0  0  0  0
    4.7031    0.9988    1.4154 N   0  0  0  0  0  0  0  0  0  0  0  0
    4.8311   -0.4260    1.0939 C   0  0  0  0  0  0  0  0  0  0  0  0
    6.0834   -1.0189    1.7431 C   0  0  0  0  0  0  0  0  0  0  0  0
    7.3355   -0.2470    1.3404 C   0  0  0  0  0  0  0  0  0  0  0  0
    7.1506    1.2443    1.6004 C   0  0  0  0  0  0  0  0  0  0  0  0
    5.8652    1.7669    0.9559 C   0  0  0  0  0  0  0  0  0  0  0  0
   -0.3839    2.0096   -1.3023 C   0  0  0  0  0  0  0  0  0  0  0  0
   -1.5767    1.2909   -1.4146 C   0  0  0  0  0  0  0  0  0  0  0  0
   -2.0671   -4.0702   -4.9927 O   0  0  0  0  0  0  0  0  0  0  0  0
   -3.0520   -5.0276   -5.4325 C   0  0  0  0  0  0  0  0  0  0  0  0
   -4.2798   -4.9703   -4.6780 O   0  0  0  0  0  0  0  0  0  0  0  0
   -3.2617    0.2922    1.8318 C   0  0  0  0  0  0  0  0  0  0  0  0
   -3.3989    1.2139    2.8771 C   0  0  0  0  0  0  0  0  0  0  0  0
   -4.0856    3.9830    5.5528 H   0  0  0  0  0  0  0  0  0  0  0  0
   -3.8957    2.2274    5.4718 H   0  0  0  0  0  0  0  0  0  0  0  0
   -2.7271    3.3227    4.6345 H   0  0  0  0  0  0  0  0  0  0  0  0
   -5.9654    3.0491    1.6297 H   0  0  0  0  0  0  0  0  0  0  0  0
   -5.7249    1.4377   -0.2178 H   0  0  0  0  0  0  0  0  0  0  0  0
   -5.8487   -3.8994   -2.7022 H   0  0  0  0  0  0  0  0  0  0  0  0
   -1.2501   -2.0393   -3.3711 H   0  0  0  0  0  0  0  0  0  0  0  0
   -0.4283   -1.7615   -0.4409 H   0  0  0  0  0  0  0  0  0  0  0  0
    1.6513   -0.5096   -0.2439 H   0  0  0  0  0  0  0  0  0  0  0  0
    3.2908    0.6705   -1.0552 H   0  0  0  0  0  0  0  0  0  0  0  0
    3.8940    2.3099   -1.0130 H   0  0  0  0  0  0  0  0  0  0  0  0
    2.6081    1.0290    1.4555 H   0  0  0  0  0  0  0  0  0  0  0  0
    3.3340    2.5902    1.3697 H   0  0  0  0  0  0  0  0  0  0  0  0
    3.9594   -0.9745    1.4699 H   0  0  0  0  0  0  0  0  0  0  0  0
    4.8766   -0.5867    0.0101 H   0  0  0  0  0  0  0  0  0  0  0  0
    6.1881   -2.0705    1.4536 H   0  0  0  0  0  0  0  0  0  0  0  0
    5.9766   -0.9971    2.8351 H   0  0  0  0  0  0  0  0  0  0  0  0
    8.2028   -0.6210    1.8954 H   0  0  0  0  0  0  0  0  0  0  0  0
    7.5391   -0.4101    0.2750 H   0  0  0  0  0  0  0  0  0  0  0  0
    8.0123    1.7973    1.2093 H   0  0  0  0  0  0  0  0  0  0  0  0
    7.1191    1.4251    2.6825 H   0  0  0  0  0  0  0  0  0  0  0  0
    5.7497    2.8220    1.2309 H   0  0  0  0  0  0  0  0  0  0  0  0
    5.9648    1.7208   -0.1356 H   0  0  0  0  0  0  0  0  0  0  0  0
   -0.3742    3.0708   -1.5398 H   0  0  0  0  0  0  0  0  0  0  0  0
   -2.4786    1.8031   -1.7410 H   0  0  0  0  0  0  0  0  0  0  0  0
   -3.2790   -4.8383   -6.4880 H   0  0  0  0  0  0  0  0  0  0  0  0
   -2.6290   -6.0344   -5.3384 H   0  0  0  0  0  0  0  0  0  0  0  0
   -2.4963   -0.4773    1.9048 H   0  0  0  0  0  0  0  0  0  0  0  0
   -2.7288    1.1235    3.7251 H   0  0  0  0  0  0  0  0  0  0  0  0
  1  2  1  0
  2  3  1  0
  3  4  2  0
  4  5  1  0
  5  6  2  0
  6  7  1  0
  7  8  1  0
  8  9  1  0
  9 10  2  0
 10 11  1  0
 11 12  2  0
 12 13  1  0
 13 14  2  0
 14 15  1  0
 15 16  1  0
 16 17  2  0
 17 18  1  0
 18 19  2  0
 19 20  1  0
 20 21  1  0
 21 22  1  0
 22 23  1  0
 23 24  1  0
 24 25  1  0
 25 26  1  0
 26 27  1  0
 27 28  1  0
 19 29  1  0
 29 30  2  0
 12 31  1  0
 31 32  1  0
 32 33  1  0
  6 34  1  0
 34 35  2  0
 35  3  1  0
 15  7  2  0
 30 16  1  0
 14  9  1  0
 28 23  1  0
 33 11  1  0
  1 36  1  0
  1 37  1  0
  1 38  1  0
  4 39  1  0
  5 40  1  0
 10 41  1  0
 13 42  1  0
 17 43  1  0
 18 44  1  0
 21 45  1  0
 21 46  1  0
 22 47  1  0
 22 48  1  0
 24 49  1  0
 24 50  1  0
 25 51  1  0
 25 52  1  0
 26 53  1  0
 26 54  1  0
 27 55  1  0
 27 56  1  0
 28 57  1  0
 28 58  1  0
 29 59  1  0
 30 60  1  0
 32 61  1  0
 32 62  1  0
 34 63  1  0
 35 64  1  0
M  END
$$$$
