
     RDKit          3D

 60 65  0  0  0  0  0  0  0  0999 V2000
    5.4399    3.1139   -2.7353 C   0  0  0  0  0  0  0  0  0  0  0  0
    5.2505    1.7209   -2.5225 O   0  0  0  0  0  0  0  0  0  0  0  0
    4.2805    1.3591   -1.6290 C   0  0  0  0  0  0  0  0  0  0  0  0
    3.4595    2.2268   -0.9136 C   0  0  0  0  0  0  0  0  0  0  0  0
    2.4985    1.7197   -0.0301 C   0  0  0  0  0  0  0  0  0  0  0  0
    2.3342    0.3380    0.1516 C   0  0  0  0  0  0  0  0  0  0  0  0
    3.1934   -0.5196   -0.5439 C   0  0  0  0  0  0  0  0  0  0  0  0
    4.1394   -0.0152   -1.4396 C   0  0  0  0  0  0  0  0  0  0  0  0
    3.1512   -1.8840   -0.4372 O   0  0  0  0  0  0  0  0  0  0  0  0
    2.5243   -2.3592    0.7521 C   0  0  0  0  0  0  0  0  0  0  0  0
    1.1646   -1.7298    0.9966 C   0  0  0  0  0  0  0  0  0  0  0  0
    1.2896   -0.2136    1.1020 C   0  0  0  0  0  0  0  0  0  0  0  0
   -0.0664    0.2677    0.8151 N   0  0  0  0  0  0  0  0  0  0  0  0
   -0.5276    1.4199    1.4138 C   0  0  0  0  0  0  0  0  0  0  0  0
    0.1323    1.9946    2.2817 O   0  0  0  0  0  0  0  0  0  0  0  0
   -1.8192    2.0334    1.0074 C   0  0  0  0  0  0  0  0  0  0  0  0
   -2.3813    2.9327    1.9418 C   0  0  0  0  0  0  0  0  0  0  0  0
   -3.5162    3.6964    1.6451 C   0  0  0  0  0  0  0  0  0  0  0  0
   -4.0635    4.6655    2.6501 C   0  0  0  0  0  0  0  0  0  0  0  0
   -4.0746    3.5925    0.3747 C   0  0  0  0  0  0  0  0  0  0  0  0
   -3.5303    2.7083   -0.5592 C   0  0  0  0  0  0  0  0  0  0  0  0
   -2.4212    1.8991   -0.2496 C   0  0  0  0  0  0  0  0  0  0  0  0
   -2.0315    1.0306   -1.2779 N   0  0  0  0  0  0  0  0  0  0  0  0
   -1.3207   -0.1325   -1.2483 C   0  0  0  0  0  0  0  0  0  0  0  0
   -1.1880   -0.7169   -2.3274 O   0  0  0  0  0  0  0  0  0  0  0  0
   -0.8736   -0.7402    0.0935 C   0  0  0  0  0  0  0  0  0  0  0  0
   -2.0865   -1.2058    0.9216 C   0  0  0  0  0  0  0  0  0  0  0  0
    0.1480   -1.9132   -0.1569 C   0  0  0  0  0  0  0  0  0  0  0  0
   -0.4156   -3.3211   -0.3022 C   0  0  0  0  0  0  0  0  0  0  0  0
   -0.7037   -3.8042   -1.5897 C   0  0  0  0  0  0  0  0  0  0  0  0
   -1.2255   -5.0850   -1.7819 C   0  0  0  0  0  0  0  0  0  0  0  0
   -1.4697   -5.9091   -0.6885 C   0  0  0  0  0  0  0  0  0  0  0  0
   -1.1921   -5.4507    0.5955 C   0  0  0  0  0  0  0  0  0  0  0  0
   -0.6698   -4.1682    0.7880 C   0  0  0  0  0  0  0  0  0  0  0  0
    5.7513    3.6151   -1.8129 H   0  0  0  0  0  0  0  0  0  0  0  0
    4.5389    3.5755   -3.1523 H   0  0  0  0  0  0  0  0  0  0  0  0
    6.2446    3.2338   -3.4670 H   0  0  0  0  0  0  0  0  0  0  0  0
    3.5364    3.3043   -1.0149 H   0  0  0  0  0  0  0  0  0  0  0  0
    1.8816    2.4262    0.5204 H   0  0  0  0  0  0  0  0  0  0  0  0
    4.7789   -0.7023   -1.9877 H   0  0  0  0  0  0  0  0  0  0  0  0
    2.4271   -3.4456    0.6537 H   0  0  0  0  0  0  0  0  0  0  0  0
    3.1969   -2.1793    1.6010 H   0  0  0  0  0  0  0  0  0  0  0  0
    0.7526   -2.1060    1.9403 H   0  0  0  0  0  0  0  0  0  0  0  0
    1.5879    0.0625    2.1212 H   0  0  0  0  0  0  0  0  0  0  0  0
   -1.9079    3.0562    2.9168 H   0  0  0  0  0  0  0  0  0  0  0  0
   -3.5114    5.6091    2.6001 H   0  0  0  0  0  0  0  0  0  0  0  0
   -3.9836    4.2587    3.6635 H   0  0  0  0  0  0  0  0  0  0  0  0
   -5.1235    4.8682    2.4643 H   0  0  0  0  0  0  0  0  0  0  0  0
   -4.9383    4.1945    0.0998 H   0  0  0  0  0  0  0  0  0  0  0  0
   -4.0080    2.6427   -1.5354 H   0  0  0  0  0  0  0  0  0  0  0  0
   -2.4095    1.1991   -2.2038 H   0  0  0  0  0  0  0  0  0  0  0  0
   -2.6738   -1.9548    0.3792 H   0  0  0  0  0  0  0  0  0  0  0  0
   -2.7880   -0.4029    1.1579 H   0  0  0  0  0  0  0  0  0  0  0  0
   -1.7724   -1.6302    1.8814 H   0  0  0  0  0  0  0  0  0  0  0  0
    0.6868   -1.7074   -1.0930 H   0  0  0  0  0  0  0  0  0  0  0  0
   -0.5189   -3.1824   -2.4653 H   0  0  0  0  0  0  0  0  0  0  0  0
   -1.4383   -5.4356   -2.7884 H   0  0  0  0  0  0  0  0  0  0  0  0
   -1.8750   -6.9061   -0.8377 H   0  0  0  0  0  0  0  0  0  0  0  0
   -1.3834   -6.0925    1.4520 H   0  0  0  0  0  0  0  0  0  0  0  0
   -0.4802   -3.8513    1.8092 H   0  0  0  0  0  0  0  0  0  0  0  0
  1  2  1  0
  2  3  1  0
  3  4  2  0
  4  5  1  0
  5  6  2  0
  6  7  1  0
  7  8  2  0
  7  9  1  0
  9 10  1  0
 10 11  1  0
 11 12  1  0
 12 13  1  0
 13 14  1  0
 14 15  2  0
 14 16  1  0
 16 17  2  0
 17 18  1  0
 18 19  1  0
 18 20  2  0
 20 21  1  0
 21 22  2  0
 22 23  1  0
 23 24  1  0
 24 25  2  0
 24 26  1  0
 26 27  1  0
 26 28  1  0
 28 29  1  0
 29 30  2  0
 30 31  1  0
 31 32  2  0
 32 33  1  0
 33 34  2  0
  8  3  1  0
 28 11  1  0
 34 29  1  0
 12  6  1  0
 26 13  1  0
 22 16  1  0
  1 35  1  0
  1 36  1  0
  1 37  1  0
  4 38  1  0
  5 39  1  0
  8 40  1  0
 10 41  1  0
 10 42  1  0
 11 43  1  0
 12 44  1  0
 17 45  1  0
 19 46  1  0
 19 47  1  0
 19 48  1  0
 20 49  1  0
 21 50  1  0
 23 51  1  0
 27 52  1  0
 27 53  1  0
 27 54  1  0
 28 55  1  0
 30 56  1  0
 31 57  1  0
 32 58  1  0
 33 59  1  0
 34 60  1  0
M  END
$$$$
