
     RDKit          3D

 57 62  0  0  0  0  0  0  0  0999 V2000
    6.9336    3.7208   -0.8155 C   0  0  0  0  0  0  0  0  0  0  0  0
    6.8654    2.3046   -0.9375 O   0  0  0  0  0  0  0  0  0  0  0  0
    5.6906    1.7028   -0.5857 C   0  0  0  0  0  0  0  0  0  0  0  0
    4.5496    2.3407   -0.1035 C   0  0  0  0  0  0  0  0  0  0  0  0
    3.4073    1.5940    0.2175 C   0  0  0  0  0  0  0  0  0  0  0  0
    3.3997    0.2012    0.0586 C   0  0  0  0  0  0  0  0  0  0  0  0
    2.1085   -0.6226    0.4060 C   0  0  0  0  0  0  0  0  0  0  0  0
    0.8810   -0.1045    0.8022 C   0  0  0  0  0  0  0  0  0  0  0  0
   -0.0215   -1.1551    0.9672 N   0  0  0  0  0  4  0  0  0  0  0  0
   -1.4550   -1.0427    1.2864 C   0  0  0  0  0  0  0  0  0  0  0  0
   -2.2903   -1.2099    0.0010 C   0  0  0  0  0  0  0  0  0  0  0  0
   -2.0635   -2.1706   -0.7374 O   0  0  0  0  0  0  0  0  0  0  0  0
   -3.1689   -0.1456   -0.2542 N   0  0  0  0  0  0  0  0  0  0  0  0
   -4.0763    0.2983    0.7754 C   0  0  0  0  0  0  0  0  0  0  0  0
   -4.4914   -0.6183    1.7672 C   0  0  0  0  0  0  0  0  0  0  0  0
   -5.3675   -0.2442    2.7900 C   0  0  0  0  0  0  0  0  0  0  0  0
   -5.8560    1.0527    2.8411 C   0  0  0  0  0  0  0  0  0  0  0  0
   -5.4819    1.9644    1.8588 C   0  0  0  0  0  0  0  0  0  0  0  0
   -4.6128    1.5919    0.8203 C   0  0  0  0  0  0  0  0  0  0  0  0
   -4.2063    2.8288   -0.3731 S   0  0  0  0  0  0  0  0  0  0  0  0
   -3.7322    1.7861   -1.7313 C   0  0  0  0  0  0  0  0  0  0  0  0
   -3.7795    2.3767   -3.0075 C   0  0  0  0  0  0  0  0  0  0  0  0
   -3.3344    1.6872   -4.1291 C   0  0  0  0  0  0  0  0  0  0  0  0
   -2.8285    0.4052   -3.9791 C   0  0  0  0  0  0  0  0  0  0  0  0
   -2.7762   -0.1858   -2.7106 C   0  0  0  0  0  0  0  0  0  0  0  0
   -3.2412    0.4779   -1.5565 C   0  0  0  0  0  0  0  0  0  0  0  0
    0.6209   -2.2827    0.6781 C   0  0  0  0  0  0  0  0  0  0  0  0
    1.8855   -1.9875    0.3880 N   0  0  0  0  0  0  0  0  0  0  0  0
    2.6671   -3.1827    0.1041 C   0  0  0  0  0  0  0  0  0  0  0  0
    1.7570   -4.3347    0.6129 C   0  0  0  0  0  0  0  0  0  0  0  0
    0.3366   -3.7359    0.6272 C   0  0  0  0  0  0  0  0  0  0  0  0
    4.5410   -0.4355   -0.4264 C   0  0  0  0  0  0  0  0  0  0  0  0
    5.6777    0.3152   -0.7443 C   0  0  0  0  0  0  0  0  0  0  0  0
    7.9317    4.0353   -1.1346 H   0  0  0  0  0  0  0  0  0  0  0  0
    6.2042    4.2075   -1.4714 H   0  0  0  0  0  0  0  0  0  0  0  0
    6.7997    4.0325    0.2246 H   0  0  0  0  0  0  0  0  0  0  0  0
    4.5164    3.4175    0.0337 H   0  0  0  0  0  0  0  0  0  0  0  0
    2.5429    2.1340    0.5931 H   0  0  0  0  0  0  0  0  0  0  0  0
    0.5223    0.8977    0.9662 H   0  0  0  0  0  0  0  0  0  0  0  0
   -1.7176   -1.8343    1.9948 H   0  0  0  0  0  0  0  0  0  0  0  0
   -1.6147   -0.0700    1.7611 H   0  0  0  0  0  0  0  0  0  0  0  0
   -4.1994   -1.6656    1.7322 H   0  0  0  0  0  0  0  0  0  0  0  0
   -5.6947   -0.9714    3.5294 H   0  0  0  0  0  0  0  0  0  0  0  0
   -6.5475    1.3493    3.6278 H   0  0  0  0  0  0  0  0  0  0  0  0
   -5.8920    2.9729    1.8998 H   0  0  0  0  0  0  0  0  0  0  0  0
   -4.1581    3.3906   -3.1337 H   0  0  0  0  0  0  0  0  0  0  0  0
   -3.3817    2.1504   -5.1121 H   0  0  0  0  0  0  0  0  0  0  0  0
   -2.4832   -0.1482   -4.8510 H   0  0  0  0  0  0  0  0  0  0  0  0
   -2.4003   -1.2038   -2.6817 H   0  0  0  0  0  0  0  0  0  0  0  0
    3.6179   -3.1668    0.6418 H   0  0  0  0  0  0  0  0  0  0  0  0
    2.8264   -3.2544   -0.9753 H   0  0  0  0  0  0  0  0  0  0  0  0
    2.0481   -4.5867    1.6407 H   0  0  0  0  0  0  0  0  0  0  0  0
    1.8351   -5.2418    0.0068 H   0  0  0  0  0  0  0  0  0  0  0  0
   -0.1964   -3.9247   -0.3062 H   0  0  0  0  0  0  0  0  0  0  0  0
   -0.2482   -4.0197    1.5023 H   0  0  0  0  0  0  0  0  0  0  0  0
    4.5849   -1.5048   -0.5887 H   0  0  0  0  0  0  0  0  0  0  0  0
    6.5658   -0.1860   -1.1284 H   0  0  0  0  0  0  0  0  0  0  0  0
  1  2  1  0
  2  3  1  0
  3  4  2  0
  4  5  1  0
  5  6  2  0
  6  7  1  0
  7  8  2  0
  8  9  1  0
  9 10  1  0
 10 11  1  0
 11 12  2  0
 11 13  1  0
 13 14  1  0
 14 15  2  0
 15 16  1  0
 16 17  2  0
 17 18  1  0
 18 19  2  0
 19 20  1  0
 20 21  1  0
 21 22  2  0
 22 23  1  0
 23 24  2  0
 24 25  1  0
 25 26  2  0
  9 27  2  0
 27 28  1  0
 28 29  1  0
 29 30  1  0
 30 31  1  0
  6 32  1  0
 32 33  2  0
 33  3  1  0
 28  7  1  0
 26 13  1  0
 31 27  1  0
 19 14  1  0
 26 21  1  0
  1 34  1  0
  1 35  1  0
  1 36  1  0
  4 37  1  0
  5 38  1  0
  8 39  1  0
 10 40  1  0
 10 41  1  0
 15 42  1  0
 16 43  1  0
 17 44  1  0
 18 45  1  0
 22 46  1  0
 23 47  1  0
 24 48  1  0
 25 49  1  0
 29 50  1  0
 29 51  1  0
 30 52  1  0
 30 53  1  0
 31 54  1  0
 31 55  1  0
 32 56  1  0
 33 57  1  0
M  CHG  1   9   1
M  END
$$$$
