
     RDKit          3D

 44 46  0  0  0  0  0  0  0  0999 V2000
   -2.7745    2.6588   -3.0905 C   0  0  0  0  0  0  0  0  0  0  0  0
   -2.3374    2.4824   -1.7507 O   0  0  0  0  0  0  0  0  0  0  0  0
   -2.2998    1.2034   -1.2579 C   0  0  0  0  0  0  0  0  0  0  0  0
   -2.4522    0.0524   -2.0350 C   0  0  0  0  0  0  0  0  0  0  0  0
   -2.3727   -1.2134   -1.4462 C   0  0  0  0  0  0  0  0  0  0  0  0
   -2.1425   -1.3474   -0.0733 C   0  0  0  0  0  0  0  0  0  0  0  0
   -2.0666   -2.6996    0.4976 C   0  0  0  0  0  0  0  0  0  0  0  0
   -1.1504   -3.1984    1.3543 C   0  0  0  0  0  0  0  0  0  0  0  0
   -1.3034   -4.5338    1.8320 C   0  0  0  0  0  0  0  0  0  0  0  0
   -1.4610   -5.6357    2.1609 N   0  0  0  0  0  0  0  0  0  0  0  0
    0.0130   -2.4384    1.9104 C   0  0  0  0  0  0  0  0  0  0  0  0
    0.2285   -2.4849    3.1160 O   0  0  0  0  0  0  0  0  0  0  0  0
    0.7454   -1.7420    0.9676 N   0  0  0  0  0  0  0  0  0  0  0  0
    1.8850   -0.9210    1.1881 C   0  0  0  0  0  0  0  0  0  0  0  0
    2.5784   -0.9535    2.4025 C   0  0  0  0  0  0  0  0  0  0  0  0
    3.7066   -0.1641    2.5946 C   0  0  0  0  0  0  0  0  0  0  0  0
    4.1519    0.6667    1.5719 C   0  0  0  0  0  0  0  0  0  0  0  0
    3.4960    0.7392    0.3557 C   0  0  0  0  0  0  0  0  0  0  0  0
    3.9982    1.5825   -0.5627 N   0  0  0  0  0  0  0  0  0  0  0  0
    3.3638    1.6951   -1.7457 C   0  0  0  0  0  0  0  0  0  0  0  0
    2.2277    0.9882   -2.0683 C   0  0  0  0  0  0  0  0  0  0  0  0
    1.7173    0.1081   -1.1191 C   0  0  0  0  0  0  0  0  0  0  0  0
    2.3428   -0.0553    0.1418 C   0  0  0  0  0  0  0  0  0  0  0  0
   -2.0221   -0.1948    0.7123 C   0  0  0  0  0  0  0  0  0  0  0  0
   -2.0645    1.0755    0.1234 C   0  0  0  0  0  0  0  0  0  0  0  0
   -1.9304    2.2410    0.8370 O   0  0  0  0  0  0  0  0  0  0  0  0
   -1.1188    2.1695    2.0045 C   0  0  0  0  0  0  0  0  0  0  0  0
   -2.0501    2.2410   -3.7968 H   0  0  0  0  0  0  0  0  0  0  0  0
   -3.7701    2.2296   -3.2450 H   0  0  0  0  0  0  0  0  0  0  0  0
   -2.8423    3.7340   -3.2817 H   0  0  0  0  0  0  0  0  0  0  0  0
   -2.6282    0.1061   -3.1044 H   0  0  0  0  0  0  0  0  0  0  0  0
   -2.4934   -2.0918   -2.0785 H   0  0  0  0  0  0  0  0  0  0  0  0
   -2.8767   -3.3525    0.1653 H   0  0  0  0  0  0  0  0  0  0  0  0
    0.3988   -1.7670    0.0202 H   0  0  0  0  0  0  0  0  0  0  0  0
    2.2827   -1.6036    3.2202 H   0  0  0  0  0  0  0  0  0  0  0  0
    4.2432   -0.2008    3.5393 H   0  0  0  0  0  0  0  0  0  0  0  0
    5.0365    1.2801    1.7300 H   0  0  0  0  0  0  0  0  0  0  0  0
    3.8085    2.3970   -2.4453 H   0  0  0  0  0  0  0  0  0  0  0  0
    1.7438    1.1223   -3.0288 H   0  0  0  0  0  0  0  0  0  0  0  0
    0.8112   -0.4256   -1.3817 H   0  0  0  0  0  0  0  0  0  0  0  0
   -1.9036   -0.2902    1.7880 H   0  0  0  0  0  0  0  0  0  0  0  0
   -0.8709    3.1929    2.3019 H   0  0  0  0  0  0  0  0  0  0  0  0
   -0.1785    1.6408    1.8142 H   0  0  0  0  0  0  0  0  0  0  0  0
   -1.6692    1.7075    2.8299 H   0  0  0  0  0  0  0  0  0  0  0  0
  1  2  1  0
  2  3  1  0
  3  4  2  0
  4  5  1  0
  5  6  2  0
  6  7  1  0
  7  8  2  3
  8  9  1  0
  9 10  3  0
  8 11  1  0
 11 12  2  0
 11 13  1  0
 13 14  1  0
 14 15  2  0
 15 16  1  0
 16 17  2  0
 17 18  1  0
 18 19  2  0
 19 20  1  0
 20 21  2  0
 21 22  1  0
 22 23  2  0
  6 24  1  0
 24 25  2  0
 25 26  1  0
 26 27  1  0
 25  3  1  0
 23 14  1  0
 23 18  1  0
  1 28  1  0
  1 29  1  0
  1 30  1  0
  4 31  1  0
  5 32  1  0
  7 33  1  0
 13 34  1  0
 15 35  1  0
 16 36  1  0
 17 37  1  0
 20 38  1  0
 21 39  1  0
 22 40  1  0
 24 41  1  0
 27 42  1  0
 27 43  1  0
 27 44  1  0
M  END
$$$$
