
     RDKit          3D

 53 58  0  0  0  0  0  0  0  0999 V2000
    1.2753    0.6674    1.7907 O   0  0  0  0  0  0  0  0  0  0  0  0
    1.6000   -0.1407    0.9156 C   0  0  0  0  0  0  0  0  0  0  0  0
    0.6486   -1.3260    0.6407 C   0  0  0  0  0  0  0  0  0  0  0  0
   -0.7581   -0.8820    0.6905 N   0  0  0  0  0  4  0  0  0  0  0  0
   -1.5937   -0.6336   -0.3977 C   0  0  0  0  0  0  0  0  0  0  0  0
   -2.8186   -0.1708    0.0692 C   0  0  0  0  0  0  0  0  0  0  0  0
   -4.0505    0.2577   -0.8099 C   0  0  0  0  0  0  0  0  0  0  0  0
   -3.9912    0.1254   -2.2055 C   0  0  0  0  0  0  0  0  0  0  0  0
   -5.0818    0.5044   -2.9935 C   0  0  0  0  0  0  0  0  0  0  0  0
   -6.2224    1.0151   -2.3889 C   0  0  0  0  0  0  0  0  0  0  0  0
   -7.2654    1.3780   -3.1444 F   0  0  0  0  0  0  0  0  0  0  0  0
   -6.2924    1.1563   -1.0092 C   0  0  0  0  0  0  0  0  0  0  0  0
   -5.2045    0.7783   -0.2161 C   0  0  0  0  0  0  0  0  0  0  0  0
   -2.6601   -0.1850    1.4433 N   0  0  0  0  0  0  0  0  0  0  0  0
   -1.4309   -0.5591    1.7914 C   0  0  0  0  0  0  0  0  0  0  0  0
   -1.2115   -0.5473    3.2573 C   0  0  0  0  0  0  0  0  0  0  0  0
   -2.6522   -0.4352    3.7934 C   0  0  0  0  0  0  0  0  0  0  0  0
   -3.4753    0.1360    2.6067 C   0  0  0  0  0  0  0  0  0  0  0  0
    2.6961   -0.0220    0.0432 N   0  0  0  0  0  0  0  0  0  0  0  0
    3.3503   -1.1779   -0.5146 C   0  0  0  0  0  0  0  0  0  0  0  0
    3.4763   -2.3453    0.2660 C   0  0  0  0  0  0  0  0  0  0  0  0
    4.0916   -3.4934   -0.2391 C   0  0  0  0  0  0  0  0  0  0  0  0
    4.6066   -3.4927   -1.5289 C   0  0  0  0  0  0  0  0  0  0  0  0
    4.5267   -2.3374   -2.3028 C   0  0  0  0  0  0  0  0  0  0  0  0
    3.9194   -1.1789   -1.7972 C   0  0  0  0  0  0  0  0  0  0  0  0
    3.8584    0.2501   -2.8401 S   0  0  0  0  0  0  0  0  0  0  0  0
    3.8274    1.4987   -1.5732 C   0  0  0  0  0  0  0  0  0  0  0  0
    4.3404    2.7614   -1.9113 C   0  0  0  0  0  0  0  0  0  0  0  0
    4.2910    3.8120   -1.0014 C   0  0  0  0  0  0  0  0  0  0  0  0
    3.7232    3.6060    0.2477 C   0  0  0  0  0  0  0  0  0  0  0  0
    3.2045    2.3509    0.5867 C   0  0  0  0  0  0  0  0  0  0  0  0
    3.2455    1.2679   -0.3099 C   0  0  0  0  0  0  0  0  0  0  0  0
    0.8114   -1.7674   -0.3462 H   0  0  0  0  0  0  0  0  0  0  0  0
    0.7886   -2.0897    1.4115 H   0  0  0  0  0  0  0  0  0  0  0  0
   -1.1989   -0.8062   -1.3847 H   0  0  0  0  0  0  0  0  0  0  0  0
   -3.1166   -0.2710   -2.7129 H   0  0  0  0  0  0  0  0  0  0  0  0
   -5.0510    0.4059   -4.0753 H   0  0  0  0  0  0  0  0  0  0  0  0
   -7.1946    1.5642   -0.5617 H   0  0  0  0  0  0  0  0  0  0  0  0
   -5.2912    0.9173    0.8536 H   0  0  0  0  0  0  0  0  0  0  0  0
   -0.7061   -1.4676    3.5516 H   0  0  0  0  0  0  0  0  0  0  0  0
   -0.6210    0.3406    3.4878 H   0  0  0  0  0  0  0  0  0  0  0  0
   -3.0239   -1.4385    4.0333 H   0  0  0  0  0  0  0  0  0  0  0  0
   -2.7266    0.1769    4.6962 H   0  0  0  0  0  0  0  0  0  0  0  0
   -4.4551   -0.3423    2.5442 H   0  0  0  0  0  0  0  0  0  0  0  0
   -3.5728    1.2231    2.6797 H   0  0  0  0  0  0  0  0  0  0  0  0
    3.1596   -2.3679    1.3061 H   0  0  0  0  0  0  0  0  0  0  0  0
    4.1942   -4.3811    0.3823 H   0  0  0  0  0  0  0  0  0  0  0  0
    5.0950   -4.3806   -1.9258 H   0  0  0  0  0  0  0  0  0  0  0  0
    4.9563   -2.3437   -3.3038 H   0  0  0  0  0  0  0  0  0  0  0  0
    4.7798    2.9363   -2.8920 H   0  0  0  0  0  0  0  0  0  0  0  0
    4.6954    4.7860   -1.2671 H   0  0  0  0  0  0  0  0  0  0  0  0
    3.6901    4.4194    0.9697 H   0  0  0  0  0  0  0  0  0  0  0  0
    2.8147    2.2478    1.5948 H   0  0  0  0  0  0  0  0  0  0  0  0
  1  2  2  0
  2  3  1  0
  3  4  1  0
  4  5  1  0
  5  6  2  0
  6  7  1  0
  7  8  2  0
  8  9  1  0
  9 10  2  0
 10 11  1  0
 10 12  1  0
 12 13  2  0
  6 14  1  0
 14 15  1  0
 15 16  1  0
 16 17  1  0
 17 18  1  0
  2 19  1  0
 19 20  1  0
 20 21  2  0
 21 22  1  0
 22 23  2  0
 23 24  1  0
 24 25  2  0
 25 26  1  0
 26 27  1  0
 27 28  2  0
 28 29  1  0
 29 30  2  0
 30 31  1  0
 31 32  2  0
 15  4  2  0
 32 19  1  0
 13  7  1  0
 18 14  1  0
 25 20  1  0
 32 27  1  0
  3 33  1  0
  3 34  1  0
  5 35  1  0
  8 36  1  0
  9 37  1  0
 12 38  1  0
 13 39  1  0
 16 40  1  0
 16 41  1  0
 17 42  1  0
 17 43  1  0
 18 44  1  0
 18 45  1  0
 21 46  1  0
 22 47  1  0
 23 48  1  0
 24 49  1  0
 28 50  1  0
 29 51  1  0
 30 52  1  0
 31 53  1  0
M  CHG  1   4   1
M  END
$$$$
