
     RDKit          3D

 47 48  0  0  0  0  0  0  0  0999 V2000
    0.0044    3.0977    3.0470 C   0  0  0  0  0  0  0  0  0  0  0  0
    1.3506    3.2016    2.3575 C   0  0  0  0  0  0  0  0  0  0  0  0
    1.6478    1.9280    1.7731 O   0  0  0  0  0  0  0  0  0  0  0  0
    2.7863    1.9014    1.0335 C   0  0  0  0  0  0  0  0  0  0  0  0
    3.5623    2.8295    0.8692 O   0  0  0  0  0  0  0  0  0  0  0  0
    2.9892    0.5497    0.4827 C   0  0  0  0  0  0  0  0  0  0  0  0
    4.2049   -0.0939    0.8365 C   0  0  0  0  0  0  0  0  0  0  0  0
    5.1803   -0.6554    1.1208 N   0  0  0  0  0  0  0  0  0  0  0  0
    2.0872   -0.0770   -0.2967 C   0  0  0  0  0  0  0  0  0  0  0  0
    0.8214    0.4242   -0.8323 C   0  0  0  0  0  0  0  0  0  0  0  0
   -0.2921   -0.3551   -0.8793 C   0  0  0  0  0  0  0  0  0  0  0  0
   -0.3320   -1.6196   -0.2526 N   0  0  0  0  0  0  0  0  0  0  0  0
   -0.1748   -1.7449    1.2196 C   0  0  0  0  0  0  0  0  0  0  0  0
   -1.0906   -2.8461    1.7744 C   0  0  0  0  0  0  0  0  0  0  0  0
   -0.8327   -4.1427    1.2138 O   0  0  0  0  0  0  0  0  0  0  0  0
   -0.3343   -4.0873   -0.1318 C   0  0  0  0  0  0  0  0  0  0  0  0
   -0.8134   -2.8507   -0.9084 C   0  0  0  0  0  0  0  0  0  0  0  0
   -1.5941    0.1892   -1.5500 C   0  0  0  0  0  0  0  0  0  0  0  0
   -2.7827    0.1097   -0.5783 C   0  0  0  0  0  0  0  0  0  0  0  0
   -1.9478   -0.5397   -2.8573 C   0  0  0  0  0  0  0  0  0  0  0  0
   -1.5017    1.6011   -1.8601 O   0  0  0  0  0  0  0  0  0  0  0  0
   -0.2727    1.9660   -2.4730 C   0  0  0  0  0  0  0  0  0  0  0  0
    0.8451    1.7983   -1.4609 C   0  0  0  0  0  0  0  0  0  0  0  0
    0.0256    2.3212    3.8188 H   0  0  0  0  0  0  0  0  0  0  0  0
   -0.7738    2.8129    2.3309 H   0  0  0  0  0  0  0  0  0  0  0  0
   -0.2719    4.0489    3.5102 H   0  0  0  0  0  0  0  0  0  0  0  0
    2.1257    3.4586    3.0876 H   0  0  0  0  0  0  0  0  0  0  0  0
    1.3078    3.9706    1.5779 H   0  0  0  0  0  0  0  0  0  0  0  0
    2.2946   -1.1089   -0.5904 H   0  0  0  0  0  0  0  0  0  0  0  0
    0.8683   -1.9991    1.4392 H   0  0  0  0  0  0  0  0  0  0  0  0
   -0.4113   -0.7955    1.7140 H   0  0  0  0  0  0  0  0  0  0  0  0
   -0.9677   -2.9277    2.8591 H   0  0  0  0  0  0  0  0  0  0  0  0
   -2.1422   -2.6030    1.5822 H   0  0  0  0  0  0  0  0  0  0  0  0
    0.7607   -4.1092   -0.0832 H   0  0  0  0  0  0  0  0  0  0  0  0
   -0.6589   -5.0013   -0.6393 H   0  0  0  0  0  0  0  0  0  0  0  0
   -0.4317   -2.9006   -1.9337 H   0  0  0  0  0  0  0  0  0  0  0  0
   -1.9077   -2.8504   -0.9340 H   0  0  0  0  0  0  0  0  0  0  0  0
   -2.5636    0.6534    0.3487 H   0  0  0  0  0  0  0  0  0  0  0  0
   -3.6706    0.5860   -1.0114 H   0  0  0  0  0  0  0  0  0  0  0  0
   -3.0480   -0.9185   -0.3168 H   0  0  0  0  0  0  0  0  0  0  0  0
   -2.6678    0.0435   -3.4437 H   0  0  0  0  0  0  0  0  0  0  0  0
   -1.0651   -0.6782   -3.4912 H   0  0  0  0  0  0  0  0  0  0  0  0
   -2.3887   -1.5245   -2.6838 H   0  0  0  0  0  0  0  0  0  0  0  0
   -0.3457    3.0165   -2.7730 H   0  0  0  0  0  0  0  0  0  0  0  0
   -0.0970    1.3820   -3.3830 H   0  0  0  0  0  0  0  0  0  0  0  0
    0.7162    2.5485   -0.6729 H   0  0  0  0  0  0  0  0  0  0  0  0
    1.8022    1.9911   -1.9593 H   0  0  0  0  0  0  0  0  0  0  0  0
  1  2  1  0
  2  3  1  0
  3  4  1  0
  4  5  2  0
  4  6  1  0
  6  7  1  0
  7  8  3  0
  6  9  2  3
  9 10  1  0
 10 11  2  0
 11 12  1  0
 12 13  1  0
 13 14  1  0
 14 15  1  0
 15 16  1  0
 16 17  1  0
 11 18  1  0
 18 19  1  0
 18 20  1  0
 18 21  1  0
 21 22  1  0
 22 23  1  0
 23 10  1  0
 17 12  1  0
  1 24  1  0
  1 25  1  0
  1 26  1  0
  2 27  1  0
  2 28  1  0
  9 29  1  0
 13 30  1  0
 13 31  1  0
 14 32  1  0
 14 33  1  0
 16 34  1  0
 16 35  1  0
 17 36  1  0
 17 37  1  0
 19 38  1  0
 19 39  1  0
 19 40  1  0
 20 41  1  0
 20 42  1  0
 20 43  1  0
 22 44  1  0
 22 45  1  0
 23 46  1  0
 23 47  1  0
M  END
$$$$
