
     RDKit          3D

 59 62  0  0  0  0  0  0  0  0999 V2000
    5.2140    0.4259    4.5433 C   0  0  0  0  0  0  0  0  0  0  0  0
    3.9628   -0.3739    4.2245 C   0  0  0  0  0  0  0  0  0  0  0  0
    4.1335   -1.1205    3.0212 O   0  0  0  0  0  0  0  0  0  0  0  0
    3.7514   -0.5621    1.8346 C   0  0  0  0  0  0  0  0  0  0  0  0
    3.3817    0.7674    1.6314 C   0  0  0  0  0  0  0  0  0  0  0  0
    3.0191    1.2221    0.3553 C   0  0  0  0  0  0  0  0  0  0  0  0
    3.0176    0.3454   -0.7275 C   0  0  0  0  0  0  0  0  0  0  0  0
    2.6768    0.6719   -2.0169 O   0  0  0  0  0  0  0  0  0  0  0  0
    2.1004    1.9609   -2.2314 C   0  0  0  0  0  0  0  0  0  0  0  0
    1.6552    2.0380   -3.6806 C   0  0  0  0  0  0  0  0  0  0  0  0
    3.3991   -0.9912   -0.5208 C   0  0  0  0  0  0  0  0  0  0  0  0
    3.3547   -1.8974   -1.6303 N   0  0  0  0  0  0  0  0  0  0  0  0
    2.1648   -3.1000   -1.6236 S   0  0  0  0  0  6  0  0  0  0  0  0
    2.4104   -4.0059   -0.5213 O   0  0  0  0  0  0  0  0  0  0  0  0
    2.0645   -3.5886   -2.9831 O   0  0  0  0  0  0  0  0  0  0  0  0
    0.6669   -2.2031   -1.2702 C   0  0  0  0  0  0  0  0  0  0  0  0
    0.0569   -1.4585   -2.2945 C   0  0  0  0  0  0  0  0  0  0  0  0
   -1.1041   -0.7234   -2.0318 C   0  0  0  0  0  0  0  0  0  0  0  0
   -1.6432   -0.7647   -0.7552 C   0  0  0  0  0  0  0  0  0  0  0  0
   -1.0462   -1.5331    0.2480 C   0  0  0  0  0  0  0  0  0  0  0  0
    0.1116   -2.2598    0.0121 C   0  0  0  0  0  0  0  0  0  0  0  0
   -1.7929   -1.4261    1.5371 C   0  0  0  0  0  0  0  0  0  0  0  0
   -3.0007   -0.5706    1.1350 C   0  0  0  0  0  0  0  0  0  0  0  0
   -2.7924   -0.1244   -0.2529 N   0  0  0  0  0  0  0  0  0  0  0  0
   -3.6201    0.7447   -0.9586 C   0  0  0  0  0  0  0  0  0  0  0  0
   -3.3761    1.1163   -2.1128 O   0  0  0  0  0  0  0  0  0  0  0  0
   -4.8811    1.2451   -0.1946 C   0  0  0  0  0  0  0  0  0  0  0  0
   -5.7813    2.3012   -0.9002 C   0  0  0  0  0  0  0  0  0  0  0  0
   -6.9944    1.6000   -0.2645 C   0  0  0  0  0  0  0  0  0  0  0  0
   -6.1343    0.3251   -0.2037 C   0  0  0  0  0  0  0  0  0  0  0  0
    3.7656   -1.4387    0.7481 C   0  0  0  0  0  0  0  0  0  0  0  0
    6.0805   -0.2387    4.6297 H   0  0  0  0  0  0  0  0  0  0  0  0
    5.0953    0.9701    5.4844 H   0  0  0  0  0  0  0  0  0  0  0  0
    5.4456    1.1435    3.7502 H   0  0  0  0  0  0  0  0  0  0  0  0
    3.8071   -1.1061    5.0250 H   0  0  0  0  0  0  0  0  0  0  0  0
    3.0612    0.2486    4.2095 H   0  0  0  0  0  0  0  0  0  0  0  0
    3.3798    1.4890    2.4418 H   0  0  0  0  0  0  0  0  0  0  0  0
    2.7502    2.2681    0.2445 H   0  0  0  0  0  0  0  0  0  0  0  0
    1.2284    2.1080   -1.5826 H   0  0  0  0  0  0  0  0  0  0  0  0
    2.8480    2.7405   -2.0430 H   0  0  0  0  0  0  0  0  0  0  0  0
    2.4995    1.8543   -4.3524 H   0  0  0  0  0  0  0  0  0  0  0  0
    0.9061    1.2685   -3.8957 H   0  0  0  0  0  0  0  0  0  0  0  0
    1.2282    3.0189   -3.9058 H   0  0  0  0  0  0  0  0  0  0  0  0
    3.3738   -1.4266   -2.5375 H   0  0  0  0  0  0  0  0  0  0  0  0
    0.4876   -1.4375   -3.2936 H   0  0  0  0  0  0  0  0  0  0  0  0
   -1.5601   -0.1460   -2.8296 H   0  0  0  0  0  0  0  0  0  0  0  0
    0.5749   -2.8430    0.8034 H   0  0  0  0  0  0  0  0  0  0  0  0
   -2.1062   -2.4050    1.9123 H   0  0  0  0  0  0  0  0  0  0  0  0
   -1.1865   -0.9177    2.2936 H   0  0  0  0  0  0  0  0  0  0  0  0
   -3.1084    0.2958    1.7953 H   0  0  0  0  0  0  0  0  0  0  0  0
   -3.9274   -1.1535    1.1766 H   0  0  0  0  0  0  0  0  0  0  0  0
   -4.6320    1.5932    0.8172 H   0  0  0  0  0  0  0  0  0  0  0  0
   -5.6248    3.3371   -0.5908 H   0  0  0  0  0  0  0  0  0  0  0  0
   -5.7759    2.2533   -1.9949 H   0  0  0  0  0  0  0  0  0  0  0  0
   -7.2673    1.9960    0.7206 H   0  0  0  0  0  0  0  0  0  0  0  0
   -7.8907    1.5413   -0.8857 H   0  0  0  0  0  0  0  0  0  0  0  0
   -6.2190   -0.3114   -1.0929 H   0  0  0  0  0  0  0  0  0  0  0  0
   -6.2790   -0.2911    0.6880 H   0  0  0  0  0  0  0  0  0  0  0  0
    4.0709   -2.4716    0.8963 H   0  0  0  0  0  0  0  0  0  0  0  0
  1  2  1  0
  2  3  1  0
  3  4  1  0
  4  5  2  0
  5  6  1  0
  6  7  2  0
  7  8  1  0
  8  9  1  0
  9 10  1  0
  7 11  1  0
 11 12  1  0
 12 13  1  0
 13 14  2  0
 13 15  2  0
 13 16  1  0
 16 17  2  0
 17 18  1  0
 18 19  2  0
 19 20  1  0
 20 21  2  0
 20 22  1  0
 22 23  1  0
 23 24  1  0
 24 25  1  0
 25 26  2  0
 25 27  1  0
 27 28  1  0
 28 29  1  0
 29 30  1  0
 11 31  2  0
 31  4  1  0
 21 16  1  0
 30 27  1  0
 24 19  1  0
  1 32  1  0
  1 33  1  0
  1 34  1  0
  2 35  1  0
  2 36  1  0
  5 37  1  0
  6 38  1  0
  9 39  1  0
  9 40  1  0
 10 41  1  0
 10 42  1  0
 10 43  1  0
 12 44  1  0
 17 45  1  0
 18 46  1  0
 21 47  1  0
 22 48  1  0
 22 49  1  0
 23 50  1  0
 23 51  1  0
 27 52  1  0
 28 53  1  0
 28 54  1  0
 29 55  1  0
 29 56  1  0
 30 57  1  0
 30 58  1  0
 31 59  1  0
M  END
$$$$
