
     RDKit          3D

 39 39  0  0  0  0  0  0  0  0999 V2000
   -4.2693    3.7313   -0.8988 C   0  0  0  0  0  0  0  0  0  0  0  0
   -3.1407    2.8000   -0.5817 C   0  0  0  0  0  0  0  0  0  0  0  0
   -1.9910    2.9338   -0.9838 O   0  0  0  0  0  0  0  0  0  0  0  0
   -3.5830    1.7692    0.1953 O   0  0  0  0  0  0  0  0  0  0  0  0
   -2.5537    0.8549    0.6158 C   0  0  0  0  0  0  0  0  0  0  0  0
   -2.1220   -0.0482   -0.5436 C   0  0  0  0  0  0  0  0  0  0  0  0
   -0.6076   -0.3182   -0.6024 C   0  0  0  0  0  0  0  0  0  0  0  0
    0.1190    0.9628   -0.7464 N   0  0  0  0  0  0  0  0  0  0  0  0
    1.5598    0.9239   -1.5965 S   0  0  0  0  0  6  0  0  0  0  0  0
    2.1228    2.2524   -1.5402 O   0  0  0  0  0  0  0  0  0  0  0  0
    1.3078    0.2750   -2.8629 O   0  0  0  0  0  0  0  0  0  0  0  0
    2.4998   -0.0514   -0.7162 O   0  0  0  0  0  0  0  0  0  0  0  0
    3.8418   -0.2445   -1.1447 C   0  0  0  0  0  0  0  0  0  0  0  0
    4.5100   -1.3872   -0.3691 C   0  0  0  0  0  0  0  0  0  0  0  0
    3.6394   -2.9305   -0.6356 Cl  0  0  0  0  0  0  0  0  0  0  0  0
    4.5526   -1.0326    1.3859 Cl  0  0  0  0  0  0  0  0  0  0  0  0
    6.1985   -1.5869   -0.9447 Cl  0  0  0  0  0  0  0  0  0  0  0  0
   -0.1411   -1.1524    0.5790 C   0  0  0  0  0  0  0  0  0  0  0  0
    0.3843   -0.5678    1.7425 C   0  0  0  0  0  0  0  0  0  0  0  0
    0.8134   -1.3602    2.8085 C   0  0  0  0  0  0  0  0  0  0  0  0
    0.7192   -2.7472    2.7295 C   0  0  0  0  0  0  0  0  0  0  0  0
    0.1947   -3.3435    1.5857 C   0  0  0  0  0  0  0  0  0  0  0  0
   -0.2343   -2.5525    0.5183 C   0  0  0  0  0  0  0  0  0  0  0  0
   -4.7101    4.1089    0.0272 H   0  0  0  0  0  0  0  0  0  0  0  0
   -5.0201    3.2117   -1.4991 H   0  0  0  0  0  0  0  0  0  0  0  0
   -3.8871    4.5813   -1.4712 H   0  0  0  0  0  0  0  0  0  0  0  0
   -1.7345    1.4304    1.0600 H   0  0  0  0  0  0  0  0  0  0  0  0
   -2.9778    0.2448    1.4210 H   0  0  0  0  0  0  0  0  0  0  0  0
   -2.4362    0.3814   -1.5033 H   0  0  0  0  0  0  0  0  0  0  0  0
   -2.6670   -0.9982   -0.4639 H   0  0  0  0  0  0  0  0  0  0  0  0
   -0.4444   -0.9099   -1.5128 H   0  0  0  0  0  0  0  0  0  0  0  0
   -0.4553    1.7553   -1.0667 H   0  0  0  0  0  0  0  0  0  0  0  0
    3.8506   -0.4670   -2.2193 H   0  0  0  0  0  0  0  0  0  0  0  0
    4.3912    0.6930   -0.9939 H   0  0  0  0  0  0  0  0  0  0  0  0
    0.4819    0.5132    1.8220 H   0  0  0  0  0  0  0  0  0  0  0  0
    1.2314   -0.8938    3.6971 H   0  0  0  0  0  0  0  0  0  0  0  0
    1.0611   -3.3633    3.5569 H   0  0  0  0  0  0  0  0  0  0  0  0
    0.1274   -4.4266    1.5211 H   0  0  0  0  0  0  0  0  0  0  0  0
   -0.6317   -3.0415   -0.3690 H   0  0  0  0  0  0  0  0  0  0  0  0
  1  2  1  0
  2  3  2  0
  2  4  1  0
  4  5  1  0
  5  6  1  0
  6  7  1  0
  7  8  1  0
  8  9  1  0
  9 10  2  0
  9 11  2  0
  9 12  1  0
 12 13  1  0
 13 14  1  0
 14 15  1  0
 14 16  1  0
 14 17  1  0
  7 18  1  0
 18 19  2  0
 19 20  1  0
 20 21  2  0
 21 22  1  0
 22 23  2  0
 23 18  1  0
  1 24  1  0
  1 25  1  0
  1 26  1  0
  5 27  1  0
  5 28  1  0
  6 29  1  0
  6 30  1  0
  7 31  1  0
  8 32  1  0
 13 33  1  0
 13 34  1  0
 19 35  1  0
 20 36  1  0
 21 37  1  0
 22 38  1  0
 23 39  1  0
M  END
$$$$
