
     RDKit          3D

 42 44  0  0  0  0  0  0  0  0999 V2000
    5.6122    0.3615    1.4830 C   0  0  0  0  0  0  0  0  0  0  0  0
    4.2006    0.1910    1.4692 O   0  0  0  0  0  0  0  0  0  0  0  0
    3.6443   -0.3331    0.3334 C   0  0  0  0  0  0  0  0  0  0  0  0
    4.3381   -0.7163   -0.8191 C   0  0  0  0  0  0  0  0  0  0  0  0
    3.6482   -1.2544   -1.9098 C   0  0  0  0  0  0  0  0  0  0  0  0
    4.2067   -1.6713   -3.0874 O   0  0  0  0  0  0  0  0  0  0  0  0
    5.6206   -1.5859   -3.2044 C   0  0  0  0  0  0  0  0  0  0  0  0
    2.2609   -1.3985   -1.8452 C   0  0  0  0  0  0  0  0  0  0  0  0
    1.5564   -1.0006   -0.7044 C   0  0  0  0  0  0  0  0  0  0  0  0
    0.0751   -1.1772   -0.6857 C   0  0  0  0  0  0  0  0  0  0  0  0
   -0.3912   -2.1254   -1.3051 O   0  0  0  0  0  0  0  0  0  0  0  0
   -0.6090   -0.2095    0.0231 N   0  0  0  0  0  0  0  0  0  0  0  0
   -1.9802   -0.1130    0.2216 C   0  0  0  0  0  0  0  0  0  0  0  0
   -3.0563   -1.2964   -0.3895 S   0  0  0  0  0  0  0  0  0  0  0  0
   -4.3648   -0.4590    0.2086 C   0  0  0  0  0  0  0  0  0  0  0  0
   -4.0395    0.6873    0.8800 C   0  0  0  0  0  0  0  0  0  0  0  0
   -2.6298    0.9096    0.9253 C   0  0  0  0  0  0  0  0  0  0  0  0
   -1.8885    1.9992    1.5569 C   0  0  0  0  0  0  0  0  0  0  0  0
   -2.5858    2.8149    2.3992 N   0  0  0  0  0  0  0  0  0  0  0  0
   -0.6834    2.1759    1.3904 O   0  0  0  0  0  0  0  0  0  0  0  0
   -5.2722    1.3713    1.3555 C   0  0  0  0  0  0  0  0  0  0  0  0
   -6.3987    0.6403    0.5613 C   0  0  0  0  0  0  0  0  0  0  0  0
   -5.8167   -0.7364    0.1273 C   0  0  0  0  0  0  0  0  0  0  0  0
    2.2555   -0.4791    0.3890 C   0  0  0  0  0  0  0  0  0  0  0  0
    6.1267   -0.5994    1.3792 H   0  0  0  0  0  0  0  0  0  0  0  0
    5.8886    0.7836    2.4541 H   0  0  0  0  0  0  0  0  0  0  0  0
    5.9318    1.0677    0.7098 H   0  0  0  0  0  0  0  0  0  0  0  0
    5.4128   -0.6010   -0.8656 H   0  0  0  0  0  0  0  0  0  0  0  0
    6.1179   -2.2051   -2.4505 H   0  0  0  0  0  0  0  0  0  0  0  0
    5.8987   -1.9731   -4.1894 H   0  0  0  0  0  0  0  0  0  0  0  0
    5.9582   -0.5459   -3.1481 H   0  0  0  0  0  0  0  0  0  0  0  0
    1.7253   -1.8223   -2.6932 H   0  0  0  0  0  0  0  0  0  0  0  0
   -0.0838    0.5800    0.3968 H   0  0  0  0  0  0  0  0  0  0  0  0
   -2.0369    3.4764    2.9314 H   0  0  0  0  0  0  0  0  0  0  0  0
   -3.4857    2.5497    2.7659 H   0  0  0  0  0  0  0  0  0  0  0  0
   -5.2750    2.4429    1.1371 H   0  0  0  0  0  0  0  0  0  0  0  0
   -5.4054    1.2162    2.4314 H   0  0  0  0  0  0  0  0  0  0  0  0
   -6.6389    1.2260   -0.3362 H   0  0  0  0  0  0  0  0  0  0  0  0
   -7.3199    0.5391    1.1437 H   0  0  0  0  0  0  0  0  0  0  0  0
   -6.1522   -1.0102   -0.8766 H   0  0  0  0  0  0  0  0  0  0  0  0
   -6.1044   -1.5176    0.8383 H   0  0  0  0  0  0  0  0  0  0  0  0
    1.7397   -0.2019    1.3049 H   0  0  0  0  0  0  0  0  0  0  0  0
  1  2  1  0
  2  3  1  0
  3  4  2  0
  4  5  1  0
  5  6  1  0
  6  7  1  0
  5  8  2  0
  8  9  1  0
  9 10  1  0
 10 11  2  0
 10 12  1  0
 12 13  1  0
 13 14  1  0
 14 15  1  0
 15 16  2  0
 16 17  1  0
 17 18  1  0
 18 19  1  0
 18 20  2  0
 16 21  1  0
 21 22  1  0
 22 23  1  0
  9 24  2  0
 24  3  1  0
 17 13  2  0
 23 15  1  0
  1 25  1  0
  1 26  1  0
  1 27  1  0
  4 28  1  0
  7 29  1  0
  7 30  1  0
  7 31  1  0
  8 32  1  0
 12 33  1  0
 19 34  1  0
 19 35  1  0
 21 36  1  0
 21 37  1  0
 22 38  1  0
 22 39  1  0
 23 40  1  0
 23 41  1  0
 24 42  1  0
M  END
$$$$
