
     RDKit          3D

 58 63  0  0  0  0  0  0  0  0999 V2000
    5.4228   -4.2555    1.3125 C   0  0  0  0  0  0  0  0  0  0  0  0
    5.1668   -2.8075    1.5540 C   0  0  0  0  0  0  0  0  0  0  0  0
    5.4841   -2.0524    2.6635 C   0  0  0  0  0  0  0  0  0  0  0  0
    5.0846   -0.6925    2.5195 C   0  0  0  0  0  0  0  0  0  0  0  0
    4.4325   -0.4577    1.3243 C   0  0  0  0  0  0  0  0  0  0  0  0
    3.9347    0.8198    0.8369 C   0  0  0  0  0  0  0  0  0  0  0  0
    4.6271    1.8372    0.9094 O   0  0  0  0  0  0  0  0  0  0  0  0
    2.6359    0.8895    0.3129 N   0  0  0  0  0  0  0  0  0  0  0  0
    2.2168    2.1428   -0.3013 C   0  0  0  0  0  0  0  0  0  0  0  0
    1.0133    1.9371   -1.2140 C   0  0  0  0  0  0  0  0  0  0  0  0
   -0.2334    1.4109   -0.4333 C   0  0  0  0  0  0  0  0  0  0  0  0
    0.2464    0.5721    0.7886 C   0  0  0  0  0  0  0  0  0  0  0  0
    1.5925   -0.1069    0.5586 C   0  0  0  0  0  0  0  0  0  0  0  0
   -0.9354    2.5372    0.1624 O   0  0  0  0  0  0  0  0  0  0  0  0
   -1.6632    3.3186   -0.6915 C   0  0  0  0  0  0  0  0  0  0  0  0
   -2.0348    4.5734   -0.2107 C   0  0  0  0  0  0  0  0  0  0  0  0
   -2.7567    5.4480   -1.0267 C   0  0  0  0  0  0  0  0  0  0  0  0
   -3.1087    5.0624   -2.3208 C   0  0  0  0  0  0  0  0  0  0  0  0
   -3.9957    6.1450   -3.3200 Cl  0  0  0  0  0  0  0  0  0  0  0  0
   -2.7547    3.8057   -2.8048 C   0  0  0  0  0  0  0  0  0  0  0  0
   -2.0395    2.9335   -1.9784 C   0  0  0  0  0  0  0  0  0  0  0  0
   -1.6906    1.5779   -2.4446 C   0  0  0  0  0  0  0  0  0  0  0  0
   -1.8514    1.2803   -3.6230 O   0  0  0  0  0  0  0  0  0  0  0  0
   -1.2041    0.6212   -1.3609 C   0  0  0  0  0  0  0  0  0  0  0  0
   -2.4425    0.0297   -0.6931 C   0  0  0  0  0  0  0  0  0  0  0  0
   -2.0528   -1.4072   -0.6809 C   0  0  0  0  0  0  0  0  0  0  0  0
   -2.8315   -2.4261    0.0615 C   0  0  0  0  0  0  0  0  0  0  0  0
   -4.0178   -2.0981    0.7279 C   0  0  0  0  0  0  0  0  0  0  0  0
   -4.7242   -3.0836    1.4231 C   0  0  0  0  0  0  0  0  0  0  0  0
   -4.2517   -4.3952    1.4538 C   0  0  0  0  0  0  0  0  0  0  0  0
   -3.0733   -4.7273    0.7881 C   0  0  0  0  0  0  0  0  0  0  0  0
   -2.3644   -3.7462    0.0925 C   0  0  0  0  0  0  0  0  0  0  0  0
   -0.9849   -1.6851   -1.3563 N   0  0  0  0  0  0  0  0  0  0  0  0
   -0.5330   -0.4903   -1.9589 O   0  0  0  0  0  0  0  0  0  0  0  0
    4.4040   -1.8639    0.3476 S   0  0  0  0  0  0  0  0  0  0  0  0
    6.0294   -4.4003    0.4121 H   0  0  0  0  0  0  0  0  0  0  0  0
    5.9624   -4.7021    2.1545 H   0  0  0  0  0  0  0  0  0  0  0  0
    4.4804   -4.8000    1.1916 H   0  0  0  0  0  0  0  0  0  0  0  0
    5.9928   -2.4505    3.5334 H   0  0  0  0  0  0  0  0  0  0  0  0
    5.2581    0.0821    3.2576 H   0  0  0  0  0  0  0  0  0  0  0  0
    3.0525    2.5583   -0.8761 H   0  0  0  0  0  0  0  0  0  0  0  0
    1.9847    2.8536    0.5010 H   0  0  0  0  0  0  0  0  0  0  0  0
    1.3017    1.2242   -1.9966 H   0  0  0  0  0  0  0  0  0  0  0  0
    0.8021    2.8891   -1.7126 H   0  0  0  0  0  0  0  0  0  0  0  0
    0.3413    1.2305    1.6646 H   0  0  0  0  0  0  0  0  0  0  0  0
   -0.4926   -0.1746    1.0897 H   0  0  0  0  0  0  0  0  0  0  0  0
    1.8403   -0.7038    1.4412 H   0  0  0  0  0  0  0  0  0  0  0  0
    1.5553   -0.7732   -0.3083 H   0  0  0  0  0  0  0  0  0  0  0  0
   -1.7517    4.8796    0.7939 H   0  0  0  0  0  0  0  0  0  0  0  0
   -3.0364    6.4291   -0.6498 H   0  0  0  0  0  0  0  0  0  0  0  0
   -3.0379    3.5028   -3.8106 H   0  0  0  0  0  0  0  0  0  0  0  0
   -2.6234    0.4199    0.3114 H   0  0  0  0  0  0  0  0  0  0  0  0
   -3.3532    0.1400   -1.2924 H   0  0  0  0  0  0  0  0  0  0  0  0
   -4.4180   -1.0891    0.7177 H   0  0  0  0  0  0  0  0  0  0  0  0
   -5.6470   -2.8297    1.9395 H   0  0  0  0  0  0  0  0  0  0  0  0
   -4.8043   -5.1607    1.9934 H   0  0  0  0  0  0  0  0  0  0  0  0
   -2.7064   -5.7506    0.8063 H   0  0  0  0  0  0  0  0  0  0  0  0
   -1.4477   -4.0212   -0.4262 H   0  0  0  0  0  0  0  0  0  0  0  0
  1  2  1  0
  2  3  2  0
  3  4  1  0
  4  5  2  0
  5  6  1  0
  6  7  2  0
  6  8  1  0
  8  9  1  0
  9 10  1  0
 10 11  1  0
 11 12  1  0
 12 13  1  0
 11 14  1  0
 14 15  1  0
 15 16  2  0
 16 17  1  0
 17 18  2  0
 18 19  1  0
 18 20  1  0
 20 21  2  0
 21 22  1  0
 22 23  2  0
 22 24  1  0
 24 25  1  0
 25 26  1  0
 26 27  1  0
 27 28  2  0
 28 29  1  0
 29 30  2  0
 30 31  1  0
 31 32  2  0
 26 33  2  0
 33 34  1  0
  5 35  1  0
 35  2  1  0
 13  8  1  0
 21 15  1  0
 34 24  1  0
 24 11  1  0
 32 27  1  0
  1 36  1  0
  1 37  1  0
  1 38  1  0
  3 39  1  0
  4 40  1  0
  9 41  1  0
  9 42  1  0
 10 43  1  0
 10 44  1  0
 12 45  1  0
 12 46  1  0
 13 47  1  0
 13 48  1  0
 16 49  1  0
 17 50  1  0
 20 51  1  0
 25 52  1  0
 25 53  1  0
 28 54  1  0
 29 55  1  0
 30 56  1  0
 31 57  1  0
 32 58  1  0
M  END
$$$$
