
     RDKit          3D

 58 62  0  0  0  0  0  0  0  0999 V2000
    9.2559    0.3379    0.0406 C   0  0  0  0  0  0  0  0  0  0  0  0
    8.4258    0.8095    1.0943 O   0  0  0  0  0  0  0  0  0  0  0  0
    7.0767    0.6345    0.9508 C   0  0  0  0  0  0  0  0  0  0  0  0
    6.3132    1.1153    2.0190 C   0  0  0  0  0  0  0  0  0  0  0  0
    4.9197    1.0043    2.0096 C   0  0  0  0  0  0  0  0  0  0  0  0
    4.2645    0.4107    0.9324 C   0  0  0  0  0  0  0  0  0  0  0  0
    2.8590    0.3311    0.9662 N   0  0  0  0  0  0  0  0  0  0  0  0
    2.1972   -0.2029   -0.0290 C   0  0  0  0  0  0  0  0  0  0  0  0
    0.8050   -0.2413    0.0177 N   0  0  0  0  0  0  0  0  0  0  0  0
    0.0686    0.5406   -0.9951 C   0  0  0  0  0  0  0  0  0  0  0  0
   -1.4130    0.1064   -1.0505 C   0  0  0  0  0  0  0  0  0  0  0  0
   -2.0933    0.2180    0.2594 N   0  0  0  0  0  0  0  0  0  0  0  0
   -3.4815   -0.2766    0.2133 C   0  0  0  0  0  0  0  0  0  0  0  0
   -4.4219    0.6398   -0.5902 C   0  0  0  0  0  0  0  0  0  0  0  0
   -5.8626    0.1681   -0.5246 C   0  0  0  0  0  0  0  0  0  0  0  0
   -6.2620   -0.8639   -1.3942 C   0  0  0  0  0  0  0  0  0  0  0  0
   -7.5670   -1.3536   -1.3761 C   0  0  0  0  0  0  0  0  0  0  0  0
   -8.4948   -0.8222   -0.4886 C   0  0  0  0  0  0  0  0  0  0  0  0
   -8.1169    0.1990    0.3828 C   0  0  0  0  0  0  0  0  0  0  0  0
   -6.8027    0.7070    0.3842 C   0  0  0  0  0  0  0  0  0  0  0  0
   -6.4494    1.8203    1.3486 C   0  0  0  0  0  0  0  0  0  0  0  0
   -6.1458    2.9871    0.7152 F   0  0  0  0  0  0  0  0  0  0  0  0
   -5.3761    1.5215    2.1316 F   0  0  0  0  0  0  0  0  0  0  0  0
   -7.4565    2.1277    2.2165 F   0  0  0  0  0  0  0  0  0  0  0  0
   -1.3182   -0.5455    1.2680 C   0  0  0  0  0  0  0  0  0  0  0  0
    0.1625   -0.1179    1.3430 C   0  0  0  0  0  0  0  0  0  0  0  0
    2.9479   -0.7539   -1.1454 C   0  0  0  0  0  0  0  0  0  0  0  0
    2.5427   -1.4563   -2.2662 C   0  0  0  0  0  0  0  0  0  0  0  0
    3.6962   -1.7503   -3.0289 C   0  0  0  0  0  0  0  0  0  0  0  0
    4.7793   -1.2440   -2.3428 C   0  0  0  0  0  0  0  0  0  0  0  0
    4.3211   -0.6645   -1.1828 N   0  0  0  0  0  0  0  0  0  0  0  0
    5.0398   -0.0672   -0.1334 C   0  0  0  0  0  0  0  0  0  0  0  0
    6.4374    0.0369   -0.1364 C   0  0  0  0  0  0  0  0  0  0  0  0
    9.0405    0.8622   -0.8962 H   0  0  0  0  0  0  0  0  0  0  0  0
    9.1612   -0.7462   -0.0813 H   0  0  0  0  0  0  0  0  0  0  0  0
   10.2942    0.5529    0.3111 H   0  0  0  0  0  0  0  0  0  0  0  0
    6.8070    1.5819    2.8680 H   0  0  0  0  0  0  0  0  0  0  0  0
    4.3397    1.3843    2.8461 H   0  0  0  0  0  0  0  0  0  0  0  0
    0.1366    1.6091   -0.7525 H   0  0  0  0  0  0  0  0  0  0  0  0
    0.5025    0.4111   -1.9914 H   0  0  0  0  0  0  0  0  0  0  0  0
   -1.9121    0.7444   -1.7873 H   0  0  0  0  0  0  0  0  0  0  0  0
   -1.4658   -0.9274   -1.4173 H   0  0  0  0  0  0  0  0  0  0  0  0
   -3.5150   -1.2997   -0.1847 H   0  0  0  0  0  0  0  0  0  0  0  0
   -3.8694   -0.3336    1.2390 H   0  0  0  0  0  0  0  0  0  0  0  0
   -4.1245    0.6709   -1.6457 H   0  0  0  0  0  0  0  0  0  0  0  0
   -4.3379    1.6725   -0.2349 H   0  0  0  0  0  0  0  0  0  0  0  0
   -5.5510   -1.2938   -2.0980 H   0  0  0  0  0  0  0  0  0  0  0  0
   -7.8587   -2.1497   -2.0566 H   0  0  0  0  0  0  0  0  0  0  0  0
   -9.5138   -1.2013   -0.4739 H   0  0  0  0  0  0  0  0  0  0  0  0
   -8.8611    0.6018    1.0696 H   0  0  0  0  0  0  0  0  0  0  0  0
   -1.3657   -1.6197    1.0427 H   0  0  0  0  0  0  0  0  0  0  0  0
   -1.7640   -0.3971    2.2590 H   0  0  0  0  0  0  0  0  0  0  0  0
    0.6700   -0.7669    2.0670 H   0  0  0  0  0  0  0  0  0  0  0  0
    0.2369    0.9159    1.7042 H   0  0  0  0  0  0  0  0  0  0  0  0
    1.5232   -1.7288   -2.5048 H   0  0  0  0  0  0  0  0  0  0  0  0
    3.7365   -2.2827   -3.9705 H   0  0  0  0  0  0  0  0  0  0  0  0
    5.8300   -1.2724   -2.5912 H   0  0  0  0  0  0  0  0  0  0  0  0
    7.0099   -0.3433   -0.9720 H   0  0  0  0  0  0  0  0  0  0  0  0
  1  2  1  0
  2  3  1  0
  3  4  2  0
  4  5  1  0
  5  6  2  0
  6  7  1  0
  7  8  2  0
  8  9  1  0
  9 10  1  0
 10 11  1  0
 11 12  1  0
 12 13  1  0
 13 14  1  0
 14 15  1  0
 15 16  2  0
 16 17  1  0
 17 18  2  0
 18 19  1  0
 19 20  2  0
 20 21  1  0
 21 22  1  0
 21 23  1  0
 21 24  1  0
 12 25  1  0
 25 26  1  0
  8 27  1  0
 27 28  2  0
 28 29  1  0
 29 30  2  0
 30 31  1  0
 31 32  1  0
 32 33  2  0
 33  3  1  0
 32  6  1  0
 26  9  1  0
 31 27  1  0
 20 15  1  0
  1 34  1  0
  1 35  1  0
  1 36  1  0
  4 37  1  0
  5 38  1  0
 10 39  1  0
 10 40  1  0
 11 41  1  0
 11 42  1  0
 13 43  1  0
 13 44  1  0
 14 45  1  0
 14 46  1  0
 16 47  1  0
 17 48  1  0
 18 49  1  0
 19 50  1  0
 25 51  1  0
 25 52  1  0
 26 53  1  0
 26 54  1  0
 28 55  1  0
 29 56  1  0
 30 57  1  0
 33 58  1  0
M  END
$$$$
