
     RDKit          3D

 60 65  0  0  0  0  0  0  0  0999 V2000
    4.6620   -2.2670    0.0483 C   0  0  0  0  0  0  0  0  0  0  0  0
    4.8767   -1.1818   -0.9376 C   0  0  0  0  0  0  0  0  0  0  0  0
    6.0709   -0.5782   -0.9986 N   0  0  0  0  0  0  0  0  0  0  0  0
    5.9943    0.3027   -2.0598 O   0  0  0  0  0  0  0  0  0  0  0  0
    4.7569    0.2363   -2.6163 C   0  0  0  0  0  0  0  0  0  0  0  0
    4.5161    1.0959   -3.7906 C   0  0  0  0  0  0  0  0  0  0  0  0
    3.9838   -0.6623   -1.9130 C   0  0  0  0  0  0  0  0  0  0  0  0
    2.6127   -1.0043   -2.2218 C   0  0  0  0  0  0  0  0  0  0  0  0
    2.2848   -1.2926   -3.3706 O   0  0  0  0  0  0  0  0  0  0  0  0
    1.6822   -0.9818   -1.1782 N   0  0  0  0  0  0  0  0  0  0  0  0
    1.8723   -0.2149    0.0552 C   0  0  0  0  0  0  0  0  0  0  0  0
    0.5589    0.3925    0.5432 C   0  0  0  0  0  0  0  0  0  0  0  0
   -0.4825   -0.7113    0.8608 C   0  0  0  0  0  0  0  0  0  0  0  0
   -0.4374   -1.8326   -0.2181 C   0  0  0  0  0  0  0  0  0  0  0  0
    0.3335   -1.4431   -1.4753 C   0  0  0  0  0  0  0  0  0  0  0  0
    0.0162   -1.2898    2.1035 O   0  0  0  0  0  0  0  0  0  0  0  0
   -0.8550   -2.0153    2.8607 C   0  0  0  0  0  0  0  0  0  0  0  0
   -0.2882   -2.7821    3.8805 C   0  0  0  0  0  0  0  0  0  0  0  0
   -1.1010   -3.5743    4.6926 C   0  0  0  0  0  0  0  0  0  0  0  0
   -2.4754   -3.5929    4.4804 C   0  0  0  0  0  0  0  0  0  0  0  0
   -3.2510   -4.3588    5.2578 F   0  0  0  0  0  0  0  0  0  0  0  0
   -3.0551   -2.8268    3.4781 C   0  0  0  0  0  0  0  0  0  0  0  0
   -2.2348   -2.0282    2.6772 C   0  0  0  0  0  0  0  0  0  0  0  0
   -2.8155   -1.1829    1.6250 C   0  0  0  0  0  0  0  0  0  0  0  0
   -3.9668   -1.3876    1.2512 O   0  0  0  0  0  0  0  0  0  0  0  0
   -1.9040   -0.1046    1.0582 C   0  0  0  0  0  0  0  0  0  0  0  0
   -2.5160    0.5703   -0.1619 C   0  0  0  0  0  0  0  0  0  0  0  0
   -2.4493    1.9932    0.2699 C   0  0  0  0  0  0  0  0  0  0  0  0
   -2.7867    3.1083   -0.6470 C   0  0  0  0  0  0  0  0  0  0  0  0
   -2.6433    4.4264   -0.1926 C   0  0  0  0  0  0  0  0  0  0  0  0
   -2.9493    5.4992   -1.0333 C   0  0  0  0  0  0  0  0  0  0  0  0
   -3.3975    5.2568   -2.3291 C   0  0  0  0  0  0  0  0  0  0  0  0
   -3.7752    6.5749   -3.3658 Cl  0  0  0  0  0  0  0  0  0  0  0  0
   -3.5454    3.9498   -2.7902 C   0  0  0  0  0  0  0  0  0  0  0  0
   -3.2416    2.8739   -1.9501 C   0  0  0  0  0  0  0  0  0  0  0  0
   -2.0711    2.1781    1.4922 N   0  0  0  0  0  0  0  0  0  0  0  0
   -1.8588    0.9133    2.0785 O   0  0  0  0  0  0  0  0  0  0  0  0
    4.5167   -1.8499    1.0503 H   0  0  0  0  0  0  0  0  0  0  0  0
    3.7843   -2.8702   -0.2061 H   0  0  0  0  0  0  0  0  0  0  0  0
    5.5261   -2.9397    0.0800 H   0  0  0  0  0  0  0  0  0  0  0  0
    4.5395    0.5006   -4.7083 H   0  0  0  0  0  0  0  0  0  0  0  0
    5.2759    1.8791   -3.8719 H   0  0  0  0  0  0  0  0  0  0  0  0
    3.5385    1.5830   -3.7193 H   0  0  0  0  0  0  0  0  0  0  0  0
    2.2794   -0.8966    0.8084 H   0  0  0  0  0  0  0  0  0  0  0  0
    2.6000    0.5861   -0.1080 H   0  0  0  0  0  0  0  0  0  0  0  0
    0.7666    0.9886    1.4405 H   0  0  0  0  0  0  0  0  0  0  0  0
    0.1890    1.0773   -0.2279 H   0  0  0  0  0  0  0  0  0  0  0  0
    0.0355   -2.7312    0.2005 H   0  0  0  0  0  0  0  0  0  0  0  0
   -1.4480   -2.1370   -0.5135 H   0  0  0  0  0  0  0  0  0  0  0  0
    0.3852   -2.3035   -2.1526 H   0  0  0  0  0  0  0  0  0  0  0  0
   -0.1774   -0.6415   -2.0199 H   0  0  0  0  0  0  0  0  0  0  0  0
    0.7881   -2.7700    4.0386 H   0  0  0  0  0  0  0  0  0  0  0  0
   -0.6717   -4.1791    5.4860 H   0  0  0  0  0  0  0  0  0  0  0  0
   -4.1318   -2.8485    3.3384 H   0  0  0  0  0  0  0  0  0  0  0  0
   -3.5612    0.3087   -0.3506 H   0  0  0  0  0  0  0  0  0  0  0  0
   -1.9469    0.4097   -1.0786 H   0  0  0  0  0  0  0  0  0  0  0  0
   -2.2952    4.6288    0.8190 H   0  0  0  0  0  0  0  0  0  0  0  0
   -2.8366    6.5169   -0.6692 H   0  0  0  0  0  0  0  0  0  0  0  0
   -3.8992    3.7627   -3.8011 H   0  0  0  0  0  0  0  0  0  0  0  0
   -3.3769    1.8676   -2.3354 H   0  0  0  0  0  0  0  0  0  0  0  0
  1  2  1  0
  2  3  2  0
  3  4  1  0
  4  5  1  0
  5  6  1  0
  5  7  2  0
  7  8  1  0
  8  9  2  0
  8 10  1  0
 10 11  1  0
 11 12  1  0
 12 13  1  0
 13 14  1  0
 14 15  1  0
 13 16  1  0
 16 17  1  0
 17 18  2  0
 18 19  1  0
 19 20  2  0
 20 21  1  0
 20 22  1  0
 22 23  2  0
 23 24  1  0
 24 25  2  0
 24 26  1  0
 26 27  1  0
 27 28  1  0
 28 29  1  0
 29 30  2  0
 30 31  1  0
 31 32  2  0
 32 33  1  0
 32 34  1  0
 34 35  2  0
 28 36  2  0
 36 37  1  0
  7  2  1  0
 15 10  1  0
 23 17  1  0
 37 26  1  0
 26 13  1  0
 35 29  1  0
  1 38  1  0
  1 39  1  0
  1 40  1  0
  6 41  1  0
  6 42  1  0
  6 43  1  0
 11 44  1  0
 11 45  1  0
 12 46  1  0
 12 47  1  0
 14 48  1  0
 14 49  1  0
 15 50  1  0
 15 51  1  0
 18 52  1  0
 19 53  1  0
 22 54  1  0
 27 55  1  0
 27 56  1  0
 30 57  1  0
 31 58  1  0
 34 59  1  0
 35 60  1  0
M  END
$$$$
