
     RDKit          3D

 60 65  0  0  0  0  0  0  0  0999 V2000
   -1.6412   -3.4965    0.4952 O   0  0  0  0  0  0  0  0  0  0  0  0
   -1.9396   -2.3330    0.7426 C   0  0  0  0  0  0  0  0  0  0  0  0
   -1.2373   -1.2597    0.2015 N   0  0  0  0  0  0  0  0  0  0  0  0
   -1.5482    0.0758    0.4344 C   0  0  0  0  0  0  0  0  0  0  0  0
   -0.6549    1.1266   -0.2180 C   0  0  0  0  0  0  0  0  0  0  0  0
    0.7402    1.1560    0.4287 C   0  0  0  0  0  0  0  0  0  0  0  0
    1.7804    0.3988   -0.3890 C   0  0  0  0  0  0  0  0  0  0  0  0
    1.8869    0.9358   -1.7757 N   0  0  0  0  0  0  0  0  0  0  0  0
    2.6150   -0.1253   -2.9149 S   0  0  0  0  0  6  0  0  0  0  0  0
    2.8021    0.5972   -4.1561 O   0  0  0  0  0  0  0  0  0  0  0  0
    1.8568   -1.3621   -2.8642 O   0  0  0  0  0  0  0  0  0  0  0  0
    4.2220   -0.4067   -2.2210 C   0  0  0  0  0  0  0  0  0  0  0  0
    5.1153    0.6689   -2.1254 C   0  0  0  0  0  0  0  0  0  0  0  0
    6.3809    0.4630   -1.5740 C   0  0  0  0  0  0  0  0  0  0  0  0
    6.7454   -0.8084   -1.1276 C   0  0  0  0  0  0  0  0  0  0  0  0
    5.8577   -1.8854   -1.2607 C   0  0  0  0  0  0  0  0  0  0  0  0
    4.5861   -1.6873   -1.7949 C   0  0  0  0  0  0  0  0  0  0  0  0
    6.1701   -3.1659   -0.8787 O   0  0  0  0  0  0  0  0  0  0  0  0
    7.5836   -3.3239   -0.6964 C   0  0  0  0  0  0  0  0  0  0  0  0
    8.1461   -2.1721    0.1217 C   0  0  0  0  0  0  0  0  0  0  0  0
    7.9967   -0.9304   -0.5786 O   0  0  0  0  0  0  0  0  0  0  0  0
    0.6696    1.6250   -2.2881 C   0  0  0  0  0  0  0  0  0  0  0  0
   -0.5947    0.9807   -1.7407 C   0  0  0  0  0  0  0  0  0  0  0  0
   -2.5285    0.4749    1.2010 N   0  0  0  0  0  0  0  0  0  0  0  0
   -3.2221   -0.5527    1.7515 C   0  0  0  0  0  0  0  0  0  0  0  0
   -3.0139   -1.9023    1.5960 C   0  0  0  0  0  0  0  0  0  0  0  0
   -3.9127   -2.6144    2.3290 N   0  0  0  0  0  0  0  0  0  0  0  0
   -4.6955   -1.7357    2.9578 N   0  0  0  0  0  0  0  0  0  0  0  0
   -4.2937   -0.4905    2.5980 N   0  0  0  0  0  0  0  0  0  0  0  0
   -4.9393    0.6903    3.1377 C   0  0  0  0  0  0  0  0  0  0  0  0
   -6.2129    1.0131    2.4046 C   0  0  0  0  0  0  0  0  0  0  0  0
   -6.1915    1.5468    1.1069 C   0  0  0  0  0  0  0  0  0  0  0  0
   -7.3870    1.8287    0.4398 C   0  0  0  0  0  0  0  0  0  0  0  0
   -8.6134    1.5818    1.0602 C   0  0  0  0  0  0  0  0  0  0  0  0
   -8.6452    1.0541    2.3485 C   0  0  0  0  0  0  0  0  0  0  0  0
   -7.4516    0.7749    3.0075 C   0  0  0  0  0  0  0  0  0  0  0  0
   -7.5051    0.2795    4.2514 F   0  0  0  0  0  0  0  0  0  0  0  0
   -0.5010   -1.5348   -0.4342 H   0  0  0  0  0  0  0  0  0  0  0  0
   -1.1206    2.0999    0.0027 H   0  0  0  0  0  0  0  0  0  0  0  0
    1.0621    2.2029    0.5147 H   0  0  0  0  0  0  0  0  0  0  0  0
    0.7117    0.7585    1.4498 H   0  0  0  0  0  0  0  0  0  0  0  0
    2.7549    0.5054    0.1024 H   0  0  0  0  0  0  0  0  0  0  0  0
    1.5305   -0.6676   -0.4040 H   0  0  0  0  0  0  0  0  0  0  0  0
    4.8291    1.6600   -2.4753 H   0  0  0  0  0  0  0  0  0  0  0  0
    7.0804    1.2914   -1.4869 H   0  0  0  0  0  0  0  0  0  0  0  0
    3.9040   -2.5298   -1.8890 H   0  0  0  0  0  0  0  0  0  0  0  0
    8.0599   -3.3864   -1.6833 H   0  0  0  0  0  0  0  0  0  0  0  0
    7.7471   -4.2745   -0.1776 H   0  0  0  0  0  0  0  0  0  0  0  0
    7.6416   -2.0853    1.0925 H   0  0  0  0  0  0  0  0  0  0  0  0
    9.2152   -2.3231    0.3032 H   0  0  0  0  0  0  0  0  0  0  0  0
    0.6372    1.6178   -3.3818 H   0  0  0  0  0  0  0  0  0  0  0  0
    0.7268    2.6802   -1.9969 H   0  0  0  0  0  0  0  0  0  0  0  0
   -0.6330   -0.0685   -2.0546 H   0  0  0  0  0  0  0  0  0  0  0  0
   -1.4774    1.4589   -2.1838 H   0  0  0  0  0  0  0  0  0  0  0  0
   -5.1105    0.5099    4.2049 H   0  0  0  0  0  0  0  0  0  0  0  0
   -4.2420    1.5347    3.0655 H   0  0  0  0  0  0  0  0  0  0  0  0
   -5.2436    1.7411    0.6056 H   0  0  0  0  0  0  0  0  0  0  0  0
   -7.3619    2.2373   -0.5671 H   0  0  0  0  0  0  0  0  0  0  0  0
   -9.5454    1.7955    0.5406 H   0  0  0  0  0  0  0  0  0  0  0  0
   -9.5920    0.8567    2.8428 H   0  0  0  0  0  0  0  0  0  0  0  0
  1  2  2  0
  2  3  1  0
  3  4  1  0
  4  5  1  0
  5  6  1  0
  6  7  1  0
  7  8  1  0
  8  9  1  0
  9 10  2  0
  9 11  2  0
  9 12  1  0
 12 13  2  0
 13 14  1  0
 14 15  2  0
 15 16  1  0
 16 17  2  0
 16 18  1  0
 18 19  1  0
 19 20  1  0
 20 21  1  0
  8 22  1  0
 22 23  1  0
  4 24  2  0
 24 25  1  0
 25 26  2  0
 26 27  1  0
 27 28  2  0
 28 29  1  0
 29 30  1  0
 30 31  1  0
 31 32  2  0
 32 33  1  0
 33 34  2  0
 34 35  1  0
 35 36  2  0
 36 37  1  0
 26  2  1  0
 36 31  1  0
 23  5  1  0
 29 25  1  0
 17 12  1  0
 21 15  1  0
  3 38  1  0
  5 39  1  0
  6 40  1  0
  6 41  1  0
  7 42  1  0
  7 43  1  0
 13 44  1  0
 14 45  1  0
 17 46  1  0
 19 47  1  0
 19 48  1  0
 20 49  1  0
 20 50  1  0
 22 51  1  0
 22 52  1  0
 23 53  1  0
 23 54  1  0
 30 55  1  0
 30 56  1  0
 32 57  1  0
 33 58  1  0
 34 59  1  0
 35 60  1  0
M  END
$$$$
