
     RDKit          3D

 36 37  0  0  0  0  0  0  0  0999 V2000
   -1.8140   -2.0274    0.9354 C   0  0  0  0  0  0  0  0  0  0  0  0
   -1.8626   -1.4768   -0.4878 C   0  0  0  0  0  0  0  0  0  0  0  0
   -2.1655   -0.0401   -0.6398 N   0  0  0  0  0  0  0  0  0  0  0  0
   -3.5191    0.2739   -0.1297 C   0  0  0  0  0  0  0  0  0  0  0  0
   -4.0561    1.6505   -0.5602 C   0  0  0  0  0  0  0  0  0  0  0  0
   -3.6399    2.6656    0.3498 O   0  0  0  0  0  0  0  0  0  0  0  0
   -1.1442    0.8443   -0.0472 C   0  0  0  0  0  0  0  0  0  0  0  0
    0.1892    0.6682   -0.7344 C   0  0  0  0  0  0  0  0  0  0  0  0
    0.3823    0.8705   -2.0893 C   0  0  0  0  0  0  0  0  0  0  0  0
    1.9860    0.6043   -2.5830 S   0  0  0  0  0  0  0  0  0  0  0  0
    2.4907    0.2223   -0.9840 C   0  0  0  0  0  0  0  0  0  0  0  0
    3.7955   -0.1275   -0.5766 C   0  0  0  0  0  0  0  0  0  0  0  0
    4.0459   -0.4159    0.7712 C   0  0  0  0  0  0  0  0  0  0  0  0
    5.4362   -0.7568    1.2219 C   0  0  0  0  0  0  0  0  0  0  0  0
    3.0080   -0.3259    1.6938 C   0  0  0  0  0  0  0  0  0  0  0  0
    1.7153    0.0214    1.2843 C   0  0  0  0  0  0  0  0  0  0  0  0
    1.4295    0.2995   -0.0771 C   0  0  0  0  0  0  0  0  0  0  0  0
   -1.5769   -3.0964    0.9073 H   0  0  0  0  0  0  0  0  0  0  0  0
   -2.7757   -1.9213    1.4456 H   0  0  0  0  0  0  0  0  0  0  0  0
   -1.0446   -1.5386    1.5383 H   0  0  0  0  0  0  0  0  0  0  0  0
   -0.9162   -1.7147   -0.9873 H   0  0  0  0  0  0  0  0  0  0  0  0
   -2.6130   -2.0477   -1.0504 H   0  0  0  0  0  0  0  0  0  0  0  0
   -3.5513    0.1942    0.9636 H   0  0  0  0  0  0  0  0  0  0  0  0
   -4.2138   -0.4689   -0.5417 H   0  0  0  0  0  0  0  0  0  0  0  0
   -5.1510    1.6336   -0.5503 H   0  0  0  0  0  0  0  0  0  0  0  0
   -3.7257    1.9115   -1.5712 H   0  0  0  0  0  0  0  0  0  0  0  0
   -3.9558    3.5116   -0.0117 H   0  0  0  0  0  0  0  0  0  0  0  0
   -1.0682    0.6997    1.0350 H   0  0  0  0  0  0  0  0  0  0  0  0
   -1.4097    1.8956   -0.2031 H   0  0  0  0  0  0  0  0  0  0  0  0
   -0.3675    1.1535   -2.8157 H   0  0  0  0  0  0  0  0  0  0  0  0
    4.5969   -0.1715   -1.3097 H   0  0  0  0  0  0  0  0  0  0  0  0
    5.4132   -1.4170    2.0953 H   0  0  0  0  0  0  0  0  0  0  0  0
    5.9793    0.1567    1.4828 H   0  0  0  0  0  0  0  0  0  0  0  0
    5.9847   -1.2822    0.4329 H   0  0  0  0  0  0  0  0  0  0  0  0
    3.1905   -0.5260    2.7476 H   0  0  0  0  0  0  0  0  0  0  0  0
    0.9276    0.0779    2.0309 H   0  0  0  0  0  0  0  0  0  0  0  0
  1  2  1  0
  2  3  1  0
  3  4  1  0
  4  5  1  0
  5  6  1  0
  3  7  1  0
  7  8  1  0
  8  9  2  0
  9 10  1  0
 10 11  1  0
 11 12  2  0
 12 13  1  0
 13 14  1  0
 13 15  2  0
 15 16  1  0
 16 17  2  0
 17  8  1  0
 17 11  1  0
  1 18  1  0
  1 19  1  0
  1 20  1  0
  2 21  1  0
  2 22  1  0
  4 23  1  0
  4 24  1  0
  5 25  1  0
  5 26  1  0
  6 27  1  0
  7 28  1  0
  7 29  1  0
  9 30  1  0
 12 31  1  0
 14 32  1  0
 14 33  1  0
 14 34  1  0
 15 35  1  0
 16 36  1  0
M  END
$$$$
