
     RDKit          3D

 64 69  0  0  0  0  0  0  0  0999 V2000
   -9.5816    1.0077   -0.5694 C   0  0  0  0  0  0  0  0  0  0  0  0
   -8.6797    1.7691    0.2218 O   0  0  0  0  0  0  0  0  0  0  0  0
   -7.3640    1.4000    0.1853 C   0  0  0  0  0  0  0  0  0  0  0  0
   -6.8454    0.2774   -0.4553 C   0  0  0  0  0  0  0  0  0  0  0  0
   -5.4689    0.0143   -0.4201 C   0  0  0  0  0  0  0  0  0  0  0  0
   -4.5927    0.8822    0.2464 C   0  0  0  0  0  0  0  0  0  0  0  0
   -3.1832    0.6230    0.2631 N   0  0  0  0  0  0  0  0  0  0  0  0
   -2.1496    1.5750    0.3041 C   0  0  0  0  0  0  0  0  0  0  0  0
   -2.3607    2.9182    0.2176 N   0  0  0  0  0  0  0  0  0  0  0  0
   -0.9255    0.9176    0.3743 C   0  0  0  0  0  0  0  0  0  0  0  0
    0.3930    1.5564    0.4027 C   0  0  0  0  0  0  0  0  0  0  0  0
    0.5041    2.7745    0.3167 O   0  0  0  0  0  0  0  0  0  0  0  0
    1.4429    0.6669    0.4781 N   0  0  0  0  0  0  0  0  0  0  0  0
    2.7916    0.8878    0.4029 C   0  0  0  0  0  0  0  0  0  0  0  0
    3.6007    1.9595    0.4782 C   0  0  0  0  0  0  0  0  0  0  0  0
    3.2307    3.3684    0.8226 C   0  0  0  0  0  0  0  0  0  0  0  0
    4.9560    1.6242    0.2579 N   0  0  0  0  0  0  0  0  0  0  0  0
    5.9554    2.0242    1.2635 C   0  0  0  0  0  0  0  0  0  0  0  0
    4.9791    0.2270   -0.0161 N   0  0  0  0  0  0  0  0  0  0  0  0
    5.9865   -0.3502   -0.8331 C   0  0  0  0  0  0  0  0  0  0  0  0
    6.0359   -1.7344   -1.0438 C   0  0  0  0  0  0  0  0  0  0  0  0
    7.0166   -2.3042   -1.8622 C   0  0  0  0  0  0  0  0  0  0  0  0
    7.9628   -1.4977   -2.4881 C   0  0  0  0  0  0  0  0  0  0  0  0
    7.9326   -0.1209   -2.2916 C   0  0  0  0  0  0  0  0  0  0  0  0
    6.9524    0.4465   -1.4702 C   0  0  0  0  0  0  0  0  0  0  0  0
    3.6935   -0.2873    0.1552 C   0  0  0  0  0  0  0  0  0  0  0  0
    3.2751   -1.4339    0.0958 O   0  0  0  0  0  0  0  0  0  0  0  0
   -1.2173   -0.4635    0.3375 C   0  0  0  0  0  0  0  0  0  0  0  0
   -0.3550   -1.5131    0.3593 N   0  0  0  0  0  0  0  0  0  0  0  0
   -0.9370   -2.7191    0.2854 C   0  0  0  0  0  0  0  0  0  0  0  0
   -0.1205   -3.8418    0.2820 C   0  0  0  0  0  0  0  0  0  0  0  0
   -0.6518   -5.1287    0.1969 C   0  0  0  0  0  0  0  0  0  0  0  0
   -2.0274   -5.2954    0.1191 C   0  0  0  0  0  0  0  0  0  0  0  0
   -2.8585   -4.1736    0.1265 C   0  0  0  0  0  0  0  0  0  0  0  0
   -2.3430   -2.8864    0.2021 C   0  0  0  0  0  0  0  0  0  0  0  0
   -3.1980   -1.8502    0.1855 N   0  0  0  0  0  0  0  0  0  0  0  0
   -2.5894   -0.6382    0.2395 C   0  0  0  0  0  0  0  0  0  0  0  0
   -5.1213    1.9988    0.9049 C   0  0  0  0  0  0  0  0  0  0  0  0
   -6.4965    2.2493    0.8726 C   0  0  0  0  0  0  0  0  0  0  0  0
   -9.3058    1.0446   -1.6287 H   0  0  0  0  0  0  0  0  0  0  0  0
  -10.5755    1.4563   -0.4687 H   0  0  0  0  0  0  0  0  0  0  0  0
   -9.6439   -0.0256   -0.2131 H   0  0  0  0  0  0  0  0  0  0  0  0
   -7.4804   -0.4171   -0.9944 H   0  0  0  0  0  0  0  0  0  0  0  0
   -5.1086   -0.8628   -0.9547 H   0  0  0  0  0  0  0  0  0  0  0  0
   -1.5320    3.5095    0.0839 H   0  0  0  0  0  0  0  0  0  0  0  0
   -3.1534    3.2711   -0.3157 H   0  0  0  0  0  0  0  0  0  0  0  0
    1.1926   -0.3257    0.4198 H   0  0  0  0  0  0  0  0  0  0  0  0
    2.9729    3.9341   -0.0780 H   0  0  0  0  0  0  0  0  0  0  0  0
    4.0523    3.8930    1.3221 H   0  0  0  0  0  0  0  0  0  0  0  0
    2.4030    3.4038    1.5353 H   0  0  0  0  0  0  0  0  0  0  0  0
    6.1379    3.1012    1.2196 H   0  0  0  0  0  0  0  0  0  0  0  0
    6.9153    1.5213    1.1181 H   0  0  0  0  0  0  0  0  0  0  0  0
    5.6119    1.7633    2.2707 H   0  0  0  0  0  0  0  0  0  0  0  0
    5.3249   -2.4011   -0.5603 H   0  0  0  0  0  0  0  0  0  0  0  0
    7.0414   -3.3814   -2.0095 H   0  0  0  0  0  0  0  0  0  0  0  0
    8.7206   -1.9447   -3.1275 H   0  0  0  0  0  0  0  0  0  0  0  0
    8.6606    0.5180   -2.7867 H   0  0  0  0  0  0  0  0  0  0  0  0
    6.9359    1.5279   -1.3650 H   0  0  0  0  0  0  0  0  0  0  0  0
    0.9593   -3.7094    0.3397 H   0  0  0  0  0  0  0  0  0  0  0  0
    0.0101   -5.9911    0.1916 H   0  0  0  0  0  0  0  0  0  0  0  0
   -2.4565   -6.2909    0.0521 H   0  0  0  0  0  0  0  0  0  0  0  0
   -3.9364   -4.3049    0.0694 H   0  0  0  0  0  0  0  0  0  0  0  0
   -4.4938    2.6648    1.4915 H   0  0  0  0  0  0  0  0  0  0  0  0
   -6.8941    3.1163    1.3928 H   0  0  0  0  0  0  0  0  0  0  0  0
  1  2  1  0
  2  3  1  0
  3  4  2  0
  4  5  1  0
  5  6  2  0
  6  7  1  0
  7  8  1  0
  8  9  1  0
  8 10  2  0
 10 11  1  0
 11 12  2  0
 11 13  1  0
 13 14  1  0
 14 15  2  0
 15 16  1  0
 15 17  1  0
 17 18  1  0
 17 19  1  0
 19 20  1  0
 20 21  2  0
 21 22  1  0
 22 23  2  0
 23 24  1  0
 24 25  2  0
 19 26  1  0
 26 27  2  0
 10 28  1  0
 28 29  2  0
 29 30  1  0
 30 31  2  0
 31 32  1  0
 32 33  2  0
 33 34  1  0
 34 35  2  0
 35 36  1  0
 36 37  2  0
  6 38  1  0
 38 39  2  0
 39  3  1  0
 37  7  1  0
 26 14  1  0
 37 28  1  0
 25 20  1  0
 35 30  1  0
  1 40  1  0
  1 41  1  0
  1 42  1  0
  4 43  1  0
  5 44  1  0
  9 45  1  0
  9 46  1  0
 13 47  1  0
 16 48  1  0
 16 49  1  0
 16 50  1  0
 18 51  1  0
 18 52  1  0
 18 53  1  0
 21 54  1  0
 22 55  1  0
 23 56  1  0
 24 57  1  0
 25 58  1  0
 31 59  1  0
 32 60  1  0
 33 61  1  0
 34 62  1  0
 38 63  1  0
 39 64  1  0
M  END
$$$$
