
     RDKit          3D

 46 47  0  0  0  0  0  0  0  0999 V2000
    8.6868    0.5717   -0.3252 C   0  0  0  0  0  0  0  0  0  0  0  0
    7.7288    0.7079   -1.3668 O   0  0  0  0  0  0  0  0  0  0  0  0
    6.4672    0.2467   -1.1095 C   0  0  0  0  0  0  0  0  0  0  0  0
    6.0262   -0.3155    0.0881 C   0  0  0  0  0  0  0  0  0  0  0  0
    4.7010   -0.7465    0.2178 C   0  0  0  0  0  0  0  0  0  0  0  0
    3.8022   -0.6249   -0.8489 C   0  0  0  0  0  0  0  0  0  0  0  0
    2.3682   -1.0679   -0.6979 C   0  0  0  0  0  0  0  0  0  0  0  0
    1.4776    0.0826   -0.2376 C   0  0  0  0  0  0  0  0  0  0  0  0
    0.0400   -0.3571   -0.0711 C   0  0  0  0  0  0  0  0  0  0  0  0
   -0.3540   -1.5060   -0.2489 O   0  0  0  0  0  0  0  0  0  0  0  0
   -0.7946    0.6813    0.3012 N   0  0  0  0  0  0  0  0  0  0  0  0
   -2.0971    0.3536    0.7012 N   0  0  0  0  0  0  0  0  0  0  0  0
   -2.6407    1.0329    1.7725 C   0  0  0  0  0  0  0  0  0  0  0  0
   -2.0698    1.9954    2.2922 O   0  0  0  0  0  0  0  0  0  0  0  0
   -3.9356    0.4805    2.3180 C   0  0  0  0  0  0  0  0  0  0  0  0
   -4.8443    0.0672    1.2660 N   0  0  0  0  0  0  0  0  0  0  0  0
   -4.6520   -1.1398    0.6933 N   0  0  0  0  0  0  0  0  0  0  0  0
   -5.6167   -1.2244   -0.2294 C   0  0  0  0  0  0  0  0  0  0  0  0
   -5.7375   -2.4343   -1.0768 C   0  0  0  0  0  0  0  0  0  0  0  0
   -6.4185   -0.0625   -0.2474 C   0  0  0  0  0  0  0  0  0  0  0  0
   -5.8941    0.7633    0.7246 C   0  0  0  0  0  0  0  0  0  0  0  0
   -6.3008    2.1221    1.1570 C   0  0  0  0  0  0  0  0  0  0  0  0
    4.2480   -0.0567   -2.0469 C   0  0  0  0  0  0  0  0  0  0  0  0
    5.5709    0.3735   -2.1727 C   0  0  0  0  0  0  0  0  0  0  0  0
    8.3977    1.1545    0.5554 H   0  0  0  0  0  0  0  0  0  0  0  0
    8.8452   -0.4810   -0.0690 H   0  0  0  0  0  0  0  0  0  0  0  0
    9.6375    0.9716   -0.6910 H   0  0  0  0  0  0  0  0  0  0  0  0
    6.6852   -0.4334    0.9414 H   0  0  0  0  0  0  0  0  0  0  0  0
    4.3765   -1.1813    1.1609 H   0  0  0  0  0  0  0  0  0  0  0  0
    2.0087   -1.4722   -1.6532 H   0  0  0  0  0  0  0  0  0  0  0  0
    2.3150   -1.9018    0.0140 H   0  0  0  0  0  0  0  0  0  0  0  0
    1.5060    0.9022   -0.9660 H   0  0  0  0  0  0  0  0  0  0  0  0
    1.8297    0.4745    0.7245 H   0  0  0  0  0  0  0  0  0  0  0  0
   -0.4131    1.5299    0.7194 H   0  0  0  0  0  0  0  0  0  0  0  0
   -2.4714   -0.5537    0.3963 H   0  0  0  0  0  0  0  0  0  0  0  0
   -4.4328    1.2422    2.9252 H   0  0  0  0  0  0  0  0  0  0  0  0
   -3.7251   -0.3876    2.9512 H   0  0  0  0  0  0  0  0  0  0  0  0
   -6.0825   -3.2849   -0.4800 H   0  0  0  0  0  0  0  0  0  0  0  0
   -4.7715   -2.6921   -1.5235 H   0  0  0  0  0  0  0  0  0  0  0  0
   -6.4529   -2.2757   -1.8906 H   0  0  0  0  0  0  0  0  0  0  0  0
   -7.2631    0.1467   -0.8895 H   0  0  0  0  0  0  0  0  0  0  0  0
   -6.6686    2.1050    2.1878 H   0  0  0  0  0  0  0  0  0  0  0  0
   -7.1023    2.5107    0.5203 H   0  0  0  0  0  0  0  0  0  0  0  0
   -5.4583    2.8185    1.0965 H   0  0  0  0  0  0  0  0  0  0  0  0
    3.5718    0.0537   -2.8915 H   0  0  0  0  0  0  0  0  0  0  0  0
    5.9071    0.8108   -3.1096 H   0  0  0  0  0  0  0  0  0  0  0  0
  1  2  1  0
  2  3  1  0
  3  4  2  0
  4  5  1  0
  5  6  2  0
  6  7  1  0
  7  8  1  0
  8  9  1  0
  9 10  2  0
  9 11  1  0
 11 12  1  0
 12 13  1  0
 13 14  2  0
 13 15  1  0
 15 16  1  0
 16 17  1  0
 17 18  2  0
 18 19  1  0
 18 20  1  0
 20 21  2  0
 21 22  1  0
  6 23  1  0
 23 24  2  0
 24  3  1  0
 21 16  1  0
  1 25  1  0
  1 26  1  0
  1 27  1  0
  4 28  1  0
  5 29  1  0
  7 30  1  0
  7 31  1  0
  8 32  1  0
  8 33  1  0
 11 34  1  0
 12 35  1  0
 15 36  1  0
 15 37  1  0
 19 38  1  0
 19 39  1  0
 19 40  1  0
 20 41  1  0
 22 42  1  0
 22 43  1  0
 22 44  1  0
 23 45  1  0
 24 46  1  0
M  END
$$$$
