
     RDKit          3D

 61 66  0  0  0  0  0  0  0  0999 V2000
    7.8235   -3.3528    0.5915 F   0  0  0  0  0  0  0  0  0  0  0  0
    7.1459   -2.6535   -0.3632 C   0  0  0  0  0  0  0  0  0  0  0  0
    6.1270   -3.4654   -0.7632 F   0  0  0  0  0  0  0  0  0  0  0  0
    7.9892   -2.5602   -1.4287 F   0  0  0  0  0  0  0  0  0  0  0  0
    6.6792   -1.3025    0.1150 C   0  0  0  0  0  0  0  0  0  0  0  0
    7.4559   -0.5658    1.0206 C   0  0  0  0  0  0  0  0  0  0  0  0
    7.0393    0.6924    1.4481 C   0  0  0  0  0  0  0  0  0  0  0  0
    5.8470    1.2310    0.9698 C   0  0  0  0  0  0  0  0  0  0  0  0
    5.0519    0.5173    0.0618 C   0  0  0  0  0  0  0  0  0  0  0  0
    3.7610    1.1179   -0.4574 C   0  0  0  0  0  0  0  0  0  0  0  0
    2.8265    1.4817    0.6186 N   0  0  0  0  0  0  0  0  0  0  0  0
    1.7107    2.3183    0.1349 C   0  0  0  0  0  0  0  0  0  0  0  0
    0.3911    1.5734   -0.1609 C   0  0  0  0  0  0  0  0  0  0  0  0
   -0.0821    0.7707    0.9893 N   0  0  0  0  0  0  0  0  0  0  0  0
   -0.9992   -0.2433    0.7136 C   0  0  0  0  0  0  0  0  0  0  0  0
   -0.6675   -1.4875    0.9507 N   0  0  0  0  0  0  0  0  0  0  0  0
   -1.5621   -2.5365    0.6590 C   0  0  0  0  0  0  0  0  0  0  0  0
   -1.1606   -3.8454    0.9331 C   0  0  0  0  0  0  0  0  0  0  0  0
   -2.0068   -4.9238    0.6615 C   0  0  0  0  0  0  0  0  0  0  0  0
   -3.2681   -4.7014    0.1081 C   0  0  0  0  0  0  0  0  0  0  0  0
   -3.6902   -3.4020   -0.1757 C   0  0  0  0  0  0  0  0  0  0  0  0
   -2.8329   -2.3330    0.1025 C   0  0  0  0  0  0  0  0  0  0  0  0
   -3.1830   -0.9933   -0.1352 N   0  0  0  0  0  0  0  0  0  0  0  0
   -4.3472   -0.4696   -0.6450 C   0  0  0  0  0  0  0  0  0  0  0  0
   -4.2535    0.9097   -0.6296 C   0  0  0  0  0  0  0  0  0  0  0  0
   -5.3180    1.8085   -1.0515 C   0  0  0  0  0  0  0  0  0  0  0  0
   -6.1532    1.4905   -2.1304 C   0  0  0  0  0  0  0  0  0  0  0  0
   -7.1627    2.3707   -2.5327 C   0  0  0  0  0  0  0  0  0  0  0  0
   -7.3478    3.5755   -1.8609 C   0  0  0  0  0  0  0  0  0  0  0  0
   -6.5235    3.9033   -0.7874 C   0  0  0  0  0  0  0  0  0  0  0  0
   -5.5126    3.0246   -0.3859 C   0  0  0  0  0  0  0  0  0  0  0  0
   -2.9748    1.2191   -0.0918 C   0  0  0  0  0  0  0  0  0  0  0  0
   -2.3171    0.0315    0.1678 C   0  0  0  0  0  0  0  0  0  0  0  0
    0.9613    0.5161    2.0064 C   0  0  0  0  0  0  0  0  0  0  0  0
    2.3272    0.2815    1.3360 C   0  0  0  0  0  0  0  0  0  0  0  0
    5.4807   -0.7477   -0.3652 C   0  0  0  0  0  0  0  0  0  0  0  0
    8.3904   -0.9728    1.4009 H   0  0  0  0  0  0  0  0  0  0  0  0
    7.6418    1.2555    2.1563 H   0  0  0  0  0  0  0  0  0  0  0  0
    5.5257    2.2117    1.3144 H   0  0  0  0  0  0  0  0  0  0  0  0
    4.0504    2.0154   -1.0206 H   0  0  0  0  0  0  0  0  0  0  0  0
    3.2810    0.4427   -1.1786 H   0  0  0  0  0  0  0  0  0  0  0  0
    1.5072    3.0579    0.9225 H   0  0  0  0  0  0  0  0  0  0  0  0
    2.0022    2.9089   -0.7430 H   0  0  0  0  0  0  0  0  0  0  0  0
   -0.3649    2.3181   -0.4232 H   0  0  0  0  0  0  0  0  0  0  0  0
    0.5339    0.9242   -1.0326 H   0  0  0  0  0  0  0  0  0  0  0  0
   -0.1794   -4.0217    1.3651 H   0  0  0  0  0  0  0  0  0  0  0  0
   -1.6794   -5.9363    0.8850 H   0  0  0  0  0  0  0  0  0  0  0  0
   -3.9246   -5.5427   -0.0980 H   0  0  0  0  0  0  0  0  0  0  0  0
   -4.6765   -3.2541   -0.6009 H   0  0  0  0  0  0  0  0  0  0  0  0
   -5.1618   -1.1079   -0.9488 H   0  0  0  0  0  0  0  0  0  0  0  0
   -6.0180    0.5628   -2.6783 H   0  0  0  0  0  0  0  0  0  0  0  0
   -7.8022    2.1163   -3.3734 H   0  0  0  0  0  0  0  0  0  0  0  0
   -8.1334    4.2594   -2.1750 H   0  0  0  0  0  0  0  0  0  0  0  0
   -6.6661    4.8414   -0.2614 H   0  0  0  0  0  0  0  0  0  0  0  0
   -4.8866    3.2946    0.4597 H   0  0  0  0  0  0  0  0  0  0  0  0
   -2.5769    2.2081    0.0884 H   0  0  0  0  0  0  0  0  0  0  0  0
    0.7050   -0.3350    2.6490 H   0  0  0  0  0  0  0  0  0  0  0  0
    1.0165    1.3839    2.6758 H   0  0  0  0  0  0  0  0  0  0  0  0
    3.0556    0.0029    2.1062 H   0  0  0  0  0  0  0  0  0  0  0  0
    2.2290   -0.5697    0.6478 H   0  0  0  0  0  0  0  0  0  0  0  0
    4.8763   -1.3133   -1.0737 H   0  0  0  0  0  0  0  0  0  0  0  0
  1  2  1  0
  2  3  1  0
  2  4  1  0
  2  5  1  0
  5  6  2  0
  6  7  1  0
  7  8  2  0
  8  9  1  0
  9 10  1  0
 10 11  1  0
 11 12  1  0
 12 13  1  0
 13 14  1  0
 14 15  1  0
 15 16  2  0
 16 17  1  0
 17 18  2  0
 18 19  1  0
 19 20  2  0
 20 21  1  0
 21 22  2  0
 22 23  1  0
 23 24  1  0
 24 25  2  0
 25 26  1  0
 26 27  2  0
 27 28  1  0
 28 29  2  0
 29 30  1  0
 30 31  2  0
 25 32  1  0
 32 33  2  0
 14 34  1  0
 34 35  1  0
  9 36  2  0
 36  5  1  0
 35 11  1  0
 33 15  1  0
 22 17  1  0
 33 23  1  0
 31 26  1  0
  6 37  1  0
  7 38  1  0
  8 39  1  0
 10 40  1  0
 10 41  1  0
 12 42  1  0
 12 43  1  0
 13 44  1  0
 13 45  1  0
 18 46  1  0
 19 47  1  0
 20 48  1  0
 21 49  1  0
 24 50  1  0
 27 51  1  0
 28 52  1  0
 29 53  1  0
 30 54  1  0
 31 55  1  0
 32 56  1  0
 34 57  1  0
 34 58  1  0
 35 59  1  0
 35 60  1  0
 36 61  1  0
M  END
$$$$
