
     RDKit          3D

 50 53  0  0  0  0  0  0  0  0999 V2000
   -0.8865    2.8070    0.0285 C   0  0  0  0  0  0  0  0  0  0  0  0
   -2.0480    2.1112   -0.4829 N   0  0  0  0  0  0  0  0  0  0  0  0
   -2.5454    2.2904   -1.7487 C   0  0  0  0  0  0  0  0  0  0  0  0
   -3.6422    1.4740   -1.8983 C   0  0  0  0  0  0  0  0  0  0  0  0
   -3.8101    0.7726   -0.6831 C   0  0  0  0  0  0  0  0  0  0  0  0
   -2.8073    1.1712    0.1858 C   0  0  0  0  0  0  0  0  0  0  0  0
   -2.5407    0.7225    1.5919 C   0  0  0  0  0  0  0  0  0  0  0  0
   -1.2646   -0.0485    1.7244 C   0  0  0  0  0  0  0  0  0  0  0  0
   -0.1605    0.4435    2.2571 N   0  0  0  0  0  0  0  0  0  0  0  0
    0.8478   -0.4489    2.0565 N   0  0  0  0  0  0  0  0  0  0  0  0
    0.3602   -1.4710    1.3899 C   0  0  0  0  0  0  0  0  0  0  0  0
    1.2763   -2.8929    1.0019 S   0  0  0  0  0  0  0  0  0  0  0  0
    2.9426   -2.4096    1.5476 C   0  0  0  0  0  0  0  0  0  0  0  0
    3.5974   -1.4725    0.5430 C   0  0  0  0  0  0  0  0  0  0  0  0
    4.3087   -1.9198   -0.3534 O   0  0  0  0  0  0  0  0  0  0  0  0
    3.2971   -0.1398    0.7681 N   0  0  0  0  0  0  0  0  0  0  0  0
    3.7487    0.9818    0.0493 C   0  0  0  0  0  0  0  0  0  0  0  0
    4.7343    0.9338   -0.9369 C   0  0  0  0  0  0  0  0  0  0  0  0
    5.1292    2.1004   -1.5980 C   0  0  0  0  0  0  0  0  0  0  0  0
    4.5421    3.3219   -1.2780 C   0  0  0  0  0  0  0  0  0  0  0  0
    3.5624    3.3810   -0.2905 C   0  0  0  0  0  0  0  0  0  0  0  0
    3.1720    2.2162    0.3742 C   0  0  0  0  0  0  0  0  0  0  0  0
   -0.9966   -1.2973    1.1690 N   0  0  0  0  0  0  0  0  0  0  0  0
   -1.9128   -2.1798    0.5389 C   0  0  0  0  0  0  0  0  0  0  0  0
   -1.5859   -2.7839   -0.6838 C   0  0  0  0  0  0  0  0  0  0  0  0
   -2.4921   -3.6563   -1.2911 C   0  0  0  0  0  0  0  0  0  0  0  0
   -3.7109   -3.9196   -0.6789 C   0  0  0  0  0  0  0  0  0  0  0  0
   -4.5729   -4.7710   -1.2536 F   0  0  0  0  0  0  0  0  0  0  0  0
   -4.0439   -3.3284    0.5333 C   0  0  0  0  0  0  0  0  0  0  0  0
   -3.1451   -2.4555    1.1489 C   0  0  0  0  0  0  0  0  0  0  0  0
   -0.7319    3.7253   -0.5432 H   0  0  0  0  0  0  0  0  0  0  0  0
   -1.0532    3.0651    1.0747 H   0  0  0  0  0  0  0  0  0  0  0  0
   -0.0226    2.1490   -0.0810 H   0  0  0  0  0  0  0  0  0  0  0  0
   -2.0814    2.9815   -2.4411 H   0  0  0  0  0  0  0  0  0  0  0  0
   -4.2525    1.3910   -2.7887 H   0  0  0  0  0  0  0  0  0  0  0  0
   -4.5817    0.0429   -0.4674 H   0  0  0  0  0  0  0  0  0  0  0  0
   -3.3894    0.1474    1.9744 H   0  0  0  0  0  0  0  0  0  0  0  0
   -2.4900    1.6053    2.2404 H   0  0  0  0  0  0  0  0  0  0  0  0
    2.9277   -1.9629    2.5471 H   0  0  0  0  0  0  0  0  0  0  0  0
    3.5594   -3.3116    1.6169 H   0  0  0  0  0  0  0  0  0  0  0  0
    2.5717    0.0441    1.4610 H   0  0  0  0  0  0  0  0  0  0  0  0
    5.2254    0.0051   -1.2046 H   0  0  0  0  0  0  0  0  0  0  0  0
    5.9028    2.0515   -2.3609 H   0  0  0  0  0  0  0  0  0  0  0  0
    4.8551    4.2262   -1.7924 H   0  0  0  0  0  0  0  0  0  0  0  0
    3.1091    4.3324   -0.0285 H   0  0  0  0  0  0  0  0  0  0  0  0
    2.4107    2.2842    1.1482 H   0  0  0  0  0  0  0  0  0  0  0  0
   -0.6539   -2.5652   -1.1977 H   0  0  0  0  0  0  0  0  0  0  0  0
   -2.2585   -4.1299   -2.2392 H   0  0  0  0  0  0  0  0  0  0  0  0
   -4.9937   -3.5652    1.0016 H   0  0  0  0  0  0  0  0  0  0  0  0
   -3.4069   -2.0488    2.1208 H   0  0  0  0  0  0  0  0  0  0  0  0
  1  2  1  0
  2  3  1  0
  3  4  2  0
  4  5  1  0
  5  6  2  0
  6  7  1  0
  7  8  1  0
  8  9  2  0
  9 10  1  0
 10 11  2  0
 11 12  1  0
 12 13  1  0
 13 14  1  0
 14 15  2  0
 14 16  1  0
 16 17  1  0
 17 18  2  0
 18 19  1  0
 19 20  2  0
 20 21  1  0
 21 22  2  0
 11 23  1  0
 23 24  1  0
 24 25  2  0
 25 26  1  0
 26 27  2  0
 27 28  1  0
 27 29  1  0
 29 30  2  0
  6  2  1  0
 23  8  1  0
 30 24  1  0
 22 17  1  0
  1 31  1  0
  1 32  1  0
  1 33  1  0
  3 34  1  0
  4 35  1  0
  5 36  1  0
  7 37  1  0
  7 38  1  0
 13 39  1  0
 13 40  1  0
 16 41  1  0
 18 42  1  0
 19 43  1  0
 20 44  1  0
 21 45  1  0
 22 46  1  0
 25 47  1  0
 26 48  1  0
 29 49  1  0
 30 50  1  0
M  END
$$$$
