
     RDKit          3D

 45 47  0  0  0  0  0  0  0  0999 V2000
   -7.7054    2.0729    2.8309 C   0  0  0  0  0  0  0  0  0  0  0  0
   -7.1246    0.7839    2.9810 O   0  0  0  0  0  0  0  0  0  0  0  0
   -5.9607    0.5477    2.3026 C   0  0  0  0  0  0  0  0  0  0  0  0
   -5.2856    1.4563    1.4878 C   0  0  0  0  0  0  0  0  0  0  0  0
   -4.0971    1.0829    0.8496 C   0  0  0  0  0  0  0  0  0  0  0  0
   -3.5718   -0.2043    1.0154 C   0  0  0  0  0  0  0  0  0  0  0  0
   -2.2807   -0.6022    0.3460 C   0  0  0  0  0  0  0  0  0  0  0  0
   -1.0782   -0.4015    1.2706 C   0  0  0  0  0  0  0  0  0  0  0  0
    0.1708   -0.7381    0.6213 N   0  0  0  0  0  0  0  0  0  0  0  0
    0.6061   -2.0381    0.4749 C   0  0  0  0  0  0  0  0  0  0  0  0
   -0.0328   -2.9999    0.8922 O   0  0  0  0  0  0  0  0  0  0  0  0
    1.8743   -2.1569   -0.2128 C   0  0  0  0  0  0  0  0  0  0  0  0
    2.6578   -3.2583   -0.4948 C   0  0  0  0  0  0  0  0  0  0  0  0
    3.7988   -2.7806   -1.1841 C   0  0  0  0  0  0  0  0  0  0  0  0
    3.6562   -1.4108   -1.2803 C   0  0  0  0  0  0  0  0  0  0  0  0
    4.4499   -0.3506   -1.8926 C   0  0  0  0  0  0  0  0  0  0  0  0
    5.0213   -0.5967   -3.1559 C   0  0  0  0  0  0  0  0  0  0  0  0
    5.7865    0.3755   -3.8076 C   0  0  0  0  0  0  0  0  0  0  0  0
    5.9924    1.6141   -3.1925 C   0  0  0  0  0  0  0  0  0  0  0  0
    6.7940    2.6401   -3.8708 N   0  0  0  0  0  4  0  0  0  0  0  0
    7.2840    2.3519   -4.9714 O   0  0  0  0  0  0  0  0  0  0  0  0
    6.9315    3.7315   -3.3018 O   0  0  0  0  0  1  0  0  0  0  0  0
    5.4441    1.8816   -1.9339 C   0  0  0  0  0  0  0  0  0  0  0  0
    4.6788    0.9017   -1.2877 C   0  0  0  0  0  0  0  0  0  0  0  0
    4.0845    1.3041    0.2893 Cl  0  0  0  0  0  0  0  0  0  0  0  0
    2.4770   -1.0310   -0.7107 O   0  0  0  0  0  0  0  0  0  0  0  0
   -4.2500   -1.1109    1.8374 C   0  0  0  0  0  0  0  0  0  0  0  0
   -5.4354   -0.7348    2.4730 C   0  0  0  0  0  0  0  0  0  0  0  0
   -7.9798    2.2637    1.7881 H   0  0  0  0  0  0  0  0  0  0  0  0
   -7.0395    2.8530    3.2144 H   0  0  0  0  0  0  0  0  0  0  0  0
   -8.6234    2.0972    3.4261 H   0  0  0  0  0  0  0  0  0  0  0  0
   -5.6548    2.4635    1.3271 H   0  0  0  0  0  0  0  0  0  0  0  0
   -3.5859    1.8077    0.2198 H   0  0  0  0  0  0  0  0  0  0  0  0
   -2.3473   -1.6483    0.0212 H   0  0  0  0  0  0  0  0  0  0  0  0
   -2.1461   -0.0193   -0.5744 H   0  0  0  0  0  0  0  0  0  0  0  0
   -1.0024    0.6448    1.5869 H   0  0  0  0  0  0  0  0  0  0  0  0
   -1.1784   -1.0161    2.1729 H   0  0  0  0  0  0  0  0  0  0  0  0
    0.7598   -0.0050    0.2413 H   0  0  0  0  0  0  0  0  0  0  0  0
    2.4227   -4.2794   -0.2248 H   0  0  0  0  0  0  0  0  0  0  0  0
    4.6278   -3.3659   -1.5572 H   0  0  0  0  0  0  0  0  0  0  0  0
    4.8602   -1.5524   -3.6543 H   0  0  0  0  0  0  0  0  0  0  0  0
    6.2065    0.1512   -4.7869 H   0  0  0  0  0  0  0  0  0  0  0  0
    5.6100    2.8407   -1.4460 H   0  0  0  0  0  0  0  0  0  0  0  0
   -3.8611   -2.1160    1.9888 H   0  0  0  0  0  0  0  0  0  0  0  0
   -5.9543   -1.4489    3.1078 H   0  0  0  0  0  0  0  0  0  0  0  0
  1  2  1  0
  2  3  1  0
  3  4  2  0
  4  5  1  0
  5  6  2  0
  6  7  1  0
  7  8  1  0
  8  9  1  0
  9 10  1  0
 10 11  2  0
 10 12  1  0
 12 13  2  0
 13 14  1  0
 14 15  2  0
 15 16  1  0
 16 17  2  0
 17 18  1  0
 18 19  2  0
 19 20  1  0
 20 21  2  0
 20 22  1  0
 19 23  1  0
 23 24  2  0
 24 25  1  0
 15 26  1  0
  6 27  1  0
 27 28  2  0
 28  3  1  0
 26 12  1  0
 24 16  1  0
  1 29  1  0
  1 30  1  0
  1 31  1  0
  4 32  1  0
  5 33  1  0
  7 34  1  0
  7 35  1  0
  8 36  1  0
  8 37  1  0
  9 38  1  0
 13 39  1  0
 14 40  1  0
 17 41  1  0
 18 42  1  0
 23 43  1  0
 27 44  1  0
 28 45  1  0
M  CHG  2  20   1  22  -1
M  END
$$$$
