
     RDKit          3D

 43 45  0  0  0  0  0  0  0  0999 V2000
   -7.9431    1.1720   -0.0519 C   0  0  0  0  0  0  0  0  0  0  0  0
   -6.5372    0.8941   -0.2893 N   0  0  0  0  0  0  0  0  0  0  0  0
   -6.1255    0.8431   -1.6856 C   0  0  0  0  0  0  0  0  0  0  0  0
   -5.6580    1.0246    0.7855 C   0  0  0  0  0  0  0  0  0  0  0  0
   -5.9952    1.4291    1.8957 O   0  0  0  0  0  0  0  0  0  0  0  0
   -4.2431    0.6320    0.6042 C   0  0  0  0  0  0  0  0  0  0  0  0
   -3.9121   -0.6553    0.1755 C   0  0  0  0  0  0  0  0  0  0  0  0
   -2.5677   -1.0155    0.0418 C   0  0  0  0  0  0  0  0  0  0  0  0
   -1.5455   -0.1013    0.3411 C   0  0  0  0  0  0  0  0  0  0  0  0
   -0.2183   -0.5528    0.1776 N   0  0  0  0  0  0  0  0  0  0  0  0
    0.9562    0.1705    0.3477 C   0  0  0  0  0  0  0  0  0  0  0  0
    0.9952    1.3628    0.6361 O   0  0  0  0  0  0  0  0  0  0  0  0
    2.1693   -0.6116    0.1369 C   0  0  0  0  0  0  0  0  0  0  0  0
    2.4200   -1.9496   -0.1160 C   0  0  0  0  0  0  0  0  0  0  0  0
    3.8277   -2.0937   -0.2214 C   0  0  0  0  0  0  0  0  0  0  0  0
    4.3725   -0.8412   -0.0270 C   0  0  0  0  0  0  0  0  0  0  0  0
    5.7313   -0.3033   -0.0054 C   0  0  0  0  0  0  0  0  0  0  0  0
    6.8376   -1.1455   -0.1999 C   0  0  0  0  0  0  0  0  0  0  0  0
    8.1411   -0.6358   -0.1811 C   0  0  0  0  0  0  0  0  0  0  0  0
    8.3510    0.7237    0.0324 C   0  0  0  0  0  0  0  0  0  0  0  0
    9.9530    1.3492    0.0542 Cl  0  0  0  0  0  0  0  0  0  0  0  0
    7.2699    1.5772    0.2277 C   0  0  0  0  0  0  0  0  0  0  0  0
    5.9683    1.0647    0.2089 C   0  0  0  0  0  0  0  0  0  0  0  0
    3.3661    0.0540    0.1903 O   0  0  0  0  0  0  0  0  0  0  0  0
   -1.8921    1.1755    0.7921 C   0  0  0  0  0  0  0  0  0  0  0  0
   -3.2364    1.5400    0.9332 C   0  0  0  0  0  0  0  0  0  0  0  0
   -8.1454    2.2141   -0.3167 H   0  0  0  0  0  0  0  0  0  0  0  0
   -8.5505    0.5083   -0.6741 H   0  0  0  0  0  0  0  0  0  0  0  0
   -8.2100    1.0127    0.9966 H   0  0  0  0  0  0  0  0  0  0  0  0
   -6.5832   -0.0338   -2.1520 H   0  0  0  0  0  0  0  0  0  0  0  0
   -5.0432    0.7984   -1.8109 H   0  0  0  0  0  0  0  0  0  0  0  0
   -6.4831    1.7479   -2.1875 H   0  0  0  0  0  0  0  0  0  0  0  0
   -4.6939   -1.3782   -0.0422 H   0  0  0  0  0  0  0  0  0  0  0  0
   -2.3348   -2.0225   -0.2950 H   0  0  0  0  0  0  0  0  0  0  0  0
   -0.1200   -1.5111   -0.1214 H   0  0  0  0  0  0  0  0  0  0  0  0
    1.6923   -2.7423   -0.2090 H   0  0  0  0  0  0  0  0  0  0  0  0
    4.3741   -3.0065   -0.4130 H   0  0  0  0  0  0  0  0  0  0  0  0
    6.7026   -2.2109   -0.3680 H   0  0  0  0  0  0  0  0  0  0  0  0
    8.9838   -1.3050   -0.3334 H   0  0  0  0  0  0  0  0  0  0  0  0
    7.4263    2.6395    0.3950 H   0  0  0  0  0  0  0  0  0  0  0  0
    5.1358    1.7497    0.3645 H   0  0  0  0  0  0  0  0  0  0  0  0
   -1.1429    1.9145    1.0597 H   0  0  0  0  0  0  0  0  0  0  0  0
   -3.4928    2.5300    1.3041 H   0  0  0  0  0  0  0  0  0  0  0  0
  1  2  1  0
  2  3  1  0
  2  4  1  0
  4  5  2  0
  4  6  1  0
  6  7  2  0
  7  8  1  0
  8  9  2  0
  9 10  1  0
 10 11  1  0
 11 12  2  0
 11 13  1  0
 13 14  2  0
 14 15  1  0
 15 16  2  0
 16 17  1  0
 17 18  2  0
 18 19  1  0
 19 20  2  0
 20 21  1  0
 20 22  1  0
 22 23  2  0
 16 24  1  0
  9 25  1  0
 25 26  2  0
 26  6  1  0
 24 13  1  0
 23 17  1  0
  1 27  1  0
  1 28  1  0
  1 29  1  0
  3 30  1  0
  3 31  1  0
  3 32  1  0
  7 33  1  0
  8 34  1  0
 10 35  1  0
 14 36  1  0
 15 37  1  0
 18 38  1  0
 19 39  1  0
 22 40  1  0
 23 41  1  0
 25 42  1  0
 26 43  1  0
M  END
$$$$
