
     RDKit          3D

 35 36  0  0  0  0  0  0  0  0999 V2000
   -5.2314    1.1667   -2.3612 C   0  0  0  0  0  0  0  0  0  0  0  0
   -5.1609    0.6668   -0.9421 C   0  0  0  0  0  0  0  0  0  0  0  0
   -6.1640    0.2590   -0.3603 O   0  0  0  0  0  0  0  0  0  0  0  0
   -3.8460    0.6800   -0.2346 C   0  0  0  0  0  0  0  0  0  0  0  0
   -2.7075    1.2827   -0.7841 C   0  0  0  0  0  0  0  0  0  0  0  0
   -1.4975    1.2702   -0.0810 C   0  0  0  0  0  0  0  0  0  0  0  0
   -1.4251    0.6667    1.1740 C   0  0  0  0  0  0  0  0  0  0  0  0
   -0.1806    0.6118    1.8688 N   0  0  0  0  0  0  0  0  0  0  0  0
    0.9040   -0.6195    1.4022 S   0  0  0  0  0  6  0  0  0  0  0  0
    0.2602   -1.4918    0.4442 O   0  0  0  0  0  0  0  0  0  0  0  0
    1.4350   -1.1184    2.6547 O   0  0  0  0  0  0  0  0  0  0  0  0
    2.1697    0.3595    0.5844 C   0  0  0  0  0  0  0  0  0  0  0  0
    3.2938   -0.5445    0.1461 C   0  0  0  0  0  0  0  0  0  0  0  0
    3.2473   -1.1861   -1.1011 C   0  0  0  0  0  0  0  0  0  0  0  0
    4.2871   -2.0271   -1.5044 C   0  0  0  0  0  0  0  0  0  0  0  0
    5.3777   -2.2334   -0.6632 C   0  0  0  0  0  0  0  0  0  0  0  0
    6.6590   -3.2676   -1.1616 Cl  0  0  0  0  0  0  0  0  0  0  0  0
    5.4355   -1.6089    0.5803 C   0  0  0  0  0  0  0  0  0  0  0  0
    4.3961   -0.7680    0.9851 C   0  0  0  0  0  0  0  0  0  0  0  0
   -2.5496    0.0531    1.7232 C   0  0  0  0  0  0  0  0  0  0  0  0
   -3.7591    0.0670    1.0234 C   0  0  0  0  0  0  0  0  0  0  0  0
   -5.0656    2.2466   -2.3881 H   0  0  0  0  0  0  0  0  0  0  0  0
   -4.5035    0.6441   -2.9873 H   0  0  0  0  0  0  0  0  0  0  0  0
   -6.2274    0.9600   -2.7654 H   0  0  0  0  0  0  0  0  0  0  0  0
   -2.7338    1.7693   -1.7546 H   0  0  0  0  0  0  0  0  0  0  0  0
   -0.6228    1.7417   -0.5182 H   0  0  0  0  0  0  0  0  0  0  0  0
   -0.2652    0.5796    2.8882 H   0  0  0  0  0  0  0  0  0  0  0  0
    2.5260    1.1158    1.2908 H   0  0  0  0  0  0  0  0  0  0  0  0
    1.7168    0.8601   -0.2762 H   0  0  0  0  0  0  0  0  0  0  0  0
    2.3950   -1.0478   -1.7646 H   0  0  0  0  0  0  0  0  0  0  0  0
    4.2364   -2.5220   -2.4707 H   0  0  0  0  0  0  0  0  0  0  0  0
    6.2818   -1.7769    1.2413 H   0  0  0  0  0  0  0  0  0  0  0  0
    4.4509   -0.2986    1.9661 H   0  0  0  0  0  0  0  0  0  0  0  0
   -2.4993   -0.4494    2.6853 H   0  0  0  0  0  0  0  0  0  0  0  0
   -4.6330   -0.4143    1.4603 H   0  0  0  0  0  0  0  0  0  0  0  0
  1  2  1  0
  2  3  2  0
  2  4  1  0
  4  5  2  0
  5  6  1  0
  6  7  2  0
  7  8  1  0
  8  9  1  0
  9 10  2  0
  9 11  2  0
  9 12  1  0
 12 13  1  0
 13 14  2  0
 14 15  1  0
 15 16  2  0
 16 17  1  0
 16 18  1  0
 18 19  2  0
  7 20  1  0
 20 21  2  0
 21  4  1  0
 19 13  1  0
  1 22  1  0
  1 23  1  0
  1 24  1  0
  5 25  1  0
  6 26  1  0
  8 27  1  0
 12 28  1  0
 12 29  1  0
 14 30  1  0
 15 31  1  0
 18 32  1  0
 19 33  1  0
 20 34  1  0
 21 35  1  0
M  END
$$$$
