
     RDKit          3D

 44 46  0  0  0  0  0  0  0  0999 V2000
    7.2369    4.7013    2.9214 C   0  0  0  0  0  0  0  0  0  0  0  0
    7.0933    4.1617    1.6135 O   0  0  0  0  0  0  0  0  0  0  0  0
    5.9328    3.4923    1.3441 C   0  0  0  0  0  0  0  0  0  0  0  0
    5.8392    2.9814    0.0495 C   0  0  0  0  0  0  0  0  0  0  0  0
    4.7039    2.2738   -0.3608 C   0  0  0  0  0  0  0  0  0  0  0  0
    3.6340    2.0615    0.5188 C   0  0  0  0  0  0  0  0  0  0  0  0
    2.4427    1.3258    0.1075 C   0  0  0  0  0  0  0  0  0  0  0  0
    1.2647    0.9647    0.7180 C   0  0  0  0  0  0  0  0  0  0  0  0
    0.5402    0.2514   -0.2695 C   0  0  0  0  0  0  0  0  0  0  0  0
   -0.7895   -0.3562   -0.1349 C   0  0  0  0  0  0  0  0  0  0  0  0
   -1.4111   -0.2828    0.9193 O   0  0  0  0  0  0  0  0  0  0  0  0
   -1.2087   -0.9816   -1.2955 N   0  0  0  0  0  0  0  0  0  0  0  0
   -2.4150   -1.6645   -1.5376 C   0  0  0  0  0  0  0  0  0  0  0  0
   -2.5883   -2.2101   -2.8126 C   0  0  0  0  0  0  0  0  0  0  0  0
   -3.7561   -2.9052   -3.1409 C   0  0  0  0  0  0  0  0  0  0  0  0
   -4.7708   -3.0647   -2.1949 C   0  0  0  0  0  0  0  0  0  0  0  0
   -5.9493   -3.7294   -2.4245 O   0  0  0  0  0  0  0  0  0  0  0  0
   -6.1492   -4.2939   -3.7120 C   0  0  0  0  0  0  0  0  0  0  0  0
   -4.6054   -2.5183   -0.9070 C   0  0  0  0  0  0  0  0  0  0  0  0
   -5.6476   -2.7175   -0.0331 O   0  0  0  0  0  0  0  0  0  0  0  0
   -5.5225   -2.1819    1.2770 C   0  0  0  0  0  0  0  0  0  0  0  0
   -3.4286   -1.8228   -0.5896 C   0  0  0  0  0  0  0  0  0  0  0  0
    1.2397    0.1833   -1.4161 N   0  0  0  0  0  0  0  0  0  0  0  0
    2.4240    0.8550   -1.1734 O   0  0  0  0  0  0  0  0  0  0  0  0
    3.7382    2.5795    1.8184 C   0  0  0  0  0  0  0  0  0  0  0  0
    4.8764    3.2886    2.2289 C   0  0  0  0  0  0  0  0  0  0  0  0
    7.2278    3.9098    3.6781 H   0  0  0  0  0  0  0  0  0  0  0  0
    6.4668    5.4526    3.1251 H   0  0  0  0  0  0  0  0  0  0  0  0
    8.2099    5.1995    2.9726 H   0  0  0  0  0  0  0  0  0  0  0  0
    6.6580    3.1345   -0.6499 H   0  0  0  0  0  0  0  0  0  0  0  0
    4.6734    1.8931   -1.3796 H   0  0  0  0  0  0  0  0  0  0  0  0
    0.9506    1.1743    1.7296 H   0  0  0  0  0  0  0  0  0  0  0  0
   -0.5420   -0.9288   -2.0613 H   0  0  0  0  0  0  0  0  0  0  0  0
   -1.8177   -2.1039   -3.5726 H   0  0  0  0  0  0  0  0  0  0  0  0
   -3.8406   -3.3088   -4.1441 H   0  0  0  0  0  0  0  0  0  0  0  0
   -5.3979   -5.0606   -3.9284 H   0  0  0  0  0  0  0  0  0  0  0  0
   -7.1296   -4.7798   -3.7158 H   0  0  0  0  0  0  0  0  0  0  0  0
   -6.1596   -3.5193   -4.4858 H   0  0  0  0  0  0  0  0  0  0  0  0
   -6.4339   -2.4326    1.8283 H   0  0  0  0  0  0  0  0  0  0  0  0
   -4.6787   -2.6328    1.8096 H   0  0  0  0  0  0  0  0  0  0  0  0
   -5.4404   -1.0903    1.2518 H   0  0  0  0  0  0  0  0  0  0  0  0
   -3.3056   -1.4048    0.4005 H   0  0  0  0  0  0  0  0  0  0  0  0
    2.9341    2.4407    2.5375 H   0  0  0  0  0  0  0  0  0  0  0  0
    4.9016    3.6661    3.2458 H   0  0  0  0  0  0  0  0  0  0  0  0
  1  2  1  0
  2  3  1  0
  3  4  2  0
  4  5  1  0
  5  6  2  0
  6  7  1  0
  7  8  2  0
  8  9  1  0
  9 10  1  0
 10 11  2  0
 10 12  1  0
 12 13  1  0
 13 14  2  0
 14 15  1  0
 15 16  2  0
 16 17  1  0
 17 18  1  0
 16 19  1  0
 19 20  1  0
 20 21  1  0
 19 22  2  0
  9 23  2  0
 23 24  1  0
  6 25  1  0
 25 26  2  0
 26  3  1  0
 24  7  1  0
 22 13  1  0
  1 27  1  0
  1 28  1  0
  1 29  1  0
  4 30  1  0
  5 31  1  0
  8 32  1  0
 12 33  1  0
 14 34  1  0
 15 35  1  0
 18 36  1  0
 18 37  1  0
 18 38  1  0
 21 39  1  0
 21 40  1  0
 21 41  1  0
 22 42  1  0
 25 43  1  0
 26 44  1  0
M  END
$$$$
