
     RDKit          3D

 53 55  0  0  0  0  0  0  0  0999 V2000
    9.2911   -0.4920    2.1838 C   0  0  0  0  0  0  0  0  0  0  0  0
    8.3811   -1.1056    1.2799 O   0  0  0  0  0  0  0  0  0  0  0  0
    7.0642   -0.7531    1.3948 C   0  0  0  0  0  0  0  0  0  0  0  0
    6.1915   -1.4831    0.5801 C   0  0  0  0  0  0  0  0  0  0  0  0
    4.8188   -1.2324    0.6012 C   0  0  0  0  0  0  0  0  0  0  0  0
    4.3215   -0.2341    1.4395 C   0  0  0  0  0  0  0  0  0  0  0  0
    2.5757    0.0814    1.4630 S   0  0  0  0  0  6  0  0  0  0  0  0
    1.9061   -1.1884    1.6246 O   0  0  0  0  0  0  0  0  0  0  0  0
    2.3227    1.1873    2.3630 O   0  0  0  0  0  0  0  0  0  0  0  0
    2.2824    0.6344   -0.0887 N   0  0  0  0  0  0  0  0  0  0  0  0
    2.9562    1.8541   -0.5558 C   0  0  0  0  0  0  0  0  0  0  0  0
    1.8747    2.6236   -1.2840 C   0  0  0  0  0  0  0  0  0  0  0  0
    0.9006    1.6406   -1.6412 O   0  0  0  0  0  0  0  0  0  0  0  0
    0.8840    0.6829   -0.5580 C   0  0  0  0  0  0  0  0  0  0  0  0
   -0.1600    1.1371    0.4970 C   0  0  0  0  0  0  0  0  0  0  0  0
   -1.4799    1.3692   -0.0659 N   0  0  0  0  0  0  0  0  0  0  0  0
   -2.3035    0.3329   -0.4321 C   0  0  0  0  0  0  0  0  0  0  0  0
   -2.0941   -0.8553   -0.2352 O   0  0  0  0  0  0  0  0  0  0  0  0
   -3.5853    0.7848   -1.1649 C   0  0  0  0  0  0  0  0  0  0  0  0
   -3.6560    1.9121   -1.6346 O   0  0  0  0  0  0  0  0  0  0  0  0
   -4.5598   -0.1826   -1.2073 N   0  0  0  0  0  0  0  0  0  0  0  0
   -5.7819   -0.0002   -1.9454 C   0  0  0  0  0  0  0  0  0  0  0  0
   -6.8981   -0.8298   -1.3623 C   0  0  0  0  0  0  0  0  0  0  0  0
   -7.1326   -2.1213   -1.8711 C   0  0  0  0  0  0  0  0  0  0  0  0
   -8.1490   -2.9274   -1.3468 C   0  0  0  0  0  0  0  0  0  0  0  0
   -8.9423   -2.4587   -0.3015 C   0  0  0  0  0  0  0  0  0  0  0  0
   -8.7143   -1.1865    0.2258 C   0  0  0  0  0  0  0  0  0  0  0  0
   -7.6967   -0.3770   -0.2969 C   0  0  0  0  0  0  0  0  0  0  0  0
   -7.4676    1.1800    0.4206 Cl  0  0  0  0  0  0  0  0  0  0  0  0
    5.1795    0.5008    2.2614 C   0  0  0  0  0  0  0  0  0  0  0  0
    6.5532    0.2396    2.2352 C   0  0  0  0  0  0  0  0  0  0  0  0
    9.3822    0.5796    1.9735 H   0  0  0  0  0  0  0  0  0  0  0  0
    9.0016   -0.6667    3.2271 H   0  0  0  0  0  0  0  0  0  0  0  0
   10.2745   -0.9476    2.0297 H   0  0  0  0  0  0  0  0  0  0  0  0
    6.5857   -2.2652   -0.0658 H   0  0  0  0  0  0  0  0  0  0  0  0
    4.1480   -1.8180   -0.0252 H   0  0  0  0  0  0  0  0  0  0  0  0
    3.7556    1.5640   -1.2441 H   0  0  0  0  0  0  0  0  0  0  0  0
    3.3931    2.4572    0.2431 H   0  0  0  0  0  0  0  0  0  0  0  0
    1.4054    3.3711   -0.6336 H   0  0  0  0  0  0  0  0  0  0  0  0
    2.2450    3.1286   -2.1795 H   0  0  0  0  0  0  0  0  0  0  0  0
    0.6024   -0.2838   -0.9881 H   0  0  0  0  0  0  0  0  0  0  0  0
    0.1375    2.0850    0.9581 H   0  0  0  0  0  0  0  0  0  0  0  0
   -0.2629    0.3882    1.2881 H   0  0  0  0  0  0  0  0  0  0  0  0
   -1.7014    2.2769   -0.4717 H   0  0  0  0  0  0  0  0  0  0  0  0
   -4.2987   -1.1049   -0.8699 H   0  0  0  0  0  0  0  0  0  0  0  0
   -6.0488    1.0622   -1.9970 H   0  0  0  0  0  0  0  0  0  0  0  0
   -5.5813   -0.3080   -2.9814 H   0  0  0  0  0  0  0  0  0  0  0  0
   -6.5211   -2.5097   -2.6842 H   0  0  0  0  0  0  0  0  0  0  0  0
   -8.3202   -3.9210   -1.7527 H   0  0  0  0  0  0  0  0  0  0  0  0
   -9.7341   -3.0852    0.1081 H   0  0  0  0  0  0  0  0  0  0  0  0
   -9.3331   -0.8300    1.0492 H   0  0  0  0  0  0  0  0  0  0  0  0
    4.7924    1.2697    2.9273 H   0  0  0  0  0  0  0  0  0  0  0  0
    7.1961    0.8244    2.8830 H   0  0  0  0  0  0  0  0  0  0  0  0
  1  2  1  0
  2  3  1  0
  3  4  2  0
  4  5  1  0
  5  6  2  0
  6  7  1  0
  7  8  2  0
  7  9  2  0
  7 10  1  0
 10 11  1  0
 11 12  1  0
 12 13  1  0
 13 14  1  0
 14 15  1  0
 15 16  1  0
 16 17  1  0
 17 18  2  0
 17 19  1  0
 19 20  2  0
 19 21  1  0
 21 22  1  0
 22 23  1  0
 23 24  2  0
 24 25  1  0
 25 26  2  0
 26 27  1  0
 27 28  2  0
 28 29  1  0
  6 30  1  0
 30 31  2  0
 31  3  1  0
 14 10  1  0
 28 23  1  0
  1 32  1  0
  1 33  1  0
  1 34  1  0
  4 35  1  0
  5 36  1  0
 11 37  1  0
 11 38  1  0
 12 39  1  0
 12 40  1  0
 14 41  1  0
 15 42  1  0
 15 43  1  0
 16 44  1  0
 21 45  1  0
 22 46  1  0
 22 47  1  0
 24 48  1  0
 25 49  1  0
 26 50  1  0
 27 51  1  0
 30 52  1  0
 31 53  1  0
M  END
$$$$
