
     RDKit          3D

 56 58  0  0  0  0  0  0  0  0999 V2000
   -6.4787   -0.3596    0.9833 C   0  0  0  0  0  0  0  0  0  0  0  0
   -5.1954   -0.9469    1.2054 O   0  0  0  0  0  0  0  0  0  0  0  0
   -4.8552   -1.7511    0.1506 C   0  0  0  0  0  0  0  0  0  0  0  0
   -5.3233   -3.0656    0.1206 C   0  0  0  0  0  0  0  0  0  0  0  0
   -4.9307   -3.9187   -0.9151 C   0  0  0  0  0  0  0  0  0  0  0  0
   -4.0599   -3.4652   -1.9102 C   0  0  0  0  0  0  0  0  0  0  0  0
   -3.5742   -2.1565   -1.8731 C   0  0  0  0  0  0  0  0  0  0  0  0
   -3.9703   -1.3047   -0.8349 C   0  0  0  0  0  0  0  0  0  0  0  0
   -3.4491    0.0731   -0.7908 C   0  0  0  0  0  0  0  0  0  0  0  0
   -4.2075    1.0102   -1.0238 O   0  0  0  0  0  0  0  0  0  0  0  0
   -1.9721    0.2166   -0.4668 C   0  0  0  0  0  0  0  0  0  0  0  0
   -1.7174    1.5562   -0.0412 O   0  0  0  0  0  0  0  0  0  0  0  0
   -0.4262    1.8114    0.2793 C   0  0  0  0  0  0  0  0  0  0  0  0
    0.4908    1.0089    0.1850 O   0  0  0  0  0  0  0  0  0  0  0  0
   -0.2932    3.2150    0.7659 C   0  0  0  0  0  0  0  0  0  0  0  0
   -1.4243    3.9380    1.1832 C   0  0  0  0  0  0  0  0  0  0  0  0
   -1.2953    5.2451    1.6579 C   0  0  0  0  0  0  0  0  0  0  0  0
   -0.0399    5.8461    1.7147 C   0  0  0  0  0  0  0  0  0  0  0  0
    1.0914    5.1398    1.3049 C   0  0  0  0  0  0  0  0  0  0  0  0
    0.9717    3.8202    0.8510 C   0  0  0  0  0  0  0  0  0  0  0  0
    2.0795    3.1415    0.4105 O   0  0  0  0  0  0  0  0  0  0  0  0
    3.0996    3.0468    1.4083 C   0  0  0  0  0  0  0  0  0  0  0  0
    3.9660    1.7985    1.2152 C   0  0  0  0  0  0  0  0  0  0  0  0
    5.1129    1.7688    1.6553 O   0  0  0  0  0  0  0  0  0  0  0  0
    3.3085    0.7683    0.5688 N   0  0  0  0  0  0  0  0  0  0  0  0
    3.8081   -0.5048    0.2365 C   0  0  0  0  0  0  0  0  0  0  0  0
    2.9574   -1.3599   -0.4725 C   0  0  0  0  0  0  0  0  0  0  0  0
    3.3807   -2.6383   -0.8540 C   0  0  0  0  0  0  0  0  0  0  0  0
    4.6673   -3.0777   -0.5377 C   0  0  0  0  0  0  0  0  0  0  0  0
    5.2412   -4.6934   -1.0217 S   0  0  0  0  0  0  0  0  0  0  0  0
    5.2196   -4.4809   -2.8138 C   0  0  0  0  0  0  0  0  0  0  0  0
    5.8212   -5.5430   -3.4110 F   0  0  0  0  0  0  0  0  0  0  0  0
    3.9429   -4.4614   -3.2762 F   0  0  0  0  0  0  0  0  0  0  0  0
    5.5105   -2.2371    0.1920 C   0  0  0  0  0  0  0  0  0  0  0  0
    5.0853   -0.9568    0.5721 C   0  0  0  0  0  0  0  0  0  0  0  0
   -6.6370    0.3977    1.7566 H   0  0  0  0  0  0  0  0  0  0  0  0
   -6.5391    0.1341    0.0083 H   0  0  0  0  0  0  0  0  0  0  0  0
   -7.2703   -1.1112    1.0773 H   0  0  0  0  0  0  0  0  0  0  0  0
   -5.9854   -3.4285    0.9036 H   0  0  0  0  0  0  0  0  0  0  0  0
   -5.3026   -4.9410   -0.9433 H   0  0  0  0  0  0  0  0  0  0  0  0
   -3.7634   -4.1337   -2.7172 H   0  0  0  0  0  0  0  0  0  0  0  0
   -2.9064   -1.8089   -2.6582 H   0  0  0  0  0  0  0  0  0  0  0  0
   -1.3980    0.0023   -1.3749 H   0  0  0  0  0  0  0  0  0  0  0  0
   -1.7079   -0.4782    0.3380 H   0  0  0  0  0  0  0  0  0  0  0  0
   -2.4175    3.4933    1.1457 H   0  0  0  0  0  0  0  0  0  0  0  0
   -2.1770    5.7962    1.9753 H   0  0  0  0  0  0  0  0  0  0  0  0
    0.0571    6.8697    2.0700 H   0  0  0  0  0  0  0  0  0  0  0  0
    2.0590    5.6347    1.3254 H   0  0  0  0  0  0  0  0  0  0  0  0
    3.7574    3.9198    1.3176 H   0  0  0  0  0  0  0  0  0  0  0  0
    2.6828    2.9949    2.4238 H   0  0  0  0  0  0  0  0  0  0  0  0
    2.3424    0.9667    0.2863 H   0  0  0  0  0  0  0  0  0  0  0  0
    1.9510   -1.0429   -0.7360 H   0  0  0  0  0  0  0  0  0  0  0  0
    2.6896   -3.2817   -1.3968 H   0  0  0  0  0  0  0  0  0  0  0  0
    5.7328   -3.5676   -3.1311 H   0  0  0  0  0  0  0  0  0  0  0  0
    6.5105   -2.5598    0.4711 H   0  0  0  0  0  0  0  0  0  0  0  0
    5.7802   -0.3387    1.1328 H   0  0  0  0  0  0  0  0  0  0  0  0
  1  2  1  0
  2  3  1  0
  3  4  2  0
  4  5  1  0
  5  6  2  0
  6  7  1  0
  7  8  2  0
  8  9  1  0
  9 10  2  0
  9 11  1  0
 11 12  1  0
 12 13  1  0
 13 14  2  0
 13 15  1  0
 15 16  2  0
 16 17  1  0
 17 18  2  0
 18 19  1  0
 19 20  2  0
 20 21  1  0
 21 22  1  0
 22 23  1  0
 23 24  2  0
 23 25  1  0
 25 26  1  0
 26 27  2  0
 27 28  1  0
 28 29  2  0
 29 30  1  0
 30 31  1  0
 31 32  1  0
 31 33  1  0
 29 34  1  0
 34 35  2  0
  8  3  1  0
 20 15  1  0
 35 26  1  0
  1 36  1  0
  1 37  1  0
  1 38  1  0
  4 39  1  0
  5 40  1  0
  6 41  1  0
  7 42  1  0
 11 43  1  0
 11 44  1  0
 16 45  1  0
 17 46  1  0
 18 47  1  0
 19 48  1  0
 22 49  1  0
 22 50  1  0
 25 51  1  0
 27 52  1  0
 28 53  1  0
 31 54  1  0
 34 55  1  0
 35 56  1  0
M  END
$$$$
