
     RDKit          3D

 54 57  0  0  0  0  0  0  0  0999 V2000
   -4.5295   -1.6205   -4.4756 C   0  0  0  0  0  0  0  0  0  0  0  0
   -4.9499   -1.4958   -3.1204 O   0  0  0  0  0  0  0  0  0  0  0  0
   -4.0873   -0.8781   -2.2577 C   0  0  0  0  0  0  0  0  0  0  0  0
   -2.7923   -0.4479   -2.5582 C   0  0  0  0  0  0  0  0  0  0  0  0
   -2.0070    0.1601   -1.5734 C   0  0  0  0  0  0  0  0  0  0  0  0
   -2.5211    0.3298   -0.2878 C   0  0  0  0  0  0  0  0  0  0  0  0
   -1.7095    1.0065    0.7457 C   0  0  0  0  0  0  0  0  0  0  0  0
   -1.6096    2.2988    0.6686 N   0  0  0  0  0  0  0  0  0  0  0  0
   -0.8885    2.9786    1.6538 C   0  0  0  0  0  0  0  0  0  0  0  0
   -0.7496    4.3647    1.5528 C   0  0  0  0  0  0  0  0  0  0  0  0
   -0.0429    5.0817    2.5208 C   0  0  0  0  0  0  0  0  0  0  0  0
    0.5287    4.4150    3.6052 C   0  0  0  0  0  0  0  0  0  0  0  0
    0.3966    3.0325    3.7171 C   0  0  0  0  0  0  0  0  0  0  0  0
   -0.3093    2.3254    2.7377 C   0  0  0  0  0  0  0  0  0  0  0  0
   -0.4419    0.8636    2.8040 C   0  0  0  0  0  0  0  0  0  0  0  0
    0.0583    0.2534    3.7457 O   0  0  0  0  0  0  0  0  0  0  0  0
   -1.1287    0.2454    1.7564 N   0  0  0  0  0  0  0  0  0  0  0  0
   -1.1087   -1.2266    1.7579 C   0  0  0  0  0  0  0  0  0  0  0  0
    0.2686   -1.7940    1.3792 C   0  0  0  0  0  0  0  0  0  0  0  0
    0.5546   -1.4667    0.0094 O   0  0  0  0  0  0  0  0  0  0  0  0
    1.8874   -1.6350   -0.2710 C   0  0  0  0  0  0  0  0  0  0  0  0
    2.4633   -2.9083   -0.2392 C   0  0  0  0  0  0  0  0  0  0  0  0
    3.8153   -3.0717   -0.5447 C   0  0  0  0  0  0  0  0  0  0  0  0
    4.5939   -1.9690   -0.9160 C   0  0  0  0  0  0  0  0  0  0  0  0
    6.0577   -2.1347   -1.2039 C   0  0  0  0  0  0  0  0  0  0  0  0
    4.0022   -0.6976   -0.9577 C   0  0  0  0  0  0  0  0  0  0  0  0
    2.6469   -0.5166   -0.6380 C   0  0  0  0  0  0  0  0  0  0  0  0
    2.0345    0.8520   -0.7219 C   0  0  0  0  0  0  0  0  0  0  0  0
   -3.8218   -0.0754    0.0196 C   0  0  0  0  0  0  0  0  0  0  0  0
   -4.5969   -0.6864   -0.9674 C   0  0  0  0  0  0  0  0  0  0  0  0
   -5.3333   -2.1146   -5.0346 H   0  0  0  0  0  0  0  0  0  0  0  0
   -4.3662   -0.6328   -4.9262 H   0  0  0  0  0  0  0  0  0  0  0  0
   -3.6371   -2.2505   -4.5576 H   0  0  0  0  0  0  0  0  0  0  0  0
   -2.3583   -0.5792   -3.5449 H   0  0  0  0  0  0  0  0  0  0  0  0
   -0.9956    0.4865   -1.8057 H   0  0  0  0  0  0  0  0  0  0  0  0
   -1.1970    4.8849    0.7089 H   0  0  0  0  0  0  0  0  0  0  0  0
    0.0620    6.1591    2.4245 H   0  0  0  0  0  0  0  0  0  0  0  0
    1.0791    4.9709    4.3586 H   0  0  0  0  0  0  0  0  0  0  0  0
    0.8462    2.5075    4.5573 H   0  0  0  0  0  0  0  0  0  0  0  0
   -1.8582   -1.6322    1.0740 H   0  0  0  0  0  0  0  0  0  0  0  0
   -1.3720   -1.5682    2.7667 H   0  0  0  0  0  0  0  0  0  0  0  0
    1.0502   -1.3980    2.0411 H   0  0  0  0  0  0  0  0  0  0  0  0
    0.2333   -2.8845    1.4885 H   0  0  0  0  0  0  0  0  0  0  0  0
    1.8663   -3.7794    0.0177 H   0  0  0  0  0  0  0  0  0  0  0  0
    4.2574   -4.0642   -0.4945 H   0  0  0  0  0  0  0  0  0  0  0  0
    6.2680   -3.1324   -1.6053 H   0  0  0  0  0  0  0  0  0  0  0  0
    6.6328   -2.0010   -0.2821 H   0  0  0  0  0  0  0  0  0  0  0  0
    6.3972   -1.4047   -1.9474 H   0  0  0  0  0  0  0  0  0  0  0  0
    4.6073    0.1653   -1.2345 H   0  0  0  0  0  0  0  0  0  0  0  0
    1.3829    1.0365    0.1361 H   0  0  0  0  0  0  0  0  0  0  0  0
    1.4564    0.9481   -1.6456 H   0  0  0  0  0  0  0  0  0  0  0  0
    2.8029    1.6331   -0.7138 H   0  0  0  0  0  0  0  0  0  0  0  0
   -4.2298    0.0777    1.0131 H   0  0  0  0  0  0  0  0  0  0  0  0
   -5.6080   -1.0111   -0.7356 H   0  0  0  0  0  0  0  0  0  0  0  0
  1  2  1  0
  2  3  1  0
  3  4  2  0
  4  5  1  0
  5  6  2  0
  6  7  1  0
  7  8  2  0
  8  9  1  0
  9 10  2  0
 10 11  1  0
 11 12  2  0
 12 13  1  0
 13 14  2  0
 14 15  1  0
 15 16  2  0
 15 17  1  0
 17 18  1  0
 18 19  1  0
 19 20  1  0
 20 21  1  0
 21 22  2  0
 22 23  1  0
 23 24  2  0
 24 25  1  0
 24 26  1  0
 26 27  2  0
 27 28  1  0
  6 29  1  0
 29 30  2  0
 30  3  1  0
 17  7  1  0
 27 21  1  0
 14  9  1  0
  1 31  1  0
  1 32  1  0
  1 33  1  0
  4 34  1  0
  5 35  1  0
 10 36  1  0
 11 37  1  0
 12 38  1  0
 13 39  1  0
 18 40  1  0
 18 41  1  0
 19 42  1  0
 19 43  1  0
 22 44  1  0
 23 45  1  0
 25 46  1  0
 25 47  1  0
 25 48  1  0
 26 49  1  0
 28 50  1  0
 28 51  1  0
 28 52  1  0
 29 53  1  0
 30 54  1  0
M  END
$$$$
