
     RDKit          3D

 67 72  0  0  0  0  0  0  0  0999 V2000
   -4.8764   -3.9311   -1.9512 C   0  0  0  0  0  0  0  0  0  0  0  0
   -3.9575   -3.2392   -0.9894 C   0  0  0  0  0  0  0  0  0  0  0  0
   -3.9261   -3.5816    0.3755 C   0  0  0  0  0  0  0  0  0  0  0  0
   -4.9405   -4.8331    1.0095 Cl  0  0  0  0  0  0  0  0  0  0  0  0
   -3.0790   -2.9180    1.2845 C   0  0  0  0  0  0  0  0  0  0  0  0
   -2.2352   -1.8921    0.8575 C   0  0  0  0  0  0  0  0  0  0  0  0
   -2.2478   -1.5491   -0.4869 C   0  0  0  0  0  0  0  0  0  0  0  0
   -3.1080   -2.2100   -1.3796 C   0  0  0  0  0  0  0  0  0  0  0  0
   -2.9803   -1.6567   -2.6511 N   0  0  0  0  0  0  0  0  0  0  0  0
   -2.0706   -0.5980   -2.6716 C   0  0  0  0  0  0  0  0  0  0  0  0
   -1.8120    0.0681   -3.6638 O   0  0  0  0  0  0  0  0  0  0  0  0
   -1.4796   -0.4878   -1.2383 C   0  0  1  0  0  0  0  0  0  0  0  0
   -1.7398    0.8065   -0.5800 C   0  0  0  0  0  0  0  0  0  0  0  0
   -0.5540    1.4680   -0.2638 C   0  0  0  0  0  0  0  0  0  0  0  0
   -0.8615    2.6760    0.3077 C   0  0  0  0  0  0  0  0  0  0  0  0
   -0.0638    3.6335    0.7719 O   0  0  0  0  0  0  0  0  0  0  0  0
   -2.2655    2.7416    0.4066 N   0  0  0  0  0  0  0  0  0  0  0  0
   -3.0268    3.7557    1.0694 C   0  0  0  0  0  0  0  0  0  0  0  0
   -4.2316    3.4225    1.7105 C   0  0  0  0  0  0  0  0  0  0  0  0
   -4.9794    4.4058    2.3629 C   0  0  0  0  0  0  0  0  0  0  0  0
   -4.5314    5.7245    2.3846 C   0  0  0  0  0  0  0  0  0  0  0  0
   -3.3318    6.0611    1.7591 C   0  0  0  0  0  0  0  0  0  0  0  0
   -2.5767    5.0809    1.1085 C   0  0  0  0  0  0  0  0  0  0  0  0
   -2.7952    1.6087   -0.2419 C   0  0  0  0  0  0  0  0  0  0  0  0
   -4.0869    1.4185   -0.5079 O   0  0  0  0  0  0  0  0  0  0  0  0
    0.6275    0.6860   -0.6883 C   0  0  1  0  0  0  0  0  0  0  0  0
    1.6409    0.3924    0.4340 C   0  0  0  0  0  0  0  0  0  0  0  0
    2.6521   -0.5716   -0.0019 N   0  0  0  0  0  0  0  0  0  0  0  0
    3.9825   -0.3713    0.3013 C   0  0  0  0  0  0  0  0  0  0  0  0
    4.3864    0.5586    0.9869 O   0  0  0  0  0  0  0  0  0  0  0  0
    4.7740   -1.3220   -0.2593 O   0  0  0  0  0  0  0  0  0  0  0  0
    6.2149   -1.2927   -0.0976 C   0  0  0  0  0  0  0  0  0  0  0  0
    6.7170   -2.5043   -0.8976 C   0  0  0  0  0  0  0  0  0  0  0  0
    6.8208   -0.0224   -0.7062 C   0  0  0  0  0  0  0  0  0  0  0  0
    6.6132   -1.4735    1.3714 C   0  0  0  0  0  0  0  0  0  0  0  0
    2.1962   -1.6680   -0.8631 C   0  0  0  0  0  0  0  0  0  0  0  0
    0.6610   -1.7993   -0.8908 C   0  0  0  0  0  0  0  0  0  0  0  0
    0.0155   -0.5510   -1.2895 N   0  0  0  0  0  0  0  0  0  0  0  0
   -5.9201   -3.7295   -1.6882 H   0  0  0  0  0  0  0  0  0  0  0  0
   -4.6995   -5.0121   -1.9410 H   0  0  0  0  0  0  0  0  0  0  0  0
   -4.7301   -3.5986   -2.9827 H   0  0  0  0  0  0  0  0  0  0  0  0
   -3.0853   -3.1974    2.3359 H   0  0  0  0  0  0  0  0  0  0  0  0
   -1.5985   -1.3699    1.5657 H   0  0  0  0  0  0  0  0  0  0  0  0
   -3.5085   -1.9121   -3.4704 H   0  0  0  0  0  0  0  0  0  0  0  0
    0.8595    3.3812    0.5954 H   0  0  0  0  0  0  0  0  0  0  0  0
   -4.5830    2.3935    1.7619 H   0  0  0  0  0  0  0  0  0  0  0  0
   -5.9042    4.1390    2.8691 H   0  0  0  0  0  0  0  0  0  0  0  0
   -5.1112    6.4891    2.8959 H   0  0  0  0  0  0  0  0  0  0  0  0
   -2.9800    7.0896    1.7778 H   0  0  0  0  0  0  0  0  0  0  0  0
   -1.6584    5.3849    0.6132 H   0  0  0  0  0  0  0  0  0  0  0  0
   -4.5351    2.2856   -0.5029 H   0  0  0  0  0  0  0  0  0  0  0  0
    1.1404    1.2154   -1.5026 H   0  0  0  0  0  0  0  0  0  0  0  0
    1.1417   -0.0430    1.3097 H   0  0  0  0  0  0  0  0  0  0  0  0
    2.1151    1.3229    0.7676 H   0  0  0  0  0  0  0  0  0  0  0  0
    6.2775   -3.4335   -0.5159 H   0  0  0  0  0  0  0  0  0  0  0  0
    6.4138   -2.4299   -1.9487 H   0  0  0  0  0  0  0  0  0  0  0  0
    7.8072   -2.5945   -0.8582 H   0  0  0  0  0  0  0  0  0  0  0  0
    6.5605    0.8706   -0.1306 H   0  0  0  0  0  0  0  0  0  0  0  0
    6.4472    0.1378   -1.7240 H   0  0  0  0  0  0  0  0  0  0  0  0
    7.9142   -0.0802   -0.7423 H   0  0  0  0  0  0  0  0  0  0  0  0
    6.3449   -0.6010    1.9768 H   0  0  0  0  0  0  0  0  0  0  0  0
    6.0968   -2.3344    1.8127 H   0  0  0  0  0  0  0  0  0  0  0  0
    7.6927   -1.6245    1.4745 H   0  0  0  0  0  0  0  0  0  0  0  0
    2.6439   -2.6045   -0.5089 H   0  0  0  0  0  0  0  0  0  0  0  0
    2.5807   -1.4753   -1.8733 H   0  0  0  0  0  0  0  0  0  0  0  0
    0.3838   -2.6010   -1.5848 H   0  0  0  0  0  0  0  0  0  0  0  0
    0.3493   -2.1038    0.1144 H   0  0  0  0  0  0  0  0  0  0  0  0
  1  2  1  0
  2  3  2  0
  3  4  1  0
  3  5  1  0
  5  6  2  0
  6  7  1  0
  7  8  2  0
  8  9  1  0
  9 10  1  0
 10 11  2  0
 10 12  1  0
 12 13  1  0
 13 14  1  0
 14 15  2  0
 15 16  1  0
 15 17  1  0
 17 18  1  0
 18 19  2  0
 19 20  1  0
 20 21  2  0
 21 22  1  0
 22 23  2  0
 17 24  1  0
 24 25  1  0
 14 26  1  0
 26 27  1  0
 27 28  1  0
 28 29  1  0
 29 30  2  0
 29 31  1  0
 31 32  1  0
 32 33  1  0
 32 34  1  0
 32 35  1  0
 28 36  1  0
 36 37  1  0
 37 38  1  0
  8  2  1  0
 12 38  1  6
 12  7  1  0
 24 13  2  0
 38 26  1  0
 23 18  1  0
  1 39  1  0
  1 40  1  0
  1 41  1  0
  5 42  1  0
  6 43  1  0
  9 44  1  0
 16 45  1  0
 19 46  1  0
 20 47  1  0
 21 48  1  0
 22 49  1  0
 23 50  1  0
 25 51  1  0
 26 52  1  6
 27 53  1  0
 27 54  1  0
 33 55  1  0
 33 56  1  0
 33 57  1  0
 34 58  1  0
 34 59  1  0
 34 60  1  0
 35 61  1  0
 35 62  1  0
 35 63  1  0
 36 64  1  0
 36 65  1  0
 37 66  1  0
 37 67  1  0
M  END
$$$$
