
     RDKit          3D

 55 59  0  0  0  0  0  0  0  0999 V2000
    8.0062    1.2052    3.2805 C   0  0  0  0  0  0  0  0  0  0  0  0
    6.5971    1.3797    3.1906 O   0  0  0  0  0  0  0  0  0  0  0  0
    5.8963    0.4162    2.5176 C   0  0  0  0  0  0  0  0  0  0  0  0
    6.4435   -0.6786    1.8493 C   0  0  0  0  0  0  0  0  0  0  0  0
    5.6075   -1.5958    1.2086 C   0  0  0  0  0  0  0  0  0  0  0  0
    4.2242   -1.4135    1.2235 C   0  0  0  0  0  0  0  0  0  0  0  0
    3.6594   -0.3080    1.8701 C   0  0  0  0  0  0  0  0  0  0  0  0
    2.2064   -0.1460    1.8740 C   0  0  0  0  0  0  0  0  0  0  0  0
    1.3364   -1.1163    2.0979 N   0  0  0  0  0  0  0  0  0  0  0  0
    0.0702   -0.5897    2.0488 N   0  0  0  0  0  0  0  0  0  0  0  0
    0.1805    0.6812    1.7508 C   0  0  0  0  0  0  0  0  0  0  0  0
   -1.1235    1.8040    1.5838 S   0  0  0  0  0  0  0  0  0  0  0  0
   -2.1002    1.0682    0.2048 C   0  0  0  0  0  0  0  0  0  0  0  0
   -1.2697    0.8918   -1.0802 C   0  0  0  0  0  0  0  0  0  0  0  0
   -0.0844    1.2362   -1.1427 O   0  0  0  0  0  0  0  0  0  0  0  0
   -1.9000    0.3460   -2.2966 C   0  0  0  0  0  0  0  0  0  0  0  0
   -1.1569   -0.2823   -3.2847 C   0  0  0  0  0  0  0  0  0  0  0  0
   -1.9991   -0.7057   -4.2700 N   0  0  0  0  0  0  0  0  0  0  0  0
   -3.2896   -0.3381   -3.9767 C   0  0  0  0  0  0  0  0  0  0  0  0
   -4.4612   -0.5515   -4.7146 C   0  0  0  0  0  0  0  0  0  0  0  0
   -5.6581   -0.0571   -4.1957 C   0  0  0  0  0  0  0  0  0  0  0  0
   -5.6770    0.6320   -2.9894 C   0  0  0  0  0  0  0  0  0  0  0  0
   -4.4953    0.8381   -2.2654 C   0  0  0  0  0  0  0  0  0  0  0  0
   -3.2664    0.3346   -2.7494 C   0  0  0  0  0  0  0  0  0  0  0  0
   -2.9085   -0.1378    0.6643 C   0  0  0  0  0  0  0  0  0  0  0  0
   -2.4621   -1.4561    0.4823 C   0  0  0  0  0  0  0  0  0  0  0  0
   -3.2346   -2.5378    0.9112 C   0  0  0  0  0  0  0  0  0  0  0  0
   -4.4596   -2.3207    1.5371 C   0  0  0  0  0  0  0  0  0  0  0  0
   -4.9106   -1.0204    1.7446 C   0  0  0  0  0  0  0  0  0  0  0  0
   -4.1396    0.0625    1.3177 C   0  0  0  0  0  0  0  0  0  0  0  0
    1.5011    1.0126    1.6125 N   0  0  0  0  0  0  0  0  0  0  0  0
    2.0471    2.2784    1.1945 C   0  0  0  0  0  0  0  0  0  0  0  0
    4.5080    0.5922    2.5285 C   0  0  0  0  0  0  0  0  0  0  0  0
    8.2573    0.2697    3.7927 H   0  0  0  0  0  0  0  0  0  0  0  0
    8.4093    2.0287    3.8796 H   0  0  0  0  0  0  0  0  0  0  0  0
    8.4714    1.2524    2.2901 H   0  0  0  0  0  0  0  0  0  0  0  0
    7.5137   -0.8531    1.8139 H   0  0  0  0  0  0  0  0  0  0  0  0
    6.0330   -2.4567    0.6990 H   0  0  0  0  0  0  0  0  0  0  0  0
    3.5823   -2.1399    0.7275 H   0  0  0  0  0  0  0  0  0  0  0  0
   -2.8097    1.8667   -0.0446 H   0  0  0  0  0  0  0  0  0  0  0  0
   -0.0919   -0.4702   -3.3480 H   0  0  0  0  0  0  0  0  0  0  0  0
   -1.7196   -1.2048   -5.1042 H   0  0  0  0  0  0  0  0  0  0  0  0
   -4.4458   -1.0824   -5.6614 H   0  0  0  0  0  0  0  0  0  0  0  0
   -6.5844   -0.2090   -4.7445 H   0  0  0  0  0  0  0  0  0  0  0  0
   -6.6180    1.0164   -2.6014 H   0  0  0  0  0  0  0  0  0  0  0  0
   -4.5567    1.3915   -1.3355 H   0  0  0  0  0  0  0  0  0  0  0  0
   -1.4957   -1.6640    0.0252 H   0  0  0  0  0  0  0  0  0  0  0  0
   -2.8681   -3.5512    0.7691 H   0  0  0  0  0  0  0  0  0  0  0  0
   -5.0531   -3.1656    1.8762 H   0  0  0  0  0  0  0  0  0  0  0  0
   -5.8586   -0.8492    2.2480 H   0  0  0  0  0  0  0  0  0  0  0  0
   -4.5073    1.0696    1.5038 H   0  0  0  0  0  0  0  0  0  0  0  0
    2.2570    2.8725    2.0887 H   0  0  0  0  0  0  0  0  0  0  0  0
    2.9622    2.1135    0.6193 H   0  0  0  0  0  0  0  0  0  0  0  0
    1.3380    2.8068    0.5527 H   0  0  0  0  0  0  0  0  0  0  0  0
    4.0975    1.4348    3.0794 H   0  0  0  0  0  0  0  0  0  0  0  0
  1  2  1  0
  2  3  1  0
  3  4  2  0
  4  5  1  0
  5  6  2  0
  6  7  1  0
  7  8  1  0
  8  9  2  0
  9 10  1  0
 10 11  2  0
 11 12  1  0
 12 13  1  0
 13 14  1  0
 14 15  2  0
 14 16  1  0
 16 17  2  0
 17 18  1  0
 18 19  1  0
 19 20  2  0
 20 21  1  0
 21 22  2  0
 22 23  1  0
 23 24  2  0
 13 25  1  0
 25 26  2  0
 26 27  1  0
 27 28  2  0
 28 29  1  0
 29 30  2  0
 11 31  1  0
 31 32  1  0
  7 33  2  0
 33  3  1  0
 31  8  1  0
 24 16  1  0
 30 25  1  0
 24 19  1  0
  1 34  1  0
  1 35  1  0
  1 36  1  0
  4 37  1  0
  5 38  1  0
  6 39  1  0
 13 40  1  0
 17 41  1  0
 18 42  1  0
 20 43  1  0
 21 44  1  0
 22 45  1  0
 23 46  1  0
 26 47  1  0
 27 48  1  0
 28 49  1  0
 29 50  1  0
 30 51  1  0
 32 52  1  0
 32 53  1  0
 32 54  1  0
 33 55  1  0
M  END
$$$$
