
     RDKit          3D

 44 46  0  0  0  0  0  0  0  0999 V2000
   -5.4559    0.8355   -2.8662 C   0  0  0  0  0  0  0  0  0  0  0  0
   -4.6598    0.4033   -1.6693 C   0  0  0  0  0  0  0  0  0  0  0  0
   -4.9639   -0.7977   -1.0132 C   0  0  0  0  0  0  0  0  0  0  0  0
   -4.2062   -1.2174    0.0811 C   0  0  0  0  0  0  0  0  0  0  0  0
   -3.1273   -0.4399    0.5089 C   0  0  0  0  0  0  0  0  0  0  0  0
   -2.1694   -0.9745    1.9029 S   0  0  0  0  0  6  0  0  0  0  0  0
   -3.0840   -1.5899    2.8424 O   0  0  0  0  0  0  0  0  0  0  0  0
   -1.2925    0.1008    2.3129 O   0  0  0  0  0  0  0  0  0  0  0  0
   -1.2464   -2.2388    1.2579 N   0  0  0  0  0  0  0  0  0  0  0  0
   -0.0584   -1.9011    0.5524 C   0  0  0  0  0  0  0  0  0  0  0  0
   -0.1291   -1.5589   -0.7972 C   0  0  0  0  0  0  0  0  0  0  0  0
    1.0253   -1.1761   -1.4910 C   0  0  0  0  0  0  0  0  0  0  0  0
    0.9476   -0.8123   -2.9459 C   0  0  0  0  0  0  0  0  0  0  0  0
    2.2464   -1.1361   -0.8022 C   0  0  0  0  0  0  0  0  0  0  0  0
    3.3500   -0.7431   -1.5153 O   0  0  0  0  0  0  0  0  0  0  0  0
    2.3287   -1.4831    0.5576 C   0  0  0  0  0  0  0  0  0  0  0  0
    3.8675   -1.5523    1.4664 S   0  0  0  0  0  0  0  0  0  0  0  0
    4.3199    0.1258    1.5421 C   0  0  0  0  0  0  0  0  0  0  0  0
    4.6463    0.8088    0.4374 N   0  0  0  0  0  0  0  0  0  0  0  0
    4.9296    2.0184    0.9525 N   0  0  0  0  0  0  0  0  0  0  0  0
    4.7935    2.0248    2.3118 C   0  0  0  0  0  0  0  0  0  0  0  0
    5.0469    3.2204    3.1416 C   0  0  0  0  0  0  0  0  0  0  0  0
    4.4172    0.8285    2.7080 N   0  0  0  0  0  0  0  0  0  0  0  0
    1.1598   -1.8623    1.2298 C   0  0  0  0  0  0  0  0  0  0  0  0
   -2.8124    0.7596   -0.1339 C   0  0  0  0  0  0  0  0  0  0  0  0
   -3.5737    1.1722   -1.2285 C   0  0  0  0  0  0  0  0  0  0  0  0
   -6.4861    0.4691   -2.8046 H   0  0  0  0  0  0  0  0  0  0  0  0
   -5.5034    1.9277   -2.9288 H   0  0  0  0  0  0  0  0  0  0  0  0
   -4.9967    0.4471   -3.7805 H   0  0  0  0  0  0  0  0  0  0  0  0
   -5.7978   -1.4110   -1.3492 H   0  0  0  0  0  0  0  0  0  0  0  0
   -4.4580   -2.1449    0.5901 H   0  0  0  0  0  0  0  0  0  0  0  0
   -1.1994   -3.0155    1.9168 H   0  0  0  0  0  0  0  0  0  0  0  0
   -1.0824   -1.6024   -1.3180 H   0  0  0  0  0  0  0  0  0  0  0  0
    1.5669   -1.4918   -3.5401 H   0  0  0  0  0  0  0  0  0  0  0  0
    1.2872    0.2172   -3.0985 H   0  0  0  0  0  0  0  0  0  0  0  0
   -0.0783   -0.8815   -3.3227 H   0  0  0  0  0  0  0  0  0  0  0  0
    4.0006   -0.3790   -0.8762 H   0  0  0  0  0  0  0  0  0  0  0  0
    5.2053    2.7743    0.3350 H   0  0  0  0  0  0  0  0  0  0  0  0
    4.4150    4.0545    2.8216 H   0  0  0  0  0  0  0  0  0  0  0  0
    4.8284    3.0124    4.1934 H   0  0  0  0  0  0  0  0  0  0  0  0
    6.0945    3.5273    3.0651 H   0  0  0  0  0  0  0  0  0  0  0  0
    1.1987   -2.1190    2.2855 H   0  0  0  0  0  0  0  0  0  0  0  0
   -1.9766    1.3695    0.2024 H   0  0  0  0  0  0  0  0  0  0  0  0
   -3.3176    2.1011   -1.7344 H   0  0  0  0  0  0  0  0  0  0  0  0
  1  2  1  0
  2  3  2  0
  3  4  1  0
  4  5  2  0
  5  6  1  0
  6  7  2  0
  6  8  2  0
  6  9  1  0
  9 10  1  0
 10 11  2  0
 11 12  1  0
 12 13  1  0
 12 14  2  0
 14 15  1  0
 14 16  1  0
 16 17  1  0
 17 18  1  0
 18 19  2  0
 19 20  1  0
 20 21  1  0
 21 22  1  0
 21 23  2  0
 16 24  2  0
  5 25  1  0
 25 26  2  0
 26  2  1  0
 24 10  1  0
 23 18  1  0
  1 27  1  0
  1 28  1  0
  1 29  1  0
  3 30  1  0
  4 31  1  0
  9 32  1  0
 11 33  1  0
 13 34  1  0
 13 35  1  0
 13 36  1  0
 15 37  1  0
 20 38  1  0
 22 39  1  0
 22 40  1  0
 22 41  1  0
 24 42  1  0
 25 43  1  0
 26 44  1  0
M  END
$$$$
