
     RDKit          3D

 27 27  0  0  0  0  0  0  0  0999 V2000
    2.6921   -0.6208   -2.4850 C   0  0  0  0  0  0  0  0  0  0  0  0
    1.8521   -0.2520   -1.3221 C   0  0  0  0  0  0  0  0  0  0  0  0
    2.2415    0.3617   -0.1247 C   0  0  0  0  0  0  0  0  0  0  0  0
    1.0921    0.4942    0.6431 C   0  0  0  0  0  0  0  0  0  0  0  0
    0.9983    1.0699    1.9559 C   0  0  0  0  0  0  0  0  0  0  0  0
    0.0251    1.2142    2.6769 O   0  0  0  0  0  0  0  0  0  0  0  0
    2.2065    1.4923    2.3922 O   0  0  0  0  0  0  0  0  0  0  0  0
    0.0809   -0.0467   -0.1367 N   0  0  0  0  0  0  0  0  0  0  0  0
   -1.3682   -0.1948    0.1336 C   0  0  0  0  0  0  0  0  0  0  0  0
   -2.0387    1.1806    0.3114 C   0  0  0  0  0  0  0  0  0  0  0  0
   -1.6112   -1.1118    1.3472 C   0  0  0  0  0  0  0  0  0  0  0  0
   -2.1026   -0.8720   -1.0622 C   0  0  0  0  0  0  0  0  0  0  0  0
    0.5448   -0.4995   -1.3304 N   0  0  0  0  0  0  0  0  0  0  0  0
    3.7394   -0.3498   -2.3175 H   0  0  0  0  0  0  0  0  0  0  0  0
    2.3488   -0.1034   -3.3867 H   0  0  0  0  0  0  0  0  0  0  0  0
    2.6465   -1.6996   -2.6655 H   0  0  0  0  0  0  0  0  0  0  0  0
    3.2371    0.6757    0.1594 H   0  0  0  0  0  0  0  0  0  0  0  0
    2.0077    1.8559    3.2789 H   0  0  0  0  0  0  0  0  0  0  0  0
   -1.8604    1.8179   -0.5630 H   0  0  0  0  0  0  0  0  0  0  0  0
   -3.1235    1.0766    0.4313 H   0  0  0  0  0  0  0  0  0  0  0  0
   -1.6791    1.7277    1.1829 H   0  0  0  0  0  0  0  0  0  0  0  0
   -1.2257   -0.7040    2.2816 H   0  0  0  0  0  0  0  0  0  0  0  0
   -2.6828   -1.2871    1.4993 H   0  0  0  0  0  0  0  0  0  0  0  0
   -1.1321   -2.0874    1.2015 H   0  0  0  0  0  0  0  0  0  0  0  0
   -1.7084   -1.8758   -1.2618 H   0  0  0  0  0  0  0  0  0  0  0  0
   -3.1747   -0.9797   -0.8581 H   0  0  0  0  0  0  0  0  0  0  0  0
   -2.0055   -0.2823   -1.9818 H   0  0  0  0  0  0  0  0  0  0  0  0
  1  2  1  0
  2  3  1  0
  3  4  2  0
  4  5  1  0
  5  6  2  0
  5  7  1  0
  4  8  1  0
  8  9  1  0
  9 10  1  0
  9 11  1  0
  9 12  1  0
  8 13  1  0
 13  2  2  0
  1 14  1  0
  1 15  1  0
  1 16  1  0
  3 17  1  0
  7 18  1  0
 10 19  1  0
 10 20  1  0
 10 21  1  0
 11 22  1  0
 11 23  1  0
 11 24  1  0
 12 25  1  0
 12 26  1  0
 12 27  1  0
M  END
$$$$
