
     RDKit          3D

 57 59  0  0  0  0  0  0  0  0999 V2000
    6.1997    0.8165   -0.7193 C   0  0  0  0  0  0  0  0  0  0  0  0
    5.1551    0.7724    0.3908 C   0  0  0  0  0  0  0  0  0  0  0  0
    5.3117    2.2681    1.4569 S   0  0  0  0  0  0  0  0  0  0  0  0
    6.2085    1.5689    2.8807 C   0  0  0  0  0  0  0  0  0  0  0  0
    7.5811    1.0418    2.5556 C   0  0  0  0  0  0  0  0  0  0  0  0
    7.8575   -0.3298    2.6525 C   0  0  0  0  0  0  0  0  0  0  0  0
    9.1297   -0.8201    2.3506 C   0  0  0  0  0  0  0  0  0  0  0  0
   10.1396    0.0538    1.9537 C   0  0  0  0  0  0  0  0  0  0  0  0
    9.8810    1.4198    1.8605 C   0  0  0  0  0  0  0  0  0  0  0  0
    8.6101    1.9123    2.1623 C   0  0  0  0  0  0  0  0  0  0  0  0
    3.7332    0.6942   -0.1932 C   0  0  0  0  0  0  0  0  0  0  0  0
    3.5226    0.5093   -1.3907 O   0  0  0  0  0  0  0  0  0  0  0  0
    2.7500    0.7573    0.8006 N   0  0  0  0  0  0  0  0  0  0  0  0
    1.3950    0.7806    0.5811 N   0  0  0  0  0  0  0  0  0  0  0  0
    0.9206    0.0817   -0.4005 C   0  0  0  0  0  0  0  0  0  0  0  0
   -0.5193    0.0849   -0.7309 C   0  0  0  0  0  0  0  0  0  0  0  0
   -1.4508    0.7180    0.0962 C   0  0  0  0  0  0  0  0  0  0  0  0
   -2.8107    0.6981   -0.2362 C   0  0  0  0  0  0  0  0  0  0  0  0
   -3.2388    0.0542   -1.3987 C   0  0  0  0  0  0  0  0  0  0  0  0
   -4.5266   -0.0308   -1.8465 O   0  0  0  0  0  0  0  0  0  0  0  0
   -5.5480    0.4745   -0.9987 C   0  0  0  0  0  0  0  0  0  0  0  0
   -6.9201    0.3049   -1.6582 C   0  0  0  0  0  0  0  0  0  0  0  0
   -7.0870    0.2283   -2.8728 O   0  0  0  0  0  0  0  0  0  0  0  0
   -7.9694    0.2775   -0.7567 N   0  0  0  0  0  0  0  0  0  0  0  0
   -9.3156   -0.0127   -1.1997 C   0  0  0  0  0  0  0  0  0  0  0  0
   -9.5316   -1.4776   -1.1195 C   0  0  0  0  0  0  0  0  0  0  0  0
   -9.4712   -2.4936   -2.0508 C   0  0  0  0  0  0  0  0  0  0  0  0
   -9.7697   -3.6900   -1.3562 C   0  0  0  0  0  0  0  0  0  0  0  0
   -9.9866   -3.3296   -0.0472 C   0  0  0  0  0  0  0  0  0  0  0  0
   -9.8398   -1.9878    0.1092 O   0  0  0  0  0  0  0  0  0  0  0  0
   -2.2980   -0.5696   -2.2244 C   0  0  0  0  0  0  0  0  0  0  0  0
   -0.9412   -0.5620   -1.8939 C   0  0  0  0  0  0  0  0  0  0  0  0
    6.0530    1.6788   -1.3812 H   0  0  0  0  0  0  0  0  0  0  0  0
    7.2195    0.8563   -0.3273 H   0  0  0  0  0  0  0  0  0  0  0  0
    6.1320   -0.0813   -1.3451 H   0  0  0  0  0  0  0  0  0  0  0  0
    5.2932   -0.1322    0.9938 H   0  0  0  0  0  0  0  0  0  0  0  0
    5.5842    0.7917    3.3370 H   0  0  0  0  0  0  0  0  0  0  0  0
    6.3088    2.3590    3.6347 H   0  0  0  0  0  0  0  0  0  0  0  0
    7.0852   -1.0293    2.9650 H   0  0  0  0  0  0  0  0  0  0  0  0
    9.3339   -1.8843    2.4276 H   0  0  0  0  0  0  0  0  0  0  0  0
   11.1292   -0.3288    1.7185 H   0  0  0  0  0  0  0  0  0  0  0  0
   10.6680    2.1022    1.5521 H   0  0  0  0  0  0  0  0  0  0  0  0
    8.4242    2.9814    2.0806 H   0  0  0  0  0  0  0  0  0  0  0  0
    3.0239    1.2583    1.6431 H   0  0  0  0  0  0  0  0  0  0  0  0
    1.5482   -0.5733   -1.0284 H   0  0  0  0  0  0  0  0  0  0  0  0
   -1.1250    1.2286    1.0004 H   0  0  0  0  0  0  0  0  0  0  0  0
   -3.5019    1.2013    0.4299 H   0  0  0  0  0  0  0  0  0  0  0  0
   -5.5445   -0.0700   -0.0463 H   0  0  0  0  0  0  0  0  0  0  0  0
   -5.4121    1.5497   -0.8279 H   0  0  0  0  0  0  0  0  0  0  0  0
   -7.7705    0.0691    0.2124 H   0  0  0  0  0  0  0  0  0  0  0  0
   -9.4733    0.3550   -2.2186 H   0  0  0  0  0  0  0  0  0  0  0  0
  -10.0031    0.5142   -0.5305 H   0  0  0  0  0  0  0  0  0  0  0  0
   -9.2319   -2.3765   -3.0993 H   0  0  0  0  0  0  0  0  0  0  0  0
   -9.8163   -4.6920   -1.7589 H   0  0  0  0  0  0  0  0  0  0  0  0
  -10.2389   -3.8800    0.8485 H   0  0  0  0  0  0  0  0  0  0  0  0
   -2.6283   -1.0632   -3.1367 H   0  0  0  0  0  0  0  0  0  0  0  0
   -0.2284   -1.0482   -2.5549 H   0  0  0  0  0  0  0  0  0  0  0  0
  1  2  1  0
  2  3  1  0
  3  4  1  0
  4  5  1  0
  5  6  2  0
  6  7  1  0
  7  8  2  0
  8  9  1  0
  9 10  2  0
  2 11  1  0
 11 12  2  0
 11 13  1  0
 13 14  1  0
 14 15  2  3
 15 16  1  0
 16 17  2  0
 17 18  1  0
 18 19  2  0
 19 20  1  0
 20 21  1  0
 21 22  1  0
 22 23  2  0
 22 24  1  0
 24 25  1  0
 25 26  1  0
 26 27  2  0
 27 28  1  0
 28 29  2  0
 29 30  1  0
 19 31  1  0
 31 32  2  0
 10  5  1  0
 32 16  1  0
 30 26  1  0
  1 33  1  0
  1 34  1  0
  1 35  1  0
  2 36  1  0
  4 37  1  0
  4 38  1  0
  6 39  1  0
  7 40  1  0
  8 41  1  0
  9 42  1  0
 10 43  1  0
 13 44  1  0
 15 45  1  0
 17 46  1  0
 18 47  1  0
 21 48  1  0
 21 49  1  0
 24 50  1  0
 25 51  1  0
 25 52  1  0
 27 53  1  0
 28 54  1  0
 29 55  1  0
 31 56  1  0
 32 57  1  0
M  END
$$$$
