
     RDKit          3D

 38 38  0  0  0  0  0  0  0  0999 V2000
    5.6523    3.2963    2.3280 C   0  0  0  0  0  0  0  0  0  0  0  0
    4.2607    3.5618    2.4531 O   0  0  0  0  0  0  0  0  0  0  0  0
    3.4602    2.7041    1.6375 C   0  0  0  0  0  0  0  0  0  0  0  0
    3.2358    1.3430    2.3035 C   0  0  0  0  0  0  0  0  0  0  0  0
    2.2500    0.5271    1.6177 N   0  0  0  0  0  0  0  0  0  0  0  0
    2.5457   -0.0924    0.4225 C   0  0  0  0  0  0  0  0  0  0  0  0
    3.6190    0.0349   -0.1542 O   0  0  0  0  0  0  0  0  0  0  0  0
    1.4689   -0.9721   -0.1173 C   0  0  0  0  0  0  0  0  0  0  0  0
    1.8764   -2.2629   -0.5451 C   0  0  0  0  0  0  0  0  0  0  0  0
    2.1864   -3.3329   -0.8729 N   0  0  0  0  0  0  0  0  0  0  0  0
    0.2281   -0.4515   -0.2220 C   0  0  0  0  0  0  0  0  0  0  0  0
   -1.0317   -1.0272   -0.7107 C   0  0  0  0  0  0  0  0  0  0  0  0
   -1.0920   -2.4850   -1.0989 C   0  0  0  0  0  0  0  0  0  0  0  0
   -2.1108   -0.2164   -0.7763 C   0  0  0  0  0  0  0  0  0  0  0  0
   -3.4447   -0.6086   -1.2402 C   0  0  0  0  0  0  0  0  0  0  0  0
   -4.4293   -0.9708   -0.3150 C   0  0  0  0  0  0  0  0  0  0  0  0
   -5.7001   -1.3457   -0.7550 C   0  0  0  0  0  0  0  0  0  0  0  0
   -5.9905   -1.3609   -2.1189 C   0  0  0  0  0  0  0  0  0  0  0  0
   -5.0117   -1.0016   -3.0447 C   0  0  0  0  0  0  0  0  0  0  0  0
   -3.7407   -0.6249   -2.6074 C   0  0  0  0  0  0  0  0  0  0  0  0
    5.8920    2.2878    2.6758 H   0  0  0  0  0  0  0  0  0  0  0  0
    6.1937    4.0128    2.9513 H   0  0  0  0  0  0  0  0  0  0  0  0
    5.9771    3.4248    1.2914 H   0  0  0  0  0  0  0  0  0  0  0  0
    2.4923    3.2029    1.5129 H   0  0  0  0  0  0  0  0  0  0  0  0
    3.8952    2.6064    0.6365 H   0  0  0  0  0  0  0  0  0  0  0  0
    2.8901    1.4822    3.3335 H   0  0  0  0  0  0  0  0  0  0  0  0
    4.1751    0.7812    2.3540 H   0  0  0  0  0  0  0  0  0  0  0  0
    1.3966    0.2988    2.1121 H   0  0  0  0  0  0  0  0  0  0  0  0
    0.1203    0.5918    0.0874 H   0  0  0  0  0  0  0  0  0  0  0  0
   -0.7597   -3.1195   -0.2704 H   0  0  0  0  0  0  0  0  0  0  0  0
   -0.4713   -2.6744   -1.9805 H   0  0  0  0  0  0  0  0  0  0  0  0
   -2.1008   -2.8254   -1.3502 H   0  0  0  0  0  0  0  0  0  0  0  0
   -2.0556    0.8306   -0.4838 H   0  0  0  0  0  0  0  0  0  0  0  0
   -4.2133   -0.9663    0.7504 H   0  0  0  0  0  0  0  0  0  0  0  0
   -6.4631   -1.6265   -0.0341 H   0  0  0  0  0  0  0  0  0  0  0  0
   -6.9798   -1.6545   -2.4607 H   0  0  0  0  0  0  0  0  0  0  0  0
   -5.2369   -1.0174   -4.1076 H   0  0  0  0  0  0  0  0  0  0  0  0
   -2.9841   -0.3494   -3.3381 H   0  0  0  0  0  0  0  0  0  0  0  0
  1  2  1  0
  2  3  1  0
  3  4  1  0
  4  5  1  0
  5  6  1  0
  6  7  2  0
  6  8  1  0
  8  9  1  0
  9 10  3  0
  8 11  2  3
 11 12  1  0
 12 13  1  0
 12 14  2  3
 14 15  1  0
 15 16  2  0
 16 17  1  0
 17 18  2  0
 18 19  1  0
 19 20  2  0
 20 15  1  0
  1 21  1  0
  1 22  1  0
  1 23  1  0
  3 24  1  0
  3 25  1  0
  4 26  1  0
  4 27  1  0
  5 28  1  0
 11 29  1  0
 13 30  1  0
 13 31  1  0
 13 32  1  0
 14 33  1  0
 16 34  1  0
 17 35  1  0
 18 36  1  0
 19 37  1  0
 20 38  1  0
M  END
$$$$
