
     RDKit          3D

 59 63  0  0  0  0  0  0  0  0999 V2000
   -3.4889   -4.0257   -2.0186 C   0  0  0  0  0  0  0  0  0  0  0  0
   -2.8648   -3.2076   -0.8961 C   0  0  0  0  0  0  0  0  0  0  0  0
   -3.5821   -1.8692   -0.6654 C   0  0  0  0  0  0  0  0  0  0  0  0
   -3.4337   -0.9548   -1.7927 N   0  0  0  0  0  0  0  0  0  0  0  0
   -2.1777   -0.3652   -1.9017 C   0  0  0  0  0  0  0  0  0  0  0  0
   -1.8057   -0.0709   -3.1542 N   0  0  0  0  0  0  0  0  0  0  0  0
   -0.6243    0.5318   -3.2777 C   0  0  0  0  0  0  0  0  0  0  0  0
    0.2273    0.8028   -2.2842 N   0  0  0  0  0  0  0  0  0  0  0  0
   -0.1378    0.4574   -1.0309 C   0  0  0  0  0  0  0  0  0  0  0  0
    0.8518    0.5628   -0.0251 N   0  0  0  0  0  0  0  0  0  0  0  0
    1.9328    1.5341   -0.3589 C   0  0  0  0  0  0  0  0  0  0  0  0
    2.9320    1.6431    0.8198 C   0  0  0  0  0  0  0  0  0  0  0  0
    3.4842    0.3254    1.2273 N   0  0  0  0  0  0  0  0  0  0  0  0
    4.5483   -0.1319    0.4341 C   0  0  0  0  0  0  0  0  0  0  0  0
    5.2930   -1.2395    0.8448 C   0  0  0  0  0  0  0  0  0  0  0  0
    6.3607   -1.6936    0.0702 C   0  0  0  0  0  0  0  0  0  0  0  0
    6.6745   -1.0275   -1.1025 C   0  0  0  0  0  0  0  0  0  0  0  0
    5.9114    0.0724   -1.4388 C   0  0  0  0  0  0  0  0  0  0  0  0
    4.8745    0.5273   -0.6989 N   0  0  0  0  0  0  0  0  0  0  0  0
    2.4187   -0.6756    1.4650 C   0  0  0  0  0  0  0  0  0  0  0  0
    1.4343   -0.7757    0.2722 C   0  0  0  0  0  0  0  0  0  0  0  0
   -1.4056   -0.0877   -0.7656 C   0  0  0  0  0  0  0  0  0  0  0  0
   -1.9523   -0.3987    0.5350 N   0  0  0  0  0  0  0  0  0  0  0  0
   -1.5777    0.3702    1.7202 C   0  0  0  0  0  0  0  0  0  0  0  0
   -2.2604    1.7230    1.7809 C   0  0  0  0  0  0  0  0  0  0  0  0
   -3.5655    1.8401    2.2862 C   0  0  0  0  0  0  0  0  0  0  0  0
   -4.2022    3.0824    2.3341 C   0  0  0  0  0  0  0  0  0  0  0  0
   -3.5391    4.2165    1.8714 C   0  0  0  0  0  0  0  0  0  0  0  0
   -4.3988    5.8993    1.9330 Br  0  0  0  0  0  0  0  0  0  0  0  0
   -2.2460    4.1195    1.3622 C   0  0  0  0  0  0  0  0  0  0  0  0
   -1.6097    2.8763    1.3183 C   0  0  0  0  0  0  0  0  0  0  0  0
   -3.0843   -1.2172    0.6380 C   0  0  0  0  0  0  0  0  0  0  0  0
   -3.6289   -1.4848    1.7131 O   0  0  0  0  0  0  0  0  0  0  0  0
   -3.3938   -3.5192   -2.9842 H   0  0  0  0  0  0  0  0  0  0  0  0
   -4.5510   -4.2092   -1.8274 H   0  0  0  0  0  0  0  0  0  0  0  0
   -2.9872   -4.9946   -2.1007 H   0  0  0  0  0  0  0  0  0  0  0  0
   -1.8009   -3.0554   -1.1155 H   0  0  0  0  0  0  0  0  0  0  0  0
   -2.9028   -3.8011    0.0269 H   0  0  0  0  0  0  0  0  0  0  0  0
   -4.6561   -2.0479   -0.5322 H   0  0  0  0  0  0  0  0  0  0  0  0
   -3.7592   -1.2558   -2.7043 H   0  0  0  0  0  0  0  0  0  0  0  0
   -0.3162    0.8135   -4.2786 H   0  0  0  0  0  0  0  0  0  0  0  0
    2.4625    1.2303   -1.2693 H   0  0  0  0  0  0  0  0  0  0  0  0
    1.4979    2.5257   -0.5344 H   0  0  0  0  0  0  0  0  0  0  0  0
    2.3990    2.0551    1.6873 H   0  0  0  0  0  0  0  0  0  0  0  0
    3.7279    2.3626    0.5913 H   0  0  0  0  0  0  0  0  0  0  0  0
    5.0707   -1.7344    1.7840 H   0  0  0  0  0  0  0  0  0  0  0  0
    6.9443   -2.5504    0.3927 H   0  0  0  0  0  0  0  0  0  0  0  0
    7.5014   -1.3447   -1.7284 H   0  0  0  0  0  0  0  0  0  0  0  0
    6.1176    0.6424   -2.3402 H   0  0  0  0  0  0  0  0  0  0  0  0
    2.8183   -1.6683    1.6986 H   0  0  0  0  0  0  0  0  0  0  0  0
    1.8613   -0.3594    2.3559 H   0  0  0  0  0  0  0  0  0  0  0  0
    0.6519   -1.4946    0.5418 H   0  0  0  0  0  0  0  0  0  0  0  0
    1.9560   -1.1670   -0.6116 H   0  0  0  0  0  0  0  0  0  0  0  0
   -0.5003    0.4800    1.8278 H   0  0  0  0  0  0  0  0  0  0  0  0
   -1.8642   -0.1918    2.6194 H   0  0  0  0  0  0  0  0  0  0  0  0
   -4.0951    0.9601    2.6464 H   0  0  0  0  0  0  0  0  0  0  0  0
   -5.2129    3.1502    2.7296 H   0  0  0  0  0  0  0  0  0  0  0  0
   -1.7264    5.0009    0.9943 H   0  0  0  0  0  0  0  0  0  0  0  0
   -0.6009    2.8143    0.9164 H   0  0  0  0  0  0  0  0  0  0  0  0
  1  2  1  0
  2  3  1  0
  3  4  1  0
  4  5  1  0
  5  6  2  0
  6  7  1  0
  7  8  2  0
  8  9  1  0
  9 10  1  0
 10 11  1  0
 11 12  1  0
 12 13  1  0
 13 14  1  0
 14 15  2  0
 15 16  1  0
 16 17  2  0
 17 18  1  0
 18 19  2  0
 13 20  1  0
 20 21  1  0
  9 22  2  0
 22 23  1  0
 23 24  1  0
 24 25  1  0
 25 26  2  0
 26 27  1  0
 27 28  2  0
 28 29  1  0
 28 30  1  0
 30 31  2  0
 23 32  1  0
 32 33  2  0
 32  3  1  0
 22  5  1  0
 31 25  1  0
 21 10  1  0
 19 14  1  0
  1 34  1  0
  1 35  1  0
  1 36  1  0
  2 37  1  0
  2 38  1  0
  3 39  1  0
  4 40  1  0
  7 41  1  0
 11 42  1  0
 11 43  1  0
 12 44  1  0
 12 45  1  0
 15 46  1  0
 16 47  1  0
 17 48  1  0
 18 49  1  0
 20 50  1  0
 20 51  1  0
 21 52  1  0
 21 53  1  0
 24 54  1  0
 24 55  1  0
 26 56  1  0
 27 57  1  0
 30 58  1  0
 31 59  1  0
M  END
$$$$
