
     RDKit          3D

 53 55  0  0  0  0  0  0  0  0999 V2000
   -3.7705    0.9195    4.0930 C   0  0  0  0  0  0  0  0  0  0  0  0
   -3.4344   -0.0433    3.1022 O   0  0  0  0  0  0  0  0  0  0  0  0
   -4.3912   -0.3454    2.1677 C   0  0  0  0  0  0  0  0  0  0  0  0
   -5.6775    0.2040    2.1380 C   0  0  0  0  0  0  0  0  0  0  0  0
   -6.5791   -0.1548    1.1324 C   0  0  0  0  0  0  0  0  0  0  0  0
   -6.2024   -1.0598    0.1452 C   0  0  0  0  0  0  0  0  0  0  0  0
   -4.9248   -1.6143    0.1658 C   0  0  0  0  0  0  0  0  0  0  0  0
   -4.0125   -1.2755    1.1803 C   0  0  0  0  0  0  0  0  0  0  0  0
   -2.6305   -1.8816    1.1556 C   0  0  0  0  0  0  0  0  0  0  0  0
   -1.6957   -1.0038    0.5010 N   0  0  0  0  0  0  0  0  0  0  0  0
   -1.4061   -1.1026   -0.8380 C   0  0  0  0  0  0  0  0  0  0  0  0
   -1.7651   -1.9926   -1.5979 O   0  0  0  0  0  0  0  0  0  0  0  0
   -0.5586    0.0766   -1.3730 C   0  0  0  0  0  0  0  0  0  0  0  0
   -0.3447    1.0533   -0.6683 O   0  0  0  0  0  0  0  0  0  0  0  0
   -0.1120   -0.1122   -2.6602 N   0  0  0  0  0  0  0  0  0  0  0  0
    0.8072    0.7965   -3.3131 C   0  0  0  0  0  0  0  0  0  0  0  0
    2.2953    0.4036   -3.2044 C   0  0  0  0  0  0  0  0  0  0  0  0
    3.0502    1.2766   -4.0694 O   0  0  0  0  0  0  0  0  0  0  0  0
    4.3122    1.4615   -3.4284 C   0  0  0  0  0  0  0  0  0  0  0  0
    3.9525    1.5471   -1.9645 C   0  0  0  0  0  0  0  0  0  0  0  0
    2.8283    0.5979   -1.8307 N   0  0  0  0  0  0  0  0  0  0  0  0
    3.1535   -0.8504   -1.0210 S   0  0  0  0  0  6  0  0  0  0  0  0
    1.9417   -1.6366   -0.9643 O   0  0  0  0  0  0  0  0  0  0  0  0
    4.3685   -1.3902   -1.5961 O   0  0  0  0  0  0  0  0  0  0  0  0
    3.5150   -0.3130    0.6332 C   0  0  0  0  0  0  0  0  0  0  0  0
    4.7378   -0.6455    1.2248 C   0  0  0  0  0  0  0  0  0  0  0  0
    5.0125   -0.2130    2.5238 C   0  0  0  0  0  0  0  0  0  0  0  0
    4.0653    0.5427    3.2182 C   0  0  0  0  0  0  0  0  0  0  0  0
    4.4410    1.1271    4.9764 Br  0  0  0  0  0  0  0  0  0  0  0  0
    2.8451    0.8731    2.6269 C   0  0  0  0  0  0  0  0  0  0  0  0
    2.5663    0.4434    1.3286 C   0  0  0  0  0  0  0  0  0  0  0  0
   -4.6012    0.5723    4.7162 H   0  0  0  0  0  0  0  0  0  0  0  0
   -2.8990    1.0482    4.7425 H   0  0  0  0  0  0  0  0  0  0  0  0
   -3.9934    1.8909    3.6400 H   0  0  0  0  0  0  0  0  0  0  0  0
   -6.0126    0.9187    2.8817 H   0  0  0  0  0  0  0  0  0  0  0  0
   -7.5751    0.2806    1.1164 H   0  0  0  0  0  0  0  0  0  0  0  0
   -6.9001   -1.3309   -0.6431 H   0  0  0  0  0  0  0  0  0  0  0  0
   -4.6331   -2.3114   -0.6188 H   0  0  0  0  0  0  0  0  0  0  0  0
   -2.6480   -2.8533    0.6482 H   0  0  0  0  0  0  0  0  0  0  0  0
   -2.2659   -2.0651    2.1720 H   0  0  0  0  0  0  0  0  0  0  0  0
   -1.4574   -0.1272    0.9533 H   0  0  0  0  0  0  0  0  0  0  0  0
   -0.3117   -1.0250   -3.0631 H   0  0  0  0  0  0  0  0  0  0  0  0
    0.5185    0.8280   -4.3700 H   0  0  0  0  0  0  0  0  0  0  0  0
    0.6590    1.8084   -2.9167 H   0  0  0  0  0  0  0  0  0  0  0  0
    2.4469   -0.6208   -3.5645 H   0  0  0  0  0  0  0  0  0  0  0  0
    4.9484    0.5968   -3.6473 H   0  0  0  0  0  0  0  0  0  0  0  0
    4.7969    2.3678   -3.8010 H   0  0  0  0  0  0  0  0  0  0  0  0
    3.5733    2.5444   -1.7133 H   0  0  0  0  0  0  0  0  0  0  0  0
    4.8072    1.3383   -1.3174 H   0  0  0  0  0  0  0  0  0  0  0  0
    5.4749   -1.2402    0.6890 H   0  0  0  0  0  0  0  0  0  0  0  0
    5.9620   -0.4717    2.9864 H   0  0  0  0  0  0  0  0  0  0  0  0
    2.1065    1.4618    3.1656 H   0  0  0  0  0  0  0  0  0  0  0  0
    1.6164    0.7013    0.8669 H   0  0  0  0  0  0  0  0  0  0  0  0
  1  2  1  0
  2  3  1  0
  3  4  2  0
  4  5  1  0
  5  6  2  0
  6  7  1  0
  7  8  2  0
  8  9  1  0
  9 10  1  0
 10 11  1  0
 11 12  2  0
 11 13  1  0
 13 14  2  0
 13 15  1  0
 15 16  1  0
 16 17  1  0
 17 18  1  0
 18 19  1  0
 19 20  1  0
 20 21  1  0
 21 22  1  0
 22 23  2  0
 22 24  2  0
 22 25  1  0
 25 26  2  0
 26 27  1  0
 27 28  2  0
 28 29  1  0
 28 30  1  0
 30 31  2  0
  8  3  1  0
 21 17  1  0
 31 25  1  0
  1 32  1  0
  1 33  1  0
  1 34  1  0
  4 35  1  0
  5 36  1  0
  6 37  1  0
  7 38  1  0
  9 39  1  0
  9 40  1  0
 10 41  1  0
 15 42  1  0
 16 43  1  0
 16 44  1  0
 17 45  1  0
 19 46  1  0
 19 47  1  0
 20 48  1  0
 20 49  1  0
 26 50  1  0
 27 51  1  0
 30 52  1  0
 31 53  1  0
M  END
$$$$
