
     RDKit          3D

 51 54  0  0  0  0  0  0  0  0999 V2000
    3.1483   -0.5021   -0.6051 O   0  0  0  0  0  0  0  0  0  0  0  0
    3.3187    0.6533   -0.2224 C   0  0  0  0  0  0  0  0  0  0  0  0
    2.2574    1.7398   -0.4499 C   0  0  0  0  0  0  0  0  0  0  0  0
    0.9668    1.1371   -0.6968 N   0  0  0  0  0  0  0  0  0  0  0  0
    0.1360    0.8108    0.3502 C   0  0  0  0  0  0  0  0  0  0  0  0
    0.2832    1.1723    1.5067 O   0  0  0  0  0  0  0  0  0  0  0  0
   -1.0217   -0.0975   -0.0485 C   0  0  0  0  0  0  0  0  0  0  0  0
   -1.7106    0.2835   -1.0839 N   0  0  0  0  0  0  0  0  0  0  0  0
   -2.7768   -0.4883   -1.4928 N   0  0  0  0  0  0  0  0  0  0  0  0
   -3.5699    0.0362   -2.6015 C   0  0  0  0  0  0  0  0  0  0  0  0
   -4.6487    0.9851   -2.1327 C   0  0  0  0  0  0  0  0  0  0  0  0
   -5.9422    0.5159   -1.8626 C   0  0  0  0  0  0  0  0  0  0  0  0
   -6.9338    1.3905   -1.4155 C   0  0  0  0  0  0  0  0  0  0  0  0
   -6.6410    2.7399   -1.2267 C   0  0  0  0  0  0  0  0  0  0  0  0
   -5.3554    3.2154   -1.4788 C   0  0  0  0  0  0  0  0  0  0  0  0
   -4.3626    2.3422   -1.9260 C   0  0  0  0  0  0  0  0  0  0  0  0
   -3.1750   -1.6671   -0.8681 C   0  0  0  0  0  0  0  0  0  0  0  0
   -4.1301   -2.3522   -1.2274 O   0  0  0  0  0  0  0  0  0  0  0  0
   -2.3667   -2.1041    0.2860 C   0  0  0  0  0  0  0  0  0  0  0  0
   -2.6800   -3.2986    0.9495 C   0  0  0  0  0  0  0  0  0  0  0  0
   -1.9031   -3.7220    2.0272 C   0  0  0  0  0  0  0  0  0  0  0  0
   -0.8137   -2.9570    2.4396 C   0  0  0  0  0  0  0  0  0  0  0  0
   -0.5011   -1.7653    1.7794 C   0  0  0  0  0  0  0  0  0  0  0  0
   -1.2866   -1.3333    0.7034 C   0  0  0  0  0  0  0  0  0  0  0  0
    4.4550    1.1439    0.3968 N   0  0  0  0  0  0  0  0  0  0  0  0
    5.6278    0.4330    0.7370 C   0  0  0  0  0  0  0  0  0  0  0  0
    5.8358   -0.9234    0.4689 C   0  0  0  0  0  0  0  0  0  0  0  0
    7.0353   -1.5407    0.8462 C   0  0  0  0  0  0  0  0  0  0  0  0
    8.0246   -0.8033    1.4895 C   0  0  0  0  0  0  0  0  0  0  0  0
    9.1669   -1.4065    1.8440 F   0  0  0  0  0  0  0  0  0  0  0  0
    7.8318    0.5424    1.7605 C   0  0  0  0  0  0  0  0  0  0  0  0
    8.7868    1.2515    2.3786 F   0  0  0  0  0  0  0  0  0  0  0  0
    6.6419    1.1530    1.3860 C   0  0  0  0  0  0  0  0  0  0  0  0
    6.4538    2.4579    1.6456 F   0  0  0  0  0  0  0  0  0  0  0  0
    2.5339    2.3173   -1.3368 H   0  0  0  0  0  0  0  0  0  0  0  0
    2.2014    2.4012    0.4203 H   0  0  0  0  0  0  0  0  0  0  0  0
    0.8187    0.6421   -1.5700 H   0  0  0  0  0  0  0  0  0  0  0  0
   -2.8970    0.5462   -3.3022 H   0  0  0  0  0  0  0  0  0  0  0  0
   -4.0202   -0.7942   -3.1588 H   0  0  0  0  0  0  0  0  0  0  0  0
   -6.1798   -0.5390   -1.9913 H   0  0  0  0  0  0  0  0  0  0  0  0
   -7.9328    1.0159   -1.2087 H   0  0  0  0  0  0  0  0  0  0  0  0
   -7.4128    3.4192   -0.8751 H   0  0  0  0  0  0  0  0  0  0  0  0
   -5.1233    4.2651   -1.3204 H   0  0  0  0  0  0  0  0  0  0  0  0
   -3.3582    2.7207   -2.1035 H   0  0  0  0  0  0  0  0  0  0  0  0
   -3.5271   -3.9008    0.6261 H   0  0  0  0  0  0  0  0  0  0  0  0
   -2.1465   -4.6484    2.5424 H   0  0  0  0  0  0  0  0  0  0  0  0
   -0.2051   -3.2873    3.2788 H   0  0  0  0  0  0  0  0  0  0  0  0
    0.3569   -1.1956    2.1272 H   0  0  0  0  0  0  0  0  0  0  0  0
    4.4532    2.1217    0.6773 H   0  0  0  0  0  0  0  0  0  0  0  0
    5.0875   -1.5315   -0.0314 H   0  0  0  0  0  0  0  0  0  0  0  0
    7.1999   -2.5948    0.6396 H   0  0  0  0  0  0  0  0  0  0  0  0
  1  2  2  0
  2  3  1  0
  3  4  1  0
  4  5  1  0
  5  6  2  0
  5  7  1  0
  7  8  2  0
  8  9  1  0
  9 10  1  0
 10 11  1  0
 11 12  2  0
 12 13  1  0
 13 14  2  0
 14 15  1  0
 15 16  2  0
  9 17  1  0
 17 18  2  0
 17 19  1  0
 19 20  2  0
 20 21  1  0
 21 22  2  0
 22 23  1  0
 23 24  2  0
  2 25  1  0
 25 26  1  0
 26 27  2  0
 27 28  1  0
 28 29  2  0
 29 30  1  0
 29 31  1  0
 31 32  1  0
 31 33  2  0
 33 34  1  0
 24  7  1  0
 33 26  1  0
 16 11  1  0
 24 19  1  0
  3 35  1  0
  3 36  1  0
  4 37  1  0
 10 38  1  0
 10 39  1  0
 12 40  1  0
 13 41  1  0
 14 42  1  0
 15 43  1  0
 16 44  1  0
 20 45  1  0
 21 46  1  0
 22 47  1  0
 23 48  1  0
 25 49  1  0
 27 50  1  0
 28 51  1  0
M  END
$$$$
