
     RDKit          3D

 42 46  0  0  0  0  0  0  0  0999 V2000
    1.8622   -0.5068    1.4659 O   0  0  0  0  0  0  0  0  0  0  0  0
    2.0683   -0.3469    0.2672 C   0  0  0  0  0  0  0  0  0  0  0  0
    1.0989   -0.3146   -0.7117 O   0  0  0  0  0  0  0  0  0  0  0  0
   -0.2107   -0.3344   -0.2011 C   0  0  0  0  0  0  0  0  0  0  0  0
   -0.8669    0.7882    0.1844 C   0  0  0  0  0  0  0  0  0  0  0  0
   -0.1978    2.0980    0.0976 C   0  0  0  0  0  0  0  0  0  0  0  0
   -0.1413    2.7857   -1.1217 C   0  0  0  0  0  0  0  0  0  0  0  0
    0.5278    4.0077   -1.2092 C   0  0  0  0  0  0  0  0  0  0  0  0
    1.1456    4.5473   -0.0816 C   0  0  0  0  0  0  0  0  0  0  0  0
    1.0932    3.8685    1.1351 C   0  0  0  0  0  0  0  0  0  0  0  0
    0.4230    2.6476    1.2261 C   0  0  0  0  0  0  0  0  0  0  0  0
   -2.2875    0.7114    0.7107 C   0  0  0  0  0  0  0  0  0  0  0  0
   -2.8965    1.7123    1.0794 O   0  0  0  0  0  0  0  0  0  0  0  0
   -2.8387   -0.5429    0.7316 N   0  0  0  0  0  0  0  0  0  0  0  0
   -2.1623   -1.6702    0.3036 C   0  0  0  0  0  0  0  0  0  0  0  0
   -2.9468   -2.8063    0.4139 C   0  0  0  0  0  0  0  0  0  0  0  0
   -2.4258   -4.0227    0.0217 C   0  0  0  0  0  0  0  0  0  0  0  0
   -1.1129   -4.0503   -0.4760 C   0  0  0  0  0  0  0  0  0  0  0  0
   -0.3381   -2.8727   -0.5756 C   0  0  0  0  0  0  0  0  0  0  0  0
   -0.8693   -1.6466   -0.1756 C   0  0  0  0  0  0  0  0  0  0  0  0
   -4.2905   -2.4533    0.9755 C   0  0  0  0  0  0  0  0  0  0  0  0
   -4.1789   -0.9207    1.1756 C   0  0  0  0  0  0  0  0  0  0  0  0
    3.3639   -0.1823   -0.3531 C   0  0  0  0  0  0  0  0  0  0  0  0
    3.7557    0.0567   -1.6603 C   0  0  0  0  0  0  0  0  0  0  0  0
    5.1700    0.1258   -1.6611 C   0  0  0  0  0  0  0  0  0  0  0  0
    5.5615   -0.0742   -0.3598 C   0  0  0  0  0  0  0  0  0  0  0  0
    4.4808   -0.2620    0.4383 O   0  0  0  0  0  0  0  0  0  0  0  0
   -0.6220    2.3770   -2.0073 H   0  0  0  0  0  0  0  0  0  0  0  0
    0.5630    4.5414   -2.1552 H   0  0  0  0  0  0  0  0  0  0  0  0
    1.6637    5.5004   -0.1488 H   0  0  0  0  0  0  0  0  0  0  0  0
    1.5717    4.2896    2.0156 H   0  0  0  0  0  0  0  0  0  0  0  0
    0.3923    2.1253    2.1806 H   0  0  0  0  0  0  0  0  0  0  0  0
   -3.0080   -4.9359    0.0947 H   0  0  0  0  0  0  0  0  0  0  0  0
   -0.6804   -4.9991   -0.7889 H   0  0  0  0  0  0  0  0  0  0  0  0
    0.6746   -2.9411   -0.9636 H   0  0  0  0  0  0  0  0  0  0  0  0
   -4.4676   -2.9599    1.9290 H   0  0  0  0  0  0  0  0  0  0  0  0
   -5.0916   -2.6979    0.2714 H   0  0  0  0  0  0  0  0  0  0  0  0
   -4.9203   -0.3749    0.5818 H   0  0  0  0  0  0  0  0  0  0  0  0
   -4.3019   -0.6345    2.2259 H   0  0  0  0  0  0  0  0  0  0  0  0
    3.0952    0.1737   -2.5090 H   0  0  0  0  0  0  0  0  0  0  0  0
    5.8235    0.3030   -2.5040 H   0  0  0  0  0  0  0  0  0  0  0  0
    6.5208   -0.1093    0.1384 H   0  0  0  0  0  0  0  0  0  0  0  0
  1  2  2  0
  2  3  1  0
  3  4  1  0
  4  5  2  0
  5  6  1  0
  6  7  2  0
  7  8  1  0
  8  9  2  0
  9 10  1  0
 10 11  2  0
  5 12  1  0
 12 13  2  0
 12 14  1  0
 14 15  1  0
 15 16  2  0
 16 17  1  0
 17 18  2  0
 18 19  1  0
 19 20  2  0
 16 21  1  0
 21 22  1  0
  2 23  1  0
 23 24  2  0
 24 25  1  0
 25 26  2  0
 26 27  1  0
 20  4  1  0
 27 23  1  0
 11  6  1  0
 22 14  1  0
 20 15  1  0
  7 28  1  0
  8 29  1  0
  9 30  1  0
 10 31  1  0
 11 32  1  0
 17 33  1  0
 18 34  1  0
 19 35  1  0
 21 36  1  0
 21 37  1  0
 22 38  1  0
 22 39  1  0
 24 40  1  0
 25 41  1  0
 26 42  1  0
M  END
$$$$
