
     RDKit          3D

 45 47  0  0  0  0  0  0  0  0999 V2000
    7.2317   -1.7406   -0.5188 C   0  0  0  0  0  0  0  0  0  0  0  0
    7.1380   -0.9200    0.7583 C   0  0  0  0  0  0  0  0  0  0  0  0
    7.4955    0.5574    0.5645 C   0  0  0  0  0  0  0  0  0  0  0  0
    6.5740    1.3354   -0.3800 C   0  0  0  0  0  0  0  0  0  0  0  0
    5.1805    1.4557    0.1457 C   0  0  0  0  0  0  0  0  0  0  0  0
    4.8451    2.0961    1.2473 N   0  0  0  0  0  0  0  0  0  0  0  0
    3.4863    2.0405    1.4824 N   0  0  0  0  0  0  0  0  0  0  0  0
    2.8479    1.3690    0.5499 C   0  0  0  0  0  0  0  0  0  0  0  0
    1.4874    1.1931    0.5918 N   0  0  0  0  0  0  0  0  0  0  0  0
    0.7097    0.5094   -0.3237 C   0  0  0  0  0  0  0  0  0  0  0  0
    1.1091   -0.0575   -1.3348 O   0  0  0  0  0  0  0  0  0  0  0  0
   -0.7731    0.5336    0.0747 C   0  0  0  0  0  0  0  0  0  0  0  0
   -1.5727   -0.1671   -0.8660 O   0  0  0  0  0  0  0  0  0  0  0  0
   -2.9156   -0.2297   -0.6259 C   0  0  0  0  0  0  0  0  0  0  0  0
   -3.6461   -0.9375   -1.5837 C   0  0  0  0  0  0  0  0  0  0  0  0
   -5.0346   -1.0859   -1.4695 C   0  0  0  0  0  0  0  0  0  0  0  0
   -5.7219   -0.5260   -0.3888 C   0  0  0  0  0  0  0  0  0  0  0  0
   -7.1741   -0.6387   -0.1992 C   0  0  0  0  0  0  0  0  0  0  0  0
   -8.0098   -1.3860   -1.1961 C   0  0  0  0  0  0  0  0  0  0  0  0
   -7.7220   -0.0600    0.8797 C   0  0  0  0  0  0  0  0  0  0  0  0
   -6.9465    0.6833    1.8843 C   0  0  0  0  0  0  0  0  0  0  0  0
   -7.4990    1.1924    2.8525 O   0  0  0  0  0  0  0  0  0  0  0  0
   -5.5811    0.7744    1.6784 O   0  0  0  0  0  0  0  0  0  0  0  0
   -4.9721    0.1771    0.5561 C   0  0  0  0  0  0  0  0  0  0  0  0
   -3.5858    0.3338    0.4546 C   0  0  0  0  0  0  0  0  0  0  0  0
    3.8486    0.7564   -0.6825 S   0  0  0  0  0  0  0  0  0  0  0  0
    7.0649   -2.7997   -0.2970 H   0  0  0  0  0  0  0  0  0  0  0  0
    6.4792   -1.4344   -1.2509 H   0  0  0  0  0  0  0  0  0  0  0  0
    8.2209   -1.6427   -0.9771 H   0  0  0  0  0  0  0  0  0  0  0  0
    6.1336   -1.0192    1.1847 H   0  0  0  0  0  0  0  0  0  0  0  0
    7.8303   -1.3464    1.4944 H   0  0  0  0  0  0  0  0  0  0  0  0
    7.5021    1.0425    1.5491 H   0  0  0  0  0  0  0  0  0  0  0  0
    8.5216    0.6246    0.1813 H   0  0  0  0  0  0  0  0  0  0  0  0
    6.5892    0.8904   -1.3810 H   0  0  0  0  0  0  0  0  0  0  0  0
    6.9758    2.3502   -0.4955 H   0  0  0  0  0  0  0  0  0  0  0  0
    1.0599    1.6285    1.3978 H   0  0  0  0  0  0  0  0  0  0  0  0
   -0.8541    0.0621    1.0618 H   0  0  0  0  0  0  0  0  0  0  0  0
   -1.0829    1.5847    0.1209 H   0  0  0  0  0  0  0  0  0  0  0  0
   -3.1276   -1.3809   -2.4321 H   0  0  0  0  0  0  0  0  0  0  0  0
   -5.5535   -1.6459   -2.2429 H   0  0  0  0  0  0  0  0  0  0  0  0
   -7.9316   -0.9302   -2.1888 H   0  0  0  0  0  0  0  0  0  0  0  0
   -9.0707   -1.3834   -0.9217 H   0  0  0  0  0  0  0  0  0  0  0  0
   -7.6951   -2.4330   -1.2605 H   0  0  0  0  0  0  0  0  0  0  0  0
   -8.7870   -0.1067    1.0779 H   0  0  0  0  0  0  0  0  0  0  0  0
   -3.0749    0.8947    1.2281 H   0  0  0  0  0  0  0  0  0  0  0  0
  1  2  1  0
  2  3  1  0
  3  4  1  0
  4  5  1  0
  5  6  2  0
  6  7  1  0
  7  8  2  0
  8  9  1  0
  9 10  1  0
 10 11  2  0
 10 12  1  0
 12 13  1  0
 13 14  1  0
 14 15  2  0
 15 16  1  0
 16 17  2  0
 17 18  1  0
 18 19  1  0
 18 20  2  0
 20 21  1  0
 21 22  2  0
 21 23  1  0
 23 24  1  0
 24 25  2  0
  8 26  1  0
 26  5  1  0
 25 14  1  0
 24 17  1  0
  1 27  1  0
  1 28  1  0
  1 29  1  0
  2 30  1  0
  2 31  1  0
  3 32  1  0
  3 33  1  0
  4 34  1  0
  4 35  1  0
  9 36  1  0
 12 37  1  0
 12 38  1  0
 15 39  1  0
 16 40  1  0
 19 41  1  0
 19 42  1  0
 19 43  1  0
 20 44  1  0
 25 45  1  0
M  END
$$$$
