
     RDKit          3D

 23 23  0  0  0  0  0  0  0  0999 V2000
   -2.1717    0.9269   -0.5679 C   0  0  0  0  0  0  0  0  0  0  0  0
   -1.4861   -0.2960   -0.0099 C   0  0  0  0  0  0  0  0  0  0  0  0
   -0.0189   -0.2965    0.0343 C   0  0  0  0  0  0  0  0  0  0  0  0
    0.7829    0.7432   -0.2499 C   0  0  0  0  0  0  0  0  0  0  0  0
    2.2039    0.6710   -0.1807 C   0  0  0  0  0  0  0  0  0  0  0  0
    3.0683   -0.3717    0.1426 C   0  0  0  0  0  0  0  0  0  0  0  0
    4.3962    0.1107    0.0515 C   0  0  0  0  0  0  0  0  0  0  0  0
    4.2900    1.4239   -0.3229 C   0  0  0  0  0  0  0  0  0  0  0  0
    2.9891    1.7699   -0.4649 O   0  0  0  0  0  0  0  0  0  0  0  0
   -2.1364   -1.3988    0.4161 C   0  0  0  0  0  0  0  0  0  0  0  0
   -3.5866   -1.6195    0.5078 C   0  0  0  0  0  0  0  0  0  0  0  0
   -4.1250   -2.7037    0.3721 O   0  0  0  0  0  0  0  0  0  0  0  0
   -4.2804   -0.5294    0.8613 O   0  0  0  0  0  0  0  0  0  0  0  0
   -3.2183    0.7531   -0.8297 H   0  0  0  0  0  0  0  0  0  0  0  0
   -2.1301    1.7518    0.1510 H   0  0  0  0  0  0  0  0  0  0  0  0
   -1.6956    1.2495   -1.5010 H   0  0  0  0  0  0  0  0  0  0  0  0
    0.4337   -1.2379    0.3423 H   0  0  0  0  0  0  0  0  0  0  0  0
    0.3786    1.7068   -0.5429 H   0  0  0  0  0  0  0  0  0  0  0  0
    2.7743   -1.3755    0.4150 H   0  0  0  0  0  0  0  0  0  0  0  0
    5.3122   -0.4323    0.2356 H   0  0  0  0  0  0  0  0  0  0  0  0
    5.0067    2.2087   -0.5203 H   0  0  0  0  0  0  0  0  0  0  0  0
   -1.5830   -2.2785    0.7336 H   0  0  0  0  0  0  0  0  0  0  0  0
   -5.2037   -0.8490    0.9269 H   0  0  0  0  0  0  0  0  0  0  0  0
  1  2  1  0
  2  3  1  0
  3  4  2  3
  4  5  1  0
  5  6  2  0
  6  7  1  0
  7  8  2  0
  8  9  1  0
  2 10  2  3
 10 11  1  0
 11 12  2  0
 11 13  1  0
  9  5  1  0
  1 14  1  0
  1 15  1  0
  1 16  1  0
  3 17  1  0
  4 18  1  0
  6 19  1  0
  7 20  1  0
  8 21  1  0
 10 22  1  0
 13 23  1  0
M  END
$$$$
