
     RDKit          3D

 39 39  0  0  0  0  0  0  0  0999 V2000
   -2.2862    2.9294   -2.0162 C   0  0  0  0  0  0  0  0  0  0  0  0
   -2.7779    2.2128   -0.7963 C   0  0  0  0  0  0  0  0  0  0  0  0
   -3.9559    2.0693   -0.5031 O   0  0  0  0  0  0  0  0  0  0  0  0
   -1.7229    1.7418   -0.0767 O   0  0  0  0  0  0  0  0  0  0  0  0
   -2.0868    1.0313    1.1138 C   0  0  0  0  0  0  0  0  0  0  0  0
   -0.8146    0.6241    1.8565 C   0  0  0  0  0  0  0  0  0  0  0  0
    0.1183   -0.2635    1.0114 C   0  0  0  0  0  0  0  0  0  0  0  0
    1.4000   -0.4550    1.7174 N   0  0  0  0  0  0  0  0  0  0  0  0
    2.6706    0.5332    1.2867 S   0  0  0  0  0  6  0  0  0  0  0  0
    3.7929    0.1552    2.1117 O   0  0  0  0  0  0  0  0  0  0  0  0
    2.1866    1.8933    1.2655 O   0  0  0  0  0  0  0  0  0  0  0  0
    2.9930    0.0857   -0.2349 O   0  0  0  0  0  0  0  0  0  0  0  0
    3.8600    0.9094   -1.0100 C   0  0  0  0  0  0  0  0  0  0  0  0
    3.2120    1.3130   -2.3436 C   0  0  0  0  0  0  0  0  0  0  0  0
    4.3581    2.3176   -3.2862 Cl  0  0  0  0  0  0  0  0  0  0  0  0
    1.7107    2.2540   -2.0833 Cl  0  0  0  0  0  0  0  0  0  0  0  0
    2.8041   -0.1405   -3.3125 Cl  0  0  0  0  0  0  0  0  0  0  0  0
   -0.4981   -1.6171    0.6943 C   0  0  0  0  0  0  0  0  0  0  0  0
   -0.7328   -1.9811   -0.6419 C   0  0  0  0  0  0  0  0  0  0  0  0
   -1.3044   -3.2157   -0.9542 C   0  0  0  0  0  0  0  0  0  0  0  0
   -1.6450   -4.1045    0.0625 C   0  0  0  0  0  0  0  0  0  0  0  0
   -1.4112   -3.7621    1.3923 C   0  0  0  0  0  0  0  0  0  0  0  0
   -0.8396   -2.5278    1.7075 C   0  0  0  0  0  0  0  0  0  0  0  0
   -1.6245    3.7488   -1.7243 H   0  0  0  0  0  0  0  0  0  0  0  0
   -1.7647    2.2278   -2.6720 H   0  0  0  0  0  0  0  0  0  0  0  0
   -3.1386    3.3492   -2.5580 H   0  0  0  0  0  0  0  0  0  0  0  0
   -2.6819    1.6872    1.7605 H   0  0  0  0  0  0  0  0  0  0  0  0
   -2.6869    0.1529    0.8519 H   0  0  0  0  0  0  0  0  0  0  0  0
   -0.2776    1.5393    2.1346 H   0  0  0  0  0  0  0  0  0  0  0  0
   -1.0870    0.1289    2.7963 H   0  0  0  0  0  0  0  0  0  0  0  0
    0.3194    0.2395    0.0578 H   0  0  0  0  0  0  0  0  0  0  0  0
    1.3469   -0.6064    2.7211 H   0  0  0  0  0  0  0  0  0  0  0  0
    4.1619    1.8027   -0.4480 H   0  0  0  0  0  0  0  0  0  0  0  0
    4.7739    0.3303   -1.1894 H   0  0  0  0  0  0  0  0  0  0  0  0
   -0.4719   -1.3049   -1.4539 H   0  0  0  0  0  0  0  0  0  0  0  0
   -1.4819   -3.4848   -1.9925 H   0  0  0  0  0  0  0  0  0  0  0  0
   -2.0885   -5.0662   -0.1820 H   0  0  0  0  0  0  0  0  0  0  0  0
   -1.6709   -4.4593    2.1849 H   0  0  0  0  0  0  0  0  0  0  0  0
   -0.6587   -2.2878    2.7522 H   0  0  0  0  0  0  0  0  0  0  0  0
  1  2  1  0
  2  3  2  0
  2  4  1  0
  4  5  1  0
  5  6  1  0
  6  7  1  0
  7  8  1  0
  8  9  1  0
  9 10  2  0
  9 11  2  0
  9 12  1  0
 12 13  1  0
 13 14  1  0
 14 15  1  0
 14 16  1  0
 14 17  1  0
  7 18  1  0
 18 19  2  0
 19 20  1  0
 20 21  2  0
 21 22  1  0
 22 23  2  0
 23 18  1  0
  1 24  1  0
  1 25  1  0
  1 26  1  0
  5 27  1  0
  5 28  1  0
  6 29  1  0
  6 30  1  0
  7 31  1  0
  8 32  1  0
 13 33  1  0
 13 34  1  0
 19 35  1  0
 20 36  1  0
 21 37  1  0
 22 38  1  0
 23 39  1  0
M  END
$$$$
