
     RDKit          3D

 39 40  0  0  0  0  0  0  0  0999 V2000
   -3.9826   -1.0904    2.4524 C   0  0  0  0  0  0  0  0  0  0  0  0
   -3.8400   -0.7361    0.9821 C   0  0  0  0  0  0  0  0  0  0  0  0
   -2.4513   -0.8385    0.6320 O   0  0  0  0  0  0  0  0  0  0  0  0
   -2.3177   -0.8865   -0.7346 C   0  0  0  0  0  0  0  0  0  0  0  0
   -2.0665   -2.1267   -1.3200 C   0  0  0  0  0  0  0  0  0  0  0  0
   -1.8901   -2.2115   -2.7021 C   0  0  0  0  0  0  0  0  0  0  0  0
   -1.9559   -1.0573   -3.4861 C   0  0  0  0  0  0  0  0  0  0  0  0
   -2.1827    0.1879   -2.8928 C   0  0  0  0  0  0  0  0  0  0  0  0
   -2.3408    0.2817   -1.5105 C   0  0  0  0  0  0  0  0  0  0  0  0
   -2.5484    1.4686   -0.8571 O   0  0  0  0  0  0  0  0  0  0  0  0
   -1.6289    2.4973   -1.2021 C   0  0  0  0  0  0  0  0  0  0  0  0
   -0.1571    2.2602   -0.8266 C   0  0  0  0  0  0  0  0  0  0  0  0
    0.7361    2.8123   -1.4657 O   0  0  0  0  0  0  0  0  0  0  0  0
   -0.0126    1.4645    0.2891 N   0  0  0  0  0  0  0  0  0  0  0  0
    1.1612    1.0531    0.8683 C   0  0  0  0  0  0  0  0  0  0  0  0
    1.1859    0.3066    1.9521 N   0  0  0  0  0  0  0  0  0  0  0  0
    2.4745    0.0107    2.3540 N   0  0  0  0  0  0  0  0  0  0  0  0
    3.3760    0.5336    1.5448 C   0  0  0  0  0  0  0  0  0  0  0  0
    4.8538    0.4139    1.7171 C   0  0  0  0  0  0  0  0  0  0  0  0
    5.3545   -0.4393    0.6844 O   0  0  0  0  0  0  0  0  0  0  0  0
    6.7461   -0.6676    0.8295 C   0  0  0  0  0  0  0  0  0  0  0  0
    2.7013    1.4518    0.2563 S   0  0  0  0  0  0  0  0  0  0  0  0
   -3.5980   -2.0980    2.6431 H   0  0  0  0  0  0  0  0  0  0  0  0
   -3.4018   -0.4019    3.0769 H   0  0  0  0  0  0  0  0  0  0  0  0
   -5.0301   -1.0480    2.7634 H   0  0  0  0  0  0  0  0  0  0  0  0
   -4.4495   -1.4304    0.3861 H   0  0  0  0  0  0  0  0  0  0  0  0
   -4.1943    0.2891    0.8174 H   0  0  0  0  0  0  0  0  0  0  0  0
   -2.0163   -3.0184   -0.7014 H   0  0  0  0  0  0  0  0  0  0  0  0
   -1.7036   -3.1780   -3.1675 H   0  0  0  0  0  0  0  0  0  0  0  0
   -1.8311   -1.1247   -4.5640 H   0  0  0  0  0  0  0  0  0  0  0  0
   -2.2407    1.0626   -3.5295 H   0  0  0  0  0  0  0  0  0  0  0  0
   -1.6978    2.7537   -2.2653 H   0  0  0  0  0  0  0  0  0  0  0  0
   -1.9423    3.3939   -0.6540 H   0  0  0  0  0  0  0  0  0  0  0  0
   -0.8434    1.0593    0.7115 H   0  0  0  0  0  0  0  0  0  0  0  0
    5.3336    1.3979    1.6535 H   0  0  0  0  0  0  0  0  0  0  0  0
    5.0759   -0.0236    2.6965 H   0  0  0  0  0  0  0  0  0  0  0  0
    7.2980    0.2744    0.7684 H   0  0  0  0  0  0  0  0  0  0  0  0
    6.9535   -1.1586    1.7817 H   0  0  0  0  0  0  0  0  0  0  0  0
    7.0729   -1.3242    0.0188 H   0  0  0  0  0  0  0  0  0  0  0  0
  1  2  1  0
  2  3  1  0
  3  4  1  0
  4  5  2  0
  5  6  1  0
  6  7  2  0
  7  8  1  0
  8  9  2  0
  9 10  1  0
 10 11  1  0
 11 12  1  0
 12 13  2  0
 12 14  1  0
 14 15  1  0
 15 16  2  0
 16 17  1  0
 17 18  2  0
 18 19  1  0
 19 20  1  0
 20 21  1  0
 18 22  1  0
  9  4  1  0
 22 15  1  0
  1 23  1  0
  1 24  1  0
  1 25  1  0
  2 26  1  0
  2 27  1  0
  5 28  1  0
  6 29  1  0
  7 30  1  0
  8 31  1  0
 11 32  1  0
 11 33  1  0
 14 34  1  0
 19 35  1  0
 19 36  1  0
 21 37  1  0
 21 38  1  0
 21 39  1  0
M  END
$$$$
