
     RDKit          3D

 43 45  0  0  0  0  0  0  0  0999 V2000
   -0.9339    3.1248    2.4255 C   0  0  0  0  0  0  0  0  0  0  0  0
   -2.0167    2.3955    1.6873 C   0  0  0  0  0  0  0  0  0  0  0  0
   -2.7262    1.5317    2.1874 O   0  0  0  0  0  0  0  0  0  0  0  0
   -2.0807    2.8900    0.3904 O   0  0  0  0  0  0  0  0  0  0  0  0
   -2.9654    2.1772   -0.4273 C   0  0  0  0  0  0  0  0  0  0  0  0
   -4.2118    2.7463   -0.6912 C   0  0  0  0  0  0  0  0  0  0  0  0
   -5.0960    2.0868   -1.5440 C   0  0  0  0  0  0  0  0  0  0  0  0
   -4.7257    0.8779   -2.1367 C   0  0  0  0  0  0  0  0  0  0  0  0
   -3.4672    0.3235   -1.8823 C   0  0  0  0  0  0  0  0  0  0  0  0
   -2.5709    0.9713   -1.0258 C   0  0  0  0  0  0  0  0  0  0  0  0
   -1.2503    0.3894   -0.7814 C   0  0  0  0  0  0  0  0  0  0  0  0
   -0.2089    0.6263   -1.5946 C   0  0  0  0  0  0  0  0  0  0  0  0
    1.1394    0.0932   -1.3576 C   0  0  0  0  0  0  0  0  0  0  0  0
    2.1482    0.3029   -2.2858 C   0  0  0  0  0  0  0  0  0  0  0  0
    3.4126   -0.2163   -2.0236 C   0  0  0  0  0  0  0  0  0  0  0  0
    3.6423   -0.9351   -0.8449 C   0  0  0  0  0  0  0  0  0  0  0  0
    4.9090   -1.4735   -0.5442 C   0  0  0  0  0  0  0  0  0  0  0  0
    5.1194   -2.1861    0.6376 C   0  0  0  0  0  0  0  0  0  0  0  0
    4.0673   -2.3690    1.5262 C   0  0  0  0  0  0  0  0  0  0  0  0
    2.8126   -1.8431    1.2078 C   0  0  0  0  0  0  0  0  0  0  0  0
    1.7796   -2.0149    2.1417 O   0  0  0  0  0  0  0  0  0  0  0  0
    0.8880   -3.0059    1.7534 C   0  0  0  0  0  0  0  0  0  0  0  0
   -0.3175   -2.9439    2.6437 C   0  0  0  0  0  0  0  0  0  0  0  0
    1.0503   -3.8392    0.8706 O   0  0  0  0  0  0  0  0  0  0  0  0
    2.5631   -1.1080    0.0436 C   0  0  0  0  0  0  0  0  0  0  0  0
    1.3404   -0.5884   -0.2073 N   0  0  0  0  0  0  0  0  0  0  0  0
   -0.0061    3.0988    1.8467 H   0  0  0  0  0  0  0  0  0  0  0  0
   -1.2422    4.1564    2.6123 H   0  0  0  0  0  0  0  0  0  0  0  0
   -0.7521    2.6262    3.3824 H   0  0  0  0  0  0  0  0  0  0  0  0
   -4.4938    3.6905   -0.2355 H   0  0  0  0  0  0  0  0  0  0  0  0
   -6.0748    2.5137   -1.7480 H   0  0  0  0  0  0  0  0  0  0  0  0
   -5.4185    0.3636   -2.7985 H   0  0  0  0  0  0  0  0  0  0  0  0
   -3.1934   -0.6191   -2.3519 H   0  0  0  0  0  0  0  0  0  0  0  0
   -1.1597   -0.2233    0.1119 H   0  0  0  0  0  0  0  0  0  0  0  0
   -0.3367    1.2456   -2.4773 H   0  0  0  0  0  0  0  0  0  0  0  0
    1.9657    0.8532   -3.2017 H   0  0  0  0  0  0  0  0  0  0  0  0
    4.2117   -0.0594   -2.7436 H   0  0  0  0  0  0  0  0  0  0  0  0
    5.7414   -1.3372   -1.2324 H   0  0  0  0  0  0  0  0  0  0  0  0
    6.1008   -2.5970    0.8604 H   0  0  0  0  0  0  0  0  0  0  0  0
    4.2136   -2.9228    2.4489 H   0  0  0  0  0  0  0  0  0  0  0  0
   -0.7616   -1.9454    2.5991 H   0  0  0  0  0  0  0  0  0  0  0  0
   -0.0335   -3.1909    3.6694 H   0  0  0  0  0  0  0  0  0  0  0  0
   -1.0620   -3.6663    2.2971 H   0  0  0  0  0  0  0  0  0  0  0  0
  1  2  1  0
  2  3  2  0
  2  4  1  0
  4  5  1  0
  5  6  2  0
  6  7  1  0
  7  8  2  0
  8  9  1  0
  9 10  2  0
 10 11  1  0
 11 12  2  0
 12 13  1  0
 13 14  2  0
 14 15  1  0
 15 16  2  0
 16 17  1  0
 17 18  2  0
 18 19  1  0
 19 20  2  0
 20 21  1  0
 21 22  1  0
 22 23  1  0
 22 24  2  0
 20 25  1  0
 25 26  2  0
 10  5  1  0
 26 13  1  0
 25 16  1  0
  1 27  1  0
  1 28  1  0
  1 29  1  0
  6 30  1  0
  7 31  1  0
  8 32  1  0
  9 33  1  0
 11 34  1  0
 12 35  1  0
 14 36  1  0
 15 37  1  0
 17 38  1  0
 18 39  1  0
 19 40  1  0
 23 41  1  0
 23 42  1  0
 23 43  1  0
M  END
$$$$
