
     RDKit          3D

 56 59  0  0  0  0  0  0  0  0999 V2000
   -3.9584   -4.3066    1.4399 C   0  0  0  0  0  0  0  0  0  0  0  0
   -3.1132   -3.0498    1.5986 C   0  0  0  0  0  0  0  0  0  0  0  0
   -2.1695   -2.8135    0.4075 C   0  0  0  0  0  0  0  0  0  0  0  0
   -2.9617   -2.3822   -0.8468 C   0  0  0  0  0  0  0  0  0  0  0  0
   -3.4325   -3.2121   -1.6208 O   0  0  0  0  0  0  0  0  0  0  0  0
   -3.2016   -1.0212   -0.8965 N   0  0  0  0  0  0  0  0  0  0  0  0
   -3.9167   -0.2854   -1.8585 C   0  0  0  0  0  0  0  0  0  0  0  0
   -4.5477   -0.8461   -2.9677 C   0  0  0  0  0  0  0  0  0  0  0  0
   -5.2303   -0.0200   -3.8602 C   0  0  0  0  0  0  0  0  0  0  0  0
   -5.8374   -0.5613   -4.9244 F   0  0  0  0  0  0  0  0  0  0  0  0
   -5.2969    1.3582   -3.6716 C   0  0  0  0  0  0  0  0  0  0  0  0
   -4.6678    1.9277   -2.5683 C   0  0  0  0  0  0  0  0  0  0  0  0
   -3.9856    1.1046   -1.6753 C   0  0  0  0  0  0  0  0  0  0  0  0
   -3.3768    1.6634   -0.6160 F   0  0  0  0  0  0  0  0  0  0  0  0
   -1.1504   -1.7835    0.7153 N   0  0  0  0  0  0  0  0  0  0  0  0
   -1.5857   -0.6404    1.4143 N   0  0  0  0  0  0  0  0  0  0  0  0
   -0.7650    0.3351    1.6955 C   0  0  0  0  0  0  0  0  0  0  0  0
   -1.2990    1.5202    2.4484 C   0  0  0  0  0  0  0  0  0  0  0  0
    0.6081    0.2485    1.2685 C   0  0  0  0  0  0  0  0  0  0  0  0
    1.7281    1.0416    1.4564 C   0  0  0  0  0  0  0  0  0  0  0  0
    1.9167    2.2325    2.3247 C   0  0  0  0  0  0  0  0  0  0  0  0
    2.7358    0.4504    0.6829 N   0  0  0  0  0  0  0  0  0  0  0  0
    4.0351    0.9261    0.3231 C   0  0  0  0  0  0  0  0  0  0  0  0
    4.3895    2.2770    0.4015 C   0  0  0  0  0  0  0  0  0  0  0  0
    5.6737    2.6956    0.0304 C   0  0  0  0  0  0  0  0  0  0  0  0
    6.6226    1.7758   -0.4267 C   0  0  0  0  0  0  0  0  0  0  0  0
    7.9845    2.2344   -0.8563 C   0  0  0  0  0  0  0  0  0  0  0  0
    6.2581    0.4323   -0.5443 C   0  0  0  0  0  0  0  0  0  0  0  0
    4.9770    0.0109   -0.1761 C   0  0  0  0  0  0  0  0  0  0  0  0
    2.3417   -0.7704    0.2285 N   0  0  0  0  0  0  0  0  0  0  0  0
    1.0447   -0.8536    0.5278 C   0  0  0  0  0  0  0  0  0  0  0  0
    0.1488   -1.9497    0.1831 C   0  0  0  0  0  0  0  0  0  0  0  0
    0.4857   -2.9175   -0.4935 O   0  0  0  0  0  0  0  0  0  0  0  0
   -4.6430   -4.2244    0.5907 H   0  0  0  0  0  0  0  0  0  0  0  0
   -3.3274   -5.1888    1.2925 H   0  0  0  0  0  0  0  0  0  0  0  0
   -4.5616   -4.4691    2.3389 H   0  0  0  0  0  0  0  0  0  0  0  0
   -3.7822   -2.1927    1.7432 H   0  0  0  0  0  0  0  0  0  0  0  0
   -2.5210   -3.1498    2.5168 H   0  0  0  0  0  0  0  0  0  0  0  0
   -1.6507   -3.7467    0.1590 H   0  0  0  0  0  0  0  0  0  0  0  0
   -2.7816   -0.4846   -0.1358 H   0  0  0  0  0  0  0  0  0  0  0  0
   -4.5307   -1.9110   -3.1712 H   0  0  0  0  0  0  0  0  0  0  0  0
   -5.8364    1.9722   -4.3860 H   0  0  0  0  0  0  0  0  0  0  0  0
   -4.7025    2.9988   -2.3987 H   0  0  0  0  0  0  0  0  0  0  0  0
   -2.3928    1.4956    2.4674 H   0  0  0  0  0  0  0  0  0  0  0  0
   -0.9816    2.4494    1.9682 H   0  0  0  0  0  0  0  0  0  0  0  0
   -0.9339    1.4926    3.4784 H   0  0  0  0  0  0  0  0  0  0  0  0
    1.6821    3.1517    1.7799 H   0  0  0  0  0  0  0  0  0  0  0  0
    1.2619    2.1856    3.1994 H   0  0  0  0  0  0  0  0  0  0  0  0
    2.9330    2.2911    2.7250 H   0  0  0  0  0  0  0  0  0  0  0  0
    3.6869    3.0467    0.6959 H   0  0  0  0  0  0  0  0  0  0  0  0
    5.9245    3.7530    0.0885 H   0  0  0  0  0  0  0  0  0  0  0  0
    8.3032    3.1072   -0.2767 H   0  0  0  0  0  0  0  0  0  0  0  0
    7.9726    2.4997   -1.9180 H   0  0  0  0  0  0  0  0  0  0  0  0
    8.7299    1.4485   -0.6957 H   0  0  0  0  0  0  0  0  0  0  0  0
    6.9660   -0.3004   -0.9262 H   0  0  0  0  0  0  0  0  0  0  0  0
    4.7315   -1.0457   -0.2787 H   0  0  0  0  0  0  0  0  0  0  0  0
  1  2  1  0
  2  3  1  0
  3  4  1  0
  4  5  2  0
  4  6  1  0
  6  7  1  0
  7  8  2  0
  8  9  1  0
  9 10  1  0
  9 11  2  0
 11 12  1  0
 12 13  2  0
 13 14  1  0
  3 15  1  0
 15 16  1  0
 16 17  2  0
 17 18  1  0
 17 19  1  0
 19 20  2  0
 20 21  1  0
 20 22  1  0
 22 23  1  0
 23 24  2  0
 24 25  1  0
 25 26  2  0
 26 27  1  0
 26 28  1  0
 28 29  2  0
 22 30  1  0
 30 31  2  0
 31 32  1  0
 32 33  2  0
 13  7  1  0
 32 15  1  0
 31 19  1  0
 29 23  1  0
  1 34  1  0
  1 35  1  0
  1 36  1  0
  2 37  1  0
  2 38  1  0
  3 39  1  0
  6 40  1  0
  8 41  1  0
 11 42  1  0
 12 43  1  0
 18 44  1  0
 18 45  1  0
 18 46  1  0
 21 47  1  0
 21 48  1  0
 21 49  1  0
 24 50  1  0
 25 51  1  0
 27 52  1  0
 27 53  1  0
 27 54  1  0
 28 55  1  0
 29 56  1  0
M  END
$$$$
