
     RDKit          3D

 70 76  0  0  0  0  0  0  0  0999 V2000
   -4.1492   -4.7535    0.2100 C   0  0  0  0  0  0  0  0  0  0  0  0
   -3.1126   -3.7099    0.5003 C   0  0  0  0  0  0  0  0  0  0  0  0
   -2.1835   -3.8691    1.5457 C   0  0  0  0  0  0  0  0  0  0  0  0
   -2.1895   -5.2835    2.5429 Cl  0  0  0  0  0  0  0  0  0  0  0  0
   -1.2170   -2.8846    1.8271 C   0  0  0  0  0  0  0  0  0  0  0  0
   -1.1430   -1.7153    1.0675 C   0  0  0  0  0  0  0  0  0  0  0  0
   -2.0385   -1.5526    0.0229 C   0  0  0  0  0  0  0  0  0  0  0  0
   -3.0078   -2.5359   -0.2368 C   0  0  0  0  0  0  0  0  0  0  0  0
   -3.8122   -2.1293   -1.2981 N   0  0  0  0  0  0  0  0  0  0  0  0
   -3.4356   -0.8798   -1.7958 C   0  0  0  0  0  0  0  0  0  0  0  0
   -4.0121   -0.3090   -2.7077 O   0  0  0  0  0  0  0  0  0  0  0  0
   -2.2078   -0.4240   -0.9646 C   0  0  1  0  0  0  0  0  0  0  0  0
   -2.4238    0.8177   -0.1899 C   0  0  0  0  0  0  0  0  0  0  0  0
   -1.3959    1.7319   -0.4422 C   0  0  0  0  0  0  0  0  0  0  0  0
   -1.5823    2.8355    0.3409 C   0  0  0  0  0  0  0  0  0  0  0  0
   -0.7448    3.8559    0.5197 O   0  0  0  0  0  0  0  0  0  0  0  0
   -2.8167    2.6717    1.0043 N   0  0  0  0  0  0  0  0  0  0  0  0
   -3.4671    3.6531    1.8194 C   0  0  0  0  0  0  0  0  0  0  0  0
   -3.3199    5.0202    1.5329 C   0  0  0  0  0  0  0  0  0  0  0  0
   -3.9382    5.9820    2.3389 C   0  0  0  0  0  0  0  0  0  0  0  0
   -4.7143    5.5876    3.4263 C   0  0  0  0  0  0  0  0  0  0  0  0
   -4.8823    4.2325    3.7052 C   0  0  0  0  0  0  0  0  0  0  0  0
   -4.2669    3.2664    2.9019 C   0  0  0  0  0  0  0  0  0  0  0  0
   -3.2964    1.3779    0.7100 C   0  0  0  0  0  0  0  0  0  0  0  0
   -4.4349    0.8992    1.2103 O   0  0  0  0  0  0  0  0  0  0  0  0
   -0.3954    1.2001   -1.3990 C   0  0  1  0  0  0  0  0  0  0  0  0
    1.0016    1.0080   -0.7692 C   0  0  0  0  0  0  0  0  0  0  0  0
    1.8193    0.0033   -1.4641 N   0  0  0  0  0  0  0  0  0  0  0  0
    3.1876    0.2260   -1.5881 C   0  0  0  0  0  0  0  0  0  0  0  0
    3.7005    1.2997   -1.2681 O   0  0  0  0  0  0  0  0  0  0  0  0
    4.0123   -0.9018   -2.1958 C   0  0  0  0  0  0  0  0  0  0  0  0
    5.5088   -0.5924   -2.2914 C   0  0  0  0  0  0  0  0  0  0  0  0
    6.2610   -0.9020   -1.0168 C   0  0  0  0  0  0  0  0  0  0  0  0
    6.7547   -2.1922   -0.7796 C   0  0  0  0  0  0  0  0  0  0  0  0
    7.4552   -2.4779    0.3948 C   0  0  0  0  0  0  0  0  0  0  0  0
    7.6635   -1.4787    1.3441 C   0  0  0  0  0  0  0  0  0  0  0  0
    7.1717   -0.1943    1.1207 C   0  0  0  0  0  0  0  0  0  0  0  0
    6.4727    0.0931   -0.0538 C   0  0  0  0  0  0  0  0  0  0  0  0
    1.1466   -1.2740   -1.7110 C   0  0  0  0  0  0  0  0  0  0  0  0
   -0.2125   -1.0828   -2.4067 C   0  0  0  0  0  0  0  0  0  0  0  0
   -1.0659   -0.0613   -1.8334 N   0  0  0  0  0  0  0  0  0  0  0  0
   -4.7772   -4.9214    1.0910 H   0  0  0  0  0  0  0  0  0  0  0  0
   -3.6691   -5.6940   -0.0822 H   0  0  0  0  0  0  0  0  0  0  0  0
   -4.8175   -4.4660   -0.6054 H   0  0  0  0  0  0  0  0  0  0  0  0
   -0.5158   -3.0273    2.6492 H   0  0  0  0  0  0  0  0  0  0  0  0
   -0.4031   -0.9569    1.3032 H   0  0  0  0  0  0  0  0  0  0  0  0
   -4.5892   -2.6392   -1.6913 H   0  0  0  0  0  0  0  0  0  0  0  0
   -0.9592    4.2949    1.3627 H   0  0  0  0  0  0  0  0  0  0  0  0
   -2.7741    5.3646    0.6563 H   0  0  0  0  0  0  0  0  0  0  0  0
   -3.8280    7.0388    2.1034 H   0  0  0  0  0  0  0  0  0  0  0  0
   -5.1972    6.3362    4.0522 H   0  0  0  0  0  0  0  0  0  0  0  0
   -5.4930    3.9205    4.5495 H   0  0  0  0  0  0  0  0  0  0  0  0
   -4.4022    2.2213    3.1671 H   0  0  0  0  0  0  0  0  0  0  0  0
   -4.6453    0.0688    0.7501 H   0  0  0  0  0  0  0  0  0  0  0  0
   -0.3121    1.8550   -2.2743 H   0  0  0  0  0  0  0  0  0  0  0  0
    0.9234    0.6706    0.2712 H   0  0  0  0  0  0  0  0  0  0  0  0
    1.5148    1.9766   -0.7410 H   0  0  0  0  0  0  0  0  0  0  0  0
    3.8491   -1.8211   -1.6220 H   0  0  0  0  0  0  0  0  0  0  0  0
    3.6362   -1.0475   -3.2162 H   0  0  0  0  0  0  0  0  0  0  0  0
    5.9434   -1.1973   -3.0969 H   0  0  0  0  0  0  0  0  0  0  0  0
    5.6886    0.4504   -2.5844 H   0  0  0  0  0  0  0  0  0  0  0  0
    6.6057   -2.9795   -1.5143 H   0  0  0  0  0  0  0  0  0  0  0  0
    7.8408   -3.4798    0.5693 H   0  0  0  0  0  0  0  0  0  0  0  0
    8.2097   -1.6997    2.2571 H   0  0  0  0  0  0  0  0  0  0  0  0
    7.3348    0.5888    1.8571 H   0  0  0  0  0  0  0  0  0  0  0  0
    6.0926    1.1007   -0.2114 H   0  0  0  0  0  0  0  0  0  0  0  0
    1.7598   -1.9296   -2.3327 H   0  0  0  0  0  0  0  0  0  0  0  0
    1.0283   -1.7673   -0.7412 H   0  0  0  0  0  0  0  0  0  0  0  0
   -0.7282   -2.0456   -2.4935 H   0  0  0  0  0  0  0  0  0  0  0  0
   -0.0054   -0.7726   -3.4396 H   0  0  0  0  0  0  0  0  0  0  0  0
  1  2  1  0
  2  3  2  0
  3  4  1  0
  3  5  1  0
  5  6  2  0
  6  7  1  0
  7  8  2  0
  8  9  1  0
  9 10  1  0
 10 11  2  0
 10 12  1  0
 12 13  1  0
 13 14  1  0
 14 15  2  0
 15 16  1  0
 15 17  1  0
 17 18  1  0
 18 19  2  0
 19 20  1  0
 20 21  2  0
 21 22  1  0
 22 23  2  0
 17 24  1  0
 24 25  1  0
 14 26  1  0
 26 27  1  0
 27 28  1  0
 28 29  1  0
 29 30  2  0
 29 31  1  0
 31 32  1  0
 32 33  1  0
 33 34  2  0
 34 35  1  0
 35 36  2  0
 36 37  1  0
 37 38  2  0
 28 39  1  0
 39 40  1  0
 40 41  1  0
  8  2  1  0
 12 41  1  6
 12  7  1  0
 24 13  2  0
 41 26  1  0
 23 18  1  0
 38 33  1  0
  1 42  1  0
  1 43  1  0
  1 44  1  0
  5 45  1  0
  6 46  1  0
  9 47  1  0
 16 48  1  0
 19 49  1  0
 20 50  1  0
 21 51  1  0
 22 52  1  0
 23 53  1  0
 25 54  1  0
 26 55  1  6
 27 56  1  0
 27 57  1  0
 31 58  1  0
 31 59  1  0
 32 60  1  0
 32 61  1  0
 34 62  1  0
 35 63  1  0
 36 64  1  0
 37 65  1  0
 38 66  1  0
 39 67  1  0
 39 68  1  0
 40 69  1  0
 40 70  1  0
M  END
$$$$
