
     RDKit          3D

 41 44  0  0  0  0  0  0  0  0999 V2000
   -3.9642   -0.0564   -1.7767 O   0  0  0  0  0  0  0  0  0  0  0  0
   -2.7795   -0.1054   -0.9446 S   0  0  0  0  0  6  0  0  0  0  0  0
   -2.5700   -1.1907   -0.0117 O   0  0  0  0  0  0  0  0  0  0  0  0
   -1.4663   -0.0005   -2.0066 N   0  0  0  0  0  0  0  0  0  0  0  0
   -0.1762   -0.3731   -1.5143 C   0  0  0  0  0  0  0  0  0  0  0  0
    0.5630    0.6118   -0.8543 C   0  0  0  0  0  0  0  0  0  0  0  0
    1.8001    0.3129   -0.2841 C   0  0  0  0  0  0  0  0  0  0  0  0
    2.6710    1.6452    0.5300 S   0  0  0  0  0  0  0  0  0  0  0  0
    2.6422    1.1009    2.1819 C   0  0  0  0  0  0  0  0  0  0  0  0
    3.3251   -0.0183    2.5841 N   0  0  0  0  0  0  0  0  0  0  0  0
    3.0457   -0.0835    3.8654 C   0  0  0  0  0  0  0  0  0  0  0  0
    2.2364    0.9542    4.2081 N   0  0  0  0  0  0  0  0  0  0  0  0
    1.9636    1.7284    3.1453 N   0  0  0  0  0  0  0  0  0  0  0  0
    2.3027   -0.9908   -0.4121 C   0  0  0  0  0  0  0  0  0  0  0  0
    3.5209   -1.3330    0.1311 O   0  0  0  0  0  0  0  0  0  0  0  0
    1.5848   -1.9998   -1.0963 C   0  0  0  0  0  0  0  0  0  0  0  0
    2.0912   -3.3102   -1.2355 C   0  0  0  0  0  0  0  0  0  0  0  0
    1.3694   -4.3083   -1.8888 C   0  0  0  0  0  0  0  0  0  0  0  0
    0.1190   -4.0194   -2.4141 C   0  0  0  0  0  0  0  0  0  0  0  0
   -0.4032   -2.7307   -2.2930 C   0  0  0  0  0  0  0  0  0  0  0  0
    0.3136   -1.6959   -1.6445 C   0  0  0  0  0  0  0  0  0  0  0  0
   -2.6840    1.4318   -0.0622 C   0  0  0  0  0  0  0  0  0  0  0  0
   -2.1051    1.4657    1.2106 C   0  0  0  0  0  0  0  0  0  0  0  0
   -2.0157    2.6795    1.8907 C   0  0  0  0  0  0  0  0  0  0  0  0
   -2.5219    3.8440    1.3104 C   0  0  0  0  0  0  0  0  0  0  0  0
   -3.1205    3.8004    0.0495 C   0  0  0  0  0  0  0  0  0  0  0  0
   -3.2059    2.5920   -0.6417 C   0  0  0  0  0  0  0  0  0  0  0  0
   -1.7213   -0.3041   -2.9451 H   0  0  0  0  0  0  0  0  0  0  0  0
    0.1702    1.6242   -0.7903 H   0  0  0  0  0  0  0  0  0  0  0  0
    3.3870   -0.8298    4.5690 H   0  0  0  0  0  0  0  0  0  0  0  0
    1.8444    1.1908    5.1132 H   0  0  0  0  0  0  0  0  0  0  0  0
    3.6777   -0.7609    0.9113 H   0  0  0  0  0  0  0  0  0  0  0  0
    3.0677   -3.5604   -0.8229 H   0  0  0  0  0  0  0  0  0  0  0  0
    1.7839   -5.3089   -1.9767 H   0  0  0  0  0  0  0  0  0  0  0  0
   -0.4560   -4.7951   -2.9129 H   0  0  0  0  0  0  0  0  0  0  0  0
   -1.3934   -2.5490   -2.7033 H   0  0  0  0  0  0  0  0  0  0  0  0
   -1.7081    0.5616    1.6673 H   0  0  0  0  0  0  0  0  0  0  0  0
   -1.5465    2.7197    2.8709 H   0  0  0  0  0  0  0  0  0  0  0  0
   -2.4508    4.7890    1.8440 H   0  0  0  0  0  0  0  0  0  0  0  0
   -3.5189    4.7100   -0.3937 H   0  0  0  0  0  0  0  0  0  0  0  0
   -3.6722    2.5621   -1.6237 H   0  0  0  0  0  0  0  0  0  0  0  0
  1  2  2  0
  2  3  2  0
  2  4  1  0
  4  5  1  0
  5  6  2  0
  6  7  1  0
  7  8  1  0
  8  9  1  0
  9 10  1  0
 10 11  2  0
 11 12  1  0
 12 13  1  0
  7 14  2  0
 14 15  1  0
 14 16  1  0
 16 17  2  0
 17 18  1  0
 18 19  2  0
 19 20  1  0
 20 21  2  0
  2 22  1  0
 22 23  2  0
 23 24  1  0
 24 25  2  0
 25 26  1  0
 26 27  2  0
 21  5  1  0
 27 22  1  0
 13  9  2  0
 21 16  1  0
  4 28  1  0
  6 29  1  0
 11 30  1  0
 12 31  1  0
 15 32  1  0
 17 33  1  0
 18 34  1  0
 19 35  1  0
 20 36  1  0
 23 37  1  0
 24 38  1  0
 25 39  1  0
 26 40  1  0
 27 41  1  0
M  END
$$$$
