
     RDKit          3D

 47 49  0  0  0  0  0  0  0  0999 V2000
   -3.3351    2.0541    1.5004 C   0  0  0  0  0  0  0  0  0  0  0  0
   -3.4599    0.6558    2.0824 C   0  0  0  0  0  0  0  0  0  0  0  0
   -4.0236   -0.3008    1.1192 N   0  0  0  0  0  4  0  0  0  0  0  0
   -3.2788   -1.1477    0.4205 C   0  0  0  0  0  0  0  0  0  0  0  0
   -1.8700   -1.2776    0.4407 C   0  0  0  0  0  0  0  0  0  0  0  0
   -1.0851   -0.3879   -0.1861 C   0  0  0  0  0  0  0  0  0  0  0  0
    0.3577   -0.4912   -0.1871 C   0  0  0  0  0  0  0  0  0  0  0  0
    1.1484    0.4042   -0.7993 C   0  0  0  0  0  0  0  0  0  0  0  0
    2.6151    0.3228   -0.7952 C   0  0  0  0  0  0  0  0  0  0  0  0
    3.3625    1.4898   -0.6482 C   0  0  0  0  0  0  0  0  0  0  0  0
    4.7660    1.4486   -0.6570 C   0  0  0  0  0  0  0  0  0  0  0  0
    5.4839    0.2535   -0.8346 C   0  0  0  0  0  0  0  0  0  0  0  0
    6.8819    0.2146   -0.8196 N   0  0  0  0  0  0  0  0  0  0  0  0
    7.5678   -0.9830   -1.3041 C   0  0  0  0  0  0  0  0  0  0  0  0
    7.6325    1.4633   -0.9493 C   0  0  0  0  0  0  0  0  0  0  0  0
    4.7045   -0.9061   -0.9867 C   0  0  0  0  0  0  0  0  0  0  0  0
    3.3005   -0.8772   -0.9781 C   0  0  0  0  0  0  0  0  0  0  0  0
   -4.2519   -2.1768   -0.5447 S   0  0  0  0  0  0  0  0  0  0  0  0
   -5.7014   -1.4200   -0.0124 C   0  0  0  0  0  0  0  0  0  0  0  0
   -7.0254   -1.7061   -0.3795 C   0  0  0  0  0  0  0  0  0  0  0  0
   -8.0475   -0.9527    0.2027 C   0  0  0  0  0  0  0  0  0  0  0  0
   -7.7606    0.0515    1.1215 C   0  0  0  0  0  0  0  0  0  0  0  0
   -6.4376    0.3327    1.4842 C   0  0  0  0  0  0  0  0  0  0  0  0
   -5.3934   -0.4161    0.9028 C   0  0  0  0  0  0  0  0  0  0  0  0
   -4.3097    2.4478    1.1973 H   0  0  0  0  0  0  0  0  0  0  0  0
   -2.9083    2.7366    2.2416 H   0  0  0  0  0  0  0  0  0  0  0  0
   -2.6897    2.0608    0.6181 H   0  0  0  0  0  0  0  0  0  0  0  0
   -2.4805    0.3104    2.4314 H   0  0  0  0  0  0  0  0  0  0  0  0
   -4.0956    0.6746    2.9754 H   0  0  0  0  0  0  0  0  0  0  0  0
   -1.4433   -2.1419    0.9460 H   0  0  0  0  0  0  0  0  0  0  0  0
   -1.5092    0.4500   -0.7384 H   0  0  0  0  0  0  0  0  0  0  0  0
    0.8059   -1.3289    0.3462 H   0  0  0  0  0  0  0  0  0  0  0  0
    0.7341    1.2641   -1.3205 H   0  0  0  0  0  0  0  0  0  0  0  0
    2.8727    2.4508   -0.5111 H   0  0  0  0  0  0  0  0  0  0  0  0
    5.2828    2.3933   -0.5170 H   0  0  0  0  0  0  0  0  0  0  0  0
    7.3192   -1.8568   -0.6922 H   0  0  0  0  0  0  0  0  0  0  0  0
    8.6562   -0.8725   -1.2398 H   0  0  0  0  0  0  0  0  0  0  0  0
    7.3174   -1.1829   -2.3518 H   0  0  0  0  0  0  0  0  0  0  0  0
    7.4214    2.1410   -0.1152 H   0  0  0  0  0  0  0  0  0  0  0  0
    7.4042    1.9626   -1.8974 H   0  0  0  0  0  0  0  0  0  0  0  0
    8.7132    1.2832   -0.9224 H   0  0  0  0  0  0  0  0  0  0  0  0
    5.1716   -1.8773   -1.1199 H   0  0  0  0  0  0  0  0  0  0  0  0
    2.7643   -1.8109   -1.1261 H   0  0  0  0  0  0  0  0  0  0  0  0
   -7.2576   -2.4921   -1.0950 H   0  0  0  0  0  0  0  0  0  0  0  0
   -9.0840   -1.1572   -0.0671 H   0  0  0  0  0  0  0  0  0  0  0  0
   -8.5778    0.6236    1.5613 H   0  0  0  0  0  0  0  0  0  0  0  0
   -6.2577    1.1262    2.2039 H   0  0  0  0  0  0  0  0  0  0  0  0
  1  2  1  0
  2  3  1  0
  3  4  2  0
  4  5  1  0
  5  6  2  3
  6  7  1  0
  7  8  2  3
  8  9  1  0
  9 10  2  0
 10 11  1  0
 11 12  2  0
 12 13  1  0
 13 14  1  0
 13 15  1  0
 12 16  1  0
 16 17  2  0
  4 18  1  0
 18 19  1  0
 19 20  2  0
 20 21  1  0
 21 22  2  0
 22 23  1  0
 23 24  2  0
 24  3  1  0
 17  9  1  0
 24 19  1  0
  1 25  1  0
  1 26  1  0
  1 27  1  0
  2 28  1  0
  2 29  1  0
  5 30  1  0
  6 31  1  0
  7 32  1  0
  8 33  1  0
 10 34  1  0
 11 35  1  0
 14 36  1  0
 14 37  1  0
 14 38  1  0
 15 39  1  0
 15 40  1  0
 15 41  1  0
 16 42  1  0
 17 43  1  0
 20 44  1  0
 21 45  1  0
 22 46  1  0
 23 47  1  0
M  CHG  1   3   1
M  END
$$$$
