
     RDKit          3D

 69 74  0  0  0  0  0  0  0  0999 V2000
    7.4873   -1.4181   -1.0072 C   0  0  0  0  0  0  0  0  0  0  0  0
    6.8321   -1.5595    0.2444 O   0  0  0  0  0  0  0  0  0  0  0  0
    5.4749   -1.3521    0.2815 C   0  0  0  0  0  0  0  0  0  0  0  0
    4.6968   -1.0093   -0.8296 C   0  0  0  0  0  0  0  0  0  0  0  0
    3.3117   -0.8214   -0.7052 C   0  0  0  0  0  0  0  0  0  0  0  0
    2.6987   -0.9498    0.5534 C   0  0  0  0  0  0  0  0  0  0  0  0
    3.4813   -1.3036    1.6653 C   0  0  0  0  0  0  0  0  0  0  0  0
    4.8613   -1.5030    1.5403 C   0  0  0  0  0  0  0  0  0  0  0  0
    5.6925   -1.8463    2.5785 O   0  0  0  0  0  0  0  0  0  0  0  0
    5.1148   -1.9986    3.8662 C   0  0  0  0  0  0  0  0  0  0  0  0
    1.1990   -0.7796    0.7240 C   0  0  0  0  0  0  0  0  0  0  0  0
    0.6145   -0.0456   -0.4102 N   0  0  0  0  0  0  0  0  0  0  0  0
   -0.7837    0.0076   -0.2504 C   0  0  0  0  0  0  0  0  0  0  0  0
   -1.5491   -1.0160   -0.6949 N   0  0  0  0  0  0  0  0  0  0  0  0
   -2.8870   -0.9763   -0.5301 C   0  0  0  0  0  0  0  0  0  0  0  0
   -3.6971   -2.1413   -1.0903 C   0  0  0  0  0  0  0  0  0  0  0  0
   -4.0003   -2.0602   -2.5407 N   0  0  0  0  0  0  0  0  0  0  0  0
   -4.6683   -3.2926   -3.0121 C   0  0  0  0  0  0  0  0  0  0  0  0
   -6.1395   -3.4186   -2.5772 C   0  0  0  0  0  0  0  0  0  0  0  0
   -6.9029   -2.2710   -2.9658 O   0  0  0  0  0  0  0  0  0  0  0  0
   -6.3287   -1.0698   -2.4328 C   0  0  0  0  0  0  0  0  0  0  0  0
   -4.8664   -0.9083   -2.8804 C   0  0  0  0  0  0  0  0  0  0  0  0
   -3.5772    0.0021    0.0743 N   0  0  0  0  0  0  0  0  0  0  0  0
   -2.7965    1.0080    0.4972 C   0  0  0  0  0  0  0  0  0  0  0  0
   -3.4891    2.3529    1.2820 S   0  0  0  0  0  0  0  0  0  0  0  0
   -1.9746    3.1040    1.4564 C   0  0  0  0  0  0  0  0  0  0  0  0
   -0.9427    2.3513    0.9252 C   0  0  0  0  0  0  0  0  0  0  0  0
   -1.4193    1.1019    0.3745 C   0  0  0  0  0  0  0  0  0  0  0  0
    0.4816    2.8274    0.9649 C   0  0  0  0  0  0  0  0  0  0  0  0
    0.5796    4.3250    1.3004 C   0  0  0  0  0  0  0  0  0  0  0  0
   -0.3629    4.7599    2.4433 C   0  0  0  0  0  0  0  0  0  0  0  0
    0.0327    4.1234    3.7798 C   0  0  0  0  0  0  0  0  0  0  0  0
   -1.8349    4.4576    2.0857 C   0  0  0  0  0  0  0  0  0  0  0  0
    0.9960   -0.6400   -1.7002 C   0  0  0  0  0  0  0  0  0  0  0  0
    2.4971   -0.4153   -1.9120 C   0  0  0  0  0  0  0  0  0  0  0  0
    7.1153   -2.1487   -1.7331 H   0  0  0  0  0  0  0  0  0  0  0  0
    7.3945   -0.3962   -1.3891 H   0  0  0  0  0  0  0  0  0  0  0  0
    8.5521   -1.6181   -0.8518 H   0  0  0  0  0  0  0  0  0  0  0  0
    5.1447   -0.8796   -1.8095 H   0  0  0  0  0  0  0  0  0  0  0  0
    2.9857   -1.4182    2.6241 H   0  0  0  0  0  0  0  0  0  0  0  0
    4.3818   -2.8118    3.8767 H   0  0  0  0  0  0  0  0  0  0  0  0
    5.9154   -2.2654    4.5628 H   0  0  0  0  0  0  0  0  0  0  0  0
    4.6714   -1.0599    4.2140 H   0  0  0  0  0  0  0  0  0  0  0  0
    0.7556   -1.7808    0.8202 H   0  0  0  0  0  0  0  0  0  0  0  0
    1.0141   -0.2289    1.6551 H   0  0  0  0  0  0  0  0  0  0  0  0
   -3.1018   -3.0456   -0.9071 H   0  0  0  0  0  0  0  0  0  0  0  0
   -4.6072   -2.2476   -0.4886 H   0  0  0  0  0  0  0  0  0  0  0  0
   -4.6338   -3.2813   -4.1093 H   0  0  0  0  0  0  0  0  0  0  0  0
   -4.1054   -4.1803   -2.7007 H   0  0  0  0  0  0  0  0  0  0  0  0
   -6.2314   -3.5620   -1.4946 H   0  0  0  0  0  0  0  0  0  0  0  0
   -6.5904   -4.2910   -3.0611 H   0  0  0  0  0  0  0  0  0  0  0  0
   -6.9217   -0.2298   -2.8085 H   0  0  0  0  0  0  0  0  0  0  0  0
   -6.4245   -1.0767   -1.3413 H   0  0  0  0  0  0  0  0  0  0  0  0
   -4.8540   -0.8111   -3.9743 H   0  0  0  0  0  0  0  0  0  0  0  0
   -4.4535    0.0315   -2.5002 H   0  0  0  0  0  0  0  0  0  0  0  0
    1.0278    2.2497    1.7198 H   0  0  0  0  0  0  0  0  0  0  0  0
    0.9711    2.6523    0.0003 H   0  0  0  0  0  0  0  0  0  0  0  0
    1.6185    4.5757    1.5465 H   0  0  0  0  0  0  0  0  0  0  0  0
    0.3242    4.9047    0.4027 H   0  0  0  0  0  0  0  0  0  0  0  0
   -0.2660    5.8467    2.5674 H   0  0  0  0  0  0  0  0  0  0  0  0
    1.0772    4.3487    4.0200 H   0  0  0  0  0  0  0  0  0  0  0  0
   -0.0861    3.0356    3.7746 H   0  0  0  0  0  0  0  0  0  0  0  0
   -0.5877    4.5203    4.5906 H   0  0  0  0  0  0  0  0  0  0  0  0
   -2.4708    4.5487    2.9738 H   0  0  0  0  0  0  0  0  0  0  0  0
   -2.1803    5.2061    1.3609 H   0  0  0  0  0  0  0  0  0  0  0  0
    0.7748   -1.7164   -1.7233 H   0  0  0  0  0  0  0  0  0  0  0  0
    0.4531   -0.1657   -2.5280 H   0  0  0  0  0  0  0  0  0  0  0  0
    2.6842    0.6493   -2.1015 H   0  0  0  0  0  0  0  0  0  0  0  0
    2.8217   -0.9787   -2.7945 H   0  0  0  0  0  0  0  0  0  0  0  0
  1  2  1  0
  2  3  1  0
  3  4  2  0
  4  5  1  0
  5  6  2  0
  6  7  1  0
  7  8  2  0
  8  9  1  0
  9 10  1  0
  6 11  1  0
 11 12  1  0
 12 13  1  0
 13 14  2  0
 14 15  1  0
 15 16  1  0
 16 17  1  0
 17 18  1  0
 18 19  1  0
 19 20  1  0
 20 21  1  0
 21 22  1  0
 15 23  2  0
 23 24  1  0
 24 25  1  0
 25 26  1  0
 26 27  2  0
 27 28  1  0
 27 29  1  0
 29 30  1  0
 30 31  1  0
 31 32  1  0
 31 33  1  0
 12 34  1  0
 34 35  1  0
  8  3  1  0
 28 13  1  0
 35  5  1  0
 22 17  1  0
 28 24  2  0
 33 26  1  0
  1 36  1  0
  1 37  1  0
  1 38  1  0
  4 39  1  0
  7 40  1  0
 10 41  1  0
 10 42  1  0
 10 43  1  0
 11 44  1  0
 11 45  1  0
 16 46  1  0
 16 47  1  0
 18 48  1  0
 18 49  1  0
 19 50  1  0
 19 51  1  0
 21 52  1  0
 21 53  1  0
 22 54  1  0
 22 55  1  0
 29 56  1  0
 29 57  1  0
 30 58  1  0
 30 59  1  0
 31 60  1  0
 32 61  1  0
 32 62  1  0
 32 63  1  0
 33 64  1  0
 33 65  1  0
 34 66  1  0
 34 67  1  0
 35 68  1  0
 35 69  1  0
M  END
$$$$
