
     RDKit          3D

 56 58  0  0  0  0  0  0  0  0999 V2000
    3.3910   -2.1065   -4.2478 C   0  0  0  0  0  0  0  0  0  0  0  0
    2.6941   -1.0016   -3.6875 O   0  0  0  0  0  0  0  0  0  0  0  0
    2.8681   -0.7663   -2.3511 C   0  0  0  0  0  0  0  0  0  0  0  0
    3.6681   -1.5141   -1.4892 C   0  0  0  0  0  0  0  0  0  0  0  0
    3.7623   -1.1687   -0.1368 C   0  0  0  0  0  0  0  0  0  0  0  0
    3.0544   -0.0734    0.3619 C   0  0  0  0  0  0  0  0  0  0  0  0
    3.0816    0.3515    1.6697 O   0  0  0  0  0  0  0  0  0  0  0  0
    3.8970   -0.3857    2.5720 C   0  0  0  0  0  0  0  0  0  0  0  0
    2.2396    0.6841   -0.5045 C   0  0  0  0  0  0  0  0  0  0  0  0
    1.5301    1.7631    0.0712 N   0  0  0  0  0  0  0  0  0  0  0  0
    0.6459    2.6312   -0.5414 C   0  0  0  0  0  0  0  0  0  0  0  0
    0.3716    2.6553   -1.7378 O   0  0  0  0  0  0  0  0  0  0  0  0
   -0.0442    3.5698    0.4400 C   0  0  0  0  0  0  0  0  0  0  0  0
   -1.7272    2.9790    0.7957 S   0  0  0  0  0  0  0  0  0  0  0  0
   -1.3181    1.3583    1.3105 C   0  0  0  0  0  0  0  0  0  0  0  0
   -0.6359    1.2682    2.4054 N   0  0  0  0  0  0  0  0  0  0  0  0
   -0.2812   -0.0030    2.8638 C   0  0  0  0  0  0  0  0  0  0  0  0
    0.4436   -0.1147    4.0529 C   0  0  0  0  0  0  0  0  0  0  0  0
    0.8170   -1.3686    4.5442 C   0  0  0  0  0  0  0  0  0  0  0  0
    0.4691   -2.5239    3.8451 C   0  0  0  0  0  0  0  0  0  0  0  0
   -0.2580   -2.4241    2.6594 C   0  0  0  0  0  0  0  0  0  0  0  0
   -0.6301   -1.1625    2.1800 C   0  0  0  0  0  0  0  0  0  0  0  0
   -1.4213   -1.0165    0.9472 C   0  0  0  0  0  0  0  0  0  0  0  0
   -1.8047   -2.0256    0.3591 O   0  0  0  0  0  0  0  0  0  0  0  0
   -1.7126    0.2831    0.5365 N   0  0  0  0  0  0  0  0  0  0  0  0
   -2.4852    0.4011   -0.7084 C   0  0  0  0  0  0  0  0  0  0  0  0
   -3.9916    0.2456   -0.4582 C   0  0  0  0  0  0  0  0  0  0  0  0
   -4.7611    0.1911   -1.6872 N   0  0  0  0  0  0  0  0  0  0  0  0
   -5.0719    1.3303   -2.3929 C   0  0  0  0  0  0  0  0  0  0  0  0
   -5.8174    1.0575   -3.6699 C   0  0  0  0  0  0  0  0  0  0  0  0
   -4.7742    2.4604   -2.0260 O   0  0  0  0  0  0  0  0  0  0  0  0
    2.1574    0.3314   -1.8533 C   0  0  0  0  0  0  0  0  0  0  0  0
    3.1456   -2.1514   -5.3131 H   0  0  0  0  0  0  0  0  0  0  0  0
    4.4746   -1.9755   -4.1613 H   0  0  0  0  0  0  0  0  0  0  0  0
    3.0688   -3.0485   -3.7920 H   0  0  0  0  0  0  0  0  0  0  0  0
    4.2336   -2.3725   -1.8366 H   0  0  0  0  0  0  0  0  0  0  0  0
    4.3981   -1.7779    0.4963 H   0  0  0  0  0  0  0  0  0  0  0  0
    4.9511   -0.3370    2.2802 H   0  0  0  0  0  0  0  0  0  0  0  0
    3.8045    0.0765    3.5595 H   0  0  0  0  0  0  0  0  0  0  0  0
    3.5560   -1.4225    2.6563 H   0  0  0  0  0  0  0  0  0  0  0  0
    1.6571    1.8341    1.0791 H   0  0  0  0  0  0  0  0  0  0  0  0
   -0.0961    4.5652   -0.0120 H   0  0  0  0  0  0  0  0  0  0  0  0
    0.5259    3.6633    1.3694 H   0  0  0  0  0  0  0  0  0  0  0  0
    0.7145    0.7842    4.6011 H   0  0  0  0  0  0  0  0  0  0  0  0
    1.3760   -1.4416    5.4742 H   0  0  0  0  0  0  0  0  0  0  0  0
    0.7562   -3.5009    4.2266 H   0  0  0  0  0  0  0  0  0  0  0  0
   -0.5394   -3.3233    2.1155 H   0  0  0  0  0  0  0  0  0  0  0  0
   -2.2744    1.3446   -1.2191 H   0  0  0  0  0  0  0  0  0  0  0  0
   -2.1533   -0.3832   -1.4010 H   0  0  0  0  0  0  0  0  0  0  0  0
   -4.2034   -0.6812    0.0856 H   0  0  0  0  0  0  0  0  0  0  0  0
   -4.3614    1.0762    0.1536 H   0  0  0  0  0  0  0  0  0  0  0  0
   -4.9272   -0.7136   -2.1106 H   0  0  0  0  0  0  0  0  0  0  0  0
   -6.0733    2.0039   -4.1545 H   0  0  0  0  0  0  0  0  0  0  0  0
   -5.1906    0.4705   -4.3471 H   0  0  0  0  0  0  0  0  0  0  0  0
   -6.7407    0.5133   -3.4523 H   0  0  0  0  0  0  0  0  0  0  0  0
    1.5415    0.8914   -2.5499 H   0  0  0  0  0  0  0  0  0  0  0  0
  1  2  1  0
  2  3  1  0
  3  4  2  0
  4  5  1  0
  5  6  2  0
  6  7  1  0
  7  8  1  0
  6  9  1  0
  9 10  1  0
 10 11  1  0
 11 12  2  0
 11 13  1  0
 13 14  1  0
 14 15  1  0
 15 16  2  0
 16 17  1  0
 17 18  2  0
 18 19  1  0
 19 20  2  0
 20 21  1  0
 21 22  2  0
 22 23  1  0
 23 24  2  0
 23 25  1  0
 25 26  1  0
 26 27  1  0
 27 28  1  0
 28 29  1  0
 29 30  1  0
 29 31  2  0
  9 32  2  0
 32  3  1  0
 25 15  1  0
 22 17  1  0
  1 33  1  0
  1 34  1  0
  1 35  1  0
  4 36  1  0
  5 37  1  0
  8 38  1  0
  8 39  1  0
  8 40  1  0
 10 41  1  0
 13 42  1  0
 13 43  1  0
 18 44  1  0
 19 45  1  0
 20 46  1  0
 21 47  1  0
 26 48  1  0
 26 49  1  0
 27 50  1  0
 27 51  1  0
 28 52  1  0
 30 53  1  0
 30 54  1  0
 30 55  1  0
 32 56  1  0
M  END
$$$$
