
     RDKit          3D

 42 43  0  0  0  0  0  0  0  0999 V2000
   -4.4747   -0.3075    2.0820 C   0  0  0  0  0  0  0  0  0  0  0  0
   -4.8374   -0.3685    0.6326 C   0  0  0  0  0  0  0  0  0  0  0  0
   -4.1847    0.1755   -0.4155 C   0  0  0  0  0  0  0  0  0  0  0  0
   -4.7197   -0.0103   -1.8153 C   0  0  0  0  0  0  0  0  0  0  0  0
   -2.9315    1.0240   -0.3242 C   0  0  0  0  0  0  0  0  0  0  0  0
   -1.7957    0.4460   -1.0543 N   0  0  0  0  0  0  0  0  0  0  0  0
   -1.2439   -0.7570   -0.3923 C   0  0  0  0  0  0  0  0  0  0  0  0
   -0.0211   -0.5208    0.5256 C   0  0  0  0  0  0  0  0  0  0  0  0
    1.0702    0.1543   -0.1977 N   0  0  0  0  0  0  0  0  0  0  0  0
    2.3955   -0.0479    0.1501 C   0  0  0  0  0  0  0  0  0  0  0  0
    3.4454    0.1530   -0.7590 C   0  0  0  0  0  0  0  0  0  0  0  0
    4.7876   -0.0467   -0.4054 C   0  0  0  0  0  0  0  0  0  0  0  0
    5.1286   -0.4436    0.8869 C   0  0  0  0  0  0  0  0  0  0  0  0
    6.5585   -0.6905    1.2607 C   0  0  0  0  0  0  0  0  0  0  0  0
    4.1034   -0.6600    1.8066 C   0  0  0  0  0  0  0  0  0  0  0  0
    2.7650   -0.4587    1.4409 C   0  0  0  0  0  0  0  0  0  0  0  0
    0.6858    0.9014   -1.4053 C   0  0  0  0  0  0  0  0  0  0  0  0
   -0.7435    1.4698   -1.2507 C   0  0  0  0  0  0  0  0  0  0  0  0
   -4.4325   -1.3227    2.4895 H   0  0  0  0  0  0  0  0  0  0  0  0
   -5.2409    0.2474    2.6320 H   0  0  0  0  0  0  0  0  0  0  0  0
   -3.5082    0.1608    2.2756 H   0  0  0  0  0  0  0  0  0  0  0  0
   -5.7424   -0.9427    0.4341 H   0  0  0  0  0  0  0  0  0  0  0  0
   -5.6694   -0.5558   -1.8270 H   0  0  0  0  0  0  0  0  0  0  0  0
   -4.8952    0.9622   -2.2871 H   0  0  0  0  0  0  0  0  0  0  0  0
   -4.0103   -0.5740   -2.4294 H   0  0  0  0  0  0  0  0  0  0  0  0
   -3.1877    1.9967   -0.7674 H   0  0  0  0  0  0  0  0  0  0  0  0
   -2.6482    1.2411    0.7106 H   0  0  0  0  0  0  0  0  0  0  0  0
   -2.0102   -1.3069    0.1654 H   0  0  0  0  0  0  0  0  0  0  0  0
   -0.9316   -1.4386   -1.1952 H   0  0  0  0  0  0  0  0  0  0  0  0
   -0.3151    0.0865    1.3899 H   0  0  0  0  0  0  0  0  0  0  0  0
    0.3024   -1.5026    0.8924 H   0  0  0  0  0  0  0  0  0  0  0  0
    3.2395    0.4483   -1.7837 H   0  0  0  0  0  0  0  0  0  0  0  0
    5.5596    0.1097   -1.1550 H   0  0  0  0  0  0  0  0  0  0  0  0
    6.8251   -1.7317    1.0548 H   0  0  0  0  0  0  0  0  0  0  0  0
    7.2290   -0.0350    0.6951 H   0  0  0  0  0  0  0  0  0  0  0  0
    6.7255   -0.4859    2.3235 H   0  0  0  0  0  0  0  0  0  0  0  0
    4.3315   -0.9811    2.8201 H   0  0  0  0  0  0  0  0  0  0  0  0
    2.0094   -0.6121    2.2061 H   0  0  0  0  0  0  0  0  0  0  0  0
    0.7427    0.2483   -2.2846 H   0  0  0  0  0  0  0  0  0  0  0  0
    1.3589    1.7522   -1.5660 H   0  0  0  0  0  0  0  0  0  0  0  0
   -0.7263    2.1656   -0.3998 H   0  0  0  0  0  0  0  0  0  0  0  0
   -0.9936    2.0576   -2.1415 H   0  0  0  0  0  0  0  0  0  0  0  0
  1  2  1  0
  2  3  2  3
  3  4  1  0
  3  5  1  0
  5  6  1  0
  6  7  1  0
  7  8  1  0
  8  9  1  0
  9 10  1  0
 10 11  2  0
 11 12  1  0
 12 13  2  0
 13 14  1  0
 13 15  1  0
 15 16  2  0
  9 17  1  0
 17 18  1  0
 18  6  1  0
 16 10  1  0
  1 19  1  0
  1 20  1  0
  1 21  1  0
  2 22  1  0
  4 23  1  0
  4 24  1  0
  4 25  1  0
  5 26  1  0
  5 27  1  0
  7 28  1  0
  7 29  1  0
  8 30  1  0
  8 31  1  0
 11 32  1  0
 12 33  1  0
 14 34  1  0
 14 35  1  0
 14 36  1  0
 15 37  1  0
 16 38  1  0
 17 39  1  0
 17 40  1  0
 18 41  1  0
 18 42  1  0
M  END
$$$$
