
     RDKit          3D

 40 42  0  0  0  0  0  0  0  0999 V2000
   -2.3653    4.0344    3.2895 C   0  0  0  0  0  0  0  0  0  0  0  0
   -1.5982    3.2189    2.4114 O   0  0  0  0  0  0  0  0  0  0  0  0
   -1.8656    1.8754    2.4245 C   0  0  0  0  0  0  0  0  0  0  0  0
   -2.8320    1.2414    3.1992 C   0  0  0  0  0  0  0  0  0  0  0  0
   -3.0103   -0.1465    3.1369 C   0  0  0  0  0  0  0  0  0  0  0  0
   -2.1949   -0.8860    2.2660 C   0  0  0  0  0  0  0  0  0  0  0  0
   -1.2270   -0.2789    1.4587 C   0  0  0  0  0  0  0  0  0  0  0  0
   -1.0620    1.1207    1.5598 C   0  0  0  0  0  0  0  0  0  0  0  0
   -0.6021   -1.3182    0.7011 C   0  0  0  0  0  0  0  0  0  0  0  0
    0.4385   -1.2399   -0.2746 C   0  0  0  0  0  0  0  0  0  0  0  0
    0.6005   -0.2333   -1.1497 C   0  0  0  0  0  0  0  0  0  0  0  0
    1.6787   -0.1624   -2.1412 C   0  0  0  0  0  0  0  0  0  0  0  0
    2.1063   -1.2752   -2.8633 C   0  0  0  0  0  0  0  0  0  0  0  0
    3.1147   -1.1366   -3.8105 C   0  0  0  0  0  0  0  0  0  0  0  0
    3.6831    0.0679   -4.0407 N   0  0  0  0  0  4  0  0  0  0  0  0
    4.7435    0.1918   -5.0550 C   0  0  0  0  0  0  0  0  0  0  0  0
    3.2692    1.1654   -3.3695 C   0  0  0  0  0  0  0  0  0  0  0  0
    2.2625    1.0734   -2.4153 C   0  0  0  0  0  0  0  0  0  0  0  0
   -1.1680   -2.5137    1.0879 C   0  0  0  0  0  0  0  0  0  0  0  0
   -2.1370   -2.2414    2.0177 N   0  0  0  0  0  0  0  0  0  0  0  0
   -2.9710   -3.2367    2.6553 C   0  0  0  0  0  0  0  0  0  0  0  0
   -2.0253    5.0674    3.1679 H   0  0  0  0  0  0  0  0  0  0  0  0
   -3.4286    4.0014    3.0300 H   0  0  0  0  0  0  0  0  0  0  0  0
   -2.2028    3.7514    4.3348 H   0  0  0  0  0  0  0  0  0  0  0  0
   -3.4712    1.7971    3.8782 H   0  0  0  0  0  0  0  0  0  0  0  0
   -3.7612   -0.6284    3.7558 H   0  0  0  0  0  0  0  0  0  0  0  0
   -0.3011    1.6277    0.9764 H   0  0  0  0  0  0  0  0  0  0  0  0
    1.1244   -2.0840   -0.2926 H   0  0  0  0  0  0  0  0  0  0  0  0
   -0.0953    0.6037   -1.1464 H   0  0  0  0  0  0  0  0  0  0  0  0
    1.6526   -2.2519   -2.7064 H   0  0  0  0  0  0  0  0  0  0  0  0
    3.4686   -1.9824   -4.3934 H   0  0  0  0  0  0  0  0  0  0  0  0
    5.4236    0.9971   -4.7655 H   0  0  0  0  0  0  0  0  0  0  0  0
    5.2991   -0.7479   -5.1095 H   0  0  0  0  0  0  0  0  0  0  0  0
    4.2594    0.4143   -6.0091 H   0  0  0  0  0  0  0  0  0  0  0  0
    3.7468    2.1126   -3.6043 H   0  0  0  0  0  0  0  0  0  0  0  0
    1.9444    1.9687   -1.8832 H   0  0  0  0  0  0  0  0  0  0  0  0
   -0.9743   -3.5300    0.7698 H   0  0  0  0  0  0  0  0  0  0  0  0
   -2.7155   -4.2283    2.2729 H   0  0  0  0  0  0  0  0  0  0  0  0
   -4.0154   -3.0102    2.4265 H   0  0  0  0  0  0  0  0  0  0  0  0
   -2.7921   -3.1985    3.7329 H   0  0  0  0  0  0  0  0  0  0  0  0
  1  2  1  0
  2  3  1  0
  3  4  2  0
  4  5  1  0
  5  6  2  0
  6  7  1  0
  7  8  2  0
  7  9  1  0
  9 10  1  0
 10 11  2  3
 11 12  1  0
 12 13  2  0
 13 14  1  0
 14 15  2  0
 15 16  1  0
 15 17  1  0
 17 18  2  0
  9 19  2  0
 19 20  1  0
 20 21  1  0
  8  3  1  0
 18 12  1  0
 20  6  1  0
  1 22  1  0
  1 23  1  0
  1 24  1  0
  4 25  1  0
  5 26  1  0
  8 27  1  0
 10 28  1  0
 11 29  1  0
 13 30  1  0
 14 31  1  0
 16 32  1  0
 16 33  1  0
 16 34  1  0
 17 35  1  0
 18 36  1  0
 19 37  1  0
 21 38  1  0
 21 39  1  0
 21 40  1  0
M  CHG  1  15   1
M  END
$$$$
