
     RDKit          3D

 24 25  0  0  0  0  0  0  0  0999 V2000
    4.5153   -0.9229    1.1379 C   0  0  0  0  0  0  0  0  0  0  0  0
    2.7263   -0.6635    1.1362 S   0  0  0  0  0  0  0  0  0  0  0  0
    2.4494   -0.2611   -0.5267 C   0  0  0  0  0  0  0  0  0  0  0  0
    3.4097   -0.1833   -1.4232 N   0  0  0  0  0  0  0  0  0  0  0  0
    2.8296    0.2655   -2.5705 N   0  0  0  0  0  0  0  0  0  0  0  0
    1.5351    0.4698   -2.3992 N   0  0  0  0  0  0  0  0  0  0  0  0
    1.2426    0.1059   -1.1173 N   0  0  0  0  0  0  0  0  0  0  0  0
   -0.1105    0.1575   -0.6667 C   0  0  0  0  0  0  0  0  0  0  0  0
   -0.5355   -0.3958    0.5438 C   0  0  0  0  0  0  0  0  0  0  0  0
   -1.8803   -0.3144    0.9314 C   0  0  0  0  0  0  0  0  0  0  0  0
   -2.8335    0.3142    0.1200 C   0  0  0  0  0  0  0  0  0  0  0  0
   -4.2654    0.3806    0.5707 C   0  0  0  0  0  0  0  0  0  0  0  0
   -2.4120    0.8560   -1.0996 C   0  0  0  0  0  0  0  0  0  0  0  0
   -3.5201    1.6418   -2.1675 Cl  0  0  0  0  0  0  0  0  0  0  0  0
   -1.0702    0.7760   -1.4906 C   0  0  0  0  0  0  0  0  0  0  0  0
    5.0387   -0.0094    0.8422 H   0  0  0  0  0  0  0  0  0  0  0  0
    4.8369   -1.1927    2.1475 H   0  0  0  0  0  0  0  0  0  0  0  0
    4.7886   -1.7366    0.4603 H   0  0  0  0  0  0  0  0  0  0  0  0
    0.1238   -0.9304    1.2163 H   0  0  0  0  0  0  0  0  0  0  0  0
   -2.1784   -0.7584    1.8806 H   0  0  0  0  0  0  0  0  0  0  0  0
   -4.9126   -0.1502   -0.1348 H   0  0  0  0  0  0  0  0  0  0  0  0
   -4.5913    1.4221    0.6567 H   0  0  0  0  0  0  0  0  0  0  0  0
   -4.3985   -0.0855    1.5529 H   0  0  0  0  0  0  0  0  0  0  0  0
   -0.7877    1.2150   -2.4471 H   0  0  0  0  0  0  0  0  0  0  0  0
  1  2  1  0
  2  3  1  0
  3  4  2  0
  4  5  1  0
  5  6  2  0
  6  7  1  0
  7  8  1  0
  8  9  2  0
  9 10  1  0
 10 11  2  0
 11 12  1  0
 11 13  1  0
 13 14  1  0
 13 15  2  0
  7  3  1  0
 15  8  1  0
  1 16  1  0
  1 17  1  0
  1 18  1  0
  9 19  1  0
 10 20  1  0
 12 21  1  0
 12 22  1  0
 12 23  1  0
 15 24  1  0
M  END
$$$$
