
     RDKit          3D

 46 49  0  0  0  0  0  0  0  0999 V2000
    4.6156   -0.5355    0.5634 O   0  0  0  0  0  0  0  0  0  0  0  0
    3.5370   -0.6661    1.1329 C   0  0  0  0  0  0  0  0  0  0  0  0
    2.9515   -2.0490    1.3783 C   0  0  0  0  0  0  0  0  0  0  0  0
    1.7693   -2.5051    0.0765 S   0  0  0  0  0  0  0  0  0  0  0  0
    0.3873   -1.5739    0.5292 C   0  0  0  0  0  0  0  0  0  0  0  0
    0.2850   -0.8609    1.6291 N   0  0  0  0  0  0  0  0  0  0  0  0
   -0.9070   -0.1971    1.5884 N   0  0  0  0  0  0  0  0  0  0  0  0
   -1.5358   -0.5443    0.4767 C   0  0  0  0  0  0  0  0  0  0  0  0
   -2.8841   -0.0559    0.0612 C   0  0  0  0  0  0  0  0  0  0  0  0
   -2.8144    1.0183   -0.9824 C   0  0  0  0  0  0  0  0  0  0  0  0
   -2.0807    2.1884   -0.9634 C   0  0  0  0  0  0  0  0  0  0  0  0
   -2.2784    2.9740   -2.1327 C   0  0  0  0  0  0  0  0  0  0  0  0
   -3.1645    2.3849   -3.0024 C   0  0  0  0  0  0  0  0  0  0  0  0
   -3.7549    0.8977   -2.4078 S   0  0  0  0  0  0  0  0  0  0  0  0
   -0.7447   -1.4321   -0.2264 N   0  0  0  0  0  0  0  0  0  0  0  0
   -1.0449   -2.0540   -1.5018 C   0  0  0  0  0  0  0  0  0  0  0  0
   -1.9569   -3.2110   -1.3329 C   0  0  0  0  0  0  0  0  0  0  0  0
   -3.2486   -3.4701   -1.7455 C   0  0  0  0  0  0  0  0  0  0  0  0
   -3.5731   -4.7619   -1.2649 C   0  0  0  0  0  0  0  0  0  0  0  0
   -2.4567   -5.2126   -0.6009 C   0  0  0  0  0  0  0  0  0  0  0  0
   -1.4687   -4.2814   -0.6427 O   0  0  0  0  0  0  0  0  0  0  0  0
    2.7493    0.3611    1.6239 N   0  0  0  0  0  0  0  0  0  0  0  0
    3.0029    1.7422    1.6015 C   0  0  0  0  0  0  0  0  0  0  0  0
    4.1954    2.3065    1.1609 C   0  0  0  0  0  0  0  0  0  0  0  0
    4.3664    3.6946    1.1914 C   0  0  0  0  0  0  0  0  0  0  0  0
    5.8455    4.3897    0.6428 Cl  0  0  0  0  0  0  0  0  0  0  0  0
    3.3559    4.5290    1.6564 C   0  0  0  0  0  0  0  0  0  0  0  0
    2.1633    3.9661    2.0847 C   0  0  0  0  0  0  0  0  0  0  0  0
    0.8951    4.9838    2.6474 Cl  0  0  0  0  0  0  0  0  0  0  0  0
    1.9812    2.5825    2.0604 C   0  0  0  0  0  0  0  0  0  0  0  0
    3.7766   -2.7700    1.3663 H   0  0  0  0  0  0  0  0  0  0  0  0
    2.4965   -2.1066    2.3727 H   0  0  0  0  0  0  0  0  0  0  0  0
   -3.4951   -0.8969   -0.2670 H   0  0  0  0  0  0  0  0  0  0  0  0
   -3.3971    0.3593    0.9365 H   0  0  0  0  0  0  0  0  0  0  0  0
   -1.4293    2.4682   -0.1445 H   0  0  0  0  0  0  0  0  0  0  0  0
   -1.7997    3.9271   -2.3218 H   0  0  0  0  0  0  0  0  0  0  0  0
   -3.5004    2.7627   -3.9582 H   0  0  0  0  0  0  0  0  0  0  0  0
   -1.4850   -1.2924   -2.1499 H   0  0  0  0  0  0  0  0  0  0  0  0
   -0.1176   -2.3703   -1.9824 H   0  0  0  0  0  0  0  0  0  0  0  0
   -3.8834   -2.8087   -2.3192 H   0  0  0  0  0  0  0  0  0  0  0  0
   -4.5034   -5.3019   -1.3869 H   0  0  0  0  0  0  0  0  0  0  0  0
   -2.2188   -6.1266   -0.0721 H   0  0  0  0  0  0  0  0  0  0  0  0
    1.8214    0.0886    1.9610 H   0  0  0  0  0  0  0  0  0  0  0  0
    5.0117    1.6889    0.8015 H   0  0  0  0  0  0  0  0  0  0  0  0
    3.5009    5.6052    1.6861 H   0  0  0  0  0  0  0  0  0  0  0  0
    1.0355    2.1652    2.3949 H   0  0  0  0  0  0  0  0  0  0  0  0
  1  2  2  0
  2  3  1  0
  3  4  1  0
  4  5  1  0
  5  6  2  0
  6  7  1  0
  7  8  2  0
  8  9  1  0
  9 10  1  0
 10 11  2  0
 11 12  1  0
 12 13  2  0
 13 14  1  0
  8 15  1  0
 15 16  1  0
 16 17  1  0
 17 18  2  0
 18 19  1  0
 19 20  2  0
 20 21  1  0
  2 22  1  0
 22 23  1  0
 23 24  2  0
 24 25  1  0
 25 26  1  0
 25 27  2  0
 27 28  1  0
 28 29  1  0
 28 30  2  0
 15  5  1  0
 21 17  1  0
 30 23  1  0
 14 10  1  0
  3 31  1  0
  3 32  1  0
  9 33  1  0
  9 34  1  0
 11 35  1  0
 12 36  1  0
 13 37  1  0
 16 38  1  0
 16 39  1  0
 18 40  1  0
 19 41  1  0
 20 42  1  0
 22 43  1  0
 24 44  1  0
 27 45  1  0
 30 46  1  0
M  END
$$$$
