
     RDKit          3D

 49 50  0  0  0  0  0  0  0  0999 V2000
    6.9530    0.1718   -0.3110 C   0  0  0  0  0  0  0  0  0  0  0  0
    6.0735   -1.0093    0.0537 C   0  0  0  0  0  0  0  0  0  0  0  0
    4.7508   -0.8192   -0.4653 O   0  0  0  0  0  0  0  0  0  0  0  0
    3.8914   -0.1117    0.3261 C   0  0  0  0  0  0  0  0  0  0  0  0
    4.2024    0.3455    1.4209 O   0  0  0  0  0  0  0  0  0  0  0  0
    2.5557    0.0398   -0.2726 C   0  0  0  0  0  0  0  0  0  0  0  0
    2.1246   -0.2668   -1.6133 C   0  0  0  0  0  0  0  0  0  0  0  0
    2.9747   -0.8114   -2.7132 C   0  0  0  0  0  0  0  0  0  0  0  0
    0.7740    0.0437   -1.7005 C   0  0  0  0  0  0  0  0  0  0  0  0
   -0.1640   -0.1033   -2.8535 C   0  0  0  0  0  0  0  0  0  0  0  0
    0.3810    0.5726   -0.4863 N   0  0  0  0  0  0  0  0  0  0  0  0
   -0.9445    1.1419   -0.2075 C   0  0  0  0  0  0  0  0  0  0  0  0
   -1.9687    0.1593    0.3241 C   0  0  0  0  0  0  0  0  0  0  0  0
   -1.6660   -1.1739    0.6385 C   0  0  0  0  0  0  0  0  0  0  0  0
   -2.6462   -2.0277    1.1425 C   0  0  0  0  0  0  0  0  0  0  0  0
   -3.9435   -1.5632    1.3601 C   0  0  0  0  0  0  0  0  0  0  0  0
   -4.2786   -0.2385    1.0691 C   0  0  0  0  0  0  0  0  0  0  0  0
   -5.5157    0.3070    1.2924 O   0  0  0  0  0  0  0  0  0  0  0  0
   -6.4588   -0.4734    2.0150 C   0  0  0  0  0  0  0  0  0  0  0  0
   -3.2925    0.6083    0.5224 C   0  0  0  0  0  0  0  0  0  0  0  0
   -3.5278    1.9318    0.2197 O   0  0  0  0  0  0  0  0  0  0  0  0
   -4.6253    2.1222   -0.6726 C   0  0  0  0  0  0  0  0  0  0  0  0
    1.4396    0.5369    0.4006 C   0  0  0  0  0  0  0  0  0  0  0  0
    1.3237    0.9835    1.8235 C   0  0  0  0  0  0  0  0  0  0  0  0
    7.9803    0.0095    0.0272 H   0  0  0  0  0  0  0  0  0  0  0  0
    6.9580    0.3269   -1.3949 H   0  0  0  0  0  0  0  0  0  0  0  0
    6.5783    1.0957    0.1409 H   0  0  0  0  0  0  0  0  0  0  0  0
    6.0592   -1.1821    1.1358 H   0  0  0  0  0  0  0  0  0  0  0  0
    6.4703   -1.9185   -0.4098 H   0  0  0  0  0  0  0  0  0  0  0  0
    3.2580   -1.8466   -2.4984 H   0  0  0  0  0  0  0  0  0  0  0  0
    3.8824   -0.2110   -2.8320 H   0  0  0  0  0  0  0  0  0  0  0  0
    2.4581   -0.7989   -3.6770 H   0  0  0  0  0  0  0  0  0  0  0  0
   -1.1470   -0.4573   -2.5285 H   0  0  0  0  0  0  0  0  0  0  0  0
    0.2072   -0.8309   -3.5810 H   0  0  0  0  0  0  0  0  0  0  0  0
   -0.2882    0.8565   -3.3646 H   0  0  0  0  0  0  0  0  0  0  0  0
   -1.2989    1.5858   -1.1453 H   0  0  0  0  0  0  0  0  0  0  0  0
   -0.8025    1.9643    0.5026 H   0  0  0  0  0  0  0  0  0  0  0  0
   -0.6627   -1.5719    0.4983 H   0  0  0  0  0  0  0  0  0  0  0  0
   -2.3928   -3.0590    1.3775 H   0  0  0  0  0  0  0  0  0  0  0  0
   -4.6673   -2.2627    1.7645 H   0  0  0  0  0  0  0  0  0  0  0  0
   -6.7645   -1.3521    1.4381 H   0  0  0  0  0  0  0  0  0  0  0  0
   -6.0702   -0.7588    2.9983 H   0  0  0  0  0  0  0  0  0  0  0  0
   -7.3484    0.1432    2.1758 H   0  0  0  0  0  0  0  0  0  0  0  0
   -5.5311    2.3655   -0.1099 H   0  0  0  0  0  0  0  0  0  0  0  0
   -4.3899    2.9830   -1.3063 H   0  0  0  0  0  0  0  0  0  0  0  0
   -4.7953    1.2621   -1.3306 H   0  0  0  0  0  0  0  0  0  0  0  0
    1.6867    2.0109    1.9253 H   0  0  0  0  0  0  0  0  0  0  0  0
    0.2961    0.9421    2.1942 H   0  0  0  0  0  0  0  0  0  0  0  0
    1.9113    0.3385    2.4841 H   0  0  0  0  0  0  0  0  0  0  0  0
  1  2  1  0
  2  3  1  0
  3  4  1  0
  4  5  2  0
  4  6  1  0
  6  7  1  0
  7  8  1  0
  7  9  2  0
  9 10  1  0
  9 11  1  0
 11 12  1  0
 12 13  1  0
 13 14  2  0
 14 15  1  0
 15 16  2  0
 16 17  1  0
 17 18  1  0
 18 19  1  0
 17 20  2  0
 20 21  1  0
 21 22  1  0
 11 23  1  0
 23 24  1  0
 23  6  2  0
 20 13  1  0
  1 25  1  0
  1 26  1  0
  1 27  1  0
  2 28  1  0
  2 29  1  0
  8 30  1  0
  8 31  1  0
  8 32  1  0
 10 33  1  0
 10 34  1  0
 10 35  1  0
 12 36  1  0
 12 37  1  0
 14 38  1  0
 15 39  1  0
 16 40  1  0
 19 41  1  0
 19 42  1  0
 19 43  1  0
 22 44  1  0
 22 45  1  0
 22 46  1  0
 24 47  1  0
 24 48  1  0
 24 49  1  0
M  END
$$$$
