
     RDKit          3D

 37 39  0  0  0  0  0  0  0  0999 V2000
   -4.0088   -1.5027    2.1160 C   0  0  0  0  0  0  0  0  0  0  0  0
   -4.4752   -1.5046    0.6707 C   0  0  0  0  0  0  0  0  0  0  0  0
   -4.2081   -0.2441   -0.0036 N   0  0  0  0  0  0  0  0  0  0  0  0
   -5.2352    0.6258   -0.1500 N   0  0  0  0  0  0  0  0  0  0  0  0
   -4.6936    1.6523   -0.8036 C   0  0  0  0  0  0  0  0  0  0  0  0
   -3.3306    1.4512   -1.0452 C   0  0  0  0  0  0  0  0  0  0  0  0
   -2.2739    2.6730   -1.9927 Br  0  0  0  0  0  0  0  0  0  0  0  0
   -3.0050    0.2257   -0.4967 C   0  0  0  0  0  0  0  0  0  0  0  0
   -1.7519   -0.5032   -0.4259 C   0  0  0  0  0  0  0  0  0  0  0  0
   -1.7395   -1.7274   -0.3775 O   0  0  0  0  0  0  0  0  0  0  0  0
   -0.6382    0.3121   -0.3702 N   0  0  0  0  0  0  0  0  0  0  0  0
    0.6972   -0.0654   -0.3021 C   0  0  0  0  0  0  0  0  0  0  0  0
    1.1659   -1.7088   -0.4320 S   0  0  0  0  0  0  0  0  0  0  0  0
    2.7692   -1.3001   -0.2544 C   0  0  0  0  0  0  0  0  0  0  0  0
    2.9936    0.0410   -0.1121 C   0  0  0  0  0  0  0  0  0  0  0  0
    1.7868    0.8027   -0.1528 C   0  0  0  0  0  0  0  0  0  0  0  0
    1.6159    2.2487   -0.0350 C   0  0  0  0  0  0  0  0  0  0  0  0
    2.7352    3.0151   -0.1809 N   0  0  0  0  0  0  0  0  0  0  0  0
    0.5246    2.7820    0.1472 O   0  0  0  0  0  0  0  0  0  0  0  0
    4.4473    0.3037    0.0667 C   0  0  0  0  0  0  0  0  0  0  0  0
    5.0177   -1.1180    0.3625 C   0  0  0  0  0  0  0  0  0  0  0  0
    3.9891   -2.1380   -0.2073 C   0  0  0  0  0  0  0  0  0  0  0  0
   -4.4940   -0.7014    2.6835 H   0  0  0  0  0  0  0  0  0  0  0  0
   -4.2538   -2.4561    2.5942 H   0  0  0  0  0  0  0  0  0  0  0  0
   -2.9270   -1.3541    2.1904 H   0  0  0  0  0  0  0  0  0  0  0  0
   -4.0128   -2.3104    0.0947 H   0  0  0  0  0  0  0  0  0  0  0  0
   -5.5579   -1.6751    0.6330 H   0  0  0  0  0  0  0  0  0  0  0  0
   -5.3202    2.4920   -1.0751 H   0  0  0  0  0  0  0  0  0  0  0  0
   -0.7947    1.3168   -0.3001 H   0  0  0  0  0  0  0  0  0  0  0  0
    2.5831    4.0134   -0.2347 H   0  0  0  0  0  0  0  0  0  0  0  0
    3.5726    2.6464   -0.6030 H   0  0  0  0  0  0  0  0  0  0  0  0
    4.6576    0.9882    0.8930 H   0  0  0  0  0  0  0  0  0  0  0  0
    4.8808    0.7004   -0.8574 H   0  0  0  0  0  0  0  0  0  0  0  0
    6.0200   -1.2593   -0.0536 H   0  0  0  0  0  0  0  0  0  0  0  0
    5.0902   -1.2532    1.4499 H   0  0  0  0  0  0  0  0  0  0  0  0
    4.2807   -2.4578   -1.2129 H   0  0  0  0  0  0  0  0  0  0  0  0
    3.8934   -3.0109    0.4440 H   0  0  0  0  0  0  0  0  0  0  0  0
  1  2  1  0
  2  3  1  0
  3  4  1  0
  4  5  2  0
  5  6  1  0
  6  7  1  0
  6  8  2  0
  8  9  1  0
  9 10  2  0
  9 11  1  0
 11 12  1  0
 12 13  1  0
 13 14  1  0
 14 15  2  0
 15 16  1  0
 16 17  1  0
 17 18  1  0
 17 19  2  0
 15 20  1  0
 20 21  1  0
 21 22  1  0
  8  3  1  0
 16 12  2  0
 22 14  1  0
  1 23  1  0
  1 24  1  0
  1 25  1  0
  2 26  1  0
  2 27  1  0
  5 28  1  0
 11 29  1  0
 18 30  1  0
 18 31  1  0
 20 32  1  0
 20 33  1  0
 21 34  1  0
 21 35  1  0
 22 36  1  0
 22 37  1  0
M  END
$$$$
