
     RDKit          3D

 61 66  0  0  0  0  0  0  0  0999 V2000
    9.6250    1.2856    1.5509 Cl  0  0  0  0  0  0  0  0  0  0  0  0
    8.2155    0.3529    1.1869 C   0  0  0  0  0  0  0  0  0  0  0  0
    8.1304   -0.2276   -0.0807 C   0  0  0  0  0  0  0  0  0  0  0  0
    7.0141   -0.9909   -0.4327 C   0  0  0  0  0  0  0  0  0  0  0  0
    5.9690   -1.1832    0.4803 C   0  0  0  0  0  0  0  0  0  0  0  0
    4.7437   -1.9806    0.0938 C   0  0  0  0  0  0  0  0  0  0  0  0
    3.7058   -1.1646   -0.7054 C   0  0  0  0  0  0  0  0  0  0  0  0
    3.1282   -0.0419    0.0532 N   0  0  0  0  0  0  0  0  0  0  0  0
    2.1092   -0.4696    1.0389 C   0  0  0  0  0  0  0  0  0  0  0  0
    0.7425   -0.8993    0.4507 C   0  0  0  0  0  0  0  0  0  0  0  0
    0.2046    0.1344   -0.4670 N   0  0  0  0  0  0  0  0  0  0  0  0
   -1.0807   -0.0908   -0.8880 C   0  0  0  0  0  0  0  0  0  0  0  0
   -1.5221   -0.8092   -1.9839 C   0  0  0  0  0  0  0  0  0  0  0  0
   -2.9312   -0.8475   -1.9469 C   0  0  0  0  0  0  0  0  0  0  0  0
   -3.3352   -0.1473   -0.8269 C   0  0  0  0  0  0  0  0  0  0  0  0
   -4.6477    0.1255   -0.2847 C   0  0  0  0  0  0  0  0  0  0  0  0
   -5.8516   -0.5131   -0.8698 C   0  0  0  0  0  0  0  0  0  0  0  0
   -5.9308   -1.9023   -1.0051 C   0  0  0  0  0  0  0  0  0  0  0  0
   -7.0839   -2.4808   -1.5376 C   0  0  0  0  0  0  0  0  0  0  0  0
   -8.1542   -1.6744   -1.9267 C   0  0  0  0  0  0  0  0  0  0  0  0
   -8.0803   -0.2899   -1.7762 C   0  0  0  0  0  0  0  0  0  0  0  0
   -6.9319    0.2931   -1.2399 C   0  0  0  0  0  0  0  0  0  0  0  0
   -4.8025    0.9372    0.7188 N   0  0  0  0  0  0  0  0  0  0  0  0
   -3.6664    1.5358    1.2985 C   0  0  0  0  0  0  0  0  0  0  0  0
   -3.8756    2.4188    2.3629 C   0  0  0  0  0  0  0  0  0  0  0  0
   -2.8020    3.0607    2.9817 C   0  0  0  0  0  0  0  0  0  0  0  0
   -1.5034    2.8265    2.5335 C   0  0  0  0  0  0  0  0  0  0  0  0
   -1.2733    1.9466    1.4726 C   0  0  0  0  0  0  0  0  0  0  0  0
   -2.3498    1.2920    0.8646 C   0  0  0  0  0  0  0  0  0  0  0  0
   -2.2088    0.3926   -0.2237 N   0  0  0  0  0  0  0  0  0  0  0  0
    1.1834    0.5254   -1.5029 C   0  0  0  0  0  0  0  0  0  0  0  0
    2.5115    0.9633   -0.8457 C   0  0  0  0  0  0  0  0  0  0  0  0
    6.0604   -0.5955    1.7500 C   0  0  0  0  0  0  0  0  0  0  0  0
    7.1772    0.1691    2.1053 C   0  0  0  0  0  0  0  0  0  0  0  0
    7.2106    0.8555    3.6897 Cl  0  0  0  0  0  0  0  0  0  0  0  0
    8.9295   -0.0826   -0.8026 H   0  0  0  0  0  0  0  0  0  0  0  0
    6.9626   -1.4284   -1.4274 H   0  0  0  0  0  0  0  0  0  0  0  0
    4.2918   -2.4246    0.9886 H   0  0  0  0  0  0  0  0  0  0  0  0
    5.0668   -2.8346   -0.5180 H   0  0  0  0  0  0  0  0  0  0  0  0
    4.2149   -0.7759   -1.5969 H   0  0  0  0  0  0  0  0  0  0  0  0
    2.9262   -1.8402   -1.0739 H   0  0  0  0  0  0  0  0  0  0  0  0
    1.9382    0.3772    1.7174 H   0  0  0  0  0  0  0  0  0  0  0  0
    2.4983   -1.2715    1.6767 H   0  0  0  0  0  0  0  0  0  0  0  0
    0.0462   -1.0612    1.2817 H   0  0  0  0  0  0  0  0  0  0  0  0
    0.8455   -1.8524   -0.0814 H   0  0  0  0  0  0  0  0  0  0  0  0
   -0.8884   -1.2898   -2.7161 H   0  0  0  0  0  0  0  0  0  0  0  0
   -3.5771   -1.3441   -2.6601 H   0  0  0  0  0  0  0  0  0  0  0  0
   -5.1109   -2.5363   -0.6802 H   0  0  0  0  0  0  0  0  0  0  0  0
   -7.1537   -3.5599   -1.6399 H   0  0  0  0  0  0  0  0  0  0  0  0
   -9.0531   -2.1269   -2.3376 H   0  0  0  0  0  0  0  0  0  0  0  0
   -8.9197    0.3347   -2.0699 H   0  0  0  0  0  0  0  0  0  0  0  0
   -6.8782    1.3705   -1.1105 H   0  0  0  0  0  0  0  0  0  0  0  0
   -4.8903    2.6066    2.7066 H   0  0  0  0  0  0  0  0  0  0  0  0
   -2.9817    3.7463    3.8061 H   0  0  0  0  0  0  0  0  0  0  0  0
   -0.6659    3.3354    3.0055 H   0  0  0  0  0  0  0  0  0  0  0  0
   -0.2523    1.8110    1.1366 H   0  0  0  0  0  0  0  0  0  0  0  0
    0.7894    1.3689   -2.0833 H   0  0  0  0  0  0  0  0  0  0  0  0
    1.3626   -0.3038   -2.1987 H   0  0  0  0  0  0  0  0  0  0  0  0
    3.2248    1.2641   -1.6218 H   0  0  0  0  0  0  0  0  0  0  0  0
    2.3270    1.8690   -0.2515 H   0  0  0  0  0  0  0  0  0  0  0  0
    5.2477   -0.7235    2.4617 H   0  0  0  0  0  0  0  0  0  0  0  0
  1  2  1  0
  2  3  2  0
  3  4  1  0
  4  5  2  0
  5  6  1  0
  6  7  1  0
  7  8  1  0
  8  9  1  0
  9 10  1  0
 10 11  1  0
 11 12  1  0
 12 13  2  0
 13 14  1  0
 14 15  2  0
 15 16  1  0
 16 17  1  0
 17 18  2  0
 18 19  1  0
 19 20  2  0
 20 21  1  0
 21 22  2  0
 16 23  2  0
 23 24  1  0
 24 25  2  0
 25 26  1  0
 26 27  2  0
 27 28  1  0
 28 29  2  0
 29 30  1  0
 11 31  1  0
 31 32  1  0
  5 33  1  0
 33 34  2  0
 34 35  1  0
 34  2  1  0
 32  8  1  0
 30 12  1  0
 30 15  1  0
 22 17  1  0
 29 24  1  0
  3 36  1  0
  4 37  1  0
  6 38  1  0
  6 39  1  0
  7 40  1  0
  7 41  1  0
  9 42  1  0
  9 43  1  0
 10 44  1  0
 10 45  1  0
 13 46  1  0
 14 47  1  0
 18 48  1  0
 19 49  1  0
 20 50  1  0
 21 51  1  0
 22 52  1  0
 25 53  1  0
 26 54  1  0
 27 55  1  0
 28 56  1  0
 31 57  1  0
 31 58  1  0
 32 59  1  0
 32 60  1  0
 33 61  1  0
M  END
$$$$
