
     RDKit          3D

 35 36  0  0  0  0  0  0  0  0999 V2000
    5.3142   -0.7525    1.8865 C   0  0  0  0  0  0  0  0  0  0  0  0
    4.1280   -0.5433    0.9908 C   0  0  0  0  0  0  0  0  0  0  0  0
    4.0601    0.5803    0.1555 C   0  0  0  0  0  0  0  0  0  0  0  0
    2.9457    0.7907   -0.6576 C   0  0  0  0  0  0  0  0  0  0  0  0
    1.8854   -0.1180   -0.6179 C   0  0  0  0  0  0  0  0  0  0  0  0
    0.4685    0.1578   -1.6541 S   0  0  0  0  0  6  0  0  0  0  0  0
   -0.3167   -1.0629   -1.6695 O   0  0  0  0  0  0  0  0  0  0  0  0
    0.9758    0.7019   -2.9018 O   0  0  0  0  0  0  0  0  0  0  0  0
   -0.4552    1.4427   -0.8472 C   0  0  0  0  0  0  0  0  0  0  0  0
   -0.7144    1.2441    0.6382 C   0  0  0  0  0  0  0  0  0  0  0  0
   -1.7740   -0.1680    1.0797 S   0  0  0  0  0  0  0  0  0  0  0  0
   -3.2408    0.2689    0.2742 C   0  0  0  0  0  0  0  0  0  0  0  0
   -3.6444    1.4997    0.0567 N   0  0  0  0  0  0  0  0  0  0  0  0
   -4.8358    1.3722   -0.6103 C   0  0  0  0  0  0  0  0  0  0  0  0
   -5.1464    0.0470   -0.8098 C   0  0  0  0  0  0  0  0  0  0  0  0
   -4.1125   -0.6509   -0.2424 N   0  0  0  0  0  0  0  0  0  0  0  0
   -3.9778   -2.0870   -0.2353 C   0  0  0  0  0  0  0  0  0  0  0  0
    1.9401   -1.2449    0.2041 C   0  0  0  0  0  0  0  0  0  0  0  0
    3.0573   -1.4477    1.0153 C   0  0  0  0  0  0  0  0  0  0  0  0
    5.5142   -1.8204    2.0244 H   0  0  0  0  0  0  0  0  0  0  0  0
    5.1292   -0.2967    2.8641 H   0  0  0  0  0  0  0  0  0  0  0  0
    6.2159   -0.3069    1.4535 H   0  0  0  0  0  0  0  0  0  0  0  0
    4.8824    1.2928    0.1271 H   0  0  0  0  0  0  0  0  0  0  0  0
    2.9184    1.6536   -1.3195 H   0  0  0  0  0  0  0  0  0  0  0  0
    0.1289    2.3612   -0.9805 H   0  0  0  0  0  0  0  0  0  0  0  0
   -1.3793    1.5731   -1.4182 H   0  0  0  0  0  0  0  0  0  0  0  0
    0.2278    1.1232    1.1808 H   0  0  0  0  0  0  0  0  0  0  0  0
   -1.1781    2.1509    1.0432 H   0  0  0  0  0  0  0  0  0  0  0  0
   -5.4060    2.2401   -0.9158 H   0  0  0  0  0  0  0  0  0  0  0  0
   -5.9827   -0.4363   -1.2950 H   0  0  0  0  0  0  0  0  0  0  0  0
   -3.9311   -2.4302    0.8013 H   0  0  0  0  0  0  0  0  0  0  0  0
   -3.0690   -2.3574   -0.7788 H   0  0  0  0  0  0  0  0  0  0  0  0
   -4.8444   -2.5358   -0.7281 H   0  0  0  0  0  0  0  0  0  0  0  0
    1.1249   -1.9651    0.2235 H   0  0  0  0  0  0  0  0  0  0  0  0
    3.0922   -2.3217    1.6630 H   0  0  0  0  0  0  0  0  0  0  0  0
  1  2  1  0
  2  3  2  0
  3  4  1  0
  4  5  2  0
  5  6  1  0
  6  7  2  0
  6  8  2  0
  6  9  1  0
  9 10  1  0
 10 11  1  0
 11 12  1  0
 12 13  2  0
 13 14  1  0
 14 15  2  0
 15 16  1  0
 16 17  1  0
  5 18  1  0
 18 19  2  0
 19  2  1  0
 16 12  1  0
  1 20  1  0
  1 21  1  0
  1 22  1  0
  3 23  1  0
  4 24  1  0
  9 25  1  0
  9 26  1  0
 10 27  1  0
 10 28  1  0
 14 29  1  0
 15 30  1  0
 17 31  1  0
 17 32  1  0
 17 33  1  0
 18 34  1  0
 19 35  1  0
M  END
$$$$
