
     RDKit          3D

 34 35  0  0  0  0  0  0  0  0999 V2000
    4.4176   -1.9497    0.6901 C   0  0  0  0  0  0  0  0  0  0  0  0
    4.0167   -0.6758   -0.0277 C   0  0  0  0  0  0  0  0  0  0  0  0
    2.6545   -0.3856    0.3034 O   0  0  0  0  0  0  0  0  0  0  0  0
    2.1722    0.7222   -0.2930 C   0  0  0  0  0  0  0  0  0  0  0  0
    2.7530    1.5065   -1.0188 O   0  0  0  0  0  0  0  0  0  0  0  0
    0.7241    0.9181    0.1262 C   0  0  0  0  0  0  0  0  0  0  0  0
   -0.1532    0.1728   -0.4592 N   0  0  0  0  0  0  0  0  0  0  0  0
   -1.4828    0.3092   -0.1169 N   0  0  0  0  0  0  0  0  0  0  0  0
   -2.3535   -0.5851   -0.8462 C   0  0  0  0  0  0  0  0  0  0  0  0
   -3.7438   -0.6276   -0.6632 C   0  0  0  0  0  0  0  0  0  0  0  0
   -4.5531   -1.5113   -1.3919 C   0  0  0  0  0  0  0  0  0  0  0  0
   -3.9910   -2.3759   -2.3234 C   0  0  0  0  0  0  0  0  0  0  0  0
   -2.6180   -2.3580   -2.5278 C   0  0  0  0  0  0  0  0  0  0  0  0
   -1.8130   -1.4746   -1.7986 C   0  0  0  0  0  0  0  0  0  0  0  0
   -1.9165    1.2310    0.8469 C   0  0  0  0  0  0  0  0  0  0  0  0
   -3.0766    1.4142    1.2114 O   0  0  0  0  0  0  0  0  0  0  0  0
   -0.8508    2.0633    1.4863 C   0  0  0  0  0  0  0  0  0  0  0  0
   -1.2762    3.0041    2.4681 C   0  0  0  0  0  0  0  0  0  0  0  0
   -1.5494    3.7889    3.2786 N   0  0  0  0  0  0  0  0  0  0  0  0
    0.4457    1.9374    1.1588 C   0  0  0  0  0  0  0  0  0  0  0  0
    1.5945    2.7114    1.7356 C   0  0  0  0  0  0  0  0  0  0  0  0
    4.3065   -1.8330    1.7732 H   0  0  0  0  0  0  0  0  0  0  0  0
    3.7700   -2.7806    0.3912 H   0  0  0  0  0  0  0  0  0  0  0  0
    5.4554   -2.2129    0.4677 H   0  0  0  0  0  0  0  0  0  0  0  0
    4.1136   -0.8143   -1.1105 H   0  0  0  0  0  0  0  0  0  0  0  0
    4.6595    0.1501    0.2971 H   0  0  0  0  0  0  0  0  0  0  0  0
   -4.2566    0.0147    0.0439 H   0  0  0  0  0  0  0  0  0  0  0  0
   -5.6277   -1.5170   -1.2245 H   0  0  0  0  0  0  0  0  0  0  0  0
   -4.6210   -3.0588   -2.8867 H   0  0  0  0  0  0  0  0  0  0  0  0
   -2.1655   -3.0284   -3.2539 H   0  0  0  0  0  0  0  0  0  0  0  0
   -0.7438   -1.4978   -1.9952 H   0  0  0  0  0  0  0  0  0  0  0  0
    2.3394    2.0317    2.1629 H   0  0  0  0  0  0  0  0  0  0  0  0
    1.2946    3.3940    2.5357 H   0  0  0  0  0  0  0  0  0  0  0  0
    2.0754    3.3169    0.9605 H   0  0  0  0  0  0  0  0  0  0  0  0
  1  2  1  0
  2  3  1  0
  3  4  1  0
  4  5  2  0
  4  6  1  0
  6  7  2  0
  7  8  1  0
  8  9  1  0
  9 10  2  0
 10 11  1  0
 11 12  2  0
 12 13  1  0
 13 14  2  0
  8 15  1  0
 15 16  2  0
 15 17  1  0
 17 18  1  0
 18 19  3  0
 17 20  2  0
 20 21  1  0
 20  6  1  0
 14  9  1  0
  1 22  1  0
  1 23  1  0
  1 24  1  0
  2 25  1  0
  2 26  1  0
 10 27  1  0
 11 28  1  0
 12 29  1  0
 13 30  1  0
 14 31  1  0
 21 32  1  0
 21 33  1  0
 21 34  1  0
M  END
$$$$
