
     RDKit          3D

 44 44  0  0  0  0  0  0  0  0999 V2000
   -2.9259    1.5579    2.1071 C   0  0  0  0  0  0  0  0  0  0  0  0
   -2.9773    0.7680    0.7817 C   0  0  0  0  0  0  0  0  0  0  0  0
   -4.4549    0.5000    0.4739 C   0  0  0  0  0  0  0  0  0  0  0  0
   -2.0887   -0.5206    0.8304 C   0  0  0  0  0  0  0  0  0  0  0  0
   -2.5156   -1.3158    1.9426 O   0  0  0  0  0  0  0  0  0  0  0  0
   -0.6776   -0.1274    1.0959 C   0  0  0  0  0  0  0  0  0  0  0  0
    0.4710    0.1691    1.2917 C   0  0  0  0  0  0  0  0  0  0  0  0
    1.8802    0.5271    1.5133 C   0  0  0  0  0  0  0  0  0  0  0  0
    2.7075    0.1903    0.3488 N   0  0  0  0  0  0  0  0  0  0  0  0
    4.1347    0.1847    0.7123 C   0  0  0  0  0  0  0  0  0  0  0  0
    5.0848    0.3818   -0.4778 C   0  0  0  0  0  0  0  0  0  0  0  0
    4.4851   -0.1601   -1.7665 C   0  0  0  0  0  0  0  0  0  0  0  0
    3.1279    0.4867   -2.0528 C   0  0  0  0  0  0  0  0  0  0  0  0
    2.4534    1.0614   -0.8005 C   0  0  0  0  0  0  0  0  0  0  0  0
   -2.0856   -1.4268   -0.4514 C   0  0  0  0  0  0  0  0  0  0  0  0
   -1.9015   -0.6446   -1.7571 C   0  0  0  0  0  0  0  0  0  0  0  0
   -3.2690   -2.3968   -0.5729 C   0  0  0  0  0  0  0  0  0  0  0  0
   -3.3188    0.9688    2.9425 H   0  0  0  0  0  0  0  0  0  0  0  0
   -1.9071    1.8690    2.3564 H   0  0  0  0  0  0  0  0  0  0  0  0
   -3.5259    2.4722    2.0340 H   0  0  0  0  0  0  0  0  0  0  0  0
   -2.5916    1.4371    0.0007 H   0  0  0  0  0  0  0  0  0  0  0  0
   -5.0540    1.4084    0.6064 H   0  0  0  0  0  0  0  0  0  0  0  0
   -4.8718   -0.2709    1.1299 H   0  0  0  0  0  0  0  0  0  0  0  0
   -4.5960    0.1949   -0.5651 H   0  0  0  0  0  0  0  0  0  0  0  0
   -1.8284   -1.9899    2.0825 H   0  0  0  0  0  0  0  0  0  0  0  0
    2.2267   -0.0402    2.3869 H   0  0  0  0  0  0  0  0  0  0  0  0
    1.9701    1.5906    1.7670 H   0  0  0  0  0  0  0  0  0  0  0  0
    4.3571   -0.7782    1.1883 H   0  0  0  0  0  0  0  0  0  0  0  0
    4.3629    0.9645    1.4509 H   0  0  0  0  0  0  0  0  0  0  0  0
    5.2939    1.4518   -0.6045 H   0  0  0  0  0  0  0  0  0  0  0  0
    6.0438   -0.1067   -0.2714 H   0  0  0  0  0  0  0  0  0  0  0  0
    5.1655    0.0054   -2.6093 H   0  0  0  0  0  0  0  0  0  0  0  0
    4.3574   -1.2464   -1.6752 H   0  0  0  0  0  0  0  0  0  0  0  0
    3.2526    1.2946   -2.7841 H   0  0  0  0  0  0  0  0  0  0  0  0
    2.4753   -0.2597   -2.5225 H   0  0  0  0  0  0  0  0  0  0  0  0
    1.3825    1.1515   -1.0164 H   0  0  0  0  0  0  0  0  0  0  0  0
    2.8189    2.0783   -0.6046 H   0  0  0  0  0  0  0  0  0  0  0  0
   -1.2098   -2.0895   -0.3668 H   0  0  0  0  0  0  0  0  0  0  0  0
   -1.7533   -1.3330   -2.5967 H   0  0  0  0  0  0  0  0  0  0  0  0
   -1.0237    0.0076   -1.7124 H   0  0  0  0  0  0  0  0  0  0  0  0
   -2.7739   -0.0278   -1.9909 H   0  0  0  0  0  0  0  0  0  0  0  0
   -3.1070   -3.0821   -1.4131 H   0  0  0  0  0  0  0  0  0  0  0  0
   -3.3765   -3.0144    0.3241 H   0  0  0  0  0  0  0  0  0  0  0  0
   -4.2175   -1.8907   -0.7553 H   0  0  0  0  0  0  0  0  0  0  0  0
  1  2  1  0
  2  3  1  0
  2  4  1  0
  4  5  1  0
  4  6  1  0
  6  7  3  0
  7  8  1  0
  8  9  1  0
  9 10  1  0
 10 11  1  0
 11 12  1  0
 12 13  1  0
 13 14  1  0
  4 15  1  0
 15 16  1  0
 15 17  1  0
 14  9  1  0
  1 18  1  0
  1 19  1  0
  1 20  1  0
  2 21  1  0
  3 22  1  0
  3 23  1  0
  3 24  1  0
  5 25  1  0
  8 26  1  0
  8 27  1  0
 10 28  1  0
 10 29  1  0
 11 30  1  0
 11 31  1  0
 12 32  1  0
 12 33  1  0
 13 34  1  0
 13 35  1  0
 14 36  1  0
 14 37  1  0
 15 38  1  0
 16 39  1  0
 16 40  1  0
 16 41  1  0
 17 42  1  0
 17 43  1  0
 17 44  1  0
M  END
$$$$
