
     RDKit          3D

 63 65  0  0  0  0  0  0  0  0999 V2000
    2.3612    3.7521    5.0233 C   0  0  0  0  0  0  0  0  0  0  0  0
    1.6577    3.9771    3.8082 O   0  0  0  0  0  0  0  0  0  0  0  0
    1.8645    3.0777    2.8008 C   0  0  0  0  0  0  0  0  0  0  0  0
    2.6100    1.9026    2.8858 C   0  0  0  0  0  0  0  0  0  0  0  0
    2.7440    1.0780    1.7666 C   0  0  0  0  0  0  0  0  0  0  0  0
    2.1369    1.4230    0.5590 C   0  0  0  0  0  0  0  0  0  0  0  0
    1.3841    2.5971    0.4555 C   0  0  0  0  0  0  0  0  0  0  0  0
    0.7199    2.9686   -0.8476 C   0  0  0  0  0  0  0  0  0  0  0  0
   -0.3928    2.0942   -1.2249 N   0  0  0  0  0  0  0  0  0  0  0  0
   -1.4355    1.8380   -0.2243 C   0  0  0  0  0  0  0  0  0  0  0  0
   -1.2202    0.5388    0.5661 C   0  0  0  0  0  0  0  0  0  0  0  0
   -0.5005   -0.3808    0.1799 O   0  0  0  0  0  0  0  0  0  0  0  0
   -1.9712    0.4586    1.7226 N   0  0  0  0  0  0  0  0  0  0  0  0
   -2.0457   -0.7887    2.4669 C   0  0  0  0  0  0  0  0  0  0  0  0
   -3.1033   -1.7290    1.8656 C   0  0  0  0  0  0  0  0  0  0  0  0
   -3.1340   -3.0924    2.5420 C   0  0  0  0  0  0  0  0  0  0  0  0
   -4.2261   -2.9382    3.5698 C   0  0  0  0  0  0  0  0  0  0  0  0
   -5.2010   -2.0314    2.8579 C   0  0  0  0  0  0  0  0  0  0  0  0
   -4.4093   -1.1344    2.0657 O   0  0  0  0  0  0  0  0  0  0  0  0
   -0.4332    1.6035   -2.5177 C   0  0  0  0  0  0  0  0  0  0  0  0
    0.3721    1.9612   -3.3803 O   0  0  0  0  0  0  0  0  0  0  0  0
   -1.5228    0.5984   -2.8691 C   0  0  0  0  0  0  0  0  0  0  0  0
   -1.2464   -0.1075   -4.1949 C   0  0  0  0  0  0  0  0  0  0  0  0
   -0.1109   -1.1079   -4.0559 C   0  0  0  0  0  0  0  0  0  0  0  0
   -0.3408   -2.2976   -3.8555 O   0  0  0  0  0  0  0  0  0  0  0  0
    1.1312   -0.5329   -4.1648 N   0  0  0  0  0  0  0  0  0  0  0  0
    2.3327   -1.1972   -4.0662 C   0  0  0  0  0  0  0  0  0  0  0  0
    2.5808   -2.5699   -3.8434 C   0  0  0  0  0  0  0  0  0  0  0  0
    3.9498   -2.6783   -3.8500 C   0  0  0  0  0  0  0  0  0  0  0  0
    4.8935   -3.7960   -3.6890 C   0  0  0  0  0  0  0  0  0  0  0  0
    4.4930   -1.4506   -4.0600 O   0  0  0  0  0  0  0  0  0  0  0  0
    3.4799   -0.5178   -4.1801 N   0  0  0  0  0  0  0  0  0  0  0  0
    1.2529    3.4149    1.5894 C   0  0  0  0  0  0  0  0  0  0  0  0
    2.1811    4.6151    5.6679 H   0  0  0  0  0  0  0  0  0  0  0  0
    1.9863    2.8642    5.5392 H   0  0  0  0  0  0  0  0  0  0  0  0
    3.4443    3.6936    4.8597 H   0  0  0  0  0  0  0  0  0  0  0  0
    3.0974    1.5960    3.8055 H   0  0  0  0  0  0  0  0  0  0  0  0
    3.3224    0.1593    1.8313 H   0  0  0  0  0  0  0  0  0  0  0  0
    2.2362    0.7571   -0.2963 H   0  0  0  0  0  0  0  0  0  0  0  0
    0.3229    3.9879   -0.8042 H   0  0  0  0  0  0  0  0  0  0  0  0
    1.4910    2.9746   -1.6234 H   0  0  0  0  0  0  0  0  0  0  0  0
   -2.4060    1.7581   -0.7245 H   0  0  0  0  0  0  0  0  0  0  0  0
   -1.4914    2.6896    0.4624 H   0  0  0  0  0  0  0  0  0  0  0  0
   -2.7209    1.1186    1.8742 H   0  0  0  0  0  0  0  0  0  0  0  0
   -2.2930   -0.5182    3.4979 H   0  0  0  0  0  0  0  0  0  0  0  0
   -1.0625   -1.2674    2.4522 H   0  0  0  0  0  0  0  0  0  0  0  0
   -2.9417   -1.8414    0.7866 H   0  0  0  0  0  0  0  0  0  0  0  0
   -2.1729   -3.3978    2.9663 H   0  0  0  0  0  0  0  0  0  0  0  0
   -3.4297   -3.8568    1.8101 H   0  0  0  0  0  0  0  0  0  0  0  0
   -3.8281   -2.4357    4.4594 H   0  0  0  0  0  0  0  0  0  0  0  0
   -4.6719   -3.8870    3.8797 H   0  0  0  0  0  0  0  0  0  0  0  0
   -5.8511   -2.5970    2.1815 H   0  0  0  0  0  0  0  0  0  0  0  0
   -5.8224   -1.4593    3.5516 H   0  0  0  0  0  0  0  0  0  0  0  0
   -1.6201   -0.1502   -2.0798 H   0  0  0  0  0  0  0  0  0  0  0  0
   -2.4677    1.1487   -2.9528 H   0  0  0  0  0  0  0  0  0  0  0  0
   -1.0188    0.6000   -5.0007 H   0  0  0  0  0  0  0  0  0  0  0  0
   -2.1387   -0.6622   -4.5096 H   0  0  0  0  0  0  0  0  0  0  0  0
    1.2178    0.4801   -4.2359 H   0  0  0  0  0  0  0  0  0  0  0  0
    1.8662   -3.3662   -3.6944 H   0  0  0  0  0  0  0  0  0  0  0  0
    4.4638   -4.5824   -3.0599 H   0  0  0  0  0  0  0  0  0  0  0  0
    5.1386   -4.2297   -4.6626 H   0  0  0  0  0  0  0  0  0  0  0  0
    5.8243   -3.4597   -3.2199 H   0  0  0  0  0  0  0  0  0  0  0  0
    0.6741    4.3348    1.5374 H   0  0  0  0  0  0  0  0  0  0  0  0
  1  2  1  0
  2  3  1  0
  3  4  2  0
  4  5  1  0
  5  6  2  0
  6  7  1  0
  7  8  1  0
  8  9  1  0
  9 10  1  0
 10 11  1  0
 11 12  2  0
 11 13  1  0
 13 14  1  0
 14 15  1  0
 15 16  1  0
 16 17  1  0
 17 18  1  0
 18 19  1  0
  9 20  1  0
 20 21  2  0
 20 22  1  0
 22 23  1  0
 23 24  1  0
 24 25  2  0
 24 26  1  0
 26 27  1  0
 27 28  1  0
 28 29  2  0
 29 30  1  0
 29 31  1  0
 31 32  1  0
  7 33  2  0
 33  3  1  0
 19 15  1  0
 32 27  2  0
  1 34  1  0
  1 35  1  0
  1 36  1  0
  4 37  1  0
  5 38  1  0
  6 39  1  0
  8 40  1  0
  8 41  1  0
 10 42  1  0
 10 43  1  0
 13 44  1  0
 14 45  1  0
 14 46  1  0
 15 47  1  0
 16 48  1  0
 16 49  1  0
 17 50  1  0
 17 51  1  0
 18 52  1  0
 18 53  1  0
 22 54  1  0
 22 55  1  0
 23 56  1  0
 23 57  1  0
 26 58  1  0
 28 59  1  0
 30 60  1  0
 30 61  1  0
 30 62  1  0
 33 63  1  0
M  END
$$$$
