
     RDKit          3D

 57 61  0  0  0  0  0  0  0  0999 V2000
   -2.0170   -3.7706    4.5020 O   0  0  0  0  0  0  0  0  0  0  0  0
   -1.8358   -3.0000    3.5664 C   0  0  0  0  0  0  0  0  0  0  0  0
   -0.6155   -2.9171    2.9063 N   0  0  0  0  0  0  0  0  0  0  0  0
   -0.3605   -2.0717    1.8274 C   0  0  0  0  0  0  0  0  0  0  0  0
    1.0614   -2.1542    1.2816 C   0  0  0  0  0  0  0  0  0  0  0  0
    2.0367   -1.4335    2.2214 C   0  0  0  0  0  0  0  0  0  0  0  0
    1.9496    0.0809    2.0754 C   0  0  0  0  0  0  0  0  0  0  0  0
    2.1910    0.4862    0.6733 N   0  0  0  0  0  0  0  0  0  0  0  0
    3.8063    0.6469    0.1940 S   0  0  0  0  0  6  0  0  0  0  0  0
    4.5754    1.2638    1.2493 O   0  0  0  0  0  0  0  0  0  0  0  0
    4.2088   -0.6269   -0.3653 O   0  0  0  0  0  0  0  0  0  0  0  0
    3.7248    1.8318   -1.1377 C   0  0  0  0  0  0  0  0  0  0  0  0
    4.3915    1.4977   -2.3293 C   0  0  0  0  0  0  0  0  0  0  0  0
    4.3643    2.3652   -3.4188 C   0  0  0  0  0  0  0  0  0  0  0  0
    3.6708    3.5662   -3.3280 C   0  0  0  0  0  0  0  0  0  0  0  0
    3.0066    3.9014   -2.1463 C   0  0  0  0  0  0  0  0  0  0  0  0
    3.0248    3.0479   -1.0220 C   0  0  0  0  0  0  0  0  0  0  0  0
    2.2456    3.4736    0.2018 C   0  0  0  0  0  0  0  0  0  0  0  0
    2.0566    4.8281    0.2423 F   0  0  0  0  0  0  0  0  0  0  0  0
    2.8125    3.1705    1.3940 F   0  0  0  0  0  0  0  0  0  0  0  0
    0.9873    2.9501    0.2183 F   0  0  0  0  0  0  0  0  0  0  0  0
    1.2279   -0.1199   -0.2760 C   0  0  0  0  0  0  0  0  0  0  0  0
    1.1858   -1.6419   -0.1588 C   0  0  0  0  0  0  0  0  0  0  0  0
   -1.2337   -1.2382    1.3341 N   0  0  0  0  0  0  0  0  0  0  0  0
   -2.4342   -1.2984    1.9613 C   0  0  0  0  0  0  0  0  0  0  0  0
   -2.8068   -2.0930    3.0186 C   0  0  0  0  0  0  0  0  0  0  0  0
   -4.0983   -1.8503    3.3702 N   0  0  0  0  0  0  0  0  0  0  0  0
   -4.5617   -0.9077    2.5490 N   0  0  0  0  0  0  0  0  0  0  0  0
   -3.5656   -0.5845    1.6864 N   0  0  0  0  0  0  0  0  0  0  0  0
   -3.7547    0.4433    0.6839 C   0  0  0  0  0  0  0  0  0  0  0  0
   -4.0432   -0.1506   -0.6722 C   0  0  0  0  0  0  0  0  0  0  0  0
   -5.3120   -0.6725   -0.9657 C   0  0  0  0  0  0  0  0  0  0  0  0
   -5.5753   -1.2307   -2.2172 C   0  0  0  0  0  0  0  0  0  0  0  0
   -4.5749   -1.2756   -3.1862 C   0  0  0  0  0  0  0  0  0  0  0  0
   -3.3090   -0.7653   -2.9048 C   0  0  0  0  0  0  0  0  0  0  0  0
   -3.0428   -0.2068   -1.6538 C   0  0  0  0  0  0  0  0  0  0  0  0
    0.0918   -3.5507    3.2501 H   0  0  0  0  0  0  0  0  0  0  0  0
    1.3227   -3.2216    1.2797 H   0  0  0  0  0  0  0  0  0  0  0  0
    1.8462   -1.7043    3.2664 H   0  0  0  0  0  0  0  0  0  0  0  0
    3.0576   -1.7642    1.9937 H   0  0  0  0  0  0  0  0  0  0  0  0
    0.9607    0.4455    2.3780 H   0  0  0  0  0  0  0  0  0  0  0  0
    2.6613    0.5691    2.7489 H   0  0  0  0  0  0  0  0  0  0  0  0
    4.9416    0.5615   -2.4162 H   0  0  0  0  0  0  0  0  0  0  0  0
    4.8853    2.1036   -4.3371 H   0  0  0  0  0  0  0  0  0  0  0  0
    3.6462    4.2458   -4.1773 H   0  0  0  0  0  0  0  0  0  0  0  0
    2.4669    4.8486   -2.1049 H   0  0  0  0  0  0  0  0  0  0  0  0
    0.2429    0.3177   -0.0813 H   0  0  0  0  0  0  0  0  0  0  0  0
    1.4713    0.1632   -1.3055 H   0  0  0  0  0  0  0  0  0  0  0  0
    2.1045   -2.0574   -0.5894 H   0  0  0  0  0  0  0  0  0  0  0  0
    0.3647   -2.0274   -0.7756 H   0  0  0  0  0  0  0  0  0  0  0  0
   -4.5796    1.0914    1.0025 H   0  0  0  0  0  0  0  0  0  0  0  0
   -2.8496    1.0616    0.6658 H   0  0  0  0  0  0  0  0  0  0  0  0
   -6.1024   -0.6542   -0.2164 H   0  0  0  0  0  0  0  0  0  0  0  0
   -6.5611   -1.6346   -2.4341 H   0  0  0  0  0  0  0  0  0  0  0  0
   -4.7818   -1.7124   -4.1598 H   0  0  0  0  0  0  0  0  0  0  0  0
   -2.5287   -0.8054   -3.6603 H   0  0  0  0  0  0  0  0  0  0  0  0
   -2.0472    0.1798   -1.4480 H   0  0  0  0  0  0  0  0  0  0  0  0
  1  2  2  0
  2  3  1  0
  3  4  1  0
  4  5  1  0
  5  6  1  0
  6  7  1  0
  7  8  1  0
  8  9  1  0
  9 10  2  0
  9 11  2  0
  9 12  1  0
 12 13  2  0
 13 14  1  0
 14 15  2  0
 15 16  1  0
 16 17  2  0
 17 18  1  0
 18 19  1  0
 18 20  1  0
 18 21  1  0
  8 22  1  0
 22 23  1  0
  4 24  2  0
 24 25  1  0
 25 26  2  0
 26 27  1  0
 27 28  2  0
 28 29  1  0
 29 30  1  0
 30 31  1  0
 31 32  2  0
 32 33  1  0
 33 34  2  0
 34 35  1  0
 35 36  2  0
 26  2  1  0
 36 31  1  0
 23  5  1  0
 29 25  1  0
 17 12  1  0
  3 37  1  0
  5 38  1  0
  6 39  1  0
  6 40  1  0
  7 41  1  0
  7 42  1  0
 13 43  1  0
 14 44  1  0
 15 45  1  0
 16 46  1  0
 22 47  1  0
 22 48  1  0
 23 49  1  0
 23 50  1  0
 30 51  1  0
 30 52  1  0
 32 53  1  0
 33 54  1  0
 34 55  1  0
 35 56  1  0
 36 57  1  0
M  END
$$$$
