
     RDKit          3D

 61 67  0  0  0  0  0  0  0  0999 V2000
    3.4824    2.3238   -1.2223 O   0  0  0  0  0  0  0  0  0  0  0  0
    3.3342    1.2132   -0.7182 C   0  0  0  0  0  0  0  0  0  0  0  0
    4.5156    0.5740   -0.0945 C   0  0  0  0  0  0  0  0  0  0  0  0
    5.2924    1.3336    0.8077 C   0  0  0  0  0  0  0  0  0  0  0  0
    6.4344    0.7814    1.3955 C   0  0  0  0  0  0  0  0  0  0  0  0
    6.7702   -0.5109    1.0488 C   0  0  0  0  0  0  0  0  0  0  0  0
    6.0216   -1.2442    0.1535 C   0  0  0  0  0  0  0  0  0  0  0  0
    4.8905   -0.7303   -0.4444 C   0  0  0  0  0  0  0  0  0  0  0  0
    6.5345   -2.4874   -0.0542 O   0  0  0  0  0  0  0  0  0  0  0  0
    7.7022   -2.4468    0.7944 C   0  0  0  0  0  0  0  0  0  0  0  0
    7.8448   -1.2036    1.5126 O   0  0  0  0  0  0  0  0  0  0  0  0
    2.1102    0.5394   -0.7080 N   0  0  0  0  0  0  0  0  0  0  0  0
    1.0109    1.1387   -1.4519 C   0  0  0  0  0  0  0  0  0  0  0  0
   -0.0809    0.1281   -1.7838 C   0  0  0  0  0  0  0  0  0  0  0  0
   -0.6412   -0.6224   -0.5371 C   0  0  0  0  0  0  0  0  0  0  0  0
    0.3255   -0.4702    0.6665 C   0  0  0  0  0  0  0  0  0  0  0  0
    1.7833   -0.5459    0.2166 C   0  0  0  0  0  0  0  0  0  0  0  0
   -0.6126   -2.0228   -0.9470 O   0  0  0  0  0  0  0  0  0  0  0  0
   -1.4108   -2.9072   -0.2817 C   0  0  0  0  0  0  0  0  0  0  0  0
   -1.1893   -4.2580   -0.5529 C   0  0  0  0  0  0  0  0  0  0  0  0
   -1.9459   -5.2338    0.0987 C   0  0  0  0  0  0  0  0  0  0  0  0
   -2.9194   -4.8524    1.0169 C   0  0  0  0  0  0  0  0  0  0  0  0
   -3.6381   -5.7923    1.6412 F   0  0  0  0  0  0  0  0  0  0  0  0
   -3.1575   -3.5131    1.2923 C   0  0  0  0  0  0  0  0  0  0  0  0
   -2.4021   -2.5453    0.6268 C   0  0  0  0  0  0  0  0  0  0  0  0
   -2.6355   -1.1170    0.8707 C   0  0  0  0  0  0  0  0  0  0  0  0
   -3.2198   -0.7554    1.8877 O   0  0  0  0  0  0  0  0  0  0  0  0
   -2.0911   -0.1735   -0.1940 C   0  0  0  0  0  0  0  0  0  0  0  0
   -2.2501    1.2815    0.2170 C   0  0  0  0  0  0  0  0  0  0  0  0
   -3.5645    1.5590   -0.4333 C   0  0  0  0  0  0  0  0  0  0  0  0
   -4.3634    2.7678   -0.1218 C   0  0  0  0  0  0  0  0  0  0  0  0
   -5.5922    2.9511   -0.7727 C   0  0  0  0  0  0  0  0  0  0  0  0
   -6.3690    4.0834   -0.5116 C   0  0  0  0  0  0  0  0  0  0  0  0
   -5.9201    5.0336    0.4023 C   0  0  0  0  0  0  0  0  0  0  0  0
   -6.8761    6.4261    0.7274 Cl  0  0  0  0  0  0  0  0  0  0  0  0
   -4.7002    4.8619    1.0546 C   0  0  0  0  0  0  0  0  0  0  0  0
   -3.9187    3.7295    0.7935 C   0  0  0  0  0  0  0  0  0  0  0  0
   -3.9260    0.6836   -1.3172 N   0  0  0  0  0  0  0  0  0  0  0  0
   -2.9345   -0.3213   -1.3506 O   0  0  0  0  0  0  0  0  0  0  0  0
    5.0032    2.3581    1.0429 H   0  0  0  0  0  0  0  0  0  0  0  0
    7.0434    1.3547    2.0859 H   0  0  0  0  0  0  0  0  0  0  0  0
    4.3317   -1.3118   -1.1673 H   0  0  0  0  0  0  0  0  0  0  0  0
    7.6349   -3.2628    1.5219 H   0  0  0  0  0  0  0  0  0  0  0  0
    8.5964   -2.5964    0.1741 H   0  0  0  0  0  0  0  0  0  0  0  0
    0.6197    1.9638   -0.8468 H   0  0  0  0  0  0  0  0  0  0  0  0
    1.3977    1.5796   -2.3788 H   0  0  0  0  0  0  0  0  0  0  0  0
   -0.8768    0.6437   -2.3330 H   0  0  0  0  0  0  0  0  0  0  0  0
    0.3384   -0.5974   -2.4953 H   0  0  0  0  0  0  0  0  0  0  0  0
    0.1580   -1.2583    1.4092 H   0  0  0  0  0  0  0  0  0  0  0  0
    0.1634    0.4894    1.1722 H   0  0  0  0  0  0  0  0  0  0  0  0
    1.9802   -1.4919   -0.2990 H   0  0  0  0  0  0  0  0  0  0  0  0
    2.4330   -0.4956    1.0956 H   0  0  0  0  0  0  0  0  0  0  0  0
   -0.4255   -4.5524   -1.2689 H   0  0  0  0  0  0  0  0  0  0  0  0
   -1.7823   -6.2877   -0.1030 H   0  0  0  0  0  0  0  0  0  0  0  0
   -3.9284   -3.2348    2.0047 H   0  0  0  0  0  0  0  0  0  0  0  0
   -2.2650    1.4409    1.2970 H   0  0  0  0  0  0  0  0  0  0  0  0
   -1.5136    1.9460   -0.2405 H   0  0  0  0  0  0  0  0  0  0  0  0
   -5.9549    2.2132   -1.4871 H   0  0  0  0  0  0  0  0  0  0  0  0
   -7.3208    4.2142   -1.0237 H   0  0  0  0  0  0  0  0  0  0  0  0
   -4.3527    5.6040    1.7693 H   0  0  0  0  0  0  0  0  0  0  0  0
   -2.9737    3.6257    1.3186 H   0  0  0  0  0  0  0  0  0  0  0  0
  1  2  2  0
  2  3  1  0
  3  4  2  0
  4  5  1  0
  5  6  2  0
  6  7  1  0
  7  8  2  0
  7  9  1  0
  9 10  1  0
 10 11  1  0
  2 12  1  0
 12 13  1  0
 13 14  1  0
 14 15  1  0
 15 16  1  0
 16 17  1  0
 15 18  1  0
 18 19  1  0
 19 20  2  0
 20 21  1  0
 21 22  2  0
 22 23  1  0
 22 24  1  0
 24 25  2  0
 25 26  1  0
 26 27  2  0
 26 28  1  0
 28 29  1  0
 29 30  1  0
 30 31  1  0
 31 32  2  0
 32 33  1  0
 33 34  2  0
 34 35  1  0
 34 36  1  0
 36 37  2  0
 30 38  2  0
 38 39  1  0
  8  3  1  0
 17 12  1  0
 25 19  1  0
 39 28  1  0
 11  6  1  0
 28 15  1  0
 37 31  1  0
  4 40  1  0
  5 41  1  0
  8 42  1  0
 10 43  1  0
 10 44  1  0
 13 45  1  0
 13 46  1  0
 14 47  1  0
 14 48  1  0
 16 49  1  0
 16 50  1  0
 17 51  1  0
 17 52  1  0
 20 53  1  0
 21 54  1  0
 24 55  1  0
 29 56  1  0
 29 57  1  0
 32 58  1  0
 33 59  1  0
 36 60  1  0
 37 61  1  0
M  END
$$$$
