
     RDKit          3D

 42 46  0  0  0  0  0  0  0  0999 V2000
    5.1052    1.8694    0.7652 C   0  0  0  0  0  0  0  0  0  0  0  0
    5.2623    0.7429   -0.0397 C   0  0  0  0  0  0  0  0  0  0  0  0
    4.1464    0.1026   -0.5989 C   0  0  0  0  0  0  0  0  0  0  0  0
    4.2941   -1.0297   -1.4072 C   0  0  0  0  0  0  0  0  0  0  0  0
    3.1777   -1.6597   -1.9579 C   0  0  0  0  0  0  0  0  0  0  0  0
    1.8865   -1.1732   -1.7152 C   0  0  0  0  0  0  0  0  0  0  0  0
    0.7722   -1.8083   -2.2697 C   0  0  0  0  0  0  0  0  0  0  0  0
   -0.5105   -1.3224   -2.0308 C   0  0  0  0  0  0  0  0  0  0  0  0
   -0.7164   -0.1867   -1.2282 C   0  0  0  0  0  0  0  0  0  0  0  0
   -2.1478    0.2877   -1.0246 C   0  0  0  0  0  0  0  0  0  0  0  0
   -2.6467    0.1123    0.3480 N   0  0  0  0  0  0  0  0  0  0  0  0
   -3.9794    0.7241    0.5307 C   0  0  0  0  0  0  0  0  0  0  0  0
   -5.1306   -0.2928    0.4918 C   0  0  0  0  0  0  0  0  0  0  0  0
   -5.0208   -1.3093    1.4968 O   0  0  0  0  0  0  0  0  0  0  0  0
   -3.6650   -1.5671    1.8905 C   0  0  0  0  0  0  0  0  0  0  0  0
   -2.6629   -1.3104    0.7555 C   0  0  0  0  0  0  0  0  0  0  0  0
    0.4028    0.4736   -0.6485 C   0  0  0  0  0  0  0  0  0  0  0  0
    0.2917    1.6135    0.1745 C   0  0  0  0  0  0  0  0  0  0  0  0
    1.4132    2.2397    0.7249 C   0  0  0  0  0  0  0  0  0  0  0  0
    2.6965    1.7496    0.4745 C   0  0  0  0  0  0  0  0  0  0  0  0
    3.8301    2.3695    1.0211 C   0  0  0  0  0  0  0  0  0  0  0  0
    2.8487    0.6074   -0.3427 C   0  0  0  0  0  0  0  0  0  0  0  0
    1.7069   -0.0289   -0.9015 C   0  0  0  0  0  0  0  0  0  0  0  0
    5.9765    2.3573    1.1939 H   0  0  0  0  0  0  0  0  0  0  0  0
    6.2654    0.3666   -0.2276 H   0  0  0  0  0  0  0  0  0  0  0  0
    5.2819   -1.4339   -1.6161 H   0  0  0  0  0  0  0  0  0  0  0  0
    3.3281   -2.5383   -2.5814 H   0  0  0  0  0  0  0  0  0  0  0  0
    0.8925   -2.6895   -2.8959 H   0  0  0  0  0  0  0  0  0  0  0  0
   -1.3565   -1.8405   -2.4775 H   0  0  0  0  0  0  0  0  0  0  0  0
   -2.1754    1.3498   -1.3033 H   0  0  0  0  0  0  0  0  0  0  0  0
   -2.8167   -0.2144   -1.7370 H   0  0  0  0  0  0  0  0  0  0  0  0
   -3.9763    1.2010    1.5191 H   0  0  0  0  0  0  0  0  0  0  0  0
   -4.1615    1.5266   -0.1937 H   0  0  0  0  0  0  0  0  0  0  0  0
   -6.0870    0.2170    0.6468 H   0  0  0  0  0  0  0  0  0  0  0  0
   -5.1800   -0.7847   -0.4866 H   0  0  0  0  0  0  0  0  0  0  0  0
   -3.6116   -2.6127    2.2106 H   0  0  0  0  0  0  0  0  0  0  0  0
   -3.4358   -0.9472    2.7653 H   0  0  0  0  0  0  0  0  0  0  0  0
   -1.6612   -1.6059    1.0860 H   0  0  0  0  0  0  0  0  0  0  0  0
   -2.9462   -1.9485   -0.0920 H   0  0  0  0  0  0  0  0  0  0  0  0
   -0.6840    2.0308    0.4130 H   0  0  0  0  0  0  0  0  0  0  0  0
    1.2675    3.1137    1.3556 H   0  0  0  0  0  0  0  0  0  0  0  0
    3.7263    3.2490    1.6525 H   0  0  0  0  0  0  0  0  0  0  0  0
  1  2  2  0
  2  3  1  0
  3  4  2  0
  4  5  1  0
  5  6  2  0
  6  7  1  0
  7  8  2  0
  8  9  1  0
  9 10  1  0
 10 11  1  0
 11 12  1  0
 12 13  1  0
 13 14  1  0
 14 15  1  0
 15 16  1  0
  9 17  2  0
 17 18  1  0
 18 19  2  0
 19 20  1  0
 20 21  2  0
 20 22  1  0
 22 23  2  0
 21  1  1  0
 22  3  1  0
 23  6  1  0
 16 11  1  0
 23 17  1  0
  1 24  1  0
  2 25  1  0
  4 26  1  0
  5 27  1  0
  7 28  1  0
  8 29  1  0
 10 30  1  0
 10 31  1  0
 12 32  1  0
 12 33  1  0
 13 34  1  0
 13 35  1  0
 15 36  1  0
 15 37  1  0
 16 38  1  0
 16 39  1  0
 18 40  1  0
 19 41  1  0
 21 42  1  0
M  END
$$$$
