
     RDKit          3D

 37 39  0  0  0  0  0  0  0  0999 V2000
    6.4325   -0.1971    0.3667 C   0  0  0  0  0  0  0  0  0  0  0  0
    5.3338    0.0841   -0.4927 O   0  0  0  0  0  0  0  0  0  0  0  0
    4.0775   -0.0882    0.0230 C   0  0  0  0  0  0  0  0  0  0  0  0
    3.7788   -0.5015    1.3283 C   0  0  0  0  0  0  0  0  0  0  0  0
    2.4506   -0.6421    1.7391 C   0  0  0  0  0  0  0  0  0  0  0  0
    1.4415   -0.3623    0.8299 C   0  0  0  0  0  0  0  0  0  0  0  0
    1.7151    0.0562   -0.4881 C   0  0  0  0  0  0  0  0  0  0  0  0
    3.0420    0.1897   -0.8825 C   0  0  0  0  0  0  0  0  0  0  0  0
    0.5596    0.2985   -1.2645 N   0  0  0  0  0  0  0  0  0  0  0  0
    0.7152    0.5413   -2.6892 C   0  0  0  0  0  0  0  0  0  0  0  0
   -0.6081    0.0010   -0.5594 C   0  0  0  0  0  0  0  0  0  0  0  0
   -1.8680    0.0745   -1.0287 C   0  0  0  0  0  0  0  0  0  0  0  0
   -3.0791   -0.2421   -0.2661 C   0  0  0  0  0  0  0  0  0  0  0  0
   -3.6026   -1.5395   -0.3166 C   0  0  0  0  0  0  0  0  0  0  0  0
   -4.7401   -1.8587    0.4127 C   0  0  0  0  0  0  0  0  0  0  0  0
   -5.3411   -0.8800    1.1877 C   0  0  0  0  0  0  0  0  0  0  0  0
   -4.7975    0.3982    1.2154 C   0  0  0  0  0  0  0  0  0  0  0  0
   -3.6944    0.7071    0.4923 N   0  0  0  0  0  4  0  0  0  0  0  0
   -3.1619    2.0831    0.5671 C   0  0  0  0  0  0  0  0  0  0  0  0
   -0.3135   -0.4959    1.1360 S   0  0  0  0  0  0  0  0  0  0  0  0
    7.3526   -0.0177   -0.1977 H   0  0  0  0  0  0  0  0  0  0  0  0
    6.4312   -1.2470    0.6777 H   0  0  0  0  0  0  0  0  0  0  0  0
    6.4365    0.4728    1.2328 H   0  0  0  0  0  0  0  0  0  0  0  0
    4.5608   -0.7240    2.0479 H   0  0  0  0  0  0  0  0  0  0  0  0
    2.2216   -0.9685    2.7487 H   0  0  0  0  0  0  0  0  0  0  0  0
    3.3075    0.5083   -1.8853 H   0  0  0  0  0  0  0  0  0  0  0  0
    1.0917   -0.3543   -3.1955 H   0  0  0  0  0  0  0  0  0  0  0  0
    1.4032    1.3733   -2.8759 H   0  0  0  0  0  0  0  0  0  0  0  0
   -0.2304    0.8176   -3.1651 H   0  0  0  0  0  0  0  0  0  0  0  0
   -2.0581    0.3715   -2.0547 H   0  0  0  0  0  0  0  0  0  0  0  0
   -3.1166   -2.3087   -0.9151 H   0  0  0  0  0  0  0  0  0  0  0  0
   -5.1482   -2.8681    0.3826 H   0  0  0  0  0  0  0  0  0  0  0  0
   -6.2282   -1.1127    1.7735 H   0  0  0  0  0  0  0  0  0  0  0  0
   -5.2432    1.1834    1.8203 H   0  0  0  0  0  0  0  0  0  0  0  0
   -3.8936    2.7369    1.0492 H   0  0  0  0  0  0  0  0  0  0  0  0
   -2.2435    2.0624    1.1575 H   0  0  0  0  0  0  0  0  0  0  0  0
   -2.9838    2.4483   -0.4475 H   0  0  0  0  0  0  0  0  0  0  0  0
  1  2  1  0
  2  3  1  0
  3  4  2  0
  4  5  1  0
  5  6  2  0
  6  7  1  0
  7  8  2  0
  7  9  1  0
  9 10  1  0
  9 11  1  0
 11 12  2  3
 12 13  1  0
 13 14  2  0
 14 15  1  0
 15 16  2  0
 16 17  1  0
 17 18  2  0
 18 19  1  0
 11 20  1  0
  8  3  1  0
 18 13  1  0
 20  6  1  0
  1 21  1  0
  1 22  1  0
  1 23  1  0
  4 24  1  0
  5 25  1  0
  8 26  1  0
 10 27  1  0
 10 28  1  0
 10 29  1  0
 12 30  1  0
 14 31  1  0
 15 32  1  0
 16 33  1  0
 17 34  1  0
 19 35  1  0
 19 36  1  0
 19 37  1  0
M  CHG  1  18   1
M  END
$$$$
