
     RDKit          3D

 36 37  0  0  0  0  0  0  0  0999 V2000
    1.3031   -0.7579   -2.4679 O   0  0  0  0  0  0  0  0  0  0  0  0
    0.4343   -0.8474   -1.6050 C   0  0  0  0  0  0  0  0  0  0  0  0
   -0.9259   -1.4940   -1.8791 C   0  0  0  0  0  0  0  0  0  0  0  0
   -1.9493   -1.1532   -0.9401 O   0  0  0  0  0  0  0  0  0  0  0  0
   -2.5216    0.0557   -1.1488 C   0  0  0  0  0  0  0  0  0  0  0  0
   -2.2585    0.8466   -2.0373 O   0  0  0  0  0  0  0  0  0  0  0  0
   -3.6231    0.2588   -0.1916 C   0  0  0  0  0  0  0  0  0  0  0  0
   -4.8626    0.6333   -0.7322 C   0  0  0  0  0  0  0  0  0  0  0  0
   -5.9498    0.8424    0.1122 C   0  0  0  0  0  0  0  0  0  0  0  0
   -7.4724    1.2889   -0.5498 Cl  0  0  0  0  0  0  0  0  0  0  0  0
   -5.8122    0.6930    1.4910 C   0  0  0  0  0  0  0  0  0  0  0  0
   -4.5732    0.3397    2.0317 C   0  0  0  0  0  0  0  0  0  0  0  0
   -3.4723    0.1261    1.1945 C   0  0  0  0  0  0  0  0  0  0  0  0
   -1.9630   -0.2419    1.9482 Cl  0  0  0  0  0  0  0  0  0  0  0  0
    0.6237   -0.4442   -0.3023 N   0  0  0  0  0  0  0  0  0  0  0  0
    1.8502    0.1876    0.1442 C   0  0  0  0  0  0  0  0  0  0  0  0
    3.0010   -0.8063    0.3322 C   0  0  0  0  0  0  0  0  0  0  0  0
    4.1424   -0.1997    0.9947 N   0  0  0  0  0  0  0  0  0  0  0  0
    5.1411    0.4676    0.3305 C   0  0  0  0  0  0  0  0  0  0  0  0
    5.0959    0.5359   -1.0277 O   0  0  0  0  0  0  0  0  0  0  0  0
    6.0766    1.0013    1.1240 C   0  0  0  0  0  0  0  0  0  0  0  0
    5.7292    0.6956    2.7998 S   0  0  0  0  0  0  0  0  0  0  0  0
    4.2412   -0.1743    2.3760 C   0  0  0  0  0  0  0  0  0  0  0  0
    3.4669   -0.6350    3.1983 O   0  0  0  0  0  0  0  0  0  0  0  0
   -0.7868   -2.5790   -1.8254 H   0  0  0  0  0  0  0  0  0  0  0  0
   -1.2423   -1.2513   -2.9004 H   0  0  0  0  0  0  0  0  0  0  0  0
   -4.9735    0.7583   -1.8077 H   0  0  0  0  0  0  0  0  0  0  0  0
   -6.6611    0.8594    2.1505 H   0  0  0  0  0  0  0  0  0  0  0  0
   -4.4720    0.2421    3.1108 H   0  0  0  0  0  0  0  0  0  0  0  0
   -0.1152   -0.6112    0.3729 H   0  0  0  0  0  0  0  0  0  0  0  0
    2.1318    0.9580   -0.5823 H   0  0  0  0  0  0  0  0  0  0  0  0
    1.6183    0.6920    1.0883 H   0  0  0  0  0  0  0  0  0  0  0  0
    3.3149   -1.2389   -0.6245 H   0  0  0  0  0  0  0  0  0  0  0  0
    2.6528   -1.6431    0.9509 H   0  0  0  0  0  0  0  0  0  0  0  0
    5.8704    1.0312   -1.3430 H   0  0  0  0  0  0  0  0  0  0  0  0
    6.9411    1.5640    0.8051 H   0  0  0  0  0  0  0  0  0  0  0  0
  1  2  2  0
  2  3  1  0
  3  4  1  0
  4  5  1  0
  5  6  2  0
  5  7  1  0
  7  8  2  0
  8  9  1  0
  9 10  1  0
  9 11  2  0
 11 12  1  0
 12 13  2  0
 13 14  1  0
  2 15  1  0
 15 16  1  0
 16 17  1  0
 17 18  1  0
 18 19  1  0
 19 20  1  0
 19 21  2  0
 21 22  1  0
 22 23  1  0
 23 24  2  0
 13  7  1  0
 23 18  1  0
  3 25  1  0
  3 26  1  0
  8 27  1  0
 11 28  1  0
 12 29  1  0
 15 30  1  0
 16 31  1  0
 16 32  1  0
 17 33  1  0
 17 34  1  0
 20 35  1  0
 21 36  1  0
M  END
$$$$
