
     RDKit          3D

 49 52  0  0  0  0  0  0  0  0999 V2000
   -5.3486    3.2724    1.8668 C   0  0  0  0  0  0  0  0  0  0  0  0
   -4.2039    2.3375    1.6057 C   0  0  0  0  0  0  0  0  0  0  0  0
   -3.0288    2.7982    1.0004 C   0  0  0  0  0  0  0  0  0  0  0  0
   -1.9693    1.9226    0.7461 C   0  0  0  0  0  0  0  0  0  0  0  0
   -2.0861    0.5695    1.0815 C   0  0  0  0  0  0  0  0  0  0  0  0
   -1.0130   -0.3225    0.8345 N   0  0  0  0  0  0  0  0  0  0  0  0
   -1.0724   -1.5852    0.2485 C   0  0  0  0  0  0  0  0  0  0  0  0
   -2.2662   -2.1968   -0.4175 C   0  0  0  0  0  0  0  0  0  0  0  0
   -2.7667   -1.3999   -1.5922 C   0  0  0  0  0  0  0  0  0  0  0  0
   -2.0455   -0.8444   -2.6345 C   0  0  0  0  0  0  0  0  0  0  0  0
   -2.8741   -0.1372   -3.5537 C   0  0  0  0  0  0  0  0  0  0  0  0
   -4.2036   -0.2028   -3.2033 C   0  0  0  0  0  0  0  0  0  0  0  0
   -4.4469   -1.1053   -1.7717 S   0  0  0  0  0  0  0  0  0  0  0  0
    0.1301   -2.1320    0.2576 N   0  0  0  0  0  0  0  0  0  0  0  0
    1.0011   -1.2435    0.8115 N   0  0  0  0  0  0  0  0  0  0  0  0
    0.3298   -0.1624    1.1366 C   0  0  0  0  0  0  0  0  0  0  0  0
    1.0248    1.1831    1.9817 S   0  0  0  0  0  0  0  0  0  0  0  0
    2.5383    0.4432    2.6569 C   0  0  0  0  0  0  0  0  0  0  0  0
    3.6826    0.5123    1.6577 C   0  0  0  0  0  0  0  0  0  0  0  0
    4.5060    1.4228    1.7091 O   0  0  0  0  0  0  0  0  0  0  0  0
    3.6781   -0.5218    0.7377 N   0  0  0  0  0  0  0  0  0  0  0  0
    4.6463   -0.8017   -0.2453 C   0  0  0  0  0  0  0  0  0  0  0  0
    5.9046   -0.1870   -0.2925 C   0  0  0  0  0  0  0  0  0  0  0  0
    6.8270   -0.5338   -1.2849 C   0  0  0  0  0  0  0  0  0  0  0  0
    6.4895   -1.4935   -2.2310 C   0  0  0  0  0  0  0  0  0  0  0  0
    7.3758   -1.8245   -3.1785 F   0  0  0  0  0  0  0  0  0  0  0  0
    5.2446   -2.1067   -2.1913 C   0  0  0  0  0  0  0  0  0  0  0  0
    4.9182   -3.0294   -3.1070 F   0  0  0  0  0  0  0  0  0  0  0  0
    4.3227   -1.7720   -1.2026 C   0  0  0  0  0  0  0  0  0  0  0  0
   -3.2656    0.0966    1.6712 C   0  0  0  0  0  0  0  0  0  0  0  0
   -4.3184    0.9796    1.9293 C   0  0  0  0  0  0  0  0  0  0  0  0
   -6.1170    3.1480    1.0988 H   0  0  0  0  0  0  0  0  0  0  0  0
   -5.0178    4.3157    1.8638 H   0  0  0  0  0  0  0  0  0  0  0  0
   -5.7892    3.0732    2.8497 H   0  0  0  0  0  0  0  0  0  0  0  0
   -2.9296    3.8452    0.7203 H   0  0  0  0  0  0  0  0  0  0  0  0
   -1.0823    2.3155    0.2521 H   0  0  0  0  0  0  0  0  0  0  0  0
   -3.0555   -2.3808    0.3198 H   0  0  0  0  0  0  0  0  0  0  0  0
   -1.9814   -3.1902   -0.7918 H   0  0  0  0  0  0  0  0  0  0  0  0
   -0.9693   -0.9289   -2.7276 H   0  0  0  0  0  0  0  0  0  0  0  0
   -2.5115    0.3913   -4.4272 H   0  0  0  0  0  0  0  0  0  0  0  0
   -5.0463    0.2367   -3.7196 H   0  0  0  0  0  0  0  0  0  0  0  0
    2.8332    1.0165    3.5430 H   0  0  0  0  0  0  0  0  0  0  0  0
    2.3747   -0.5883    2.9906 H   0  0  0  0  0  0  0  0  0  0  0  0
    2.8240   -1.0786    0.6963 H   0  0  0  0  0  0  0  0  0  0  0  0
    6.2028    0.5568    0.4415 H   0  0  0  0  0  0  0  0  0  0  0  0
    7.8038   -0.0622   -1.3160 H   0  0  0  0  0  0  0  0  0  0  0  0
    3.3569   -2.2703   -1.2020 H   0  0  0  0  0  0  0  0  0  0  0  0
   -3.3767   -0.9382    1.9844 H   0  0  0  0  0  0  0  0  0  0  0  0
   -5.2293    0.6033    2.3972 H   0  0  0  0  0  0  0  0  0  0  0  0
  1  2  1  0
  2  3  2  0
  3  4  1  0
  4  5  2  0
  5  6  1  0
  6  7  1  0
  7  8  1  0
  8  9  1  0
  9 10  2  0
 10 11  1  0
 11 12  2  0
 12 13  1  0
  7 14  2  0
 14 15  1  0
 15 16  2  0
 16 17  1  0
 17 18  1  0
 18 19  1  0
 19 20  2  0
 19 21  1  0
 21 22  1  0
 22 23  2  0
 23 24  1  0
 24 25  2  0
 25 26  1  0
 25 27  1  0
 27 28  1  0
 27 29  2  0
  5 30  1  0
 30 31  2  0
 31  2  1  0
 16  6  1  0
 29 22  1  0
 13  9  1  0
  1 32  1  0
  1 33  1  0
  1 34  1  0
  3 35  1  0
  4 36  1  0
  8 37  1  0
  8 38  1  0
 10 39  1  0
 11 40  1  0
 12 41  1  0
 18 42  1  0
 18 43  1  0
 21 44  1  0
 23 45  1  0
 24 46  1  0
 29 47  1  0
 30 48  1  0
 31 49  1  0
M  END
$$$$
