
     RDKit          3D

 37 39  0  0  0  0  0  0  0  0999 V2000
    6.0885    3.1191   -2.1226 C   0  0  0  0  0  0  0  0  0  0  0  0
    4.7689    3.5206   -1.7764 O   0  0  0  0  0  0  0  0  0  0  0  0
    3.8870    2.5307   -1.4323 C   0  0  0  0  0  0  0  0  0  0  0  0
    2.6108    2.9893   -1.1058 C   0  0  0  0  0  0  0  0  0  0  0  0
    1.5916    2.1042   -0.7314 C   0  0  0  0  0  0  0  0  0  0  0  0
    1.8584    0.7205   -0.6822 C   0  0  0  0  0  0  0  0  0  0  0  0
    1.0908   -0.4428   -0.3547 C   0  0  0  0  0  0  0  0  0  0  0  0
   -0.2814   -0.4646    0.0503 C   0  0  0  0  0  0  0  0  0  0  0  0
   -1.0191   -1.5632    0.2872 C   0  0  0  0  0  0  0  0  0  0  0  0
   -2.4269   -1.5212    0.6970 C   0  0  0  0  0  0  0  0  0  0  0  0
   -3.3292   -2.4178    0.1283 C   0  0  0  0  0  0  0  0  0  0  0  0
   -4.6617   -2.4007    0.5253 C   0  0  0  0  0  0  0  0  0  0  0  0
   -5.0891   -1.5273    1.4642 N   0  0  0  0  0  4  0  0  0  0  0  0
   -6.5031   -1.5343    1.8761 C   0  0  0  0  0  0  0  0  0  0  0  0
   -4.2271   -0.6656    2.0484 C   0  0  0  0  0  0  0  0  0  0  0  0
   -2.8866   -0.6460    1.6801 C   0  0  0  0  0  0  0  0  0  0  0  0
    1.9197   -1.5352   -0.4950 C   0  0  0  0  0  0  0  0  0  0  0  0
    3.1520   -1.0840   -0.8931 N   0  0  0  0  0  0  0  0  0  0  0  0
    3.1428    0.2867   -1.0143 C   0  0  0  0  0  0  0  0  0  0  0  0
    4.1743    1.1626   -1.3914 C   0  0  0  0  0  0  0  0  0  0  0  0
    6.6583    4.0201   -2.3691 H   0  0  0  0  0  0  0  0  0  0  0  0
    6.0853    2.4744   -3.0078 H   0  0  0  0  0  0  0  0  0  0  0  0
    6.5865    2.6306   -1.2786 H   0  0  0  0  0  0  0  0  0  0  0  0
    2.4026    4.0566   -1.1435 H   0  0  0  0  0  0  0  0  0  0  0  0
    0.6095    2.4940   -0.4855 H   0  0  0  0  0  0  0  0  0  0  0  0
   -0.7492    0.5119    0.1551 H   0  0  0  0  0  0  0  0  0  0  0  0
   -0.5899   -2.5539    0.1568 H   0  0  0  0  0  0  0  0  0  0  0  0
   -3.0044   -3.1262   -0.6321 H   0  0  0  0  0  0  0  0  0  0  0  0
   -5.3920   -3.0830    0.0993 H   0  0  0  0  0  0  0  0  0  0  0  0
   -7.1214   -1.8453    1.0301 H   0  0  0  0  0  0  0  0  0  0  0  0
   -6.7918   -0.5256    2.1829 H   0  0  0  0  0  0  0  0  0  0  0  0
   -6.5981   -2.2370    2.7076 H   0  0  0  0  0  0  0  0  0  0  0  0
   -4.6175    0.0002    2.8131 H   0  0  0  0  0  0  0  0  0  0  0  0
   -2.2069    0.0464    2.1738 H   0  0  0  0  0  0  0  0  0  0  0  0
    1.7587   -2.5942   -0.3481 H   0  0  0  0  0  0  0  0  0  0  0  0
    3.9576   -1.6682   -1.0721 H   0  0  0  0  0  0  0  0  0  0  0  0
    5.1522    0.7683   -1.6381 H   0  0  0  0  0  0  0  0  0  0  0  0
  1  2  1  0
  2  3  1  0
  3  4  2  0
  4  5  1  0
  5  6  2  0
  6  7  1  0
  7  8  1  0
  8  9  2  3
  9 10  1  0
 10 11  2  0
 11 12  1  0
 12 13  2  0
 13 14  1  0
 13 15  1  0
 15 16  2  0
  7 17  2  0
 17 18  1  0
 18 19  1  0
 19 20  2  0
 20  3  1  0
 19  6  1  0
 16 10  1  0
  1 21  1  0
  1 22  1  0
  1 23  1  0
  4 24  1  0
  5 25  1  0
  8 26  1  0
  9 27  1  0
 11 28  1  0
 12 29  1  0
 14 30  1  0
 14 31  1  0
 14 32  1  0
 15 33  1  0
 16 34  1  0
 17 35  1  0
 18 36  1  0
 20 37  1  0
M  CHG  1  13   1
M  END
$$$$
