
     RDKit          3D

 71 75  0  0  0  0  0  0  0  0999 V2000
   -9.2222   -1.0767    0.0556 C   0  0  0  0  0  0  0  0  0  0  0  0
   -7.7783   -1.2483   -0.3121 C   0  0  0  0  0  0  0  0  0  0  0  0
   -7.2473   -2.5185   -0.5313 C   0  0  0  0  0  0  0  0  0  0  0  0
   -5.8961   -2.6735   -0.8417 C   0  0  0  0  0  0  0  0  0  0  0  0
   -5.0383   -1.5646   -0.9246 C   0  0  0  0  0  0  0  0  0  0  0  0
   -3.5950   -1.7997   -1.2759 C   0  0  0  0  0  0  0  0  0  0  0  0
   -5.5562   -0.2747   -0.6833 C   0  0  0  0  0  0  0  0  0  0  0  0
   -4.7043    0.9765   -0.7555 C   0  0  0  0  0  0  0  0  0  0  0  0
   -4.5812    1.6315    0.5340 N   0  0  0  0  0  0  0  0  0  0  0  0
   -5.4369    2.6239    0.8928 N   0  0  0  0  0  0  0  0  0  0  0  0
   -5.0749    3.0610    2.0986 N   0  0  0  0  0  0  0  0  0  0  0  0
   -3.9730    2.3560    2.4676 C   0  0  0  0  0  0  0  0  0  0  0  0
   -3.1579    2.4387    3.6483 C   0  0  0  0  0  0  0  0  0  0  0  0
   -3.3413    3.1876    4.6010 O   0  0  0  0  0  0  0  0  0  0  0  0
   -2.0868    1.5545    3.6049 N   0  0  0  0  0  0  0  0  0  0  0  0
   -1.8353    0.6770    2.5514 C   0  0  0  0  0  0  0  0  0  0  0  0
   -0.5742   -0.1630    2.7209 C   0  0  0  0  0  0  0  0  0  0  0  0
    0.6529    0.7119    2.4198 C   0  0  0  0  0  0  0  0  0  0  0  0
    1.7897   -0.0997    1.8089 C   0  0  0  0  0  0  0  0  0  0  0  0
    1.3660   -0.6719    0.5052 N   0  0  0  0  0  0  0  0  0  0  0  0
    2.5027   -1.6878   -0.2663 S   0  0  0  0  0  6  0  0  0  0  0  0
    1.9850   -2.0467   -1.5689 O   0  0  0  0  0  0  0  0  0  0  0  0
    2.8987   -2.6998    0.6893 O   0  0  0  0  0  0  0  0  0  0  0  0
    3.8815   -0.6007   -0.5415 C   0  0  0  0  0  0  0  0  0  0  0  0
    5.0572   -0.7572    0.1999 C   0  0  0  0  0  0  0  0  0  0  0  0
    6.1348    0.0958   -0.0390 C   0  0  0  0  0  0  0  0  0  0  0  0
    6.0353    1.0751   -1.0354 C   0  0  0  0  0  0  0  0  0  0  0  0
    7.4127    2.1722   -1.3282 S   0  0  0  0  0  6  0  0  0  0  0  0
    8.1530    2.2642   -0.0876 O   0  0  0  0  0  0  0  0  0  0  0  0
    6.8882    3.3566   -1.9744 O   0  0  0  0  0  0  0  0  0  0  0  0
    8.3536    1.3169   -2.4569 N   0  0  0  0  0  0  0  0  0  0  0  0
    7.7991    1.1692   -3.8138 C   0  0  0  0  0  0  0  0  0  0  0  0
    9.0417    0.1057   -1.9772 C   0  0  0  0  0  0  0  0  0  0  0  0
    4.8529    1.2385   -1.7677 C   0  0  0  0  0  0  0  0  0  0  0  0
    3.7731    0.3901   -1.5247 C   0  0  0  0  0  0  0  0  0  0  0  0
   -0.0344   -1.1852    0.4665 C   0  0  0  0  0  0  0  0  0  0  0  0
   -0.5922   -1.4330    1.8629 C   0  0  0  0  0  0  0  0  0  0  0  0
   -2.5683    0.6002    1.4749 N   0  0  0  0  0  0  0  0  0  0  0  0
   -3.6232    1.4526    1.4914 C   0  0  0  0  0  0  0  0  0  0  0  0
   -6.9278   -0.1389   -0.3821 C   0  0  0  0  0  0  0  0  0  0  0  0
   -9.6112   -0.1260   -0.3242 H   0  0  0  0  0  0  0  0  0  0  0  0
   -9.3360   -1.0954    1.1447 H   0  0  0  0  0  0  0  0  0  0  0  0
   -9.8355   -1.8745   -0.3785 H   0  0  0  0  0  0  0  0  0  0  0  0
   -7.8824   -3.3983   -0.4652 H   0  0  0  0  0  0  0  0  0  0  0  0
   -5.5151   -3.6775   -1.0196 H   0  0  0  0  0  0  0  0  0  0  0  0
   -3.3467   -1.3014   -2.2183 H   0  0  0  0  0  0  0  0  0  0  0  0
   -3.3768   -2.8653   -1.3989 H   0  0  0  0  0  0  0  0  0  0  0  0
   -2.9470   -1.4281   -0.4788 H   0  0  0  0  0  0  0  0  0  0  0  0
   -5.1524    1.6907   -1.4567 H   0  0  0  0  0  0  0  0  0  0  0  0
   -3.6914    0.7805   -1.1163 H   0  0  0  0  0  0  0  0  0  0  0  0
   -1.4903    1.5780    4.4187 H   0  0  0  0  0  0  0  0  0  0  0  0
   -0.5349   -0.4761    3.7739 H   0  0  0  0  0  0  0  0  0  0  0  0
    0.3896    1.5308    1.7369 H   0  0  0  0  0  0  0  0  0  0  0  0
    0.9974    1.1864    3.3463 H   0  0  0  0  0  0  0  0  0  0  0  0
    2.1000   -0.8924    2.4997 H   0  0  0  0  0  0  0  0  0  0  0  0
    2.6415    0.5712    1.6509 H   0  0  0  0  0  0  0  0  0  0  0  0
    5.1401   -1.5305    0.9602 H   0  0  0  0  0  0  0  0  0  0  0  0
    7.0454   -0.0065    0.5496 H   0  0  0  0  0  0  0  0  0  0  0  0
    7.4307    2.1254   -4.1989 H   0  0  0  0  0  0  0  0  0  0  0  0
    6.9915    0.4319   -3.8309 H   0  0  0  0  0  0  0  0  0  0  0  0
    8.5853    0.8351   -4.5000 H   0  0  0  0  0  0  0  0  0  0  0  0
    9.4773    0.2586   -0.9856 H   0  0  0  0  0  0  0  0  0  0  0  0
    9.8718   -0.1367   -2.6515 H   0  0  0  0  0  0  0  0  0  0  0  0
    8.3593   -0.7481   -1.9473 H   0  0  0  0  0  0  0  0  0  0  0  0
    4.7678    2.0171   -2.5238 H   0  0  0  0  0  0  0  0  0  0  0  0
    2.8536    0.5011   -2.0979 H   0  0  0  0  0  0  0  0  0  0  0  0
   -0.6379   -0.4497   -0.0763 H   0  0  0  0  0  0  0  0  0  0  0  0
   -0.1004   -2.1187   -0.1021 H   0  0  0  0  0  0  0  0  0  0  0  0
   -1.6047   -1.8486    1.7941 H   0  0  0  0  0  0  0  0  0  0  0  0
    0.0197   -2.2019    2.3542 H   0  0  0  0  0  0  0  0  0  0  0  0
   -7.3414    0.8527   -0.1940 H   0  0  0  0  0  0  0  0  0  0  0  0
  1  2  1  0
  2  3  2  0
  3  4  1  0
  4  5  2  0
  5  6  1  0
  5  7  1  0
  7  8  1  0
  8  9  1  0
  9 10  1  0
 10 11  2  0
 11 12  1  0
 12 13  1  0
 13 14  2  0
 13 15  1  0
 15 16  1  0
 16 17  1  0
 17 18  1  0
 18 19  1  0
 19 20  1  0
 20 21  1  0
 21 22  2  0
 21 23  2  0
 21 24  1  0
 24 25  2  0
 25 26  1  0
 26 27  2  0
 27 28  1  0
 28 29  2  0
 28 30  2  0
 28 31  1  0
 31 32  1  0
 31 33  1  0
 27 34  1  0
 34 35  2  0
 20 36  1  0
 36 37  1  0
 16 38  2  0
 38 39  1  0
  7 40  2  0
 40  2  1  0
 39  9  1  0
 39 12  2  0
 37 17  1  0
 35 24  1  0
  1 41  1  0
  1 42  1  0
  1 43  1  0
  3 44  1  0
  4 45  1  0
  6 46  1  0
  6 47  1  0
  6 48  1  0
  8 49  1  0
  8 50  1  0
 15 51  1  0
 17 52  1  0
 18 53  1  0
 18 54  1  0
 19 55  1  0
 19 56  1  0
 25 57  1  0
 26 58  1  0
 32 59  1  0
 32 60  1  0
 32 61  1  0
 33 62  1  0
 33 63  1  0
 33 64  1  0
 34 65  1  0
 35 66  1  0
 36 67  1  0
 36 68  1  0
 37 69  1  0
 37 70  1  0
 40 71  1  0
M  END
$$$$
