
     RDKit          3D

 74 79  0  0  0  0  0  0  0  0999 V2000
    9.5760   -2.8503   -2.0597 C   0  0  0  0  0  0  0  0  0  0  0  0
    8.2943   -3.2971   -1.6321 O   0  0  0  0  0  0  0  0  0  0  0  0
    7.3213   -2.3452   -1.5077 C   0  0  0  0  0  0  0  0  0  0  0  0
    7.4573   -0.9892   -1.7873 C   0  0  0  0  0  0  0  0  0  0  0  0
    6.3666   -0.1241   -1.6193 C   0  0  0  0  0  0  0  0  0  0  0  0
    5.1123   -0.5824   -1.1719 C   0  0  0  0  0  0  0  0  0  0  0  0
    3.9795    0.3581   -1.0181 C   0  0  0  0  0  0  0  0  0  0  0  0
    2.6522   -0.0252   -1.1010 C   0  0  0  0  0  0  0  0  0  0  0  0
    1.6624    0.9490   -0.9529 C   0  0  0  0  0  0  0  0  0  0  0  0
    0.2596    0.4657   -0.9855 C   0  0  0  0  0  0  0  0  0  0  0  0
   -0.0900   -0.2625   -1.9052 O   0  0  0  0  0  0  0  0  0  0  0  0
   -0.4947    0.8583    0.0937 N   0  0  0  0  0  0  0  0  0  0  0  0
   -1.8755    0.6834    0.3138 C   0  0  0  0  0  0  0  0  0  0  0  0
   -2.7398    0.0789   -0.5977 C   0  0  0  0  0  0  0  0  0  0  0  0
   -4.1018    0.0092   -0.2945 C   0  0  0  0  0  0  0  0  0  0  0  0
   -5.2359   -0.7219   -1.4462 S   0  0  0  0  0  6  0  0  0  0  0  0
   -4.5116   -1.1589   -2.6202 O   0  0  0  0  0  0  0  0  0  0  0  0
   -6.3686    0.1738   -1.5565 O   0  0  0  0  0  0  0  0  0  0  0  0
   -5.7558   -2.1238   -0.6227 N   0  0  0  0  0  0  0  0  0  0  0  0
   -6.9199   -2.8067   -1.2863 C   0  0  0  0  0  0  0  0  0  0  0  0
   -6.4821   -4.1007   -1.9810 C   0  0  0  0  0  0  0  0  0  0  0  0
   -5.9274   -5.0654   -1.0737 O   0  0  0  0  0  0  0  0  0  0  0  0
   -5.2749   -4.4689    0.0543 C   0  0  0  0  0  0  0  0  0  0  0  0
   -4.6702   -3.0971   -0.2637 C   0  0  0  0  0  0  0  0  0  0  0  0
   -4.6064    0.5359    0.8987 C   0  0  0  0  0  0  0  0  0  0  0  0
   -3.7375    1.1339    1.8116 C   0  0  0  0  0  0  0  0  0  0  0  0
   -2.3663    1.2195    1.5340 C   0  0  0  0  0  0  0  0  0  0  0  0
   -1.4393    1.8099    2.4284 N   0  0  0  0  0  0  0  0  0  0  0  0
   -1.7818    3.1759    2.8998 C   0  0  0  0  0  0  0  0  0  0  0  0
   -2.1345    3.1919    4.3959 C   0  0  0  0  0  0  0  0  0  0  0  0
   -1.0903    2.6791    5.2374 O   0  0  0  0  0  0  0  0  0  0  0  0
   -0.3064    1.6495    4.6144 C   0  0  0  0  0  0  0  0  0  0  0  0
   -1.0694    0.8796    3.5256 C   0  0  0  0  0  0  0  0  0  0  0  0
    1.9974    2.3119   -0.7804 C   0  0  0  0  0  0  0  0  0  0  0  0
    1.0728    3.3894   -0.7180 C   0  0  0  0  0  0  0  0  0  0  0  0
    1.5030    4.7014   -0.5294 C   0  0  0  0  0  0  0  0  0  0  0  0
    2.8590    4.9623   -0.4107 C   0  0  0  0  0  0  0  0  0  0  0  0
    3.7743    3.9112   -0.4986 C   0  0  0  0  0  0  0  0  0  0  0  0
    3.3710    2.5965   -0.6929 C   0  0  0  0  0  0  0  0  0  0  0  0
    4.3212    1.6532   -0.7969 N   0  0  0  0  0  0  0  0  0  0  0  0
    5.0036   -1.9539   -0.8860 C   0  0  0  0  0  0  0  0  0  0  0  0
    6.0912   -2.8204   -1.0549 C   0  0  0  0  0  0  0  0  0  0  0  0
   10.0076   -2.1434   -1.3422 H   0  0  0  0  0  0  0  0  0  0  0  0
    9.5285   -2.4166   -3.0645 H   0  0  0  0  0  0  0  0  0  0  0  0
   10.2354   -3.7219   -2.1053 H   0  0  0  0  0  0  0  0  0  0  0  0
    8.3910   -0.5651   -2.1410 H   0  0  0  0  0  0  0  0  0  0  0  0
    6.5047    0.9321   -1.8506 H   0  0  0  0  0  0  0  0  0  0  0  0
    2.3681   -1.0553   -1.2907 H   0  0  0  0  0  0  0  0  0  0  0  0
   -0.0502    1.3798    0.8473 H   0  0  0  0  0  0  0  0  0  0  0  0
   -2.3774   -0.3175   -1.5417 H   0  0  0  0  0  0  0  0  0  0  0  0
   -7.6540   -3.0228   -0.5002 H   0  0  0  0  0  0  0  0  0  0  0  0
   -7.4100   -2.1478   -2.0099 H   0  0  0  0  0  0  0  0  0  0  0  0
   -5.7315   -3.8918   -2.7521 H   0  0  0  0  0  0  0  0  0  0  0  0
   -7.3383   -4.5706   -2.4757 H   0  0  0  0  0  0  0  0  0  0  0  0
   -6.0085   -4.3900    0.8648 H   0  0  0  0  0  0  0  0  0  0  0  0
   -4.4943   -5.1612    0.3870 H   0  0  0  0  0  0  0  0  0  0  0  0
   -4.1402   -2.7245    0.6193 H   0  0  0  0  0  0  0  0  0  0  0  0
   -3.9614   -3.1999   -1.0932 H   0  0  0  0  0  0  0  0  0  0  0  0
   -5.6718    0.4838    1.1161 H   0  0  0  0  0  0  0  0  0  0  0  0
   -4.1423    1.5287    2.7383 H   0  0  0  0  0  0  0  0  0  0  0  0
   -2.5849    3.6318    2.3082 H   0  0  0  0  0  0  0  0  0  0  0  0
   -0.8862    3.7920    2.7449 H   0  0  0  0  0  0  0  0  0  0  0  0
   -2.3400    4.2165    4.7210 H   0  0  0  0  0  0  0  0  0  0  0  0
   -3.0371    2.6021    4.5915 H   0  0  0  0  0  0  0  0  0  0  0  0
    0.5862    2.1237    4.1917 H   0  0  0  0  0  0  0  0  0  0  0  0
    0.0247    0.9659    5.4009 H   0  0  0  0  0  0  0  0  0  0  0  0
   -1.9651    0.4253    3.9698 H   0  0  0  0  0  0  0  0  0  0  0  0
   -0.4334    0.0800    3.1290 H   0  0  0  0  0  0  0  0  0  0  0  0
    0.0044    3.2187   -0.8387 H   0  0  0  0  0  0  0  0  0  0  0  0
    0.7812    5.5136   -0.4860 H   0  0  0  0  0  0  0  0  0  0  0  0
    3.2123    5.9792   -0.2659 H   0  0  0  0  0  0  0  0  0  0  0  0
    4.8384    4.1257   -0.4217 H   0  0  0  0  0  0  0  0  0  0  0  0
    4.0743   -2.3767   -0.5134 H   0  0  0  0  0  0  0  0  0  0  0  0
    5.9748   -3.8775   -0.8268 H   0  0  0  0  0  0  0  0  0  0  0  0
  1  2  1  0
  2  3  1  0
  3  4  2  0
  4  5  1  0
  5  6  2  0
  6  7  1  0
  7  8  2  0
  8  9  1  0
  9 10  1  0
 10 11  2  0
 10 12  1  0
 12 13  1  0
 13 14  2  0
 14 15  1  0
 15 16  1  0
 16 17  2  0
 16 18  2  0
 16 19  1  0
 19 20  1  0
 20 21  1  0
 21 22  1  0
 22 23  1  0
 23 24  1  0
 15 25  2  0
 25 26  1  0
 26 27  2  0
 27 28  1  0
 28 29  1  0
 29 30  1  0
 30 31  1  0
 31 32  1  0
 32 33  1  0
  9 34  2  0
 34 35  1  0
 35 36  2  0
 36 37  1  0
 37 38  2  0
 38 39  1  0
 39 40  2  0
  6 41  1  0
 41 42  2  0
 42  3  1  0
 40  7  1  0
 27 13  1  0
 33 28  1  0
 39 34  1  0
 24 19  1  0
  1 43  1  0
  1 44  1  0
  1 45  1  0
  4 46  1  0
  5 47  1  0
  8 48  1  0
 12 49  1  0
 14 50  1  0
 20 51  1  0
 20 52  1  0
 21 53  1  0
 21 54  1  0
 23 55  1  0
 23 56  1  0
 24 57  1  0
 24 58  1  0
 25 59  1  0
 26 60  1  0
 29 61  1  0
 29 62  1  0
 30 63  1  0
 30 64  1  0
 32 65  1  0
 32 66  1  0
 33 67  1  0
 33 68  1  0
 35 69  1  0
 36 70  1  0
 37 71  1  0
 38 72  1  0
 41 73  1  0
 42 74  1  0
M  END
$$$$
