
     RDKit          3D

 40 41  0  0  0  0  0  0  0  0999 V2000
    7.5657   -1.2995    0.9082 C   0  0  0  0  0  0  0  0  0  0  0  0
    6.9109   -0.3010    0.1358 O   0  0  0  0  0  0  0  0  0  0  0  0
    5.5557   -0.1965    0.2803 C   0  0  0  0  0  0  0  0  0  0  0  0
    4.9646    0.8196   -0.4718 C   0  0  0  0  0  0  0  0  0  0  0  0
    3.5845    1.0376   -0.4189 C   0  0  0  0  0  0  0  0  0  0  0  0
    2.7711    0.2455    0.3984 C   0  0  0  0  0  0  0  0  0  0  0  0
    1.3206    0.4827    0.4006 C   0  0  0  0  0  0  0  0  0  0  0  0
    0.5419    0.3256    1.4830 C   0  0  0  0  0  0  0  0  0  0  0  0
   -0.9179    0.6120    1.4889 C   0  0  0  0  0  0  0  0  0  0  0  0
   -1.4115    1.1187    2.4873 O   0  0  0  0  0  0  0  0  0  0  0  0
   -1.5773    0.1895    0.3528 N   0  0  0  0  0  0  0  0  0  0  0  0
   -2.9182    0.3146    0.0290 C   0  0  0  0  0  0  0  0  0  0  0  0
   -3.7762    0.9861    0.8051 C   0  0  0  0  0  0  0  0  0  0  0  0
   -5.1905    1.1169    0.4401 C   0  0  0  0  0  0  0  0  0  0  0  0
   -5.9275    1.8005    1.1464 O   0  0  0  0  0  0  0  0  0  0  0  0
   -5.5870    0.4527   -0.6954 N   0  0  0  0  0  0  0  0  0  0  0  0
   -6.9791    0.5406   -1.0936 C   0  0  0  0  0  0  0  0  0  0  0  0
   -4.7160   -0.2003   -1.5523 C   0  0  0  0  0  0  0  0  0  0  0  0
   -5.1088   -0.6922   -2.6131 O   0  0  0  0  0  0  0  0  0  0  0  0
   -3.3763   -0.2634   -1.1524 N   0  0  0  0  0  0  0  0  0  0  0  0
   -2.4659   -0.9749   -2.0454 C   0  0  0  0  0  0  0  0  0  0  0  0
    3.3666   -0.7833    1.1393 C   0  0  0  0  0  0  0  0  0  0  0  0
    4.7502   -1.0002    1.0850 C   0  0  0  0  0  0  0  0  0  0  0  0
    8.6369   -1.2394    0.6932 H   0  0  0  0  0  0  0  0  0  0  0  0
    7.2252   -2.3014    0.6268 H   0  0  0  0  0  0  0  0  0  0  0  0
    7.4305   -1.1219    1.9803 H   0  0  0  0  0  0  0  0  0  0  0  0
    5.5849    1.4499   -1.1049 H   0  0  0  0  0  0  0  0  0  0  0  0
    3.1600    1.8415   -1.0163 H   0  0  0  0  0  0  0  0  0  0  0  0
    0.9088    0.8495   -0.5365 H   0  0  0  0  0  0  0  0  0  0  0  0
    0.9443    0.0660    2.4569 H   0  0  0  0  0  0  0  0  0  0  0  0
   -1.0091   -0.3250   -0.3012 H   0  0  0  0  0  0  0  0  0  0  0  0
   -3.5110    1.4840    1.7278 H   0  0  0  0  0  0  0  0  0  0  0  0
   -7.3226   -0.4272   -1.4728 H   0  0  0  0  0  0  0  0  0  0  0  0
   -7.6233    0.8411   -0.2627 H   0  0  0  0  0  0  0  0  0  0  0  0
   -7.0628    1.2801   -1.8965 H   0  0  0  0  0  0  0  0  0  0  0  0
   -1.6808   -0.2892   -2.3807 H   0  0  0  0  0  0  0  0  0  0  0  0
   -2.9636   -1.3688   -2.9355 H   0  0  0  0  0  0  0  0  0  0  0  0
   -2.0258   -1.8227   -1.5101 H   0  0  0  0  0  0  0  0  0  0  0  0
    2.7659   -1.4395    1.7647 H   0  0  0  0  0  0  0  0  0  0  0  0
    5.1625   -1.8080    1.6806 H   0  0  0  0  0  0  0  0  0  0  0  0
  1  2  1  0
  2  3  1  0
  3  4  2  0
  4  5  1  0
  5  6  2  0
  6  7  1  0
  7  8  2  3
  8  9  1  0
  9 10  2  0
  9 11  1  0
 11 12  1  0
 12 13  2  0
 13 14  1  0
 14 15  2  0
 14 16  1  0
 16 17  1  0
 16 18  1  0
 18 19  2  0
 18 20  1  0
 20 21  1  0
  6 22  1  0
 22 23  2  0
 23  3  1  0
 20 12  1  0
  1 24  1  0
  1 25  1  0
  1 26  1  0
  4 27  1  0
  5 28  1  0
  7 29  1  0
  8 30  1  0
 11 31  1  0
 13 32  1  0
 17 33  1  0
 17 34  1  0
 17 35  1  0
 21 36  1  0
 21 37  1  0
 21 38  1  0
 22 39  1  0
 23 40  1  0
M  END
$$$$
