
     RDKit          3D

 64 69  0  0  0  0  0  0  0  0999 V2000
    6.2164   -1.8078    1.7412 F   0  0  0  0  0  0  0  0  0  0  0  0
    7.1400   -0.8511    1.4391 C   0  0  0  0  0  0  0  0  0  0  0  0
    7.2550   -0.0787    2.5560 F   0  0  0  0  0  0  0  0  0  0  0  0
    8.3265   -1.5151    1.3295 F   0  0  0  0  0  0  0  0  0  0  0  0
    6.7776   -0.0454    0.2110 C   0  0  0  0  0  0  0  0  0  0  0  0
    7.7374    0.1078   -0.8094 C   0  0  0  0  0  0  0  0  0  0  0  0
    7.4553    0.8443   -1.9594 C   0  0  0  0  0  0  0  0  0  0  0  0
    6.2097    1.4413   -2.1095 C   0  0  0  0  0  0  0  0  0  0  0  0
    5.2485    1.3075   -1.1087 C   0  0  0  0  0  0  0  0  0  0  0  0
    5.5146    0.5742    0.0613 C   0  0  0  0  0  0  0  0  0  0  0  0
    4.4208    0.4684    1.1083 C   0  0  0  0  0  0  0  0  0  0  0  0
    3.3994   -0.6556    0.8320 C   0  0  0  0  0  0  0  0  0  0  0  0
    2.4865   -0.3770   -0.2921 N   0  0  0  0  0  0  0  0  0  0  0  0
    1.4340    0.6139    0.0374 C   0  0  0  0  0  0  0  0  0  0  0  0
    0.3150    0.1078    0.9810 C   0  0  0  0  0  0  0  0  0  0  0  0
   -0.2980   -1.1312    0.4632 N   0  0  0  0  0  0  0  0  0  0  0  0
   -1.3957   -1.0192   -0.3906 C   0  0  0  0  0  0  0  0  0  0  0  0
   -1.3204   -1.5104   -1.6015 N   0  0  0  0  0  0  0  0  0  0  0  0
   -2.3990   -1.3805   -2.4982 C   0  0  0  0  0  0  0  0  0  0  0  0
   -2.2584   -1.9053   -3.7842 C   0  0  0  0  0  0  0  0  0  0  0  0
   -3.2931   -1.7948   -4.7170 C   0  0  0  0  0  0  0  0  0  0  0  0
   -4.4835   -1.1548   -4.3699 C   0  0  0  0  0  0  0  0  0  0  0  0
   -4.6463   -0.6225   -3.0903 C   0  0  0  0  0  0  0  0  0  0  0  0
   -3.6020   -0.7399   -2.1683 C   0  0  0  0  0  0  0  0  0  0  0  0
   -3.6844   -0.2441   -0.8571 N   0  0  0  0  0  0  0  0  0  0  0  0
   -4.7224    0.4031   -0.2292 C   0  0  0  0  0  0  0  0  0  0  0  0
   -4.3632    0.6391    1.0855 C   0  0  0  0  0  0  0  0  0  0  0  0
   -5.2311    1.2734    2.0673 C   0  0  0  0  0  0  0  0  0  0  0  0
   -5.1950    0.8621    3.4066 C   0  0  0  0  0  0  0  0  0  0  0  0
   -6.0189    1.4676    4.3593 C   0  0  0  0  0  0  0  0  0  0  0  0
   -6.8842    2.4926    3.9834 C   0  0  0  0  0  0  0  0  0  0  0  0
   -6.9269    2.9134    2.6559 C   0  0  0  0  0  0  0  0  0  0  0  0
   -6.1043    2.3074    1.7023 C   0  0  0  0  0  0  0  0  0  0  0  0
   -3.0525    0.1123    1.2446 C   0  0  0  0  0  0  0  0  0  0  0  0
   -2.6372   -0.3856    0.0228 C   0  0  0  0  0  0  0  0  0  0  0  0
    0.7208   -2.1606    0.1687 C   0  0  0  0  0  0  0  0  0  0  0  0
    1.8210   -1.6163   -0.7699 C   0  0  0  0  0  0  0  0  0  0  0  0
    8.7195   -0.3540   -0.7125 H   0  0  0  0  0  0  0  0  0  0  0  0
    8.2059    0.9478   -2.7388 H   0  0  0  0  0  0  0  0  0  0  0  0
    5.9807    2.0087   -3.0079 H   0  0  0  0  0  0  0  0  0  0  0  0
    4.2739    1.7722   -1.2507 H   0  0  0  0  0  0  0  0  0  0  0  0
    3.9255    1.4414    1.2098 H   0  0  0  0  0  0  0  0  0  0  0  0
    4.8696    0.2942    2.0928 H   0  0  0  0  0  0  0  0  0  0  0  0
    2.8384   -0.8527    1.7525 H   0  0  0  0  0  0  0  0  0  0  0  0
    3.9665   -1.5707    0.6180 H   0  0  0  0  0  0  0  0  0  0  0  0
    1.8756    1.5238    0.4567 H   0  0  0  0  0  0  0  0  0  0  0  0
    0.9720    0.9284   -0.9082 H   0  0  0  0  0  0  0  0  0  0  0  0
   -0.4233    0.9068    1.1008 H   0  0  0  0  0  0  0  0  0  0  0  0
    0.7189   -0.0898    1.9803 H   0  0  0  0  0  0  0  0  0  0  0  0
   -1.3317   -2.4024   -4.0583 H   0  0  0  0  0  0  0  0  0  0  0  0
   -3.1676   -2.2090   -5.7141 H   0  0  0  0  0  0  0  0  0  0  0  0
   -5.2860   -1.0725   -5.0989 H   0  0  0  0  0  0  0  0  0  0  0  0
   -5.5819   -0.1326   -2.8431 H   0  0  0  0  0  0  0  0  0  0  0  0
   -5.6437    0.6208   -0.7496 H   0  0  0  0  0  0  0  0  0  0  0  0
   -4.5358    0.0563    3.7198 H   0  0  0  0  0  0  0  0  0  0  0  0
   -5.9858    1.1356    5.3937 H   0  0  0  0  0  0  0  0  0  0  0  0
   -7.5249    2.9634    4.7245 H   0  0  0  0  0  0  0  0  0  0  0  0
   -7.5981    3.7156    2.3611 H   0  0  0  0  0  0  0  0  0  0  0  0
   -6.1445    2.6618    0.6755 H   0  0  0  0  0  0  0  0  0  0  0  0
   -2.4658    0.1050    2.1536 H   0  0  0  0  0  0  0  0  0  0  0  0
    0.2593   -3.0543   -0.2684 H   0  0  0  0  0  0  0  0  0  0  0  0
    1.1679   -2.4866    1.1157 H   0  0  0  0  0  0  0  0  0  0  0  0
    1.3852   -1.3995   -1.7532 H   0  0  0  0  0  0  0  0  0  0  0  0
    2.5684   -2.3983   -0.9516 H   0  0  0  0  0  0  0  0  0  0  0  0
  1  2  1  0
  2  3  1  0
  2  4  1  0
  2  5  1  0
  5  6  2  0
  6  7  1  0
  7  8  2  0
  8  9  1  0
  9 10  2  0
 10 11  1  0
 11 12  1  0
 12 13  1  0
 13 14  1  0
 14 15  1  0
 15 16  1  0
 16 17  1  0
 17 18  2  0
 18 19  1  0
 19 20  2  0
 20 21  1  0
 21 22  2  0
 22 23  1  0
 23 24  2  0
 24 25  1  0
 25 26  1  0
 26 27  2  0
 27 28  1  0
 28 29  2  0
 29 30  1  0
 30 31  2  0
 31 32  1  0
 32 33  2  0
 27 34  1  0
 34 35  2  0
 16 36  1  0
 36 37  1  0
 10  5  1  0
 37 13  1  0
 35 17  1  0
 24 19  1  0
 35 25  1  0
 33 28  1  0
  6 38  1  0
  7 39  1  0
  8 40  1  0
  9 41  1  0
 11 42  1  0
 11 43  1  0
 12 44  1  0
 12 45  1  0
 14 46  1  0
 14 47  1  0
 15 48  1  0
 15 49  1  0
 20 50  1  0
 21 51  1  0
 22 52  1  0
 23 53  1  0
 26 54  1  0
 29 55  1  0
 30 56  1  0
 31 57  1  0
 32 58  1  0
 33 59  1  0
 34 60  1  0
 36 61  1  0
 36 62  1  0
 37 63  1  0
 37 64  1  0
M  END
$$$$
