
     RDKit          3D

 40 44  0  0  0  0  0  0  0  0999 V2000
   -9.0183    0.0963    0.4414 O   0  0  0  0  0  0  0  0  0  0  0  0
   -8.0357   -0.0442    1.1409 C   0  0  0  0  0  0  0  0  0  0  0  0
   -8.1214    0.0495    2.4821 O   0  0  0  0  0  0  0  0  0  0  0  0
   -6.6475   -0.3257    0.7075 C   0  0  0  0  0  0  0  0  0  0  0  0
   -5.5833    0.2202    1.4404 C   0  0  0  0  0  0  0  0  0  0  0  0
   -4.2600    0.0002    1.0432 C   0  0  0  0  0  0  0  0  0  0  0  0
   -3.9659   -0.7671   -0.0921 C   0  0  0  0  0  0  0  0  0  0  0  0
   -2.5865   -1.0004   -0.5141 C   0  0  0  0  0  0  0  0  0  0  0  0
   -1.9946   -1.6833   -1.5516 C   0  0  0  0  0  0  0  0  0  0  0  0
   -0.5956   -1.5263   -1.3892 C   0  0  0  0  0  0  0  0  0  0  0  0
   -0.3752   -0.7374   -0.2669 C   0  0  0  0  0  0  0  0  0  0  0  0
    0.8086   -0.2750    0.3725 C   0  0  0  0  0  0  0  0  0  0  0  0
    1.9960   -0.0394   -0.2012 C   0  0  0  0  0  0  0  0  0  0  0  0
    2.4685   -0.1880   -1.8745 S   0  0  0  0  0  0  0  0  0  0  0  0
    4.0487    0.3666   -1.4836 C   0  0  0  0  0  0  0  0  0  0  0  0
    5.1215    0.5652   -2.1965 N   0  0  0  0  0  0  0  0  0  0  0  0
    6.0411    1.0158   -1.2687 C   0  0  0  0  0  0  0  0  0  0  0  0
    7.3793    1.3926   -1.4552 C   0  0  0  0  0  0  0  0  0  0  0  0
    8.1206    1.8211   -0.3464 C   0  0  0  0  0  0  0  0  0  0  0  0
    7.5446    1.8748    0.9253 C   0  0  0  0  0  0  0  0  0  0  0  0
    6.2122    1.5045    1.1379 C   0  0  0  0  0  0  0  0  0  0  0  0
    5.4904    1.0801    0.0179 C   0  0  0  0  0  0  0  0  0  0  0  0
    4.2021    0.6507   -0.1682 N   0  0  0  0  0  0  0  0  0  0  0  0
    3.1140    0.4633    0.6539 C   0  0  0  0  0  0  0  0  0  0  0  0
    3.1420    0.6874    1.8497 O   0  0  0  0  0  0  0  0  0  0  0  0
   -1.6144   -0.4437    0.2621 O   0  0  0  0  0  0  0  0  0  0  0  0
   -5.0364   -1.3112   -0.8171 C   0  0  0  0  0  0  0  0  0  0  0  0
   -6.3674   -1.0960   -0.4254 C   0  0  0  0  0  0  0  0  0  0  0  0
   -7.5894   -1.8634   -1.3770 Cl  0  0  0  0  0  0  0  0  0  0  0  0
   -9.0748    0.2151    2.6431 H   0  0  0  0  0  0  0  0  0  0  0  0
   -5.7741    0.8277    2.3232 H   0  0  0  0  0  0  0  0  0  0  0  0
   -3.4582    0.4404    1.6344 H   0  0  0  0  0  0  0  0  0  0  0  0
   -2.4973   -2.2382   -2.3310 H   0  0  0  0  0  0  0  0  0  0  0  0
    0.1617   -1.9616   -2.0259 H   0  0  0  0  0  0  0  0  0  0  0  0
    0.6943   -0.0649    1.4357 H   0  0  0  0  0  0  0  0  0  0  0  0
    7.8248    1.3503   -2.4434 H   0  0  0  0  0  0  0  0  0  0  0  0
    9.1593    2.1158   -0.4801 H   0  0  0  0  0  0  0  0  0  0  0  0
    8.1441    2.2119    1.7694 H   0  0  0  0  0  0  0  0  0  0  0  0
    5.7651    1.5467    2.1270 H   0  0  0  0  0  0  0  0  0  0  0  0
   -4.8431   -1.9178   -1.6995 H   0  0  0  0  0  0  0  0  0  0  0  0
  1  2  2  0
  2  3  1  0
  2  4  1  0
  4  5  2  0
  5  6  1  0
  6  7  2  0
  7  8  1  0
  8  9  2  0
  9 10  1  0
 10 11  2  0
 11 12  1  0
 12 13  2  3
 13 14  1  0
 14 15  1  0
 15 16  2  0
 16 17  1  0
 17 18  2  0
 18 19  1  0
 19 20  2  0
 20 21  1  0
 21 22  2  0
 22 23  1  0
 23 24  1  0
 24 25  2  0
 11 26  1  0
  7 27  1  0
 27 28  2  0
 28 29  1  0
 28  4  1  0
 26  8  1  0
 24 13  1  0
 23 15  1  0
 22 17  1  0
  3 30  1  0
  5 31  1  0
  6 32  1  0
  9 33  1  0
 10 34  1  0
 12 35  1  0
 18 36  1  0
 19 37  1  0
 20 38  1  0
 21 39  1  0
 27 40  1  0
M  END
$$$$
