
     RDKit          3D

 55 60  0  0  0  0  0  0  0  0999 V2000
    4.7519   -0.9938    0.2607 O   0  0  0  0  0  0  0  0  0  0  0  0
    4.0438   -0.1377    0.7890 C   0  0  0  0  0  0  0  0  0  0  0  0
    4.5433    1.2243    0.9223 C   0  0  0  0  0  0  0  0  0  0  0  0
    5.4613    1.8876    0.0522 C   0  0  0  0  0  0  0  0  0  0  0  0
    5.6786    3.1368    0.5817 C   0  0  0  0  0  0  0  0  0  0  0  0
    4.9806    3.2860    1.7354 O   0  0  0  0  0  0  0  0  0  0  0  0
    4.3185    2.1195    1.9493 C   0  0  0  0  0  0  0  0  0  0  0  0
    2.7573   -0.4356    1.2548 N   0  0  0  0  0  0  0  0  0  0  0  0
    2.3137   -1.8193    1.2180 C   0  0  0  0  0  0  0  0  0  0  0  0
    1.3733   -2.0454    0.0361 C   0  0  0  0  0  0  0  0  0  0  0  0
    0.2686   -0.9403   -0.0994 C   0  0  0  0  0  0  0  0  0  0  0  0
    0.3027   -0.0291    1.1573 C   0  0  0  0  0  0  0  0  0  0  0  0
    1.6987    0.5600    1.3934 C   0  0  0  0  0  0  0  0  0  0  0  0
    0.6008   -0.0544   -1.2029 O   0  0  0  0  0  0  0  0  0  0  0  0
    0.4182   -0.5661   -2.4577 C   0  0  0  0  0  0  0  0  0  0  0  0
    1.0755    0.0970   -3.4933 C   0  0  0  0  0  0  0  0  0  0  0  0
    0.9634   -0.3723   -4.8042 C   0  0  0  0  0  0  0  0  0  0  0  0
    0.1900   -1.5017   -5.0754 C   0  0  0  0  0  0  0  0  0  0  0  0
    0.0558   -2.0736   -6.6915 Cl  0  0  0  0  0  0  0  0  0  0  0  0
   -0.4810   -2.1624   -4.0494 C   0  0  0  0  0  0  0  0  0  0  0  0
   -0.3696   -1.6817   -2.7410 C   0  0  0  0  0  0  0  0  0  0  0  0
   -1.1093   -2.3295   -1.6411 C   0  0  0  0  0  0  0  0  0  0  0  0
   -1.6872   -3.3927   -1.8384 O   0  0  0  0  0  0  0  0  0  0  0  0
   -1.1412   -1.5549   -0.3281 C   0  0  0  0  0  0  0  0  0  0  0  0
   -2.3010   -0.5680   -0.4062 C   0  0  0  0  0  0  0  0  0  0  0  0
   -2.8842   -0.7741    0.9480 C   0  0  0  0  0  0  0  0  0  0  0  0
   -3.9179    0.1289    1.5058 C   0  0  0  0  0  0  0  0  0  0  0  0
   -4.4734    1.1644    0.7447 C   0  0  0  0  0  0  0  0  0  0  0  0
   -5.4428    2.0028    1.3058 C   0  0  0  0  0  0  0  0  0  0  0  0
   -5.8575    1.8057    2.6223 C   0  0  0  0  0  0  0  0  0  0  0  0
   -7.0476    2.8413    3.3069 Cl  0  0  0  0  0  0  0  0  0  0  0  0
   -5.3139    0.7748    3.3847 C   0  0  0  0  0  0  0  0  0  0  0  0
   -4.3453   -0.0641    2.8267 C   0  0  0  0  0  0  0  0  0  0  0  0
   -2.4160   -1.7949    1.5904 N   0  0  0  0  0  0  0  0  0  0  0  0
   -1.4773   -2.4352    0.7497 O   0  0  0  0  0  0  0  0  0  0  0  0
    5.9046    1.4862   -0.8493 H   0  0  0  0  0  0  0  0  0  0  0  0
    6.2803    3.9845    0.2834 H   0  0  0  0  0  0  0  0  0  0  0  0
    3.7516    2.0796    2.8688 H   0  0  0  0  0  0  0  0  0  0  0  0
    1.8076   -2.0361    2.1665 H   0  0  0  0  0  0  0  0  0  0  0  0
    3.1636   -2.5077    1.1570 H   0  0  0  0  0  0  0  0  0  0  0  0
    0.9296   -3.0403    0.1586 H   0  0  0  0  0  0  0  0  0  0  0  0
    1.9821   -2.0862   -0.8756 H   0  0  0  0  0  0  0  0  0  0  0  0
   -0.3923    0.8123    1.0577 H   0  0  0  0  0  0  0  0  0  0  0  0
   -0.0014   -0.5940    2.0463 H   0  0  0  0  0  0  0  0  0  0  0  0
    1.8750    1.3807    0.6897 H   0  0  0  0  0  0  0  0  0  0  0  0
    1.7455    0.9638    2.4101 H   0  0  0  0  0  0  0  0  0  0  0  0
    1.6892    0.9697   -3.2812 H   0  0  0  0  0  0  0  0  0  0  0  0
    1.4857    0.1426   -5.6073 H   0  0  0  0  0  0  0  0  0  0  0  0
   -1.0910   -3.0374   -4.2644 H   0  0  0  0  0  0  0  0  0  0  0  0
   -3.0530   -0.8454   -1.1537 H   0  0  0  0  0  0  0  0  0  0  0  0
   -1.9875    0.4640   -0.5784 H   0  0  0  0  0  0  0  0  0  0  0  0
   -4.1783    1.3367   -0.2861 H   0  0  0  0  0  0  0  0  0  0  0  0
   -5.8730    2.8049    0.7109 H   0  0  0  0  0  0  0  0  0  0  0  0
   -5.6386    0.6154    4.4098 H   0  0  0  0  0  0  0  0  0  0  0  0
   -3.9303   -0.8694    3.4306 H   0  0  0  0  0  0  0  0  0  0  0  0
  1  2  2  0
  2  3  1  0
  3  4  1  0
  4  5  2  0
  5  6  1  0
  6  7  1  0
  2  8  1  0
  8  9  1  0
  9 10  1  0
 10 11  1  0
 11 12  1  0
 12 13  1  0
 11 14  1  0
 14 15  1  0
 15 16  2  0
 16 17  1  0
 17 18  2  0
 18 19  1  0
 18 20  1  0
 20 21  2  0
 21 22  1  0
 22 23  2  0
 22 24  1  0
 24 25  1  0
 25 26  1  0
 26 27  1  0
 27 28  2  0
 28 29  1  0
 29 30  2  0
 30 31  1  0
 30 32  1  0
 32 33  2  0
 26 34  2  0
 34 35  1  0
  7  3  2  0
 13  8  1  0
 21 15  1  0
 35 24  1  0
 24 11  1  0
 33 27  1  0
  4 36  1  0
  5 37  1  0
  7 38  1  0
  9 39  1  0
  9 40  1  0
 10 41  1  0
 10 42  1  0
 12 43  1  0
 12 44  1  0
 13 45  1  0
 13 46  1  0
 16 47  1  0
 17 48  1  0
 20 49  1  0
 25 50  1  0
 25 51  1  0
 28 52  1  0
 29 53  1  0
 32 54  1  0
 33 55  1  0
M  END
$$$$
