
     RDKit          3D

 54 56  0  0  0  0  0  0  0  0999 V2000
    8.7856   -2.3280    0.4632 C   0  0  0  0  0  0  0  0  0  0  0  0
    8.4175   -0.9899    0.7828 O   0  0  0  0  0  0  0  0  0  0  0  0
    7.3171   -0.4861    0.1444 C   0  0  0  0  0  0  0  0  0  0  0  0
    7.0931    0.8787    0.3461 C   0  0  0  0  0  0  0  0  0  0  0  0
    6.0107    1.5227   -0.2582 C   0  0  0  0  0  0  0  0  0  0  0  0
    5.1284    0.8046   -1.0711 C   0  0  0  0  0  0  0  0  0  0  0  0
    3.9715    1.4981   -1.7461 C   0  0  0  0  0  0  0  0  0  0  0  0
    2.6102    1.1988   -1.1072 C   0  0  0  0  0  0  0  0  0  0  0  0
    2.4816    1.7722    0.3063 C   0  0  0  0  0  0  0  0  0  0  0  0
    1.0743    1.7353    0.7762 C   0  0  0  0  0  0  0  0  0  0  0  0
   -0.0006    2.2683    0.2328 N   0  0  0  0  0  0  0  0  0  0  0  0
   -1.0510    1.9645    1.0706 N   0  0  0  0  0  0  0  0  0  0  0  0
   -0.5435    1.2907    2.0832 C   0  0  0  0  0  0  0  0  0  0  0  0
   -1.4742    0.7055    3.4236 S   0  0  0  0  0  0  0  0  0  0  0  0
   -3.0255    1.6207    3.1797 C   0  0  0  0  0  0  0  0  0  0  0  0
   -4.0676    0.7833    2.4561 C   0  0  0  0  0  0  0  0  0  0  0  0
   -5.0994    0.4551    3.0420 O   0  0  0  0  0  0  0  0  0  0  0  0
   -3.7551    0.4859    1.1393 N   0  0  0  0  0  0  0  0  0  0  0  0
   -4.5610   -0.1993    0.1963 C   0  0  0  0  0  0  0  0  0  0  0  0
   -5.9310   -0.4176    0.3908 C   0  0  0  0  0  0  0  0  0  0  0  0
   -6.7248   -1.0703   -0.5768 C   0  0  0  0  0  0  0  0  0  0  0  0
   -8.2016   -1.2274   -0.3222 C   0  0  0  0  0  0  0  0  0  0  0  0
   -6.1287   -1.5324   -1.7648 C   0  0  0  0  0  0  0  0  0  0  0  0
   -6.9340   -2.2327   -2.8271 C   0  0  0  0  0  0  0  0  0  0  0  0
   -4.7563   -1.3076   -1.9695 C   0  0  0  0  0  0  0  0  0  0  0  0
   -3.9848   -0.6456   -1.0041 C   0  0  0  0  0  0  0  0  0  0  0  0
   -2.1278   -0.4157   -1.3707 Br  0  0  0  0  0  0  0  0  0  0  0  0
    0.8086    1.0962    1.9563 O   0  0  0  0  0  0  0  0  0  0  0  0
    5.3451   -0.5690   -1.2568 C   0  0  0  0  0  0  0  0  0  0  0  0
    6.4338   -1.2085   -0.6550 C   0  0  0  0  0  0  0  0  0  0  0  0
    9.7130   -2.5570    0.9942 H   0  0  0  0  0  0  0  0  0  0  0  0
    8.0238   -3.0402    0.8010 H   0  0  0  0  0  0  0  0  0  0  0  0
    8.9843   -2.4368   -0.6079 H   0  0  0  0  0  0  0  0  0  0  0  0
    7.7786    1.4489    0.9675 H   0  0  0  0  0  0  0  0  0  0  0  0
    5.8731    2.5912   -0.0949 H   0  0  0  0  0  0  0  0  0  0  0  0
    4.1381    2.5827   -1.7663 H   0  0  0  0  0  0  0  0  0  0  0  0
    3.9532    1.1838   -2.7989 H   0  0  0  0  0  0  0  0  0  0  0  0
    2.4189    0.1182   -1.0876 H   0  0  0  0  0  0  0  0  0  0  0  0
    1.8351    1.6348   -1.7498 H   0  0  0  0  0  0  0  0  0  0  0  0
    3.1219    1.2150    0.9990 H   0  0  0  0  0  0  0  0  0  0  0  0
    2.8203    2.8150    0.3195 H   0  0  0  0  0  0  0  0  0  0  0  0
   -2.8887    2.5724    2.6570 H   0  0  0  0  0  0  0  0  0  0  0  0
   -3.4245    1.8652    4.1695 H   0  0  0  0  0  0  0  0  0  0  0  0
   -2.8173    0.7175    0.8146 H   0  0  0  0  0  0  0  0  0  0  0  0
   -6.4251   -0.0563    1.2894 H   0  0  0  0  0  0  0  0  0  0  0  0
   -8.4854   -2.2828   -0.3195 H   0  0  0  0  0  0  0  0  0  0  0  0
   -8.4869   -0.8087    0.6471 H   0  0  0  0  0  0  0  0  0  0  0  0
   -8.7717   -0.6926   -1.0917 H   0  0  0  0  0  0  0  0  0  0  0  0
   -7.6529   -1.5383   -3.2769 H   0  0  0  0  0  0  0  0  0  0  0  0
   -7.4712   -3.0874   -2.4019 H   0  0  0  0  0  0  0  0  0  0  0  0
   -6.2968   -2.6234   -3.6273 H   0  0  0  0  0  0  0  0  0  0  0  0
   -4.2860   -1.6495   -2.8897 H   0  0  0  0  0  0  0  0  0  0  0  0
    4.6722   -1.1513   -1.8830 H   0  0  0  0  0  0  0  0  0  0  0  0
    6.5634   -2.2712   -0.8335 H   0  0  0  0  0  0  0  0  0  0  0  0
  1  2  1  0
  2  3  1  0
  3  4  2  0
  4  5  1  0
  5  6  2  0
  6  7  1  0
  7  8  1  0
  8  9  1  0
  9 10  1  0
 10 11  2  0
 11 12  1  0
 12 13  2  0
 13 14  1  0
 14 15  1  0
 15 16  1  0
 16 17  2  0
 16 18  1  0
 18 19  1  0
 19 20  2  0
 20 21  1  0
 21 22  1  0
 21 23  2  0
 23 24  1  0
 23 25  1  0
 25 26  2  0
 26 27  1  0
 13 28  1  0
  6 29  1  0
 29 30  2  0
 30  3  1  0
 28 10  1  0
 26 19  1  0
  1 31  1  0
  1 32  1  0
  1 33  1  0
  4 34  1  0
  5 35  1  0
  7 36  1  0
  7 37  1  0
  8 38  1  0
  8 39  1  0
  9 40  1  0
  9 41  1  0
 15 42  1  0
 15 43  1  0
 18 44  1  0
 20 45  1  0
 22 46  1  0
 22 47  1  0
 22 48  1  0
 24 49  1  0
 24 50  1  0
 24 51  1  0
 25 52  1  0
 29 53  1  0
 30 54  1  0
M  END
$$$$
