
     RDKit          3D

 50 53  0  0  0  0  0  0  0  0999 V2000
    7.3214   -1.7923    1.3656 C   0  0  0  0  0  0  0  0  0  0  0  0
    6.0387   -1.0955    1.0194 C   0  0  0  0  0  0  0  0  0  0  0  0
    4.9182   -1.8260    0.6286 C   0  0  0  0  0  0  0  0  0  0  0  0
    3.7314   -1.1753    0.2757 C   0  0  0  0  0  0  0  0  0  0  0  0
    3.6396    0.2206    0.2934 C   0  0  0  0  0  0  0  0  0  0  0  0
    2.4507    0.9126   -0.0543 N   0  0  0  0  0  0  0  0  0  0  0  0
    1.2448    0.3686   -0.4705 C   0  0  0  0  0  0  0  0  0  0  0  0
    0.9963   -0.8226   -0.6412 O   0  0  0  0  0  0  0  0  0  0  0  0
    0.1709    1.4302   -0.7538 C   0  0  0  0  0  0  0  0  0  0  0  0
   -1.1853    0.8687   -0.6774 N   0  0  0  0  0  4  0  0  0  0  0  0
   -2.1358    1.0980    0.3164 C   0  0  0  0  0  0  0  0  0  0  0  0
   -3.2668    0.3356    0.0472 C   0  0  0  0  0  0  0  0  0  0  0  0
   -4.5735    0.2676    0.9173 C   0  0  0  0  0  0  0  0  0  0  0  0
   -5.6144   -0.5976    0.5752 C   0  0  0  0  0  0  0  0  0  0  0  0
   -6.7716   -0.6484    1.3576 C   0  0  0  0  0  0  0  0  0  0  0  0
   -6.8927    0.1617    2.4837 C   0  0  0  0  0  0  0  0  0  0  0  0
   -5.8560    1.0225    2.8331 C   0  0  0  0  0  0  0  0  0  0  0  0
   -4.6971    1.0763    2.0546 C   0  0  0  0  0  0  0  0  0  0  0  0
   -2.9390   -0.3120   -1.1297 N   0  0  0  0  0  0  0  0  0  0  0  0
   -1.6973   -0.0291   -1.5158 C   0  0  0  0  0  0  0  0  0  0  0  0
   -1.2979   -0.7386   -2.7549 C   0  0  0  0  0  0  0  0  0  0  0  0
   -2.6533   -1.2537   -3.2773 C   0  0  0  0  0  0  0  0  0  0  0  0
   -3.5847   -1.2521   -2.0348 C   0  0  0  0  0  0  0  0  0  0  0  0
    4.7751    0.9707    0.6729 C   0  0  0  0  0  0  0  0  0  0  0  0
    4.7815    2.4764    0.7156 C   0  0  0  0  0  0  0  0  0  0  0  0
    5.9621    0.2999    1.0262 C   0  0  0  0  0  0  0  0  0  0  0  0
    7.8902   -1.2185    2.1046 H   0  0  0  0  0  0  0  0  0  0  0  0
    7.9326   -1.9186    0.4670 H   0  0  0  0  0  0  0  0  0  0  0  0
    7.1254   -2.7778    1.8014 H   0  0  0  0  0  0  0  0  0  0  0  0
    4.9563   -2.9134    0.5961 H   0  0  0  0  0  0  0  0  0  0  0  0
    2.8973   -1.8072   -0.0093 H   0  0  0  0  0  0  0  0  0  0  0  0
    2.5139    1.9202    0.0106 H   0  0  0  0  0  0  0  0  0  0  0  0
    0.3236    1.8272   -1.7625 H   0  0  0  0  0  0  0  0  0  0  0  0
    0.2527    2.2496   -0.0321 H   0  0  0  0  0  0  0  0  0  0  0  0
   -1.8797    1.7762    1.1123 H   0  0  0  0  0  0  0  0  0  0  0  0
   -5.5590   -1.2569   -0.2810 H   0  0  0  0  0  0  0  0  0  0  0  0
   -7.5815   -1.3250    1.0922 H   0  0  0  0  0  0  0  0  0  0  0  0
   -7.7944    0.1192    3.0915 H   0  0  0  0  0  0  0  0  0  0  0  0
   -5.9529    1.6516    3.7157 H   0  0  0  0  0  0  0  0  0  0  0  0
   -3.9151    1.7627    2.3639 H   0  0  0  0  0  0  0  0  0  0  0  0
   -0.8087   -0.0348   -3.4289 H   0  0  0  0  0  0  0  0  0  0  0  0
   -0.6383   -1.5565   -2.4612 H   0  0  0  0  0  0  0  0  0  0  0  0
   -3.0451   -0.5442   -4.0159 H   0  0  0  0  0  0  0  0  0  0  0  0
   -2.5834   -2.2343   -3.7554 H   0  0  0  0  0  0  0  0  0  0  0  0
   -4.5896   -0.9161   -2.2999 H   0  0  0  0  0  0  0  0  0  0  0  0
   -3.6125   -2.2369   -1.5594 H   0  0  0  0  0  0  0  0  0  0  0  0
    4.0417    2.8386    1.4365 H   0  0  0  0  0  0  0  0  0  0  0  0
    4.5614    2.8847   -0.2760 H   0  0  0  0  0  0  0  0  0  0  0  0
    5.7564    2.8710    1.0213 H   0  0  0  0  0  0  0  0  0  0  0  0
    6.8434    0.8731    1.3125 H   0  0  0  0  0  0  0  0  0  0  0  0
  1  2  1  0
  2  3  2  0
  3  4  1  0
  4  5  2  0
  5  6  1  0
  6  7  1  0
  7  8  2  0
  7  9  1  0
  9 10  1  0
 10 11  1  0
 11 12  2  0
 12 13  1  0
 13 14  2  0
 14 15  1  0
 15 16  2  0
 16 17  1  0
 17 18  2  0
 12 19  1  0
 19 20  1  0
 20 21  1  0
 21 22  1  0
 22 23  1  0
  5 24  1  0
 24 25  1  0
 24 26  2  0
 26  2  1  0
 20 10  2  0
 18 13  1  0
 23 19  1  0
  1 27  1  0
  1 28  1  0
  1 29  1  0
  3 30  1  0
  4 31  1  0
  6 32  1  0
  9 33  1  0
  9 34  1  0
 11 35  1  0
 14 36  1  0
 15 37  1  0
 16 38  1  0
 17 39  1  0
 18 40  1  0
 21 41  1  0
 21 42  1  0
 22 43  1  0
 22 44  1  0
 23 45  1  0
 23 46  1  0
 25 47  1  0
 25 48  1  0
 25 49  1  0
 26 50  1  0
M  CHG  1  10   1
M  END
$$$$
