
     RDKit          3D

 39 41  0  0  0  0  0  0  0  0999 V2000
   -1.7478    2.5159   -1.2387 O   0  0  0  0  0  0  0  0  0  0  0  0
   -1.4504    1.1397   -1.5695 S   0  0  0  0  0  6  0  0  0  0  0  0
   -1.1161    0.7273   -2.9148 O   0  0  0  0  0  0  0  0  0  0  0  0
   -0.2355    0.5914   -0.5626 N   0  0  0  0  0  0  0  0  0  0  0  0
   -0.0620    1.2064    0.7639 C   0  0  0  0  0  0  0  0  0  0  0  0
    0.8407    0.3234    1.6345 C   0  0  0  0  0  0  0  0  0  0  0  0
    2.2290    0.1434    1.1065 C   0  0  0  0  0  0  0  0  0  0  0  0
    3.3151   -0.4288    1.7417 C   0  0  0  0  0  0  0  0  0  0  0  0
    4.3421   -0.3943    0.8331 N   0  0  0  0  0  0  0  0  0  0  0  0
    5.6525   -0.8512    0.9549 C   0  0  0  0  0  0  0  0  0  0  0  0
    6.4930   -0.7064   -0.0845 C   0  0  0  0  0  0  0  0  0  0  0  0
    6.0083   -0.0665   -1.3000 C   0  0  0  0  0  0  0  0  0  0  0  0
    4.7367    0.3663   -1.4100 C   0  0  0  0  0  0  0  0  0  0  0  0
    3.8385    0.2045   -0.3173 C   0  0  0  0  0  0  0  0  0  0  0  0
    2.5675    0.5221   -0.1775 N   0  0  0  0  0  0  0  0  0  0  0  0
   -2.8156    0.1246   -1.0452 C   0  0  0  0  0  0  0  0  0  0  0  0
   -2.8104   -1.2364   -1.3676 C   0  0  0  0  0  0  0  0  0  0  0  0
   -3.8753   -2.0392   -0.9637 C   0  0  0  0  0  0  0  0  0  0  0  0
   -4.9336   -1.4768   -0.2522 C   0  0  0  0  0  0  0  0  0  0  0  0
   -5.9406   -2.2703    0.1341 F   0  0  0  0  0  0  0  0  0  0  0  0
   -4.9603   -0.1180    0.0618 C   0  0  0  0  0  0  0  0  0  0  0  0
   -6.1216    0.4320    0.8340 C   0  0  0  0  0  0  0  0  0  0  0  0
   -6.1093    1.7942    0.9098 F   0  0  0  0  0  0  0  0  0  0  0  0
   -7.3294    0.1074    0.2968 F   0  0  0  0  0  0  0  0  0  0  0  0
   -6.1446   -0.0038    2.1242 F   0  0  0  0  0  0  0  0  0  0  0  0
   -3.8839    0.6903   -0.3396 C   0  0  0  0  0  0  0  0  0  0  0  0
    0.6534    0.4163   -1.0510 H   0  0  0  0  0  0  0  0  0  0  0  0
    0.3832    2.2009    0.6468 H   0  0  0  0  0  0  0  0  0  0  0  0
   -1.0342    1.3112    1.2569 H   0  0  0  0  0  0  0  0  0  0  0  0
    0.3825   -0.6692    1.7440 H   0  0  0  0  0  0  0  0  0  0  0  0
    0.9004    0.7645    2.6382 H   0  0  0  0  0  0  0  0  0  0  0  0
    3.4391   -0.8510    2.7299 H   0  0  0  0  0  0  0  0  0  0  0  0
    5.9374   -1.3157    1.8907 H   0  0  0  0  0  0  0  0  0  0  0  0
    7.5219   -1.0490   -0.0444 H   0  0  0  0  0  0  0  0  0  0  0  0
    6.7087    0.0584   -2.1218 H   0  0  0  0  0  0  0  0  0  0  0  0
    4.3752    0.8495   -2.3119 H   0  0  0  0  0  0  0  0  0  0  0  0
   -1.9829   -1.6676   -1.9272 H   0  0  0  0  0  0  0  0  0  0  0  0
   -3.8897   -3.0997   -1.1985 H   0  0  0  0  0  0  0  0  0  0  0  0
   -3.8819    1.7542   -0.1036 H   0  0  0  0  0  0  0  0  0  0  0  0
  1  2  2  0
  2  3  2  0
  2  4  1  0
  4  5  1  0
  5  6  1  0
  6  7  1  0
  7  8  2  0
  8  9  1  0
  9 10  1  0
 10 11  2  0
 11 12  1  0
 12 13  2  0
 13 14  1  0
 14 15  2  0
  2 16  1  0
 16 17  2  0
 17 18  1  0
 18 19  2  0
 19 20  1  0
 19 21  1  0
 21 22  1  0
 22 23  1  0
 22 24  1  0
 22 25  1  0
 21 26  2  0
 15  7  1  0
 26 16  1  0
 14  9  1  0
  4 27  1  0
  5 28  1  0
  5 29  1  0
  6 30  1  0
  6 31  1  0
  8 32  1  0
 10 33  1  0
 11 34  1  0
 12 35  1  0
 13 36  1  0
 17 37  1  0
 18 38  1  0
 26 39  1  0
M  END
$$$$
