
     RDKit          3D

 44 46  0  0  0  0  0  0  0  0999 V2000
   -5.1516   -1.0415    0.2956 C   0  0  0  0  0  0  0  0  0  0  0  0
   -4.0526   -0.7406   -0.5553 O   0  0  0  0  0  0  0  0  0  0  0  0
   -3.1880    0.2450   -0.1574 C   0  0  0  0  0  0  0  0  0  0  0  0
   -3.2977    0.9715    1.0313 C   0  0  0  0  0  0  0  0  0  0  0  0
   -2.3695    1.9737    1.3412 C   0  0  0  0  0  0  0  0  0  0  0  0
   -1.3192    2.2711    0.4652 C   0  0  0  0  0  0  0  0  0  0  0  0
   -0.3798    3.3456    0.8118 C   0  0  0  0  0  0  0  0  0  0  0  0
    0.9671    3.2868    0.8338 C   0  0  0  0  0  0  0  0  0  0  0  0
    1.7112    4.4696    1.1150 C   0  0  0  0  0  0  0  0  0  0  0  0
    2.2546    5.4596    1.3788 N   0  0  0  0  0  0  0  0  0  0  0  0
    1.7620    2.0567    0.5300 C   0  0  0  0  0  0  0  0  0  0  0  0
    2.7574    2.1458   -0.1775 O   0  0  0  0  0  0  0  0  0  0  0  0
    1.3230    0.9275    1.1937 N   0  0  0  0  0  0  0  0  0  0  0  0
    1.8694   -0.3793    1.1271 C   0  0  0  0  0  0  0  0  0  0  0  0
    1.7741   -1.1033    2.3244 C   0  0  0  0  0  0  0  0  0  0  0  0
    2.3245   -2.3722    2.4271 C   0  0  0  0  0  0  0  0  0  0  0  0
    2.9552   -2.9362    1.3228 C   0  0  0  0  0  0  0  0  0  0  0  0
    3.0180   -2.2853    0.1033 C   0  0  0  0  0  0  0  0  0  0  0  0
    3.6001   -2.9520   -0.9089 N   0  0  0  0  0  0  0  0  0  0  0  0
    3.6192   -2.3781   -2.1263 C   0  0  0  0  0  0  0  0  0  0  0  0
    3.0499   -1.1564   -2.3951 C   0  0  0  0  0  0  0  0  0  0  0  0
    2.4525   -0.4732   -1.3405 C   0  0  0  0  0  0  0  0  0  0  0  0
    2.4483   -0.9953   -0.0263 C   0  0  0  0  0  0  0  0  0  0  0  0
   -1.2221    1.5678   -0.7376 C   0  0  0  0  0  0  0  0  0  0  0  0
   -2.1281    0.5427   -1.0267 C   0  0  0  0  0  0  0  0  0  0  0  0
   -1.9696   -0.0918   -2.2344 O   0  0  0  0  0  0  0  0  0  0  0  0
   -1.4486   -1.4099   -2.0477 C   0  0  0  0  0  0  0  0  0  0  0  0
   -5.8110   -0.1731    0.4075 H   0  0  0  0  0  0  0  0  0  0  0  0
   -5.7289   -1.8389   -0.1769 H   0  0  0  0  0  0  0  0  0  0  0  0
   -4.8125   -1.4092    1.2722 H   0  0  0  0  0  0  0  0  0  0  0  0
   -4.1027    0.7907    1.7379 H   0  0  0  0  0  0  0  0  0  0  0  0
   -2.4868    2.5244    2.2731 H   0  0  0  0  0  0  0  0  0  0  0  0
   -0.8704    4.2901    1.0530 H   0  0  0  0  0  0  0  0  0  0  0  0
    0.6956    1.0955    1.9689 H   0  0  0  0  0  0  0  0  0  0  0  0
    1.3100   -0.6712    3.2079 H   0  0  0  0  0  0  0  0  0  0  0  0
    2.2756   -2.9189    3.3635 H   0  0  0  0  0  0  0  0  0  0  0  0
    3.3938   -3.9275    1.4075 H   0  0  0  0  0  0  0  0  0  0  0  0
    4.1100   -2.9547   -2.9049 H   0  0  0  0  0  0  0  0  0  0  0  0
    3.0659   -0.7400   -3.3946 H   0  0  0  0  0  0  0  0  0  0  0  0
    1.9716    0.4702   -1.5697 H   0  0  0  0  0  0  0  0  0  0  0  0
   -0.4471    1.8002   -1.4652 H   0  0  0  0  0  0  0  0  0  0  0  0
   -0.5425   -1.3994   -1.4375 H   0  0  0  0  0  0  0  0  0  0  0  0
   -1.1894   -1.8047   -3.0330 H   0  0  0  0  0  0  0  0  0  0  0  0
   -2.1910   -2.0820   -1.6089 H   0  0  0  0  0  0  0  0  0  0  0  0
  1  2  1  0
  2  3  1  0
  3  4  2  0
  4  5  1  0
  5  6  2  0
  6  7  1  0
  7  8  2  3
  8  9  1  0
  9 10  3  0
  8 11  1  0
 11 12  2  0
 11 13  1  0
 13 14  1  0
 14 15  2  0
 15 16  1  0
 16 17  2  0
 17 18  1  0
 18 19  2  0
 19 20  1  0
 20 21  2  0
 21 22  1  0
 22 23  2  0
  6 24  1  0
 24 25  2  0
 25 26  1  0
 26 27  1  0
 25  3  1  0
 23 14  1  0
 23 18  1  0
  1 28  1  0
  1 29  1  0
  1 30  1  0
  4 31  1  0
  5 32  1  0
  7 33  1  0
 13 34  1  0
 15 35  1  0
 16 36  1  0
 17 37  1  0
 20 38  1  0
 21 39  1  0
 22 40  1  0
 24 41  1  0
 27 42  1  0
 27 43  1  0
 27 44  1  0
M  END
$$$$
