
     RDKit          3D

 36 35  0  0  0  0  0  0  0  0999 V2000
    2.1048   -0.8137   -3.4302 C   0  0  0  0  0  0  0  0  0  0  0  0
    2.7218    0.1656   -2.4427 C   0  0  0  0  0  0  0  0  0  0  0  0
    2.7303   -0.3259   -1.0506 N   0  0  0  0  0  0  0  0  0  0  0  0
    3.6198   -1.4783   -0.8047 C   0  0  0  0  0  0  0  0  0  0  0  0
    2.8600   -2.7910   -0.6653 C   0  0  0  0  0  0  0  0  0  0  0  0
    2.0368    0.2964    0.0107 C   0  0  0  0  0  0  0  0  0  0  0  0
    2.2951   -0.0029    1.6538 S   0  0  0  0  0  0  0  0  0  0  0  0
    0.8410    1.5449   -0.3891 S   0  0  0  0  0  0  0  0  0  0  0  0
   -0.7180    0.4473   -1.1848 S   0  0  0  0  0  0  0  0  0  0  0  0
   -1.5112   -0.1896    0.2690 C   0  0  0  0  0  0  0  0  0  0  0  0
   -1.2612   -1.8212    0.6245 S   0  0  0  0  0  0  0  0  0  0  0  0
   -2.3360    0.6877    1.0030 N   0  0  0  0  0  0  0  0  0  0  0  0
   -2.9459    0.2815    2.2822 C   0  0  0  0  0  0  0  0  0  0  0  0
   -2.0388    0.6044    3.4605 C   0  0  0  0  0  0  0  0  0  0  0  0
   -2.7106    2.0410    0.5548 C   0  0  0  0  0  0  0  0  0  0  0  0
   -3.9563    2.0155   -0.3191 C   0  0  0  0  0  0  0  0  0  0  0  0
    2.0384   -0.3560   -4.4223 H   0  0  0  0  0  0  0  0  0  0  0  0
    1.1005   -1.1173   -3.1235 H   0  0  0  0  0  0  0  0  0  0  0  0
    2.7137   -1.7178   -3.5264 H   0  0  0  0  0  0  0  0  0  0  0  0
    3.7645    0.3599   -2.7228 H   0  0  0  0  0  0  0  0  0  0  0  0
    2.2169    1.1283   -2.5324 H   0  0  0  0  0  0  0  0  0  0  0  0
    4.3356   -1.5588   -1.6312 H   0  0  0  0  0  0  0  0  0  0  0  0
    4.2204   -1.2995    0.0925 H   0  0  0  0  0  0  0  0  0  0  0  0
    3.5625   -3.6173   -0.5178 H   0  0  0  0  0  0  0  0  0  0  0  0
    2.1758   -2.7766    0.1872 H   0  0  0  0  0  0  0  0  0  0  0  0
    2.2663   -3.0071   -1.5580 H   0  0  0  0  0  0  0  0  0  0  0  0
   -3.9042    0.8011    2.3982 H   0  0  0  0  0  0  0  0  0  0  0  0
   -3.1822   -0.7858    2.2806 H   0  0  0  0  0  0  0  0  0  0  0  0
   -2.5156    0.3057    4.3991 H   0  0  0  0  0  0  0  0  0  0  0  0
   -1.8275    1.6775    3.5115 H   0  0  0  0  0  0  0  0  0  0  0  0
   -1.0809    0.0814    3.3824 H   0  0  0  0  0  0  0  0  0  0  0  0
   -2.8870    2.6663    1.4380 H   0  0  0  0  0  0  0  0  0  0  0  0
   -1.8979    2.5208    0.0087 H   0  0  0  0  0  0  0  0  0  0  0  0
   -4.2208    3.0302   -0.6322 H   0  0  0  0  0  0  0  0  0  0  0  0
   -4.8093    1.5930    0.2217 H   0  0  0  0  0  0  0  0  0  0  0  0
   -3.8007    1.4103   -1.2176 H   0  0  0  0  0  0  0  0  0  0  0  0
  1  2  1  0
  2  3  1  0
  3  4  1  0
  4  5  1  0
  3  6  1  0
  6  7  2  0
  6  8  1  0
  8  9  1  0
  9 10  1  0
 10 11  2  0
 10 12  1  0
 12 13  1  0
 13 14  1  0
 12 15  1  0
 15 16  1  0
  1 17  1  0
  1 18  1  0
  1 19  1  0
  2 20  1  0
  2 21  1  0
  4 22  1  0
  4 23  1  0
  5 24  1  0
  5 25  1  0
  5 26  1  0
 13 27  1  0
 13 28  1  0
 14 29  1  0
 14 30  1  0
 14 31  1  0
 15 32  1  0
 15 33  1  0
 16 34  1  0
 16 35  1  0
 16 36  1  0
M  END
$$$$
