
     RDKit          3D

 60 63  0  0  0  0  0  0  0  0999 V2000
   -3.5282    5.3108    3.5167 C   0  0  0  0  0  0  0  0  0  0  0  0
   -3.3453    5.1635    2.1138 O   0  0  0  0  0  0  0  0  0  0  0  0
   -2.9053    3.9478    1.6691 C   0  0  0  0  0  0  0  0  0  0  0  0
   -2.7415    3.8574    0.2848 C   0  0  0  0  0  0  0  0  0  0  0  0
   -2.2995    2.6728   -0.3101 C   0  0  0  0  0  0  0  0  0  0  0  0
   -2.0252    1.5583    0.4871 C   0  0  0  0  0  0  0  0  0  0  0  0
   -1.5952    0.3426   -0.1029 N   0  0  0  0  0  0  0  0  0  0  0  0
   -2.0755   -0.9374    0.1534 C   0  0  0  0  0  0  0  0  0  0  0  0
   -3.2982   -1.2774    0.9419 C   0  0  0  0  0  0  0  0  0  0  0  0
   -4.5608   -0.7951    0.2887 C   0  0  0  0  0  0  0  0  0  0  0  0
   -5.4242    0.2092    0.6933 C   0  0  0  0  0  0  0  0  0  0  0  0
   -6.4628    0.3020   -0.2595 C   0  0  0  0  0  0  0  0  0  0  0  0
   -6.2191   -0.6492   -1.2212 C   0  0  0  0  0  0  0  0  0  0  0  0
   -5.0696   -1.3175   -0.8827 N   0  0  0  0  0  0  0  0  0  0  0  0
   -4.4993   -2.3912   -1.6710 C   0  0  0  0  0  0  0  0  0  0  0  0
   -1.3775   -1.8163   -0.5416 N   0  0  0  0  0  0  0  0  0  0  0  0
   -0.4726   -1.1385   -1.3056 N   0  0  0  0  0  0  0  0  0  0  0  0
   -0.6140    0.1425   -1.0605 C   0  0  0  0  0  0  0  0  0  0  0  0
    0.4260    1.3756   -1.7036 S   0  0  0  0  0  0  0  0  0  0  0  0
    1.3400    0.4460   -2.9728 C   0  0  0  0  0  0  0  0  0  0  0  0
    2.3970   -0.5001   -2.4204 C   0  0  0  0  0  0  0  0  0  0  0  0
    2.7979   -1.4601   -3.0776 O   0  0  0  0  0  0  0  0  0  0  0  0
    2.9498   -0.1565   -1.2039 N   0  0  0  0  0  0  0  0  0  0  0  0
    3.8897   -1.0298   -0.5264 C   0  0  0  0  0  0  0  0  0  0  0  0
    5.2998   -0.9405   -1.1139 C   0  0  0  0  0  0  0  0  0  0  0  0
    6.2807   -1.7886   -0.3419 C   0  0  0  0  0  0  0  0  0  0  0  0
    6.3197   -3.1764   -0.5369 C   0  0  0  0  0  0  0  0  0  0  0  0
    7.2140   -3.9675    0.1854 C   0  0  0  0  0  0  0  0  0  0  0  0
    8.0761   -3.3798    1.1093 C   0  0  0  0  0  0  0  0  0  0  0  0
    8.0438   -2.0012    1.3123 C   0  0  0  0  0  0  0  0  0  0  0  0
    7.1490   -1.2080    0.5916 C   0  0  0  0  0  0  0  0  0  0  0  0
   -2.1831    1.6436    1.8755 C   0  0  0  0  0  0  0  0  0  0  0  0
   -2.6199    2.8371    2.4628 C   0  0  0  0  0  0  0  0  0  0  0  0
   -4.2860    4.6159    3.8922 H   0  0  0  0  0  0  0  0  0  0  0  0
   -2.5810    5.1899    4.0513 H   0  0  0  0  0  0  0  0  0  0  0  0
   -3.8875    6.3272    3.7029 H   0  0  0  0  0  0  0  0  0  0  0  0
   -2.9706    4.7183   -0.3393 H   0  0  0  0  0  0  0  0  0  0  0  0
   -2.2251    2.6361   -1.3942 H   0  0  0  0  0  0  0  0  0  0  0  0
   -3.2278   -0.8895    1.9619 H   0  0  0  0  0  0  0  0  0  0  0  0
   -3.3542   -2.3674    1.0599 H   0  0  0  0  0  0  0  0  0  0  0  0
   -5.3128    0.8213    1.5795 H   0  0  0  0  0  0  0  0  0  0  0  0
   -7.2981    0.9896   -0.2470 H   0  0  0  0  0  0  0  0  0  0  0  0
   -6.7709   -0.9035   -2.1174 H   0  0  0  0  0  0  0  0  0  0  0  0
   -3.6796   -1.9808   -2.2652 H   0  0  0  0  0  0  0  0  0  0  0  0
   -4.1463   -3.1802   -1.0043 H   0  0  0  0  0  0  0  0  0  0  0  0
   -5.2691   -2.7993   -2.3311 H   0  0  0  0  0  0  0  0  0  0  0  0
    1.8524    1.1682   -3.6169 H   0  0  0  0  0  0  0  0  0  0  0  0
    0.6377   -0.1226   -3.5911 H   0  0  0  0  0  0  0  0  0  0  0  0
    2.4429    0.5224   -0.6481 H   0  0  0  0  0  0  0  0  0  0  0  0
    3.8940   -0.7345    0.5284 H   0  0  0  0  0  0  0  0  0  0  0  0
    3.5086   -2.0563   -0.5801 H   0  0  0  0  0  0  0  0  0  0  0  0
    5.3048   -1.2556   -2.1651 H   0  0  0  0  0  0  0  0  0  0  0  0
    5.6351    0.1054   -1.1210 H   0  0  0  0  0  0  0  0  0  0  0  0
    5.6520   -3.6471   -1.2559 H   0  0  0  0  0  0  0  0  0  0  0  0
    7.2387   -5.0414    0.0244 H   0  0  0  0  0  0  0  0  0  0  0  0
    8.7745   -3.9961    1.6692 H   0  0  0  0  0  0  0  0  0  0  0  0
    8.7180   -1.5429    2.0316 H   0  0  0  0  0  0  0  0  0  0  0  0
    7.1384   -0.1334    0.7604 H   0  0  0  0  0  0  0  0  0  0  0  0
   -1.9331    0.8113    2.5286 H   0  0  0  0  0  0  0  0  0  0  0  0
   -2.7215    2.8671    3.5427 H   0  0  0  0  0  0  0  0  0  0  0  0
  1  2  1  0
  2  3  1  0
  3  4  2  0
  4  5  1  0
  5  6  2  0
  6  7  1  0
  7  8  1  0
  8  9  1  0
  9 10  1  0
 10 11  2  0
 11 12  1  0
 12 13  2  0
 13 14  1  0
 14 15  1  0
  8 16  2  0
 16 17  1  0
 17 18  2  0
 18 19  1  0
 19 20  1  0
 20 21  1  0
 21 22  2  0
 21 23  1  0
 23 24  1  0
 24 25  1  0
 25 26  1  0
 26 27  2  0
 27 28  1  0
 28 29  2  0
 29 30  1  0
 30 31  2  0
  6 32  1  0
 32 33  2  0
 33  3  1  0
 18  7  1  0
 31 26  1  0
 14 10  1  0
  1 34  1  0
  1 35  1  0
  1 36  1  0
  4 37  1  0
  5 38  1  0
  9 39  1  0
  9 40  1  0
 11 41  1  0
 12 42  1  0
 13 43  1  0
 15 44  1  0
 15 45  1  0
 15 46  1  0
 20 47  1  0
 20 48  1  0
 23 49  1  0
 24 50  1  0
 24 51  1  0
 25 52  1  0
 25 53  1  0
 27 54  1  0
 28 55  1  0
 29 56  1  0
 30 57  1  0
 31 58  1  0
 32 59  1  0
 33 60  1  0
M  END
$$$$
