
     RDKit          3D

 29 29  0  0  0  0  0  0  0  0999 V2000
   -3.8752   -4.5549    0.0286 C   0  0  0  0  0  0  0  0  0  0  0  0
   -3.2026   -3.5823   -0.1831 C   0  0  0  0  0  0  0  0  0  0  0  0
   -2.3802   -2.3926   -0.4420 C   0  0  0  0  0  0  0  0  0  0  0  0
   -3.1192   -1.1955   -0.0481 N   0  0  0  0  0  0  0  0  0  0  0  0
   -2.4430    0.0456   -0.4241 C   0  0  0  0  0  0  0  0  0  0  0  0
   -1.1867    0.3211    0.4020 C   0  0  0  0  0  0  0  0  0  0  0  0
   -0.5931    1.6855    0.0554 C   0  0  0  0  0  0  0  0  0  0  0  0
    0.5653    1.9447    0.8475 O   0  0  0  0  0  0  0  0  0  0  0  0
    1.8033    1.6157    0.3656 C   0  0  0  0  0  0  0  0  0  0  0  0
    2.0349    0.8177   -0.7593 C   0  0  0  0  0  0  0  0  0  0  0  0
    3.3425    0.5283   -1.1656 C   0  0  0  0  0  0  0  0  0  0  0  0
    4.4245    1.0307   -0.4469 C   0  0  0  0  0  0  0  0  0  0  0  0
    6.0275    0.6690   -0.9546 Cl  0  0  0  0  0  0  0  0  0  0  0  0
    4.2158    1.8190    0.6787 C   0  0  0  0  0  0  0  0  0  0  0  0
    2.9097    2.1067    1.0830 C   0  0  0  0  0  0  0  0  0  0  0  0
    2.7028    3.0927    2.4903 Cl  0  0  0  0  0  0  0  0  0  0  0  0
   -4.4735   -5.4145    0.2248 H   0  0  0  0  0  0  0  0  0  0  0  0
   -1.4482   -2.4771    0.1262 H   0  0  0  0  0  0  0  0  0  0  0  0
   -2.1269   -2.3568   -1.5079 H   0  0  0  0  0  0  0  0  0  0  0  0
   -4.0334   -1.2265   -0.5000 H   0  0  0  0  0  0  0  0  0  0  0  0
   -3.1521    0.8664   -0.2622 H   0  0  0  0  0  0  0  0  0  0  0  0
   -2.2083    0.0457   -1.4956 H   0  0  0  0  0  0  0  0  0  0  0  0
   -0.4342   -0.4579    0.2406 H   0  0  0  0  0  0  0  0  0  0  0  0
   -1.4203    0.2943    1.4741 H   0  0  0  0  0  0  0  0  0  0  0  0
   -1.3208    2.4636    0.3154 H   0  0  0  0  0  0  0  0  0  0  0  0
   -0.4004    1.8058   -1.0169 H   0  0  0  0  0  0  0  0  0  0  0  0
    1.2230    0.3919   -1.3390 H   0  0  0  0  0  0  0  0  0  0  0  0
    3.5080   -0.0940   -2.0421 H   0  0  0  0  0  0  0  0  0  0  0  0
    5.0609    2.2075    1.2402 H   0  0  0  0  0  0  0  0  0  0  0  0
  1  2  3  0
  2  3  1  0
  3  4  1  0
  4  5  1  0
  5  6  1  0
  6  7  1  0
  7  8  1  0
  8  9  1  0
  9 10  2  0
 10 11  1  0
 11 12  2  0
 12 13  1  0
 12 14  1  0
 14 15  2  0
 15 16  1  0
 15  9  1  0
  1 17  1  0
  3 18  1  0
  3 19  1  0
  4 20  1  0
  5 21  1  0
  5 22  1  0
  6 23  1  0
  6 24  1  0
  7 25  1  0
  7 26  1  0
 10 27  1  0
 11 28  1  0
 14 29  1  0
M  END
$$$$
