
     RDKit          3D

 52 55  0  0  0  0  0  0  0  0999 V2000
   -3.3069   -2.3033   -2.8480 C   0  0  0  0  0  0  0  0  0  0  0  0
   -2.1370   -1.6825   -2.1100 C   0  0  0  0  0  0  0  0  0  0  0  0
   -2.6322   -1.1214   -0.8904 O   0  0  0  0  0  0  0  0  0  0  0  0
   -1.6950   -0.5369   -0.0982 C   0  0  0  0  0  0  0  0  0  0  0  0
   -0.4999   -0.4780   -0.3815 O   0  0  0  0  0  0  0  0  0  0  0  0
   -2.2371    0.0311    1.1401 C   0  0  0  0  0  0  0  0  0  0  0  0
   -3.6113    0.0260    1.5946 C   0  0  0  0  0  0  0  0  0  0  0  0
   -4.7804   -0.5467    0.9469 C   0  0  0  0  0  0  0  0  0  0  0  0
   -5.1286   -1.8810    1.1834 C   0  0  0  0  0  0  0  0  0  0  0  0
   -6.2454   -2.4325    0.5535 C   0  0  0  0  0  0  0  0  0  0  0  0
   -7.0154   -1.6540   -0.3104 C   0  0  0  0  0  0  0  0  0  0  0  0
   -6.6721   -0.3227   -0.5461 C   0  0  0  0  0  0  0  0  0  0  0  0
   -5.5559    0.2329    0.0817 C   0  0  0  0  0  0  0  0  0  0  0  0
   -3.7578    0.6603    2.8113 C   0  0  0  0  0  0  0  0  0  0  0  0
   -2.2801    1.2583    3.4057 S   0  0  0  0  0  0  0  0  0  0  0  0
   -1.4194    0.6760    2.0647 C   0  0  0  0  0  0  0  0  0  0  0  0
   -0.0458    0.8532    1.9456 N   0  0  0  0  0  0  0  0  0  0  0  0
    0.8201    1.4649    2.8420 C   0  0  0  0  0  0  0  0  0  0  0  0
    0.4973    1.9592    3.9171 O   0  0  0  0  0  0  0  0  0  0  0  0
    2.2284    1.4723    2.3902 C   0  0  0  0  0  0  0  0  0  0  0  0
    2.7941    1.0428    1.1555 C   0  0  0  0  0  0  0  0  0  0  0  0
    4.1467    1.2712    1.2681 C   0  0  0  0  0  0  0  0  0  0  0  0
    5.3192    1.0774    0.4118 C   0  0  0  0  0  0  0  0  0  0  0  0
    6.5967    1.0086    1.0028 C   0  0  0  0  0  0  0  0  0  0  0  0
    7.7435    0.8128    0.2331 C   0  0  0  0  0  0  0  0  0  0  0  0
    7.6339    0.6792   -1.1445 C   0  0  0  0  0  0  0  0  0  0  0  0
    6.3801    0.7464   -1.7551 C   0  0  0  0  0  0  0  0  0  0  0  0
    5.2194    0.9496   -0.9931 C   0  0  0  0  0  0  0  0  0  0  0  0
    3.9623    1.0361   -1.5413 O   0  0  0  0  0  0  0  0  0  0  0  0
    3.8544    1.0619   -2.9596 C   0  0  0  0  0  0  0  0  0  0  0  0
    4.3817    1.8069    2.4989 O   0  0  0  0  0  0  0  0  0  0  0  0
    3.2008    1.9328    3.1964 N   0  0  0  0  0  0  0  0  0  0  0  0
   -3.7846   -3.0744   -2.2340 H   0  0  0  0  0  0  0  0  0  0  0  0
   -2.9799   -2.7531   -3.7899 H   0  0  0  0  0  0  0  0  0  0  0  0
   -4.0718   -1.5492   -3.0624 H   0  0  0  0  0  0  0  0  0  0  0  0
   -1.3888   -2.4517   -1.8877 H   0  0  0  0  0  0  0  0  0  0  0  0
   -1.6870   -0.8937   -2.7227 H   0  0  0  0  0  0  0  0  0  0  0  0
   -4.5343   -2.4961    1.8546 H   0  0  0  0  0  0  0  0  0  0  0  0
   -6.5153   -3.4688    0.7369 H   0  0  0  0  0  0  0  0  0  0  0  0
   -7.8858   -2.0847   -0.7994 H   0  0  0  0  0  0  0  0  0  0  0  0
   -7.2748    0.2833   -1.2180 H   0  0  0  0  0  0  0  0  0  0  0  0
   -5.2960    1.2712   -0.1089 H   0  0  0  0  0  0  0  0  0  0  0  0
   -4.6657    0.8047    3.3831 H   0  0  0  0  0  0  0  0  0  0  0  0
    0.3465    0.4554    1.0971 H   0  0  0  0  0  0  0  0  0  0  0  0
    2.2967    0.6201    0.2962 H   0  0  0  0  0  0  0  0  0  0  0  0
    6.7110    1.1014    2.0818 H   0  0  0  0  0  0  0  0  0  0  0  0
    8.7175    0.7619    0.7127 H   0  0  0  0  0  0  0  0  0  0  0  0
    8.5250    0.5232   -1.7477 H   0  0  0  0  0  0  0  0  0  0  0  0
    6.3446    0.6342   -2.8335 H   0  0  0  0  0  0  0  0  0  0  0  0
    4.4170    1.8995   -3.3856 H   0  0  0  0  0  0  0  0  0  0  0  0
    2.7992    1.2087   -3.2114 H   0  0  0  0  0  0  0  0  0  0  0  0
    4.1684    0.1070   -3.3935 H   0  0  0  0  0  0  0  0  0  0  0  0
  1  2  1  0
  2  3  1  0
  3  4  1  0
  4  5  2  0
  4  6  1  0
  6  7  1  0
  7  8  1  0
  8  9  2  0
  9 10  1  0
 10 11  2  0
 11 12  1  0
 12 13  2  0
  7 14  2  0
 14 15  1  0
 15 16  1  0
 16 17  1  0
 17 18  1  0
 18 19  2  0
 18 20  1  0
 20 21  1  0
 21 22  2  0
 22 23  1  0
 23 24  2  0
 24 25  1  0
 25 26  2  0
 26 27  1  0
 27 28  2  0
 28 29  1  0
 29 30  1  0
 22 31  1  0
 31 32  1  0
 16  6  2  0
 32 20  2  0
 13  8  1  0
 28 23  1  0
  1 33  1  0
  1 34  1  0
  1 35  1  0
  2 36  1  0
  2 37  1  0
  9 38  1  0
 10 39  1  0
 11 40  1  0
 12 41  1  0
 13 42  1  0
 14 43  1  0
 17 44  1  0
 21 45  1  0
 24 46  1  0
 25 47  1  0
 26 48  1  0
 27 49  1  0
 30 50  1  0
 30 51  1  0
 30 52  1  0
M  END
$$$$
