
     RDKit          3D

 57 62  0  0  0  0  0  0  0  0999 V2000
    7.7580    2.6095   -1.1227 C   0  0  0  0  0  0  0  0  0  0  0  0
    6.5606    3.0943   -0.5288 O   0  0  0  0  0  0  0  0  0  0  0  0
    5.5577    2.1923   -0.3182 C   0  0  0  0  0  0  0  0  0  0  0  0
    5.6334    0.8158   -0.5164 C   0  0  0  0  0  0  0  0  0  0  0  0
    4.5225    0.0007   -0.2562 C   0  0  0  0  0  0  0  0  0  0  0  0
    3.3282    0.5578    0.2038 C   0  0  0  0  0  0  0  0  0  0  0  0
    2.0735   -0.3456    0.4840 C   0  0  0  0  0  0  0  0  0  0  0  0
    0.8062    0.0935    0.8508 C   0  0  0  0  0  0  0  0  0  0  0  0
   -0.0409   -1.0091    0.9605 N   0  0  0  0  0  4  0  0  0  0  0  0
   -1.4875   -0.9854    1.2412 C   0  0  0  0  0  0  0  0  0  0  0  0
   -2.2812   -1.1775   -0.0683 C   0  0  0  0  0  0  0  0  0  0  0  0
   -1.9417   -2.0763   -0.8407 O   0  0  0  0  0  0  0  0  0  0  0  0
   -3.2630   -0.2008   -0.2996 N   0  0  0  0  0  0  0  0  0  0  0  0
   -4.1917    0.1539    0.7463 C   0  0  0  0  0  0  0  0  0  0  0  0
   -4.5282   -0.8105    1.7216 C   0  0  0  0  0  0  0  0  0  0  0  0
   -5.4132   -0.5202    2.7632 C   0  0  0  0  0  0  0  0  0  0  0  0
   -5.9921    0.7371    2.8461 C   0  0  0  0  0  0  0  0  0  0  0  0
   -5.7014    1.6931    1.8766 C   0  0  0  0  0  0  0  0  0  0  0  0
   -4.8197    1.4047    0.8229 C   0  0  0  0  0  0  0  0  0  0  0  0
   -4.5058    2.6923   -0.3456 S   0  0  0  0  0  0  0  0  0  0  0  0
   -3.9929    1.7071   -1.7334 C   0  0  0  0  0  0  0  0  0  0  0  0
   -4.1051    2.3126   -2.9976 C   0  0  0  0  0  0  0  0  0  0  0  0
   -3.6383    1.6715   -4.1389 C   0  0  0  0  0  0  0  0  0  0  0  0
   -3.0493    0.4229   -4.0212 C   0  0  0  0  0  0  0  0  0  0  0  0
   -2.9339   -0.1843   -2.7649 C   0  0  0  0  0  0  0  0  0  0  0  0
   -3.4113    0.4316   -1.5909 C   0  0  0  0  0  0  0  0  0  0  0  0
    0.6722   -2.0915    0.6613 C   0  0  0  0  0  0  0  0  0  0  0  0
    1.9278   -1.7203    0.4235 N   0  0  0  0  0  0  0  0  0  0  0  0
    2.7834   -2.8633    0.1377 C   0  0  0  0  0  0  0  0  0  0  0  0
    1.9202   -4.0782    0.5747 C   0  0  0  0  0  0  0  0  0  0  0  0
    0.4697   -3.5563    0.5640 C   0  0  0  0  0  0  0  0  0  0  0  0
    3.2509    1.9395    0.4020 C   0  0  0  0  0  0  0  0  0  0  0  0
    4.3636    2.7462    0.1450 C   0  0  0  0  0  0  0  0  0  0  0  0
    8.2591    1.8891   -0.4683 H   0  0  0  0  0  0  0  0  0  0  0  0
    8.4322    3.4603   -1.2599 H   0  0  0  0  0  0  0  0  0  0  0  0
    7.5602    2.1773   -2.1085 H   0  0  0  0  0  0  0  0  0  0  0  0
    6.5437    0.3450   -0.8737 H   0  0  0  0  0  0  0  0  0  0  0  0
    4.6259   -1.0612   -0.4405 H   0  0  0  0  0  0  0  0  0  0  0  0
    0.3878    1.0707    1.0270 H   0  0  0  0  0  0  0  0  0  0  0  0
   -1.7158   -0.0317    1.7260 H   0  0  0  0  0  0  0  0  0  0  0  0
   -1.7183   -1.8037    1.9299 H   0  0  0  0  0  0  0  0  0  0  0  0
   -4.1621   -1.8332    1.6597 H   0  0  0  0  0  0  0  0  0  0  0  0
   -5.6718   -1.2826    3.4944 H   0  0  0  0  0  0  0  0  0  0  0  0
   -6.6887    0.9700    3.6481 H   0  0  0  0  0  0  0  0  0  0  0  0
   -6.1787    2.6696    1.9442 H   0  0  0  0  0  0  0  0  0  0  0  0
   -4.5497    3.3026   -3.0991 H   0  0  0  0  0  0  0  0  0  0  0  0
   -3.7330    2.1469   -5.1122 H   0  0  0  0  0  0  0  0  0  0  0  0
   -2.6851   -0.0909   -4.9081 H   0  0  0  0  0  0  0  0  0  0  0  0
   -2.4942   -1.1764   -2.7610 H   0  0  0  0  0  0  0  0  0  0  0  0
    3.7106   -2.8132    0.7129 H   0  0  0  0  0  0  0  0  0  0  0  0
    2.9882   -2.8899   -0.9362 H   0  0  0  0  0  0  0  0  0  0  0  0
    2.0651   -4.9538   -0.0630 H   0  0  0  0  0  0  0  0  0  0  0  0
    2.1928   -4.3573    1.5994 H   0  0  0  0  0  0  0  0  0  0  0  0
   -0.1225   -3.8944    1.4151 H   0  0  0  0  0  0  0  0  0  0  0  0
   -0.0268   -3.7493   -0.3880 H   0  0  0  0  0  0  0  0  0  0  0  0
    2.3487    2.4269    0.7586 H   0  0  0  0  0  0  0  0  0  0  0  0
    4.3015    3.8219    0.3027 H   0  0  0  0  0  0  0  0  0  0  0  0
  1  2  1  0
  2  3  1  0
  3  4  2  0
  4  5  1  0
  5  6  2  0
  6  7  1  0
  7  8  2  0
  8  9  1  0
  9 10  1  0
 10 11  1  0
 11 12  2  0
 11 13  1  0
 13 14  1  0
 14 15  2  0
 15 16  1  0
 16 17  2  0
 17 18  1  0
 18 19  2  0
 19 20  1  0
 20 21  1  0
 21 22  2  0
 22 23  1  0
 23 24  2  0
 24 25  1  0
 25 26  2  0
  9 27  2  0
 27 28  1  0
 28 29  1  0
 29 30  1  0
 30 31  1  0
  6 32  1  0
 32 33  2  0
 33  3  1  0
 28  7  1  0
 26 13  1  0
 31 27  1  0
 19 14  1  0
 26 21  1  0
  1 34  1  0
  1 35  1  0
  1 36  1  0
  4 37  1  0
  5 38  1  0
  8 39  1  0
 10 40  1  0
 10 41  1  0
 15 42  1  0
 16 43  1  0
 17 44  1  0
 18 45  1  0
 22 46  1  0
 23 47  1  0
 24 48  1  0
 25 49  1  0
 29 50  1  0
 29 51  1  0
 30 52  1  0
 30 53  1  0
 31 54  1  0
 31 55  1  0
 32 56  1  0
 33 57  1  0
M  CHG  1   9   1
M  END
$$$$
