
     RDKit          3D

 68 71  0  0  0  0  0  0  0  0999 V2000
    4.2448    2.7650    5.8208 C   0  0  0  0  0  0  0  0  0  0  0  0
    4.1954    2.6030    4.3553 C   0  0  0  0  0  0  0  0  0  0  0  0
    3.7510    1.6147    3.5107 C   0  0  0  0  0  0  0  0  0  0  0  0
    4.0219    2.1083    2.2162 C   0  0  0  0  0  0  0  0  0  0  0  0
    3.7926    1.5305    0.9874 N   0  0  0  0  0  0  0  0  0  0  0  0
    3.2771    0.2726    0.7809 C   0  0  0  0  0  0  0  0  0  0  0  0
    2.9950   -0.5407    1.6553 O   0  0  0  0  0  0  0  0  0  0  0  0
    3.1670   -0.0640   -0.6972 C   0  0  0  0  0  0  0  0  0  0  0  0
    2.1681   -1.1928   -0.9431 C   0  0  0  0  0  0  0  0  0  0  0  0
    0.7349   -0.6991   -0.8138 C   0  0  0  0  0  0  0  0  0  0  0  0
    0.4855    0.5025   -0.9440 O   0  0  0  0  0  0  0  0  0  0  0  0
   -0.2603   -1.6458   -0.5978 N   0  0  0  0  0  0  0  0  0  0  0  0
   -0.0797   -3.0602   -0.9533 C   0  0  0  0  0  0  0  0  0  0  0  0
   -0.0613   -3.9191    0.2580 C   0  0  0  0  0  0  0  0  0  0  0  0
    0.9286   -4.3181    1.1344 C   0  0  0  0  0  0  0  0  0  0  0  0
    0.3056   -5.1642    2.0843 C   0  0  0  0  0  0  0  0  0  0  0  0
   -1.0192   -5.2346    1.7248 C   0  0  0  0  0  0  0  0  0  0  0  0
   -1.2511   -4.4854    0.6172 O   0  0  0  0  0  0  0  0  0  0  0  0
   -1.6733   -1.1984   -0.4380 C   0  0  0  0  0  0  0  0  0  0  0  0
   -2.1931   -0.9363   -1.8861 C   0  0  0  0  0  0  0  0  0  0  0  0
   -2.8479   -1.7756   -2.5085 O   0  0  0  0  0  0  0  0  0  0  0  0
   -1.7626    0.2408   -2.4729 N   0  0  0  0  0  0  0  0  0  0  0  0
   -1.9859    0.5451   -3.8708 C   0  0  0  0  0  0  0  0  0  0  0  0
   -3.4708    0.7672   -4.2128 C   0  0  0  0  0  0  0  0  0  0  0  0
   -3.5763    2.2077   -4.7021 C   0  0  0  0  0  0  0  0  0  0  0  0
   -2.2025    2.4977   -5.2827 C   0  0  0  0  0  0  0  0  0  0  0  0
   -1.2698    1.8391   -4.2800 C   0  0  0  0  0  0  0  0  0  0  0  0
   -1.9418   -0.0838    0.5972 C   0  0  0  0  0  0  0  0  0  0  0  0
   -2.8480    0.9599    0.2931 C   0  0  0  0  0  0  0  0  0  0  0  0
   -3.0967    2.0085    1.1802 C   0  0  0  0  0  0  0  0  0  0  0  0
   -2.4679    2.0329    2.4151 C   0  0  0  0  0  0  0  0  0  0  0  0
   -1.6252    0.9857    2.7751 C   0  0  0  0  0  0  0  0  0  0  0  0
   -1.3812   -0.0905    1.8998 C   0  0  0  0  0  0  0  0  0  0  0  0
   -0.5410   -1.2218    2.4253 C   0  0  0  0  0  0  0  0  0  0  0  0
    4.5788    3.3239    2.2733 N   0  0  0  0  0  0  0  0  0  0  0  0
    4.6898    3.6302    3.6172 O   0  0  0  0  0  0  0  0  0  0  0  0
    5.2298    3.1202    6.1361 H   0  0  0  0  0  0  0  0  0  0  0  0
    4.0496    1.8157    6.3284 H   0  0  0  0  0  0  0  0  0  0  0  0
    3.4923    3.4870    6.1529 H   0  0  0  0  0  0  0  0  0  0  0  0
    3.2947    0.6787    3.7881 H   0  0  0  0  0  0  0  0  0  0  0  0
    4.0411    2.1229    0.2070 H   0  0  0  0  0  0  0  0  0  0  0  0
    4.1622   -0.3844   -1.0265 H   0  0  0  0  0  0  0  0  0  0  0  0
    2.9046    0.8331   -1.2694 H   0  0  0  0  0  0  0  0  0  0  0  0
    2.3539   -2.0232   -0.2584 H   0  0  0  0  0  0  0  0  0  0  0  0
    2.2959   -1.5521   -1.9702 H   0  0  0  0  0  0  0  0  0  0  0  0
    0.8455   -3.2101   -1.5168 H   0  0  0  0  0  0  0  0  0  0  0  0
   -0.8872   -3.3668   -1.6278 H   0  0  0  0  0  0  0  0  0  0  0  0
    1.9700   -4.0286    1.1014 H   0  0  0  0  0  0  0  0  0  0  0  0
    0.7650   -5.6610    2.9271 H   0  0  0  0  0  0  0  0  0  0  0  0
   -1.8795   -5.7457    2.1333 H   0  0  0  0  0  0  0  0  0  0  0  0
   -2.2527   -2.0558   -0.0662 H   0  0  0  0  0  0  0  0  0  0  0  0
   -1.0103    0.7264   -1.9755 H   0  0  0  0  0  0  0  0  0  0  0  0
   -1.6025   -0.3008   -4.4560 H   0  0  0  0  0  0  0  0  0  0  0  0
   -3.7578    0.0852   -5.0235 H   0  0  0  0  0  0  0  0  0  0  0  0
   -4.1528    0.5853   -3.3750 H   0  0  0  0  0  0  0  0  0  0  0  0
   -4.3762    2.3376   -5.4363 H   0  0  0  0  0  0  0  0  0  0  0  0
   -3.7769    2.8772   -3.8552 H   0  0  0  0  0  0  0  0  0  0  0  0
   -2.0933    2.0302   -6.2696 H   0  0  0  0  0  0  0  0  0  0  0  0
   -2.0135    3.5709   -5.3848 H   0  0  0  0  0  0  0  0  0  0  0  0
   -1.1306    2.5041   -3.4176 H   0  0  0  0  0  0  0  0  0  0  0  0
   -0.2806    1.6446   -4.7060 H   0  0  0  0  0  0  0  0  0  0  0  0
   -3.3839    0.9856   -0.6539 H   0  0  0  0  0  0  0  0  0  0  0  0
   -3.7851    2.8031    0.9007 H   0  0  0  0  0  0  0  0  0  0  0  0
   -2.6426    2.8521    3.1046 H   0  0  0  0  0  0  0  0  0  0  0  0
   -1.1651    1.0038    3.7617 H   0  0  0  0  0  0  0  0  0  0  0  0
   -1.0798   -2.1636    2.3085 H   0  0  0  0  0  0  0  0  0  0  0  0
   -0.3407   -1.1108    3.4963 H   0  0  0  0  0  0  0  0  0  0  0  0
    0.4261   -1.2656    1.9245 H   0  0  0  0  0  0  0  0  0  0  0  0
  1  2  1  0
  2  3  2  0
  3  4  1  0
  4  5  1  0
  5  6  1  0
  6  7  2  0
  6  8  1  0
  8  9  1  0
  9 10  1  0
 10 11  2  0
 10 12  1  0
 12 13  1  0
 13 14  1  0
 14 15  2  0
 15 16  1  0
 16 17  2  0
 17 18  1  0
 12 19  1  0
 19 20  1  0
 20 21  2  0
 20 22  1  0
 22 23  1  0
 23 24  1  0
 24 25  1  0
 25 26  1  0
 26 27  1  0
 19 28  1  0
 28 29  2  0
 29 30  1  0
 30 31  2  0
 31 32  1  0
 32 33  2  0
 33 34  1  0
  4 35  2  0
 35 36  1  0
 36  2  1  0
 18 14  1  0
 27 23  1  0
 33 28  1  0
  1 37  1  0
  1 38  1  0
  1 39  1  0
  3 40  1  0
  5 41  1  0
  8 42  1  0
  8 43  1  0
  9 44  1  0
  9 45  1  0
 13 46  1  0
 13 47  1  0
 15 48  1  0
 16 49  1  0
 17 50  1  0
 19 51  1  0
 22 52  1  0
 23 53  1  0
 24 54  1  0
 24 55  1  0
 25 56  1  0
 25 57  1  0
 26 58  1  0
 26 59  1  0
 27 60  1  0
 27 61  1  0
 29 62  1  0
 30 63  1  0
 31 64  1  0
 32 65  1  0
 34 66  1  0
 34 67  1  0
 34 68  1  0
M  END
$$$$
