
     RDKit          3D

 51 54  0  0  0  0  0  0  0  0999 V2000
    6.6497   -1.0657   -3.2706 N   0  0  0  0  0  0  0  0  0  0  0  0
    7.0042   -1.4232   -1.6623 S   0  0  0  0  0  6  0  0  0  0  0  0
    8.2063   -0.6846   -1.3470 O   0  0  0  0  0  0  0  0  0  0  0  0
    6.9059   -2.8536   -1.4990 O   0  0  0  0  0  0  0  0  0  0  0  0
    5.6428   -0.6596   -0.8200 C   0  0  0  0  0  0  0  0  0  0  0  0
    4.5630   -1.4351   -0.3920 C   0  0  0  0  0  0  0  0  0  0  0  0
    3.5094   -0.8242    0.2952 C   0  0  0  0  0  0  0  0  0  0  0  0
    3.5233    0.5546    0.5478 C   0  0  0  0  0  0  0  0  0  0  0  0
    2.4425    1.0820    1.2797 N   0  0  0  0  0  0  0  0  0  0  0  0
    2.1480    2.4156    1.5109 C   0  0  0  0  0  0  0  0  0  0  0  0
    2.7088    3.3771    0.9882 O   0  0  0  0  0  0  0  0  0  0  0  0
    1.0236    2.6201    2.5178 C   0  0  0  0  0  0  0  0  0  0  0  0
   -0.6061    2.5441    1.7160 S   0  0  0  0  0  0  0  0  0  0  0  0
   -0.8894    0.8324    1.6714 C   0  0  0  0  0  0  0  0  0  0  0  0
    0.0155   -0.0657    1.9846 N   0  0  0  0  0  0  0  0  0  0  0  0
   -0.5708   -1.2951    1.9341 N   0  0  0  0  0  0  0  0  0  0  0  0
   -1.8327   -1.1390    1.5753 C   0  0  0  0  0  0  0  0  0  0  0  0
   -2.7586   -2.2680    1.2385 C   0  0  0  0  0  0  0  0  0  0  0  0
   -3.2744   -2.2406   -0.1771 C   0  0  0  0  0  0  0  0  0  0  0  0
   -4.5875   -2.1674   -0.6037 C   0  0  0  0  0  0  0  0  0  0  0  0
   -4.6996   -2.1663   -2.0249 C   0  0  0  0  0  0  0  0  0  0  0  0
   -3.4712   -2.2463   -2.6394 C   0  0  0  0  0  0  0  0  0  0  0  0
   -2.1921   -2.3280   -1.5078 S   0  0  0  0  0  0  0  0  0  0  0  0
   -2.1137    0.2192    1.4500 N   0  0  0  0  0  0  0  0  0  0  0  0
   -3.3706    0.8193    1.1874 C   0  0  0  0  0  0  0  0  0  0  0  0
   -3.4873    1.8150    0.2104 C   0  0  0  0  0  0  0  0  0  0  0  0
   -4.7320    2.3994   -0.0375 C   0  0  0  0  0  0  0  0  0  0  0  0
   -5.8517    2.0044    0.6947 C   0  0  0  0  0  0  0  0  0  0  0  0
   -5.7355    1.0161    1.6703 C   0  0  0  0  0  0  0  0  0  0  0  0
   -4.4971    0.4187    1.9182 C   0  0  0  0  0  0  0  0  0  0  0  0
    4.6105    1.3157    0.1123 C   0  0  0  0  0  0  0  0  0  0  0  0
    5.6773    0.7107   -0.5620 C   0  0  0  0  0  0  0  0  0  0  0  0
    5.7127   -0.6795   -3.3992 H   0  0  0  0  0  0  0  0  0  0  0  0
    7.3730   -0.4453   -3.6344 H   0  0  0  0  0  0  0  0  0  0  0  0
    4.5364   -2.5075   -0.5773 H   0  0  0  0  0  0  0  0  0  0  0  0
    2.6753   -1.4403    0.6350 H   0  0  0  0  0  0  0  0  0  0  0  0
    1.7599    0.4023    1.6284 H   0  0  0  0  0  0  0  0  0  0  0  0
    1.1458    3.6164    2.9587 H   0  0  0  0  0  0  0  0  0  0  0  0
    1.1068    1.9034    3.3421 H   0  0  0  0  0  0  0  0  0  0  0  0
   -2.2259   -3.2164    1.3891 H   0  0  0  0  0  0  0  0  0  0  0  0
   -3.5930   -2.2901    1.9479 H   0  0  0  0  0  0  0  0  0  0  0  0
   -5.4366   -2.1095    0.0713 H   0  0  0  0  0  0  0  0  0  0  0  0
   -5.6350   -2.1086   -2.5688 H   0  0  0  0  0  0  0  0  0  0  0  0
   -3.2622   -2.2646   -3.7021 H   0  0  0  0  0  0  0  0  0  0  0  0
   -2.6350    2.1272   -0.3958 H   0  0  0  0  0  0  0  0  0  0  0  0
   -4.8267    3.1653   -0.8030 H   0  0  0  0  0  0  0  0  0  0  0  0
   -6.8187    2.4674    0.5021 H   0  0  0  0  0  0  0  0  0  0  0  0
   -6.6124    0.7192    2.2484 H   0  0  0  0  0  0  0  0  0  0  0  0
   -4.4300   -0.3186    2.7139 H   0  0  0  0  0  0  0  0  0  0  0  0
    4.6710    2.3820    0.3084 H   0  0  0  0  0  0  0  0  0  0  0  0
    6.5341    1.3152   -0.8583 H   0  0  0  0  0  0  0  0  0  0  0  0
  1  2  1  0
  2  3  2  0
  2  4  2  0
  2  5  1  0
  5  6  2  0
  6  7  1  0
  7  8  2  0
  8  9  1  0
  9 10  1  0
 10 11  2  0
 10 12  1  0
 12 13  1  0
 13 14  1  0
 14 15  2  0
 15 16  1  0
 16 17  2  0
 17 18  1  0
 18 19  1  0
 19 20  2  0
 20 21  1  0
 21 22  2  0
 22 23  1  0
 17 24  1  0
 24 25  1  0
 25 26  2  0
 26 27  1  0
 27 28  2  0
 28 29  1  0
 29 30  2  0
  8 31  1  0
 31 32  2  0
 32  5  1  0
 24 14  1  0
 30 25  1  0
 23 19  1  0
  1 33  1  0
  1 34  1  0
  6 35  1  0
  7 36  1  0
  9 37  1  0
 12 38  1  0
 12 39  1  0
 18 40  1  0
 18 41  1  0
 20 42  1  0
 21 43  1  0
 22 44  1  0
 26 45  1  0
 27 46  1  0
 28 47  1  0
 29 48  1  0
 30 49  1  0
 31 50  1  0
 32 51  1  0
M  END
$$$$
