
     RDKit          3D

 74 75  0  0  0  0  0  0  0  0999 V2000
   -2.4351    5.5547    1.6000 C   0  0  0  0  0  0  0  0  0  0  0  0
   -2.4735    4.1460    1.8009 O   0  0  0  0  0  0  0  0  0  0  0  0
   -1.2761    3.4739    1.7702 C   0  0  0  0  0  0  0  0  0  0  0  0
   -0.0357    4.1023    1.8935 C   0  0  0  0  0  0  0  0  0  0  0  0
    1.1357    3.3495    1.9084 C   0  0  0  0  0  0  0  0  0  0  0  0
    1.0733    1.9616    1.8108 C   0  0  0  0  0  0  0  0  0  0  0  0
   -0.1600    1.2858    1.6764 C   0  0  0  0  0  0  0  0  0  0  0  0
   -0.1080   -0.2441    1.6074 C   0  0  0  0  0  0  0  0  0  0  0  0
   -1.4242   -1.0716    1.5472 C   0  0  0  0  0  0  0  0  0  0  0  0
   -1.7934   -1.6681    0.5367 O   0  0  0  0  0  0  0  0  0  0  0  0
   -2.1006   -1.1422    2.7597 N   0  0  0  0  0  0  0  0  0  0  0  0
   -3.3354   -1.9119    2.9801 C   0  0  0  0  0  0  0  0  0  0  0  0
   -3.1103   -3.4094    2.7042 C   0  0  0  0  0  0  0  0  0  0  0  0
   -4.4915   -1.3855    2.1168 C   0  0  0  0  0  0  0  0  0  0  0  0
   -3.7236   -1.7547    4.4632 C   0  0  0  0  0  0  0  0  0  0  0  0
    0.8913   -0.7837    0.6223 N   0  0  0  0  0  0  0  0  0  0  0  0
    0.6906   -0.6111   -0.7621 C   0  0  0  0  0  0  0  0  0  0  0  0
    1.2566   -1.3128   -1.6071 O   0  0  0  0  0  0  0  0  0  0  0  0
   -0.1938    0.5311   -1.2395 C   0  0  0  0  0  0  0  0  0  0  0  0
   -0.4093    0.5265   -2.7506 C   0  0  0  0  0  0  0  0  0  0  0  0
    0.7971    1.0711   -3.4988 C   0  0  0  0  0  0  0  0  0  0  0  0
    0.8677    2.2658   -3.7722 O   0  0  0  0  0  0  0  0  0  0  0  0
    1.7239    0.0899   -3.7830 N   0  0  0  0  0  0  0  0  0  0  0  0
    2.8909    0.2693   -4.4958 C   0  0  0  0  0  0  0  0  0  0  0  0
    3.8265   -0.7717   -4.7214 C   0  0  0  0  0  0  0  0  0  0  0  0
    4.8043   -0.2012   -5.4953 C   0  0  0  0  0  0  0  0  0  0  0  0
    6.0386   -0.7039   -6.1207 C   0  0  0  0  0  0  0  0  0  0  0  0
    4.5091    1.1134   -5.6781 O   0  0  0  0  0  0  0  0  0  0  0  0
    3.3043    1.4049   -5.0679 N   0  0  0  0  0  0  0  0  0  0  0  0
    1.8558   -1.8657    1.0701 C   0  0  0  0  0  0  0  0  0  0  0  0
    3.2630   -1.6116    0.4756 C   0  0  0  0  0  0  0  0  0  0  0  0
    1.3555   -3.2665    0.6581 C   0  0  0  0  0  0  0  0  0  0  0  0
    2.0845   -1.9132    2.6035 C   0  0  0  0  0  0  0  0  0  0  0  0
   -1.3330    2.0644    1.6508 C   0  0  0  0  0  0  0  0  0  0  0  0
   -2.5308    1.4000    1.5703 O   0  0  0  0  0  0  0  0  0  0  0  0
   -3.3758    1.8540    0.5093 C   0  0  0  0  0  0  0  0  0  0  0  0
   -1.8688    5.8171    0.6989 H   0  0  0  0  0  0  0  0  0  0  0  0
   -2.0287    6.0599    2.4836 H   0  0  0  0  0  0  0  0  0  0  0  0
   -3.4653    5.9003    1.4561 H   0  0  0  0  0  0  0  0  0  0  0  0
    0.0531    5.1789    1.9955 H   0  0  0  0  0  0  0  0  0  0  0  0
    2.0986    3.8462    2.0006 H   0  0  0  0  0  0  0  0  0  0  0  0
    2.0052    1.3981    1.8322 H   0  0  0  0  0  0  0  0  0  0  0  0
    0.2679   -0.4738    2.6077 H   0  0  0  0  0  0  0  0  0  0  0  0
   -1.9889   -0.3165    3.3408 H   0  0  0  0  0  0  0  0  0  0  0  0
   -2.8998   -3.6080    1.6475 H   0  0  0  0  0  0  0  0  0  0  0  0
   -3.9957   -3.9960    2.9739 H   0  0  0  0  0  0  0  0  0  0  0  0
   -2.2651   -3.7919    3.2869 H   0  0  0  0  0  0  0  0  0  0  0  0
   -5.4184   -1.9332    2.3266 H   0  0  0  0  0  0  0  0  0  0  0  0
   -4.2879   -1.4780    1.0448 H   0  0  0  0  0  0  0  0  0  0  0  0
   -4.6777   -0.3255    2.3197 H   0  0  0  0  0  0  0  0  0  0  0  0
   -2.9193   -2.0989    5.1244 H   0  0  0  0  0  0  0  0  0  0  0  0
   -4.6235   -2.3314    4.7055 H   0  0  0  0  0  0  0  0  0  0  0  0
   -3.9208   -0.7030    4.7092 H   0  0  0  0  0  0  0  0  0  0  0  0
   -1.1795    0.4378   -0.7799 H   0  0  0  0  0  0  0  0  0  0  0  0
    0.2736    1.4700   -0.9461 H   0  0  0  0  0  0  0  0  0  0  0  0
   -0.6618   -0.4710   -3.1273 H   0  0  0  0  0  0  0  0  0  0  0  0
   -1.2600    1.1760   -2.9949 H   0  0  0  0  0  0  0  0  0  0  0  0
    1.6557   -0.7712   -3.2497 H   0  0  0  0  0  0  0  0  0  0  0  0
    3.7672   -1.8014   -4.4023 H   0  0  0  0  0  0  0  0  0  0  0  0
    5.8648   -1.6816   -6.5830 H   0  0  0  0  0  0  0  0  0  0  0  0
    6.8333   -0.8093   -5.3736 H   0  0  0  0  0  0  0  0  0  0  0  0
    6.3955   -0.0231   -6.9000 H   0  0  0  0  0  0  0  0  0  0  0  0
    3.6367   -0.6250    0.7669 H   0  0  0  0  0  0  0  0  0  0  0  0
    3.2896   -1.6588   -0.6121 H   0  0  0  0  0  0  0  0  0  0  0  0
    3.9824   -2.3575    0.8280 H   0  0  0  0  0  0  0  0  0  0  0  0
    1.2907   -3.3928   -0.4242 H   0  0  0  0  0  0  0  0  0  0  0  0
    0.3578   -3.4598    1.0703 H   0  0  0  0  0  0  0  0  0  0  0  0
    2.0257   -4.0511    1.0265 H   0  0  0  0  0  0  0  0  0  0  0  0
    2.8842   -2.6185    2.8702 H   0  0  0  0  0  0  0  0  0  0  0  0
    1.1932   -2.2476    3.1430 H   0  0  0  0  0  0  0  0  0  0  0  0
    2.3823   -0.9308    2.9925 H   0  0  0  0  0  0  0  0  0  0  0  0
   -2.8360    2.3684   -0.2943 H   0  0  0  0  0  0  0  0  0  0  0  0
   -3.8551    0.9730    0.0695 H   0  0  0  0  0  0  0  0  0  0  0  0
   -4.1639    2.4948    0.9132 H   0  0  0  0  0  0  0  0  0  0  0  0
  1  2  1  0
  2  3  1  0
  3  4  2  0
  4  5  1  0
  5  6  2  0
  6  7  1  0
  7  8  1  0
  8  9  1  0
  9 10  2  0
  9 11  1  0
 11 12  1  0
 12 13  1  0
 12 14  1  0
 12 15  1  0
  8 16  1  0
 16 17  1  0
 17 18  2  0
 17 19  1  0
 19 20  1  0
 20 21  1  0
 21 22  2  0
 21 23  1  0
 23 24  1  0
 24 25  1  0
 25 26  2  0
 26 27  1  0
 26 28  1  0
 28 29  1  0
 16 30  1  0
 30 31  1  0
 30 32  1  0
 30 33  1  0
  7 34  2  0
 34 35  1  0
 35 36  1  0
 34  3  1  0
 29 24  2  0
  1 37  1  0
  1 38  1  0
  1 39  1  0
  4 40  1  0
  5 41  1  0
  6 42  1  0
  8 43  1  0
 11 44  1  0
 13 45  1  0
 13 46  1  0
 13 47  1  0
 14 48  1  0
 14 49  1  0
 14 50  1  0
 15 51  1  0
 15 52  1  0
 15 53  1  0
 19 54  1  0
 19 55  1  0
 20 56  1  0
 20 57  1  0
 23 58  1  0
 25 59  1  0
 27 60  1  0
 27 61  1  0
 27 62  1  0
 31 63  1  0
 31 64  1  0
 31 65  1  0
 32 66  1  0
 32 67  1  0
 32 68  1  0
 33 69  1  0
 33 70  1  0
 33 71  1  0
 36 72  1  0
 36 73  1  0
 36 74  1  0
M  END
$$$$
