
     RDKit          3D

 70 75  0  0  0  0  0  0  0  0999 V2000
   -5.1581   -3.4294    2.6252 C   0  0  0  0  0  0  0  0  0  0  0  0
   -4.0934   -2.7643    1.7929 C   0  0  0  0  0  0  0  0  0  0  0  0
   -3.4463   -1.6191    2.3178 C   0  0  0  0  0  0  0  0  0  0  0  0
   -2.4565   -0.9461    1.5998 C   0  0  0  0  0  0  0  0  0  0  0  0
   -2.1219   -1.4246    0.3459 C   0  0  0  0  0  0  0  0  0  0  0  0
   -2.7431   -2.5703   -0.1681 C   0  0  0  0  0  0  0  0  0  0  0  0
   -3.7184   -3.2761    0.5288 C   0  0  0  0  0  0  0  0  0  0  0  0
   -4.3829   -4.4839   -0.0638 C   0  0  0  0  0  0  0  0  0  0  0  0
   -2.2225   -2.8626   -1.4288 N   0  0  0  0  0  0  0  0  0  0  0  0
   -1.2433   -1.9427   -1.8107 C   0  0  0  0  0  0  0  0  0  0  0  0
   -0.6147   -1.9913   -2.8584 O   0  0  0  0  0  0  0  0  0  0  0  0
   -1.1199   -0.9246   -0.6507 C   0  0  1  0  0  0  0  0  0  0  0  0
   -1.4496    0.4686   -1.0478 C   0  0  0  0  0  0  0  0  0  0  0  0
   -0.2727    1.2280   -1.1517 C   0  0  0  0  0  0  0  0  0  0  0  0
   -0.5948    2.5136   -1.4785 C   0  0  0  0  0  0  0  0  0  0  0  0
    0.2174    3.5647   -1.5699 O   0  0  0  0  0  0  0  0  0  0  0  0
   -1.9936    2.5513   -1.6423 N   0  0  0  0  0  0  0  0  0  0  0  0
   -2.7616    3.6979   -1.9998 C   0  0  0  0  0  0  0  0  0  0  0  0
   -2.2795    4.5962   -2.9609 C   0  0  0  0  0  0  0  0  0  0  0  0
   -3.0371    5.7162   -3.3076 C   0  0  0  0  0  0  0  0  0  0  0  0
   -4.2705    5.9434   -2.6978 C   0  0  0  0  0  0  0  0  0  0  0  0
   -4.7523    5.0513   -1.7404 C   0  0  0  0  0  0  0  0  0  0  0  0
   -4.0026    3.9273   -1.3903 C   0  0  0  0  0  0  0  0  0  0  0  0
   -2.5085    1.2607   -1.4016 C   0  0  0  0  0  0  0  0  0  0  0  0
   -3.7819    0.9069   -1.5698 O   0  0  0  0  0  0  0  0  0  0  0  0
    0.9049    0.3834   -0.8762 C   0  0  1  0  0  0  0  0  0  0  0  0
    2.0492    0.9423   -0.0399 C   0  0  0  0  0  0  0  0  0  0  0  0
    3.0002   -0.1278    0.3242 N   0  0  0  0  0  0  0  0  0  0  0  0
    4.2873    0.2480    0.6712 C   0  0  0  0  0  0  0  0  0  0  0  0
    4.7299    1.3783    0.5136 O   0  0  0  0  0  0  0  0  0  0  0  0
    4.9936   -0.7834    1.2029 O   0  0  0  0  0  0  0  0  0  0  0  0
    6.3697   -0.6098    1.6265 C   0  0  0  0  0  0  0  0  0  0  0  0
    7.2754   -0.2421    0.4459 C   0  0  0  0  0  0  0  0  0  0  0  0
    6.7891   -1.9912    2.1531 C   0  0  0  0  0  0  0  0  0  0  0  0
    6.4785    0.4023    2.7720 C   0  0  0  0  0  0  0  0  0  0  0  0
    2.4210   -1.4044    0.7871 C   0  0  0  0  0  0  0  0  0  0  0  0
    1.1612   -1.8571    0.0043 C   0  0  0  0  0  0  0  0  0  0  0  0
    0.2518   -0.7328   -0.1182 N   0  0  0  0  0  0  0  0  0  0  0  0
   -6.0541   -3.6192    2.0252 H   0  0  0  0  0  0  0  0  0  0  0  0
   -4.7822   -4.3734    3.0320 H   0  0  0  0  0  0  0  0  0  0  0  0
   -5.4644   -2.7960    3.4648 H   0  0  0  0  0  0  0  0  0  0  0  0
   -3.7233   -1.2401    3.3003 H   0  0  0  0  0  0  0  0  0  0  0  0
   -1.9695   -0.0659    2.0080 H   0  0  0  0  0  0  0  0  0  0  0  0
   -4.6158   -5.2274    0.7047 H   0  0  0  0  0  0  0  0  0  0  0  0
   -5.3082   -4.1906   -0.5692 H   0  0  0  0  0  0  0  0  0  0  0  0
   -3.7347   -4.9895   -0.7861 H   0  0  0  0  0  0  0  0  0  0  0  0
   -2.4997   -3.6293   -2.0206 H   0  0  0  0  0  0  0  0  0  0  0  0
   -0.3016    4.3801   -1.4502 H   0  0  0  0  0  0  0  0  0  0  0  0
   -1.3422    4.4179   -3.4852 H   0  0  0  0  0  0  0  0  0  0  0  0
   -2.6702    6.4076   -4.0628 H   0  0  0  0  0  0  0  0  0  0  0  0
   -4.8575    6.8174   -2.9698 H   0  0  0  0  0  0  0  0  0  0  0  0
   -5.7096    5.2375   -1.2592 H   0  0  0  0  0  0  0  0  0  0  0  0
   -4.3814    3.2691   -0.6099 H   0  0  0  0  0  0  0  0  0  0  0  0
   -4.2173    1.5532   -2.1538 H   0  0  0  0  0  0  0  0  0  0  0  0
    1.2953    0.0075   -1.8331 H   0  0  0  0  0  0  0  0  0  0  0  0
    2.5718    1.7332   -0.5899 H   0  0  0  0  0  0  0  0  0  0  0  0
    1.6853    1.3866    0.8956 H   0  0  0  0  0  0  0  0  0  0  0  0
    7.0738    0.7667    0.0734 H   0  0  0  0  0  0  0  0  0  0  0  0
    8.3332   -0.2806    0.7282 H   0  0  0  0  0  0  0  0  0  0  0  0
    7.1140   -0.9257   -0.3953 H   0  0  0  0  0  0  0  0  0  0  0  0
    7.8255   -1.9947    2.5069 H   0  0  0  0  0  0  0  0  0  0  0  0
    6.6872   -2.7534    1.3718 H   0  0  0  0  0  0  0  0  0  0  0  0
    6.1404   -2.3069    2.9787 H   0  0  0  0  0  0  0  0  0  0  0  0
    7.4850    0.4078    3.2044 H   0  0  0  0  0  0  0  0  0  0  0  0
    6.2605    1.4216    2.4401 H   0  0  0  0  0  0  0  0  0  0  0  0
    5.7594    0.1698    3.5656 H   0  0  0  0  0  0  0  0  0  0  0  0
    2.1669   -1.2639    1.8456 H   0  0  0  0  0  0  0  0  0  0  0  0
    3.1750   -2.1969    0.7341 H   0  0  0  0  0  0  0  0  0  0  0  0
    0.6926   -2.6848    0.5481 H   0  0  0  0  0  0  0  0  0  0  0  0
    1.4626   -2.2339   -0.9805 H   0  0  0  0  0  0  0  0  0  0  0  0
  1  2  1  0
  2  3  2  0
  3  4  1  0
  4  5  2  0
  5  6  1  0
  6  7  2  0
  7  8  1  0
  6  9  1  0
  9 10  1  0
 10 11  2  0
 10 12  1  0
 12 13  1  0
 13 14  1  0
 14 15  2  0
 15 16  1  0
 15 17  1  0
 17 18  1  0
 18 19  2  0
 19 20  1  0
 20 21  2  0
 21 22  1  0
 22 23  2  0
 17 24  1  0
 24 25  1  0
 14 26  1  0
 26 27  1  0
 27 28  1  0
 28 29  1  0
 29 30  2  0
 29 31  1  0
 31 32  1  0
 32 33  1  0
 32 34  1  0
 32 35  1  0
 28 36  1  0
 36 37  1  0
 37 38  1  0
  7  2  1  0
 12 38  1  1
 12  5  1  0
 24 13  2  0
 38 26  1  0
 23 18  1  0
  1 39  1  0
  1 40  1  0
  1 41  1  0
  3 42  1  0
  4 43  1  0
  8 44  1  0
  8 45  1  0
  8 46  1  0
  9 47  1  0
 16 48  1  0
 19 49  1  0
 20 50  1  0
 21 51  1  0
 22 52  1  0
 23 53  1  0
 25 54  1  0
 26 55  1  6
 27 56  1  0
 27 57  1  0
 33 58  1  0
 33 59  1  0
 33 60  1  0
 34 61  1  0
 34 62  1  0
 34 63  1  0
 35 64  1  0
 35 65  1  0
 35 66  1  0
 36 67  1  0
 36 68  1  0
 37 69  1  0
 37 70  1  0
M  END
$$$$
