
     RDKit          3D

 62 67  0  0  0  0  0  0  0  0999 V2000
   -4.4242   -3.7751    1.0900 C   0  0  0  0  0  0  0  0  0  0  0  0
   -3.9677   -2.4403    1.2611 O   0  0  0  0  0  0  0  0  0  0  0  0
   -3.3890   -2.1196    2.4639 C   0  0  0  0  0  0  0  0  0  0  0  0
   -3.0328   -3.0563    3.4417 C   0  0  0  0  0  0  0  0  0  0  0  0
   -2.4225   -2.6450    4.6304 C   0  0  0  0  0  0  0  0  0  0  0  0
   -2.1578   -1.2971    4.8533 C   0  0  0  0  0  0  0  0  0  0  0  0
   -2.5051   -0.3548    3.8871 C   0  0  0  0  0  0  0  0  0  0  0  0
   -3.1232   -0.7531    2.6903 C   0  0  0  0  0  0  0  0  0  0  0  0
   -3.4619    0.2763    1.6980 C   0  0  0  0  0  0  0  0  0  0  0  0
   -5.0641    0.8677    1.6604 S   0  0  0  0  0  0  0  0  0  0  0  0
   -4.7250    1.9669    0.3819 C   0  0  0  0  0  0  0  0  0  0  0  0
   -5.6427    2.8550   -0.2218 C   0  0  0  0  0  0  0  0  0  0  0  0
   -5.1546    3.6526   -1.2360 C   0  0  0  0  0  0  0  0  0  0  0  0
   -3.8516    3.5954   -1.6480 C   0  0  0  0  0  0  0  0  0  0  0  0
   -2.9378    2.7340   -1.0731 C   0  0  0  0  0  0  0  0  0  0  0  0
   -3.3809    1.8886   -0.0175 C   0  0  0  0  0  0  0  0  0  0  0  0
   -2.6594    0.9037    0.7599 C   0  0  0  0  0  0  0  0  0  0  0  0
   -1.2454    0.5737    0.6207 C   0  0  0  0  0  0  0  0  0  0  0  0
   -0.8543   -0.6586    0.0867 C   0  0  0  0  0  0  0  0  0  0  0  0
    0.5024   -0.9720   -0.0514 C   0  0  0  0  0  0  0  0  0  0  0  0
    1.4771   -0.0526    0.3379 C   0  0  0  0  0  0  0  0  0  0  0  0
    2.8300   -0.2317    0.2596 O   0  0  0  0  0  0  0  0  0  0  0  0
    3.2939   -1.4281   -0.3674 C   0  0  0  0  0  0  0  0  0  0  0  0
    4.8356   -1.4248   -0.4096 C   0  0  0  0  0  0  0  0  0  0  0  0
    5.4455   -0.3499   -1.2152 N   0  0  0  0  0  0  0  0  0  0  0  0
    5.0012   -0.3719   -2.6240 C   0  0  0  0  0  0  0  0  0  0  0  0
    6.0137    0.3101   -3.5565 C   0  0  0  0  0  0  0  0  0  0  0  0
    7.2768   -0.3690   -3.5855 O   0  0  0  0  0  0  0  0  0  0  0  0
    7.5982   -1.0110   -2.3438 C   0  0  0  0  0  0  0  0  0  0  0  0
    6.9204   -0.3612   -1.1270 C   0  0  0  0  0  0  0  0  0  0  0  0
    1.0834    1.1785    0.8693 C   0  0  0  0  0  0  0  0  0  0  0  0
   -0.2698    1.4953    1.0097 C   0  0  0  0  0  0  0  0  0  0  0  0
   -3.5858    4.4655   -2.6598 O   0  0  0  0  0  0  0  0  0  0  0  0
   -4.8778    5.0818   -2.8336 C   0  0  0  0  0  0  0  0  0  0  0  0
   -5.8813    4.5674   -1.9347 O   0  0  0  0  0  0  0  0  0  0  0  0
   -5.1372   -4.0568    1.8724 H   0  0  0  0  0  0  0  0  0  0  0  0
   -4.9464   -3.8285    0.1302 H   0  0  0  0  0  0  0  0  0  0  0  0
   -3.5829   -4.4747    1.0492 H   0  0  0  0  0  0  0  0  0  0  0  0
   -3.2078   -4.1182    3.3063 H   0  0  0  0  0  0  0  0  0  0  0  0
   -2.1487   -3.3818    5.3817 H   0  0  0  0  0  0  0  0  0  0  0  0
   -1.6791   -0.9787    5.7756 H   0  0  0  0  0  0  0  0  0  0  0  0
   -2.2912    0.6967    4.0667 H   0  0  0  0  0  0  0  0  0  0  0  0
   -6.6775    2.9068    0.0956 H   0  0  0  0  0  0  0  0  0  0  0  0
   -1.9109    2.7052   -1.4226 H   0  0  0  0  0  0  0  0  0  0  0  0
   -1.6047   -1.3837   -0.2218 H   0  0  0  0  0  0  0  0  0  0  0  0
    0.7590   -1.9422   -0.4621 H   0  0  0  0  0  0  0  0  0  0  0  0
    2.8850   -1.5199   -1.3803 H   0  0  0  0  0  0  0  0  0  0  0  0
    2.9759   -2.2942    0.2261 H   0  0  0  0  0  0  0  0  0  0  0  0
    5.1849   -1.3113    0.6248 H   0  0  0  0  0  0  0  0  0  0  0  0
    5.1793   -2.4034   -0.7683 H   0  0  0  0  0  0  0  0  0  0  0  0
    4.8732   -1.4075   -2.9653 H   0  0  0  0  0  0  0  0  0  0  0  0
    4.0353    0.1375   -2.7066 H   0  0  0  0  0  0  0  0  0  0  0  0
    6.1867    1.3504   -3.2574 H   0  0  0  0  0  0  0  0  0  0  0  0
    5.6291    0.3269   -4.5813 H   0  0  0  0  0  0  0  0  0  0  0  0
    7.3151   -2.0667   -2.4252 H   0  0  0  0  0  0  0  0  0  0  0  0
    8.6865   -0.9751   -2.2307 H   0  0  0  0  0  0  0  0  0  0  0  0
    7.2685   -0.8384   -0.2033 H   0  0  0  0  0  0  0  0  0  0  0  0
    7.2452    0.6854   -1.0706 H   0  0  0  0  0  0  0  0  0  0  0  0
    1.8397    1.8977    1.1748 H   0  0  0  0  0  0  0  0  0  0  0  0
   -0.5527    2.4588    1.4262 H   0  0  0  0  0  0  0  0  0  0  0  0
   -4.7770    6.1603   -2.6666 H   0  0  0  0  0  0  0  0  0  0  0  0
   -5.2109    4.9149   -3.8643 H   0  0  0  0  0  0  0  0  0  0  0  0
  1  2  1  0
  2  3  1  0
  3  4  2  0
  4  5  1  0
  5  6  2  0
  6  7  1  0
  7  8  2  0
  8  9  1  0
  9 10  1  0
 10 11  1  0
 11 12  2  0
 12 13  1  0
 13 14  2  0
 14 15  1  0
 15 16  2  0
 16 17  1  0
 17 18  1  0
 18 19  2  0
 19 20  1  0
 20 21  2  0
 21 22  1  0
 22 23  1  0
 23 24  1  0
 24 25  1  0
 25 26  1  0
 26 27  1  0
 27 28  1  0
 28 29  1  0
 29 30  1  0
 21 31  1  0
 31 32  2  0
 14 33  1  0
 33 34  1  0
 34 35  1  0
  8  3  1  0
 17  9  2  0
 32 18  1  0
 16 11  1  0
 30 25  1  0
 35 13  1  0
  1 36  1  0
  1 37  1  0
  1 38  1  0
  4 39  1  0
  5 40  1  0
  6 41  1  0
  7 42  1  0
 12 43  1  0
 15 44  1  0
 19 45  1  0
 20 46  1  0
 23 47  1  0
 23 48  1  0
 24 49  1  0
 24 50  1  0
 26 51  1  0
 26 52  1  0
 27 53  1  0
 27 54  1  0
 29 55  1  0
 29 56  1  0
 30 57  1  0
 30 58  1  0
 31 59  1  0
 32 60  1  0
 34 61  1  0
 34 62  1  0
M  END
$$$$
