
     RDKit          3D

 57 60  0  0  0  0  0  0  0  0999 V2000
   -4.0200   -2.7729    1.2981 C   0  0  0  0  0  0  0  0  0  0  0  0
   -4.7001   -2.0358    0.1449 C   0  0  0  0  0  0  0  0  0  0  0  0
   -5.8455   -2.8849   -0.4095 C   0  0  0  0  0  0  0  0  0  0  0  0
   -3.6755   -1.7280   -0.9484 C   0  0  0  0  0  0  0  0  0  0  0  0
   -3.5605   -2.4688   -1.9274 O   0  0  0  0  0  0  0  0  0  0  0  0
   -2.8526   -0.6232   -0.7845 N   0  0  0  0  0  0  0  0  0  0  0  0
   -1.8582   -0.3464   -1.8323 C   0  0  0  0  0  0  0  0  0  0  0  0
   -1.3993    1.1214   -1.8495 C   0  0  0  0  0  0  0  0  0  0  0  0
   -0.8445    1.5029   -0.5329 N   0  0  0  0  0  0  0  0  0  0  0  0
   -0.5007    2.8725   -0.4112 C   0  0  0  0  0  0  0  0  0  0  0  0
   -1.4133    3.9061   -0.6644 C   0  0  0  0  0  0  0  0  0  0  0  0
   -1.0369    5.2404   -0.4975 C   0  0  0  0  0  0  0  0  0  0  0  0
    0.2519    5.5555   -0.0704 C   0  0  0  0  0  0  0  0  0  0  0  0
    1.1736    4.5405    0.1946 C   0  0  0  0  0  0  0  0  0  0  0  0
    0.8051    3.2056    0.0298 C   0  0  0  0  0  0  0  0  0  0  0  0
    1.6685    2.1131    0.2550 N   0  0  0  0  0  0  0  0  0  0  0  0
    2.9523    2.1215    0.7500 C   0  0  0  0  0  0  0  0  0  0  0  0
    3.5710    3.0962    1.1615 O   0  0  0  0  0  0  0  0  0  0  0  0
    3.6085    0.7833    0.8157 C   0  0  0  0  0  0  0  0  0  0  0  0
    4.5385    0.5456    1.8380 C   0  0  0  0  0  0  0  0  0  0  0  0
    5.1802   -0.6915    1.9334 C   0  0  0  0  0  0  0  0  0  0  0  0
    4.9045   -1.6880    1.0006 C   0  0  0  0  0  0  0  0  0  0  0  0
    3.9683   -1.4591   -0.0141 C   0  0  0  0  0  0  0  0  0  0  0  0
    3.3343   -0.2217   -0.1216 C   0  0  0  0  0  0  0  0  0  0  0  0
    3.6331   -2.4018   -0.9525 O   0  0  0  0  0  0  0  0  0  0  0  0
    4.0704   -3.7087   -0.5615 C   0  0  0  0  0  0  0  0  0  0  0  0
    5.4997   -3.6658   -0.0471 C   0  0  0  0  0  0  0  0  0  0  0  0
    5.5865   -2.8691    1.1404 O   0  0  0  0  0  0  0  0  0  0  0  0
   -1.5864    0.9992    0.6499 C   0  0  0  0  0  0  0  0  0  0  0  0
   -2.9499    0.3805    0.2868 C   0  0  0  0  0  0  0  0  0  0  0  0
   -3.1785   -2.2065    1.7080 H   0  0  0  0  0  0  0  0  0  0  0  0
   -3.6227   -3.7392    0.9664 H   0  0  0  0  0  0  0  0  0  0  0  0
   -4.7286   -2.9592    2.1116 H   0  0  0  0  0  0  0  0  0  0  0  0
   -5.1399   -1.0989    0.5018 H   0  0  0  0  0  0  0  0  0  0  0  0
   -6.6064   -3.0580    0.3586 H   0  0  0  0  0  0  0  0  0  0  0  0
   -5.4924   -3.8608   -0.7611 H   0  0  0  0  0  0  0  0  0  0  0  0
   -6.3267   -2.3811   -1.2547 H   0  0  0  0  0  0  0  0  0  0  0  0
   -1.0039   -1.0058   -1.6350 H   0  0  0  0  0  0  0  0  0  0  0  0
   -2.2672   -0.6147   -2.8128 H   0  0  0  0  0  0  0  0  0  0  0  0
   -2.2558    1.7495   -2.1226 H   0  0  0  0  0  0  0  0  0  0  0  0
   -0.6288    1.2491   -2.6194 H   0  0  0  0  0  0  0  0  0  0  0  0
   -2.4290    3.6871   -0.9782 H   0  0  0  0  0  0  0  0  0  0  0  0
   -1.7507    6.0358   -0.6971 H   0  0  0  0  0  0  0  0  0  0  0  0
    0.5449    6.5947    0.0587 H   0  0  0  0  0  0  0  0  0  0  0  0
    2.1712    4.8178    0.5203 H   0  0  0  0  0  0  0  0  0  0  0  0
    1.2108    1.2288    0.0532 H   0  0  0  0  0  0  0  0  0  0  0  0
    4.7663    1.3268    2.5607 H   0  0  0  0  0  0  0  0  0  0  0  0
    5.9043   -0.8700    2.7237 H   0  0  0  0  0  0  0  0  0  0  0  0
    2.6465   -0.0553   -0.9457 H   0  0  0  0  0  0  0  0  0  0  0  0
    4.0039   -4.3573   -1.4405 H   0  0  0  0  0  0  0  0  0  0  0  0
    3.3807   -4.0932    0.2000 H   0  0  0  0  0  0  0  0  0  0  0  0
    6.1841   -3.2500   -0.7972 H   0  0  0  0  0  0  0  0  0  0  0  0
    5.8413   -4.6746    0.2048 H   0  0  0  0  0  0  0  0  0  0  0  0
   -0.9623    0.2228    1.1099 H   0  0  0  0  0  0  0  0  0  0  0  0
   -1.7353    1.7755    1.4115 H   0  0  0  0  0  0  0  0  0  0  0  0
   -3.3993   -0.0422    1.1866 H   0  0  0  0  0  0  0  0  0  0  0  0
   -3.6297    1.1603   -0.0787 H   0  0  0  0  0  0  0  0  0  0  0  0
  1  2  1  0
  2  3  1  0
  2  4  1  0
  4  5  2  0
  4  6  1  0
  6  7  1  0
  7  8  1  0
  8  9  1  0
  9 10  1  0
 10 11  2  0
 11 12  1  0
 12 13  2  0
 13 14  1  0
 14 15  2  0
 15 16  1  0
 16 17  1  0
 17 18  2  0
 17 19  1  0
 19 20  2  0
 20 21  1  0
 21 22  2  0
 22 23  1  0
 23 24  2  0
 23 25  1  0
 25 26  1  0
 26 27  1  0
 27 28  1  0
  9 29  1  0
 29 30  1  0
 30  6  1  0
 15 10  1  0
 24 19  1  0
 28 22  1  0
  1 31  1  0
  1 32  1  0
  1 33  1  0
  2 34  1  0
  3 35  1  0
  3 36  1  0
  3 37  1  0
  7 38  1  0
  7 39  1  0
  8 40  1  0
  8 41  1  0
 11 42  1  0
 12 43  1  0
 13 44  1  0
 14 45  1  0
 16 46  1  0
 20 47  1  0
 21 48  1  0
 24 49  1  0
 26 50  1  0
 26 51  1  0
 27 52  1  0
 27 53  1  0
 29 54  1  0
 29 55  1  0
 30 56  1  0
 30 57  1  0
M  END
$$$$
