
     RDKit          3D

 51 55  0  0  0  0  0  0  0  0999 V2000
    8.6987    0.6551    0.4135 Cl  0  0  0  0  0  0  0  0  0  0  0  0
    6.9973    0.9085    0.2495 C   0  0  0  0  0  0  0  0  0  0  0  0
    6.5156    1.2961   -1.0039 C   0  0  0  0  0  0  0  0  0  0  0  0
    5.1495    1.5151   -1.1964 C   0  0  0  0  0  0  0  0  0  0  0  0
    4.2488    1.3532   -0.1361 C   0  0  0  0  0  0  0  0  0  0  0  0
    2.7674    1.5731   -0.3461 C   0  0  0  0  0  0  0  0  0  0  0  0
    2.0084    0.2902   -0.7400 C   0  0  0  0  0  0  0  0  0  0  0  0
    1.8793   -0.6897    0.3555 N   0  0  0  0  0  0  0  0  0  0  0  0
    1.4401   -2.0082   -0.1491 C   0  0  0  0  0  0  0  0  0  0  0  0
   -0.0781   -2.1547   -0.4034 C   0  0  0  0  0  0  0  0  0  0  0  0
   -0.9004   -1.6706    0.7262 N   0  0  0  0  0  0  0  0  0  0  0  0
   -2.0957   -1.0082    0.4382 C   0  0  0  0  0  0  0  0  0  0  0  0
   -2.3186    0.1587    0.9913 N   0  0  0  0  0  0  0  0  0  0  0  0
   -3.4889    0.8848    0.7000 C   0  0  0  0  0  0  0  0  0  0  0  0
   -3.6675    2.1274    1.3113 C   0  0  0  0  0  0  0  0  0  0  0  0
   -4.8042    2.8959    1.0474 C   0  0  0  0  0  0  0  0  0  0  0  0
   -5.7773    2.4257    0.1649 C   0  0  0  0  0  0  0  0  0  0  0  0
   -5.6197    1.1864   -0.4567 C   0  0  0  0  0  0  0  0  0  0  0  0
   -4.4767    0.4295   -0.1830 C   0  0  0  0  0  0  0  0  0  0  0  0
   -4.2445   -0.8324   -0.7530 N   0  0  0  0  0  0  0  0  0  0  0  0
   -5.0244   -1.5526   -1.6266 C   0  0  0  0  0  0  0  0  0  0  0  0
   -4.4123   -2.7662   -1.8500 C   0  0  0  0  0  0  0  0  0  0  0  0
   -3.2146   -2.7749   -1.0980 C   0  0  0  0  0  0  0  0  0  0  0  0
   -3.1092   -1.5543   -0.4542 C   0  0  0  0  0  0  0  0  0  0  0  0
   -0.0994   -1.2184    1.8800 C   0  0  0  0  0  0  0  0  0  0  0  0
    0.9642   -0.1987    1.4218 C   0  0  0  0  0  0  0  0  0  0  0  0
    4.7392    0.9605    1.1178 C   0  0  0  0  0  0  0  0  0  0  0  0
    6.1065    0.7388    1.3135 C   0  0  0  0  0  0  0  0  0  0  0  0
    6.6262    0.2570    2.8899 Cl  0  0  0  0  0  0  0  0  0  0  0  0
    7.2006    1.4278   -1.8380 H   0  0  0  0  0  0  0  0  0  0  0  0
    4.7937    1.8121   -2.1811 H   0  0  0  0  0  0  0  0  0  0  0  0
    2.3342    2.0377    0.5479 H   0  0  0  0  0  0  0  0  0  0  0  0
    2.6350    2.3136   -1.1459 H   0  0  0  0  0  0  0  0  0  0  0  0
    1.0158    0.5640   -1.1205 H   0  0  0  0  0  0  0  0  0  0  0  0
    2.5462   -0.1695   -1.5797 H   0  0  0  0  0  0  0  0  0  0  0  0
    1.9928   -2.2819   -1.0568 H   0  0  0  0  0  0  0  0  0  0  0  0
    1.7417   -2.7591    0.5936 H   0  0  0  0  0  0  0  0  0  0  0  0
   -0.2988   -3.2124   -0.5794 H   0  0  0  0  0  0  0  0  0  0  0  0
   -0.3298   -1.6005   -1.3161 H   0  0  0  0  0  0  0  0  0  0  0  0
   -2.9115    2.4965    1.9990 H   0  0  0  0  0  0  0  0  0  0  0  0
   -4.9287    3.8609    1.5321 H   0  0  0  0  0  0  0  0  0  0  0  0
   -6.6605    3.0267   -0.0369 H   0  0  0  0  0  0  0  0  0  0  0  0
   -6.3917    0.8402   -1.1357 H   0  0  0  0  0  0  0  0  0  0  0  0
   -5.9579   -1.1665   -2.0091 H   0  0  0  0  0  0  0  0  0  0  0  0
   -4.7947   -3.5623   -2.4760 H   0  0  0  0  0  0  0  0  0  0  0  0
   -2.5105   -3.5922   -1.0315 H   0  0  0  0  0  0  0  0  0  0  0  0
    0.3834   -2.0885    2.3426 H   0  0  0  0  0  0  0  0  0  0  0  0
   -0.7300   -0.7838    2.6647 H   0  0  0  0  0  0  0  0  0  0  0  0
    0.4389    0.7093    1.1000 H   0  0  0  0  0  0  0  0  0  0  0  0
    1.5753    0.0844    2.2861 H   0  0  0  0  0  0  0  0  0  0  0  0
    4.0468    0.8163    1.9445 H   0  0  0  0  0  0  0  0  0  0  0  0
  1  2  1  0
  2  3  2  0
  3  4  1  0
  4  5  2  0
  5  6  1  0
  6  7  1  0
  7  8  1  0
  8  9  1  0
  9 10  1  0
 10 11  1  0
 11 12  1  0
 12 13  2  0
 13 14  1  0
 14 15  2  0
 15 16  1  0
 16 17  2  0
 17 18  1  0
 18 19  2  0
 19 20  1  0
 20 21  1  0
 21 22  2  0
 22 23  1  0
 23 24  2  0
 11 25  1  0
 25 26  1  0
  5 27  1  0
 27 28  2  0
 28 29  1  0
 28  2  1  0
 26  8  1  0
 24 12  1  0
 19 14  1  0
 24 20  1  0
  3 30  1  0
  4 31  1  0
  6 32  1  0
  6 33  1  0
  7 34  1  0
  7 35  1  0
  9 36  1  0
  9 37  1  0
 10 38  1  0
 10 39  1  0
 15 40  1  0
 16 41  1  0
 17 42  1  0
 18 43  1  0
 21 44  1  0
 22 45  1  0
 23 46  1  0
 25 47  1  0
 25 48  1  0
 26 49  1  0
 26 50  1  0
 27 51  1  0
M  END
$$$$
