
     RDKit          3D

 34 35  0  0  0  0  0  0  0  0999 V2000
    2.1637   -0.1751    2.5645 C   0  0  0  0  0  0  0  0  0  0  0  0
    2.4430    0.5622    1.2687 C   0  0  0  0  0  0  0  0  0  0  0  0
    1.6254    0.5497    0.2548 N   0  0  0  0  0  0  0  0  0  0  0  0
    0.4703   -0.1719    0.3131 N   0  0  0  0  0  0  0  0  0  0  0  0
   -0.4163   -0.1429   -0.7637 C   0  0  0  0  0  0  0  0  0  0  0  0
   -0.2530    0.5170   -1.7826 O   0  0  0  0  0  0  0  0  0  0  0  0
   -1.5857   -1.0765   -0.5292 C   0  0  0  0  0  0  0  0  0  0  0  0
   -2.7395   -0.9632   -1.5229 C   0  0  0  0  0  0  0  0  0  0  0  0
   -2.3555   -1.2092   -2.9806 C   0  0  0  0  0  0  0  0  0  0  0  0
   -3.6937   -2.0017   -1.1730 O   0  0  0  0  0  0  0  0  0  0  0  0
   -4.8468   -1.3094   -0.6922 C   0  0  0  0  0  0  0  0  0  0  0  0
   -4.7820    0.0214   -1.3857 C   0  0  0  0  0  0  0  0  0  0  0  0
   -3.3872    0.3114   -1.3801 O   0  0  0  0  0  0  0  0  0  0  0  0
    3.7064    1.2900    1.1571 C   0  0  0  0  0  0  0  0  0  0  0  0
    4.8469    1.1943    1.9377 C   0  0  0  0  0  0  0  0  0  0  0  0
    5.8837    2.0793    1.5167 C   0  0  0  0  0  0  0  0  0  0  0  0
    5.5095    2.8250    0.4239 C   0  0  0  0  0  0  0  0  0  0  0  0
    3.9237    2.4563   -0.0888 S   0  0  0  0  0  0  0  0  0  0  0  0
    2.3266   -1.2456    2.4102 H   0  0  0  0  0  0  0  0  0  0  0  0
    2.8019    0.1681    3.3814 H   0  0  0  0  0  0  0  0  0  0  0  0
    1.1293   -0.0087    2.8790 H   0  0  0  0  0  0  0  0  0  0  0  0
    0.2877   -0.7798    1.1007 H   0  0  0  0  0  0  0  0  0  0  0  0
   -1.9709   -0.8812    0.4809 H   0  0  0  0  0  0  0  0  0  0  0  0
   -1.1991   -2.1038   -0.5265 H   0  0  0  0  0  0  0  0  0  0  0  0
   -1.7972   -0.3756   -3.4136 H   0  0  0  0  0  0  0  0  0  0  0  0
   -3.2538   -1.3312   -3.5977 H   0  0  0  0  0  0  0  0  0  0  0  0
   -1.7741   -2.1311   -3.0858 H   0  0  0  0  0  0  0  0  0  0  0  0
   -5.7565   -1.8723   -0.9146 H   0  0  0  0  0  0  0  0  0  0  0  0
   -4.7446   -1.2013    0.3929 H   0  0  0  0  0  0  0  0  0  0  0  0
   -5.1200   -0.0436   -2.4255 H   0  0  0  0  0  0  0  0  0  0  0  0
   -5.3434    0.8055   -0.8718 H   0  0  0  0  0  0  0  0  0  0  0  0
    4.9550    0.5151    2.7740 H   0  0  0  0  0  0  0  0  0  0  0  0
    6.8551    2.1606    1.9889 H   0  0  0  0  0  0  0  0  0  0  0  0
    6.0909    3.5679   -0.1047 H   0  0  0  0  0  0  0  0  0  0  0  0
  1  2  1  0
  2  3  2  3
  3  4  1  0
  4  5  1  0
  5  6  2  0
  5  7  1  0
  7  8  1  0
  8  9  1  0
  8 10  1  0
 10 11  1  0
 11 12  1  0
 12 13  1  0
  2 14  1  0
 14 15  2  0
 15 16  1  0
 16 17  2  0
 17 18  1  0
 13  8  1  0
 18 14  1  0
  1 19  1  0
  1 20  1  0
  1 21  1  0
  4 22  1  0
  7 23  1  0
  7 24  1  0
  9 25  1  0
  9 26  1  0
  9 27  1  0
 11 28  1  0
 11 29  1  0
 12 30  1  0
 12 31  1  0
 15 32  1  0
 16 33  1  0
 17 34  1  0
M  END
$$$$
