
     RDKit          3D

 63 65  0  0  0  0  0  0  0  0999 V2000
    3.2139    5.4720   -2.0875 C   0  0  0  0  0  0  0  0  0  0  0  0
    2.3145    4.3805   -1.9463 O   0  0  0  0  0  0  0  0  0  0  0  0
    1.2891    4.5326   -1.0539 C   0  0  0  0  0  0  0  0  0  0  0  0
    1.0651    5.6443   -0.2421 C   0  0  0  0  0  0  0  0  0  0  0  0
   -0.0274    5.6681    0.6321 C   0  0  0  0  0  0  0  0  0  0  0  0
   -0.9002    4.5808    0.6988 C   0  0  0  0  0  0  0  0  0  0  0  0
   -0.6888    3.4549   -0.1081 C   0  0  0  0  0  0  0  0  0  0  0  0
   -1.6363    2.2772   -0.0562 C   0  0  0  0  0  0  0  0  0  0  0  0
   -0.9615    1.0370    0.3236 N   0  0  0  0  0  0  0  0  0  0  0  0
   -0.5668    0.8973    1.7275 C   0  0  0  0  0  0  0  0  0  0  0  0
   -1.6767    0.2896    2.5947 C   0  0  0  0  0  0  0  0  0  0  0  0
   -2.8517    0.2281    2.2414 O   0  0  0  0  0  0  0  0  0  0  0  0
   -1.2260   -0.1466    3.8295 N   0  0  0  0  0  0  0  0  0  0  0  0
   -2.0647   -0.9884    4.6699 C   0  0  0  0  0  0  0  0  0  0  0  0
   -1.6378   -2.4626    4.6008 C   0  0  0  0  0  0  0  0  0  0  0  0
   -2.5580   -3.3862    5.3852 C   0  0  0  0  0  0  0  0  0  0  0  0
   -2.3841   -4.6940    4.6527 C   0  0  0  0  0  0  0  0  0  0  0  0
   -2.2824   -4.2306    3.2159 C   0  0  0  0  0  0  0  0  0  0  0  0
   -1.6362   -2.9496    3.2427 O   0  0  0  0  0  0  0  0  0  0  0  0
   -0.8761    0.0121   -0.6083 C   0  0  0  0  0  0  0  0  0  0  0  0
   -1.2288    0.1527   -1.7811 O   0  0  0  0  0  0  0  0  0  0  0  0
   -0.3253   -1.3217   -0.1253 C   0  0  0  0  0  0  0  0  0  0  0  0
   -0.3144   -2.3545   -1.2472 C   0  0  0  0  0  0  0  0  0  0  0  0
    0.8468   -2.1040   -2.1927 C   0  0  0  0  0  0  0  0  0  0  0  0
    1.9919   -1.9713   -1.7644 O   0  0  0  0  0  0  0  0  0  0  0  0
    0.4771   -2.0988   -3.5159 N   0  0  0  0  0  0  0  0  0  0  0  0
    1.3369   -1.9427   -4.5806 C   0  0  0  0  0  0  0  0  0  0  0  0
    2.7377   -1.7569   -4.5825 C   0  0  0  0  0  0  0  0  0  0  0  0
    3.0735   -1.6683   -5.9097 C   0  0  0  0  0  0  0  0  0  0  0  0
    4.3361   -1.4751   -6.6406 C   0  0  0  0  0  0  0  0  0  0  0  0
    1.9488   -1.8004   -6.6629 O   0  0  0  0  0  0  0  0  0  0  0  0
    0.8577   -1.9659   -5.8308 N   0  0  0  0  0  0  0  0  0  0  0  0
    0.4093    3.4477   -0.9837 C   0  0  0  0  0  0  0  0  0  0  0  0
    2.6933    6.3681   -2.4427 H   0  0  0  0  0  0  0  0  0  0  0  0
    3.7473    5.6683   -1.1512 H   0  0  0  0  0  0  0  0  0  0  0  0
    3.9571    5.1967   -2.8433 H   0  0  0  0  0  0  0  0  0  0  0  0
    1.7194    6.5097   -0.2650 H   0  0  0  0  0  0  0  0  0  0  0  0
   -0.2011    6.5417    1.2576 H   0  0  0  0  0  0  0  0  0  0  0  0
   -1.7472    4.6216    1.3807 H   0  0  0  0  0  0  0  0  0  0  0  0
   -2.1227    2.1831   -1.0339 H   0  0  0  0  0  0  0  0  0  0  0  0
   -2.4399    2.4589    0.6680 H   0  0  0  0  0  0  0  0  0  0  0  0
   -0.3066    1.8778    2.1372 H   0  0  0  0  0  0  0  0  0  0  0  0
    0.3218    0.2657    1.7979 H   0  0  0  0  0  0  0  0  0  0  0  0
   -0.2274   -0.1773    3.9940 H   0  0  0  0  0  0  0  0  0  0  0  0
   -3.1110   -0.8817    4.3602 H   0  0  0  0  0  0  0  0  0  0  0  0
   -1.9699   -0.6149    5.6960 H   0  0  0  0  0  0  0  0  0  0  0  0
   -0.6058   -2.5621    4.9627 H   0  0  0  0  0  0  0  0  0  0  0  0
   -2.2969   -3.4439    6.4461 H   0  0  0  0  0  0  0  0  0  0  0  0
   -3.6033   -3.0593    5.3083 H   0  0  0  0  0  0  0  0  0  0  0  0
   -1.4458   -5.1715    4.9614 H   0  0  0  0  0  0  0  0  0  0  0  0
   -3.2013   -5.4026    4.8160 H   0  0  0  0  0  0  0  0  0  0  0  0
   -1.7107   -4.9213    2.5895 H   0  0  0  0  0  0  0  0  0  0  0  0
   -3.2744   -4.0942    2.7703 H   0  0  0  0  0  0  0  0  0  0  0  0
   -0.9761   -1.6895    0.6745 H   0  0  0  0  0  0  0  0  0  0  0  0
    0.6844   -1.1783    0.2714 H   0  0  0  0  0  0  0  0  0  0  0  0
   -1.2707   -2.3736   -1.7807 H   0  0  0  0  0  0  0  0  0  0  0  0
   -0.1642   -3.3544   -0.8238 H   0  0  0  0  0  0  0  0  0  0  0  0
   -0.4984   -2.1494   -3.7780 H   0  0  0  0  0  0  0  0  0  0  0  0
    3.4098   -1.6896   -3.7392 H   0  0  0  0  0  0  0  0  0  0  0  0
    4.5581   -2.3465   -7.2608 H   0  0  0  0  0  0  0  0  0  0  0  0
    5.1706   -1.3290   -5.9513 H   0  0  0  0  0  0  0  0  0  0  0  0
    4.2753   -0.5966   -7.2897 H   0  0  0  0  0  0  0  0  0  0  0  0
    0.5808    2.5863   -1.6274 H   0  0  0  0  0  0  0  0  0  0  0  0
  1  2  1  0
  2  3  1  0
  3  4  2  0
  4  5  1  0
  5  6  2  0
  6  7  1  0
  7  8  1  0
  8  9  1  0
  9 10  1  0
 10 11  1  0
 11 12  2  0
 11 13  1  0
 13 14  1  0
 14 15  1  0
 15 16  1  0
 16 17  1  0
 17 18  1  0
 18 19  1  0
  9 20  1  0
 20 21  2  0
 20 22  1  0
 22 23  1  0
 23 24  1  0
 24 25  2  0
 24 26  1  0
 26 27  1  0
 27 28  1  0
 28 29  2  0
 29 30  1  0
 29 31  1  0
 31 32  1  0
  7 33  2  0
 33  3  1  0
 19 15  1  0
 32 27  2  0
  1 34  1  0
  1 35  1  0
  1 36  1  0
  4 37  1  0
  5 38  1  0
  6 39  1  0
  8 40  1  0
  8 41  1  0
 10 42  1  0
 10 43  1  0
 13 44  1  0
 14 45  1  0
 14 46  1  0
 15 47  1  0
 16 48  1  0
 16 49  1  0
 17 50  1  0
 17 51  1  0
 18 52  1  0
 18 53  1  0
 22 54  1  0
 22 55  1  0
 23 56  1  0
 23 57  1  0
 26 58  1  0
 28 59  1  0
 30 60  1  0
 30 61  1  0
 30 62  1  0
 33 63  1  0
M  END
$$$$
