
     RDKit          3D

 42 44  0  0  0  0  0  0  0  0999 V2000
   -8.4149    0.8912   -0.4271 C   0  0  0  0  0  0  0  0  0  0  0  0
   -7.6382   -0.2542    0.1678 C   0  0  0  0  0  0  0  0  0  0  0  0
   -8.2133   -1.2011    0.7003 O   0  0  0  0  0  0  0  0  0  0  0  0
   -6.1462   -0.2253    0.1055 C   0  0  0  0  0  0  0  0  0  0  0  0
   -5.4405    0.8496   -0.4427 C   0  0  0  0  0  0  0  0  0  0  0  0
   -4.0400    0.8276   -0.4759 C   0  0  0  0  0  0  0  0  0  0  0  0
   -3.3244   -0.2642    0.0323 C   0  0  0  0  0  0  0  0  0  0  0  0
   -1.9172   -0.2013   -0.0361 N   0  0  0  0  0  0  0  0  0  0  0  0
   -1.0168   -1.1900    0.3198 C   0  0  0  0  0  0  0  0  0  0  0  0
   -1.2791   -2.3256    0.6942 O   0  0  0  0  0  0  0  0  0  0  0  0
    0.4156   -0.8057    0.1803 C   0  0  0  0  0  0  0  0  0  0  0  0
    1.3279   -1.7645   -0.2688 C   0  0  0  0  0  0  0  0  0  0  0  0
    2.6821   -1.4398   -0.4136 C   0  0  0  0  0  0  0  0  0  0  0  0
    3.1409   -0.1595   -0.0980 C   0  0  0  0  0  0  0  0  0  0  0  0
    4.4824    0.2469   -0.2119 N   0  0  0  0  0  0  0  0  0  0  0  0
    5.5693   -0.4843   -0.6595 C   0  0  0  0  0  0  0  0  0  0  0  0
    5.5340   -1.6449   -1.0537 O   0  0  0  0  0  0  0  0  0  0  0  0
    6.8045    0.2797   -0.6236 C   0  0  0  0  0  0  0  0  0  0  0  0
    8.0973   -0.0629   -0.9724 C   0  0  0  0  0  0  0  0  0  0  0  0
    8.9014    1.0764   -0.7314 C   0  0  0  0  0  0  0  0  0  0  0  0
    8.0555    2.0473   -0.2509 C   0  0  0  0  0  0  0  0  0  0  0  0
    6.7821    1.5796   -0.1806 O   0  0  0  0  0  0  0  0  0  0  0  0
    2.2250    0.7918    0.3726 C   0  0  0  0  0  0  0  0  0  0  0  0
    0.8696    0.4740    0.5150 C   0  0  0  0  0  0  0  0  0  0  0  0
   -4.0325   -1.3326    0.5823 C   0  0  0  0  0  0  0  0  0  0  0  0
   -5.4326   -1.3141    0.6186 C   0  0  0  0  0  0  0  0  0  0  0  0
   -8.1959    1.8168    0.1115 H   0  0  0  0  0  0  0  0  0  0  0  0
   -8.1859    0.9939   -1.4910 H   0  0  0  0  0  0  0  0  0  0  0  0
   -9.4860    0.6869   -0.3315 H   0  0  0  0  0  0  0  0  0  0  0  0
   -5.9507    1.7173   -0.8500 H   0  0  0  0  0  0  0  0  0  0  0  0
   -3.5194    1.6781   -0.9094 H   0  0  0  0  0  0  0  0  0  0  0  0
   -1.5336    0.6326   -0.4606 H   0  0  0  0  0  0  0  0  0  0  0  0
    0.9898   -2.7711   -0.5097 H   0  0  0  0  0  0  0  0  0  0  0  0
    3.3510   -2.2181   -0.7688 H   0  0  0  0  0  0  0  0  0  0  0  0
    4.7058    1.1972    0.0650 H   0  0  0  0  0  0  0  0  0  0  0  0
    8.4081   -1.0267   -1.3538 H   0  0  0  0  0  0  0  0  0  0  0  0
    9.9665    1.1772   -0.8883 H   0  0  0  0  0  0  0  0  0  0  0  0
    8.1978    3.0702    0.0702 H   0  0  0  0  0  0  0  0  0  0  0  0
    2.5566    1.7913    0.6450 H   0  0  0  0  0  0  0  0  0  0  0  0
    0.1920    1.2222    0.9172 H   0  0  0  0  0  0  0  0  0  0  0  0
   -3.5282   -2.1997    0.9987 H   0  0  0  0  0  0  0  0  0  0  0  0
   -5.9598   -2.1622    1.0533 H   0  0  0  0  0  0  0  0  0  0  0  0
  1  2  1  0
  2  3  2  0
  2  4  1  0
  4  5  2  0
  5  6  1  0
  6  7  2  0
  7  8  1  0
  8  9  1  0
  9 10  2  0
  9 11  1  0
 11 12  2  0
 12 13  1  0
 13 14  2  0
 14 15  1  0
 15 16  1  0
 16 17  2  0
 16 18  1  0
 18 19  2  0
 19 20  1  0
 20 21  2  0
 21 22  1  0
 14 23  1  0
 23 24  2  0
  7 25  1  0
 25 26  2  0
 26  4  1  0
 24 11  1  0
 22 18  1  0
  1 27  1  0
  1 28  1  0
  1 29  1  0
  5 30  1  0
  6 31  1  0
  8 32  1  0
 12 33  1  0
 13 34  1  0
 15 35  1  0
 19 36  1  0
 20 37  1  0
 21 38  1  0
 23 39  1  0
 24 40  1  0
 25 41  1  0
 26 42  1  0
M  END
$$$$
