
     RDKit          3D

 54 58  0  0  0  0  0  0  0  0999 V2000
    5.9432   -0.6858    0.6156 F   0  0  0  0  0  0  0  0  0  0  0  0
    6.1315   -0.5534   -0.7288 C   0  0  0  0  0  0  0  0  0  0  0  0
    6.7386    0.6538   -0.9038 F   0  0  0  0  0  0  0  0  0  0  0  0
    7.0721   -1.4855   -1.0545 F   0  0  0  0  0  0  0  0  0  0  0  0
    4.8495   -0.6793   -1.5227 C   0  0  0  0  0  0  0  0  0  0  0  0
    4.8099   -1.5732   -2.6119 C   0  0  0  0  0  0  0  0  0  0  0  0
    3.6566   -1.7208   -3.3821 C   0  0  0  0  0  0  0  0  0  0  0  0
    2.5235   -0.9758   -3.0797 C   0  0  0  0  0  0  0  0  0  0  0  0
    2.5435   -0.0814   -2.0106 C   0  0  0  0  0  0  0  0  0  0  0  0
    3.6976    0.0858   -1.2235 C   0  0  0  0  0  0  0  0  0  0  0  0
    3.6488    1.0750   -0.0740 C   0  0  0  0  0  0  0  0  0  0  0  0
    3.0875    0.4797    1.2333 C   0  0  0  0  0  0  0  0  0  0  0  0
    1.6351    0.2615    1.2175 N   0  0  0  0  0  0  0  0  0  0  0  0
    1.1973   -0.6090    2.3200 C   0  0  0  0  0  0  0  0  0  0  0  0
   -0.3258   -0.8871    2.2802 C   0  0  0  0  0  0  0  0  0  0  0  0
   -1.1359    0.3358    2.0980 N   0  0  0  0  0  0  0  0  0  0  0  0
   -2.2511    0.2924    1.2592 C   0  0  0  0  0  0  0  0  0  0  0  0
   -2.4130    1.2518    0.3802 N   0  0  0  0  0  0  0  0  0  0  0  0
   -3.5033    1.2427   -0.5099 C   0  0  0  0  0  0  0  0  0  0  0  0
   -3.6149    2.2853   -1.4320 C   0  0  0  0  0  0  0  0  0  0  0  0
   -4.6744    2.3229   -2.3423 C   0  0  0  0  0  0  0  0  0  0  0  0
   -5.6346    1.3110   -2.3403 C   0  0  0  0  0  0  0  0  0  0  0  0
   -5.5428    0.2595   -1.4278 C   0  0  0  0  0  0  0  0  0  0  0  0
   -4.4777    0.2362   -0.5226 C   0  0  0  0  0  0  0  0  0  0  0  0
   -4.3156   -0.7756    0.4372 N   0  0  0  0  0  0  0  0  0  0  0  0
   -5.1045   -1.8732    0.6875 C   0  0  0  0  0  0  0  0  0  0  0  0
   -4.5815   -2.5403    1.7728 C   0  0  0  0  0  0  0  0  0  0  0  0
   -3.4284   -1.8311    2.1831 C   0  0  0  0  0  0  0  0  0  0  0  0
   -3.2571   -0.7613    1.3215 C   0  0  0  0  0  0  0  0  0  0  0  0
   -0.3442    1.5739    2.1621 C   0  0  0  0  0  0  0  0  0  0  0  0
    0.8545    1.5228    1.1878 C   0  0  0  0  0  0  0  0  0  0  0  0
    5.6875   -2.1666   -2.8663 H   0  0  0  0  0  0  0  0  0  0  0  0
    3.6425   -2.4173   -4.2161 H   0  0  0  0  0  0  0  0  0  0  0  0
    1.6193   -1.0905   -3.6719 H   0  0  0  0  0  0  0  0  0  0  0  0
    1.6407    0.4846   -1.7841 H   0  0  0  0  0  0  0  0  0  0  0  0
    4.6555    1.4605    0.1226 H   0  0  0  0  0  0  0  0  0  0  0  0
    3.0769    1.9589   -0.3832 H   0  0  0  0  0  0  0  0  0  0  0  0
    3.3525    1.1398    2.0690 H   0  0  0  0  0  0  0  0  0  0  0  0
    3.5952   -0.4750    1.4195 H   0  0  0  0  0  0  0  0  0  0  0  0
    1.4645   -0.1622    3.2870 H   0  0  0  0  0  0  0  0  0  0  0  0
    1.7158   -1.5740    2.2636 H   0  0  0  0  0  0  0  0  0  0  0  0
   -0.6147   -1.3694    3.2202 H   0  0  0  0  0  0  0  0  0  0  0  0
   -0.5196   -1.5922    1.4622 H   0  0  0  0  0  0  0  0  0  0  0  0
   -2.8676    3.0739   -1.4364 H   0  0  0  0  0  0  0  0  0  0  0  0
   -4.7472    3.1425   -3.0526 H   0  0  0  0  0  0  0  0  0  0  0  0
   -6.4572    1.3436   -3.0506 H   0  0  0  0  0  0  0  0  0  0  0  0
   -6.3033   -0.5145   -1.4439 H   0  0  0  0  0  0  0  0  0  0  0  0
   -5.9807   -2.0915    0.0961 H   0  0  0  0  0  0  0  0  0  0  0  0
   -4.9919   -3.4336    2.2237 H   0  0  0  0  0  0  0  0  0  0  0  0
   -2.7955   -2.0785    3.0240 H   0  0  0  0  0  0  0  0  0  0  0  0
    0.0235    1.6949    3.1893 H   0  0  0  0  0  0  0  0  0  0  0  0
   -0.9548    2.4637    1.9675 H   0  0  0  0  0  0  0  0  0  0  0  0
    1.4878    2.3916    1.4076 H   0  0  0  0  0  0  0  0  0  0  0  0
    0.4861    1.6536    0.1634 H   0  0  0  0  0  0  0  0  0  0  0  0
  1  2  1  0
  2  3  1  0
  2  4  1  0
  2  5  1  0
  5  6  2  0
  6  7  1  0
  7  8  2  0
  8  9  1  0
  9 10  2  0
 10 11  1  0
 11 12  1  0
 12 13  1  0
 13 14  1  0
 14 15  1  0
 15 16  1  0
 16 17  1  0
 17 18  2  0
 18 19  1  0
 19 20  2  0
 20 21  1  0
 21 22  2  0
 22 23  1  0
 23 24  2  0
 24 25  1  0
 25 26  1  0
 26 27  2  0
 27 28  1  0
 28 29  2  0
 16 30  1  0
 30 31  1  0
 10  5  1  0
 31 13  1  0
 29 17  1  0
 24 19  1  0
 29 25  1  0
  6 32  1  0
  7 33  1  0
  8 34  1  0
  9 35  1  0
 11 36  1  0
 11 37  1  0
 12 38  1  0
 12 39  1  0
 14 40  1  0
 14 41  1  0
 15 42  1  0
 15 43  1  0
 20 44  1  0
 21 45  1  0
 22 46  1  0
 23 47  1  0
 26 48  1  0
 27 49  1  0
 28 50  1  0
 30 51  1  0
 30 52  1  0
 31 53  1  0
 31 54  1  0
M  END
$$$$
