
     RDKit          3D

 51 55  0  0  0  0  0  0  0  0999 V2000
    0.0701   -1.0146   -1.0278 O   0  0  0  0  0  0  0  0  0  0  0  0
    0.2627    0.1206   -1.4548 C   0  0  0  0  0  0  0  0  0  0  0  0
   -0.1509    1.3980   -0.7097 C   0  0  0  0  0  0  0  0  0  0  0  0
   -1.2174    1.1618    0.2674 N   0  0  0  0  0  0  0  0  0  0  0  0
   -2.5236    1.2460   -0.2022 C   0  0  0  0  0  0  0  0  0  0  0  0
   -2.7945    1.4581   -1.3860 O   0  0  0  0  0  0  0  0  0  0  0  0
   -3.6269    1.1539    0.8201 C   0  0  0  0  0  0  0  0  0  0  0  0
   -4.0709   -0.2835    1.0121 C   0  0  0  0  0  0  0  0  0  0  0  0
   -5.1258   -0.3618    2.0727 C   0  0  0  0  0  0  0  0  0  0  0  0
   -5.1132   -0.3420    3.4558 C   0  0  0  0  0  0  0  0  0  0  0  0
   -6.4635   -0.4303    3.8727 C   0  0  0  0  0  0  0  0  0  0  0  0
   -7.2165   -0.4896    2.7234 C   0  0  0  0  0  0  0  0  0  0  0  0
   -6.4158   -0.4411    1.6283 O   0  0  0  0  0  0  0  0  0  0  0  0
   -2.7213   -1.4761    1.3584 S   0  0  0  0  0  0  0  0  0  0  0  0
   -1.5097   -0.4360    2.1689 C   0  0  0  0  0  0  0  0  0  0  0  0
   -1.0991   -0.8657    3.4425 C   0  0  0  0  0  0  0  0  0  0  0  0
   -0.0789   -0.2088    4.1271 C   0  0  0  0  0  0  0  0  0  0  0  0
    0.5563    0.8767    3.5393 C   0  0  0  0  0  0  0  0  0  0  0  0
    0.1711    1.3058    2.2675 C   0  0  0  0  0  0  0  0  0  0  0  0
   -0.8642    0.6657    1.5632 C   0  0  0  0  0  0  0  0  0  0  0  0
    0.9488    0.3693   -2.6294 N   0  0  0  0  0  0  0  0  0  0  0  0
    1.5403   -0.6979   -3.4031 C   0  0  0  0  0  0  0  0  0  0  0  0
    3.0064   -0.8398   -3.0754 C   0  0  0  0  0  0  0  0  0  0  0  0
    3.4027   -1.5588   -1.9231 C   0  0  0  0  0  0  0  0  0  0  0  0
    4.7518   -1.6882   -1.5809 C   0  0  0  0  0  0  0  0  0  0  0  0
    5.6795   -1.0890   -2.4028 C   0  0  0  0  0  0  0  0  0  0  0  0
    5.3056   -0.3827   -3.5215 C   0  0  0  0  0  0  0  0  0  0  0  0
    3.9827   -0.2354   -3.8835 C   0  0  0  0  0  0  0  0  0  0  0  0
    6.3726    0.1311   -4.1904 O   0  0  0  0  0  0  0  0  0  0  0  0
    7.4617   -0.3544   -3.3772 C   0  0  0  0  0  0  0  0  0  0  0  0
    7.0279   -1.1092   -2.2275 O   0  0  0  0  0  0  0  0  0  0  0  0
   -0.4946    2.1359   -1.4446 H   0  0  0  0  0  0  0  0  0  0  0  0
    0.7424    1.8152   -0.2375 H   0  0  0  0  0  0  0  0  0  0  0  0
   -4.4669    1.7596    0.4536 H   0  0  0  0  0  0  0  0  0  0  0  0
   -3.3269    1.6402    1.7565 H   0  0  0  0  0  0  0  0  0  0  0  0
   -4.5105   -0.6366    0.0698 H   0  0  0  0  0  0  0  0  0  0  0  0
   -4.2351   -0.2796    4.0855 H   0  0  0  0  0  0  0  0  0  0  0  0
   -6.8426   -0.4502    4.8851 H   0  0  0  0  0  0  0  0  0  0  0  0
   -8.2772   -0.5647    2.5239 H   0  0  0  0  0  0  0  0  0  0  0  0
   -1.5621   -1.7363    3.9042 H   0  0  0  0  0  0  0  0  0  0  0  0
    0.2272   -0.5557    5.1108 H   0  0  0  0  0  0  0  0  0  0  0  0
    1.3542    1.3920    4.0685 H   0  0  0  0  0  0  0  0  0  0  0  0
    0.6703    2.1788    1.8586 H   0  0  0  0  0  0  0  0  0  0  0  0
    1.1763    1.3187   -2.8873 H   0  0  0  0  0  0  0  0  0  0  0  0
    1.0181   -1.6467   -3.2244 H   0  0  0  0  0  0  0  0  0  0  0  0
    1.4055   -0.4470   -4.4620 H   0  0  0  0  0  0  0  0  0  0  0  0
    2.6458   -2.0185   -1.2874 H   0  0  0  0  0  0  0  0  0  0  0  0
    5.0556   -2.2407   -0.7005 H   0  0  0  0  0  0  0  0  0  0  0  0
    3.7195    0.3295   -4.7702 H   0  0  0  0  0  0  0  0  0  0  0  0
    8.1024   -0.9946   -3.9951 H   0  0  0  0  0  0  0  0  0  0  0  0
    8.0507    0.5031   -3.0317 H   0  0  0  0  0  0  0  0  0  0  0  0
  1  2  2  0
  2  3  1  0
  3  4  1  0
  4  5  1  0
  5  6  2  0
  5  7  1  0
  7  8  1  0
  8  9  1  0
  9 10  2  0
 10 11  1  0
 11 12  2  0
 12 13  1  0
  8 14  1  0
 14 15  1  0
 15 16  2  0
 16 17  1  0
 17 18  2  0
 18 19  1  0
 19 20  2  0
  2 21  1  0
 21 22  1  0
 22 23  1  0
 23 24  2  0
 24 25  1  0
 25 26  2  0
 26 27  1  0
 27 28  2  0
 27 29  1  0
 29 30  1  0
 30 31  1  0
 20  4  1  0
 28 23  1  0
 13  9  1  0
 20 15  1  0
 31 26  1  0
  3 32  1  0
  3 33  1  0
  7 34  1  0
  7 35  1  0
  8 36  1  0
 10 37  1  0
 11 38  1  0
 12 39  1  0
 16 40  1  0
 17 41  1  0
 18 42  1  0
 19 43  1  0
 21 44  1  0
 22 45  1  0
 22 46  1  0
 24 47  1  0
 25 48  1  0
 28 49  1  0
 30 50  1  0
 30 51  1  0
M  END
$$$$
