
     RDKit          3D

 48 49  0  0  0  0  0  0  0  0999 V2000
   -7.5030   -1.3122    1.9274 C   0  0  0  0  0  0  0  0  0  0  0  0
   -6.8142   -0.4476    0.9125 C   0  0  0  0  0  0  0  0  0  0  0  0
   -7.5547    0.3190    0.0140 C   0  0  0  0  0  0  0  0  0  0  0  0
   -6.9050    1.0925   -0.9457 C   0  0  0  0  0  0  0  0  0  0  0  0
   -5.5020    1.1091   -1.0332 C   0  0  0  0  0  0  0  0  0  0  0  0
   -4.8684    1.9674   -2.0955 C   0  0  0  0  0  0  0  0  0  0  0  0
   -4.7429    0.3232   -0.1382 C   0  0  0  0  0  0  0  0  0  0  0  0
   -3.3315    0.3412   -0.2461 N   0  0  0  0  0  0  0  0  0  0  0  0
   -2.4049   -0.3503    0.5165 C   0  0  0  0  0  0  0  0  0  0  0  0
   -2.6325   -1.1172    1.4448 O   0  0  0  0  0  0  0  0  0  0  0  0
   -0.9874   -0.0485    0.0670 C   0  0  0  0  0  0  0  0  0  0  0  0
    0.0390   -0.8325    0.8760 C   0  0  0  0  0  0  0  0  0  0  0  0
    1.4509   -0.5480    0.4089 C   0  0  0  0  0  0  0  0  0  0  0  0
    1.7013    0.2331   -0.5048 O   0  0  0  0  0  0  0  0  0  0  0  0
    2.3903   -1.2731    1.1437 N   0  0  0  0  0  0  0  0  0  0  0  0
    3.7265   -1.3411    0.8377 N   0  0  0  0  0  0  0  0  0  0  0  0
    4.3062   -0.2471    0.4474 C   0  0  0  0  0  0  0  0  0  0  0  0
    5.7263   -0.2404    0.0342 C   0  0  0  0  0  0  0  0  0  0  0  0
    6.2879    0.9806   -0.3568 C   0  0  0  0  0  0  0  0  0  0  0  0
    7.6316    1.0187   -0.7590 C   0  0  0  0  0  0  0  0  0  0  0  0
    8.2283    2.2964   -1.1698 N   0  0  0  0  0  4  0  0  0  0  0  0
    7.5349    3.3172   -1.0535 O   0  0  0  0  0  0  0  0  0  0  0  0
    9.3874    2.2779   -1.6055 O   0  0  0  0  0  1  0  0  0  0  0  0
    8.4115   -0.1467   -0.7730 C   0  0  0  0  0  0  0  0  0  0  0  0
    7.8416   -1.3592   -0.3808 C   0  0  0  0  0  0  0  0  0  0  0  0
    6.5069   -1.4047    0.0191 C   0  0  0  0  0  0  0  0  0  0  0  0
    6.0254   -2.6313    0.3843 O   0  0  0  0  0  0  0  0  0  0  0  0
   -5.4135   -0.4482    0.8203 C   0  0  0  0  0  0  0  0  0  0  0  0
   -8.4871   -0.9065    2.1855 H   0  0  0  0  0  0  0  0  0  0  0  0
   -6.9207   -1.3643    2.8535 H   0  0  0  0  0  0  0  0  0  0  0  0
   -7.6324   -2.3235    1.5298 H   0  0  0  0  0  0  0  0  0  0  0  0
   -8.6416    0.3196    0.0544 H   0  0  0  0  0  0  0  0  0  0  0  0
   -7.5068    1.6853   -1.6319 H   0  0  0  0  0  0  0  0  0  0  0  0
   -4.2977    1.3472   -2.7945 H   0  0  0  0  0  0  0  0  0  0  0  0
   -4.2086    2.7131   -1.6401 H   0  0  0  0  0  0  0  0  0  0  0  0
   -5.6199    2.5109   -2.6788 H   0  0  0  0  0  0  0  0  0  0  0  0
   -2.9510    0.9301   -0.9746 H   0  0  0  0  0  0  0  0  0  0  0  0
   -0.8995   -0.3003   -0.9969 H   0  0  0  0  0  0  0  0  0  0  0  0
   -0.8105    1.0285    0.1764 H   0  0  0  0  0  0  0  0  0  0  0  0
   -0.0345   -0.5686    1.9378 H   0  0  0  0  0  0  0  0  0  0  0  0
   -0.1484   -1.9088    0.7789 H   0  0  0  0  0  0  0  0  0  0  0  0
    2.0479   -2.0810    1.6587 H   0  0  0  0  0  0  0  0  0  0  0  0
    3.7879    0.7277    0.4274 H   0  0  0  0  0  0  0  0  0  0  0  0
    5.6834    1.8857   -0.3518 H   0  0  0  0  0  0  0  0  0  0  0  0
    9.4546   -0.1290   -1.0832 H   0  0  0  0  0  0  0  0  0  0  0  0
    8.4349   -2.2711   -0.3884 H   0  0  0  0  0  0  0  0  0  0  0  0
    5.0797   -2.5178    0.6262 H   0  0  0  0  0  0  0  0  0  0  0  0
   -4.8656   -1.0722    1.5194 H   0  0  0  0  0  0  0  0  0  0  0  0
  1  2  1  0
  2  3  2  0
  3  4  1  0
  4  5  2  0
  5  6  1  0
  5  7  1  0
  7  8  1  0
  8  9  1  0
  9 10  2  0
  9 11  1  0
 11 12  1  0
 12 13  1  0
 13 14  2  0
 13 15  1  0
 15 16  1  0
 16 17  2  3
 17 18  1  0
 18 19  2  0
 19 20  1  0
 20 21  1  0
 21 22  2  0
 21 23  1  0
 20 24  2  0
 24 25  1  0
 25 26  2  0
 26 27  1  0
  7 28  2  0
 28  2  1  0
 26 18  1  0
  1 29  1  0
  1 30  1  0
  1 31  1  0
  3 32  1  0
  4 33  1  0
  6 34  1  0
  6 35  1  0
  6 36  1  0
  8 37  1  0
 11 38  1  0
 11 39  1  0
 12 40  1  0
 12 41  1  0
 15 42  1  0
 17 43  1  0
 19 44  1  0
 24 45  1  0
 25 46  1  0
 27 47  1  0
 28 48  1  0
M  CHG  2  21   1  23  -1
M  END
$$$$
