
     RDKit          3D

 53 54  0  0  0  0  0  0  0  0999 V2000
   -6.2245    0.8182   -1.0816 C   0  0  0  0  0  0  0  0  0  0  0  0
   -4.7898    0.4887   -0.7030 C   0  0  0  0  0  0  0  0  0  0  0  0
   -4.7860   -0.5484    0.3588 N   0  0  0  0  0  0  0  0  0  0  0  0
   -4.2481   -0.1047    1.6679 C   0  0  0  0  0  0  0  0  0  0  0  0
   -5.2218    0.8406    2.3543 C   0  0  0  0  0  0  0  0  0  0  0  0
   -4.4334   -2.1459   -0.1217 S   0  0  0  0  0  6  0  0  0  0  0  0
   -4.6430   -3.0233    1.0113 O   0  0  0  0  0  0  0  0  0  0  0  0
   -5.0883   -2.3934   -1.3902 O   0  0  0  0  0  0  0  0  0  0  0  0
   -2.6746   -2.0985   -0.4304 C   0  0  0  0  0  0  0  0  0  0  0  0
   -2.2032   -1.8885   -1.7304 C   0  0  0  0  0  0  0  0  0  0  0  0
   -0.8263   -1.8731   -1.9746 C   0  0  0  0  0  0  0  0  0  0  0  0
    0.0804   -2.0864   -0.9244 C   0  0  0  0  0  0  0  0  0  0  0  0
    1.5554   -2.0604   -1.1297 C   0  0  0  0  0  0  0  0  0  0  0  0
    2.3705   -2.2149   -0.2318 O   0  0  0  0  0  0  0  0  0  0  0  0
    1.8531   -1.8258   -2.4318 O   0  0  0  0  0  0  0  0  0  0  0  0
    3.2474   -1.6589   -2.6927 C   0  0  0  0  0  0  0  0  0  0  0  0
    3.7800   -0.3549   -2.0946 C   0  0  0  0  0  0  0  0  0  0  0  0
    3.3838    0.7463   -2.4734 O   0  0  0  0  0  0  0  0  0  0  0  0
    4.7084   -0.5288   -1.0791 N   0  0  0  0  0  0  0  0  0  0  0  0
    5.1599    0.6014   -0.2876 C   0  0  0  0  0  0  0  0  0  0  0  0
    4.1658    0.9714    0.8232 C   0  0  0  0  0  0  0  0  0  0  0  0
    4.6705    2.0329    1.6754 N   0  0  0  0  0  0  0  0  0  0  0  0
    4.4164    3.3641    1.4659 C   0  0  0  0  0  0  0  0  0  0  0  0
    3.5978    3.7257    0.4351 O   0  0  0  0  0  0  0  0  0  0  0  0
    5.0318    4.1889    2.3232 C   0  0  0  0  0  0  0  0  0  0  0  0
    6.0065    3.3079    3.4563 S   0  0  0  0  0  0  0  0  0  0  0  0
    5.5561    1.7643    2.7067 C   0  0  0  0  0  0  0  0  0  0  0  0
    5.9959    0.6818    3.0623 O   0  0  0  0  0  0  0  0  0  0  0  0
   -0.4054   -2.3274    0.3709 C   0  0  0  0  0  0  0  0  0  0  0  0
   -1.7812   -2.3424    0.6186 C   0  0  0  0  0  0  0  0  0  0  0  0
   -6.2455    1.5993   -1.8474 H   0  0  0  0  0  0  0  0  0  0  0  0
   -6.7960    1.1717   -0.2158 H   0  0  0  0  0  0  0  0  0  0  0  0
   -6.7376   -0.0626   -1.4818 H   0  0  0  0  0  0  0  0  0  0  0  0
   -4.2786    1.3961   -0.3632 H   0  0  0  0  0  0  0  0  0  0  0  0
   -4.2496    0.1538   -1.5937 H   0  0  0  0  0  0  0  0  0  0  0  0
   -4.0956   -0.9598    2.3331 H   0  0  0  0  0  0  0  0  0  0  0  0
   -3.2775    0.3847    1.5321 H   0  0  0  0  0  0  0  0  0  0  0  0
   -5.3269    1.7784    1.8034 H   0  0  0  0  0  0  0  0  0  0  0  0
   -4.8654    1.0847    3.3603 H   0  0  0  0  0  0  0  0  0  0  0  0
   -6.2147    0.3880    2.4424 H   0  0  0  0  0  0  0  0  0  0  0  0
   -2.8963   -1.7408   -2.5570 H   0  0  0  0  0  0  0  0  0  0  0  0
   -0.4761   -1.6967   -2.9899 H   0  0  0  0  0  0  0  0  0  0  0  0
    3.3850   -1.6059   -3.7794 H   0  0  0  0  0  0  0  0  0  0  0  0
    3.8108   -2.5331   -2.3418 H   0  0  0  0  0  0  0  0  0  0  0  0
    4.7134   -1.4356   -0.6134 H   0  0  0  0  0  0  0  0  0  0  0  0
    5.3232    1.4584   -0.9474 H   0  0  0  0  0  0  0  0  0  0  0  0
    6.1268    0.3219    0.1388 H   0  0  0  0  0  0  0  0  0  0  0  0
    3.1874    1.2534    0.4052 H   0  0  0  0  0  0  0  0  0  0  0  0
    3.9904    0.0873    1.4549 H   0  0  0  0  0  0  0  0  0  0  0  0
    3.5608    4.6951    0.3877 H   0  0  0  0  0  0  0  0  0  0  0  0
    4.9655    5.2668    2.3326 H   0  0  0  0  0  0  0  0  0  0  0  0
    0.2872   -2.5111    1.1924 H   0  0  0  0  0  0  0  0  0  0  0  0
   -2.1447   -2.5507    1.6238 H   0  0  0  0  0  0  0  0  0  0  0  0
  1  2  1  0
  2  3  1  0
  3  4  1  0
  4  5  1  0
  3  6  1  0
  6  7  2  0
  6  8  2  0
  6  9  1  0
  9 10  2  0
 10 11  1  0
 11 12  2  0
 12 13  1  0
 13 14  2  0
 13 15  1  0
 15 16  1  0
 16 17  1  0
 17 18  2  0
 17 19  1  0
 19 20  1  0
 20 21  1  0
 21 22  1  0
 22 23  1  0
 23 24  1  0
 23 25  2  0
 25 26  1  0
 26 27  1  0
 27 28  2  0
 12 29  1  0
 29 30  2  0
 30  9  1  0
 27 22  1  0
  1 31  1  0
  1 32  1  0
  1 33  1  0
  2 34  1  0
  2 35  1  0
  4 36  1  0
  4 37  1  0
  5 38  1  0
  5 39  1  0
  5 40  1  0
 10 41  1  0
 11 42  1  0
 16 43  1  0
 16 44  1  0
 19 45  1  0
 20 46  1  0
 20 47  1  0
 21 48  1  0
 21 49  1  0
 24 50  1  0
 25 51  1  0
 29 52  1  0
 30 53  1  0
M  END
$$$$
