
     RDKit          3D

 53 58  0  0  0  0  0  0  0  0999 V2000
   -1.0146    1.7242    0.3248 O   0  0  0  0  0  0  0  0  0  0  0  0
   -1.4635    0.6074    0.6012 C   0  0  0  0  0  0  0  0  0  0  0  0
   -0.4911   -0.4552    1.1567 C   0  0  0  0  0  0  0  0  0  0  0  0
    0.8734   -0.2518    0.6291 N   0  0  0  0  0  4  0  0  0  0  0  0
    2.0466   -0.1390    1.3658 C   0  0  0  0  0  0  0  0  0  0  0  0
    3.1004    0.1352    0.5021 C   0  0  0  0  0  0  0  0  0  0  0  0
    4.6014    0.3754    0.9036 C   0  0  0  0  0  0  0  0  0  0  0  0
    5.0034    0.2130    2.2365 C   0  0  0  0  0  0  0  0  0  0  0  0
    6.3392    0.4165    2.5951 C   0  0  0  0  0  0  0  0  0  0  0  0
    7.2685    0.7974    1.6340 C   0  0  0  0  0  0  0  0  0  0  0  0
    8.9051    1.0636    2.0807 Cl  0  0  0  0  0  0  0  0  0  0  0  0
    6.8751    0.9719    0.3105 C   0  0  0  0  0  0  0  0  0  0  0  0
    5.5406    0.7594   -0.0558 C   0  0  0  0  0  0  0  0  0  0  0  0
    2.4973    0.1402   -0.7404 N   0  0  0  0  0  0  0  0  0  0  0  0
    1.1870   -0.0628   -0.6491 C   0  0  0  0  0  0  0  0  0  0  0  0
    0.5032   -0.0534   -1.9639 C   0  0  0  0  0  0  0  0  0  0  0  0
    1.6901   -0.1431   -2.9420 C   0  0  0  0  0  0  0  0  0  0  0  0
    2.9199    0.3263   -2.1206 C   0  0  0  0  0  0  0  0  0  0  0  0
   -2.7494    0.1358    0.2889 N   0  0  0  0  0  0  0  0  0  0  0  0
   -3.3864   -0.8963    1.0569 C   0  0  0  0  0  0  0  0  0  0  0  0
   -3.2048   -0.9234    2.4531 C   0  0  0  0  0  0  0  0  0  0  0  0
   -3.8050   -1.9070    3.2412 C   0  0  0  0  0  0  0  0  0  0  0  0
   -4.6070   -2.8761    2.6490 C   0  0  0  0  0  0  0  0  0  0  0  0
   -4.8252   -2.8463    1.2732 C   0  0  0  0  0  0  0  0  0  0  0  0
   -4.2338   -1.8548    0.4791 C   0  0  0  0  0  0  0  0  0  0  0  0
   -4.5445   -1.8870   -1.2631 S   0  0  0  0  0  0  0  0  0  0  0  0
   -4.3400   -0.1531   -1.6031 C   0  0  0  0  0  0  0  0  0  0  0  0
   -5.0081    0.3650   -2.7216 C   0  0  0  0  0  0  0  0  0  0  0  0
   -4.8554    1.6985   -3.0864 C   0  0  0  0  0  0  0  0  0  0  0  0
   -4.0331    2.5223   -2.3313 C   0  0  0  0  0  0  0  0  0  0  0  0
   -3.3573    2.0097   -1.2208 C   0  0  0  0  0  0  0  0  0  0  0  0
   -3.4863    0.6643   -0.8337 C   0  0  0  0  0  0  0  0  0  0  0  0
   -0.7856   -1.4641    0.8582 H   0  0  0  0  0  0  0  0  0  0  0  0
   -0.4545   -0.3761    2.2427 H   0  0  0  0  0  0  0  0  0  0  0  0
    1.9853   -0.2451    2.4333 H   0  0  0  0  0  0  0  0  0  0  0  0
    4.3055   -0.0792    3.0157 H   0  0  0  0  0  0  0  0  0  0  0  0
    6.6501    0.2816    3.6300 H   0  0  0  0  0  0  0  0  0  0  0  0
    7.6016    1.2779   -0.4373 H   0  0  0  0  0  0  0  0  0  0  0  0
    5.2659    0.9335   -1.0851 H   0  0  0  0  0  0  0  0  0  0  0  0
   -0.1715   -0.9074   -2.0226 H   0  0  0  0  0  0  0  0  0  0  0  0
   -0.0259    0.8983   -2.0460 H   0  0  0  0  0  0  0  0  0  0  0  0
    1.5369    0.4434   -3.8509 H   0  0  0  0  0  0  0  0  0  0  0  0
    1.8392   -1.1885   -3.2356 H   0  0  0  0  0  0  0  0  0  0  0  0
    3.1196    1.3894   -2.2865 H   0  0  0  0  0  0  0  0  0  0  0  0
    3.8010   -0.2783   -2.3465 H   0  0  0  0  0  0  0  0  0  0  0  0
   -2.6530   -0.1392    2.9686 H   0  0  0  0  0  0  0  0  0  0  0  0
   -3.6742   -1.9028    4.3235 H   0  0  0  0  0  0  0  0  0  0  0  0
   -5.0845   -3.6394    3.2600 H   0  0  0  0  0  0  0  0  0  0  0  0
   -5.4740   -3.5984    0.8290 H   0  0  0  0  0  0  0  0  0  0  0  0
   -5.6536   -0.2700   -3.3193 H   0  0  0  0  0  0  0  0  0  0  0  0
   -5.3812    2.0952   -3.9480 H   0  0  0  0  0  0  0  0  0  0  0  0
   -3.9239    3.5731   -2.5940 H   0  0  0  0  0  0  0  0  0  0  0  0
   -2.7694    2.7190   -0.6387 H   0  0  0  0  0  0  0  0  0  0  0  0
  1  2  2  0
  2  3  1  0
  3  4  1  0
  4  5  1  0
  5  6  2  0
  6  7  1  0
  7  8  2  0
  8  9  1  0
  9 10  2  0
 10 11  1  0
 10 12  1  0
 12 13  2  0
  6 14  1  0
 14 15  1  0
 15 16  1  0
 16 17  1  0
 17 18  1  0
  2 19  1  0
 19 20  1  0
 20 21  2  0
 21 22  1  0
 22 23  2  0
 23 24  1  0
 24 25  2  0
 25 26  1  0
 26 27  1  0
 27 28  2  0
 28 29  1  0
 29 30  2  0
 30 31  1  0
 31 32  2  0
 15  4  2  0
 32 19  1  0
 13  7  1  0
 18 14  1  0
 25 20  1  0
 32 27  1  0
  3 33  1  0
  3 34  1  0
  5 35  1  0
  8 36  1  0
  9 37  1  0
 12 38  1  0
 13 39  1  0
 16 40  1  0
 16 41  1  0
 17 42  1  0
 17 43  1  0
 18 44  1  0
 18 45  1  0
 21 46  1  0
 22 47  1  0
 23 48  1  0
 24 49  1  0
 28 50  1  0
 29 51  1  0
 30 52  1  0
 31 53  1  0
M  CHG  1   4   1
M  END
$$$$
