
     RDKit          3D

 33 35  0  0  0  0  0  0  0  0999 V2000
    3.0760    0.0427    2.1436 O   0  0  0  0  0  0  0  0  0  0  0  0
    3.6570   -0.3601    0.9702 C   0  0  0  0  0  0  0  0  0  0  0  0
    5.0394   -0.5644    0.9327 C   0  0  0  0  0  0  0  0  0  0  0  0
    5.6463   -0.9980   -0.2456 C   0  0  0  0  0  0  0  0  0  0  0  0
    4.8737   -1.2312   -1.3806 C   0  0  0  0  0  0  0  0  0  0  0  0
    3.4923   -1.0256   -1.3402 C   0  0  0  0  0  0  0  0  0  0  0  0
    2.8645   -0.5748   -0.1688 C   0  0  0  0  0  0  0  0  0  0  0  0
    1.4020   -0.4102   -0.2054 C   0  0  0  0  0  0  0  0  0  0  0  0
    0.7570    0.6559    0.2958 C   0  0  0  0  0  0  0  0  0  0  0  0
   -0.7004    0.8388    0.2482 C   0  0  0  0  0  0  0  0  0  0  0  0
   -1.2755    1.9565    0.8410 C   0  0  0  0  0  0  0  0  0  0  0  0
   -2.6577    2.1139    0.7802 C   0  0  0  0  0  0  0  0  0  0  0  0
   -3.4371    1.1526    0.1285 C   0  0  0  0  0  0  0  0  0  0  0  0
   -4.8383    1.2577    0.0349 C   0  0  0  0  0  0  0  0  0  0  0  0
   -5.5795    0.2754   -0.6247 C   0  0  0  0  0  0  0  0  0  0  0  0
   -4.9290   -0.8149   -1.1929 C   0  0  0  0  0  0  0  0  0  0  0  0
   -3.5440   -0.9060   -1.0924 C   0  0  0  0  0  0  0  0  0  0  0  0
   -2.9234   -1.9934   -1.6606 O   0  0  0  0  0  0  0  0  0  0  0  0
   -2.7709    0.0529   -0.4439 C   0  0  0  0  0  0  0  0  0  0  0  0
   -1.4315   -0.1064   -0.3903 N   0  0  0  0  0  0  0  0  0  0  0  0
    3.7441    0.0209    2.8469 H   0  0  0  0  0  0  0  0  0  0  0  0
    5.6563   -0.3927    1.8093 H   0  0  0  0  0  0  0  0  0  0  0  0
    6.7209   -1.1582   -0.2782 H   0  0  0  0  0  0  0  0  0  0  0  0
    5.3434   -1.5737   -2.2992 H   0  0  0  0  0  0  0  0  0  0  0  0
    2.9062   -1.2126   -2.2379 H   0  0  0  0  0  0  0  0  0  0  0  0
    0.8520   -1.2073   -0.6989 H   0  0  0  0  0  0  0  0  0  0  0  0
    1.3214    1.4509    0.7742 H   0  0  0  0  0  0  0  0  0  0  0  0
   -0.6669    2.6988    1.3468 H   0  0  0  0  0  0  0  0  0  0  0  0
   -3.1173    2.9840    1.2414 H   0  0  0  0  0  0  0  0  0  0  0  0
   -5.3579    2.1056    0.4757 H   0  0  0  0  0  0  0  0  0  0  0  0
   -6.6609    0.3606   -0.6944 H   0  0  0  0  0  0  0  0  0  0  0  0
   -5.4887   -1.5889   -1.7091 H   0  0  0  0  0  0  0  0  0  0  0  0
   -1.9736   -1.8487   -1.4609 H   0  0  0  0  0  0  0  0  0  0  0  0
  1  2  1  0
  2  3  2  0
  3  4  1  0
  4  5  2  0
  5  6  1  0
  6  7  2  0
  7  8  1  0
  8  9  2  0
  9 10  1  0
 10 11  2  0
 11 12  1  0
 12 13  2  0
 13 14  1  0
 14 15  2  0
 15 16  1  0
 16 17  2  0
 17 18  1  0
 17 19  1  0
 19 20  2  0
  7  2  1  0
 20 10  1  0
 19 13  1  0
  1 21  1  0
  3 22  1  0
  4 23  1  0
  5 24  1  0
  6 25  1  0
  8 26  1  0
  9 27  1  0
 11 28  1  0
 12 29  1  0
 14 30  1  0
 15 31  1  0
 16 32  1  0
 18 33  1  0
M  END
$$$$
