
     RDKit          3D

 48 50  0  0  0  0  0  0  0  0999 V2000
    8.3255    2.7427    1.0015 C   0  0  0  0  0  0  0  0  0  0  0  0
    7.4381    1.6467    0.5375 C   0  0  0  0  0  0  0  0  0  0  0  0
    7.7702    0.6393   -0.3481 C   0  0  0  0  0  0  0  0  0  0  0  0
    6.4266   -0.3969   -0.5802 S   0  0  0  0  0  0  0  0  0  0  0  0
    5.5195    0.5493    0.5034 C   0  0  0  0  0  0  0  0  0  0  0  0
    4.2196    0.2755    0.8411 N   0  0  0  0  0  0  0  0  0  0  0  0
    3.4362   -0.7585    0.3785 C   0  0  0  0  0  0  0  0  0  0  0  0
    3.7465   -1.6126   -0.4443 O   0  0  0  0  0  0  0  0  0  0  0  0
    2.0503   -0.7214    1.0005 C   0  0  0  0  0  0  0  0  0  0  0  0
    1.2137   -1.9455    0.6460 C   0  0  0  0  0  0  0  0  0  0  0  0
    0.8687   -1.9278   -0.7858 N   0  0  0  0  0  0  0  0  0  0  0  0
   -0.4210   -2.8767   -1.3006 S   0  0  0  0  0  6  0  0  0  0  0  0
   -0.6768   -3.9036   -0.3174 O   0  0  0  0  0  0  0  0  0  0  0  0
   -0.1732   -3.1879   -2.6904 O   0  0  0  0  0  0  0  0  0  0  0  0
   -1.7551   -1.7048   -1.2482 C   0  0  0  0  0  0  0  0  0  0  0  0
   -2.1189   -1.0112   -2.4017 C   0  0  0  0  0  0  0  0  0  0  0  0
   -3.1853   -0.1060   -2.3595 C   0  0  0  0  0  0  0  0  0  0  0  0
   -3.8997    0.1160   -1.1695 C   0  0  0  0  0  0  0  0  0  0  0  0
   -3.5197   -0.5933   -0.0299 C   0  0  0  0  0  0  0  0  0  0  0  0
   -2.4603   -1.5129   -0.0619 C   0  0  0  0  0  0  0  0  0  0  0  0
   -4.2371   -0.3654    1.2333 C   0  0  0  0  0  0  0  0  0  0  0  0
   -3.8436   -0.9334    2.2497 O   0  0  0  0  0  0  0  0  0  0  0  0
   -5.3148    0.5032    1.1897 N   0  0  0  0  0  0  0  0  0  0  0  0
   -6.0652    0.7296    2.4116 C   0  0  0  0  0  0  0  0  0  0  0  0
   -5.7066    1.2356    0.0749 C   0  0  0  0  0  0  0  0  0  0  0  0
   -6.6476    2.0313    0.1309 O   0  0  0  0  0  0  0  0  0  0  0  0
   -4.9829    1.0309   -1.0965 N   0  0  0  0  0  0  0  0  0  0  0  0
   -5.3740    1.7806   -2.2842 C   0  0  0  0  0  0  0  0  0  0  0  0
    6.1408    1.5823    1.0231 N   0  0  0  0  0  0  0  0  0  0  0  0
    9.0140    2.3729    1.7672 H   0  0  0  0  0  0  0  0  0  0  0  0
    8.9126    3.1461    0.1705 H   0  0  0  0  0  0  0  0  0  0  0  0
    7.7411    3.5619    1.4313 H   0  0  0  0  0  0  0  0  0  0  0  0
    8.7086    0.4667   -0.8556 H   0  0  0  0  0  0  0  0  0  0  0  0
    3.8443    0.9391    1.5041 H   0  0  0  0  0  0  0  0  0  0  0  0
    2.1668   -0.6766    2.0897 H   0  0  0  0  0  0  0  0  0  0  0  0
    1.5473    0.1945    0.6684 H   0  0  0  0  0  0  0  0  0  0  0  0
    1.7621   -2.8664    0.8719 H   0  0  0  0  0  0  0  0  0  0  0  0
    0.3026   -1.9226    1.2518 H   0  0  0  0  0  0  0  0  0  0  0  0
    1.6727   -2.0244   -1.4186 H   0  0  0  0  0  0  0  0  0  0  0  0
   -1.5827   -1.1682   -3.3363 H   0  0  0  0  0  0  0  0  0  0  0  0
   -3.4357    0.4112   -3.2818 H   0  0  0  0  0  0  0  0  0  0  0  0
   -2.1931   -2.0711    0.8339 H   0  0  0  0  0  0  0  0  0  0  0  0
   -7.1286    0.5499    2.2186 H   0  0  0  0  0  0  0  0  0  0  0  0
   -5.9399    1.7744    2.7145 H   0  0  0  0  0  0  0  0  0  0  0  0
   -5.7414    0.0803    3.2294 H   0  0  0  0  0  0  0  0  0  0  0  0
   -5.6873    1.0825   -3.0668 H   0  0  0  0  0  0  0  0  0  0  0  0
   -6.2088    2.4597   -2.0908 H   0  0  0  0  0  0  0  0  0  0  0  0
   -4.5283    2.3850   -2.6273 H   0  0  0  0  0  0  0  0  0  0  0  0
  1  2  1  0
  2  3  2  0
  3  4  1  0
  4  5  1  0
  5  6  1  0
  6  7  1  0
  7  8  2  0
  7  9  1  0
  9 10  1  0
 10 11  1  0
 11 12  1  0
 12 13  2  0
 12 14  2  0
 12 15  1  0
 15 16  2  0
 16 17  1  0
 17 18  2  0
 18 19  1  0
 19 20  2  0
 19 21  1  0
 21 22  2  0
 21 23  1  0
 23 24  1  0
 23 25  1  0
 25 26  2  0
 25 27  1  0
 27 28  1  0
  5 29  2  0
 29  2  1  0
 20 15  1  0
 27 18  1  0
  1 30  1  0
  1 31  1  0
  1 32  1  0
  3 33  1  0
  6 34  1  0
  9 35  1  0
  9 36  1  0
 10 37  1  0
 10 38  1  0
 11 39  1  0
 16 40  1  0
 17 41  1  0
 20 42  1  0
 24 43  1  0
 24 44  1  0
 24 45  1  0
 28 46  1  0
 28 47  1  0
 28 48  1  0
M  END
$$$$
