
     RDKit          3D

 61 65  0  0  0  0  0  0  0  0999 V2000
    6.7692    4.7493   -0.9538 C   0  0  0  0  0  0  0  0  0  0  0  0
    6.1655    3.5527   -1.4289 O   0  0  0  0  0  0  0  0  0  0  0  0
    5.6624    2.7006   -0.4846 C   0  0  0  0  0  0  0  0  0  0  0  0
    5.1660    1.4997   -0.9891 C   0  0  0  0  0  0  0  0  0  0  0  0
    4.6196    0.5375   -0.1369 C   0  0  0  0  0  0  0  0  0  0  0  0
    4.5641    0.7632    1.2425 C   0  0  0  0  0  0  0  0  0  0  0  0
    3.9505   -0.2627    2.1625 C   0  0  0  0  0  0  0  0  0  0  0  0
    2.5789    0.0744    2.4882 N   0  0  0  0  0  0  0  0  0  0  0  0
    2.2630    0.6493    3.6780 N   0  0  0  0  0  0  0  0  0  0  0  0
    0.9421    0.8401    3.6983 N   0  0  0  0  0  0  0  0  0  0  0  0
    0.4478    0.3691    2.5197 C   0  0  0  0  0  0  0  0  0  0  0  0
   -0.8936    0.3343    2.0068 C   0  0  0  0  0  0  0  0  0  0  0  0
   -1.8961    0.7325    2.5915 O   0  0  0  0  0  0  0  0  0  0  0  0
   -0.9508   -0.2177    0.7292 N   0  0  0  0  0  0  0  0  0  0  0  0
    0.1503   -0.7103    0.0360 C   0  0  0  0  0  0  0  0  0  0  0  0
   -0.0886   -1.2527   -1.3707 C   0  0  0  0  0  0  0  0  0  0  0  0
   -0.3550   -0.1066   -2.3592 C   0  0  0  0  0  0  0  0  0  0  0  0
   -1.8389    0.1989   -2.5371 C   0  0  0  0  0  0  0  0  0  0  0  0
   -2.6088   -1.0129   -2.8943 N   0  0  0  0  0  0  0  0  0  0  0  0
   -4.3056   -0.9186   -2.8181 S   0  0  0  0  0  6  0  0  0  0  0  0
   -4.6997    0.4188   -3.2107 O   0  0  0  0  0  0  0  0  0  0  0  0
   -4.8532   -2.0931   -3.4643 O   0  0  0  0  0  0  0  0  0  0  0  0
   -4.6048   -1.0693   -1.0712 C   0  0  0  0  0  0  0  0  0  0  0  0
   -4.6138    0.0754   -0.2726 C   0  0  0  0  0  0  0  0  0  0  0  0
   -4.8011   -0.0495    1.1028 C   0  0  0  0  0  0  0  0  0  0  0  0
   -5.0117   -1.3080    1.6802 C   0  0  0  0  0  0  0  0  0  0  0  0
   -5.2263   -1.4467    3.1608 C   0  0  0  0  0  0  0  0  0  0  0  0
   -5.0354   -2.4457    0.8604 C   0  0  0  0  0  0  0  0  0  0  0  0
   -4.8400   -2.3300   -0.5168 C   0  0  0  0  0  0  0  0  0  0  0  0
   -1.9595   -2.3215   -2.6983 C   0  0  0  0  0  0  0  0  0  0  0  0
   -1.1622   -2.3451   -1.4032 C   0  0  0  0  0  0  0  0  0  0  0  0
    1.3683   -0.6960    0.5041 N   0  0  0  0  0  0  0  0  0  0  0  0
    1.4568   -0.1399    1.7380 C   0  0  0  0  0  0  0  0  0  0  0  0
    5.0566    1.9742    1.7462 C   0  0  0  0  0  0  0  0  0  0  0  0
    5.6038    2.9352    0.8878 C   0  0  0  0  0  0  0  0  0  0  0  0
    6.0323    5.3930   -0.4657 H   0  0  0  0  0  0  0  0  0  0  0  0
    7.1642    5.2913   -1.8178 H   0  0  0  0  0  0  0  0  0  0  0  0
    7.6086    4.5319   -0.2868 H   0  0  0  0  0  0  0  0  0  0  0  0
    5.2009    1.3135   -2.0589 H   0  0  0  0  0  0  0  0  0  0  0  0
    4.2299   -0.3845   -0.5626 H   0  0  0  0  0  0  0  0  0  0  0  0
    4.5233   -0.3372    3.0961 H   0  0  0  0  0  0  0  0  0  0  0  0
    3.9515   -1.2606    1.7054 H   0  0  0  0  0  0  0  0  0  0  0  0
   -1.8882   -0.2945    0.3642 H   0  0  0  0  0  0  0  0  0  0  0  0
    0.8592   -1.7137   -1.6823 H   0  0  0  0  0  0  0  0  0  0  0  0
    0.0633   -0.3822   -3.3355 H   0  0  0  0  0  0  0  0  0  0  0  0
    0.1729    0.8055   -2.0508 H   0  0  0  0  0  0  0  0  0  0  0  0
   -1.9513    0.9413   -3.3393 H   0  0  0  0  0  0  0  0  0  0  0  0
   -2.2308    0.6486   -1.6192 H   0  0  0  0  0  0  0  0  0  0  0  0
   -4.4784    1.0644   -0.7067 H   0  0  0  0  0  0  0  0  0  0  0  0
   -4.7895    0.8424    1.7261 H   0  0  0  0  0  0  0  0  0  0  0  0
   -4.3978   -2.0038    3.6090 H   0  0  0  0  0  0  0  0  0  0  0  0
   -5.2855   -0.4701    3.6516 H   0  0  0  0  0  0  0  0  0  0  0  0
   -6.1646   -1.9744    3.3565 H   0  0  0  0  0  0  0  0  0  0  0  0
   -5.2181   -3.4269    1.2943 H   0  0  0  0  0  0  0  0  0  0  0  0
   -4.8770   -3.2203   -1.1426 H   0  0  0  0  0  0  0  0  0  0  0  0
   -1.3040   -2.5132   -3.5524 H   0  0  0  0  0  0  0  0  0  0  0  0
   -2.6902   -3.1328   -2.6919 H   0  0  0  0  0  0  0  0  0  0  0  0
   -0.6762   -3.3232   -1.2931 H   0  0  0  0  0  0  0  0  0  0  0  0
   -1.8472   -2.2653   -0.5548 H   0  0  0  0  0  0  0  0  0  0  0  0
    5.0094    2.1831    2.8120 H   0  0  0  0  0  0  0  0  0  0  0  0
    5.9635    3.8583    1.3223 H   0  0  0  0  0  0  0  0  0  0  0  0
  1  2  1  0
  2  3  1  0
  3  4  2  0
  4  5  1  0
  5  6  2  0
  6  7  1  0
  7  8  1  0
  8  9  1  0
  9 10  2  0
 10 11  1  0
 11 12  1  0
 12 13  2  0
 12 14  1  0
 14 15  1  0
 15 16  1  0
 16 17  1  0
 17 18  1  0
 18 19  1  0
 19 20  1  0
 20 21  2  0
 20 22  2  0
 20 23  1  0
 23 24  2  0
 24 25  1  0
 25 26  2  0
 26 27  1  0
 26 28  1  0
 28 29  2  0
 19 30  1  0
 30 31  1  0
 15 32  2  0
 32 33  1  0
  6 34  1  0
 34 35  2  0
 35  3  1  0
 33  8  1  0
 33 11  2  0
 31 16  1  0
 29 23  1  0
  1 36  1  0
  1 37  1  0
  1 38  1  0
  4 39  1  0
  5 40  1  0
  7 41  1  0
  7 42  1  0
 14 43  1  0
 16 44  1  0
 17 45  1  0
 17 46  1  0
 18 47  1  0
 18 48  1  0
 24 49  1  0
 25 50  1  0
 27 51  1  0
 27 52  1  0
 27 53  1  0
 28 54  1  0
 29 55  1  0
 30 56  1  0
 30 57  1  0
 31 58  1  0
 31 59  1  0
 34 60  1  0
 35 61  1  0
M  END
$$$$
