
     RDKit          3D

 68 69  0  0  0  0  0  0  0  0999 V2000
    0.0153    4.5755    1.4903 C   0  0  0  0  0  0  0  0  0  0  0  0
   -0.1288    3.6781    0.3978 O   0  0  0  0  0  0  0  0  0  0  0  0
   -0.1645    2.3183    0.8350 C   0  0  0  0  0  0  0  0  0  0  0  0
   -0.3442    1.4113   -0.3875 C   0  0  0  0  0  0  0  0  0  0  0  0
   -0.2626   -0.0249   -0.0702 N   0  0  0  0  0  0  0  0  0  0  0  0
    0.9179   -0.7577   -0.1296 C   0  0  0  0  0  0  0  0  0  0  0  0
    0.9360   -1.9776    0.0504 O   0  0  0  0  0  0  0  0  0  0  0  0
    2.2060   -0.0026   -0.4083 C   0  0  0  0  0  0  0  0  0  0  0  0
    3.4182   -0.9282   -0.3406 C   0  0  0  0  0  0  0  0  0  0  0  0
    4.7199   -0.1698   -0.5020 C   0  0  0  0  0  0  0  0  0  0  0  0
    4.7620    1.0518   -0.5991 O   0  0  0  0  0  0  0  0  0  0  0  0
    5.8054   -1.0160   -0.5074 N   0  0  0  0  0  0  0  0  0  0  0  0
    7.1200   -0.6241   -0.6266 C   0  0  0  0  0  0  0  0  0  0  0  0
    7.6626    0.6711   -0.7692 C   0  0  0  0  0  0  0  0  0  0  0  0
    9.0187    0.4721   -0.8407 C   0  0  0  0  0  0  0  0  0  0  0  0
   10.1833    1.3612   -0.9873 C   0  0  0  0  0  0  0  0  0  0  0  0
    9.2780   -0.8579   -0.7454 O   0  0  0  0  0  0  0  0  0  0  0  0
    8.0873   -1.5483   -0.6125 N   0  0  0  0  0  0  0  0  0  0  0  0
   -1.5225   -0.7892    0.0557 C   0  0  0  0  0  0  0  0  0  0  0  0
   -2.1753   -1.0623   -1.3339 C   0  0  0  0  0  0  0  0  0  0  0  0
   -1.8447   -0.4696   -2.3590 O   0  0  0  0  0  0  0  0  0  0  0  0
   -3.1775   -2.0219   -1.3032 N   0  0  0  0  0  0  0  0  0  0  0  0
   -4.0026   -2.4160   -2.4544 C   0  0  0  0  0  0  0  0  0  0  0  0
   -4.8410   -1.2296   -2.9530 C   0  0  0  0  0  0  0  0  0  0  0  0
   -4.9599   -3.5301   -1.9926 C   0  0  0  0  0  0  0  0  0  0  0  0
   -3.1364   -2.9719   -3.5962 C   0  0  0  0  0  0  0  0  0  0  0  0
   -2.4790   -0.1863    1.0806 C   0  0  0  0  0  0  0  0  0  0  0  0
   -2.2802   -0.4644    2.4436 C   0  0  0  0  0  0  0  0  0  0  0  0
   -3.1234    0.0766    3.4205 C   0  0  0  0  0  0  0  0  0  0  0  0
   -4.1764    0.9114    3.0519 C   0  0  0  0  0  0  0  0  0  0  0  0
   -5.0691    1.5043    3.9005 O   0  0  0  0  0  0  0  0  0  0  0  0
   -4.9060    1.2468    5.2894 C   0  0  0  0  0  0  0  0  0  0  0  0
   -4.3745    1.2009    1.7006 C   0  0  0  0  0  0  0  0  0  0  0  0
   -3.5351    0.6630    0.7216 C   0  0  0  0  0  0  0  0  0  0  0  0
   -0.8334    4.4850    2.1754 H   0  0  0  0  0  0  0  0  0  0  0  0
    0.9517    4.3835    2.0229 H   0  0  0  0  0  0  0  0  0  0  0  0
    0.0395    5.5950    1.0966 H   0  0  0  0  0  0  0  0  0  0  0  0
    0.7674    2.0822    1.3593 H   0  0  0  0  0  0  0  0  0  0  0  0
   -0.9913    2.1882    1.5395 H   0  0  0  0  0  0  0  0  0  0  0  0
    0.4109    1.6664   -1.1376 H   0  0  0  0  0  0  0  0  0  0  0  0
   -1.2999    1.6330   -0.8748 H   0  0  0  0  0  0  0  0  0  0  0  0
    2.3155    0.7994    0.3276 H   0  0  0  0  0  0  0  0  0  0  0  0
    2.1528    0.4391   -1.4093 H   0  0  0  0  0  0  0  0  0  0  0  0
    3.3540   -1.6882   -1.1284 H   0  0  0  0  0  0  0  0  0  0  0  0
    3.4469   -1.4450    0.6263 H   0  0  0  0  0  0  0  0  0  0  0  0
    5.6812   -2.0156   -0.4206 H   0  0  0  0  0  0  0  0  0  0  0  0
    7.1448    1.6171   -0.8141 H   0  0  0  0  0  0  0  0  0  0  0  0
   10.7398    1.4191   -0.0473 H   0  0  0  0  0  0  0  0  0  0  0  0
    9.8712    2.3733   -1.2623 H   0  0  0  0  0  0  0  0  0  0  0  0
   10.8577    0.9919   -1.7656 H   0  0  0  0  0  0  0  0  0  0  0  0
   -1.2829   -1.7945    0.4295 H   0  0  0  0  0  0  0  0  0  0  0  0
   -3.4733   -2.3460   -0.3895 H   0  0  0  0  0  0  0  0  0  0  0  0
   -5.5176   -1.5359   -3.7586 H   0  0  0  0  0  0  0  0  0  0  0  0
   -5.4489   -0.8090   -2.1439 H   0  0  0  0  0  0  0  0  0  0  0  0
   -4.2140   -0.4212   -3.3415 H   0  0  0  0  0  0  0  0  0  0  0  0
   -5.6045   -3.8707   -2.8107 H   0  0  0  0  0  0  0  0  0  0  0  0
   -4.4031   -4.3974   -1.6185 H   0  0  0  0  0  0  0  0  0  0  0  0
   -5.6067   -3.1831   -1.1783 H   0  0  0  0  0  0  0  0  0  0  0  0
   -3.7578   -3.3622   -4.4104 H   0  0  0  0  0  0  0  0  0  0  0  0
   -2.4961   -3.7874   -3.2411 H   0  0  0  0  0  0  0  0  0  0  0  0
   -2.4832   -2.2078   -4.0283 H   0  0  0  0  0  0  0  0  0  0  0  0
   -1.4568   -1.1063    2.7553 H   0  0  0  0  0  0  0  0  0  0  0  0
   -2.9264   -0.1719    4.4581 H   0  0  0  0  0  0  0  0  0  0  0  0
   -5.6903    1.7909    5.8243 H   0  0  0  0  0  0  0  0  0  0  0  0
   -5.0291    0.1814    5.5110 H   0  0  0  0  0  0  0  0  0  0  0  0
   -3.9399    1.6166    5.6488 H   0  0  0  0  0  0  0  0  0  0  0  0
   -5.1894    1.8589    1.4064 H   0  0  0  0  0  0  0  0  0  0  0  0
   -3.7160    0.9273   -0.3193 H   0  0  0  0  0  0  0  0  0  0  0  0
  1  2  1  0
  2  3  1  0
  3  4  1  0
  4  5  1  0
  5  6  1  0
  6  7  2  0
  6  8  1  0
  8  9  1  0
  9 10  1  0
 10 11  2  0
 10 12  1  0
 12 13  1  0
 13 14  1  0
 14 15  2  0
 15 16  1  0
 15 17  1  0
 17 18  1  0
  5 19  1  0
 19 20  1  0
 20 21  2  0
 20 22  1  0
 22 23  1  0
 23 24  1  0
 23 25  1  0
 23 26  1  0
 19 27  1  0
 27 28  2  0
 28 29  1  0
 29 30  2  0
 30 31  1  0
 31 32  1  0
 30 33  1  0
 33 34  2  0
 18 13  2  0
 34 27  1  0
  1 35  1  0
  1 36  1  0
  1 37  1  0
  3 38  1  0
  3 39  1  0
  4 40  1  0
  4 41  1  0
  8 42  1  0
  8 43  1  0
  9 44  1  0
  9 45  1  0
 12 46  1  0
 14 47  1  0
 16 48  1  0
 16 49  1  0
 16 50  1  0
 19 51  1  0
 22 52  1  0
 24 53  1  0
 24 54  1  0
 24 55  1  0
 25 56  1  0
 25 57  1  0
 25 58  1  0
 26 59  1  0
 26 60  1  0
 26 61  1  0
 28 62  1  0
 29 63  1  0
 32 64  1  0
 32 65  1  0
 32 66  1  0
 33 67  1  0
 34 68  1  0
M  END
$$$$
