
     RDKit          3D

 54 57  0  0  0  0  0  0  0  0999 V2000
   -4.8299    0.3317   -3.7334 C   0  0  0  0  0  0  0  0  0  0  0  0
   -4.8655    1.4546   -2.8629 O   0  0  0  0  0  0  0  0  0  0  0  0
   -4.0912    1.3921   -1.7329 C   0  0  0  0  0  0  0  0  0  0  0  0
   -3.0716    0.4608   -1.5175 C   0  0  0  0  0  0  0  0  0  0  0  0
   -2.3070    0.4608   -0.3327 C   0  0  0  0  0  0  0  0  0  0  0  0
   -1.2284   -0.5322   -0.1413 C   0  0  0  0  0  0  0  0  0  0  0  0
   -0.0656   -0.2592    0.5564 C   0  0  0  0  0  0  0  0  0  0  0  0
    0.8912   -1.2676    0.6767 C   0  0  0  0  0  0  0  0  0  0  0  0
    2.1371   -0.9001    1.3872 C   0  0  0  0  0  0  0  0  0  0  0  0
    2.0384   -0.4772    2.5308 O   0  0  0  0  0  0  0  0  0  0  0  0
    3.2793   -1.0299    0.6214 N   0  0  0  0  0  0  0  0  0  0  0  0
    4.6072   -0.7685    1.0159 C   0  0  0  0  0  0  0  0  0  0  0  0
    5.6072   -0.9360    0.0469 C   0  0  0  0  0  0  0  0  0  0  0  0
    6.9508   -0.7024    0.3568 C   0  0  0  0  0  0  0  0  0  0  0  0
    7.2935   -0.3016    1.6418 C   0  0  0  0  0  0  0  0  0  0  0  0
    8.5883   -0.0622    1.9920 O   0  0  0  0  0  0  0  0  0  0  0  0
    6.3166   -0.1331    2.6137 C   0  0  0  0  0  0  0  0  0  0  0  0
    4.9734   -0.3666    2.3018 C   0  0  0  0  0  0  0  0  0  0  0  0
    0.6727   -2.5543    0.1413 C   0  0  0  0  0  0  0  0  0  0  0  0
    1.5519   -3.6593    0.2825 C   0  0  0  0  0  0  0  0  0  0  0  0
    1.2545   -4.8919   -0.2949 C   0  0  0  0  0  0  0  0  0  0  0  0
    0.0766   -5.0424   -1.0115 C   0  0  0  0  0  0  0  0  0  0  0  0
   -0.8005   -3.9624   -1.1353 C   0  0  0  0  0  0  0  0  0  0  0  0
   -0.5300   -2.7250   -0.5665 C   0  0  0  0  0  0  0  0  0  0  0  0
   -1.4359   -1.7433   -0.7156 N   0  0  0  0  0  0  0  0  0  0  0  0
   -2.6125    1.4236    0.6510 C   0  0  0  0  0  0  0  0  0  0  0  0
   -3.6261    2.3684    0.4580 C   0  0  0  0  0  0  0  0  0  0  0  0
   -3.9742    3.3377    1.3635 O   0  0  0  0  0  0  0  0  0  0  0  0
   -3.4362    3.2336    2.6745 C   0  0  0  0  0  0  0  0  0  0  0  0
   -4.3417    2.3592   -0.7488 C   0  0  0  0  0  0  0  0  0  0  0  0
   -5.3665    3.2616   -0.9331 O   0  0  0  0  0  0  0  0  0  0  0  0
   -4.8656    4.4365   -1.5678 C   0  0  0  0  0  0  0  0  0  0  0  0
   -3.8644    0.2649   -4.2449 H   0  0  0  0  0  0  0  0  0  0  0  0
   -5.5999    0.4770   -4.4972 H   0  0  0  0  0  0  0  0  0  0  0  0
   -5.0612   -0.5966   -3.2002 H   0  0  0  0  0  0  0  0  0  0  0  0
   -2.8386   -0.2860   -2.2720 H   0  0  0  0  0  0  0  0  0  0  0  0
    0.1224    0.7193    0.9875 H   0  0  0  0  0  0  0  0  0  0  0  0
    3.1531   -1.3220   -0.3406 H   0  0  0  0  0  0  0  0  0  0  0  0
    5.3555   -1.2484   -0.9632 H   0  0  0  0  0  0  0  0  0  0  0  0
    7.7056   -0.8373   -0.4112 H   0  0  0  0  0  0  0  0  0  0  0  0
    9.1550   -0.2109    1.2179 H   0  0  0  0  0  0  0  0  0  0  0  0
    6.5940    0.1801    3.6165 H   0  0  0  0  0  0  0  0  0  0  0  0
    4.2396   -0.2266    3.0892 H   0  0  0  0  0  0  0  0  0  0  0  0
    2.4683   -3.5751    0.8644 H   0  0  0  0  0  0  0  0  0  0  0  0
    1.9347   -5.7319   -0.1752 H   0  0  0  0  0  0  0  0  0  0  0  0
   -0.1731   -5.9990   -1.4638 H   0  0  0  0  0  0  0  0  0  0  0  0
   -1.7305   -4.0943   -1.6848 H   0  0  0  0  0  0  0  0  0  0  0  0
   -2.0515    1.4142    1.5802 H   0  0  0  0  0  0  0  0  0  0  0  0
   -2.3565    3.4144    2.6695 H   0  0  0  0  0  0  0  0  0  0  0  0
   -3.8998    4.0115    3.2888 H   0  0  0  0  0  0  0  0  0  0  0  0
   -3.6740    2.2655    3.1280 H   0  0  0  0  0  0  0  0  0  0  0  0
   -4.4574    4.2126   -2.5595 H   0  0  0  0  0  0  0  0  0  0  0  0
   -4.1091    4.9330   -0.9504 H   0  0  0  0  0  0  0  0  0  0  0  0
   -5.7025    5.1294   -1.6969 H   0  0  0  0  0  0  0  0  0  0  0  0
  1  2  1  0
  2  3  1  0
  3  4  2  0
  4  5  1  0
  5  6  1  0
  6  7  2  0
  7  8  1  0
  8  9  1  0
  9 10  2  0
  9 11  1  0
 11 12  1  0
 12 13  2  0
 13 14  1  0
 14 15  2  0
 15 16  1  0
 15 17  1  0
 17 18  2  0
  8 19  2  0
 19 20  1  0
 20 21  2  0
 21 22  1  0
 22 23  2  0
 23 24  1  0
 24 25  2  0
  5 26  2  0
 26 27  1  0
 27 28  1  0
 28 29  1  0
 27 30  2  0
 30 31  1  0
 31 32  1  0
 30  3  1  0
 25  6  1  0
 18 12  1  0
 24 19  1  0
  1 33  1  0
  1 34  1  0
  1 35  1  0
  4 36  1  0
  7 37  1  0
 11 38  1  0
 13 39  1  0
 14 40  1  0
 16 41  1  0
 17 42  1  0
 18 43  1  0
 20 44  1  0
 21 45  1  0
 22 46  1  0
 23 47  1  0
 26 48  1  0
 29 49  1  0
 29 50  1  0
 29 51  1  0
 32 52  1  0
 32 53  1  0
 32 54  1  0
M  END
$$$$
