
     RDKit          3D

 46 48  0  0  0  0  0  0  0  0999 V2000
    1.7839    2.9122    0.8835 O   0  0  0  0  0  0  0  0  0  0  0  0
    1.2654    1.9514    0.3111 C   0  0  0  0  0  0  0  0  0  0  0  0
   -0.0432    1.3193    0.7726 C   0  0  0  0  0  0  0  0  0  0  0  0
   -0.7108    0.6961   -0.3205 O   0  0  0  0  0  0  0  0  0  0  0  0
   -2.0129    0.3417   -0.1028 C   0  0  0  0  0  0  0  0  0  0  0  0
   -2.5869    0.0989    1.1433 C   0  0  0  0  0  0  0  0  0  0  0  0
   -3.9361   -0.2669    1.2331 C   0  0  0  0  0  0  0  0  0  0  0  0
   -4.7383   -0.3987    0.0867 C   0  0  0  0  0  0  0  0  0  0  0  0
   -6.1610   -0.7754    0.1876 C   0  0  0  0  0  0  0  0  0  0  0  0
   -7.0172   -0.1428    1.1076 C   0  0  0  0  0  0  0  0  0  0  0  0
   -8.3668   -0.4959    1.2006 C   0  0  0  0  0  0  0  0  0  0  0  0
   -8.8867   -1.4902    0.3744 C   0  0  0  0  0  0  0  0  0  0  0  0
   -8.0577   -2.1321   -0.5427 C   0  0  0  0  0  0  0  0  0  0  0  0
   -6.7082   -1.7785   -0.6332 C   0  0  0  0  0  0  0  0  0  0  0  0
   -4.1367   -0.1607   -1.1590 C   0  0  0  0  0  0  0  0  0  0  0  0
   -2.7884    0.1979   -1.2529 C   0  0  0  0  0  0  0  0  0  0  0  0
    1.8565    1.3296   -0.7779 N   0  0  0  0  0  0  0  0  0  0  0  0
    3.2306    1.6212   -0.9909 N   0  0  0  0  0  0  0  0  0  0  0  0
    4.1121    0.5861   -0.6948 C   0  0  0  0  0  0  0  0  0  0  0  0
    3.7190   -0.5501   -0.4475 O   0  0  0  0  0  0  0  0  0  0  0  0
    5.4173    1.0153   -0.7413 N   0  0  0  0  0  0  0  0  0  0  0  0
    6.5780    0.2847   -0.4144 C   0  0  0  0  0  0  0  0  0  0  0  0
    6.5716   -0.9833    0.1707 C   0  0  0  0  0  0  0  0  0  0  0  0
    7.7804   -1.6133    0.4876 C   0  0  0  0  0  0  0  0  0  0  0  0
    8.9891   -0.9805    0.2125 C   0  0  0  0  0  0  0  0  0  0  0  0
   10.1391   -1.5902    0.5254 F   0  0  0  0  0  0  0  0  0  0  0  0
    9.0181    0.2774   -0.3697 C   0  0  0  0  0  0  0  0  0  0  0  0
    7.8129    0.9017   -0.6677 C   0  0  0  0  0  0  0  0  0  0  0  0
    7.8359    2.1278   -1.2157 F   0  0  0  0  0  0  0  0  0  0  0  0
   -0.6601    2.1207    1.1985 H   0  0  0  0  0  0  0  0  0  0  0  0
    0.2073    0.5754    1.5382 H   0  0  0  0  0  0  0  0  0  0  0  0
   -2.0139    0.1658    2.0613 H   0  0  0  0  0  0  0  0  0  0  0  0
   -4.3558   -0.4666    2.2171 H   0  0  0  0  0  0  0  0  0  0  0  0
   -6.6391    0.6434    1.7573 H   0  0  0  0  0  0  0  0  0  0  0  0
   -9.0104    0.0061    1.9180 H   0  0  0  0  0  0  0  0  0  0  0  0
   -9.9359   -1.7639    0.4455 H   0  0  0  0  0  0  0  0  0  0  0  0
   -8.4582   -2.9086   -1.1879 H   0  0  0  0  0  0  0  0  0  0  0  0
   -6.0785   -2.3033   -1.3493 H   0  0  0  0  0  0  0  0  0  0  0  0
   -4.7197   -0.2390   -2.0752 H   0  0  0  0  0  0  0  0  0  0  0  0
   -2.3488    0.3767   -2.2303 H   0  0  0  0  0  0  0  0  0  0  0  0
    1.5955    0.3577   -0.9578 H   0  0  0  0  0  0  0  0  0  0  0  0
    3.4912    2.5297   -0.6073 H   0  0  0  0  0  0  0  0  0  0  0  0
    5.5772    1.9316   -1.1411 H   0  0  0  0  0  0  0  0  0  0  0  0
    5.6474   -1.5043    0.3997 H   0  0  0  0  0  0  0  0  0  0  0  0
    7.7830   -2.5963    0.9501 H   0  0  0  0  0  0  0  0  0  0  0  0
    9.9602    0.7720   -0.5693 H   0  0  0  0  0  0  0  0  0  0  0  0
  1  2  2  0
  2  3  1  0
  3  4  1  0
  4  5  1  0
  5  6  2  0
  6  7  1  0
  7  8  2  0
  8  9  1  0
  9 10  2  0
 10 11  1  0
 11 12  2  0
 12 13  1  0
 13 14  2  0
  8 15  1  0
 15 16  2  0
  2 17  1  0
 17 18  1  0
 18 19  1  0
 19 20  2  0
 19 21  1  0
 21 22  1  0
 22 23  2  0
 23 24  1  0
 24 25  2  0
 25 26  1  0
 25 27  1  0
 27 28  2  0
 28 29  1  0
 16  5  1  0
 28 22  1  0
 14  9  1  0
  3 30  1  0
  3 31  1  0
  6 32  1  0
  7 33  1  0
 10 34  1  0
 11 35  1  0
 12 36  1  0
 13 37  1  0
 14 38  1  0
 15 39  1  0
 16 40  1  0
 17 41  1  0
 18 42  1  0
 21 43  1  0
 23 44  1  0
 24 45  1  0
 27 46  1  0
M  END
$$$$
