
     RDKit          3D

 54 58  0  0  0  0  0  0  0  0999 V2000
    5.1068   -2.2972   -1.8875 F   0  0  0  0  0  0  0  0  0  0  0  0
    6.0896   -1.8602   -1.0528 C   0  0  0  0  0  0  0  0  0  0  0  0
    7.2615   -2.2280   -1.6474 F   0  0  0  0  0  0  0  0  0  0  0  0
    6.0009   -2.6212    0.0738 F   0  0  0  0  0  0  0  0  0  0  0  0
    5.9938   -0.3754   -0.7645 C   0  0  0  0  0  0  0  0  0  0  0  0
    7.0877    0.4530   -1.0838 C   0  0  0  0  0  0  0  0  0  0  0  0
    7.0505    1.8251   -0.8364 C   0  0  0  0  0  0  0  0  0  0  0  0
    5.9203    2.3944   -0.2634 C   0  0  0  0  0  0  0  0  0  0  0  0
    4.8266    1.5941    0.0618 C   0  0  0  0  0  0  0  0  0  0  0  0
    4.8452    0.2075   -0.1809 C   0  0  0  0  0  0  0  0  0  0  0  0
    3.6105   -0.5971    0.1797 C   0  0  0  0  0  0  0  0  0  0  0  0
    2.4997   -0.4506   -0.8788 C   0  0  0  0  0  0  0  0  0  0  0  0
    1.3342   -1.3187   -0.6365 N   0  0  0  0  0  0  0  0  0  0  0  0
    0.6982   -1.0581    0.6745 C   0  0  0  0  0  0  0  0  0  0  0  0
   -0.7710   -1.5291    0.7602 C   0  0  0  0  0  0  0  0  0  0  0  0
   -1.6112   -0.8497   -0.2387 N   0  0  0  0  0  0  0  0  0  0  0  0
   -2.8301   -0.2820    0.1137 C   0  0  0  0  0  0  0  0  0  0  0  0
   -3.1164    0.9126   -0.3456 N   0  0  0  0  0  0  0  0  0  0  0  0
   -4.3190    1.5519    0.0118 C   0  0  0  0  0  0  0  0  0  0  0  0
   -4.5582    2.8375   -0.4780 C   0  0  0  0  0  0  0  0  0  0  0  0
   -5.7300    3.5208   -0.1446 C   0  0  0  0  0  0  0  0  0  0  0  0
   -6.6798    2.9204    0.6834 C   0  0  0  0  0  0  0  0  0  0  0  0
   -6.4621    1.6374    1.1835 C   0  0  0  0  0  0  0  0  0  0  0  0
   -5.2823    0.9681    0.8458 C   0  0  0  0  0  0  0  0  0  0  0  0
   -4.9842   -0.3243    1.3057 N   0  0  0  0  0  0  0  0  0  0  0  0
   -5.7272   -1.1590    2.1071 C   0  0  0  0  0  0  0  0  0  0  0  0
   -5.0479   -2.3506    2.2360 C   0  0  0  0  0  0  0  0  0  0  0  0
   -3.8482   -2.2284    1.4970 C   0  0  0  0  0  0  0  0  0  0  0  0
   -3.8096   -0.9541    0.9563 C   0  0  0  0  0  0  0  0  0  0  0  0
   -0.8846   -0.3287   -1.4088 C   0  0  0  0  0  0  0  0  0  0  0  0
    0.3432   -1.2045   -1.7338 C   0  0  0  0  0  0  0  0  0  0  0  0
    7.9848    0.0270   -1.5322 H   0  0  0  0  0  0  0  0  0  0  0  0
    7.9045    2.4481   -1.0907 H   0  0  0  0  0  0  0  0  0  0  0  0
    5.8884    3.4632   -0.0686 H   0  0  0  0  0  0  0  0  0  0  0  0
    3.9511    2.0602    0.5105 H   0  0  0  0  0  0  0  0  0  0  0  0
    3.8603   -1.6546    0.3175 H   0  0  0  0  0  0  0  0  0  0  0  0
    3.2576   -0.2510    1.1603 H   0  0  0  0  0  0  0  0  0  0  0  0
    2.9305   -0.7139   -1.8552 H   0  0  0  0  0  0  0  0  0  0  0  0
    2.1839    0.6000   -0.9476 H   0  0  0  0  0  0  0  0  0  0  0  0
    1.2712   -1.5714    1.4555 H   0  0  0  0  0  0  0  0  0  0  0  0
    0.7206    0.0170    0.9021 H   0  0  0  0  0  0  0  0  0  0  0  0
   -0.8240   -2.6127    0.5982 H   0  0  0  0  0  0  0  0  0  0  0  0
   -1.1276   -1.3238    1.7768 H   0  0  0  0  0  0  0  0  0  0  0  0
   -3.8202    3.3085   -1.1225 H   0  0  0  0  0  0  0  0  0  0  0  0
   -5.8998    4.5218   -0.5313 H   0  0  0  0  0  0  0  0  0  0  0  0
   -7.5911    3.4546    0.9385 H   0  0  0  0  0  0  0  0  0  0  0  0
   -7.2151    1.1900    1.8233 H   0  0  0  0  0  0  0  0  0  0  0  0
   -6.6830   -0.8599    2.5112 H   0  0  0  0  0  0  0  0  0  0  0  0
   -5.3865   -3.2170    2.7902 H   0  0  0  0  0  0  0  0  0  0  0  0
   -3.0977   -2.9966    1.3708 H   0  0  0  0  0  0  0  0  0  0  0  0
   -1.5520   -0.3250   -2.2772 H   0  0  0  0  0  0  0  0  0  0  0  0
   -0.5634    0.7034   -1.2266 H   0  0  0  0  0  0  0  0  0  0  0  0
    0.8102   -0.8516   -2.6622 H   0  0  0  0  0  0  0  0  0  0  0  0
   -0.0093   -2.2219   -1.9497 H   0  0  0  0  0  0  0  0  0  0  0  0
  1  2  1  0
  2  3  1  0
  2  4  1  0
  2  5  1  0
  5  6  2  0
  6  7  1  0
  7  8  2  0
  8  9  1  0
  9 10  2  0
 10 11  1  0
 11 12  1  0
 12 13  1  0
 13 14  1  0
 14 15  1  0
 15 16  1  0
 16 17  1  0
 17 18  2  0
 18 19  1  0
 19 20  2  0
 20 21  1  0
 21 22  2  0
 22 23  1  0
 23 24  2  0
 24 25  1  0
 25 26  1  0
 26 27  2  0
 27 28  1  0
 28 29  2  0
 16 30  1  0
 30 31  1  0
 10  5  1  0
 31 13  1  0
 29 17  1  0
 24 19  1  0
 29 25  1  0
  6 32  1  0
  7 33  1  0
  8 34  1  0
  9 35  1  0
 11 36  1  0
 11 37  1  0
 12 38  1  0
 12 39  1  0
 14 40  1  0
 14 41  1  0
 15 42  1  0
 15 43  1  0
 20 44  1  0
 21 45  1  0
 22 46  1  0
 23 47  1  0
 26 48  1  0
 27 49  1  0
 28 50  1  0
 30 51  1  0
 30 52  1  0
 31 53  1  0
 31 54  1  0
M  END
$$$$
