
     RDKit          3D

 44 46  0  0  0  0  0  0  0  0999 V2000
    5.3130   -1.5518    3.2993 C   0  0  0  0  0  0  0  0  0  0  0  0
    4.7792   -1.0883    1.9737 C   0  0  0  0  0  0  0  0  0  0  0  0
    3.6320   -1.6741    1.4211 C   0  0  0  0  0  0  0  0  0  0  0  0
    3.1615   -1.2744    0.1631 C   0  0  0  0  0  0  0  0  0  0  0  0
    3.8392   -0.2819   -0.5583 C   0  0  0  0  0  0  0  0  0  0  0  0
    3.4115    0.1421   -1.9202 C   0  0  0  0  0  0  0  0  0  0  0  0
    4.2206    0.6291   -2.7014 O   0  0  0  0  0  0  0  0  0  0  0  0
    2.0838   -0.0360   -2.2399 N   0  0  0  0  0  0  0  0  0  0  0  0
    1.5827    0.3733   -3.5441 C   0  0  0  0  0  0  0  0  0  0  0  0
    0.1318   -0.0197   -3.7937 C   0  0  0  0  0  0  0  0  0  0  0  0
   -0.4302    0.0983   -4.8757 O   0  0  0  0  0  0  0  0  0  0  0  0
   -0.4672   -0.4710   -2.6554 O   0  0  0  0  0  0  0  0  0  0  0  0
   -1.8658   -0.7434   -2.8111 C   0  0  0  0  0  0  0  0  0  0  0  0
   -2.5121   -0.9084   -1.4705 C   0  0  0  0  0  0  0  0  0  0  0  0
   -2.6008   -2.0717   -0.7307 C   0  0  0  0  0  0  0  0  0  0  0  0
   -3.4271   -1.7703    0.7370 S   0  0  0  0  0  0  0  0  0  0  0  0
   -3.6291   -0.1149    0.2962 C   0  0  0  0  0  0  0  0  0  0  0  0
   -4.3571    0.8478    1.1485 C   0  0  0  0  0  0  0  0  0  0  0  0
   -4.7381    0.5815    2.4745 C   0  0  0  0  0  0  0  0  0  0  0  0
   -5.4320    1.5334    3.2329 C   0  0  0  0  0  0  0  0  0  0  0  0
   -5.7585    2.7674    2.6787 C   0  0  0  0  0  0  0  0  0  0  0  0
   -5.3871    3.0543    1.3684 C   0  0  0  0  0  0  0  0  0  0  0  0
   -4.6908    2.1051    0.6142 C   0  0  0  0  0  0  0  0  0  0  0  0
   -3.0993    0.1961   -0.8737 N   0  0  0  0  0  0  0  0  0  0  0  0
    4.9939    0.2950   -0.0143 C   0  0  0  0  0  0  0  0  0  0  0  0
    5.4632   -0.1095    1.2422 C   0  0  0  0  0  0  0  0  0  0  0  0
    6.0805   -2.3184    3.1467 H   0  0  0  0  0  0  0  0  0  0  0  0
    5.7491   -0.7143    3.8542 H   0  0  0  0  0  0  0  0  0  0  0  0
    4.5162   -1.9745    3.9215 H   0  0  0  0  0  0  0  0  0  0  0  0
    3.1063   -2.4586    1.9599 H   0  0  0  0  0  0  0  0  0  0  0  0
    2.2892   -1.7743   -0.2489 H   0  0  0  0  0  0  0  0  0  0  0  0
    1.4006   -0.2136   -1.5121 H   0  0  0  0  0  0  0  0  0  0  0  0
    1.6612    1.4664   -3.6049 H   0  0  0  0  0  0  0  0  0  0  0  0
    2.2127   -0.0862   -4.3159 H   0  0  0  0  0  0  0  0  0  0  0  0
   -2.3601    0.0835   -3.3382 H   0  0  0  0  0  0  0  0  0  0  0  0
   -1.9849   -1.6633   -3.3968 H   0  0  0  0  0  0  0  0  0  0  0  0
   -2.2326   -3.0592   -0.9800 H   0  0  0  0  0  0  0  0  0  0  0  0
   -4.5003   -0.3674    2.9473 H   0  0  0  0  0  0  0  0  0  0  0  0
   -5.7168    1.3075    4.2567 H   0  0  0  0  0  0  0  0  0  0  0  0
   -6.3013    3.5048    3.2659 H   0  0  0  0  0  0  0  0  0  0  0  0
   -5.6384    4.0148    0.9286 H   0  0  0  0  0  0  0  0  0  0  0  0
   -4.4096    2.3510   -0.4096 H   0  0  0  0  0  0  0  0  0  0  0  0
    5.5413    1.0524   -0.5768 H   0  0  0  0  0  0  0  0  0  0  0  0
    6.3699    0.3416    1.6415 H   0  0  0  0  0  0  0  0  0  0  0  0
  1  2  1  0
  2  3  2  0
  3  4  1  0
  4  5  2  0
  5  6  1  0
  6  7  2  0
  6  8  1  0
  8  9  1  0
  9 10  1  0
 10 11  2  0
 10 12  1  0
 12 13  1  0
 13 14  1  0
 14 15  2  0
 15 16  1  0
 16 17  1  0
 17 18  1  0
 18 19  2  0
 19 20  1  0
 20 21  2  0
 21 22  1  0
 22 23  2  0
 17 24  2  0
  5 25  1  0
 25 26  2  0
 26  2  1  0
 24 14  1  0
 23 18  1  0
  1 27  1  0
  1 28  1  0
  1 29  1  0
  3 30  1  0
  4 31  1  0
  8 32  1  0
  9 33  1  0
  9 34  1  0
 13 35  1  0
 13 36  1  0
 15 37  1  0
 19 38  1  0
 20 39  1  0
 21 40  1  0
 22 41  1  0
 23 42  1  0
 25 43  1  0
 26 44  1  0
M  END
$$$$
