
     RDKit          3D

100102  0  0  0  0  0  0  0  0999 V2000
    3.0765    1.3172    1.4943 C   0  0  0  0  0  0  0  0  0  0  0  0
    2.0980    0.9864    0.6274 C   0  0  0  0  0  0  0  0  0  0  0  0
    2.0268   -0.3750   -0.0731 C   0  0  1  0  0  0  0  0  0  0  0  0
    2.6940   -0.2078   -1.3429 O   0  0  0  0  0  0  0  0  0  0  0  0
    2.1218   -0.8243   -2.4132 C   0  0  0  0  0  0  0  0  0  0  0  0
    1.0891   -1.4793   -2.3846 O   0  0  0  0  0  0  0  0  0  0  0  0
    2.9805   -0.6021   -3.6362 C   0  0  0  0  0  0  0  0  0  0  0  0
    2.2071   -0.7684   -4.9524 C   0  0  0  0  0  0  0  0  0  0  0  0
    1.2131    0.3763   -5.1625 C   0  0  0  0  0  0  0  0  0  0  0  0
    3.1829   -0.8308   -6.1308 C   0  0  0  0  0  0  0  0  0  0  0  0
    2.6098   -1.5707    0.7211 C   0  0  0  0  0  0  0  0  0  0  0  0
    4.0351   -1.6377    0.5002 O   0  0  0  0  0  0  0  0  0  0  0  0
    4.7146   -2.4531    1.3462 C   0  0  0  0  0  0  0  0  0  0  0  0
    6.1424   -2.5810    0.9101 C   0  0  0  0  0  0  0  0  0  0  0  0
    4.2419   -2.9836    2.3434 O   0  0  0  0  0  0  0  0  0  0  0  0
    1.9605   -2.8940    0.2699 C   0  0  0  0  0  0  0  0  0  0  0  0
    2.5061   -3.5894   -0.5974 O   0  0  0  0  0  0  0  0  0  0  0  0
    0.6912   -3.3975    1.0178 C   0  0  0  0  0  0  0  0  0  0  0  0
    1.1583   -4.0278    2.3436 C   0  0  0  0  0  0  0  0  0  0  0  0
    0.0284   -4.5160    0.1858 C   0  0  0  0  0  0  0  0  0  0  0  0
   -0.3645   -2.3031    1.1829 C   0  0  0  0  0  0  0  0  0  0  0  0
   -0.7179   -1.6819    2.3203 C   0  0  0  0  0  0  0  0  0  0  0  0
   -1.8052   -0.6468    2.5653 C   0  0  2  0  0  0  0  0  0  0  0  0
   -2.9231   -1.3374    3.3694 C   0  0  0  0  0  0  0  0  0  0  0  0
   -2.4304    0.1888    1.4033 C   0  0  2  0  0  0  0  0  0  0  0  0
   -3.2242   -0.6910    0.5631 O   0  0  0  0  0  0  0  0  0  0  0  0
   -4.5463   -0.4232    0.4367 C   0  0  0  0  0  0  0  0  0  0  0  0
   -5.1349    0.5207    0.9384 O   0  0  0  0  0  0  0  0  0  0  0  0
   -5.1960   -1.4394   -0.4358 C   0  0  0  0  0  0  0  0  0  0  0  0
   -6.5562   -1.2823   -0.7376 C   0  0  0  0  0  0  0  0  0  0  0  0
   -7.2064   -2.2086   -1.5557 C   0  0  0  0  0  0  0  0  0  0  0  0
   -6.5030   -3.2929   -2.0771 C   0  0  0  0  0  0  0  0  0  0  0  0
   -5.1494   -3.4573   -1.7817 C   0  0  0  0  0  0  0  0  0  0  0  0
   -4.4956   -2.5368   -0.9602 C   0  0  0  0  0  0  0  0  0  0  0  0
   -1.4648    1.0064    0.4778 C   0  0  1  0  0  0  0  0  0  0  0  0
   -1.0332    0.1805   -0.5926 O   0  0  0  0  0  0  0  0  0  0  0  0
   -2.1819    2.2130   -0.1643 C   0  0  0  0  0  0  0  0  0  0  0  0
   -2.0967    3.3473    0.8634 C   0  0  2  0  0  0  0  0  0  0  0  0
   -1.8852    4.7039    0.2032 C   0  0  0  0  0  0  0  0  0  0  0  0
   -1.0086    2.9038    1.8647 C   0  0  2  0  0  0  0  0  0  0  0  0
   -0.2025    3.9865    2.3187 O   0  0  0  0  0  0  0  0  0  0  0  0
    0.5155    3.7473    3.4524 C   0  0  0  0  0  0  0  0  0  0  0  0
    1.2977    4.9659    3.8325 C   0  0  0  0  0  0  0  0  0  0  0  0
    0.5456    2.6849    4.0610 O   0  0  0  0  0  0  0  0  0  0  0  0
   -0.2809    1.7028    1.2094 C   0  0  2  0  0  0  0  0  0  0  0  0
    0.9531    1.9632    0.2816 C   0  0  1  0  0  0  0  0  0  0  0  0
    1.4553    3.3030    0.4528 O   0  0  0  0  0  0  0  0  0  0  0  0
    1.7178    4.0130   -0.6763 C   0  0  0  0  0  0  0  0  0  0  0  0
    2.2753    5.3527   -0.3078 C   0  0  0  0  0  0  0  0  0  0  0  0
    1.5380    3.6414   -1.8268 O   0  0  0  0  0  0  0  0  0  0  0  0
    3.8950    0.6467    1.7342 H   0  0  0  0  0  0  0  0  0  0  0  0
    3.0979    2.2809    1.9950 H   0  0  0  0  0  0  0  0  0  0  0  0
    0.9796   -0.5870   -0.2389 H   0  0  0  0  0  0  0  0  0  0  0  0
    3.8013   -1.3257   -3.5827 H   0  0  0  0  0  0  0  0  0  0  0  0
    3.4129    0.4033   -3.5902 H   0  0  0  0  0  0  0  0  0  0  0  0
    1.6459   -1.7104   -4.9308 H   0  0  0  0  0  0  0  0  0  0  0  0
    0.6601    0.2417   -6.0999 H   0  0  0  0  0  0  0  0  0  0  0  0
    1.7244    1.3446   -5.2105 H   0  0  0  0  0  0  0  0  0  0  0  0
    0.4759    0.4227   -4.3526 H   0  0  0  0  0  0  0  0  0  0  0  0
    3.7717    0.0898   -6.2072 H   0  0  0  0  0  0  0  0  0  0  0  0
    2.6439   -0.9725   -7.0724 H   0  0  0  0  0  0  0  0  0  0  0  0
    3.8783   -1.6707   -6.0121 H   0  0  0  0  0  0  0  0  0  0  0  0
    2.4118   -1.4394    1.7915 H   0  0  0  0  0  0  0  0  0  0  0  0
    6.6685   -1.6384    1.0816 H   0  0  0  0  0  0  0  0  0  0  0  0
    6.1817   -2.8557   -0.1488 H   0  0  0  0  0  0  0  0  0  0  0  0
    6.6281   -3.3743    1.4847 H   0  0  0  0  0  0  0  0  0  0  0  0
    0.3209   -4.4724    2.8932 H   0  0  0  0  0  0  0  0  0  0  0  0
    1.8917   -4.8224    2.1598 H   0  0  0  0  0  0  0  0  0  0  0  0
    1.6428   -3.2996    3.0021 H   0  0  0  0  0  0  0  0  0  0  0  0
    0.6978   -5.3748    0.0694 H   0  0  0  0  0  0  0  0  0  0  0  0
   -0.2296   -4.1704   -0.8227 H   0  0  0  0  0  0  0  0  0  0  0  0
   -0.8907   -4.8776    0.6617 H   0  0  0  0  0  0  0  0  0  0  0  0
   -0.8990   -2.0557    0.2669 H   0  0  0  0  0  0  0  0  0  0  0  0
   -0.1935   -1.9501    3.2389 H   0  0  0  0  0  0  0  0  0  0  0  0
   -1.3561    0.0836    3.2536 H   0  0  0  0  0  0  0  0  0  0  0  0
   -2.5285   -1.7752    4.2939 H   0  0  0  0  0  0  0  0  0  0  0  0
   -3.3957   -2.1389    2.7925 H   0  0  0  0  0  0  0  0  0  0  0  0
   -3.6981   -0.6163    3.6540 H   0  0  0  0  0  0  0  0  0  0  0  0
   -3.0901    0.9090    1.9032 H   0  0  0  0  0  0  0  0  0  0  0  0
   -7.1141   -0.4371   -0.3427 H   0  0  0  0  0  0  0  0  0  0  0  0
   -8.2611   -2.0818   -1.7860 H   0  0  0  0  0  0  0  0  0  0  0  0
   -7.0089   -4.0111   -2.7187 H   0  0  0  0  0  0  0  0  0  0  0  0
   -4.6019   -4.3025   -2.1929 H   0  0  0  0  0  0  0  0  0  0  0  0
   -3.4422   -2.6917   -0.7373 H   0  0  0  0  0  0  0  0  0  0  0  0
   -1.8244   -0.1426   -1.0663 H   0  0  0  0  0  0  0  0  0  0  0  0
   -1.6840    2.4971   -1.1016 H   0  0  0  0  0  0  0  0  0  0  0  0
   -3.2195    1.9941   -0.4361 H   0  0  0  0  0  0  0  0  0  0  0  0
   -3.0522    3.3961    1.4070 H   0  0  0  0  0  0  0  0  0  0  0  0
   -2.6968    4.9201   -0.4988 H   0  0  0  0  0  0  0  0  0  0  0  0
   -1.8718    5.5048    0.9496 H   0  0  0  0  0  0  0  0  0  0  0  0
   -0.9463    4.7397   -0.3552 H   0  0  0  0  0  0  0  0  0  0  0  0
   -1.5567    2.5247    2.7413 H   0  0  0  0  0  0  0  0  0  0  0  0
    0.7031    5.8655    3.6506 H   0  0  0  0  0  0  0  0  0  0  0  0
    1.5305    4.9275    4.9030 H   0  0  0  0  0  0  0  0  0  0  0  0
    2.2247    5.0052    3.2547 H   0  0  0  0  0  0  0  0  0  0  0  0
    0.0848    1.0645    2.0183 H   0  0  0  0  0  0  0  0  0  0  0  0
    0.6832    1.8097   -0.7665 H   0  0  0  0  0  0  0  0  0  0  0  0
    1.5868    5.8733    0.3613 H   0  0  0  0  0  0  0  0  0  0  0  0
    2.3995    5.9575   -1.2093 H   0  0  0  0  0  0  0  0  0  0  0  0
    3.2491    5.2265    0.1709 H   0  0  0  0  0  0  0  0  0  0  0  0
  1  2  2  0
  2  3  1  0
  3  4  1  0
  4  5  1  0
  5  6  2  0
  5  7  1  0
  7  8  1  0
  8  9  1  0
  8 10  1  0
  3 11  1  0
 11 12  1  0
 12 13  1  0
 13 14  1  0
 13 15  2  0
 11 16  1  0
 16 17  2  0
 16 18  1  0
 18 19  1  0
 18 20  1  0
 18 21  1  0
 21 22  2  0
 22 23  1  0
 23 24  1  0
 23 25  1  0
 25 26  1  0
 26 27  1  0
 27 28  2  0
 27 29  1  0
 29 30  2  0
 30 31  1  0
 31 32  2  0
 32 33  1  0
 33 34  2  0
 25 35  1  0
 35 36  1  6
 35 37  1  0
 37 38  1  0
 38 39  1  0
 38 40  1  0
 40 41  1  0
 41 42  1  0
 42 43  1  0
 42 44  2  0
 40 45  1  0
 45 46  1  0
 46 47  1  0
 47 48  1  0
 48 49  1  0
 48 50  2  0
 46  2  1  0
 34 29  1  0
 45 35  1  0
  1 51  1  0
  1 52  1  0
  3 53  1  6
  7 54  1  0
  7 55  1  0
  8 56  1  0
  9 57  1  0
  9 58  1  0
  9 59  1  0
 10 60  1  0
 10 61  1  0
 10 62  1  0
 11 63  1  0
 14 64  1  0
 14 65  1  0
 14 66  1  0
 19 67  1  0
 19 68  1  0
 19 69  1  0
 20 70  1  0
 20 71  1  0
 20 72  1  0
 21 73  1  0
 22 74  1  0
 23 75  1  1
 24 76  1  0
 24 77  1  0
 24 78  1  0
 25 79  1  1
 30 80  1  0
 31 81  1  0
 32 82  1  0
 33 83  1  0
 34 84  1  0
 36 85  1  0
 37 86  1  0
 37 87  1  0
 38 88  1  1
 39 89  1  0
 39 90  1  0
 39 91  1  0
 40 92  1  1
 43 93  1  0
 43 94  1  0
 43 95  1  0
 45 96  1  1
 46 97  1  6
 49 98  1  0
 49 99  1  0
 49100  1  0
M  END
$$$$
