
     RDKit          3D

 49 52  0  0  0  0  0  0  0  0999 V2000
    5.6226    1.4486    1.7845 C   0  0  0  0  0  0  0  0  0  0  0  0
    5.0294    0.4758    0.8725 N   0  0  0  0  0  0  0  0  0  0  0  0
    4.0081    1.0847   -0.0020 C   0  0  0  0  0  0  0  0  0  0  0  0
    2.5536    0.8359    0.4588 C   0  0  0  0  0  0  0  0  0  0  0  0
    2.1910   -0.5998    0.5304 N   0  0  0  0  0  0  0  0  0  0  0  0
    1.1012   -0.8439    1.4844 C   0  0  0  0  0  0  0  0  0  0  0  0
   -0.2383   -0.2202    1.0728 C   0  0  0  0  0  0  0  0  0  0  0  0
   -0.7434   -0.7642   -0.2730 C   0  0  0  0  0  0  0  0  0  0  0  0
   -2.1438   -0.3438   -0.5372 N   0  0  0  0  0  0  0  0  0  0  0  0
   -3.1784   -1.2271   -0.1068 C   0  0  0  0  0  0  0  0  0  0  0  0
   -2.9428   -2.2734    0.8155 C   0  0  0  0  0  0  0  0  0  0  0  0
   -3.9534   -3.1387    1.2530 C   0  0  0  0  0  0  0  0  0  0  0  0
   -5.2462   -2.9854    0.7839 C   0  0  0  0  0  0  0  0  0  0  0  0
   -5.5202   -1.9645   -0.1180 C   0  0  0  0  0  0  0  0  0  0  0  0
   -4.5065   -1.0898   -0.5594 C   0  0  0  0  0  0  0  0  0  0  0  0
   -5.0251    0.1421   -1.7293 S   0  0  0  0  0  0  0  0  0  0  0  0
   -3.5919    1.1844   -1.8434 C   0  0  0  0  0  0  0  0  0  0  0  0
   -3.7750    2.3794   -2.5696 C   0  0  0  0  0  0  0  0  0  0  0  0
   -2.7282    3.2755   -2.7522 C   0  0  0  0  0  0  0  0  0  0  0  0
   -1.4925    2.9756   -2.2072 C   0  0  0  0  0  0  0  0  0  0  0  0
   -0.1800    4.0718   -2.4090 Cl  0  0  0  0  0  0  0  0  0  0  0  0
   -1.3015    1.7912   -1.4885 C   0  0  0  0  0  0  0  0  0  0  0  0
   -2.3390    0.8543   -1.2848 C   0  0  0  0  0  0  0  0  0  0  0  0
    3.3825   -1.4254    0.8386 C   0  0  0  0  0  0  0  0  0  0  0  0
    4.4864   -0.6771    1.6173 C   0  0  0  0  0  0  0  0  0  0  0  0
    4.8774    1.9024    2.4476 H   0  0  0  0  0  0  0  0  0  0  0  0
    6.3942    0.9762    2.4027 H   0  0  0  0  0  0  0  0  0  0  0  0
    6.1175    2.2490    1.2233 H   0  0  0  0  0  0  0  0  0  0  0  0
    4.1321    0.6560   -1.0051 H   0  0  0  0  0  0  0  0  0  0  0  0
    4.1763    2.1623   -0.1225 H   0  0  0  0  0  0  0  0  0  0  0  0
    1.8789    1.3342   -0.2449 H   0  0  0  0  0  0  0  0  0  0  0  0
    2.4208    1.3222    1.4347 H   0  0  0  0  0  0  0  0  0  0  0  0
    1.3760   -0.4860    2.4851 H   0  0  0  0  0  0  0  0  0  0  0  0
    0.9356   -1.9253    1.5772 H   0  0  0  0  0  0  0  0  0  0  0  0
   -0.1588    0.8718    1.0466 H   0  0  0  0  0  0  0  0  0  0  0  0
   -0.9666   -0.4347    1.8639 H   0  0  0  0  0  0  0  0  0  0  0  0
   -0.6549   -1.8579   -0.3041 H   0  0  0  0  0  0  0  0  0  0  0  0
   -0.0793   -0.4577   -1.0908 H   0  0  0  0  0  0  0  0  0  0  0  0
   -1.9604   -2.4448    1.2426 H   0  0  0  0  0  0  0  0  0  0  0  0
   -3.7215   -3.9278    1.9638 H   0  0  0  0  0  0  0  0  0  0  0  0
   -6.0375   -3.6513    1.1159 H   0  0  0  0  0  0  0  0  0  0  0  0
   -6.5393   -1.8506   -0.4830 H   0  0  0  0  0  0  0  0  0  0  0  0
   -4.7463    2.6158   -3.0008 H   0  0  0  0  0  0  0  0  0  0  0  0
   -2.8860    4.1920   -3.3128 H   0  0  0  0  0  0  0  0  0  0  0  0
   -0.3119    1.6310   -1.0789 H   0  0  0  0  0  0  0  0  0  0  0  0
    3.1086   -2.3396    1.3796 H   0  0  0  0  0  0  0  0  0  0  0  0
    3.8007   -1.7699   -0.1166 H   0  0  0  0  0  0  0  0  0  0  0  0
    5.3070   -1.3712    1.8329 H   0  0  0  0  0  0  0  0  0  0  0  0
    4.0691   -0.3623    2.5836 H   0  0  0  0  0  0  0  0  0  0  0  0
  1  2  1  0
  2  3  1  0
  3  4  1  0
  4  5  1  0
  5  6  1  0
  6  7  1  0
  7  8  1  0
  8  9  1  0
  9 10  1  0
 10 11  2  0
 11 12  1  0
 12 13  2  0
 13 14  1  0
 14 15  2  0
 15 16  1  0
 16 17  1  0
 17 18  2  0
 18 19  1  0
 19 20  2  0
 20 21  1  0
 20 22  1  0
 22 23  2  0
  5 24  1  0
 24 25  1  0
 25  2  1  0
 23  9  1  0
 15 10  1  0
 23 17  1  0
  1 26  1  0
  1 27  1  0
  1 28  1  0
  3 29  1  0
  3 30  1  0
  4 31  1  0
  4 32  1  0
  6 33  1  0
  6 34  1  0
  7 35  1  0
  7 36  1  0
  8 37  1  0
  8 38  1  0
 11 39  1  0
 12 40  1  0
 13 41  1  0
 14 42  1  0
 18 43  1  0
 19 44  1  0
 22 45  1  0
 24 46  1  0
 24 47  1  0
 25 48  1  0
 25 49  1  0
M  END
$$$$
