
     RDKit          3D

 35 36  0  0  0  0  0  0  0  0999 V2000
    3.7801    0.2355    2.8223 C   0  0  0  0  0  0  0  0  0  0  0  0
    3.1614   -0.0387    1.4829 C   0  0  0  0  0  0  0  0  0  0  0  0
    3.2480   -1.3159    0.9120 C   0  0  0  0  0  0  0  0  0  0  0  0
    2.7004   -1.5675   -0.3470 C   0  0  0  0  0  0  0  0  0  0  0  0
    2.0671   -0.5334   -1.0389 C   0  0  0  0  0  0  0  0  0  0  0  0
    1.3612   -0.8380   -2.6397 S   0  0  0  0  0  6  0  0  0  0  0  0
    1.8717    0.1949   -3.5223 O   0  0  0  0  0  0  0  0  0  0  0  0
    1.5678   -2.2397   -2.9583 O   0  0  0  0  0  0  0  0  0  0  0  0
   -0.3842   -0.5804   -2.4400 C   0  0  0  0  0  0  0  0  0  0  0  0
   -0.9916   -1.5864   -1.4803 C   0  0  0  0  0  0  0  0  0  0  0  0
   -2.7577   -1.2424   -1.1899 S   0  0  0  0  0  0  0  0  0  0  0  0
   -2.6491    0.1056   -0.1070 C   0  0  0  0  0  0  0  0  0  0  0  0
   -1.5377    0.7184    0.2329 N   0  0  0  0  0  0  0  0  0  0  0  0
   -1.9223    1.7080    1.0998 C   0  0  0  0  0  0  0  0  0  0  0  0
   -3.2858    1.6977    1.2793 C   0  0  0  0  0  0  0  0  0  0  0  0
   -3.7409    0.6665    0.4997 N   0  0  0  0  0  0  0  0  0  0  0  0
   -5.1206    0.2673    0.3676 C   0  0  0  0  0  0  0  0  0  0  0  0
    1.9971    0.7512   -0.4962 C   0  0  0  0  0  0  0  0  0  0  0  0
    2.5457    0.9947    0.7636 C   0  0  0  0  0  0  0  0  0  0  0  0
    3.7501   -0.6568    3.4564 H   0  0  0  0  0  0  0  0  0  0  0  0
    3.2357    1.0262    3.3492 H   0  0  0  0  0  0  0  0  0  0  0  0
    4.8219    0.5459    2.6965 H   0  0  0  0  0  0  0  0  0  0  0  0
    3.7460   -2.1228    1.4458 H   0  0  0  0  0  0  0  0  0  0  0  0
    2.7788   -2.5639   -0.7761 H   0  0  0  0  0  0  0  0  0  0  0  0
   -0.8238   -0.6862   -3.4387 H   0  0  0  0  0  0  0  0  0  0  0  0
   -0.5189    0.4584   -2.1267 H   0  0  0  0  0  0  0  0  0  0  0  0
   -0.4677   -1.6180   -0.5201 H   0  0  0  0  0  0  0  0  0  0  0  0
   -0.9227   -2.5938   -1.9049 H   0  0  0  0  0  0  0  0  0  0  0  0
   -1.1987    2.3760    1.5493 H   0  0  0  0  0  0  0  0  0  0  0  0
   -3.9422    2.3150    1.8767 H   0  0  0  0  0  0  0  0  0  0  0  0
   -5.7481    0.9172    0.9835 H   0  0  0  0  0  0  0  0  0  0  0  0
   -5.2215   -0.7659    0.7092 H   0  0  0  0  0  0  0  0  0  0  0  0
   -5.4152    0.3640   -0.6804 H   0  0  0  0  0  0  0  0  0  0  0  0
    1.5244    1.5645   -1.0418 H   0  0  0  0  0  0  0  0  0  0  0  0
    2.4913    1.9976    1.1818 H   0  0  0  0  0  0  0  0  0  0  0  0
  1  2  1  0
  2  3  2  0
  3  4  1  0
  4  5  2  0
  5  6  1  0
  6  7  2  0
  6  8  2  0
  6  9  1  0
  9 10  1  0
 10 11  1  0
 11 12  1  0
 12 13  2  0
 13 14  1  0
 14 15  2  0
 15 16  1  0
 16 17  1  0
  5 18  1  0
 18 19  2  0
 19  2  1  0
 16 12  1  0
  1 20  1  0
  1 21  1  0
  1 22  1  0
  3 23  1  0
  4 24  1  0
  9 25  1  0
  9 26  1  0
 10 27  1  0
 10 28  1  0
 14 29  1  0
 15 30  1  0
 17 31  1  0
 17 32  1  0
 17 33  1  0
 18 34  1  0
 19 35  1  0
M  END
$$$$
