
     RDKit          3D

 36 38  0  0  0  0  0  0  0  0999 V2000
   -5.1126   -0.7557   -1.0859 C   0  0  0  0  0  0  0  0  0  0  0  0
   -4.0229    0.0718   -0.4649 C   0  0  0  0  0  0  0  0  0  0  0  0
   -4.3529    1.2034    0.3026 C   0  0  0  0  0  0  0  0  0  0  0  0
   -3.3560    2.0000    0.8665 C   0  0  0  0  0  0  0  0  0  0  0  0
   -2.0315    1.6579    0.6435 C   0  0  0  0  0  0  0  0  0  0  0  0
   -1.6697    0.5435   -0.1410 C   0  0  0  0  0  0  0  0  0  0  0  0
   -2.6734   -0.2498   -0.6935 C   0  0  0  0  0  0  0  0  0  0  0  0
   -0.2579    0.3357   -0.2621 N   0  0  0  0  0  0  0  0  0  0  0  0
    0.1313   -0.0838   -1.6125 C   0  0  0  0  0  0  0  0  0  0  0  0
    0.4296    1.3187    0.4687 C   0  0  0  0  0  0  0  0  0  0  0  0
    1.7420    1.3870    0.7574 C   0  0  0  0  0  0  0  0  0  0  0  0
    2.7460    0.3829    0.4111 C   0  0  0  0  0  0  0  0  0  0  0  0
    3.7810    0.7383   -0.4637 C   0  0  0  0  0  0  0  0  0  0  0  0
    4.7398   -0.1981   -0.8267 C   0  0  0  0  0  0  0  0  0  0  0  0
    4.6589   -1.4806   -0.3096 C   0  0  0  0  0  0  0  0  0  0  0  0
    3.6313   -1.7981    0.5691 C   0  0  0  0  0  0  0  0  0  0  0  0
    2.7052   -0.8771    0.9305 N   0  0  0  0  0  4  0  0  0  0  0  0
    1.6691   -1.2822    1.9066 C   0  0  0  0  0  0  0  0  0  0  0  0
   -0.6076    2.5454    1.2424 S   0  0  0  0  0  0  0  0  0  0  0  0
   -4.8011   -1.8009   -1.1837 H   0  0  0  0  0  0  0  0  0  0  0  0
   -5.3589   -0.3646   -2.0778 H   0  0  0  0  0  0  0  0  0  0  0  0
   -6.0147   -0.7429   -0.4652 H   0  0  0  0  0  0  0  0  0  0  0  0
   -5.3970    1.4684    0.4642 H   0  0  0  0  0  0  0  0  0  0  0  0
   -3.6188    2.8711    1.4588 H   0  0  0  0  0  0  0  0  0  0  0  0
   -2.4344   -1.1255   -1.2880 H   0  0  0  0  0  0  0  0  0  0  0  0
    1.2161   -0.1662   -1.7141 H   0  0  0  0  0  0  0  0  0  0  0  0
   -0.2133    0.6342   -2.3664 H   0  0  0  0  0  0  0  0  0  0  0  0
   -0.2681   -1.0753   -1.8502 H   0  0  0  0  0  0  0  0  0  0  0  0
    2.1320    2.2215    1.3389 H   0  0  0  0  0  0  0  0  0  0  0  0
    3.8351    1.7455   -0.8755 H   0  0  0  0  0  0  0  0  0  0  0  0
    5.5424    0.0720   -1.5118 H   0  0  0  0  0  0  0  0  0  0  0  0
    5.3980   -2.2306   -0.5847 H   0  0  0  0  0  0  0  0  0  0  0  0
    3.5453   -2.7942    0.9957 H   0  0  0  0  0  0  0  0  0  0  0  0
    1.4539   -0.4548    2.5858 H   0  0  0  0  0  0  0  0  0  0  0  0
    2.0478   -2.1174    2.5033 H   0  0  0  0  0  0  0  0  0  0  0  0
    0.7858   -1.5994    1.3493 H   0  0  0  0  0  0  0  0  0  0  0  0
  1  2  1  0
  2  3  2  0
  3  4  1  0
  4  5  2  0
  5  6  1  0
  6  7  2  0
  6  8  1  0
  8  9  1  0
  8 10  1  0
 10 11  2  3
 11 12  1  0
 12 13  2  0
 13 14  1  0
 14 15  2  0
 15 16  1  0
 16 17  2  0
 17 18  1  0
 10 19  1  0
  7  2  1  0
 17 12  1  0
 19  5  1  0
  1 20  1  0
  1 21  1  0
  1 22  1  0
  3 23  1  0
  4 24  1  0
  7 25  1  0
  9 26  1  0
  9 27  1  0
  9 28  1  0
 11 29  1  0
 13 30  1  0
 14 31  1  0
 15 32  1  0
 16 33  1  0
 18 34  1  0
 18 35  1  0
 18 36  1  0
M  CHG  1  17   1
M  END
$$$$
