
     RDKit          3D

 40 41  0  0  0  0  0  0  0  0999 V2000
   -6.9233    0.2699   -0.3586 C   0  0  0  0  0  0  0  0  0  0  0  0
   -5.4347    0.1627   -0.2003 C   0  0  0  0  0  0  0  0  0  0  0  0
   -4.7361    1.0837    0.5727 C   0  0  0  0  0  0  0  0  0  0  0  0
   -3.3632    0.9430    0.7303 C   0  0  0  0  0  0  0  0  0  0  0  0
   -2.6914   -0.1223    0.1197 C   0  0  0  0  0  0  0  0  0  0  0  0
   -1.2482   -0.2912    0.3102 C   0  0  0  0  0  0  0  0  0  0  0  0
   -0.3567    0.6342   -0.0790 C   0  0  0  0  0  0  0  0  0  0  0  0
    1.0929    0.4603    0.0755 C   0  0  0  0  0  0  0  0  0  0  0  0
    1.6666   -0.0774    1.2266 C   0  0  0  0  0  0  0  0  0  0  0  0
    3.0598   -0.2157    1.3336 C   0  0  0  0  0  0  0  0  0  0  0  0
    3.9391    0.1905    0.3152 C   0  0  0  0  0  0  0  0  0  0  0  0
    5.3233    0.0245    0.4176 N   0  0  0  0  0  0  0  0  0  0  0  0
    6.1993    0.7050   -0.5367 C   0  0  0  0  0  0  0  0  0  0  0  0
    5.9162   -0.2466    1.7276 C   0  0  0  0  0  0  0  0  0  0  0  0
    3.3325    0.7360   -0.8288 C   0  0  0  0  0  0  0  0  0  0  0  0
    1.9411    0.8808   -0.9472 C   0  0  0  0  0  0  0  0  0  0  0  0
   -3.3932   -1.0225   -0.6220 N   0  0  0  0  0  4  0  0  0  0  0  0
   -2.7056   -2.1439   -1.2954 C   0  0  0  0  0  0  0  0  0  0  0  0
   -4.7332   -0.8942   -0.7778 C   0  0  0  0  0  0  0  0  0  0  0  0
   -7.4253   -0.2783    0.4445 H   0  0  0  0  0  0  0  0  0  0  0  0
   -7.2435   -0.1406   -1.3220 H   0  0  0  0  0  0  0  0  0  0  0  0
   -7.2448    1.3163   -0.3282 H   0  0  0  0  0  0  0  0  0  0  0  0
   -5.2528    1.9119    1.0578 H   0  0  0  0  0  0  0  0  0  0  0  0
   -2.8197    1.6624    1.3413 H   0  0  0  0  0  0  0  0  0  0  0  0
   -0.9276   -1.2227    0.7698 H   0  0  0  0  0  0  0  0  0  0  0  0
   -0.6647    1.5576   -0.5675 H   0  0  0  0  0  0  0  0  0  0  0  0
    1.0545   -0.3913    2.0680 H   0  0  0  0  0  0  0  0  0  0  0  0
    3.4389   -0.6549    2.2520 H   0  0  0  0  0  0  0  0  0  0  0  0
    6.0768    1.7921   -0.4763 H   0  0  0  0  0  0  0  0  0  0  0  0
    6.0065    0.3683   -1.5609 H   0  0  0  0  0  0  0  0  0  0  0  0
    7.2536    0.4793   -0.3409 H   0  0  0  0  0  0  0  0  0  0  0  0
    5.5573   -1.1978    2.1349 H   0  0  0  0  0  0  0  0  0  0  0  0
    7.0059   -0.3413    1.6608 H   0  0  0  0  0  0  0  0  0  0  0  0
    5.6976    0.5626    2.4329 H   0  0  0  0  0  0  0  0  0  0  0  0
    3.9318    1.0682   -1.6716 H   0  0  0  0  0  0  0  0  0  0  0  0
    1.5435    1.3182   -1.8601 H   0  0  0  0  0  0  0  0  0  0  0  0
   -1.9159   -1.7347   -1.9309 H   0  0  0  0  0  0  0  0  0  0  0  0
   -3.4127   -2.6974   -1.9186 H   0  0  0  0  0  0  0  0  0  0  0  0
   -2.3038   -2.8071   -0.5251 H   0  0  0  0  0  0  0  0  0  0  0  0
   -5.2406   -1.6477   -1.3750 H   0  0  0  0  0  0  0  0  0  0  0  0
  1  2  1  0
  2  3  2  0
  3  4  1  0
  4  5  2  0
  5  6  1  0
  6  7  2  3
  7  8  1  0
  8  9  2  0
  9 10  1  0
 10 11  2  0
 11 12  1  0
 12 13  1  0
 12 14  1  0
 11 15  1  0
 15 16  2  0
  5 17  1  0
 17 18  1  0
 17 19  2  0
 19  2  1  0
 16  8  1  0
  1 20  1  0
  1 21  1  0
  1 22  1  0
  3 23  1  0
  4 24  1  0
  6 25  1  0
  7 26  1  0
  9 27  1  0
 10 28  1  0
 13 29  1  0
 13 30  1  0
 13 31  1  0
 14 32  1  0
 14 33  1  0
 14 34  1  0
 15 35  1  0
 16 36  1  0
 18 37  1  0
 18 38  1  0
 18 39  1  0
 19 40  1  0
M  CHG  1  17   1
M  END
$$$$
