
     RDKit          3D

 60 64  0  0  0  0  0  0  0  0999 V2000
   -2.4447    0.5848   -2.2391 C   0  0  0  0  0  0  0  0  0  0  0  0
   -2.5142   -0.4270   -1.1903 N   0  0  0  0  0  0  0  0  0  0  0  0
   -3.6752   -1.2040   -1.1347 C   0  0  0  0  0  0  0  0  0  0  0  0
   -4.5613   -1.1345   -1.9883 O   0  0  0  0  0  0  0  0  0  0  0  0
   -3.8449   -2.1171    0.0419 C   0  0  0  0  0  0  0  0  0  0  0  0
   -5.0195   -2.2907    0.6756 C   0  0  0  0  0  0  0  0  0  0  0  0
   -6.2732   -1.5755    0.4134 C   0  0  0  0  0  0  0  0  0  0  0  0
   -7.4107   -2.2970    0.0385 C   0  0  0  0  0  0  0  0  0  0  0  0
   -8.6215   -1.6378   -0.1923 C   0  0  0  0  0  0  0  0  0  0  0  0
   -8.7141   -0.2453   -0.0504 C   0  0  0  0  0  0  0  0  0  0  0  0
  -10.0238    0.4661   -0.2825 C   0  0  0  0  0  0  0  0  0  0  0  0
   -9.8692    1.7314   -0.7645 F   0  0  0  0  0  0  0  0  0  0  0  0
  -10.8343   -0.1731   -1.1721 F   0  0  0  0  0  0  0  0  0  0  0  0
  -10.7526    0.5907    0.8616 F   0  0  0  0  0  0  0  0  0  0  0  0
   -7.5753    0.4708    0.3473 C   0  0  0  0  0  0  0  0  0  0  0  0
   -6.3651   -0.1891    0.5787 C   0  0  0  0  0  0  0  0  0  0  0  0
   -2.4597   -3.0187    0.5360 S   0  0  0  0  0  0  0  0  0  0  0  0
   -1.3055   -1.6674    0.5785 C   0  0  0  0  0  0  0  0  0  0  0  0
   -0.2289   -1.7758    1.4753 C   0  0  0  0  0  0  0  0  0  0  0  0
    0.7448   -0.7822    1.5397 C   0  0  0  0  0  0  0  0  0  0  0  0
    0.6565    0.3131    0.6841 C   0  0  0  0  0  0  0  0  0  0  0  0
    1.6540    1.4059    0.7395 C   0  0  0  0  0  0  0  0  0  0  0  0
    1.2324    2.5511    0.8816 O   0  0  0  0  0  0  0  0  0  0  0  0
    3.0032    1.0953    0.6261 N   0  0  0  0  0  0  0  0  0  0  0  0
    3.9763    2.1830    0.7447 C   0  0  0  0  0  0  0  0  0  0  0  0
    5.3685    1.7076    1.2013 C   0  0  0  0  0  0  0  0  0  0  0  0
    5.8585    0.5503    0.4282 N   0  0  0  0  0  0  0  0  0  0  0  0
    7.1976    0.5504    0.0393 C   0  0  0  0  0  0  0  0  0  0  0  0
    8.1995    0.9558    0.9244 C   0  0  0  0  0  0  0  0  0  0  0  0
    9.5372    0.9338    0.5297 C   0  0  0  0  0  0  0  0  0  0  0  0
    9.8582    0.4966   -0.7444 C   0  0  0  0  0  0  0  0  0  0  0  0
    8.8215    0.0943   -1.5631 C   0  0  0  0  0  0  0  0  0  0  0  0
    7.5195    0.1087   -1.1971 N   0  0  0  0  0  0  0  0  0  0  0  0
    4.9199   -0.0441   -0.5347 C   0  0  0  0  0  0  0  0  0  0  0  0
    3.5226   -0.1774    0.0994 C   0  0  0  0  0  0  0  0  0  0  0  0
   -0.4241    0.4377   -0.1995 C   0  0  0  0  0  0  0  0  0  0  0  0
   -1.4230   -0.5492   -0.2677 C   0  0  0  0  0  0  0  0  0  0  0  0
   -1.4890    0.5069   -2.7674 H   0  0  0  0  0  0  0  0  0  0  0  0
   -2.5546    1.5761   -1.7879 H   0  0  0  0  0  0  0  0  0  0  0  0
   -3.2390    0.4672   -2.9817 H   0  0  0  0  0  0  0  0  0  0  0  0
   -5.0944   -3.0107    1.4887 H   0  0  0  0  0  0  0  0  0  0  0  0
   -7.3607   -3.3762   -0.0898 H   0  0  0  0  0  0  0  0  0  0  0  0
   -9.4932   -2.2177   -0.4920 H   0  0  0  0  0  0  0  0  0  0  0  0
   -7.6242    1.5513    0.4741 H   0  0  0  0  0  0  0  0  0  0  0  0
   -5.4974    0.3902    0.8855 H   0  0  0  0  0  0  0  0  0  0  0  0
   -0.1466   -2.6375    2.1356 H   0  0  0  0  0  0  0  0  0  0  0  0
    1.5536   -0.8613    2.2613 H   0  0  0  0  0  0  0  0  0  0  0  0
    3.6023    2.9444    1.4383 H   0  0  0  0  0  0  0  0  0  0  0  0
    4.0476    2.6532   -0.2442 H   0  0  0  0  0  0  0  0  0  0  0  0
    5.3154    1.4068    2.2547 H   0  0  0  0  0  0  0  0  0  0  0  0
    6.0482    2.5664    1.1348 H   0  0  0  0  0  0  0  0  0  0  0  0
    7.9524    1.2687    1.9330 H   0  0  0  0  0  0  0  0  0  0  0  0
   10.3159    1.2447    1.2191 H   0  0  0  0  0  0  0  0  0  0  0  0
   10.8854    0.4612   -1.0874 H   0  0  0  0  0  0  0  0  0  0  0  0
    9.0117   -0.2664   -2.5699 H   0  0  0  0  0  0  0  0  0  0  0  0
    5.2506   -1.0468   -0.8328 H   0  0  0  0  0  0  0  0  0  0  0  0
    4.8553    0.5796   -1.4359 H   0  0  0  0  0  0  0  0  0  0  0  0
    3.5772   -0.8709    0.9462 H   0  0  0  0  0  0  0  0  0  0  0  0
    2.8212   -0.5854   -0.6357 H   0  0  0  0  0  0  0  0  0  0  0  0
   -0.4672    1.3351   -0.8113 H   0  0  0  0  0  0  0  0  0  0  0  0
  1  2  1  0
  2  3  1  0
  3  4  2  0
  3  5  1  0
  5  6  2  3
  6  7  1  0
  7  8  2  0
  8  9  1  0
  9 10  2  0
 10 11  1  0
 11 12  1  0
 11 13  1  0
 11 14  1  0
 10 15  1  0
 15 16  2  0
  5 17  1  0
 17 18  1  0
 18 19  2  0
 19 20  1  0
 20 21  2  0
 21 22  1  0
 22 23  2  0
 22 24  1  0
 24 25  1  0
 25 26  1  0
 26 27  1  0
 27 28  1  0
 28 29  2  0
 29 30  1  0
 30 31  2  0
 31 32  1  0
 32 33  2  0
 27 34  1  0
 34 35  1  0
 21 36  1  0
 36 37  2  0
 37  2  1  0
 16  7  1  0
 37 18  1  0
 35 24  1  0
 33 28  1  0
  1 38  1  0
  1 39  1  0
  1 40  1  0
  6 41  1  0
  8 42  1  0
  9 43  1  0
 15 44  1  0
 16 45  1  0
 19 46  1  0
 20 47  1  0
 25 48  1  0
 25 49  1  0
 26 50  1  0
 26 51  1  0
 29 52  1  0
 30 53  1  0
 31 54  1  0
 32 55  1  0
 34 56  1  0
 34 57  1  0
 35 58  1  0
 35 59  1  0
 36 60  1  0
M  END
$$$$
