
     RDKit          3D

 38 40  0  0  0  0  0  0  0  0999 V2000
   -0.4000    2.4418   -1.4980 C   0  0  0  0  0  0  0  0  0  0  0  0
   -0.5719    1.3662   -0.4619 C   0  0  0  0  0  0  0  0  0  0  0  0
   -0.7328    1.7350    0.8835 C   0  0  0  0  0  0  0  0  0  0  0  0
   -0.9033    0.7613    1.8695 C   0  0  0  0  0  0  0  0  0  0  0  0
   -1.0398    1.1434    3.1767 O   0  0  0  0  0  0  0  0  0  0  0  0
   -0.9324   -0.5967    1.5347 C   0  0  0  0  0  0  0  0  0  0  0  0
   -1.1466   -1.8746    2.7618 S   0  0  0  0  0  0  0  0  0  0  0  0
   -2.8826   -1.9099    2.9423 C   0  0  0  0  0  0  0  0  0  0  0  0
   -3.7638   -1.2529    2.1192 N   0  0  0  0  0  0  0  0  0  0  0  0
   -4.9343   -1.5840    2.6091 C   0  0  0  0  0  0  0  0  0  0  0  0
   -4.7616   -2.4089    3.6730 N   0  0  0  0  0  0  0  0  0  0  0  0
   -3.4620   -2.6403    3.9036 N   0  0  0  0  0  0  0  0  0  0  0  0
   -0.7685   -0.9668    0.1947 C   0  0  0  0  0  0  0  0  0  0  0  0
   -0.5813    0.0010   -0.7972 C   0  0  0  0  0  0  0  0  0  0  0  0
   -0.3837   -0.4028   -2.1499 N   0  0  0  0  0  0  0  0  0  0  0  0
    0.9414   -1.3545   -2.5755 S   0  0  0  0  0  6  0  0  0  0  0  0
    0.8777   -2.6233   -1.8846 O   0  0  0  0  0  0  0  0  0  0  0  0
    1.0252   -1.2926   -4.0202 O   0  0  0  0  0  0  0  0  0  0  0  0
    2.3266   -0.4438   -1.9240 C   0  0  0  0  0  0  0  0  0  0  0  0
    2.9507    0.5251   -2.7173 C   0  0  0  0  0  0  0  0  0  0  0  0
    4.0430    1.2306   -2.2079 C   0  0  0  0  0  0  0  0  0  0  0  0
    4.5092    0.9558   -0.9211 C   0  0  0  0  0  0  0  0  0  0  0  0
    5.8504    1.8335   -0.2962 Cl  0  0  0  0  0  0  0  0  0  0  0  0
    3.8999   -0.0264   -0.1394 C   0  0  0  0  0  0  0  0  0  0  0  0
    2.8092   -0.7374   -0.6436 C   0  0  0  0  0  0  0  0  0  0  0  0
   -0.3698    3.4382   -1.0442 H   0  0  0  0  0  0  0  0  0  0  0  0
   -1.2377    2.4249   -2.2025 H   0  0  0  0  0  0  0  0  0  0  0  0
    0.5379    2.3045   -2.0436 H   0  0  0  0  0  0  0  0  0  0  0  0
   -0.7196    2.7870    1.1564 H   0  0  0  0  0  0  0  0  0  0  0  0
   -1.0857    2.1109    3.2290 H   0  0  0  0  0  0  0  0  0  0  0  0
   -5.9026   -1.2707    2.2468 H   0  0  0  0  0  0  0  0  0  0  0  0
   -5.4571   -2.8434    4.2689 H   0  0  0  0  0  0  0  0  0  0  0  0
   -0.8054   -2.0202   -0.0756 H   0  0  0  0  0  0  0  0  0  0  0  0
   -0.6701    0.2255   -2.8971 H   0  0  0  0  0  0  0  0  0  0  0  0
    2.5979    0.7332   -3.7251 H   0  0  0  0  0  0  0  0  0  0  0  0
    4.5299    1.9870   -2.8185 H   0  0  0  0  0  0  0  0  0  0  0  0
    4.2708   -0.2460    0.8589 H   0  0  0  0  0  0  0  0  0  0  0  0
    2.3427   -1.5098   -0.0348 H   0  0  0  0  0  0  0  0  0  0  0  0
  1  2  1  0
  2  3  2  0
  3  4  1  0
  4  5  1  0
  4  6  2  0
  6  7  1  0
  7  8  1  0
  8  9  1  0
  9 10  2  0
 10 11  1  0
 11 12  1  0
  6 13  1  0
 13 14  2  0
 14 15  1  0
 15 16  1  0
 16 17  2  0
 16 18  2  0
 16 19  1  0
 19 20  2  0
 20 21  1  0
 21 22  2  0
 22 23  1  0
 22 24  1  0
 24 25  2  0
 14  2  1  0
 25 19  1  0
 12  8  2  0
  1 26  1  0
  1 27  1  0
  1 28  1  0
  3 29  1  0
  5 30  1  0
 10 31  1  0
 11 32  1  0
 13 33  1  0
 15 34  1  0
 20 35  1  0
 21 36  1  0
 24 37  1  0
 25 38  1  0
M  END
$$$$
