
     RDKit          3D

 60 64  0  0  0  0  0  0  0  0999 V2000
   -6.3270    0.0372   -2.8728 C   0  0  0  0  0  0  0  0  0  0  0  0
   -5.8627   -0.2658   -1.4795 C   0  0  0  0  0  0  0  0  0  0  0  0
   -6.6135    0.1512   -0.3751 C   0  0  0  0  0  0  0  0  0  0  0  0
   -6.1648   -0.1014    0.9228 C   0  0  0  0  0  0  0  0  0  0  0  0
   -4.9521   -0.7697    1.1394 C   0  0  0  0  0  0  0  0  0  0  0  0
   -4.4566   -1.0252    2.5409 C   0  0  0  0  0  0  0  0  0  0  0  0
   -3.8447    0.1569    3.1123 N   0  0  0  0  0  0  0  0  0  0  0  0
   -4.5106    0.9237    4.0125 N   0  0  0  0  0  0  0  0  0  0  0  0
   -3.7105    1.9337    4.3562 N   0  0  0  0  0  0  0  0  0  0  0  0
   -2.5428    1.7730    3.6768 C   0  0  0  0  0  0  0  0  0  0  0  0
   -1.3476    2.5700    3.6531 C   0  0  0  0  0  0  0  0  0  0  0  0
   -1.1487    3.5910    4.3009 O   0  0  0  0  0  0  0  0  0  0  0  0
   -0.3897    2.0502    2.7901 N   0  0  0  0  0  0  0  0  0  0  0  0
   -0.5470    0.8732    2.0597 C   0  0  0  0  0  0  0  0  0  0  0  0
    0.6349    0.5178    1.1678 C   0  0  0  0  0  0  0  0  0  0  0  0
    0.6378    1.4345   -0.0647 C   0  0  0  0  0  0  0  0  0  0  0  0
    1.7651    1.0735   -1.0285 C   0  0  0  0  0  0  0  0  0  0  0  0
    1.6561   -0.3554   -1.3954 N   0  0  0  0  0  0  0  0  0  0  0  0
    2.4683   -0.8439   -2.8148 S   0  0  0  0  0  6  0  0  0  0  0  0
    2.1953   -2.2495   -3.0294 O   0  0  0  0  0  0  0  0  0  0  0  0
    2.1976    0.1350   -3.8469 O   0  0  0  0  0  0  0  0  0  0  0  0
    4.1855   -0.6925   -2.3686 C   0  0  0  0  0  0  0  0  0  0  0  0
    4.8560   -1.7882   -1.8192 C   0  0  0  0  0  0  0  0  0  0  0  0
    6.2068   -1.6728   -1.4874 C   0  0  0  0  0  0  0  0  0  0  0  0
    6.8971   -0.4766   -1.7264 C   0  0  0  0  0  0  0  0  0  0  0  0
    8.3434   -0.3454   -1.3468 C   0  0  0  0  0  0  0  0  0  0  0  0
    6.2140    0.6117   -2.2872 C   0  0  0  0  0  0  0  0  0  0  0  0
    4.8634    0.5029   -2.6216 C   0  0  0  0  0  0  0  0  0  0  0  0
    1.7554   -1.2627   -0.2288 C   0  0  0  0  0  0  0  0  0  0  0  0
    0.6142   -0.9544    0.7348 C   0  0  0  0  0  0  0  0  0  0  0  0
   -1.6232    0.1380    2.0889 N   0  0  0  0  0  0  0  0  0  0  0  0
   -2.5857    0.6412    2.8998 C   0  0  0  0  0  0  0  0  0  0  0  0
   -4.1913   -1.1666    0.0313 C   0  0  0  0  0  0  0  0  0  0  0  0
   -4.6416   -0.9136   -1.2656 C   0  0  0  0  0  0  0  0  0  0  0  0
   -7.4202    0.0606   -2.9248 H   0  0  0  0  0  0  0  0  0  0  0  0
   -5.9372    1.0073   -3.1939 H   0  0  0  0  0  0  0  0  0  0  0  0
   -5.9861   -0.7310   -3.5730 H   0  0  0  0  0  0  0  0  0  0  0  0
   -7.5530    0.6810   -0.5181 H   0  0  0  0  0  0  0  0  0  0  0  0
   -6.7645    0.2392    1.7651 H   0  0  0  0  0  0  0  0  0  0  0  0
   -5.2820   -1.3372    3.1906 H   0  0  0  0  0  0  0  0  0  0  0  0
   -3.7117   -1.8292    2.5612 H   0  0  0  0  0  0  0  0  0  0  0  0
    0.4654    2.5834    2.7444 H   0  0  0  0  0  0  0  0  0  0  0  0
    1.5531    0.7023    1.7434 H   0  0  0  0  0  0  0  0  0  0  0  0
   -0.3276    1.3563   -0.5838 H   0  0  0  0  0  0  0  0  0  0  0  0
    0.7441    2.4838    0.2382 H   0  0  0  0  0  0  0  0  0  0  0  0
    1.6760    1.7100   -1.9140 H   0  0  0  0  0  0  0  0  0  0  0  0
    2.7358    1.2697   -0.5600 H   0  0  0  0  0  0  0  0  0  0  0  0
    4.3398   -2.7309   -1.6529 H   0  0  0  0  0  0  0  0  0  0  0  0
    6.7231   -2.5265   -1.0532 H   0  0  0  0  0  0  0  0  0  0  0  0
    8.8421   -1.3205   -1.3547 H   0  0  0  0  0  0  0  0  0  0  0  0
    8.8752    0.2974   -2.0565 H   0  0  0  0  0  0  0  0  0  0  0  0
    8.4288    0.0851   -0.3440 H   0  0  0  0  0  0  0  0  0  0  0  0
    6.7370    1.5472   -2.4788 H   0  0  0  0  0  0  0  0  0  0  0  0
    4.3529    1.3466   -3.0809 H   0  0  0  0  0  0  0  0  0  0  0  0
    1.6694   -2.3091   -0.5408 H   0  0  0  0  0  0  0  0  0  0  0  0
    2.7212   -1.1305    0.2730 H   0  0  0  0  0  0  0  0  0  0  0  0
    0.6894   -1.6039    1.6156 H   0  0  0  0  0  0  0  0  0  0  0  0
   -0.3395   -1.1947    0.2452 H   0  0  0  0  0  0  0  0  0  0  0  0
   -3.2332   -1.6650    0.1684 H   0  0  0  0  0  0  0  0  0  0  0  0
   -4.0289   -1.2225   -2.1095 H   0  0  0  0  0  0  0  0  0  0  0  0
  1  2  1  0
  2  3  2  0
  3  4  1  0
  4  5  2  0
  5  6  1  0
  6  7  1  0
  7  8  1  0
  8  9  2  0
  9 10  1  0
 10 11  1  0
 11 12  2  0
 11 13  1  0
 13 14  1  0
 14 15  1  0
 15 16  1  0
 16 17  1  0
 17 18  1  0
 18 19  1  0
 19 20  2  0
 19 21  2  0
 19 22  1  0
 22 23  2  0
 23 24  1  0
 24 25  2  0
 25 26  1  0
 25 27  1  0
 27 28  2  0
 18 29  1  0
 29 30  1  0
 14 31  2  0
 31 32  1  0
  5 33  1  0
 33 34  2  0
 34  2  1  0
 32  7  1  0
 32 10  2  0
 30 15  1  0
 28 22  1  0
  1 35  1  0
  1 36  1  0
  1 37  1  0
  3 38  1  0
  4 39  1  0
  6 40  1  0
  6 41  1  0
 13 42  1  0
 15 43  1  0
 16 44  1  0
 16 45  1  0
 17 46  1  0
 17 47  1  0
 23 48  1  0
 24 49  1  0
 26 50  1  0
 26 51  1  0
 26 52  1  0
 27 53  1  0
 28 54  1  0
 29 55  1  0
 29 56  1  0
 30 57  1  0
 30 58  1  0
 33 59  1  0
 34 60  1  0
M  END
$$$$
