
     RDKit          3D

 56 58  0  0  0  0  0  0  0  0999 V2000
    6.7647    0.6525    0.4732 C   0  0  0  0  0  0  0  0  0  0  0  0
    6.6918    0.1039   -0.8377 O   0  0  0  0  0  0  0  0  0  0  0  0
    5.4667    0.1213   -1.4461 C   0  0  0  0  0  0  0  0  0  0  0  0
    5.4434   -0.4590   -2.7152 C   0  0  0  0  0  0  0  0  0  0  0  0
    4.2600   -0.5127   -3.4553 C   0  0  0  0  0  0  0  0  0  0  0  0
    3.0828    0.0174   -2.9235 C   0  0  0  0  0  0  0  0  0  0  0  0
    1.8653    0.0286   -3.5647 O   0  0  0  0  0  0  0  0  0  0  0  0
    1.7899   -0.6330   -4.8226 C   0  0  0  0  0  0  0  0  0  0  0  0
    3.0982    0.6081   -1.6409 C   0  0  0  0  0  0  0  0  0  0  0  0
    1.8734    1.1390   -1.1710 N   0  0  0  0  0  0  0  0  0  0  0  0
    1.5989    1.7333    0.0450 C   0  0  0  0  0  0  0  0  0  0  0  0
    2.3837    1.8523    0.9819 O   0  0  0  0  0  0  0  0  0  0  0  0
    0.1999    2.3281    0.1076 C   0  0  0  0  0  0  0  0  0  0  0  0
   -0.7573    1.6846    1.4979 S   0  0  0  0  0  0  0  0  0  0  0  0
   -1.2647    0.1225    0.8841 C   0  0  0  0  0  0  0  0  0  0  0  0
   -0.5890   -0.3950   -0.0886 N   0  0  0  0  0  0  0  0  0  0  0  0
   -0.9662   -1.6527   -0.5685 C   0  0  0  0  0  0  0  0  0  0  0  0
   -0.1668   -2.2851   -1.5232 C   0  0  0  0  0  0  0  0  0  0  0  0
   -0.5248   -3.5328   -2.0398 C   0  0  0  0  0  0  0  0  0  0  0  0
   -1.6913   -4.1600   -1.6044 C   0  0  0  0  0  0  0  0  0  0  0  0
   -2.4924   -3.5423   -0.6457 C   0  0  0  0  0  0  0  0  0  0  0  0
   -2.1174   -2.2961   -0.1311 C   0  0  0  0  0  0  0  0  0  0  0  0
   -2.9167   -1.6284    0.9068 C   0  0  0  0  0  0  0  0  0  0  0  0
   -4.0084   -2.0988    1.2153 O   0  0  0  0  0  0  0  0  0  0  0  0
   -2.3795   -0.4694    1.4611 N   0  0  0  0  0  0  0  0  0  0  0  0
   -3.1394    0.1190    2.5744 C   0  0  0  0  0  0  0  0  0  0  0  0
   -4.2279    1.0882    2.0914 C   0  0  0  0  0  0  0  0  0  0  0  0
   -4.6682    2.0022    3.1312 N   0  0  0  0  0  0  0  0  0  0  0  0
   -5.4750    1.5856    4.1645 C   0  0  0  0  0  0  0  0  0  0  0  0
   -5.7944    2.6664    5.1617 C   0  0  0  0  0  0  0  0  0  0  0  0
   -5.9172    0.4474    4.2634 O   0  0  0  0  0  0  0  0  0  0  0  0
    4.2916    0.6574   -0.9127 C   0  0  0  0  0  0  0  0  0  0  0  0
    7.7968    0.5486    0.8204 H   0  0  0  0  0  0  0  0  0  0  0  0
    6.1245    0.1010    1.1684 H   0  0  0  0  0  0  0  0  0  0  0  0
    6.5219    1.7204    0.4686 H   0  0  0  0  0  0  0  0  0  0  0  0
    6.3608   -0.8705   -3.1330 H   0  0  0  0  0  0  0  0  0  0  0  0
    4.2988   -0.9677   -4.4389 H   0  0  0  0  0  0  0  0  0  0  0  0
    2.4223   -0.1372   -5.5678 H   0  0  0  0  0  0  0  0  0  0  0  0
    2.0482   -1.6936   -4.7284 H   0  0  0  0  0  0  0  0  0  0  0  0
    0.7527   -0.5725   -5.1693 H   0  0  0  0  0  0  0  0  0  0  0  0
    1.0902    0.9597   -1.7960 H   0  0  0  0  0  0  0  0  0  0  0  0
   -0.3523    2.1990   -0.8294 H   0  0  0  0  0  0  0  0  0  0  0  0
    0.3229    3.4070    0.2531 H   0  0  0  0  0  0  0  0  0  0  0  0
    0.7489   -1.8080   -1.8591 H   0  0  0  0  0  0  0  0  0  0  0  0
    0.1106   -4.0154   -2.7788 H   0  0  0  0  0  0  0  0  0  0  0  0
   -1.9713   -5.1305   -2.0048 H   0  0  0  0  0  0  0  0  0  0  0  0
   -3.3978   -4.0309   -0.2956 H   0  0  0  0  0  0  0  0  0  0  0  0
   -3.6035   -0.6828    3.1593 H   0  0  0  0  0  0  0  0  0  0  0  0
   -2.4544    0.6191    3.2639 H   0  0  0  0  0  0  0  0  0  0  0  0
   -3.8678    1.7101    1.2655 H   0  0  0  0  0  0  0  0  0  0  0  0
   -5.0944    0.5267    1.7249 H   0  0  0  0  0  0  0  0  0  0  0  0
   -4.2527    2.9250    3.1716 H   0  0  0  0  0  0  0  0  0  0  0  0
   -5.9935    2.2123    6.1354 H   0  0  0  0  0  0  0  0  0  0  0  0
   -4.9524    3.3550    5.2753 H   0  0  0  0  0  0  0  0  0  0  0  0
   -6.6755    3.2191    4.8280 H   0  0  0  0  0  0  0  0  0  0  0  0
    4.3032    1.1138    0.0683 H   0  0  0  0  0  0  0  0  0  0  0  0
  1  2  1  0
  2  3  1  0
  3  4  2  0
  4  5  1  0
  5  6  2  0
  6  7  1  0
  7  8  1  0
  6  9  1  0
  9 10  1  0
 10 11  1  0
 11 12  2  0
 11 13  1  0
 13 14  1  0
 14 15  1  0
 15 16  2  0
 16 17  1  0
 17 18  2  0
 18 19  1  0
 19 20  2  0
 20 21  1  0
 21 22  2  0
 22 23  1  0
 23 24  2  0
 23 25  1  0
 25 26  1  0
 26 27  1  0
 27 28  1  0
 28 29  1  0
 29 30  1  0
 29 31  2  0
  9 32  2  0
 32  3  1  0
 25 15  1  0
 22 17  1  0
  1 33  1  0
  1 34  1  0
  1 35  1  0
  4 36  1  0
  5 37  1  0
  8 38  1  0
  8 39  1  0
  8 40  1  0
 10 41  1  0
 13 42  1  0
 13 43  1  0
 18 44  1  0
 19 45  1  0
 20 46  1  0
 21 47  1  0
 26 48  1  0
 26 49  1  0
 27 50  1  0
 27 51  1  0
 28 52  1  0
 30 53  1  0
 30 54  1  0
 30 55  1  0
 32 56  1  0
M  END
$$$$
