
     RDKit          3D

 51 55  0  0  0  0  0  0  0  0999 V2000
    6.7736    0.7160    4.2868 F   0  0  0  0  0  0  0  0  0  0  0  0
    6.1145    0.3116    3.1911 C   0  0  0  0  0  0  0  0  0  0  0  0
    4.9275   -0.3981    3.3292 C   0  0  0  0  0  0  0  0  0  0  0  0
    4.2410   -0.8186    2.1892 C   0  0  0  0  0  0  0  0  0  0  0  0
    4.7467   -0.5357    0.9101 C   0  0  0  0  0  0  0  0  0  0  0  0
    4.0076   -0.9943   -0.3271 C   0  0  0  0  0  0  0  0  0  0  0  0
    2.9318   -0.0026   -0.8116 C   0  0  0  0  0  0  0  0  0  0  0  0
    1.7377    0.0618    0.0517 N   0  0  0  0  0  0  0  0  0  0  0  0
    0.9414    1.2869   -0.2156 C   0  0  0  0  0  0  0  0  0  0  0  0
    0.1646    1.2685   -1.5499 C   0  0  0  0  0  0  0  0  0  0  0  0
   -0.7021    0.0774   -1.6593 N   0  0  0  0  0  0  0  0  0  0  0  0
   -2.0105    0.1612   -1.1824 C   0  0  0  0  0  0  0  0  0  0  0  0
   -2.3065    1.0502   -0.2686 N   0  0  0  0  0  0  0  0  0  0  0  0
   -3.6157    1.1433    0.2445 C   0  0  0  0  0  0  0  0  0  0  0  0
   -3.8741    2.0962    1.2309 C   0  0  0  0  0  0  0  0  0  0  0  0
   -5.1556    2.2332    1.7717 C   0  0  0  0  0  0  0  0  0  0  0  0
   -6.1948    1.4127    1.3303 C   0  0  0  0  0  0  0  0  0  0  0  0
   -5.9587    0.4503    0.3486 C   0  0  0  0  0  0  0  0  0  0  0  0
   -4.6711    0.3246   -0.1825 C   0  0  0  0  0  0  0  0  0  0  0  0
   -4.3472   -0.6099   -1.1794 N   0  0  0  0  0  0  0  0  0  0  0  0
   -5.1485   -1.5286   -1.8142 C   0  0  0  0  0  0  0  0  0  0  0  0
   -4.3876   -2.1840   -2.7600 C   0  0  0  0  0  0  0  0  0  0  0  0
   -3.0799   -1.6517   -2.6880 C   0  0  0  0  0  0  0  0  0  0  0  0
   -3.0691   -0.6998   -1.6835 C   0  0  0  0  0  0  0  0  0  0  0  0
    0.0448   -1.1730   -1.4243 C   0  0  0  0  0  0  0  0  0  0  0  0
    0.8421   -1.1099   -0.0980 C   0  0  0  0  0  0  0  0  0  0  0  0
    5.9431    0.1904    0.7915 C   0  0  0  0  0  0  0  0  0  0  0  0
    6.6269    0.6121    1.9326 C   0  0  0  0  0  0  0  0  0  0  0  0
    4.5413   -0.6154    4.3217 H   0  0  0  0  0  0  0  0  0  0  0  0
    3.3042   -1.3611    2.3003 H   0  0  0  0  0  0  0  0  0  0  0  0
    3.5886   -1.9921   -0.1569 H   0  0  0  0  0  0  0  0  0  0  0  0
    4.7403   -1.1300   -1.1354 H   0  0  0  0  0  0  0  0  0  0  0  0
    3.3990    0.9904   -0.8608 H   0  0  0  0  0  0  0  0  0  0  0  0
    2.6584   -0.2606   -1.8414 H   0  0  0  0  0  0  0  0  0  0  0  0
    0.2362    1.4127    0.6151 H   0  0  0  0  0  0  0  0  0  0  0  0
    1.5887    2.1716   -0.1806 H   0  0  0  0  0  0  0  0  0  0  0  0
    0.8680    1.2610   -2.3907 H   0  0  0  0  0  0  0  0  0  0  0  0
   -0.4216    2.1905   -1.6588 H   0  0  0  0  0  0  0  0  0  0  0  0
   -3.0663    2.7362    1.5768 H   0  0  0  0  0  0  0  0  0  0  0  0
   -5.3401    2.9817    2.5373 H   0  0  0  0  0  0  0  0  0  0  0  0
   -7.1914    1.5260    1.7497 H   0  0  0  0  0  0  0  0  0  0  0  0
   -6.7825   -0.1747    0.0201 H   0  0  0  0  0  0  0  0  0  0  0  0
   -6.1935   -1.6411   -1.5652 H   0  0  0  0  0  0  0  0  0  0  0  0
   -4.7425   -2.9528   -3.4346 H   0  0  0  0  0  0  0  0  0  0  0  0
   -2.2342   -1.9275   -3.3049 H   0  0  0  0  0  0  0  0  0  0  0  0
   -0.6231   -2.0398   -1.3878 H   0  0  0  0  0  0  0  0  0  0  0  0
    0.7221   -1.3418   -2.2685 H   0  0  0  0  0  0  0  0  0  0  0  0
    0.1256   -1.0829    0.7338 H   0  0  0  0  0  0  0  0  0  0  0  0
    1.3997   -2.0435    0.0347 H   0  0  0  0  0  0  0  0  0  0  0  0
    6.3478    0.4313   -0.1898 H   0  0  0  0  0  0  0  0  0  0  0  0
    7.5532    1.1720    1.8497 H   0  0  0  0  0  0  0  0  0  0  0  0
  1  2  1  0
  2  3  2  0
  3  4  1  0
  4  5  2  0
  5  6  1  0
  6  7  1  0
  7  8  1  0
  8  9  1  0
  9 10  1  0
 10 11  1  0
 11 12  1  0
 12 13  2  0
 13 14  1  0
 14 15  2  0
 15 16  1  0
 16 17  2  0
 17 18  1  0
 18 19  2  0
 19 20  1  0
 20 21  1  0
 21 22  2  0
 22 23  1  0
 23 24  2  0
 11 25  1  0
 25 26  1  0
  5 27  1  0
 27 28  2  0
 28  2  1  0
 26  8  1  0
 24 12  1  0
 19 14  1  0
 24 20  1  0
  3 29  1  0
  4 30  1  0
  6 31  1  0
  6 32  1  0
  7 33  1  0
  7 34  1  0
  9 35  1  0
  9 36  1  0
 10 37  1  0
 10 38  1  0
 15 39  1  0
 16 40  1  0
 17 41  1  0
 18 42  1  0
 21 43  1  0
 22 44  1  0
 23 45  1  0
 25 46  1  0
 25 47  1  0
 26 48  1  0
 26 49  1  0
 27 50  1  0
 28 51  1  0
M  END
$$$$
