
     RDKit          3D

 45 47  0  0  0  0  0  0  0  0999 V2000
   -7.7833   -2.2139   -0.0602 C   0  0  0  0  0  0  0  0  0  0  0  0
   -6.3071   -2.0593   -0.3797 C   0  0  0  0  0  0  0  0  0  0  0  0
   -5.8548   -0.8451    0.2122 O   0  0  0  0  0  0  0  0  0  0  0  0
   -4.5303   -0.5148    0.0677 C   0  0  0  0  0  0  0  0  0  0  0  0
   -3.6013   -1.2696   -0.6549 C   0  0  0  0  0  0  0  0  0  0  0  0
   -2.2707   -0.8531   -0.7475 C   0  0  0  0  0  0  0  0  0  0  0  0
   -1.8518    0.3184   -0.1131 C   0  0  0  0  0  0  0  0  0  0  0  0
   -0.4628    0.7791   -0.2116 C   0  0  0  0  0  0  0  0  0  0  0  0
    0.6107    0.1579    0.2957 C   0  0  0  0  0  0  0  0  0  0  0  0
    0.6609   -1.3108    1.2006 S   0  0  0  0  0  0  0  0  0  0  0  0
    2.4135   -1.2633    1.3790 C   0  0  0  0  0  0  0  0  0  0  0  0
    3.2818   -2.4038    2.2322 S   0  0  0  0  0  0  0  0  0  0  0  0
    2.8865   -0.1336    0.7439 N   0  0  0  0  0  0  0  0  0  0  0  0
    4.2540    0.1533    0.6305 N   0  0  0  0  0  0  0  0  0  0  0  0
    4.9087   -0.3295   -0.4862 C   0  0  0  0  0  0  0  0  0  0  0  0
    4.4334   -1.1709   -1.2421 O   0  0  0  0  0  0  0  0  0  0  0  0
    6.2692    0.2056   -0.7306 C   0  0  0  0  0  0  0  0  0  0  0  0
    7.2211   -0.6480   -1.2878 C   0  0  0  0  0  0  0  0  0  0  0  0
    8.4872   -0.1443   -1.5151 C   0  0  0  0  0  0  0  0  0  0  0  0
    8.8458    1.1273   -1.2355 N   0  0  0  0  0  0  0  0  0  0  0  0
    7.8966    1.9382   -0.7222 C   0  0  0  0  0  0  0  0  0  0  0  0
    6.6020    1.5315   -0.4526 C   0  0  0  0  0  0  0  0  0  0  0  0
    1.9796    0.7234    0.1458 C   0  0  0  0  0  0  0  0  0  0  0  0
    2.2364    1.7967   -0.3848 O   0  0  0  0  0  0  0  0  0  0  0  0
   -2.7806    1.0845    0.6020 C   0  0  0  0  0  0  0  0  0  0  0  0
   -4.1167    0.6753    0.7003 C   0  0  0  0  0  0  0  0  0  0  0  0
   -5.0899    1.3620    1.3845 O   0  0  0  0  0  0  0  0  0  0  0  0
   -4.7147    2.5622    2.0437 C   0  0  0  0  0  0  0  0  0  0  0  0
   -8.3532   -1.3638   -0.4496 H   0  0  0  0  0  0  0  0  0  0  0  0
   -8.1819   -3.1351   -0.4945 H   0  0  0  0  0  0  0  0  0  0  0  0
   -7.9431   -2.2354    1.0229 H   0  0  0  0  0  0  0  0  0  0  0  0
   -5.7607   -2.9136    0.0363 H   0  0  0  0  0  0  0  0  0  0  0  0
   -6.1797   -2.0227   -1.4676 H   0  0  0  0  0  0  0  0  0  0  0  0
   -3.8795   -2.1875   -1.1616 H   0  0  0  0  0  0  0  0  0  0  0  0
   -1.5691   -1.4539   -1.3224 H   0  0  0  0  0  0  0  0  0  0  0  0
   -0.3385    1.7229   -0.7416 H   0  0  0  0  0  0  0  0  0  0  0  0
    4.6023    0.9224    1.1882 H   0  0  0  0  0  0  0  0  0  0  0  0
    6.9827   -1.6775   -1.5352 H   0  0  0  0  0  0  0  0  0  0  0  0
    9.2703   -0.7650   -1.9418 H   0  0  0  0  0  0  0  0  0  0  0  0
    8.2157    2.9603   -0.5357 H   0  0  0  0  0  0  0  0  0  0  0  0
    5.8829    2.2481   -0.0749 H   0  0  0  0  0  0  0  0  0  0  0  0
   -2.4396    1.9970    1.0798 H   0  0  0  0  0  0  0  0  0  0  0  0
   -4.3606    3.3117    1.3283 H   0  0  0  0  0  0  0  0  0  0  0  0
   -3.9665    2.3698    2.8197 H   0  0  0  0  0  0  0  0  0  0  0  0
   -5.6051    2.9669    2.5345 H   0  0  0  0  0  0  0  0  0  0  0  0
  1  2  1  0
  2  3  1  0
  3  4  1  0
  4  5  2  0
  5  6  1  0
  6  7  2  0
  7  8  1  0
  8  9  2  3
  9 10  1  0
 10 11  1  0
 11 12  2  0
 11 13  1  0
 13 14  1  0
 14 15  1  0
 15 16  2  0
 15 17  1  0
 17 18  2  0
 18 19  1  0
 19 20  2  0
 20 21  1  0
 21 22  2  0
 13 23  1  0
 23 24  2  0
  7 25  1  0
 25 26  2  0
 26 27  1  0
 27 28  1  0
 26  4  1  0
 23  9  1  0
 22 17  1  0
  1 29  1  0
  1 30  1  0
  1 31  1  0
  2 32  1  0
  2 33  1  0
  5 34  1  0
  6 35  1  0
  8 36  1  0
 14 37  1  0
 18 38  1  0
 19 39  1  0
 21 40  1  0
 22 41  1  0
 25 42  1  0
 28 43  1  0
 28 44  1  0
 28 45  1  0
M  END
$$$$
