
     RDKit          3D

 62 67  0  0  0  0  0  0  0  0999 V2000
   -1.8081   -3.0835   -1.2614 C   0  0  0  0  0  0  0  0  0  0  0  0
   -2.7787   -2.3416   -0.5321 O   0  0  0  0  0  0  0  0  0  0  0  0
   -2.6959   -2.4268    0.8358 C   0  0  0  0  0  0  0  0  0  0  0  0
   -2.2079   -3.5558    1.5056 C   0  0  0  0  0  0  0  0  0  0  0  0
   -2.1801   -3.5945    2.9018 C   0  0  0  0  0  0  0  0  0  0  0  0
   -2.6470   -2.5117    3.6410 C   0  0  0  0  0  0  0  0  0  0  0  0
   -3.1467   -1.3876    2.9840 C   0  0  0  0  0  0  0  0  0  0  0  0
   -3.1822   -1.3333    1.5796 C   0  0  0  0  0  0  0  0  0  0  0  0
   -3.6919   -0.1182    0.9247 C   0  0  0  0  0  0  0  0  0  0  0  0
   -5.3713    0.1942    0.9948 S   0  0  0  0  0  0  0  0  0  0  0  0
   -5.2354    1.6429    0.0797 C   0  0  0  0  0  0  0  0  0  0  0  0
   -6.2953    2.5025   -0.2853 C   0  0  0  0  0  0  0  0  0  0  0  0
   -5.9595    3.6198   -1.0212 C   0  0  0  0  0  0  0  0  0  0  0  0
   -4.6699    3.8945   -1.3847 C   0  0  0  0  0  0  0  0  0  0  0  0
   -3.6187    3.0681   -1.0390 C   0  0  0  0  0  0  0  0  0  0  0  0
   -3.9029    1.8961   -0.2830 C   0  0  0  0  0  0  0  0  0  0  0  0
   -3.0179    0.8626    0.2135 C   0  0  0  0  0  0  0  0  0  0  0  0
   -1.5737    0.8051    0.0060 C   0  0  0  0  0  0  0  0  0  0  0  0
   -0.6914    0.9770    1.0777 C   0  0  0  0  0  0  0  0  0  0  0  0
    0.6920    0.9123    0.8735 C   0  0  0  0  0  0  0  0  0  0  0  0
    1.2021    0.6779   -0.4039 C   0  0  0  0  0  0  0  0  0  0  0  0
    2.5241    0.5886   -0.7394 O   0  0  0  0  0  0  0  0  0  0  0  0
    3.4733    0.6290    0.3274 C   0  0  0  0  0  0  0  0  0  0  0  0
    4.8958    0.4479   -0.2416 C   0  0  0  0  0  0  0  0  0  0  0  0
    5.1490   -0.8563   -0.8873 N   0  0  0  0  0  0  0  0  0  0  0  0
    5.1723   -1.9949    0.0548 C   0  0  0  0  0  0  0  0  0  0  0  0
    6.4388   -2.0618    0.9265 C   0  0  0  0  0  0  0  0  0  0  0  0
    7.6271   -2.0745    0.1266 O   0  0  0  0  0  0  0  0  0  0  0  0
    7.6739   -0.9310   -0.7357 C   0  0  0  0  0  0  0  0  0  0  0  0
    6.4272   -0.8520   -1.6335 C   0  0  0  0  0  0  0  0  0  0  0  0
    0.3192    0.5199   -1.4750 C   0  0  0  0  0  0  0  0  0  0  0  0
   -1.0615    0.5828   -1.2754 C   0  0  0  0  0  0  0  0  0  0  0  0
   -4.5642    5.0454   -2.1028 O   0  0  0  0  0  0  0  0  0  0  0  0
   -5.9442    5.4605   -2.1537 C   0  0  0  0  0  0  0  0  0  0  0  0
   -6.8365    4.5622   -1.4635 O   0  0  0  0  0  0  0  0  0  0  0  0
   -1.8129   -2.7158   -2.2920 H   0  0  0  0  0  0  0  0  0  0  0  0
   -2.0722   -4.1452   -1.2867 H   0  0  0  0  0  0  0  0  0  0  0  0
   -0.7992   -2.9377   -0.8598 H   0  0  0  0  0  0  0  0  0  0  0  0
   -1.8599   -4.4283    0.9624 H   0  0  0  0  0  0  0  0  0  0  0  0
   -1.8012   -4.4769    3.4115 H   0  0  0  0  0  0  0  0  0  0  0  0
   -2.6285   -2.5433    4.7272 H   0  0  0  0  0  0  0  0  0  0  0  0
   -3.5090   -0.5472    3.5723 H   0  0  0  0  0  0  0  0  0  0  0  0
   -7.3202    2.2946   -0.0015 H   0  0  0  0  0  0  0  0  0  0  0  0
   -2.6044    3.3120   -1.3374 H   0  0  0  0  0  0  0  0  0  0  0  0
   -1.0739    1.1598    2.0790 H   0  0  0  0  0  0  0  0  0  0  0  0
    1.3386    1.0506    1.7328 H   0  0  0  0  0  0  0  0  0  0  0  0
    3.2548   -0.1421    1.0739 H   0  0  0  0  0  0  0  0  0  0  0  0
    3.4284    1.6133    0.8103 H   0  0  0  0  0  0  0  0  0  0  0  0
    5.0304    1.2319   -0.9983 H   0  0  0  0  0  0  0  0  0  0  0  0
    5.6205    0.6438    0.5565 H   0  0  0  0  0  0  0  0  0  0  0  0
    4.2791   -2.0128    0.6868 H   0  0  0  0  0  0  0  0  0  0  0  0
    5.1245   -2.9121   -0.5478 H   0  0  0  0  0  0  0  0  0  0  0  0
    6.4305   -2.9858    1.5140 H   0  0  0  0  0  0  0  0  0  0  0  0
    6.4892   -1.2256    1.6328 H   0  0  0  0  0  0  0  0  0  0  0  0
    8.5690   -1.0272   -1.3588 H   0  0  0  0  0  0  0  0  0  0  0  0
    7.7932   -0.0268   -0.1279 H   0  0  0  0  0  0  0  0  0  0  0  0
    6.4896    0.0231   -2.2912 H   0  0  0  0  0  0  0  0  0  0  0  0
    6.4215   -1.7280   -2.2953 H   0  0  0  0  0  0  0  0  0  0  0  0
    0.7116    0.3389   -2.4728 H   0  0  0  0  0  0  0  0  0  0  0  0
   -1.7317    0.4416   -2.1200 H   0  0  0  0  0  0  0  0  0  0  0  0
   -6.0286    6.4553   -1.7013 H   0  0  0  0  0  0  0  0  0  0  0  0
   -6.2531    5.5242   -3.2035 H   0  0  0  0  0  0  0  0  0  0  0  0
  1  2  1  0
  2  3  1  0
  3  4  2  0
  4  5  1  0
  5  6  2  0
  6  7  1  0
  7  8  2  0
  8  9  1  0
  9 10  1  0
 10 11  1  0
 11 12  2  0
 12 13  1  0
 13 14  2  0
 14 15  1  0
 15 16  2  0
 16 17  1  0
 17 18  1  0
 18 19  2  0
 19 20  1  0
 20 21  2  0
 21 22  1  0
 22 23  1  0
 23 24  1  0
 24 25  1  0
 25 26  1  0
 26 27  1  0
 27 28  1  0
 28 29  1  0
 29 30  1  0
 21 31  1  0
 31 32  2  0
 14 33  1  0
 33 34  1  0
 34 35  1  0
  8  3  1  0
 17  9  2  0
 32 18  1  0
 16 11  1  0
 30 25  1  0
 35 13  1  0
  1 36  1  0
  1 37  1  0
  1 38  1  0
  4 39  1  0
  5 40  1  0
  6 41  1  0
  7 42  1  0
 12 43  1  0
 15 44  1  0
 19 45  1  0
 20 46  1  0
 23 47  1  0
 23 48  1  0
 24 49  1  0
 24 50  1  0
 26 51  1  0
 26 52  1  0
 27 53  1  0
 27 54  1  0
 29 55  1  0
 29 56  1  0
 30 57  1  0
 30 58  1  0
 31 59  1  0
 32 60  1  0
 34 61  1  0
 34 62  1  0
M  END
$$$$
