
     RDKit          3D

 33 34  0  0  0  0  0  0  0  0999 V2000
   -6.6236    0.4376    0.4993 N   0  0  0  0  0  0  0  0  0  0  0  0
   -5.2430    0.6170    0.3693 C   0  0  0  0  0  0  0  0  0  0  0  0
   -4.3749    0.1320    1.3507 C   0  0  0  0  0  0  0  0  0  0  0  0
   -2.9874    0.1962    1.1776 C   0  0  0  0  0  0  0  0  0  0  0  0
   -2.4505    0.7126   -0.0073 C   0  0  0  0  0  0  0  0  0  0  0  0
   -0.9853    0.8037   -0.2510 C   0  0  0  0  0  0  0  0  0  0  0  0
   -0.4991    1.2507   -1.2777 O   0  0  0  0  0  0  0  0  0  0  0  0
   -0.2929    0.3220    0.8116 O   0  0  0  0  0  0  0  0  0  0  0  0
    1.1393    0.3732    0.6909 C   0  0  0  0  0  0  0  0  0  0  0  0
    1.6544   -0.8380   -0.0848 C   0  0  0  0  0  0  0  0  0  0  0  0
    3.1578   -0.8501   -0.1760 C   0  0  0  0  0  0  0  0  0  0  0  0
    3.9242   -1.5592    0.7581 C   0  0  0  0  0  0  0  0  0  0  0  0
    5.3178   -1.5501    0.6801 C   0  0  0  0  0  0  0  0  0  0  0  0
    5.9565   -0.8301   -0.3280 C   0  0  0  0  0  0  0  0  0  0  0  0
    5.2029   -0.1177   -1.2589 C   0  0  0  0  0  0  0  0  0  0  0  0
    3.8095   -0.1255   -1.1831 C   0  0  0  0  0  0  0  0  0  0  0  0
   -3.3182    1.1453   -1.0166 C   0  0  0  0  0  0  0  0  0  0  0  0
   -4.7034    1.0763   -0.8343 C   0  0  0  0  0  0  0  0  0  0  0  0
   -7.1781    1.0652   -0.0748 H   0  0  0  0  0  0  0  0  0  0  0  0
   -6.9491    0.4071    1.4605 H   0  0  0  0  0  0  0  0  0  0  0  0
   -4.7723   -0.3028    2.2645 H   0  0  0  0  0  0  0  0  0  0  0  0
   -2.3431   -0.1730    1.9713 H   0  0  0  0  0  0  0  0  0  0  0  0
    1.4565    1.3208    0.2374 H   0  0  0  0  0  0  0  0  0  0  0  0
    1.5406    0.3676    1.7109 H   0  0  0  0  0  0  0  0  0  0  0  0
    1.2243   -0.8614   -1.0938 H   0  0  0  0  0  0  0  0  0  0  0  0
    1.2963   -1.7603    0.3908 H   0  0  0  0  0  0  0  0  0  0  0  0
    3.4410   -2.1245    1.5516 H   0  0  0  0  0  0  0  0  0  0  0  0
    5.9057   -2.1051    1.4064 H   0  0  0  0  0  0  0  0  0  0  0  0
    7.0415   -0.8239   -0.3883 H   0  0  0  0  0  0  0  0  0  0  0  0
    5.6997    0.4450   -2.0449 H   0  0  0  0  0  0  0  0  0  0  0  0
    3.2328    0.4370   -1.9151 H   0  0  0  0  0  0  0  0  0  0  0  0
   -2.9224    1.5257   -1.9564 H   0  0  0  0  0  0  0  0  0  0  0  0
   -5.3576    1.3869   -1.6450 H   0  0  0  0  0  0  0  0  0  0  0  0
  1  2  1  0
  2  3  2  0
  3  4  1  0
  4  5  2  0
  5  6  1  0
  6  7  2  0
  6  8  1  0
  8  9  1  0
  9 10  1  0
 10 11  1  0
 11 12  2  0
 12 13  1  0
 13 14  2  0
 14 15  1  0
 15 16  2  0
  5 17  1  0
 17 18  2  0
 18  2  1  0
 16 11  1  0
  1 19  1  0
  1 20  1  0
  3 21  1  0
  4 22  1  0
  9 23  1  0
  9 24  1  0
 10 25  1  0
 10 26  1  0
 12 27  1  0
 13 28  1  0
 14 29  1  0
 15 30  1  0
 16 31  1  0
 17 32  1  0
 18 33  1  0
M  END
$$$$
