
     RDKit          3D

 46 48  0  0  0  0  0  0  0  0999 V2000
   -6.1824    1.8494    2.6778 C   0  0  0  0  0  0  0  0  0  0  0  0
   -6.1172    1.4131    1.3256 O   0  0  0  0  0  0  0  0  0  0  0  0
   -5.1641    0.4783    1.0228 C   0  0  0  0  0  0  0  0  0  0  0  0
   -4.2858   -0.1146    1.9262 C   0  0  0  0  0  0  0  0  0  0  0  0
   -3.3584   -1.0598    1.4802 C   0  0  0  0  0  0  0  0  0  0  0  0
   -3.2913   -1.4144    0.1255 C   0  0  0  0  0  0  0  0  0  0  0  0
   -2.3185   -2.4258   -0.3200 C   0  0  0  0  0  0  0  0  0  0  0  0
   -0.9836   -2.3308   -0.2548 C   0  0  0  0  0  0  0  0  0  0  0  0
   -0.0379   -1.0155    0.3581 S   0  0  0  0  0  0  0  0  0  0  0  0
    1.4414   -1.8351   -0.0193 C   0  0  0  0  0  0  0  0  0  0  0  0
    2.6850   -1.3820    0.1736 C   0  0  0  0  0  0  0  0  0  0  0  0
    3.0253   -0.0921    0.8299 C   0  0  0  0  0  0  0  0  0  0  0  0
    2.4285    0.3108    1.8207 O   0  0  0  0  0  0  0  0  0  0  0  0
    4.1961    0.6586    0.2970 C   0  0  0  0  0  0  0  0  0  0  0  0
    4.8465    1.5619    1.1461 C   0  0  0  0  0  0  0  0  0  0  0  0
    5.9480    2.2909    0.6913 C   0  0  0  0  0  0  0  0  0  0  0  0
    6.4148    2.1263   -0.6176 C   0  0  0  0  0  0  0  0  0  0  0  0
    7.5742    2.9374   -1.1174 C   0  0  0  0  0  0  0  0  0  0  0  0
    5.7446    1.2452   -1.4747 C   0  0  0  0  0  0  0  0  0  0  0  0
    4.6420    0.5132   -1.0225 C   0  0  0  0  0  0  0  0  0  0  0  0
    1.2002   -3.0470   -0.6019 N   0  0  0  0  0  0  0  0  0  0  0  0
   -0.1101   -3.4191   -0.7689 C   0  0  0  0  0  0  0  0  0  0  0  0
   -0.4752   -4.4748   -1.2590 O   0  0  0  0  0  0  0  0  0  0  0  0
   -4.1868   -0.8276   -0.7883 C   0  0  0  0  0  0  0  0  0  0  0  0
   -4.0757   -1.2379   -2.0940 O   0  0  0  0  0  0  0  0  0  0  0  0
   -4.9467   -0.6391   -3.0444 C   0  0  0  0  0  0  0  0  0  0  0  0
   -5.1130    0.1160   -0.3285 C   0  0  0  0  0  0  0  0  0  0  0  0
   -6.9712    2.6046    2.7474 H   0  0  0  0  0  0  0  0  0  0  0  0
   -6.4518    1.0243    3.3452 H   0  0  0  0  0  0  0  0  0  0  0  0
   -5.2432    2.3196    2.9876 H   0  0  0  0  0  0  0  0  0  0  0  0
   -4.2933    0.1314    2.9827 H   0  0  0  0  0  0  0  0  0  0  0  0
   -2.6855   -1.5171    2.2029 H   0  0  0  0  0  0  0  0  0  0  0  0
   -2.7701   -3.3043   -0.7786 H   0  0  0  0  0  0  0  0  0  0  0  0
    3.5368   -1.9718   -0.1469 H   0  0  0  0  0  0  0  0  0  0  0  0
    4.4958    1.7043    2.1670 H   0  0  0  0  0  0  0  0  0  0  0  0
    6.4355    2.9914    1.3665 H   0  0  0  0  0  0  0  0  0  0  0  0
    8.1372    2.3853   -1.8773 H   0  0  0  0  0  0  0  0  0  0  0  0
    7.2148    3.8746   -1.5532 H   0  0  0  0  0  0  0  0  0  0  0  0
    8.2691    3.1689   -0.3032 H   0  0  0  0  0  0  0  0  0  0  0  0
    6.0735    1.1304   -2.5059 H   0  0  0  0  0  0  0  0  0  0  0  0
    4.1347   -0.1422   -1.7246 H   0  0  0  0  0  0  0  0  0  0  0  0
    1.9255   -3.6852   -0.8942 H   0  0  0  0  0  0  0  0  0  0  0  0
   -4.7162   -1.0676   -4.0246 H   0  0  0  0  0  0  0  0  0  0  0  0
   -4.7808    0.4414   -3.1073 H   0  0  0  0  0  0  0  0  0  0  0  0
   -5.9935   -0.8685   -2.8199 H   0  0  0  0  0  0  0  0  0  0  0  0
   -5.8171    0.5947   -1.0010 H   0  0  0  0  0  0  0  0  0  0  0  0
  1  2  1  0
  2  3  1  0
  3  4  2  0
  4  5  1  0
  5  6  2  0
  6  7  1  0
  7  8  2  3
  8  9  1  0
  9 10  1  0
 10 11  2  3
 11 12  1  0
 12 13  2  0
 12 14  1  0
 14 15  2  0
 15 16  1  0
 16 17  2  0
 17 18  1  0
 17 19  1  0
 19 20  2  0
 10 21  1  0
 21 22  1  0
 22 23  2  0
  6 24  1  0
 24 25  1  0
 25 26  1  0
 24 27  2  0
 27  3  1  0
 22  8  1  0
 20 14  1  0
  1 28  1  0
  1 29  1  0
  1 30  1  0
  4 31  1  0
  5 32  1  0
  7 33  1  0
 11 34  1  0
 15 35  1  0
 16 36  1  0
 18 37  1  0
 18 38  1  0
 18 39  1  0
 19 40  1  0
 20 41  1  0
 21 42  1  0
 26 43  1  0
 26 44  1  0
 26 45  1  0
 27 46  1  0
M  END
$$$$
