
     RDKit          3D

 48 51  0  0  0  0  0  0  0  0999 V2000
    7.6539    0.6480   -1.9913 C   0  0  0  0  0  0  0  0  0  0  0  0
    6.2926    0.5548   -1.4360 C   0  0  0  0  0  0  0  0  0  0  0  0
    5.7773    0.2040   -0.2142 C   0  0  0  0  0  0  0  0  0  0  0  0
    4.3740    0.3332   -0.3675 C   0  0  0  0  0  0  0  0  0  0  0  0
    3.3426    0.0722    0.6375 C   0  0  0  0  0  0  0  0  0  0  0  0
    3.6061   -0.3460    1.7609 O   0  0  0  0  0  0  0  0  0  0  0  0
    2.0589    0.3241    0.2066 N   0  0  0  0  0  0  0  0  0  0  0  0
    0.9032   -0.0341    0.9943 C   0  0  0  0  0  0  0  0  0  0  0  0
    0.5974   -1.5451    0.8594 C   0  0  0  0  0  0  0  0  0  0  0  0
   -0.8499   -1.9352    1.2811 C   0  0  0  0  0  0  0  0  0  0  0  0
   -1.0725   -1.6514    2.7809 C   0  0  0  0  0  0  0  0  0  0  0  0
   -1.0432   -3.4462    1.0503 C   0  0  0  0  0  0  0  0  0  0  0  0
   -1.8956   -1.1599    0.4181 C   0  0  0  0  0  0  0  0  0  0  0  0
   -1.5138    0.2751    0.2583 C   0  0  0  0  0  0  0  0  0  0  0  0
   -0.2544    0.7808    0.5311 C   0  0  0  0  0  0  0  0  0  0  0  0
   -0.3859    2.1640    0.3709 C   0  0  0  0  0  0  0  0  0  0  0  0
   -1.6136    2.5158   -0.0008 N   0  0  0  0  0  0  0  0  0  0  0  0
   -2.3070    1.3470   -0.1334 N   0  0  0  0  0  0  0  0  0  0  0  0
   -3.6515    1.3972   -0.6209 C   0  0  0  0  0  0  0  0  0  0  0  0
   -4.2860    2.6522   -0.7224 C   0  0  0  0  0  0  0  0  0  0  0  0
   -5.5977    2.7560   -1.1927 C   0  0  0  0  0  0  0  0  0  0  0  0
   -6.2779    1.6096   -1.5738 C   0  0  0  0  0  0  0  0  0  0  0  0
   -7.5340    1.7037   -2.0279 F   0  0  0  0  0  0  0  0  0  0  0  0
   -5.6680    0.3641   -1.4989 C   0  0  0  0  0  0  0  0  0  0  0  0
   -4.3543    0.2551   -1.0269 C   0  0  0  0  0  0  0  0  0  0  0  0
    4.0661    0.7352   -1.6147 N   0  0  0  0  0  0  0  0  0  0  0  0
    5.2731    0.8727   -2.2766 O   0  0  0  0  0  0  0  0  0  0  0  0
    8.4073    0.5222   -1.2072 H   0  0  0  0  0  0  0  0  0  0  0  0
    7.8133    1.6237   -2.4614 H   0  0  0  0  0  0  0  0  0  0  0  0
    7.8120   -0.1287   -2.7460 H   0  0  0  0  0  0  0  0  0  0  0  0
    6.3180   -0.1027    0.6693 H   0  0  0  0  0  0  0  0  0  0  0  0
    1.9475    0.5531   -0.7768 H   0  0  0  0  0  0  0  0  0  0  0  0
    1.1095    0.2003    2.0460 H   0  0  0  0  0  0  0  0  0  0  0  0
    0.7469   -1.8500   -0.1871 H   0  0  0  0  0  0  0  0  0  0  0  0
    1.3320   -2.1165    1.4422 H   0  0  0  0  0  0  0  0  0  0  0  0
   -2.0627   -1.9950    3.1017 H   0  0  0  0  0  0  0  0  0  0  0  0
   -1.0077   -0.5851    3.0183 H   0  0  0  0  0  0  0  0  0  0  0  0
   -0.3276   -2.1729    3.3926 H   0  0  0  0  0  0  0  0  0  0  0  0
   -2.0579   -3.7604    1.3199 H   0  0  0  0  0  0  0  0  0  0  0  0
   -0.8812   -3.7114   -0.0007 H   0  0  0  0  0  0  0  0  0  0  0  0
   -0.3396   -4.0321    1.6526 H   0  0  0  0  0  0  0  0  0  0  0  0
   -1.9390   -1.6126   -0.5805 H   0  0  0  0  0  0  0  0  0  0  0  0
   -2.8834   -1.2530    0.8833 H   0  0  0  0  0  0  0  0  0  0  0  0
    0.3579    2.9361    0.5237 H   0  0  0  0  0  0  0  0  0  0  0  0
   -3.7700    3.5653   -0.4277 H   0  0  0  0  0  0  0  0  0  0  0  0
   -6.0850    3.7231   -1.2636 H   0  0  0  0  0  0  0  0  0  0  0  0
   -6.2154   -0.5172   -1.8191 H   0  0  0  0  0  0  0  0  0  0  0  0
   -3.9149   -0.7331   -1.0310 H   0  0  0  0  0  0  0  0  0  0  0  0
  1  2  1  0
  2  3  2  0
  3  4  1  0
  4  5  1  0
  5  6  2  0
  5  7  1  0
  7  8  1  0
  8  9  1  0
  9 10  1  0
 10 11  1  0
 10 12  1  0
 10 13  1  0
 13 14  1  0
 14 15  2  0
 15 16  1  0
 16 17  2  0
 17 18  1  0
 18 19  1  0
 19 20  2  0
 20 21  1  0
 21 22  2  0
 22 23  1  0
 22 24  1  0
 24 25  2  0
  4 26  2  0
 26 27  1  0
 27  2  1  0
 15  8  1  0
 25 19  1  0
 18 14  1  0
  1 28  1  0
  1 29  1  0
  1 30  1  0
  3 31  1  0
  7 32  1  0
  8 33  1  0
  9 34  1  0
  9 35  1  0
 11 36  1  0
 11 37  1  0
 11 38  1  0
 12 39  1  0
 12 40  1  0
 12 41  1  0
 13 42  1  0
 13 43  1  0
 16 44  1  0
 20 45  1  0
 21 46  1  0
 24 47  1  0
 25 48  1  0
M  END
$$$$
