
     RDKit          3D

 36 37  0  0  0  0  0  0  0  0999 V2000
   -0.7365   -0.4770   -0.2124 O   0  0  0  0  0  0  0  0  0  0  0  0
   -0.9116   -0.0822    0.9398 C   0  0  0  0  0  0  0  0  0  0  0  0
    0.1735    0.5558    1.8028 C   0  0  0  0  0  0  0  0  0  0  0  0
    1.3995    0.6326    1.0785 O   0  0  0  0  0  0  0  0  0  0  0  0
    2.4171    1.1777    1.7817 C   0  0  0  0  0  0  0  0  0  0  0  0
    2.3489    1.5823    2.9308 O   0  0  0  0  0  0  0  0  0  0  0  0
    3.6569    1.2236    0.9625 C   0  0  0  0  0  0  0  0  0  0  0  0
    4.8104    1.7663    1.5444 C   0  0  0  0  0  0  0  0  0  0  0  0
    5.9944    1.8281    0.8113 C   0  0  0  0  0  0  0  0  0  0  0  0
    7.4074    2.4954    1.5309 Cl  0  0  0  0  0  0  0  0  0  0  0  0
    6.0454    1.3554   -0.4972 C   0  0  0  0  0  0  0  0  0  0  0  0
    4.8972    0.8166   -1.0725 C   0  0  0  0  0  0  0  0  0  0  0  0
    4.9530    0.2300   -2.6893 Cl  0  0  0  0  0  0  0  0  0  0  0  0
    3.7033    0.7465   -0.3544 C   0  0  0  0  0  0  0  0  0  0  0  0
   -2.1461   -0.1698    1.5574 N   0  0  0  0  0  0  0  0  0  0  0  0
   -3.2356   -0.8826    0.9120 C   0  0  0  0  0  0  0  0  0  0  0  0
   -3.7472   -0.1853   -0.3587 C   0  0  0  0  0  0  0  0  0  0  0  0
   -4.0828   -1.1373   -1.3968 N   0  0  0  0  0  0  0  0  0  0  0  0
   -3.2431   -1.5368   -2.4094 C   0  0  0  0  0  0  0  0  0  0  0  0
   -1.9684   -1.0679   -2.5227 O   0  0  0  0  0  0  0  0  0  0  0  0
   -3.7824   -2.4138   -3.2611 C   0  0  0  0  0  0  0  0  0  0  0  0
   -5.4072   -2.8257   -2.8099 S   0  0  0  0  0  0  0  0  0  0  0  0
   -5.3273   -1.7530   -1.4034 C   0  0  0  0  0  0  0  0  0  0  0  0
   -6.2295   -1.6183   -0.5925 O   0  0  0  0  0  0  0  0  0  0  0  0
    0.3063   -0.0656    2.6959 H   0  0  0  0  0  0  0  0  0  0  0  0
   -0.1587    1.5630    2.0796 H   0  0  0  0  0  0  0  0  0  0  0  0
    4.7847    2.1396    2.5668 H   0  0  0  0  0  0  0  0  0  0  0  0
    6.9714    1.4062   -1.0639 H   0  0  0  0  0  0  0  0  0  0  0  0
    2.8203    0.3209   -0.8268 H   0  0  0  0  0  0  0  0  0  0  0  0
   -2.2102   -0.0011    2.5551 H   0  0  0  0  0  0  0  0  0  0  0  0
   -2.8721   -1.8937    0.6919 H   0  0  0  0  0  0  0  0  0  0  0  0
   -4.0462   -0.9748    1.6428 H   0  0  0  0  0  0  0  0  0  0  0  0
   -4.6509    0.3822   -0.1021 H   0  0  0  0  0  0  0  0  0  0  0  0
   -3.0416    0.5505   -0.7592 H   0  0  0  0  0  0  0  0  0  0  0  0
   -1.6135   -0.8514   -1.6333 H   0  0  0  0  0  0  0  0  0  0  0  0
   -3.2788   -2.8365   -4.1188 H   0  0  0  0  0  0  0  0  0  0  0  0
  1  2  2  0
  2  3  1  0
  3  4  1  0
  4  5  1  0
  5  6  2  0
  5  7  1  0
  7  8  2  0
  8  9  1  0
  9 10  1  0
  9 11  2  0
 11 12  1  0
 12 13  1  0
 12 14  2  0
  2 15  1  0
 15 16  1  0
 16 17  1  0
 17 18  1  0
 18 19  1  0
 19 20  1  0
 19 21  2  0
 21 22  1  0
 22 23  1  0
 23 24  2  0
 14  7  1  0
 23 18  1  0
  3 25  1  0
  3 26  1  0
  8 27  1  0
 11 28  1  0
 14 29  1  0
 15 30  1  0
 16 31  1  0
 16 32  1  0
 17 33  1  0
 17 34  1  0
 20 35  1  0
 21 36  1  0
M  END
$$$$
