
     RDKit          3D

 55 58  0  0  0  0  0  0  0  0999 V2000
    7.2834    0.7128   -1.4701 C   0  0  0  0  0  0  0  0  0  0  0  0
    6.9758   -0.7088   -1.0191 C   0  0  0  0  0  0  0  0  0  0  0  0
    5.9973   -0.7331    0.0769 N   0  0  0  0  0  0  0  0  0  0  0  0
    6.5088   -1.1015    1.4036 C   0  0  0  0  0  0  0  0  0  0  0  0
    7.0373    0.1127    2.1520 C   0  0  0  0  0  0  0  0  0  0  0  0
    4.6478   -0.4620   -0.1311 C   0  0  0  0  0  0  0  0  0  0  0  0
    4.0804   -0.4116   -1.4154 C   0  0  0  0  0  0  0  0  0  0  0  0
    2.7186   -0.1425   -1.6302 C   0  0  0  0  0  0  0  0  0  0  0  0
    1.8580    0.0787   -0.5575 C   0  0  0  0  0  0  0  0  0  0  0  0
    0.4459    0.3812   -0.8200 C   0  0  0  0  0  0  0  0  0  0  0  0
   -0.5696   -0.0773   -0.0689 C   0  0  0  0  0  0  0  0  0  0  0  0
   -1.9861    0.2127   -0.3393 C   0  0  0  0  0  0  0  0  0  0  0  0
   -2.9698   -0.3230    0.4756 C   0  0  0  0  0  0  0  0  0  0  0  0
   -4.3145   -0.0390    0.2062 C   0  0  0  0  0  0  0  0  0  0  0  0
   -5.3418   -0.6170    1.0845 C   0  0  0  0  0  0  0  0  0  0  0  0
   -5.8170    0.0955    2.1963 C   0  0  0  0  0  0  0  0  0  0  0  0
   -6.7903   -0.4554    3.0324 C   0  0  0  0  0  0  0  0  0  0  0  0
   -7.2982   -1.7259    2.7682 C   0  0  0  0  0  0  0  0  0  0  0  0
   -6.8345   -2.4466    1.6692 C   0  0  0  0  0  0  0  0  0  0  0  0
   -5.8613   -1.8960    0.8327 C   0  0  0  0  0  0  0  0  0  0  0  0
   -4.6314    0.7916   -0.8980 C   0  0  0  0  0  0  0  0  0  0  0  0
   -5.9526    1.1442   -1.2695 C   0  0  0  0  0  0  0  0  0  0  0  0
   -6.2001    1.9671   -2.3671 C   0  0  0  0  0  0  0  0  0  0  0  0
   -5.1344    2.4505   -3.1112 C   0  0  0  0  0  0  0  0  0  0  0  0
   -3.8292    2.1064   -2.7527 C   0  0  0  0  0  0  0  0  0  0  0  0
   -3.5555    1.2882   -1.6647 C   0  0  0  0  0  0  0  0  0  0  0  0
   -2.2717    1.0067   -1.3931 N   0  0  0  0  0  0  0  0  0  0  0  0
    2.3957    0.0554    0.7277 C   0  0  0  0  0  0  0  0  0  0  0  0
    3.7595   -0.2142    0.9294 C   0  0  0  0  0  0  0  0  0  0  0  0
    7.6630    1.3178   -0.6411 H   0  0  0  0  0  0  0  0  0  0  0  0
    8.0455    0.7003   -2.2556 H   0  0  0  0  0  0  0  0  0  0  0  0
    6.3992    1.2174   -1.8704 H   0  0  0  0  0  0  0  0  0  0  0  0
    6.6433   -1.3242   -1.8623 H   0  0  0  0  0  0  0  0  0  0  0  0
    7.9188   -1.1648   -0.6923 H   0  0  0  0  0  0  0  0  0  0  0  0
    5.7515   -1.6219    2.0013 H   0  0  0  0  0  0  0  0  0  0  0  0
    7.3224   -1.8304    1.2985 H   0  0  0  0  0  0  0  0  0  0  0  0
    7.8923    0.5547    1.6309 H   0  0  0  0  0  0  0  0  0  0  0  0
    6.2735    0.8889    2.2584 H   0  0  0  0  0  0  0  0  0  0  0  0
    7.3705   -0.1775    3.1534 H   0  0  0  0  0  0  0  0  0  0  0  0
    4.6825   -0.5928   -2.2997 H   0  0  0  0  0  0  0  0  0  0  0  0
    2.3429   -0.1216   -2.6507 H   0  0  0  0  0  0  0  0  0  0  0  0
    0.2480    0.9957   -1.6962 H   0  0  0  0  0  0  0  0  0  0  0  0
   -0.3718   -0.7150    0.7870 H   0  0  0  0  0  0  0  0  0  0  0  0
   -2.7063   -0.9577    1.3167 H   0  0  0  0  0  0  0  0  0  0  0  0
   -5.4292    1.0889    2.4138 H   0  0  0  0  0  0  0  0  0  0  0  0
   -7.1510    0.1075    3.8896 H   0  0  0  0  0  0  0  0  0  0  0  0
   -8.0557   -2.1548    3.4193 H   0  0  0  0  0  0  0  0  0  0  0  0
   -7.2300   -3.4378    1.4624 H   0  0  0  0  0  0  0  0  0  0  0  0
   -5.5091   -2.4691   -0.0228 H   0  0  0  0  0  0  0  0  0  0  0  0
   -6.8036    0.7751   -0.7004 H   0  0  0  0  0  0  0  0  0  0  0  0
   -7.2206    2.2267   -2.6362 H   0  0  0  0  0  0  0  0  0  0  0  0
   -5.3100    3.0935   -3.9694 H   0  0  0  0  0  0  0  0  0  0  0  0
   -2.9979    2.4884   -3.3411 H   0  0  0  0  0  0  0  0  0  0  0  0
    1.7724    0.2618    1.5938 H   0  0  0  0  0  0  0  0  0  0  0  0
    4.1090   -0.1989    1.9570 H   0  0  0  0  0  0  0  0  0  0  0  0
  1  2  1  0
  2  3  1  0
  3  4  1  0
  4  5  1  0
  3  6  1  0
  6  7  2  0
  7  8  1  0
  8  9  2  0
  9 10  1  0
 10 11  2  3
 11 12  1  0
 12 13  2  0
 13 14  1  0
 14 15  1  0
 15 16  2  0
 16 17  1  0
 17 18  2  0
 18 19  1  0
 19 20  2  0
 14 21  2  0
 21 22  1  0
 22 23  2  0
 23 24  1  0
 24 25  2  0
 25 26  1  0
 26 27  2  0
  9 28  1  0
 28 29  2  0
 29  6  1  0
 27 12  1  0
 20 15  1  0
 26 21  1  0
  1 30  1  0
  1 31  1  0
  1 32  1  0
  2 33  1  0
  2 34  1  0
  4 35  1  0
  4 36  1  0
  5 37  1  0
  5 38  1  0
  5 39  1  0
  7 40  1  0
  8 41  1  0
 10 42  1  0
 11 43  1  0
 13 44  1  0
 16 45  1  0
 17 46  1  0
 18 47  1  0
 19 48  1  0
 20 49  1  0
 22 50  1  0
 23 51  1  0
 24 52  1  0
 25 53  1  0
 28 54  1  0
 29 55  1  0
M  END
$$$$
