
     RDKit          3D

 58 59  0  0  0  0  0  0  0  0999 V2000
    7.4585   -2.5586   -2.7656 C   0  0  0  0  0  0  0  0  0  0  0  0
    8.2892   -1.7698   -1.7640 C   0  0  0  0  0  0  0  0  0  0  0  0
    7.8520   -0.3074   -1.6251 C   0  0  0  0  0  0  0  0  0  0  0  0
    6.4309   -0.1183   -1.0927 C   0  0  0  0  0  0  0  0  0  0  0  0
    6.3220   -0.7584    0.1780 O   0  0  0  0  0  0  0  0  0  0  0  0
    5.1090   -0.7065    0.8051 C   0  0  0  0  0  0  0  0  0  0  0  0
    3.9651   -0.0622    0.3314 C   0  0  0  0  0  0  0  0  0  0  0  0
    2.7796   -0.0873    1.0783 C   0  0  0  0  0  0  0  0  0  0  0  0
    2.7304   -0.7647    2.3034 C   0  0  0  0  0  0  0  0  0  0  0  0
    1.4952   -0.8193    3.1341 C   0  0  0  0  0  0  0  0  0  0  0  0
    1.5641   -1.0029    4.3442 O   0  0  0  0  0  0  0  0  0  0  0  0
    0.2986   -0.6870    2.4701 N   0  0  0  0  0  0  0  0  0  0  0  0
   -0.9636   -0.7957    3.1837 C   0  0  0  0  0  0  0  0  0  0  0  0
   -2.1235   -0.6572    2.2137 C   0  0  0  0  0  0  0  0  0  0  0  0
   -2.0046   -0.5750    0.9946 O   0  0  0  0  0  0  0  0  0  0  0  0
   -3.3109   -0.6612    2.8804 O   0  0  0  0  0  0  0  0  0  0  0  0
   -4.4517   -0.4795    2.0345 C   0  0  0  0  0  0  0  0  0  0  0  0
   -4.5484    0.9501    1.4952 C   0  0  0  0  0  0  0  0  0  0  0  0
   -4.0249    1.8978    2.0932 O   0  0  0  0  0  0  0  0  0  0  0  0
   -5.2612    1.1753    0.1948 C   0  0  0  0  0  0  0  0  0  0  0  0
   -4.8476    2.1501   -0.6468 C   0  0  0  0  0  0  0  0  0  0  0  0
   -3.7766    2.9851   -0.3395 N   0  0  0  0  0  0  0  0  0  0  0  0
   -5.5013    2.3178   -1.8655 N   0  0  0  0  0  0  0  0  0  0  0  0
   -5.0240    3.3366   -2.8011 C   0  0  0  0  0  0  0  0  0  0  0  0
   -6.5732    1.5335   -2.2829 C   0  0  0  0  0  0  0  0  0  0  0  0
   -7.1480    1.7124   -3.3583 O   0  0  0  0  0  0  0  0  0  0  0  0
   -6.9693    0.5302   -1.4148 N   0  0  0  0  0  0  0  0  0  0  0  0
   -8.0952   -0.2893   -1.8268 C   0  0  0  0  0  0  0  0  0  0  0  0
   -6.4148    0.3285   -0.1735 C   0  0  0  0  0  0  0  0  0  0  0  0
   -6.8422   -0.4977    0.6330 O   0  0  0  0  0  0  0  0  0  0  0  0
    3.8826   -1.3942    2.7847 C   0  0  0  0  0  0  0  0  0  0  0  0
    5.0612   -1.3673    2.0351 C   0  0  0  0  0  0  0  0  0  0  0  0
    6.4246   -2.6736   -2.4256 H   0  0  0  0  0  0  0  0  0  0  0  0
    7.4504   -2.0672   -3.7448 H   0  0  0  0  0  0  0  0  0  0  0  0
    7.8778   -3.5624   -2.8950 H   0  0  0  0  0  0  0  0  0  0  0  0
    9.3367   -1.7873   -2.0894 H   0  0  0  0  0  0  0  0  0  0  0  0
    8.2562   -2.2706   -0.7884 H   0  0  0  0  0  0  0  0  0  0  0  0
    8.5508    0.1824   -0.9343 H   0  0  0  0  0  0  0  0  0  0  0  0
    7.9460    0.2005   -2.5929 H   0  0  0  0  0  0  0  0  0  0  0  0
    5.7078   -0.5408   -1.7999 H   0  0  0  0  0  0  0  0  0  0  0  0
    6.2431    0.9568   -0.9838 H   0  0  0  0  0  0  0  0  0  0  0  0
    3.9621    0.4772   -0.6107 H   0  0  0  0  0  0  0  0  0  0  0  0
    1.9163    0.4509    0.6980 H   0  0  0  0  0  0  0  0  0  0  0  0
    0.2582   -0.7186    1.4575 H   0  0  0  0  0  0  0  0  0  0  0  0
   -1.0068   -1.7758    3.6676 H   0  0  0  0  0  0  0  0  0  0  0  0
   -1.0046    0.0014    3.9315 H   0  0  0  0  0  0  0  0  0  0  0  0
   -5.3341   -0.6703    2.6532 H   0  0  0  0  0  0  0  0  0  0  0  0
   -4.4253   -1.2138    1.2214 H   0  0  0  0  0  0  0  0  0  0  0  0
   -3.5140    2.9336    0.6547 H   0  0  0  0  0  0  0  0  0  0  0  0
   -3.9565    3.9535   -0.5838 H   0  0  0  0  0  0  0  0  0  0  0  0
   -5.5191    3.2769   -3.7742 H   0  0  0  0  0  0  0  0  0  0  0  0
   -3.9494    3.2085   -2.9699 H   0  0  0  0  0  0  0  0  0  0  0  0
   -5.2243    4.3274   -2.3799 H   0  0  0  0  0  0  0  0  0  0  0  0
   -8.2889   -1.1116   -1.1326 H   0  0  0  0  0  0  0  0  0  0  0  0
   -8.9867    0.3440   -1.8879 H   0  0  0  0  0  0  0  0  0  0  0  0
   -7.8961   -0.7050   -2.8204 H   0  0  0  0  0  0  0  0  0  0  0  0
    3.8673   -1.9101    3.7428 H   0  0  0  0  0  0  0  0  0  0  0  0
    5.9510   -1.8640    2.4155 H   0  0  0  0  0  0  0  0  0  0  0  0
  1  2  1  0
  2  3  1  0
  3  4  1  0
  4  5  1  0
  5  6  1  0
  6  7  2  0
  7  8  1  0
  8  9  2  0
  9 10  1  0
 10 11  2  0
 10 12  1  0
 12 13  1  0
 13 14  1  0
 14 15  2  0
 14 16  1  0
 16 17  1  0
 17 18  1  0
 18 19  2  0
 18 20  1  0
 20 21  2  0
 21 22  1  0
 21 23  1  0
 23 24  1  0
 23 25  1  0
 25 26  2  0
 25 27  1  0
 27 28  1  0
 27 29  1  0
 29 30  2  0
  9 31  1  0
 31 32  2  0
 32  6  1  0
 29 20  1  0
  1 33  1  0
  1 34  1  0
  1 35  1  0
  2 36  1  0
  2 37  1  0
  3 38  1  0
  3 39  1  0
  4 40  1  0
  4 41  1  0
  7 42  1  0
  8 43  1  0
 12 44  1  0
 13 45  1  0
 13 46  1  0
 17 47  1  0
 17 48  1  0
 22 49  1  0
 22 50  1  0
 24 51  1  0
 24 52  1  0
 24 53  1  0
 28 54  1  0
 28 55  1  0
 28 56  1  0
 31 57  1  0
 32 58  1  0
M  END
$$$$
