
     RDKit          3D

 39 41  0  0  0  0  0  0  0  0999 V2000
   -2.0908   -1.0876    5.5367 C   0  0  0  0  0  0  0  0  0  0  0  0
   -3.0910   -1.1122    4.5260 O   0  0  0  0  0  0  0  0  0  0  0  0
   -2.6660   -1.2825    3.2373 C   0  0  0  0  0  0  0  0  0  0  0  0
   -1.3389   -1.4172    2.8220 C   0  0  0  0  0  0  0  0  0  0  0  0
   -1.0399   -1.5840    1.4658 C   0  0  0  0  0  0  0  0  0  0  0  0
   -2.0739   -1.6057    0.5263 C   0  0  0  0  0  0  0  0  0  0  0  0
   -1.7028   -1.8241   -1.1949 S   0  0  0  0  0  6  0  0  0  0  0  0
   -0.3095   -2.1899   -1.3314 O   0  0  0  0  0  0  0  0  0  0  0  0
   -2.7495   -2.6505   -1.7592 O   0  0  0  0  0  0  0  0  0  0  0  0
   -1.9424   -0.2720   -1.8257 N   0  0  0  0  0  0  0  0  0  0  0  0
   -0.8829    0.6674   -1.6975 C   0  0  0  0  0  0  0  0  0  0  0  0
   -0.7746    1.4317   -0.5383 C   0  0  0  0  0  0  0  0  0  0  0  0
    0.2904    2.3185   -0.3942 C   0  0  0  0  0  0  0  0  0  0  0  0
    1.2482    2.4255   -1.4019 C   0  0  0  0  0  0  0  0  0  0  0  0
    2.2664    3.3075   -1.1646 O   0  0  0  0  0  0  0  0  0  0  0  0
    1.1505    1.6643   -2.5760 C   0  0  0  0  0  0  0  0  0  0  0  0
    2.2707    1.8185   -3.9596 S   0  0  0  0  0  0  0  0  0  0  0  0
    3.7694    1.2482   -3.2873 C   0  0  0  0  0  0  0  0  0  0  0  0
    4.3411    1.8195   -2.1781 N   0  0  0  0  0  0  0  0  0  0  0  0
    5.4418    1.1194   -2.0258 C   0  0  0  0  0  0  0  0  0  0  0  0
    5.5272    0.1855   -3.0103 N   0  0  0  0  0  0  0  0  0  0  0  0
    4.4764    0.2606   -3.8409 N   0  0  0  0  0  0  0  0  0  0  0  0
    0.0713    0.7788   -2.7112 C   0  0  0  0  0  0  0  0  0  0  0  0
   -3.4042   -1.4856    0.9312 C   0  0  0  0  0  0  0  0  0  0  0  0
   -3.6924   -1.3198    2.2868 C   0  0  0  0  0  0  0  0  0  0  0  0
   -1.4085   -0.2428    5.3958 H   0  0  0  0  0  0  0  0  0  0  0  0
   -2.5923   -0.9531    6.5000 H   0  0  0  0  0  0  0  0  0  0  0  0
   -1.5447   -2.0359    5.5751 H   0  0  0  0  0  0  0  0  0  0  0  0
   -0.5140   -1.3988    3.5269 H   0  0  0  0  0  0  0  0  0  0  0  0
   -0.0029   -1.6899    1.1532 H   0  0  0  0  0  0  0  0  0  0  0  0
   -2.4224   -0.3225   -2.7241 H   0  0  0  0  0  0  0  0  0  0  0  0
   -1.5178    1.3571    0.2506 H   0  0  0  0  0  0  0  0  0  0  0  0
    0.3806    2.9235    0.5041 H   0  0  0  0  0  0  0  0  0  0  0  0
    3.0528    2.9934   -1.6600 H   0  0  0  0  0  0  0  0  0  0  0  0
    6.1878    1.2385   -1.2526 H   0  0  0  0  0  0  0  0  0  0  0  0
    6.2474   -0.5087   -3.1784 H   0  0  0  0  0  0  0  0  0  0  0  0
   -0.0204    0.1672   -3.6057 H   0  0  0  0  0  0  0  0  0  0  0  0
   -4.2135   -1.5198    0.2057 H   0  0  0  0  0  0  0  0  0  0  0  0
   -4.7268   -1.2224    2.6096 H   0  0  0  0  0  0  0  0  0  0  0  0
  1  2  1  0
  2  3  1  0
  3  4  2  0
  4  5  1  0
  5  6  2  0
  6  7  1  0
  7  8  2  0
  7  9  2  0
  7 10  1  0
 10 11  1  0
 11 12  2  0
 12 13  1  0
 13 14  2  0
 14 15  1  0
 14 16  1  0
 16 17  1  0
 17 18  1  0
 18 19  1  0
 19 20  2  0
 20 21  1  0
 21 22  1  0
 16 23  2  0
  6 24  1  0
 24 25  2  0
 25  3  1  0
 23 11  1  0
 22 18  2  0
  1 26  1  0
  1 27  1  0
  1 28  1  0
  4 29  1  0
  5 30  1  0
 10 31  1  0
 12 32  1  0
 13 33  1  0
 15 34  1  0
 20 35  1  0
 21 36  1  0
 23 37  1  0
 24 38  1  0
 25 39  1  0
M  END
$$$$
