
     RDKit          3D

 59 64  0  0  0  0  0  0  0  0999 V2000
   -3.8750    1.4355   -3.0845 C   0  0  0  0  0  0  0  0  0  0  0  0
   -3.7011    0.8296   -1.8103 O   0  0  0  0  0  0  0  0  0  0  0  0
   -4.8136    0.3102   -1.1918 C   0  0  0  0  0  0  0  0  0  0  0  0
   -6.0854    0.2748   -1.7850 C   0  0  0  0  0  0  0  0  0  0  0  0
   -7.1713   -0.2966   -1.1125 C   0  0  0  0  0  0  0  0  0  0  0  0
   -7.0021   -0.8365    0.1631 C   0  0  0  0  0  0  0  0  0  0  0  0
   -5.7442   -0.8042    0.7636 C   0  0  0  0  0  0  0  0  0  0  0  0
   -4.6351   -0.2324    0.1094 C   0  0  0  0  0  0  0  0  0  0  0  0
   -3.4127   -0.2838    0.8209 N   0  0  0  0  0  0  0  0  0  0  0  0
   -2.7855    1.0374    1.0574 C   0  0  0  0  0  0  0  0  0  0  0  0
   -1.5384    0.8907    1.9599 C   0  0  0  0  0  0  0  0  0  0  0  0
   -0.5782   -0.1432    1.4878 N   0  0  0  0  0  0  0  0  0  0  0  0
    0.4359    0.2347    0.6495 C   0  0  0  0  0  0  0  0  0  0  0  0
    0.3672    0.9055   -0.5572 C   0  0  0  0  0  0  0  0  0  0  0  0
    1.6636    0.9517   -1.1088 C   0  0  0  0  0  0  0  0  0  0  0  0
    2.5233    0.3417   -0.2123 C   0  0  0  0  0  0  0  0  0  0  0  0
    3.9470    0.0769   -0.2632 C   0  0  0  0  0  0  0  0  0  0  0  0
    4.7658    0.5127   -1.4246 C   0  0  0  0  0  0  0  0  0  0  0  0
    5.6471   -0.4087   -2.0095 C   0  0  0  0  0  0  0  0  0  0  0  0
    6.4374   -0.0263   -3.0951 C   0  0  0  0  0  0  0  0  0  0  0  0
    6.3570    1.2772   -3.5889 C   0  0  0  0  0  0  0  0  0  0  0  0
    5.4983    2.2051   -2.9900 C   0  0  0  0  0  0  0  0  0  0  0  0
    4.7079    1.8281   -1.9017 C   0  0  0  0  0  0  0  0  0  0  0  0
    4.5403   -0.5710    0.6945 N   0  0  0  0  0  0  0  0  0  0  0  0
    3.7952   -0.9737    1.8186 C   0  0  0  0  0  0  0  0  0  0  0  0
    4.4849   -1.6256    2.8463 C   0  0  0  0  0  0  0  0  0  0  0  0
    3.8218   -2.0437    4.0014 C   0  0  0  0  0  0  0  0  0  0  0  0
    2.4575   -1.8013    4.1411 C   0  0  0  0  0  0  0  0  0  0  0  0
    1.7517   -1.1475    3.1258 C   0  0  0  0  0  0  0  0  0  0  0  0
    2.4150   -0.7448    1.9613 C   0  0  0  0  0  0  0  0  0  0  0  0
    1.7763   -0.0872    0.8772 N   0  0  0  0  0  0  0  0  0  0  0  0
   -1.2482   -1.4340    1.1614 C   0  0  0  0  0  0  0  0  0  0  0  0
   -2.4593   -1.2473    0.2210 C   0  0  0  0  0  0  0  0  0  0  0  0
   -2.9023    1.8380   -3.4022 H   0  0  0  0  0  0  0  0  0  0  0  0
   -4.1841    0.6926   -3.8279 H   0  0  0  0  0  0  0  0  0  0  0  0
   -4.5820    2.2736   -3.0313 H   0  0  0  0  0  0  0  0  0  0  0  0
   -6.2654    0.6769   -2.7795 H   0  0  0  0  0  0  0  0  0  0  0  0
   -8.1489   -0.3236   -1.5889 H   0  0  0  0  0  0  0  0  0  0  0  0
   -7.8445   -1.2855    0.6910 H   0  0  0  0  0  0  0  0  0  0  0  0
   -5.6140   -1.2290    1.7618 H   0  0  0  0  0  0  0  0  0  0  0  0
   -3.5011    1.7024    1.5588 H   0  0  0  0  0  0  0  0  0  0  0  0
   -2.4875    1.5192    0.1231 H   0  0  0  0  0  0  0  0  0  0  0  0
   -1.0400    1.8616    2.0692 H   0  0  0  0  0  0  0  0  0  0  0  0
   -1.8665    0.5944    2.9640 H   0  0  0  0  0  0  0  0  0  0  0  0
   -0.5348    1.2716   -1.0284 H   0  0  0  0  0  0  0  0  0  0  0  0
    1.9249    1.3709   -2.0734 H   0  0  0  0  0  0  0  0  0  0  0  0
    5.7179   -1.4225   -1.6192 H   0  0  0  0  0  0  0  0  0  0  0  0
    7.1195   -0.7436   -3.5510 H   0  0  0  0  0  0  0  0  0  0  0  0
    6.9725    1.5751   -4.4356 H   0  0  0  0  0  0  0  0  0  0  0  0
    5.4527    3.2255   -3.3652 H   0  0  0  0  0  0  0  0  0  0  0  0
    4.0679    2.5691   -1.4224 H   0  0  0  0  0  0  0  0  0  0  0  0
    5.5526   -1.8017    2.7408 H   0  0  0  0  0  0  0  0  0  0  0  0
    4.3715   -2.5487    4.7915 H   0  0  0  0  0  0  0  0  0  0  0  0
    1.9388   -2.1165    5.0447 H   0  0  0  0  0  0  0  0  0  0  0  0
    0.6963   -0.9585    3.2837 H   0  0  0  0  0  0  0  0  0  0  0  0
   -0.5366   -2.1416    0.7178 H   0  0  0  0  0  0  0  0  0  0  0  0
   -1.5907   -1.8799    2.1030 H   0  0  0  0  0  0  0  0  0  0  0  0
   -2.1140   -0.9021   -0.7608 H   0  0  0  0  0  0  0  0  0  0  0  0
   -2.9454   -2.2219    0.0851 H   0  0  0  0  0  0  0  0  0  0  0  0
  1  2  1  0
  2  3  1  0
  3  4  2  0
  4  5  1  0
  5  6  2  0
  6  7  1  0
  7  8  2  0
  8  9  1  0
  9 10  1  0
 10 11  1  0
 11 12  1  0
 12 13  1  0
 13 14  2  0
 14 15  1  0
 15 16  2  0
 16 17  1  0
 17 18  1  0
 18 19  2  0
 19 20  1  0
 20 21  2  0
 21 22  1  0
 22 23  2  0
 17 24  2  0
 24 25  1  0
 25 26  2  0
 26 27  1  0
 27 28  2  0
 28 29  1  0
 29 30  2  0
 30 31  1  0
 12 32  1  0
 32 33  1  0
  8  3  1  0
 33  9  1  0
 31 13  1  0
 31 16  1  0
 23 18  1  0
 30 25  1  0
  1 34  1  0
  1 35  1  0
  1 36  1  0
  4 37  1  0
  5 38  1  0
  6 39  1  0
  7 40  1  0
 10 41  1  0
 10 42  1  0
 11 43  1  0
 11 44  1  0
 14 45  1  0
 15 46  1  0
 19 47  1  0
 20 48  1  0
 21 49  1  0
 22 50  1  0
 23 51  1  0
 26 52  1  0
 27 53  1  0
 28 54  1  0
 29 55  1  0
 32 56  1  0
 32 57  1  0
 33 58  1  0
 33 59  1  0
M  END
$$$$
