
     RDKit          3D

 51 55  0  0  0  0  0  0  0  0999 V2000
   -1.9589    2.5607    0.4894 O   0  0  0  0  0  0  0  0  0  0  0  0
   -2.7422    1.6425    0.2202 C   0  0  0  0  0  0  0  0  0  0  0  0
   -4.0932    1.9157   -0.5045 C   0  0  0  0  0  0  0  0  0  0  0  0
   -4.1099    1.7852   -2.0541 C   0  0  0  0  0  0  0  0  0  0  0  0
   -5.0982    2.9651   -2.0818 C   0  0  0  0  0  0  0  0  0  0  0  0
   -4.5041    3.4014   -0.7305 C   0  0  0  0  0  0  0  0  0  0  0  0
   -2.4859    0.3107    0.5336 N   0  0  0  0  0  0  0  0  0  0  0  0
   -3.3730   -0.8239    0.2311 C   0  0  0  0  0  0  0  0  0  0  0  0
   -2.6517   -2.1075    0.6588 C   0  0  0  0  0  0  0  0  0  0  0  0
   -1.4245   -1.5703    1.3206 C   0  0  0  0  0  0  0  0  0  0  0  0
   -0.4272   -2.2999    1.9519 C   0  0  0  0  0  0  0  0  0  0  0  0
    0.6584   -1.5968    2.4844 C   0  0  0  0  0  0  0  0  0  0  0  0
    1.9617   -2.4953    3.3006 S   0  0  0  0  0  6  0  0  0  0  0  0
    2.6416   -1.5895    4.2007 O   0  0  0  0  0  0  0  0  0  0  0  0
    1.3954   -3.7408    3.7764 O   0  0  0  0  0  0  0  0  0  0  0  0
    2.9941   -2.9100    2.0266 N   0  0  0  0  0  0  0  0  0  0  0  0
    3.4828   -1.8821    1.1727 C   0  0  0  0  0  0  0  0  0  0  0  0
    4.3590   -0.9108    1.6598 C   0  0  0  0  0  0  0  0  0  0  0  0
    4.7920    0.1213    0.8250 C   0  0  0  0  0  0  0  0  0  0  0  0
    4.3453    0.1803   -0.4930 C   0  0  0  0  0  0  0  0  0  0  0  0
    3.4472   -0.7798   -0.9709 C   0  0  0  0  0  0  0  0  0  0  0  0
    3.0291   -1.8223   -0.1456 C   0  0  0  0  0  0  0  0  0  0  0  0
    2.9342   -0.7598   -2.2433 O   0  0  0  0  0  0  0  0  0  0  0  0
    3.1266    0.5204   -2.8580 C   0  0  0  0  0  0  0  0  0  0  0  0
    4.5524    1.0038   -2.6496 C   0  0  0  0  0  0  0  0  0  0  0  0
    4.8191    1.2140   -1.2583 O   0  0  0  0  0  0  0  0  0  0  0  0
    0.7229   -0.1950    2.4082 C   0  0  0  0  0  0  0  0  0  0  0  0
   -0.2895    0.5207    1.7600 C   0  0  0  0  0  0  0  0  0  0  0  0
   -1.3572   -0.1780    1.2183 C   0  0  0  0  0  0  0  0  0  0  0  0
   -4.9254    1.3704   -0.0360 H   0  0  0  0  0  0  0  0  0  0  0  0
   -4.4995    0.8436   -2.4493 H   0  0  0  0  0  0  0  0  0  0  0  0
   -3.1478    2.0007   -2.5336 H   0  0  0  0  0  0  0  0  0  0  0  0
   -4.9749    3.6706   -2.9070 H   0  0  0  0  0  0  0  0  0  0  0  0
   -6.1496    2.6612   -2.0238 H   0  0  0  0  0  0  0  0  0  0  0  0
   -3.6663    4.1014   -0.8286 H   0  0  0  0  0  0  0  0  0  0  0  0
   -5.2214    3.8079   -0.0124 H   0  0  0  0  0  0  0  0  0  0  0  0
   -3.6118   -0.8354   -0.8371 H   0  0  0  0  0  0  0  0  0  0  0  0
   -4.3065   -0.6944    0.7907 H   0  0  0  0  0  0  0  0  0  0  0  0
   -3.2633   -2.6964    1.3487 H   0  0  0  0  0  0  0  0  0  0  0  0
   -2.3870   -2.7166   -0.2113 H   0  0  0  0  0  0  0  0  0  0  0  0
   -0.4919   -3.3814    2.0276 H   0  0  0  0  0  0  0  0  0  0  0  0
    2.7293   -3.7958    1.5994 H   0  0  0  0  0  0  0  0  0  0  0  0
    4.7150   -0.9515    2.6868 H   0  0  0  0  0  0  0  0  0  0  0  0
    5.4795    0.8738    1.2018 H   0  0  0  0  0  0  0  0  0  0  0  0
    2.3317   -2.5582   -0.5327 H   0  0  0  0  0  0  0  0  0  0  0  0
    2.3970    1.2235   -2.4369 H   0  0  0  0  0  0  0  0  0  0  0  0
    2.9166    0.4097   -3.9264 H   0  0  0  0  0  0  0  0  0  0  0  0
    4.7081    1.9569   -3.1647 H   0  0  0  0  0  0  0  0  0  0  0  0
    5.2813    0.2818   -3.0380 H   0  0  0  0  0  0  0  0  0  0  0  0
    1.5620    0.3458    2.8421 H   0  0  0  0  0  0  0  0  0  0  0  0
   -0.2213    1.6020    1.7016 H   0  0  0  0  0  0  0  0  0  0  0  0
  1  2  2  0
  2  3  1  0
  3  4  1  0
  4  5  1  0
  5  6  1  0
  2  7  1  0
  7  8  1  0
  8  9  1  0
  9 10  1  0
 10 11  2  0
 11 12  1  0
 12 13  1  0
 13 14  2  0
 13 15  2  0
 13 16  1  0
 16 17  1  0
 17 18  2  0
 18 19  1  0
 19 20  2  0
 20 21  1  0
 21 22  2  0
 21 23  1  0
 23 24  1  0
 24 25  1  0
 25 26  1  0
 12 27  2  0
 27 28  1  0
 28 29  2  0
  6  3  1  0
 29  7  1  0
 29 10  1  0
 22 17  1  0
 26 20  1  0
  3 30  1  0
  4 31  1  0
  4 32  1  0
  5 33  1  0
  5 34  1  0
  6 35  1  0
  6 36  1  0
  8 37  1  0
  8 38  1  0
  9 39  1  0
  9 40  1  0
 11 41  1  0
 16 42  1  0
 18 43  1  0
 19 44  1  0
 22 45  1  0
 24 46  1  0
 24 47  1  0
 25 48  1  0
 25 49  1  0
 27 50  1  0
 28 51  1  0
M  END
$$$$
