
     RDKit          3D

 31 32  0  0  0  0  0  0  0  0999 V2000
    3.9760   -1.2354    2.5391 C   0  0  0  0  0  0  0  0  0  0  0  0
    2.6359   -0.0929    2.1105 S   0  0  0  0  0  0  0  0  0  0  0  0
    2.1175   -0.7911    0.5512 C   0  0  0  0  0  0  0  0  0  0  0  0
    3.0139   -0.9726   -0.5076 C   0  0  0  0  0  0  0  0  0  0  0  0
    2.5751   -1.5059   -1.7220 C   0  0  0  0  0  0  0  0  0  0  0  0
    1.2360   -1.8576   -1.8868 C   0  0  0  0  0  0  0  0  0  0  0  0
    0.3392   -1.6714   -0.8358 C   0  0  0  0  0  0  0  0  0  0  0  0
   -1.0446   -1.9967   -0.9903 N   0  0  0  0  0  0  0  0  0  0  0  0
   -1.9990   -0.8336   -1.7926 S   0  0  0  0  0  6  0  0  0  0  0  0
   -1.3966   -0.5347   -3.0750 O   0  0  0  0  0  0  0  0  0  0  0  0
   -3.3648   -1.3161   -1.7160 O   0  0  0  0  0  0  0  0  0  0  0  0
   -2.0043    0.6702   -0.9067 C   0  0  0  0  0  0  0  0  0  0  0  0
   -3.1043    1.2724   -0.3238 C   0  0  0  0  0  0  0  0  0  0  0  0
   -2.6196    2.4068    0.2590 N   0  0  0  0  0  0  0  0  0  0  0  0
   -3.3782    3.3857    0.9951 C   0  0  0  0  0  0  0  0  0  0  0  0
   -1.2753    2.4614    0.0269 C   0  0  0  0  0  0  0  0  0  0  0  0
   -0.8669    1.4291   -0.6753 N   0  0  0  0  0  0  0  0  0  0  0  0
    0.7729   -1.1308    0.3750 C   0  0  0  0  0  0  0  0  0  0  0  0
    4.3274   -1.0084    3.5493 H   0  0  0  0  0  0  0  0  0  0  0  0
    3.6205   -2.2694    2.5202 H   0  0  0  0  0  0  0  0  0  0  0  0
    4.8183   -1.1261    1.8513 H   0  0  0  0  0  0  0  0  0  0  0  0
    4.0558   -0.6796   -0.4084 H   0  0  0  0  0  0  0  0  0  0  0  0
    3.2737   -1.6290   -2.5457 H   0  0  0  0  0  0  0  0  0  0  0  0
    0.9002   -2.2483   -2.8436 H   0  0  0  0  0  0  0  0  0  0  0  0
   -1.1892   -2.8805   -1.4777 H   0  0  0  0  0  0  0  0  0  0  0  0
   -4.1457    0.9819   -0.2883 H   0  0  0  0  0  0  0  0  0  0  0  0
   -3.0419    3.3711    2.0348 H   0  0  0  0  0  0  0  0  0  0  0  0
   -4.4416    3.1391    0.9426 H   0  0  0  0  0  0  0  0  0  0  0  0
   -3.2033    4.3682    0.5494 H   0  0  0  0  0  0  0  0  0  0  0  0
   -0.6459    3.2654    0.3876 H   0  0  0  0  0  0  0  0  0  0  0  0
    0.0588   -0.9710    1.1784 H   0  0  0  0  0  0  0  0  0  0  0  0
  1  2  1  0
  2  3  1  0
  3  4  2  0
  4  5  1  0
  5  6  2  0
  6  7  1  0
  7  8  1  0
  8  9  1  0
  9 10  2  0
  9 11  2  0
  9 12  1  0
 12 13  2  0
 13 14  1  0
 14 15  1  0
 14 16  1  0
 16 17  2  0
  7 18  2  0
 18  3  1  0
 17 12  1  0
  1 19  1  0
  1 20  1  0
  1 21  1  0
  4 22  1  0
  5 23  1  0
  6 24  1  0
  8 25  1  0
 13 26  1  0
 15 27  1  0
 15 28  1  0
 15 29  1  0
 16 30  1  0
 18 31  1  0
M  END
$$$$
