
     RDKit          3D

 68 71  0  0  0  0  0  0  0  0999 V2000
    6.0540   -4.5949    5.4013 C   0  0  0  0  0  0  0  0  0  0  0  0
    5.5760   -3.2454    5.0592 C   0  0  0  0  0  0  0  0  0  0  0  0
    4.8723   -2.7132    4.0078 C   0  0  0  0  0  0  0  0  0  0  0  0
    4.7503   -1.3409    4.3200 C   0  0  0  0  0  0  0  0  0  0  0  0
    4.1371   -0.3325    3.6107 N   0  0  0  0  0  0  0  0  0  0  0  0
    3.4584   -0.4927    2.4237 C   0  0  0  0  0  0  0  0  0  0  0  0
    3.2955   -1.5520    1.8265 O   0  0  0  0  0  0  0  0  0  0  0  0
    2.9390    0.8267    1.8908 C   0  0  0  0  0  0  0  0  0  0  0  0
    2.0003    0.6269    0.7042 C   0  0  0  0  0  0  0  0  0  0  0  0
    1.5714    1.9557    0.1052 C   0  0  0  0  0  0  0  0  0  0  0  0
    2.1403    2.9942    0.4510 O   0  0  0  0  0  0  0  0  0  0  0  0
    0.5830    1.9398   -0.8769 N   0  0  0  0  0  0  0  0  0  0  0  0
    0.1367    3.2441   -1.3817 C   0  0  0  0  0  0  0  0  0  0  0  0
   -1.1520    3.6792   -0.7805 C   0  0  0  0  0  0  0  0  0  0  0  0
   -2.3507    4.0997   -1.3212 C   0  0  0  0  0  0  0  0  0  0  0  0
   -3.2004    4.4012   -0.2300 C   0  0  0  0  0  0  0  0  0  0  0  0
   -2.4608    4.1682    0.9048 C   0  0  0  0  0  0  0  0  0  0  0  0
   -1.2124    3.7488    0.5799 O   0  0  0  0  0  0  0  0  0  0  0  0
   -0.1118    0.6997   -1.3091 C   0  0  0  0  0  0  0  0  0  0  0  0
   -1.2385    0.2269   -0.3293 C   0  0  0  0  0  0  0  0  0  0  0  0
   -1.4485    0.7418    0.7671 O   0  0  0  0  0  0  0  0  0  0  0  0
   -1.9179   -0.9152   -0.7337 N   0  0  0  0  0  0  0  0  0  0  0  0
   -3.0248   -1.4398    0.0352 C   0  0  0  0  0  0  0  0  0  0  0  0
   -3.4445   -2.8310   -0.4226 C   0  0  0  0  0  0  0  0  0  0  0  0
   -4.8307   -2.9963    0.1829 C   0  0  0  0  0  0  0  0  0  0  0  0
   -5.4384   -1.5947    0.2077 C   0  0  0  0  0  0  0  0  0  0  0  0
   -4.3071   -0.6270   -0.1340 C   0  0  0  0  0  0  0  0  0  0  0  0
   -0.5275    0.7194   -2.7897 C   0  0  0  0  0  0  0  0  0  0  0  0
   -1.8393    1.0858   -3.1570 C   0  0  0  0  0  0  0  0  0  0  0  0
   -2.2372    1.1145   -4.4931 C   0  0  0  0  0  0  0  0  0  0  0  0
   -1.3299    0.7859   -5.4918 C   0  0  0  0  0  0  0  0  0  0  0  0
   -0.0231    0.4364   -5.1561 C   0  0  0  0  0  0  0  0  0  0  0  0
    0.3973    0.4068   -3.8153 C   0  0  0  0  0  0  0  0  0  0  0  0
    1.8260    0.0308   -3.5198 C   0  0  0  0  0  0  0  0  0  0  0  0
    5.3479   -1.0611    5.4841 N   0  0  0  0  0  0  0  0  0  0  0  0
    5.8629   -2.2579    5.9472 O   0  0  0  0  0  0  0  0  0  0  0  0
    5.6048   -4.9337    6.3396 H   0  0  0  0  0  0  0  0  0  0  0  0
    7.1425   -4.5997    5.5164 H   0  0  0  0  0  0  0  0  0  0  0  0
    5.7910   -5.3144    4.6192 H   0  0  0  0  0  0  0  0  0  0  0  0
    4.5028   -3.2426    3.1421 H   0  0  0  0  0  0  0  0  0  0  0  0
    4.2006    0.5775    4.0479 H   0  0  0  0  0  0  0  0  0  0  0  0
    2.4142    1.3581    2.6939 H   0  0  0  0  0  0  0  0  0  0  0  0
    3.8075    1.4289    1.5972 H   0  0  0  0  0  0  0  0  0  0  0  0
    1.1271    0.0624    1.0412 H   0  0  0  0  0  0  0  0  0  0  0  0
    2.5104    0.0535   -0.0780 H   0  0  0  0  0  0  0  0  0  0  0  0
    0.0694    3.2062   -2.4732 H   0  0  0  0  0  0  0  0  0  0  0  0
    0.8860    4.0154   -1.1691 H   0  0  0  0  0  0  0  0  0  0  0  0
   -2.5806    4.1769   -2.3744 H   0  0  0  0  0  0  0  0  0  0  0  0
   -4.2217    4.7515   -0.2625 H   0  0  0  0  0  0  0  0  0  0  0  0
   -2.6620    4.2492    1.9635 H   0  0  0  0  0  0  0  0  0  0  0  0
    0.6115   -0.1186   -1.2169 H   0  0  0  0  0  0  0  0  0  0  0  0
   -1.8201   -1.2166   -1.6963 H   0  0  0  0  0  0  0  0  0  0  0  0
   -2.7396   -1.4631    1.0947 H   0  0  0  0  0  0  0  0  0  0  0  0
   -2.7498   -3.6078   -0.0882 H   0  0  0  0  0  0  0  0  0  0  0  0
   -3.5038   -2.8854   -1.5172 H   0  0  0  0  0  0  0  0  0  0  0  0
   -5.4441   -3.7029   -0.3847 H   0  0  0  0  0  0  0  0  0  0  0  0
   -4.7473   -3.3791    1.2068 H   0  0  0  0  0  0  0  0  0  0  0  0
   -6.2548   -1.5016   -0.5166 H   0  0  0  0  0  0  0  0  0  0  0  0
   -5.8545   -1.3802    1.1981 H   0  0  0  0  0  0  0  0  0  0  0  0
   -4.3207    0.2596    0.5071 H   0  0  0  0  0  0  0  0  0  0  0  0
   -4.4184   -0.2814   -1.1687 H   0  0  0  0  0  0  0  0  0  0  0  0
   -2.5735    1.3556   -2.3988 H   0  0  0  0  0  0  0  0  0  0  0  0
   -3.2549    1.3958   -4.7523 H   0  0  0  0  0  0  0  0  0  0  0  0
   -1.6351    0.8070   -6.5350 H   0  0  0  0  0  0  0  0  0  0  0  0
    0.6735    0.1911   -5.9558 H   0  0  0  0  0  0  0  0  0  0  0  0
    2.3138    0.8095   -2.9252 H   0  0  0  0  0  0  0  0  0  0  0  0
    2.4102   -0.0858   -4.4393 H   0  0  0  0  0  0  0  0  0  0  0  0
    1.8632   -0.9232   -2.9833 H   0  0  0  0  0  0  0  0  0  0  0  0
  1  2  1  0
  2  3  2  0
  3  4  1  0
  4  5  1  0
  5  6  1  0
  6  7  2  0
  6  8  1  0
  8  9  1  0
  9 10  1  0
 10 11  2  0
 10 12  1  0
 12 13  1  0
 13 14  1  0
 14 15  2  0
 15 16  1  0
 16 17  2  0
 17 18  1  0
 12 19  1  0
 19 20  1  0
 20 21  2  0
 20 22  1  0
 22 23  1  0
 23 24  1  0
 24 25  1  0
 25 26  1  0
 26 27  1  0
 19 28  1  0
 28 29  2  0
 29 30  1  0
 30 31  2  0
 31 32  1  0
 32 33  2  0
 33 34  1  0
  4 35  2  0
 35 36  1  0
 36  2  1  0
 18 14  1  0
 27 23  1  0
 33 28  1  0
  1 37  1  0
  1 38  1  0
  1 39  1  0
  3 40  1  0
  5 41  1  0
  8 42  1  0
  8 43  1  0
  9 44  1  0
  9 45  1  0
 13 46  1  0
 13 47  1  0
 15 48  1  0
 16 49  1  0
 17 50  1  0
 19 51  1  0
 22 52  1  0
 23 53  1  0
 24 54  1  0
 24 55  1  0
 25 56  1  0
 25 57  1  0
 26 58  1  0
 26 59  1  0
 27 60  1  0
 27 61  1  0
 29 62  1  0
 30 63  1  0
 31 64  1  0
 32 65  1  0
 34 66  1  0
 34 67  1  0
 34 68  1  0
M  END
$$$$
