
     RDKit          3D

 32 33  0  0  0  0  0  0  0  0999 V2000
   -4.5445    0.2675   -1.4728 C   0  0  0  0  0  0  0  0  0  0  0  0
   -3.5521    0.4250   -0.3310 C   0  0  0  0  0  0  0  0  0  0  0  0
   -3.0934   -0.9342    0.2009 C   0  0  0  0  0  0  0  0  0  0  0  0
   -2.1662   -0.8226    1.4165 C   0  0  0  0  0  0  0  0  0  0  0  0
   -0.8795   -0.2019    1.1011 N   0  0  0  0  0  0  0  0  0  0  0  0
   -0.6425    1.1080    1.3773 C   0  0  0  0  0  0  0  0  0  0  0  0
   -1.3745    1.9335    1.8835 O   0  0  0  0  0  0  0  0  0  0  0  0
    0.7857    1.3812    0.9201 C   0  0  0  0  0  0  0  0  0  0  0  0
    1.2992    2.4794    1.0135 O   0  0  0  0  0  0  0  0  0  0  0  0
    1.2440    0.1947    0.4029 N   0  0  0  0  0  0  0  0  0  0  0  0
    2.5433    0.0746   -0.1791 C   0  0  0  0  0  0  0  0  0  0  0  0
    3.6125    0.8505    0.3012 C   0  0  0  0  0  0  0  0  0  0  0  0
    4.8917    0.7567   -0.2583 C   0  0  0  0  0  0  0  0  0  0  0  0
    5.1264   -0.1080   -1.3205 C   0  0  0  0  0  0  0  0  0  0  0  0
    4.0801   -0.8699   -1.8273 C   0  0  0  0  0  0  0  0  0  0  0  0
    2.8011   -0.7743   -1.2652 C   0  0  0  0  0  0  0  0  0  0  0  0
    0.2540   -0.7863    0.5502 C   0  0  0  0  0  0  0  0  0  0  0  0
    0.3708   -2.4319    0.2351 S   0  0  0  0  0  0  0  0  0  0  0  0
   -4.0976   -0.2816   -2.3078 H   0  0  0  0  0  0  0  0  0  0  0  0
   -4.8576    1.2496   -1.8407 H   0  0  0  0  0  0  0  0  0  0  0  0
   -5.4381   -0.2728   -1.1446 H   0  0  0  0  0  0  0  0  0  0  0  0
   -2.6924    1.0009   -0.6906 H   0  0  0  0  0  0  0  0  0  0  0  0
   -4.0201    1.0026    0.4743 H   0  0  0  0  0  0  0  0  0  0  0  0
   -2.5999   -1.4903   -0.6043 H   0  0  0  0  0  0  0  0  0  0  0  0
   -3.9744   -1.5176    0.4961 H   0  0  0  0  0  0  0  0  0  0  0  0
   -1.9854   -1.8222    1.8251 H   0  0  0  0  0  0  0  0  0  0  0  0
   -2.6612   -0.2411    2.2032 H   0  0  0  0  0  0  0  0  0  0  0  0
    3.4859    1.5304    1.1413 H   0  0  0  0  0  0  0  0  0  0  0  0
    5.7019    1.3625    0.1405 H   0  0  0  0  0  0  0  0  0  0  0  0
    6.1187   -0.1805   -1.7579 H   0  0  0  0  0  0  0  0  0  0  0  0
    4.2515   -1.5339   -2.6712 H   0  0  0  0  0  0  0  0  0  0  0  0
    2.0125   -1.3480   -1.7421 H   0  0  0  0  0  0  0  0  0  0  0  0
  1  2  1  0
  2  3  1  0
  3  4  1  0
  4  5  1  0
  5  6  1  0
  6  7  2  0
  6  8  1  0
  8  9  2  0
  8 10  1  0
 10 11  1  0
 11 12  2  0
 12 13  1  0
 13 14  2  0
 14 15  1  0
 15 16  2  0
 10 17  1  0
 17 18  2  0
 17  5  1  0
 16 11  1  0
  1 19  1  0
  1 20  1  0
  1 21  1  0
  2 22  1  0
  2 23  1  0
  3 24  1  0
  3 25  1  0
  4 26  1  0
  4 27  1  0
 12 28  1  0
 13 29  1  0
 14 30  1  0
 15 31  1  0
 16 32  1  0
M  END
$$$$
