
     RDKit          3D

 63 67  0  0  0  0  0  0  0  0999 V2000
    3.6253    5.6374   -2.9915 C   0  0  0  0  0  0  0  0  0  0  0  0
    3.7461    4.4780   -3.7989 O   0  0  0  0  0  0  0  0  0  0  0  0
    3.7083    3.2700   -3.1601 C   0  0  0  0  0  0  0  0  0  0  0  0
    3.7726    2.1581   -4.0046 C   0  0  0  0  0  0  0  0  0  0  0  0
    3.7296    0.8630   -3.4806 C   0  0  0  0  0  0  0  0  0  0  0  0
    3.6313    0.6590   -2.0987 C   0  0  0  0  0  0  0  0  0  0  0  0
    3.5519   -0.6982   -1.5409 C   0  0  0  0  0  0  0  0  0  0  0  0
    4.8619   -1.7696   -1.8146 S   0  0  0  0  0  0  0  0  0  0  0  0
    4.1258   -3.0437   -0.9301 C   0  0  0  0  0  0  0  0  0  0  0  0
    4.6528   -4.3302   -0.7018 C   0  0  0  0  0  0  0  0  0  0  0  0
    3.9092   -5.2548    0.0429 C   0  0  0  0  0  0  0  0  0  0  0  0
    2.6616   -4.9156    0.5463 C   0  0  0  0  0  0  0  0  0  0  0  0
    1.8405   -5.7273    1.2813 O   0  0  0  0  0  0  0  0  0  0  0  0
    2.3286   -7.0288    1.5909 C   0  0  0  0  0  0  0  0  0  0  0  0
    2.1482   -3.6354    0.3087 C   0  0  0  0  0  0  0  0  0  0  0  0
    2.8802   -2.6659   -0.4279 C   0  0  0  0  0  0  0  0  0  0  0  0
    2.5606   -1.2950   -0.7726 C   0  0  0  0  0  0  0  0  0  0  0  0
    1.3451   -0.5841   -0.3808 C   0  0  0  0  0  0  0  0  0  0  0  0
    1.0862   -0.3379    0.9702 C   0  0  0  0  0  0  0  0  0  0  0  0
   -0.0830    0.3247    1.3499 C   0  0  0  0  0  0  0  0  0  0  0  0
   -1.0052    0.7487    0.3922 C   0  0  0  0  0  0  0  0  0  0  0  0
   -2.1052    1.3767    0.9038 O   0  0  0  0  0  0  0  0  0  0  0  0
   -3.1322    1.7554   -0.0168 C   0  0  0  0  0  0  0  0  0  0  0  0
   -4.3384    2.3271    0.7576 C   0  0  0  0  0  0  0  0  0  0  0  0
   -5.3139    1.2983    1.1765 N   0  0  0  0  0  0  0  0  0  0  0  0
   -6.6102    1.9072    1.5340 C   0  0  0  0  0  0  0  0  0  0  0  0
   -7.5227    0.8985    2.2440 C   0  0  0  0  0  0  0  0  0  0  0  0
   -6.9904    0.4060    3.4835 O   0  0  0  0  0  0  0  0  0  0  0  0
   -5.5751    0.5984    3.5973 C   0  0  0  0  0  0  0  0  0  0  0  0
   -4.8261    0.4204    2.2643 C   0  0  0  0  0  0  0  0  0  0  0  0
   -0.7446    0.5130   -0.9561 C   0  0  0  0  0  0  0  0  0  0  0  0
    0.4231   -0.1568   -1.3410 C   0  0  0  0  0  0  0  0  0  0  0  0
    3.5804    1.7777   -1.2556 C   0  0  0  0  0  0  0  0  0  0  0  0
    3.6161    3.0752   -1.7810 C   0  0  0  0  0  0  0  0  0  0  0  0
    3.6590    6.5109   -3.6522 H   0  0  0  0  0  0  0  0  0  0  0  0
    4.4585    5.7170   -2.2908 H   0  0  0  0  0  0  0  0  0  0  0  0
    2.6659    5.6541   -2.4684 H   0  0  0  0  0  0  0  0  0  0  0  0
    3.8513    2.3006   -5.0801 H   0  0  0  0  0  0  0  0  0  0  0  0
    3.7669    0.0167   -4.1609 H   0  0  0  0  0  0  0  0  0  0  0  0
    5.6271   -4.6054   -1.0973 H   0  0  0  0  0  0  0  0  0  0  0  0
    4.3428   -6.2360    0.2045 H   0  0  0  0  0  0  0  0  0  0  0  0
    1.5637   -7.5358    2.1873 H   0  0  0  0  0  0  0  0  0  0  0  0
    2.4863   -7.6205    0.6810 H   0  0  0  0  0  0  0  0  0  0  0  0
    3.2426   -6.9776    2.1939 H   0  0  0  0  0  0  0  0  0  0  0  0
    1.1654   -3.3815    0.7003 H   0  0  0  0  0  0  0  0  0  0  0  0
    1.7877   -0.6597    1.7353 H   0  0  0  0  0  0  0  0  0  0  0  0
   -0.2770    0.5088    2.4032 H   0  0  0  0  0  0  0  0  0  0  0  0
   -2.7423    2.5448   -0.6726 H   0  0  0  0  0  0  0  0  0  0  0  0
   -3.4533    0.9021   -0.6298 H   0  0  0  0  0  0  0  0  0  0  0  0
   -4.8489    3.0142    0.0659 H   0  0  0  0  0  0  0  0  0  0  0  0
   -4.0023    2.9167    1.6239 H   0  0  0  0  0  0  0  0  0  0  0  0
   -6.4569    2.7723    2.1906 H   0  0  0  0  0  0  0  0  0  0  0  0
   -7.1072    2.2615    0.6236 H   0  0  0  0  0  0  0  0  0  0  0  0
   -7.7188    0.0345    1.5964 H   0  0  0  0  0  0  0  0  0  0  0  0
   -8.4893    1.3644    2.4667 H   0  0  0  0  0  0  0  0  0  0  0  0
   -5.2050   -0.1270    4.3290 H   0  0  0  0  0  0  0  0  0  0  0  0
   -5.3939    1.5987    4.0134 H   0  0  0  0  0  0  0  0  0  0  0  0
   -4.9708   -0.6170    1.9214 H   0  0  0  0  0  0  0  0  0  0  0  0
   -3.7514    0.5425    2.4578 H   0  0  0  0  0  0  0  0  0  0  0  0
   -1.4263    0.8334   -1.7357 H   0  0  0  0  0  0  0  0  0  0  0  0
    0.6049   -0.3408   -2.3970 H   0  0  0  0  0  0  0  0  0  0  0  0
    3.5130    1.6487   -0.1766 H   0  0  0  0  0  0  0  0  0  0  0  0
    3.5699    3.9096   -1.0839 H   0  0  0  0  0  0  0  0  0  0  0  0
  1  2  1  0
  2  3  1  0
  3  4  2  0
  4  5  1  0
  5  6  2  0
  6  7  1  0
  7  8  1  0
  8  9  1  0
  9 10  2  0
 10 11  1  0
 11 12  2  0
 12 13  1  0
 13 14  1  0
 12 15  1  0
 15 16  2  0
 16 17  1  0
 17 18  1  0
 18 19  2  0
 19 20  1  0
 20 21  2  0
 21 22  1  0
 22 23  1  0
 23 24  1  0
 24 25  1  0
 25 26  1  0
 26 27  1  0
 27 28  1  0
 28 29  1  0
 29 30  1  0
 21 31  1  0
 31 32  2  0
  6 33  1  0
 33 34  2  0
 34  3  1  0
 17  7  2  0
 32 18  1  0
 16  9  1  0
 30 25  1  0
  1 35  1  0
  1 36  1  0
  1 37  1  0
  4 38  1  0
  5 39  1  0
 10 40  1  0
 11 41  1  0
 14 42  1  0
 14 43  1  0
 14 44  1  0
 15 45  1  0
 19 46  1  0
 20 47  1  0
 23 48  1  0
 23 49  1  0
 24 50  1  0
 24 51  1  0
 26 52  1  0
 26 53  1  0
 27 54  1  0
 27 55  1  0
 29 56  1  0
 29 57  1  0
 30 58  1  0
 30 59  1  0
 31 60  1  0
 32 61  1  0
 33 62  1  0
 34 63  1  0
M  END
$$$$
