
     RDKit          3D

 50 53  0  0  0  0  0  0  0  0999 V2000
    8.5153    1.7814    0.2847 C   0  0  0  0  0  0  0  0  0  0  0  0
    7.2636    2.3924    0.5714 O   0  0  0  0  0  0  0  0  0  0  0  0
    6.1450    1.6389    0.3496 C   0  0  0  0  0  0  0  0  0  0  0  0
    4.9407    2.2796    0.6373 C   0  0  0  0  0  0  0  0  0  0  0  0
    3.7165    1.6235    0.4554 C   0  0  0  0  0  0  0  0  0  0  0  0
    3.6604    0.3040   -0.0248 C   0  0  0  0  0  0  0  0  0  0  0  0
    2.3825   -0.4130   -0.2290 C   0  0  0  0  0  0  0  0  0  0  0  0
    1.1921    0.2259   -0.5273 C   0  0  0  0  0  0  0  0  0  0  0  0
    0.0411   -0.5475   -0.6855 C   0  0  0  0  0  0  0  0  0  0  0  0
   -1.2147    0.1949   -0.9393 C   0  0  0  0  0  0  0  0  0  0  0  0
   -1.2592    0.9318   -1.9146 O   0  0  0  0  0  0  0  0  0  0  0  0
   -2.1850   -0.0033    0.0237 N   0  0  0  0  0  0  0  0  0  0  0  0
   -3.4853    0.5425    0.0541 C   0  0  0  0  0  0  0  0  0  0  0  0
   -4.0099    1.3542   -0.9462 C   0  0  0  0  0  0  0  0  0  0  0  0
   -5.3250    1.8185   -0.8567 C   0  0  0  0  0  0  0  0  0  0  0  0
   -6.1341    1.4938    0.2428 C   0  0  0  0  0  0  0  0  0  0  0  0
   -7.5553    1.9838    0.2732 C   0  0  0  0  0  0  0  0  0  0  0  0
   -5.5917    0.7330    1.2911 C   0  0  0  0  0  0  0  0  0  0  0  0
   -6.3847    0.2893    2.3625 N   0  0  0  0  0  0  0  0  0  0  0  0
   -4.2908    0.2231    1.1561 C   0  0  0  0  0  0  0  0  0  0  0  0
    0.0837   -1.9548   -0.5979 C   0  0  0  0  0  0  0  0  0  0  0  0
   -1.0183   -2.8225   -0.8155 C   0  0  0  0  0  0  0  0  0  0  0  0
   -0.8795   -4.2037   -0.6965 C   0  0  0  0  0  0  0  0  0  0  0  0
    0.3575   -4.7385   -0.3686 C   0  0  0  0  0  0  0  0  0  0  0  0
    1.4485   -3.8884   -0.1737 C   0  0  0  0  0  0  0  0  0  0  0  0
    1.3378   -2.5091   -0.2898 C   0  0  0  0  0  0  0  0  0  0  0  0
    2.4404   -1.7635   -0.1042 N   0  0  0  0  0  0  0  0  0  0  0  0
    4.8887   -0.3254   -0.3009 C   0  0  0  0  0  0  0  0  0  0  0  0
    6.1154    0.3294   -0.1199 C   0  0  0  0  0  0  0  0  0  0  0  0
    8.5943    1.5213   -0.7761 H   0  0  0  0  0  0  0  0  0  0  0  0
    9.3014    2.5092    0.5081 H   0  0  0  0  0  0  0  0  0  0  0  0
    8.6820    0.9057    0.9207 H   0  0  0  0  0  0  0  0  0  0  0  0
    4.9521    3.3007    1.0115 H   0  0  0  0  0  0  0  0  0  0  0  0
    2.8094    2.1644    0.7135 H   0  0  0  0  0  0  0  0  0  0  0  0
    1.1386    1.3033   -0.6476 H   0  0  0  0  0  0  0  0  0  0  0  0
   -1.9365   -0.5945    0.8082 H   0  0  0  0  0  0  0  0  0  0  0  0
   -3.4323    1.6293   -1.8230 H   0  0  0  0  0  0  0  0  0  0  0  0
   -5.7174    2.4286   -1.6678 H   0  0  0  0  0  0  0  0  0  0  0  0
   -7.6965    2.6828    1.1038 H   0  0  0  0  0  0  0  0  0  0  0  0
   -7.8212    2.5079   -0.6510 H   0  0  0  0  0  0  0  0  0  0  0  0
   -8.2472    1.1423    0.3815 H   0  0  0  0  0  0  0  0  0  0  0  0
   -5.8538    0.0405    3.1909 H   0  0  0  0  0  0  0  0  0  0  0  0
   -7.1587    0.9073    2.5832 H   0  0  0  0  0  0  0  0  0  0  0  0
   -3.9066   -0.4330    1.9323 H   0  0  0  0  0  0  0  0  0  0  0  0
   -1.9929   -2.4295   -1.1009 H   0  0  0  0  0  0  0  0  0  0  0  0
   -1.7316   -4.8568   -0.8686 H   0  0  0  0  0  0  0  0  0  0  0  0
    0.4838   -5.8141   -0.2750 H   0  0  0  0  0  0  0  0  0  0  0  0
    2.4186   -4.3168    0.0705 H   0  0  0  0  0  0  0  0  0  0  0  0
    4.8972   -1.3507   -0.6699 H   0  0  0  0  0  0  0  0  0  0  0  0
    7.0217   -0.2177   -0.3557 H   0  0  0  0  0  0  0  0  0  0  0  0
  1  2  1  0
  2  3  1  0
  3  4  2  0
  4  5  1  0
  5  6  2  0
  6  7  1  0
  7  8  2  0
  8  9  1  0
  9 10  1  0
 10 11  2  0
 10 12  1  0
 12 13  1  0
 13 14  2  0
 14 15  1  0
 15 16  2  0
 16 17  1  0
 16 18  1  0
 18 19  1  0
 18 20  2  0
  9 21  2  0
 21 22  1  0
 22 23  2  0
 23 24  1  0
 24 25  2  0
 25 26  1  0
 26 27  2  0
  6 28  1  0
 28 29  2  0
 29  3  1  0
 27  7  1  0
 20 13  1  0
 26 21  1  0
  1 30  1  0
  1 31  1  0
  1 32  1  0
  4 33  1  0
  5 34  1  0
  8 35  1  0
 12 36  1  0
 14 37  1  0
 15 38  1  0
 17 39  1  0
 17 40  1  0
 17 41  1  0
 19 42  1  0
 19 43  1  0
 20 44  1  0
 22 45  1  0
 23 46  1  0
 24 47  1  0
 25 48  1  0
 28 49  1  0
 29 50  1  0
M  END
$$$$
