
     RDKit          3D

 43 46  0  0  0  0  0  0  0  0999 V2000
   -7.7826    0.3788    0.9598 C   0  0  0  0  0  0  0  0  0  0  0  0
   -6.7024    1.2412    0.6264 O   0  0  0  0  0  0  0  0  0  0  0  0
   -5.5425    0.6480    0.2113 C   0  0  0  0  0  0  0  0  0  0  0  0
   -4.5102    1.5366   -0.0970 C   0  0  0  0  0  0  0  0  0  0  0  0
   -3.2695    1.0643   -0.5341 C   0  0  0  0  0  0  0  0  0  0  0  0
   -3.0480   -0.3088   -0.6803 C   0  0  0  0  0  0  0  0  0  0  0  0
   -1.7468   -0.7798   -1.1313 C   0  0  0  0  0  0  0  0  0  0  0  0
   -0.5895   -0.2709   -0.5605 N   0  0  0  0  0  0  0  0  0  0  0  0
    0.4616   -0.8374   -1.1015 C   0  0  0  0  0  0  0  0  0  0  0  0
    1.7229   -0.5142   -0.6909 N   0  0  0  0  0  0  0  0  0  0  0  0
    2.9216   -1.0138   -1.1498 C   0  0  0  0  0  0  0  0  0  0  0  0
    3.0779   -1.8543   -2.0279 O   0  0  0  0  0  0  0  0  0  0  0  0
    4.0660   -0.3982   -0.4343 C   0  0  0  0  0  0  0  0  0  0  0  0
    5.3794   -0.7103   -0.6870 N   0  0  0  0  0  0  0  0  0  0  0  0
    6.0594    0.0419    0.1461 C   0  0  0  0  0  0  0  0  0  0  0  0
    7.4109    0.1322    0.3202 N   0  0  0  0  0  0  0  0  0  0  0  0
    7.8101    0.9688    1.2263 C   0  0  0  0  0  0  0  0  0  0  0  0
    6.9426    1.8261    2.0804 C   0  0  0  0  0  0  0  0  0  0  0  0
    5.6180    1.7079    1.8784 C   0  0  0  0  0  0  0  0  0  0  0  0
    4.6020    2.4927    2.6474 C   0  0  0  0  0  0  0  0  0  0  0  0
    5.1645    0.8089    0.9032 N   0  0  0  0  0  0  0  0  0  0  0  0
    3.8904    0.5269    0.5311 N   0  0  0  0  0  0  0  0  0  0  0  0
    0.1440   -1.9740   -2.3234 S   0  0  0  0  0  0  0  0  0  0  0  0
   -1.5436   -1.7018   -2.1461 C   0  0  0  0  0  0  0  0  0  0  0  0
   -2.5071   -2.4156   -3.0280 C   0  0  0  0  0  0  0  0  0  0  0  0
   -4.0785   -1.1992   -0.3555 C   0  0  0  0  0  0  0  0  0  0  0  0
   -5.3210   -0.7235    0.0840 C   0  0  0  0  0  0  0  0  0  0  0  0
   -8.6265    1.0037    1.2679 H   0  0  0  0  0  0  0  0  0  0  0  0
   -7.5239   -0.2703    1.8029 H   0  0  0  0  0  0  0  0  0  0  0  0
   -8.1021   -0.2076    0.0920 H   0  0  0  0  0  0  0  0  0  0  0  0
   -4.6706    2.6069    0.0075 H   0  0  0  0  0  0  0  0  0  0  0  0
   -2.4766    1.7738   -0.7608 H   0  0  0  0  0  0  0  0  0  0  0  0
    1.7678    0.1790    0.0472 H   0  0  0  0  0  0  0  0  0  0  0  0
    8.8931    1.0789    1.4056 H   0  0  0  0  0  0  0  0  0  0  0  0
    7.4032    2.4855    2.8032 H   0  0  0  0  0  0  0  0  0  0  0  0
    3.9309    1.8229    3.1955 H   0  0  0  0  0  0  0  0  0  0  0  0
    4.0022    3.1131    1.9731 H   0  0  0  0  0  0  0  0  0  0  0  0
    5.0730    3.1590    3.3782 H   0  0  0  0  0  0  0  0  0  0  0  0
   -2.0490   -2.7105   -3.9782 H   0  0  0  0  0  0  0  0  0  0  0  0
   -3.3646   -1.7788   -3.2684 H   0  0  0  0  0  0  0  0  0  0  0  0
   -2.8755   -3.3204   -2.5341 H   0  0  0  0  0  0  0  0  0  0  0  0
   -3.9225   -2.2731   -0.4230 H   0  0  0  0  0  0  0  0  0  0  0  0
   -6.0884   -1.4515    0.3244 H   0  0  0  0  0  0  0  0  0  0  0  0
  1  2  1  0
  2  3  1  0
  3  4  2  0
  4  5  1  0
  5  6  2  0
  6  7  1  0
  7  8  1  0
  8  9  2  0
  9 10  1  0
 10 11  1  0
 11 12  2  0
 11 13  1  0
 13 14  1  0
 14 15  2  0
 15 16  1  0
 16 17  2  0
 17 18  1  0
 18 19  2  0
 19 20  1  0
 19 21  1  0
 21 22  1  0
  9 23  1  0
 23 24  1  0
 24 25  1  0
  6 26  1  0
 26 27  2  0
 27  3  1  0
 24  7  2  0
 22 13  2  0
 21 15  1  0
  1 28  1  0
  1 29  1  0
  1 30  1  0
  4 31  1  0
  5 32  1  0
 10 33  1  0
 17 34  1  0
 18 35  1  0
 20 36  1  0
 20 37  1  0
 20 38  1  0
 25 39  1  0
 25 40  1  0
 25 41  1  0
 26 42  1  0
 27 43  1  0
M  END
$$$$
