
     RDKit          3D

 46 48  0  0  0  0  0  0  0  0999 V2000
   -3.5851    1.9114    0.9468 O   0  0  0  0  0  0  0  0  0  0  0  0
   -3.2153    0.7621    0.7452 C   0  0  0  0  0  0  0  0  0  0  0  0
   -3.9640   -0.2663    0.2017 N   0  0  0  0  0  0  0  0  0  0  0  0
   -5.3291   -0.2250   -0.1586 C   0  0  0  0  0  0  0  0  0  0  0  0
   -6.1677    0.8669    0.0754 C   0  0  0  0  0  0  0  0  0  0  0  0
   -7.5073    0.8131   -0.3110 C   0  0  0  0  0  0  0  0  0  0  0  0
   -8.3008    1.8672   -0.0795 F   0  0  0  0  0  0  0  0  0  0  0  0
   -8.0371   -0.3099   -0.9272 C   0  0  0  0  0  0  0  0  0  0  0  0
   -7.2034   -1.3920   -1.1542 C   0  0  0  0  0  0  0  0  0  0  0  0
   -7.6925   -2.4897   -1.7458 F   0  0  0  0  0  0  0  0  0  0  0  0
   -5.8618   -1.3626   -0.7772 C   0  0  0  0  0  0  0  0  0  0  0  0
   -1.8030    0.4165    1.0694 C   0  0  0  0  0  0  0  0  0  0  0  0
   -1.4375   -0.8444    1.5453 C   0  0  0  0  0  0  0  0  0  0  0  0
   -0.0952   -1.1219    1.8460 C   0  0  0  0  0  0  0  0  0  0  0  0
    0.9302   -0.1693    1.6763 C   0  0  0  0  0  0  0  0  0  0  0  0
    2.2232   -0.5777    2.0087 N   0  0  0  0  0  0  0  0  0  0  0  0
    3.4137   -0.1706    1.2493 C   0  0  0  0  0  0  0  0  0  0  0  0
    3.3769   -0.6826   -0.1954 C   0  0  0  0  0  0  0  0  0  0  0  0
    4.6525   -0.3675   -0.9353 C   0  0  0  0  0  0  0  0  0  0  0  0
    5.6782   -1.3180   -1.0265 C   0  0  0  0  0  0  0  0  0  0  0  0
    6.8650   -1.0141   -1.6954 C   0  0  0  0  0  0  0  0  0  0  0  0
    7.0388    0.2414   -2.2748 C   0  0  0  0  0  0  0  0  0  0  0  0
    6.0265    1.1948   -2.1858 C   0  0  0  0  0  0  0  0  0  0  0  0
    4.8387    0.8934   -1.5182 C   0  0  0  0  0  0  0  0  0  0  0  0
    0.5101    1.1042    1.2529 C   0  0  0  0  0  0  0  0  0  0  0  0
    1.4284    2.2144    1.1587 N   0  0  0  0  0  4  0  0  0  0  0  0
    1.7348    2.7939    2.2083 O   0  0  0  0  0  0  0  0  0  0  0  0
    1.8092    2.5241    0.0202 O   0  0  0  0  0  1  0  0  0  0  0  0
   -0.8279    1.4051    0.9424 C   0  0  0  0  0  0  0  0  0  0  0  0
   -3.4751   -1.1212   -0.0309 H   0  0  0  0  0  0  0  0  0  0  0  0
   -5.8222    1.7748    0.5577 H   0  0  0  0  0  0  0  0  0  0  0  0
   -9.0789   -0.3390   -1.2221 H   0  0  0  0  0  0  0  0  0  0  0  0
   -5.2541   -2.2388   -0.9799 H   0  0  0  0  0  0  0  0  0  0  0  0
   -2.1815   -1.6165    1.7257 H   0  0  0  0  0  0  0  0  0  0  0  0
    0.1446   -2.1152    2.2246 H   0  0  0  0  0  0  0  0  0  0  0  0
    2.2800   -1.5626    2.2617 H   0  0  0  0  0  0  0  0  0  0  0  0
    3.5781    0.9085    1.2971 H   0  0  0  0  0  0  0  0  0  0  0  0
    4.2813   -0.6090    1.7596 H   0  0  0  0  0  0  0  0  0  0  0  0
    2.5305   -0.2489   -0.7421 H   0  0  0  0  0  0  0  0  0  0  0  0
    3.2048   -1.7669   -0.2034 H   0  0  0  0  0  0  0  0  0  0  0  0
    5.5616   -2.3019   -0.5783 H   0  0  0  0  0  0  0  0  0  0  0  0
    7.6558   -1.7565   -1.7640 H   0  0  0  0  0  0  0  0  0  0  0  0
    7.9633    0.4781   -2.7947 H   0  0  0  0  0  0  0  0  0  0  0  0
    6.1612    2.1755   -2.6348 H   0  0  0  0  0  0  0  0  0  0  0  0
    4.0599    1.6518   -1.4557 H   0  0  0  0  0  0  0  0  0  0  0  0
   -1.1079    2.4071    0.6181 H   0  0  0  0  0  0  0  0  0  0  0  0
  1  2  2  0
  2  3  1  0
  3  4  1  0
  4  5  2  0
  5  6  1  0
  6  7  1  0
  6  8  2  0
  8  9  1  0
  9 10  1  0
  9 11  2  0
  2 12  1  0
 12 13  2  0
 13 14  1  0
 14 15  2  0
 15 16  1  0
 16 17  1  0
 17 18  1  0
 18 19  1  0
 19 20  2  0
 20 21  1  0
 21 22  2  0
 22 23  1  0
 23 24  2  0
 15 25  1  0
 25 26  1  0
 26 27  2  0
 26 28  1  0
 25 29  2  0
 11  4  1  0
 29 12  1  0
 24 19  1  0
  3 30  1  0
  5 31  1  0
  8 32  1  0
 11 33  1  0
 13 34  1  0
 14 35  1  0
 16 36  1  0
 17 37  1  0
 17 38  1  0
 18 39  1  0
 18 40  1  0
 20 41  1  0
 21 42  1  0
 22 43  1  0
 23 44  1  0
 24 45  1  0
 29 46  1  0
M  CHG  2  26   1  28  -1
M  END
$$$$
