
     RDKit          3D

 35 37  0  0  0  0  0  0  0  0999 V2000
   -1.5458   -2.0128    2.6617 C   0  0  0  0  0  0  0  0  0  0  0  0
   -1.7166   -1.1625    1.4021 C   0  0  0  0  0  0  0  0  0  0  0  0
   -2.7939   -0.2711    1.6659 O   0  0  0  0  0  0  0  0  0  0  0  0
   -3.4500    0.2958    0.6099 C   0  0  0  0  0  0  0  0  0  0  0  0
   -3.0616    0.2478   -0.7298 C   0  0  0  0  0  0  0  0  0  0  0  0
   -3.8361    0.8803   -1.7095 C   0  0  0  0  0  0  0  0  0  0  0  0
   -4.9957    1.5629   -1.3480 C   0  0  0  0  0  0  0  0  0  0  0  0
   -6.0372    2.4146   -2.6751 Br  0  0  0  0  0  0  0  0  0  0  0  0
   -5.3877    1.6240   -0.0145 C   0  0  0  0  0  0  0  0  0  0  0  0
   -4.6114    0.9924    0.9596 C   0  0  0  0  0  0  0  0  0  0  0  0
   -0.3700   -0.4662    1.0862 C   0  0  0  0  0  0  0  0  0  0  0  0
   -0.2074    0.7377    1.2541 O   0  0  0  0  0  0  0  0  0  0  0  0
    0.5709   -1.3512    0.5952 N   0  0  0  0  0  0  0  0  0  0  0  0
    1.8565   -1.0609    0.2114 C   0  0  0  0  0  0  0  0  0  0  0  0
    2.6646   -1.9910   -0.2500 N   0  0  0  0  0  0  0  0  0  0  0  0
    3.9078   -1.4837   -0.5770 N   0  0  0  0  0  0  0  0  0  0  0  0
    3.9721   -0.1906   -0.3505 C   0  0  0  0  0  0  0  0  0  0  0  0
    5.2634    0.6401   -0.6216 C   0  0  0  0  0  0  0  0  0  0  0  0
    5.2824    1.6239   -1.7640 C   0  0  0  0  0  0  0  0  0  0  0  0
    6.0760    0.3538   -1.8589 C   0  0  0  0  0  0  0  0  0  0  0  0
    2.5433    0.4962    0.2845 S   0  0  0  0  0  0  0  0  0  0  0  0
   -0.7771   -2.7815    2.5375 H   0  0  0  0  0  0  0  0  0  0  0  0
   -1.2653   -1.3869    3.5167 H   0  0  0  0  0  0  0  0  0  0  0  0
   -2.4892   -2.5045    2.9231 H   0  0  0  0  0  0  0  0  0  0  0  0
   -1.9781   -1.8412    0.5796 H   0  0  0  0  0  0  0  0  0  0  0  0
   -2.1567   -0.2540   -1.0524 H   0  0  0  0  0  0  0  0  0  0  0  0
   -3.5204    0.8404   -2.7489 H   0  0  0  0  0  0  0  0  0  0  0  0
   -6.2861    2.1593    0.2794 H   0  0  0  0  0  0  0  0  0  0  0  0
   -4.9135    1.0448    2.0032 H   0  0  0  0  0  0  0  0  0  0  0  0
    0.3406   -2.3294    0.4844 H   0  0  0  0  0  0  0  0  0  0  0  0
    5.8130    0.9031    0.2759 H   0  0  0  0  0  0  0  0  0  0  0  0
    4.4028    1.7162   -2.3913 H   0  0  0  0  0  0  0  0  0  0  0  0
    5.8229    2.5526   -1.6218 H   0  0  0  0  0  0  0  0  0  0  0  0
    5.7284   -0.4158   -2.5396 H   0  0  0  0  0  0  0  0  0  0  0  0
    7.1550    0.4172   -1.7795 H   0  0  0  0  0  0  0  0  0  0  0  0
  1  2  1  0
  2  3  1  0
  3  4  1  0
  4  5  2  0
  5  6  1  0
  6  7  2  0
  7  8  1  0
  7  9  1  0
  9 10  2  0
  2 11  1  0
 11 12  2  0
 11 13  1  0
 13 14  1  0
 14 15  2  0
 15 16  1  0
 16 17  2  0
 17 18  1  0
 18 19  1  0
 19 20  1  0
 17 21  1  0
 10  4  1  0
 21 14  1  0
 20 18  1  0
  1 22  1  0
  1 23  1  0
  1 24  1  0
  2 25  1  0
  5 26  1  0
  6 27  1  0
  9 28  1  0
 10 29  1  0
 13 30  1  0
 18 31  1  0
 19 32  1  0
 19 33  1  0
 20 34  1  0
 20 35  1  0
M  END
$$$$
