
     RDKit          3D

 43 45  0  0  0  0  0  0  0  0999 V2000
    1.9967   -2.4109    2.7328 O   0  0  0  0  0  0  0  0  0  0  0  0
    2.5512   -1.3915    2.3320 C   0  0  0  0  0  0  0  0  0  0  0  0
    4.0355   -1.1602    2.5814 C   0  0  0  0  0  0  0  0  0  0  0  0
    5.0523   -1.8782    1.2496 S   0  0  0  0  0  0  0  0  0  0  0  0
    4.6680   -0.7543   -0.0812 C   0  0  0  0  0  0  0  0  0  0  0  0
    5.1772    0.5499   -0.0687 C   0  0  0  0  0  0  0  0  0  0  0  0
    4.8525    1.4438   -1.0935 C   0  0  0  0  0  0  0  0  0  0  0  0
    4.0225    1.0399   -2.1396 C   0  0  0  0  0  0  0  0  0  0  0  0
    3.5240   -0.2613   -2.1673 C   0  0  0  0  0  0  0  0  0  0  0  0
    3.8530   -1.1501   -1.1469 C   0  0  0  0  0  0  0  0  0  0  0  0
    3.3509   -2.3926   -1.1983 F   0  0  0  0  0  0  0  0  0  0  0  0
    1.9507   -0.3450    1.6462 N   0  0  0  0  0  0  0  0  0  0  0  0
    0.6083   -0.2477    1.2298 C   0  0  0  0  0  0  0  0  0  0  0  0
   -0.3708   -1.1925    1.5091 C   0  0  0  0  0  0  0  0  0  0  0  0
   -1.6855   -1.0137    1.0478 C   0  0  0  0  0  0  0  0  0  0  0  0
   -2.0734    0.1063    0.2980 C   0  0  0  0  0  0  0  0  0  0  0  0
   -3.3687    0.2730   -0.1539 N   0  0  0  0  0  0  0  0  0  0  0  0
   -3.8973    1.5852   -0.5578 C   0  0  0  0  0  0  0  0  0  0  0  0
   -5.4222    1.6248   -0.3596 C   0  0  0  0  0  0  0  0  0  0  0  0
   -6.1349    0.6272   -1.1036 O   0  0  0  0  0  0  0  0  0  0  0  0
   -5.3704   -0.5662   -1.3268 C   0  0  0  0  0  0  0  0  0  0  0  0
   -4.3156   -0.8507   -0.2436 C   0  0  0  0  0  0  0  0  0  0  0  0
   -1.0677    1.0456    0.0313 C   0  0  0  0  0  0  0  0  0  0  0  0
    0.2490    0.8762    0.4851 C   0  0  0  0  0  0  0  0  0  0  0  0
    4.2998   -1.6493    3.5250 H   0  0  0  0  0  0  0  0  0  0  0  0
    4.2500   -0.0939    2.7060 H   0  0  0  0  0  0  0  0  0  0  0  0
    5.8392    0.8779    0.7300 H   0  0  0  0  0  0  0  0  0  0  0  0
    5.2567    2.4539   -1.0813 H   0  0  0  0  0  0  0  0  0  0  0  0
    3.7739    1.7336   -2.9396 H   0  0  0  0  0  0  0  0  0  0  0  0
    2.8813   -0.5942   -2.9770 H   0  0  0  0  0  0  0  0  0  0  0  0
    2.5529    0.4109    1.3464 H   0  0  0  0  0  0  0  0  0  0  0  0
   -0.1570   -2.0864    2.0862 H   0  0  0  0  0  0  0  0  0  0  0  0
   -2.4097   -1.7781    1.3163 H   0  0  0  0  0  0  0  0  0  0  0  0
   -3.6536    1.7568   -1.6127 H   0  0  0  0  0  0  0  0  0  0  0  0
   -3.4605    2.3919    0.0418 H   0  0  0  0  0  0  0  0  0  0  0  0
   -5.8148    2.6013   -0.6609 H   0  0  0  0  0  0  0  0  0  0  0  0
   -5.6703    1.4870    0.6996 H   0  0  0  0  0  0  0  0  0  0  0  0
   -4.8883   -0.4689   -2.3069 H   0  0  0  0  0  0  0  0  0  0  0  0
   -6.0760   -1.4005   -1.3931 H   0  0  0  0  0  0  0  0  0  0  0  0
   -3.8039   -1.7819   -0.5118 H   0  0  0  0  0  0  0  0  0  0  0  0
   -4.8047   -0.9824    0.7285 H   0  0  0  0  0  0  0  0  0  0  0  0
   -1.2825    1.9281   -0.5646 H   0  0  0  0  0  0  0  0  0  0  0  0
    0.9821    1.6374    0.2330 H   0  0  0  0  0  0  0  0  0  0  0  0
  1  2  2  0
  2  3  1  0
  3  4  1  0
  4  5  1  0
  5  6  2  0
  6  7  1  0
  7  8  2  0
  8  9  1  0
  9 10  2  0
 10 11  1  0
  2 12  1  0
 12 13  1  0
 13 14  2  0
 14 15  1  0
 15 16  2  0
 16 17  1  0
 17 18  1  0
 18 19  1  0
 19 20  1  0
 20 21  1  0
 21 22  1  0
 16 23  1  0
 23 24  2  0
 10  5  1  0
 24 13  1  0
 22 17  1  0
  3 25  1  0
  3 26  1  0
  6 27  1  0
  7 28  1  0
  8 29  1  0
  9 30  1  0
 12 31  1  0
 14 32  1  0
 15 33  1  0
 18 34  1  0
 18 35  1  0
 19 36  1  0
 19 37  1  0
 21 38  1  0
 21 39  1  0
 22 40  1  0
 22 41  1  0
 23 42  1  0
 24 43  1  0
M  END
$$$$
