
     RDKit          3D

 30 31  0  0  0  0  0  0  0  0999 V2000
   -4.8231   -0.3138    0.4039 C   0  0  0  0  0  0  0  0  0  0  0  0
   -3.2951   -0.2605    0.4533 C   0  0  0  0  0  0  0  0  0  0  0  0
   -2.8602    0.9804    1.2389 C   0  0  0  0  0  0  0  0  0  0  0  0
   -2.8570   -0.1786   -0.9110 O   0  0  0  0  0  0  0  0  0  0  0  0
   -1.5966   -0.5262   -1.2051 C   0  0  0  0  0  0  0  0  0  0  0  0
   -1.0901   -0.4335   -2.3110 O   0  0  0  0  0  0  0  0  0  0  0  0
   -0.8369   -1.0699   -0.0271 C   0  0  0  0  0  0  0  0  0  0  0  0
    0.4139   -0.8092    0.2295 N   0  0  0  0  0  0  0  0  0  0  0  0
    1.0799   -0.0176   -0.6603 N   0  0  0  0  0  0  0  0  0  0  0  0
    2.4629    0.1928   -0.4563 C   0  0  0  0  0  0  0  0  0  0  0  0
    3.2112    0.8301   -1.4568 C   0  0  0  0  0  0  0  0  0  0  0  0
    4.5667    1.1157   -1.2696 C   0  0  0  0  0  0  0  0  0  0  0  0
    5.1885    0.7861   -0.0679 C   0  0  0  0  0  0  0  0  0  0  0  0
    4.4529    0.1809    0.9479 C   0  0  0  0  0  0  0  0  0  0  0  0
    3.0973   -0.1022    0.7573 C   0  0  0  0  0  0  0  0  0  0  0  0
   -1.6240   -1.9038    0.9458 C   0  0  0  0  0  0  0  0  0  0  0  0
   -1.1657   -2.8965    1.4805 O   0  0  0  0  0  0  0  0  0  0  0  0
   -2.8779   -1.4586    1.1233 O   0  0  0  0  0  0  0  0  0  0  0  0
   -5.2387    0.5635   -0.1034 H   0  0  0  0  0  0  0  0  0  0  0  0
   -5.1554   -1.1969   -0.1548 H   0  0  0  0  0  0  0  0  0  0  0  0
   -5.2544   -0.3868    1.4081 H   0  0  0  0  0  0  0  0  0  0  0  0
   -1.7704    1.0603    1.3016 H   0  0  0  0  0  0  0  0  0  0  0  0
   -3.2167    1.8968    0.7564 H   0  0  0  0  0  0  0  0  0  0  0  0
   -3.2338    0.9461    2.2679 H   0  0  0  0  0  0  0  0  0  0  0  0
    0.8395   -0.0825   -1.6580 H   0  0  0  0  0  0  0  0  0  0  0  0
    2.7418    1.1106   -2.3962 H   0  0  0  0  0  0  0  0  0  0  0  0
    5.1334    1.6002   -2.0602 H   0  0  0  0  0  0  0  0  0  0  0  0
    6.2420    1.0072    0.0803 H   0  0  0  0  0  0  0  0  0  0  0  0
    4.9286   -0.0694    1.8922 H   0  0  0  0  0  0  0  0  0  0  0  0
    2.5370   -0.5647    1.5659 H   0  0  0  0  0  0  0  0  0  0  0  0
  1  2  1  0
  2  3  1  0
  2  4  1  0
  4  5  1  0
  5  6  2  0
  5  7  1  0
  7  8  2  3
  8  9  1  0
  9 10  1  0
 10 11  2  0
 11 12  1  0
 12 13  2  0
 13 14  1  0
 14 15  2  0
  7 16  1  0
 16 17  2  0
 16 18  1  0
 18  2  1  0
 15 10  1  0
  1 19  1  0
  1 20  1  0
  1 21  1  0
  3 22  1  0
  3 23  1  0
  3 24  1  0
  9 25  1  0
 11 26  1  0
 12 27  1  0
 13 28  1  0
 14 29  1  0
 15 30  1  0
M  END
$$$$
