
     RDKit          3D

 35 37  0  0  0  0  0  0  0  0999 V2000
    7.1839    1.2706   -1.9446 C   0  0  0  0  0  0  0  0  0  0  0  0
    5.7896    1.1666   -1.6532 O   0  0  0  0  0  0  0  0  0  0  0  0
    5.5071    0.3759   -0.5880 C   0  0  0  0  0  0  0  0  0  0  0  0
    6.3245   -0.2126    0.1026 O   0  0  0  0  0  0  0  0  0  0  0  0
    4.0384    0.3135   -0.3529 C   0  0  0  0  0  0  0  0  0  0  0  0
    3.5720   -0.4608    0.7175 C   0  0  0  0  0  0  0  0  0  0  0  0
    2.2018   -0.5527    0.9809 C   0  0  0  0  0  0  0  0  0  0  0  0
    1.2808    0.1227    0.1731 C   0  0  0  0  0  0  0  0  0  0  0  0
   -0.1511    0.0221    0.4826 C   0  0  0  0  0  0  0  0  0  0  0  0
   -1.0979   -0.4985   -0.3263 C   0  0  0  0  0  0  0  0  0  0  0  0
   -0.8056   -1.0119   -1.6259 C   0  0  0  0  0  0  0  0  0  0  0  0
   -0.5492   -1.4347   -2.6767 N   0  0  0  0  0  0  0  0  0  0  0  0
   -2.4580   -0.5178    0.1114 C   0  0  0  0  0  0  0  0  0  0  0  0
   -3.4678    0.0748   -0.4944 N   0  0  0  0  0  0  0  0  0  0  0  0
   -4.6559   -0.1586    0.1771 C   0  0  0  0  0  0  0  0  0  0  0  0
   -5.9244    0.3308   -0.1940 C   0  0  0  0  0  0  0  0  0  0  0  0
   -7.0454    0.0156    0.5809 C   0  0  0  0  0  0  0  0  0  0  0  0
   -6.9161   -0.7787    1.7157 C   0  0  0  0  0  0  0  0  0  0  0  0
   -5.6683   -1.2769    2.1036 C   0  0  0  0  0  0  0  0  0  0  0  0
   -4.5499   -0.9533    1.3174 C   0  0  0  0  0  0  0  0  0  0  0  0
   -2.9066   -1.4103    1.5292 S   0  0  0  0  0  0  0  0  0  0  0  0
    1.7459    0.9065   -0.8893 C   0  0  0  0  0  0  0  0  0  0  0  0
    3.1167    0.9984   -1.1549 C   0  0  0  0  0  0  0  0  0  0  0  0
    7.7189    1.7202   -1.1023 H   0  0  0  0  0  0  0  0  0  0  0  0
    7.3003    1.9212   -2.8157 H   0  0  0  0  0  0  0  0  0  0  0  0
    7.5992    0.2876   -2.1885 H   0  0  0  0  0  0  0  0  0  0  0  0
    4.2753   -0.9981    1.3517 H   0  0  0  0  0  0  0  0  0  0  0  0
    1.8662   -1.1620    1.8177 H   0  0  0  0  0  0  0  0  0  0  0  0
   -0.4137    0.4097    1.4664 H   0  0  0  0  0  0  0  0  0  0  0  0
   -6.0213    0.9488   -1.0814 H   0  0  0  0  0  0  0  0  0  0  0  0
   -8.0228    0.3941    0.2907 H   0  0  0  0  0  0  0  0  0  0  0  0
   -7.7965   -1.0177    2.3092 H   0  0  0  0  0  0  0  0  0  0  0  0
   -5.5700   -1.8985    2.9886 H   0  0  0  0  0  0  0  0  0  0  0  0
    1.0519    1.4554   -1.5234 H   0  0  0  0  0  0  0  0  0  0  0  0
    3.4482    1.6084   -1.9921 H   0  0  0  0  0  0  0  0  0  0  0  0
  1  2  1  0
  2  3  1  0
  3  4  2  0
  3  5  1  0
  5  6  2  0
  6  7  1  0
  7  8  2  0
  8  9  1  0
  9 10  2  3
 10 11  1  0
 11 12  3  0
 10 13  1  0
 13 14  2  0
 14 15  1  0
 15 16  2  0
 16 17  1  0
 17 18  2  0
 18 19  1  0
 19 20  2  0
 20 21  1  0
  8 22  1  0
 22 23  2  0
 23  5  1  0
 21 13  1  0
 20 15  1  0
  1 24  1  0
  1 25  1  0
  1 26  1  0
  6 27  1  0
  7 28  1  0
  9 29  1  0
 16 30  1  0
 17 31  1  0
 18 32  1  0
 19 33  1  0
 22 34  1  0
 23 35  1  0
M  END
$$$$
