
     RDKit          3D

 48 49  0  0  0  0  0  0  0  0999 V2000
   -4.5821   -2.3234    0.6040 C   0  0  0  0  0  0  0  0  0  0  0  0
   -4.5167   -1.3689   -0.5817 C   0  0  0  0  0  0  0  0  0  0  0  0
   -5.1049   -0.0623   -0.2661 N   0  0  0  0  0  0  0  0  0  0  0  0
   -6.5480    0.0852   -0.4529 C   0  0  0  0  0  0  0  0  0  0  0  0
   -6.8761    0.6594   -1.8237 C   0  0  0  0  0  0  0  0  0  0  0  0
   -4.4071    1.0228    0.2680 C   0  0  0  0  0  0  0  0  0  0  0  0
   -4.9329    2.0825    0.6041 O   0  0  0  0  0  0  0  0  0  0  0  0
   -2.9472    0.9115    0.4438 C   0  0  0  0  0  0  0  0  0  0  0  0
   -2.4244    0.7398    1.7255 C   0  0  0  0  0  0  0  0  0  0  0  0
   -1.0389    0.6682    1.9036 C   0  0  0  0  0  0  0  0  0  0  0  0
   -0.1761    0.7824    0.8083 C   0  0  0  0  0  0  0  0  0  0  0  0
    1.2264    0.7201    0.9065 N   0  0  0  0  0  0  0  0  0  0  0  0
    1.9987    0.5704    2.0441 C   0  0  0  0  0  0  0  0  0  0  0  0
    1.5935    0.4682    3.1989 O   0  0  0  0  0  0  0  0  0  0  0  0
    3.4989    0.5056    1.7444 C   0  0  0  0  0  0  0  0  0  0  0  0
    3.7723    0.8698    0.3887 O   0  0  0  0  0  0  0  0  0  0  0  0
    4.9695    0.3739   -0.0579 C   0  0  0  0  0  0  0  0  0  0  0  0
    6.1697    0.7100    0.5762 C   0  0  0  0  0  0  0  0  0  0  0  0
    7.3812    0.2245    0.0762 C   0  0  0  0  0  0  0  0  0  0  0  0
    7.3841   -0.5885   -1.0673 C   0  0  0  0  0  0  0  0  0  0  0  0
    8.6581   -1.0998   -1.5909 N   0  0  0  0  0  4  0  0  0  0  0  0
    8.6098   -1.9350   -2.5051 O   0  0  0  0  0  0  0  0  0  0  0  0
    9.7038   -0.6660   -1.0832 O   0  0  0  0  0  1  0  0  0  0  0  0
    6.1873   -0.9176   -1.7165 C   0  0  0  0  0  0  0  0  0  0  0  0
    4.9832   -0.4246   -1.2114 C   0  0  0  0  0  0  0  0  0  0  0  0
    3.5128   -0.8356   -2.0200 Cl  0  0  0  0  0  0  0  0  0  0  0  0
   -0.7165    0.9743   -0.4727 C   0  0  0  0  0  0  0  0  0  0  0  0
   -2.0997    1.0499   -0.6576 C   0  0  0  0  0  0  0  0  0  0  0  0
   -4.1456   -3.2920    0.3344 H   0  0  0  0  0  0  0  0  0  0  0  0
   -4.0326   -1.9287    1.4675 H   0  0  0  0  0  0  0  0  0  0  0  0
   -5.6171   -2.4928    0.9191 H   0  0  0  0  0  0  0  0  0  0  0  0
   -3.4740   -1.2537   -0.8902 H   0  0  0  0  0  0  0  0  0  0  0  0
   -5.0533   -1.7920   -1.4411 H   0  0  0  0  0  0  0  0  0  0  0  0
   -7.0314   -0.8917   -0.3185 H   0  0  0  0  0  0  0  0  0  0  0  0
   -6.9500    0.7513    0.3208 H   0  0  0  0  0  0  0  0  0  0  0  0
   -6.5201    0.0020   -2.6253 H   0  0  0  0  0  0  0  0  0  0  0  0
   -7.9589    0.7788   -1.9344 H   0  0  0  0  0  0  0  0  0  0  0  0
   -6.4068    1.6409   -1.9638 H   0  0  0  0  0  0  0  0  0  0  0  0
   -3.0880    0.6637    2.5849 H   0  0  0  0  0  0  0  0  0  0  0  0
   -0.6660    0.5270    2.9149 H   0  0  0  0  0  0  0  0  0  0  0  0
    1.7532    0.8063    0.0412 H   0  0  0  0  0  0  0  0  0  0  0  0
    3.8202   -0.5245    1.9515 H   0  0  0  0  0  0  0  0  0  0  0  0
    4.0003    1.2039    2.4216 H   0  0  0  0  0  0  0  0  0  0  0  0
    6.1773    1.3641    1.4439 H   0  0  0  0  0  0  0  0  0  0  0  0
    8.3096    0.4900    0.5825 H   0  0  0  0  0  0  0  0  0  0  0  0
    6.1845   -1.5457   -2.6049 H   0  0  0  0  0  0  0  0  0  0  0  0
   -0.0690    1.0773   -1.3399 H   0  0  0  0  0  0  0  0  0  0  0  0
   -2.5111    1.2191   -1.6492 H   0  0  0  0  0  0  0  0  0  0  0  0
  1  2  1  0
  2  3  1  0
  3  4  1  0
  4  5  1  0
  3  6  1  0
  6  7  2  0
  6  8  1  0
  8  9  2  0
  9 10  1  0
 10 11  2  0
 11 12  1  0
 12 13  1  0
 13 14  2  0
 13 15  1  0
 15 16  1  0
 16 17  1  0
 17 18  2  0
 18 19  1  0
 19 20  2  0
 20 21  1  0
 21 22  2  0
 21 23  1  0
 20 24  1  0
 24 25  2  0
 25 26  1  0
 11 27  1  0
 27 28  2  0
 28  8  1  0
 25 17  1  0
  1 29  1  0
  1 30  1  0
  1 31  1  0
  2 32  1  0
  2 33  1  0
  4 34  1  0
  4 35  1  0
  5 36  1  0
  5 37  1  0
  5 38  1  0
  9 39  1  0
 10 40  1  0
 12 41  1  0
 15 42  1  0
 15 43  1  0
 18 44  1  0
 19 45  1  0
 24 46  1  0
 27 47  1  0
 28 48  1  0
M  CHG  2  21   1  23  -1
M  END
$$$$
