
     RDKit          3D

 59 61  0  0  0  0  0  0  0  0999 V2000
   -4.6907    2.2208    1.5675 C   0  0  0  0  0  0  0  0  0  0  0  0
   -5.1075    1.0102    1.1665 C   0  0  0  0  0  0  0  0  0  0  0  0
   -5.3977    0.5335   -0.2684 C   0  0  0  0  0  0  0  0  0  0  0  0
   -6.9150    0.2313   -0.2585 C   0  0  0  0  0  0  0  0  0  0  0  0
   -5.1553    1.6258   -1.3356 C   0  0  0  0  0  0  0  0  0  0  0  0
   -4.4800   -0.6628   -0.6259 C   0  0  0  0  0  0  0  0  0  0  0  0
   -3.1122   -0.5939   -0.2587 C   0  0  0  0  0  0  0  0  0  0  0  0
   -2.1894   -1.6161   -0.5491 C   0  0  0  0  0  0  0  0  0  0  0  0
   -0.7405   -1.5241   -0.1018 C   0  0  2  0  0  0  0  0  0  0  0  0
   -0.5656   -2.1884    1.2572 C   0  0  0  0  0  0  0  0  0  0  0  0
    0.8794   -2.0870    1.6493 C   0  0  0  0  0  0  0  0  0  0  0  0
    1.4358   -2.9141    2.3690 O   0  0  0  0  0  0  0  0  0  0  0  0
    1.6194   -0.8934    1.1938 C   0  0  0  0  0  0  0  0  0  0  0  0
    0.9505    0.0228    0.3846 C   0  0  0  0  0  0  0  0  0  0  0  0
    1.5915    1.1912   -0.0113 C   0  0  0  0  0  0  0  0  0  0  0  0
    2.9124    1.4242    0.3721 C   0  0  0  0  0  0  0  0  0  0  0  0
    3.4693    2.5800   -0.1005 O   0  0  0  0  0  0  0  0  0  0  0  0
    3.6145    0.5207    1.1879 C   0  0  0  0  0  0  0  0  0  0  0  0
    5.0350    0.7943    1.6405 C   0  0  0  0  0  0  0  0  0  0  0  0
    6.0391    0.5491    0.5437 C   0  0  0  0  0  0  0  0  0  0  0  0
    6.9716    1.3918    0.0557 C   0  0  0  0  0  0  0  0  0  0  0  0
    7.2298    2.7908    0.5438 C   0  0  0  0  0  0  0  0  0  0  0  0
    7.8798    0.9552   -1.0659 C   0  0  0  0  0  0  0  0  0  0  0  0
    2.9456   -0.6501    1.5887 C   0  0  0  0  0  0  0  0  0  0  0  0
    3.6274   -1.5392    2.3824 O   0  0  0  0  0  0  0  0  0  0  0  0
   -0.3402   -0.1420   -0.0420 O   0  0  0  0  0  0  0  0  0  0  0  0
   -2.6547   -2.7417   -1.2274 C   0  0  0  0  0  0  0  0  0  0  0  0
   -1.7793   -3.7578   -1.4906 O   0  0  0  0  0  0  0  0  0  0  0  0
   -3.9831   -2.8376   -1.6319 C   0  0  0  0  0  0  0  0  0  0  0  0
   -4.8797   -1.8014   -1.3412 C   0  0  0  0  0  0  0  0  0  0  0  0
   -6.1630   -1.9203   -1.7923 O   0  0  0  0  0  0  0  0  0  0  0  0
   -4.5274    2.4222    2.6218 H   0  0  0  0  0  0  0  0  0  0  0  0
   -4.5018    3.0347    0.8757 H   0  0  0  0  0  0  0  0  0  0  0  0
   -5.2703    0.2559    1.9382 H   0  0  0  0  0  0  0  0  0  0  0  0
   -7.3142    0.0780   -1.2673 H   0  0  0  0  0  0  0  0  0  0  0  0
   -7.4851    1.0707    0.1621 H   0  0  0  0  0  0  0  0  0  0  0  0
   -7.1484   -0.6548    0.3451 H   0  0  0  0  0  0  0  0  0  0  0  0
   -5.3873    1.2524   -2.3410 H   0  0  0  0  0  0  0  0  0  0  0  0
   -4.1109    1.9624   -1.3534 H   0  0  0  0  0  0  0  0  0  0  0  0
   -5.7866    2.5057   -1.1624 H   0  0  0  0  0  0  0  0  0  0  0  0
   -2.7511    0.2899    0.2681 H   0  0  0  0  0  0  0  0  0  0  0  0
   -0.1076   -2.0040   -0.8623 H   0  0  0  0  0  0  0  0  0  0  0  0
   -0.8455   -3.2470    1.2144 H   0  0  0  0  0  0  0  0  0  0  0  0
   -1.1597   -1.6952    2.0357 H   0  0  0  0  0  0  0  0  0  0  0  0
    1.0735    1.9138   -0.6364 H   0  0  0  0  0  0  0  0  0  0  0  0
    4.4370    2.4961   -0.0689 H   0  0  0  0  0  0  0  0  0  0  0  0
    5.0738    1.8167    2.0279 H   0  0  0  0  0  0  0  0  0  0  0  0
    5.3039    0.1625    2.4947 H   0  0  0  0  0  0  0  0  0  0  0  0
    5.9779   -0.4544    0.1181 H   0  0  0  0  0  0  0  0  0  0  0  0
    7.0151    3.5123   -0.2511 H   0  0  0  0  0  0  0  0  0  0  0  0
    6.6307    3.0673    1.4122 H   0  0  0  0  0  0  0  0  0  0  0  0
    8.2802    2.8997    0.8318 H   0  0  0  0  0  0  0  0  0  0  0  0
    7.7529    1.6136   -1.9318 H   0  0  0  0  0  0  0  0  0  0  0  0
    8.9260    0.9981   -0.7461 H   0  0  0  0  0  0  0  0  0  0  0  0
    7.6745   -0.0690   -1.3939 H   0  0  0  0  0  0  0  0  0  0  0  0
    3.0259   -2.2861    2.6051 H   0  0  0  0  0  0  0  0  0  0  0  0
   -2.2337   -4.4461   -2.0043 H   0  0  0  0  0  0  0  0  0  0  0  0
   -4.3220   -3.7143   -2.1732 H   0  0  0  0  0  0  0  0  0  0  0  0
   -6.2670   -2.7532   -2.2790 H   0  0  0  0  0  0  0  0  0  0  0  0
  1  2  2  0
  2  3  1  0
  3  4  1  0
  3  5  1  0
  3  6  1  0
  6  7  2  0
  7  8  1  0
  8  9  1  0
  9 10  1  0
 10 11  1  0
 11 12  2  0
 11 13  1  0
 13 14  2  0
 14 15  1  0
 15 16  2  0
 16 17  1  0
 16 18  1  0
 18 19  1  0
 19 20  1  0
 20 21  2  3
 21 22  1  0
 21 23  1  0
 18 24  2  0
 24 25  1  0
 14 26  1  0
  8 27  2  0
 27 28  1  0
 27 29  1  0
 29 30  2  0
 30 31  1  0
 30  6  1  0
 26  9  1  0
 24 13  1  0
  1 32  1  0
  1 33  1  0
  2 34  1  0
  4 35  1  0
  4 36  1  0
  4 37  1  0
  5 38  1  0
  5 39  1  0
  5 40  1  0
  7 41  1  0
  9 42  1  6
 10 43  1  0
 10 44  1  0
 15 45  1  0
 17 46  1  0
 19 47  1  0
 19 48  1  0
 20 49  1  0
 22 50  1  0
 22 51  1  0
 22 52  1  0
 23 53  1  0
 23 54  1  0
 23 55  1  0
 25 56  1  0
 28 57  1  0
 29 58  1  0
 31 59  1  0
M  END
$$$$
