
     RDKit          3D

 58 61  0  0  0  0  0  0  0  0999 V2000
    7.9836   -1.5125   -3.6405 C   0  0  0  0  0  0  0  0  0  0  0  0
    7.2347   -0.9189   -2.4738 C   0  0  0  0  0  0  0  0  0  0  0  0
    7.9693   -0.5552   -1.3354 C   0  0  0  0  0  0  0  0  0  0  0  0
    7.3304   -0.0277   -0.2218 C   0  0  0  0  0  0  0  0  0  0  0  0
    5.9539    0.1761   -0.2492 C   0  0  0  0  0  0  0  0  0  0  0  0
    5.1935   -0.1424   -1.3878 C   0  0  0  0  0  0  0  0  0  0  0  0
    3.8178    0.1785   -1.2904 N   0  0  0  0  0  0  0  0  0  0  0  0
    2.9917    0.6096   -2.3141 C   0  0  0  0  0  0  0  0  0  0  0  0
    3.3197    0.8487   -3.4696 O   0  0  0  0  0  0  0  0  0  0  0  0
    1.5937    0.8846   -1.8687 C   0  0  0  0  0  0  0  0  0  0  0  0
    1.0019    2.1014   -2.3047 C   0  0  0  0  0  0  0  0  0  0  0  0
    0.5067    3.1031   -2.6211 N   0  0  0  0  0  0  0  0  0  0  0  0
    0.9506   -0.0662   -1.1626 C   0  0  0  0  0  0  0  0  0  0  0  0
   -0.3783   -0.0287   -0.6364 C   0  0  0  0  0  0  0  0  0  0  0  0
   -1.0188    1.0790   -0.1304 C   0  0  0  0  0  0  0  0  0  0  0  0
   -2.2664    0.6931    0.2940 N   0  0  0  0  0  0  0  0  0  0  0  0
   -3.2632    1.6044    0.8352 C   0  0  0  0  0  0  0  0  0  0  0  0
   -3.4000    1.4759    2.3391 C   0  0  0  0  0  0  0  0  0  0  0  0
   -2.4410    1.5008    3.1064 O   0  0  0  0  0  0  0  0  0  0  0  0
   -4.7001    1.3698    2.7840 N   0  0  0  0  0  0  0  0  0  0  0  0
   -4.9775    1.1181    4.1805 C   0  0  0  0  0  0  0  0  0  0  0  0
   -6.4133    1.3878    4.4251 C   0  0  0  0  0  0  0  0  0  0  0  0
   -7.0878    2.3618    5.1319 C   0  0  0  0  0  0  0  0  0  0  0  0
   -8.4674    2.0813    4.9792 C   0  0  0  0  0  0  0  0  0  0  0  0
   -8.5472    0.9569    4.1901 C   0  0  0  0  0  0  0  0  0  0  0  0
   -7.3056    0.5333    3.8393 O   0  0  0  0  0  0  0  0  0  0  0  0
   -2.4447   -0.6600    0.0869 C   0  0  0  0  0  0  0  0  0  0  0  0
   -3.5361   -1.5012    0.3603 C   0  0  0  0  0  0  0  0  0  0  0  0
   -3.4202   -2.8568    0.0410 C   0  0  0  0  0  0  0  0  0  0  0  0
   -2.2582   -3.3595   -0.5338 C   0  0  0  0  0  0  0  0  0  0  0  0
   -1.1768   -2.5149   -0.8045 C   0  0  0  0  0  0  0  0  0  0  0  0
   -1.2633   -1.1410   -0.4900 C   0  0  0  0  0  0  0  0  0  0  0  0
    5.8214   -0.7681   -2.4864 C   0  0  0  0  0  0  0  0  0  0  0  0
    5.0493   -1.3375   -3.6499 C   0  0  0  0  0  0  0  0  0  0  0  0
    7.8540   -2.5993   -3.6608 H   0  0  0  0  0  0  0  0  0  0  0  0
    9.0557   -1.2994   -3.5741 H   0  0  0  0  0  0  0  0  0  0  0  0
    7.6346   -1.0812   -4.5848 H   0  0  0  0  0  0  0  0  0  0  0  0
    9.0487   -0.6919   -1.3099 H   0  0  0  0  0  0  0  0  0  0  0  0
    7.9061    0.2430    0.6591 H   0  0  0  0  0  0  0  0  0  0  0  0
    5.4887    0.6267    0.6242 H   0  0  0  0  0  0  0  0  0  0  0  0
    3.4881    0.3722   -0.3508 H   0  0  0  0  0  0  0  0  0  0  0  0
    1.4746   -1.0047   -0.9829 H   0  0  0  0  0  0  0  0  0  0  0  0
   -0.7026    2.1091   -0.0200 H   0  0  0  0  0  0  0  0  0  0  0  0
   -4.2073    1.4028    0.3199 H   0  0  0  0  0  0  0  0  0  0  0  0
   -2.9645    2.6319    0.6003 H   0  0  0  0  0  0  0  0  0  0  0  0
   -5.4389    1.1346    2.1328 H   0  0  0  0  0  0  0  0  0  0  0  0
   -4.3411    1.7541    4.8044 H   0  0  0  0  0  0  0  0  0  0  0  0
   -4.7344    0.0715    4.3935 H   0  0  0  0  0  0  0  0  0  0  0  0
   -6.6373    3.1731    5.6873 H   0  0  0  0  0  0  0  0  0  0  0  0
   -9.3017    2.6274    5.3956 H   0  0  0  0  0  0  0  0  0  0  0  0
   -9.3697    0.3665    3.8086 H   0  0  0  0  0  0  0  0  0  0  0  0
   -4.4485   -1.1268    0.8111 H   0  0  0  0  0  0  0  0  0  0  0  0
   -4.2514   -3.5280    0.2460 H   0  0  0  0  0  0  0  0  0  0  0  0
   -2.1880   -4.4166   -0.7769 H   0  0  0  0  0  0  0  0  0  0  0  0
   -0.2789   -2.9220   -1.2598 H   0  0  0  0  0  0  0  0  0  0  0  0
    5.4894   -2.2824   -3.9875 H   0  0  0  0  0  0  0  0  0  0  0  0
    4.0236   -1.5956   -3.3714 H   0  0  0  0  0  0  0  0  0  0  0  0
    5.0482   -0.6381   -4.4903 H   0  0  0  0  0  0  0  0  0  0  0  0
  1  2  1  0
  2  3  2  0
  3  4  1  0
  4  5  2  0
  5  6  1  0
  6  7  1  0
  7  8  1  0
  8  9  2  0
  8 10  1  0
 10 11  1  0
 11 12  3  0
 10 13  2  3
 13 14  1  0
 14 15  2  0
 15 16  1  0
 16 17  1  0
 17 18  1  0
 18 19  2  0
 18 20  1  0
 20 21  1  0
 21 22  1  0
 22 23  2  0
 23 24  1  0
 24 25  2  0
 25 26  1  0
 16 27  1  0
 27 28  2  0
 28 29  1  0
 29 30  2  0
 30 31  1  0
 31 32  2  0
  6 33  2  0
 33 34  1  0
 33  2  1  0
 32 14  1  0
 26 22  1  0
 32 27  1  0
  1 35  1  0
  1 36  1  0
  1 37  1  0
  3 38  1  0
  4 39  1  0
  5 40  1  0
  7 41  1  0
 13 42  1  0
 15 43  1  0
 17 44  1  0
 17 45  1  0
 20 46  1  0
 21 47  1  0
 21 48  1  0
 23 49  1  0
 24 50  1  0
 25 51  1  0
 28 52  1  0
 29 53  1  0
 30 54  1  0
 31 55  1  0
 34 56  1  0
 34 57  1  0
 34 58  1  0
M  END
$$$$
