
     RDKit          3D

 39 40  0  0  0  0  0  0  0  0999 V2000
   -1.5351    0.4104   -2.3452 C   0  0  0  0  0  0  0  0  0  0  0  0
   -2.4251    0.1536   -1.1457 C   0  0  0  0  0  0  0  0  0  0  0  0
   -1.9311   -0.0857    0.0844 C   0  0  0  0  0  0  0  0  0  0  0  0
   -0.4733   -0.1854    0.3593 C   0  0  0  0  0  0  0  0  0  0  0  0
    0.3374   -0.9003   -0.3582 N   0  0  0  0  0  0  0  0  0  0  0  0
    1.6654   -0.8572   -0.0160 N   0  0  0  0  0  0  0  0  0  0  0  0
    2.3554    0.3090    0.2937 C   0  0  0  0  0  0  0  0  0  0  0  0
    1.8289    1.4086    0.4547 O   0  0  0  0  0  0  0  0  0  0  0  0
    3.8438    0.1864    0.4247 C   0  0  0  0  0  0  0  0  0  0  0  0
    4.5348    1.3055    0.9204 C   0  0  0  0  0  0  0  0  0  0  0  0
    5.9199    1.2679    1.0737 C   0  0  0  0  0  0  0  0  0  0  0  0
    6.8325    2.7813    1.7448 Br  0  0  0  0  0  0  0  0  0  0  0  0
    6.6387    0.1237    0.7371 C   0  0  0  0  0  0  0  0  0  0  0  0
    5.9679   -0.9939    0.2395 C   0  0  0  0  0  0  0  0  0  0  0  0
    4.5784   -0.9617    0.0828 C   0  0  0  0  0  0  0  0  0  0  0  0
    3.9502   -2.0704   -0.4217 O   0  0  0  0  0  0  0  0  0  0  0  0
   -2.8565   -0.2015    1.2333 C   0  0  0  0  0  0  0  0  0  0  0  0
   -2.4032   -0.2941    2.3740 O   0  0  0  0  0  0  0  0  0  0  0  0
   -4.2053   -0.1972    0.9477 N   0  0  0  0  0  0  0  0  0  0  0  0
   -5.1408   -0.3338    2.0482 C   0  0  0  0  0  0  0  0  0  0  0  0
   -4.7343    0.0535   -0.3091 C   0  0  0  0  0  0  0  0  0  0  0  0
   -5.9502    0.1504   -0.4891 O   0  0  0  0  0  0  0  0  0  0  0  0
   -3.8101    0.2029   -1.3461 N   0  0  0  0  0  0  0  0  0  0  0  0
   -4.3559    0.4425   -2.6817 C   0  0  0  0  0  0  0  0  0  0  0  0
   -0.5086    0.6741   -2.0788 H   0  0  0  0  0  0  0  0  0  0  0  0
   -1.8941    1.2645   -2.9291 H   0  0  0  0  0  0  0  0  0  0  0  0
   -1.5054   -0.4716   -2.9930 H   0  0  0  0  0  0  0  0  0  0  0  0
   -0.1457    0.3451    1.2717 H   0  0  0  0  0  0  0  0  0  0  0  0
    2.2217   -1.6326   -0.3780 H   0  0  0  0  0  0  0  0  0  0  0  0
    3.9859    2.2067    1.1887 H   0  0  0  0  0  0  0  0  0  0  0  0
    7.7192    0.0941    0.8567 H   0  0  0  0  0  0  0  0  0  0  0  0
    6.5458   -1.8763   -0.0214 H   0  0  0  0  0  0  0  0  0  0  0  0
    4.6142   -2.7607   -0.6018 H   0  0  0  0  0  0  0  0  0  0  0  0
   -6.0046   -0.9313    1.7399 H   0  0  0  0  0  0  0  0  0  0  0  0
   -5.4885    0.6650    2.3310 H   0  0  0  0  0  0  0  0  0  0  0  0
   -4.6791   -0.8101    2.9176 H   0  0  0  0  0  0  0  0  0  0  0  0
   -3.8812   -0.2271   -3.4055 H   0  0  0  0  0  0  0  0  0  0  0  0
   -5.4330    0.2586   -2.7281 H   0  0  0  0  0  0  0  0  0  0  0  0
   -4.1790    1.4872   -2.9553 H   0  0  0  0  0  0  0  0  0  0  0  0
  1  2  1  0
  2  3  2  0
  3  4  1  0
  4  5  2  3
  5  6  1  0
  6  7  1  0
  7  8  2  0
  7  9  1  0
  9 10  2  0
 10 11  1  0
 11 12  1  0
 11 13  2  0
 13 14  1  0
 14 15  2  0
 15 16  1  0
  3 17  1  0
 17 18  2  0
 17 19  1  0
 19 20  1  0
 19 21  1  0
 21 22  2  0
 21 23  1  0
 23 24  1  0
 23  2  1  0
 15  9  1  0
  1 25  1  0
  1 26  1  0
  1 27  1  0
  4 28  1  0
  6 29  1  0
 10 30  1  0
 13 31  1  0
 14 32  1  0
 16 33  1  0
 20 34  1  0
 20 35  1  0
 20 36  1  0
 24 37  1  0
 24 38  1  0
 24 39  1  0
M  END
$$$$
