
     RDKit          3D

 55 60  0  0  0  0  0  0  0  0999 V2000
    5.0132    1.3330    0.5248 O   0  0  0  0  0  0  0  0  0  0  0  0
    4.2539    0.4167    0.8355 C   0  0  0  0  0  0  0  0  0  0  0  0
    4.6891   -0.5735    1.8098 C   0  0  0  0  0  0  0  0  0  0  0  0
    4.5678   -1.9951    1.8278 C   0  0  0  0  0  0  0  0  0  0  0  0
    5.2030   -2.4310    2.9670 C   0  0  0  0  0  0  0  0  0  0  0  0
    5.7327   -1.3816    3.6431 O   0  0  0  0  0  0  0  0  0  0  0  0
    5.4405   -0.2660    2.9279 C   0  0  0  0  0  0  0  0  0  0  0  0
    2.9764    0.3011    0.2723 N   0  0  0  0  0  0  0  0  0  0  0  0
    1.9664   -0.6746    0.6671 C   0  0  0  0  0  0  0  0  0  0  0  0
    0.5509   -0.0960    0.6254 C   0  0  0  0  0  0  0  0  0  0  0  0
    0.2113    0.5619   -0.7349 C   0  0  0  0  0  0  0  0  0  0  0  0
    1.3064    1.6340   -0.9836 C   0  0  0  0  0  0  0  0  0  0  0  0
    2.7104    1.0386   -0.9569 C   0  0  0  0  0  0  0  0  0  0  0  0
    0.3079   -0.4985   -1.7168 O   0  0  0  0  0  0  0  0  0  0  0  0
   -0.1512   -0.1973   -2.9686 C   0  0  0  0  0  0  0  0  0  0  0  0
    0.2818   -1.0331   -3.9988 C   0  0  0  0  0  0  0  0  0  0  0  0
   -0.1244   -0.7869   -5.3112 C   0  0  0  0  0  0  0  0  0  0  0  0
   -0.9641    0.2892   -5.5824 C   0  0  0  0  0  0  0  0  0  0  0  0
   -1.3498    0.5199   -6.8433 F   0  0  0  0  0  0  0  0  0  0  0  0
   -1.4149    1.1208   -4.5655 C   0  0  0  0  0  0  0  0  0  0  0  0
   -1.0110    0.8649   -3.2529 C   0  0  0  0  0  0  0  0  0  0  0  0
   -1.5064    1.7006   -2.1425 C   0  0  0  0  0  0  0  0  0  0  0  0
   -2.1482    2.7162   -2.3883 O   0  0  0  0  0  0  0  0  0  0  0  0
   -1.2202    1.1707   -0.7418 C   0  0  0  0  0  0  0  0  0  0  0  0
   -2.3524    0.2156   -0.3780 C   0  0  0  0  0  0  0  0  0  0  0  0
   -2.6239    0.6820    1.0094 C   0  0  0  0  0  0  0  0  0  0  0  0
   -3.4951   -0.0751    1.9382 C   0  0  0  0  0  0  0  0  0  0  0  0
   -3.6090    0.3591    3.2661 C   0  0  0  0  0  0  0  0  0  0  0  0
   -4.4181   -0.3362    4.1689 C   0  0  0  0  0  0  0  0  0  0  0  0
   -5.1158   -1.4644    3.7445 C   0  0  0  0  0  0  0  0  0  0  0  0
   -6.1111   -2.3233    4.8530 Cl  0  0  0  0  0  0  0  0  0  0  0  0
   -5.0129   -1.9015    2.4245 C   0  0  0  0  0  0  0  0  0  0  0  0
   -4.2034   -1.2076    1.5187 C   0  0  0  0  0  0  0  0  0  0  0  0
   -2.0407    1.7903    1.3328 N   0  0  0  0  0  0  0  0  0  0  0  0
   -1.3186    2.2399    0.2037 O   0  0  0  0  0  0  0  0  0  0  0  0
    4.0923   -2.6271    1.0919 H   0  0  0  0  0  0  0  0  0  0  0  0
    5.3735   -3.4039    3.4071 H   0  0  0  0  0  0  0  0  0  0  0  0
    5.8242    0.6625    3.3292 H   0  0  0  0  0  0  0  0  0  0  0  0
    2.0557   -1.5341   -0.0070 H   0  0  0  0  0  0  0  0  0  0  0  0
    2.1473   -1.0244    1.6864 H   0  0  0  0  0  0  0  0  0  0  0  0
    0.4565    0.6406    1.4327 H   0  0  0  0  0  0  0  0  0  0  0  0
   -0.1404   -0.9175    0.8441 H   0  0  0  0  0  0  0  0  0  0  0  0
    1.1741    2.1258   -1.9533 H   0  0  0  0  0  0  0  0  0  0  0  0
    1.2395    2.4175   -0.2179 H   0  0  0  0  0  0  0  0  0  0  0  0
    2.8491    0.3372   -1.7885 H   0  0  0  0  0  0  0  0  0  0  0  0
    3.4399    1.8422   -1.1012 H   0  0  0  0  0  0  0  0  0  0  0  0
    0.9447   -1.8683   -3.7852 H   0  0  0  0  0  0  0  0  0  0  0  0
    0.2109   -1.4236   -6.1250 H   0  0  0  0  0  0  0  0  0  0  0  0
   -2.0776    1.9489   -4.8019 H   0  0  0  0  0  0  0  0  0  0  0  0
   -2.0678   -0.8381   -0.4202 H   0  0  0  0  0  0  0  0  0  0  0  0
   -3.2558    0.3683   -0.9792 H   0  0  0  0  0  0  0  0  0  0  0  0
   -3.0711    1.2423    3.6074 H   0  0  0  0  0  0  0  0  0  0  0  0
   -4.4994    0.0102    5.1962 H   0  0  0  0  0  0  0  0  0  0  0  0
   -5.5637   -2.7791    2.0943 H   0  0  0  0  0  0  0  0  0  0  0  0
   -4.1522   -1.5658    0.4948 H   0  0  0  0  0  0  0  0  0  0  0  0
  1  2  2  0
  2  3  1  0
  3  4  1  0
  4  5  2  0
  5  6  1  0
  6  7  1  0
  2  8  1  0
  8  9  1  0
  9 10  1  0
 10 11  1  0
 11 12  1  0
 12 13  1  0
 11 14  1  0
 14 15  1  0
 15 16  2  0
 16 17  1  0
 17 18  2  0
 18 19  1  0
 18 20  1  0
 20 21  2  0
 21 22  1  0
 22 23  2  0
 22 24  1  0
 24 25  1  0
 25 26  1  0
 26 27  1  0
 27 28  2  0
 28 29  1  0
 29 30  2  0
 30 31  1  0
 30 32  1  0
 32 33  2  0
 26 34  2  0
 34 35  1  0
  7  3  2  0
 13  8  1  0
 21 15  1  0
 35 24  1  0
 24 11  1  0
 33 27  1  0
  4 36  1  0
  5 37  1  0
  7 38  1  0
  9 39  1  0
  9 40  1  0
 10 41  1  0
 10 42  1  0
 12 43  1  0
 12 44  1  0
 13 45  1  0
 13 46  1  0
 16 47  1  0
 17 48  1  0
 20 49  1  0
 25 50  1  0
 25 51  1  0
 28 52  1  0
 29 53  1  0
 32 54  1  0
 33 55  1  0
M  END
$$$$
