
     RDKit          3D

 54 57  0  0  0  0  0  0  0  0999 V2000
   -5.6085    3.3986   -1.0641 C   0  0  0  0  0  0  0  0  0  0  0  0
   -4.3243    2.6417   -1.2244 C   0  0  0  0  0  0  0  0  0  0  0  0
   -4.2466    1.5616   -2.1056 C   0  0  0  0  0  0  0  0  0  0  0  0
   -3.0419    0.8587   -2.3114 C   0  0  0  0  0  0  0  0  0  0  0  0
   -3.0696   -0.2135   -3.3674 C   0  0  0  0  0  0  0  0  0  0  0  0
   -1.8977    1.2184   -1.5664 C   0  0  0  0  0  0  0  0  0  0  0  0
   -0.6551    0.5448   -1.6784 N   0  0  0  0  0  0  0  0  0  0  0  0
   -0.4808   -0.8262   -1.7774 C   0  0  0  0  0  0  0  0  0  0  0  0
   -1.3496   -1.6821   -1.6299 O   0  0  0  0  0  0  0  0  0  0  0  0
    0.9795   -1.2167   -2.0030 C   0  0  0  0  0  0  0  0  0  0  0  0
    1.6835   -1.4735   -0.7464 N   0  0  0  0  0  0  0  0  0  0  0  0
    2.2655   -0.3805   -0.1146 C   0  0  0  0  0  0  0  0  0  0  0  0
    2.0467    0.7654   -0.5227 O   0  0  0  0  0  0  0  0  0  0  0  0
    3.0961   -0.6438    0.9630 N   0  0  0  0  0  0  0  0  0  0  0  0
    3.7890    0.4748    1.5877 C   0  0  0  0  0  0  0  0  0  0  0  0
    2.9750    1.0052    2.7166 C   0  0  0  0  0  0  0  0  0  0  0  0
    1.9761    1.9547    2.8048 C   0  0  0  0  0  0  0  0  0  0  0  0
    1.5932    2.0106    4.1657 C   0  0  0  0  0  0  0  0  0  0  0  0
    2.3929    1.1062    4.8235 C   0  0  0  0  0  0  0  0  0  0  0  0
    3.2334    0.4904    3.9529 O   0  0  0  0  0  0  0  0  0  0  0  0
    3.3732   -1.9122    1.4524 C   0  0  0  0  0  0  0  0  0  0  0  0
    4.2322   -2.1578    2.2960 O   0  0  0  0  0  0  0  0  0  0  0  0
    2.5890   -3.0223    0.8882 C   0  0  0  0  0  0  0  0  0  0  0  0
    2.7066   -4.3042    1.4485 C   0  0  0  0  0  0  0  0  0  0  0  0
    1.9718   -5.3636    0.9248 C   0  0  0  0  0  0  0  0  0  0  0  0
    1.1240   -5.1396   -0.1541 C   0  0  0  0  0  0  0  0  0  0  0  0
    1.0173   -3.8614   -0.7153 C   0  0  0  0  0  0  0  0  0  0  0  0
    1.7560   -2.7837   -0.2038 C   0  0  0  0  0  0  0  0  0  0  0  0
   -1.9571    2.3471   -0.7131 C   0  0  0  0  0  0  0  0  0  0  0  0
   -0.7643    2.8197    0.0783 C   0  0  0  0  0  0  0  0  0  0  0  0
   -3.1691    3.0422   -0.5533 C   0  0  0  0  0  0  0  0  0  0  0  0
   -5.7197    4.1251   -1.8773 H   0  0  0  0  0  0  0  0  0  0  0  0
   -5.6362    3.9336   -0.1074 H   0  0  0  0  0  0  0  0  0  0  0  0
   -6.4643    2.7139   -1.0791 H   0  0  0  0  0  0  0  0  0  0  0  0
   -5.1365    1.2688   -2.6634 H   0  0  0  0  0  0  0  0  0  0  0  0
   -3.3815   -1.1682   -2.9327 H   0  0  0  0  0  0  0  0  0  0  0  0
   -2.1004   -0.3171   -3.8652 H   0  0  0  0  0  0  0  0  0  0  0  0
   -3.7862    0.0409   -4.1601 H   0  0  0  0  0  0  0  0  0  0  0  0
    0.1618    1.0262   -1.3073 H   0  0  0  0  0  0  0  0  0  0  0  0
    1.0309   -2.0772   -2.6773 H   0  0  0  0  0  0  0  0  0  0  0  0
    1.4856   -0.4067   -2.5448 H   0  0  0  0  0  0  0  0  0  0  0  0
    3.9652    1.2694    0.8529 H   0  0  0  0  0  0  0  0  0  0  0  0
    4.7722    0.1575    1.9537 H   0  0  0  0  0  0  0  0  0  0  0  0
    1.5793    2.5361    1.9843 H   0  0  0  0  0  0  0  0  0  0  0  0
    0.8357    2.6391    4.6147 H   0  0  0  0  0  0  0  0  0  0  0  0
    2.4890    0.8001    5.8545 H   0  0  0  0  0  0  0  0  0  0  0  0
    3.3656   -4.4753    2.2983 H   0  0  0  0  0  0  0  0  0  0  0  0
    2.0533   -6.3550    1.3638 H   0  0  0  0  0  0  0  0  0  0  0  0
    0.5311   -5.9572   -0.5572 H   0  0  0  0  0  0  0  0  0  0  0  0
    0.3135   -3.7415   -1.5349 H   0  0  0  0  0  0  0  0  0  0  0  0
    0.0447    3.1237   -0.5975 H   0  0  0  0  0  0  0  0  0  0  0  0
   -0.4187    2.0184    0.7420 H   0  0  0  0  0  0  0  0  0  0  0  0
   -1.0072    3.6845    0.7078 H   0  0  0  0  0  0  0  0  0  0  0  0
   -3.2137    3.9016    0.1146 H   0  0  0  0  0  0  0  0  0  0  0  0
  1  2  1  0
  2  3  2  0
  3  4  1  0
  4  5  1  0
  4  6  2  0
  6  7  1  0
  7  8  1  0
  8  9  2  0
  8 10  1  0
 10 11  1  0
 11 12  1  0
 12 13  2  0
 12 14  1  0
 14 15  1  0
 15 16  1  0
 16 17  2  0
 17 18  1  0
 18 19  2  0
 19 20  1  0
 14 21  1  0
 21 22  2  0
 21 23  1  0
 23 24  2  0
 24 25  1  0
 25 26  2  0
 26 27  1  0
 27 28  2  0
  6 29  1  0
 29 30  1  0
 29 31  2  0
 31  2  1  0
 28 11  1  0
 20 16  1  0
 28 23  1  0
  1 32  1  0
  1 33  1  0
  1 34  1  0
  3 35  1  0
  5 36  1  0
  5 37  1  0
  5 38  1  0
  7 39  1  0
 10 40  1  0
 10 41  1  0
 15 42  1  0
 15 43  1  0
 17 44  1  0
 18 45  1  0
 19 46  1  0
 24 47  1  0
 25 48  1  0
 26 49  1  0
 27 50  1  0
 30 51  1  0
 30 52  1  0
 30 53  1  0
 31 54  1  0
M  END
$$$$
