
     RDKit          3D

 39 40  0  0  0  0  0  0  0  0999 V2000
   -0.6682   -3.3699    0.0219 C   0  0  0  0  0  0  0  0  0  0  0  0
   -1.1690   -1.9251   -0.0033 C   0  0  0  0  0  0  0  0  0  0  0  0
   -2.3185   -1.9258   -0.8430 O   0  0  0  0  0  0  0  0  0  0  0  0
   -3.2243   -0.9033   -0.7604 C   0  0  0  0  0  0  0  0  0  0  0  0
   -3.0182    0.2918   -0.0627 C   0  0  0  0  0  0  0  0  0  0  0  0
   -4.0035    1.2865   -0.0505 C   0  0  0  0  0  0  0  0  0  0  0  0
   -5.2038    1.0869   -0.7430 C   0  0  0  0  0  0  0  0  0  0  0  0
   -6.2367    2.1295   -0.7253 N   0  0  0  0  0  4  0  0  0  0  0  0
   -6.0202    3.1417   -0.0444 O   0  0  0  0  0  0  0  0  0  0  0  0
   -7.2660    1.9317   -1.3854 O   0  0  0  0  0  1  0  0  0  0  0  0
   -5.4267   -0.0978   -1.4491 C   0  0  0  0  0  0  0  0  0  0  0  0
   -4.4359   -1.0829   -1.4550 C   0  0  0  0  0  0  0  0  0  0  0  0
   -4.7573   -2.5395   -2.3332 Cl  0  0  0  0  0  0  0  0  0  0  0  0
   -0.0219   -0.9972   -0.4778 C   0  0  0  0  0  0  0  0  0  0  0  0
   -0.0757   -0.3988   -1.5477 O   0  0  0  0  0  0  0  0  0  0  0  0
    1.0098   -0.9044    0.4502 N   0  0  0  0  0  0  0  0  0  0  0  0
    2.1860   -0.1309    0.3524 C   0  0  0  0  0  0  0  0  0  0  0  0
    2.4871    0.7068   -0.7225 C   0  0  0  0  0  0  0  0  0  0  0  0
    3.6768    1.4461   -0.7363 C   0  0  0  0  0  0  0  0  0  0  0  0
    4.5867    1.3472    0.3202 C   0  0  0  0  0  0  0  0  0  0  0  0
    5.8341    2.1538    0.2607 C   0  0  0  0  0  0  0  0  0  0  0  0
    6.9044    1.7124    0.9893 N   0  0  0  0  0  0  0  0  0  0  0  0
    5.9212    3.1560   -0.4363 O   0  0  0  0  0  0  0  0  0  0  0  0
    4.2870    0.5186    1.4052 C   0  0  0  0  0  0  0  0  0  0  0  0
    3.0945   -0.2154    1.4171 C   0  0  0  0  0  0  0  0  0  0  0  0
   -0.3438   -3.6844   -0.9768 H   0  0  0  0  0  0  0  0  0  0  0  0
    0.1723   -3.5052    0.7090 H   0  0  0  0  0  0  0  0  0  0  0  0
   -1.4730   -4.0494    0.3235 H   0  0  0  0  0  0  0  0  0  0  0  0
   -1.4528   -1.6511    1.0212 H   0  0  0  0  0  0  0  0  0  0  0  0
   -2.0933    0.4992    0.4656 H   0  0  0  0  0  0  0  0  0  0  0  0
   -3.8129    2.2108    0.4931 H   0  0  0  0  0  0  0  0  0  0  0  0
   -6.3543   -0.2637   -1.9927 H   0  0  0  0  0  0  0  0  0  0  0  0
    0.9205   -1.4562    1.2942 H   0  0  0  0  0  0  0  0  0  0  0  0
    1.8193    0.8181   -1.5714 H   0  0  0  0  0  0  0  0  0  0  0  0
    3.8889    2.0991   -1.5816 H   0  0  0  0  0  0  0  0  0  0  0  0
    7.7743    2.2023    0.8191 H   0  0  0  0  0  0  0  0  0  0  0  0
    6.9717    0.7576    1.3102 H   0  0  0  0  0  0  0  0  0  0  0  0
    4.9536    0.4525    2.2602 H   0  0  0  0  0  0  0  0  0  0  0  0
    2.8875   -0.8476    2.2771 H   0  0  0  0  0  0  0  0  0  0  0  0
  1  2  1  0
  2  3  1  0
  3  4  1  0
  4  5  2  0
  5  6  1  0
  6  7  2  0
  7  8  1  0
  8  9  2  0
  8 10  1  0
  7 11  1  0
 11 12  2  0
 12 13  1  0
  2 14  1  0
 14 15  2  0
 14 16  1  0
 16 17  1  0
 17 18  2  0
 18 19  1  0
 19 20  2  0
 20 21  1  0
 21 22  1  0
 21 23  2  0
 20 24  1  0
 24 25  2  0
 12  4  1  0
 25 17  1  0
  1 26  1  0
  1 27  1  0
  1 28  1  0
  2 29  1  0
  5 30  1  0
  6 31  1  0
 11 32  1  0
 16 33  1  0
 18 34  1  0
 19 35  1  0
 22 36  1  0
 22 37  1  0
 24 38  1  0
 25 39  1  0
M  CHG  2   8   1  10  -1
M  END
$$$$
