
     RDKit          3D

 60 64  0  0  0  0  0  0  0  0999 V2000
   -6.4482   -0.7959    3.8230 C   0  0  0  0  0  0  0  0  0  0  0  0
   -6.1283   -0.1698    2.4979 C   0  0  0  0  0  0  0  0  0  0  0  0
   -5.2941   -0.8282    1.5871 C   0  0  0  0  0  0  0  0  0  0  0  0
   -5.0150   -0.2594    0.3424 C   0  0  0  0  0  0  0  0  0  0  0  0
   -5.5789    0.9718   -0.0202 C   0  0  0  0  0  0  0  0  0  0  0  0
   -5.2635    1.5966   -1.3560 C   0  0  0  0  0  0  0  0  0  0  0  0
   -4.1934    2.5659   -1.2470 N   0  0  0  0  0  0  0  0  0  0  0  0
   -4.4611    3.8915   -1.1343 N   0  0  0  0  0  0  0  0  0  0  0  0
   -3.2962    4.5364   -1.0610 N   0  0  0  0  0  0  0  0  0  0  0  0
   -2.3115    3.6021   -1.1510 C   0  0  0  0  0  0  0  0  0  0  0  0
   -0.8811    3.7339   -1.1237 C   0  0  0  0  0  0  0  0  0  0  0  0
   -0.2556    4.7804   -0.9941 O   0  0  0  0  0  0  0  0  0  0  0  0
   -0.2394    2.5076   -1.2579 N   0  0  0  0  0  0  0  0  0  0  0  0
   -0.8969    1.2901   -1.3879 C   0  0  0  0  0  0  0  0  0  0  0  0
   -0.0282    0.0453   -1.5199 C   0  0  0  0  0  0  0  0  0  0  0  0
    0.8629   -0.1599   -0.2927 C   0  0  0  0  0  0  0  0  0  0  0  0
    2.0581   -1.0325   -0.6468 C   0  0  0  0  0  0  0  0  0  0  0  0
    2.9313   -0.3221   -1.6180 N   0  0  0  0  0  0  0  0  0  0  0  0
    4.2457   -1.2459   -2.2250 S   0  0  0  0  0  6  0  0  0  0  0  0
    5.0819   -0.3671   -3.0146 O   0  0  0  0  0  0  0  0  0  0  0  0
    3.6846   -2.4565   -2.7881 O   0  0  0  0  0  0  0  0  0  0  0  0
    5.1502   -1.6627   -0.7575 C   0  0  0  0  0  0  0  0  0  0  0  0
    5.1978   -2.9863   -0.3150 C   0  0  0  0  0  0  0  0  0  0  0  0
    5.9133   -3.2952    0.8433 C   0  0  0  0  0  0  0  0  0  0  0  0
    6.5725   -2.2878    1.5629 C   0  0  0  0  0  0  0  0  0  0  0  0
    7.3673   -2.6298    2.7896 C   0  0  0  0  0  0  0  0  0  0  0  0
    6.5373   -0.9683    1.0898 C   0  0  0  0  0  0  0  0  0  0  0  0
    5.8270   -0.6520   -0.0688 C   0  0  0  0  0  0  0  0  0  0  0  0
    2.2185    0.4654   -2.6636 C   0  0  0  0  0  0  0  0  0  0  0  0
    0.7659    0.0394   -2.8331 C   0  0  0  0  0  0  0  0  0  0  0  0
   -2.1955    1.1618   -1.4164 N   0  0  0  0  0  0  0  0  0  0  0  0
   -2.8464    2.3442   -1.2879 C   0  0  0  0  0  0  0  0  0  0  0  0
   -6.4202    1.6258    0.8909 C   0  0  0  0  0  0  0  0  0  0  0  0
   -6.6979    1.0558    2.1353 C   0  0  0  0  0  0  0  0  0  0  0  0
   -7.2982   -1.4771    3.7192 H   0  0  0  0  0  0  0  0  0  0  0  0
   -5.5881   -1.3554    4.2061 H   0  0  0  0  0  0  0  0  0  0  0  0
   -6.6968   -0.0327    4.5683 H   0  0  0  0  0  0  0  0  0  0  0  0
   -4.8505   -1.7877    1.8443 H   0  0  0  0  0  0  0  0  0  0  0  0
   -4.3476   -0.7825   -0.3406 H   0  0  0  0  0  0  0  0  0  0  0  0
   -4.9604    0.8387   -2.0881 H   0  0  0  0  0  0  0  0  0  0  0  0
   -6.1458    2.1015   -1.7671 H   0  0  0  0  0  0  0  0  0  0  0  0
    0.7663    2.5646   -1.2095 H   0  0  0  0  0  0  0  0  0  0  0  0
   -0.7228   -0.8062   -1.5709 H   0  0  0  0  0  0  0  0  0  0  0  0
    1.2174    0.7933    0.1178 H   0  0  0  0  0  0  0  0  0  0  0  0
    0.2771   -0.6345    0.5044 H   0  0  0  0  0  0  0  0  0  0  0  0
    1.7194   -1.9916   -1.0541 H   0  0  0  0  0  0  0  0  0  0  0  0
    2.6221   -1.2280    0.2704 H   0  0  0  0  0  0  0  0  0  0  0  0
    4.6905   -3.7784   -0.8623 H   0  0  0  0  0  0  0  0  0  0  0  0
    5.9568   -4.3286    1.1816 H   0  0  0  0  0  0  0  0  0  0  0  0
    6.9328   -3.4913    3.3088 H   0  0  0  0  0  0  0  0  0  0  0  0
    8.4001   -2.8662    2.5131 H   0  0  0  0  0  0  0  0  0  0  0  0
    7.3712   -1.7933    3.4970 H   0  0  0  0  0  0  0  0  0  0  0  0
    7.0671   -0.1801    1.6217 H   0  0  0  0  0  0  0  0  0  0  0  0
    5.8062    0.3737   -0.4312 H   0  0  0  0  0  0  0  0  0  0  0  0
    2.2813    1.5210   -2.3781 H   0  0  0  0  0  0  0  0  0  0  0  0
    2.7184    0.3863   -3.6353 H   0  0  0  0  0  0  0  0  0  0  0  0
    0.7564   -0.9816   -3.2378 H   0  0  0  0  0  0  0  0  0  0  0  0
    0.2823    0.6709   -3.5878 H   0  0  0  0  0  0  0  0  0  0  0  0
   -6.8604    2.5900    0.6402 H   0  0  0  0  0  0  0  0  0  0  0  0
   -7.3578    1.5807    2.8232 H   0  0  0  0  0  0  0  0  0  0  0  0
  1  2  1  0
  2  3  2  0
  3  4  1  0
  4  5  2  0
  5  6  1  0
  6  7  1  0
  7  8  1  0
  8  9  2  0
  9 10  1  0
 10 11  1  0
 11 12  2  0
 11 13  1  0
 13 14  1  0
 14 15  1  0
 15 16  1  0
 16 17  1  0
 17 18  1  0
 18 19  1  0
 19 20  2  0
 19 21  2  0
 19 22  1  0
 22 23  2  0
 23 24  1  0
 24 25  2  0
 25 26  1  0
 25 27  1  0
 27 28  2  0
 18 29  1  0
 29 30  1  0
 14 31  2  0
 31 32  1  0
  5 33  1  0
 33 34  2  0
 34  2  1  0
 32  7  1  0
 32 10  2  0
 30 15  1  0
 28 22  1  0
  1 35  1  0
  1 36  1  0
  1 37  1  0
  3 38  1  0
  4 39  1  0
  6 40  1  0
  6 41  1  0
 13 42  1  0
 15 43  1  0
 16 44  1  0
 16 45  1  0
 17 46  1  0
 17 47  1  0
 23 48  1  0
 24 49  1  0
 26 50  1  0
 26 51  1  0
 26 52  1  0
 27 53  1  0
 28 54  1  0
 29 55  1  0
 29 56  1  0
 30 57  1  0
 30 58  1  0
 33 59  1  0
 34 60  1  0
M  END
$$$$
