
     RDKit          3D

 51 55  0  0  0  0  0  0  0  0999 V2000
   -3.7096    2.8423   -0.6676 O   0  0  0  0  0  0  0  0  0  0  0  0
   -3.1347    1.7439   -0.7563 C   0  0  0  0  0  0  0  0  0  0  0  0
   -3.7354    0.4763   -0.0996 C   0  0  0  0  0  0  0  0  0  0  0  0
   -5.1638    0.5921    0.5133 C   0  0  0  0  0  0  0  0  0  0  0  0
   -4.5026    0.8492    1.8776 C   0  0  0  0  0  0  0  0  0  0  0  0
   -3.2580    0.1239    1.3392 C   0  0  0  0  0  0  0  0  0  0  0  0
   -1.9483    1.6606   -1.4810 N   0  0  0  0  0  0  0  0  0  0  0  0
   -1.4433    2.8696   -2.1496 C   0  0  0  0  0  0  0  0  0  0  0  0
   -0.2340    2.4642   -2.9893 C   0  0  0  0  0  0  0  0  0  0  0  0
    0.0127    1.0693   -2.5094 C   0  0  0  0  0  0  0  0  0  0  0  0
    1.0883    0.2617   -2.8562 C   0  0  0  0  0  0  0  0  0  0  0  0
    1.1348   -1.0243   -2.3173 C   0  0  0  0  0  0  0  0  0  0  0  0
    2.5063   -2.0897   -2.7105 S   0  0  0  0  0  6  0  0  0  0  0  0
    3.0159   -1.6811   -4.0027 O   0  0  0  0  0  0  0  0  0  0  0  0
    2.0994   -3.4556   -2.4610 O   0  0  0  0  0  0  0  0  0  0  0  0
    3.6762   -1.6333   -1.5775 N   0  0  0  0  0  0  0  0  0  0  0  0
    3.3307   -1.6199   -0.1971 C   0  0  0  0  0  0  0  0  0  0  0  0
    3.0265   -2.8062    0.4727 C   0  0  0  0  0  0  0  0  0  0  0  0
    2.6231   -2.7703    1.8091 C   0  0  0  0  0  0  0  0  0  0  0  0
    2.5195   -1.5479    2.4690 C   0  0  0  0  0  0  0  0  0  0  0  0
    2.8554   -0.3635    1.8054 C   0  0  0  0  0  0  0  0  0  0  0  0
    3.2491   -0.3961    0.4687 C   0  0  0  0  0  0  0  0  0  0  0  0
    2.8058    0.8712    2.4009 O   0  0  0  0  0  0  0  0  0  0  0  0
    2.7197    0.7603    3.8270 C   0  0  0  0  0  0  0  0  0  0  0  0
    1.6890   -0.2840    4.2230 C   0  0  0  0  0  0  0  0  0  0  0  0
    2.0860   -1.5833    3.7688 O   0  0  0  0  0  0  0  0  0  0  0  0
    0.1058   -1.4939   -1.4866 C   0  0  0  0  0  0  0  0  0  0  0  0
   -0.9713   -0.6617   -1.1523 C   0  0  0  0  0  0  0  0  0  0  0  0
   -1.0153    0.6239   -1.6657 C   0  0  0  0  0  0  0  0  0  0  0  0
   -3.7186   -0.3675   -0.8008 H   0  0  0  0  0  0  0  0  0  0  0  0
   -5.7339   -0.3439    0.4702 H   0  0  0  0  0  0  0  0  0  0  0  0
   -5.7977    1.3997    0.1378 H   0  0  0  0  0  0  0  0  0  0  0  0
   -4.3356    1.9103    2.0951 H   0  0  0  0  0  0  0  0  0  0  0  0
   -4.9898    0.3829    2.7375 H   0  0  0  0  0  0  0  0  0  0  0  0
   -2.3012    0.5514    1.6516 H   0  0  0  0  0  0  0  0  0  0  0  0
   -3.2489   -0.9524    1.5476 H   0  0  0  0  0  0  0  0  0  0  0  0
   -1.1626    3.5935   -1.3743 H   0  0  0  0  0  0  0  0  0  0  0  0
   -2.2317    3.3210   -2.7626 H   0  0  0  0  0  0  0  0  0  0  0  0
    0.6196    3.1238   -2.8084 H   0  0  0  0  0  0  0  0  0  0  0  0
   -0.4797    2.4606   -4.0561 H   0  0  0  0  0  0  0  0  0  0  0  0
    1.8636    0.6239   -3.5252 H   0  0  0  0  0  0  0  0  0  0  0  0
    4.2669   -0.8805   -1.9273 H   0  0  0  0  0  0  0  0  0  0  0  0
    3.0985   -3.7642   -0.0376 H   0  0  0  0  0  0  0  0  0  0  0  0
    2.3780   -3.6928    2.3284 H   0  0  0  0  0  0  0  0  0  0  0  0
    3.4811    0.5350   -0.0387 H   0  0  0  0  0  0  0  0  0  0  0  0
    3.7142    0.5116    4.2175 H   0  0  0  0  0  0  0  0  0  0  0  0
    2.4344    1.7416    4.2189 H   0  0  0  0  0  0  0  0  0  0  0  0
    1.5938   -0.3283    5.3124 H   0  0  0  0  0  0  0  0  0  0  0  0
    0.7021   -0.0543    3.8021 H   0  0  0  0  0  0  0  0  0  0  0  0
    0.1425   -2.5046   -1.0828 H   0  0  0  0  0  0  0  0  0  0  0  0
   -1.7228   -1.0645   -0.4905 H   0  0  0  0  0  0  0  0  0  0  0  0
  1  2  2  0
  2  3  1  0
  3  4  1  0
  4  5  1  0
  5  6  1  0
  2  7  1  0
  7  8  1  0
  8  9  1  0
  9 10  1  0
 10 11  2  0
 11 12  1  0
 12 13  1  0
 13 14  2  0
 13 15  2  0
 13 16  1  0
 16 17  1  0
 17 18  2  0
 18 19  1  0
 19 20  2  0
 20 21  1  0
 21 22  2  0
 21 23  1  0
 23 24  1  0
 24 25  1  0
 25 26  1  0
 12 27  2  0
 27 28  1  0
 28 29  2  0
  6  3  1  0
 29  7  1  0
 29 10  1  0
 22 17  1  0
 26 20  1  0
  3 30  1  0
  4 31  1  0
  4 32  1  0
  5 33  1  0
  5 34  1  0
  6 35  1  0
  6 36  1  0
  8 37  1  0
  8 38  1  0
  9 39  1  0
  9 40  1  0
 11 41  1  0
 16 42  1  0
 18 43  1  0
 19 44  1  0
 22 45  1  0
 24 46  1  0
 24 47  1  0
 25 48  1  0
 25 49  1  0
 27 50  1  0
 28 51  1  0
M  END
$$$$
