
     RDKit          3D

 37 38  0  0  0  0  0  0  0  0999 V2000
   -7.6557   -0.6175    0.6742 C   0  0  0  0  0  0  0  0  0  0  0  0
   -6.1551   -0.7686    0.7158 C   0  0  0  0  0  0  0  0  0  0  0  0
   -5.6359   -1.6954    1.3267 O   0  0  0  0  0  0  0  0  0  0  0  0
   -5.5102    0.2132   -0.0151 N   0  0  0  0  0  0  0  0  0  0  0  0
   -4.1215    0.3758   -0.1963 C   0  0  0  0  0  0  0  0  0  0  0  0
   -3.1555   -0.4582    0.3700 C   0  0  0  0  0  0  0  0  0  0  0  0
   -1.7914   -0.2293    0.1426 C   0  0  0  0  0  0  0  0  0  0  0  0
   -1.3775    0.8416   -0.6570 C   0  0  0  0  0  0  0  0  0  0  0  0
    0.0559    1.1299   -0.9308 C   0  0  0  0  0  0  0  0  0  0  0  0
    0.4417    2.0574   -1.6255 O   0  0  0  0  0  0  0  0  0  0  0  0
    0.8532    0.2313   -0.3091 O   0  0  0  0  0  0  0  0  0  0  0  0
    2.2481    0.4454   -0.5271 C   0  0  0  0  0  0  0  0  0  0  0  0
    3.0671   -0.6071    0.2087 C   0  0  0  0  0  0  0  0  0  0  0  0
    2.5528   -1.4969    0.8853 O   0  0  0  0  0  0  0  0  0  0  0  0
    4.5584   -0.5496    0.0994 C   0  0  0  0  0  0  0  0  0  0  0  0
    5.2213    0.4335   -0.6507 C   0  0  0  0  0  0  0  0  0  0  0  0
    6.6184    0.4392   -0.7179 C   0  0  0  0  0  0  0  0  0  0  0  0
    7.3476   -0.5312   -0.0398 C   0  0  0  0  0  0  0  0  0  0  0  0
    8.6846   -0.5191   -0.1089 F   0  0  0  0  0  0  0  0  0  0  0  0
    6.7081   -1.5115    0.7073 C   0  0  0  0  0  0  0  0  0  0  0  0
    5.3133   -1.5215    0.7775 C   0  0  0  0  0  0  0  0  0  0  0  0
   -2.3427    1.6798   -1.2255 C   0  0  0  0  0  0  0  0  0  0  0  0
   -3.7033    1.4473   -0.9957 C   0  0  0  0  0  0  0  0  0  0  0  0
   -7.9437    0.4373    0.7042 H   0  0  0  0  0  0  0  0  0  0  0  0
   -8.0948   -1.1131    1.5448 H   0  0  0  0  0  0  0  0  0  0  0  0
   -8.0408   -1.0787   -0.2390 H   0  0  0  0  0  0  0  0  0  0  0  0
   -6.0999    0.8905   -0.4819 H   0  0  0  0  0  0  0  0  0  0  0  0
   -3.4260   -1.3017    0.9985 H   0  0  0  0  0  0  0  0  0  0  0  0
   -1.0677   -0.9010    0.6009 H   0  0  0  0  0  0  0  0  0  0  0  0
    2.5226    1.4325   -0.1388 H   0  0  0  0  0  0  0  0  0  0  0  0
    2.4584    0.3617   -1.5992 H   0  0  0  0  0  0  0  0  0  0  0  0
    4.6833    1.2062   -1.1925 H   0  0  0  0  0  0  0  0  0  0  0  0
    7.1434    1.1948   -1.2951 H   0  0  0  0  0  0  0  0  0  0  0  0
    7.2946   -2.2609    1.2299 H   0  0  0  0  0  0  0  0  0  0  0  0
    4.8169   -2.2929    1.3650 H   0  0  0  0  0  0  0  0  0  0  0  0
   -2.0416    2.5185   -1.8506 H   0  0  0  0  0  0  0  0  0  0  0  0
   -4.4263    2.1182   -1.4529 H   0  0  0  0  0  0  0  0  0  0  0  0
  1  2  1  0
  2  3  2  0
  2  4  1  0
  4  5  1  0
  5  6  2  0
  6  7  1  0
  7  8  2  0
  8  9  1  0
  9 10  2  0
  9 11  1  0
 11 12  1  0
 12 13  1  0
 13 14  2  0
 13 15  1  0
 15 16  2  0
 16 17  1  0
 17 18  2  0
 18 19  1  0
 18 20  1  0
 20 21  2  0
  8 22  1  0
 22 23  2  0
 23  5  1  0
 21 15  1  0
  1 24  1  0
  1 25  1  0
  1 26  1  0
  4 27  1  0
  6 28  1  0
  7 29  1  0
 12 30  1  0
 12 31  1  0
 16 32  1  0
 17 33  1  0
 20 34  1  0
 21 35  1  0
 22 36  1  0
 23 37  1  0
M  END
$$$$
