
     RDKit          3D

 43 45  0  0  0  0  0  0  0  0999 V2000
   -1.2473   -3.0465    2.0416 C   0  0  0  0  0  0  0  0  0  0  0  0
   -1.2509   -1.8715    1.1114 C   0  0  0  0  0  0  0  0  0  0  0  0
   -0.0755   -1.4414    0.5360 C   0  0  0  0  0  0  0  0  0  0  0  0
   -0.1488   -0.3428   -0.2959 C   0  0  0  0  0  0  0  0  0  0  0  0
    0.9865    0.1748   -0.9406 N   0  0  0  0  0  0  0  0  0  0  0  0
    2.2118   -0.0485   -0.4057 N   0  0  0  0  0  0  0  0  0  0  0  0
    3.1690    0.6333   -0.9416 C   0  0  0  0  0  0  0  0  0  0  0  0
    4.5697    0.5089   -0.4929 C   0  0  0  0  0  0  0  0  0  0  0  0
    5.5356    1.1897   -1.2478 C   0  0  0  0  0  0  0  0  0  0  0  0
    6.8899    1.1106   -0.9038 C   0  0  0  0  0  0  0  0  0  0  0  0
    7.2962    0.3516    0.1948 C   0  0  0  0  0  0  0  0  0  0  0  0
    6.3489   -0.3281    0.9587 C   0  0  0  0  0  0  0  0  0  0  0  0
    4.9936   -0.2416    0.6072 C   0  0  0  0  0  0  0  0  0  0  0  0
    4.0564   -0.9418    1.4554 N   0  0  0  0  0  4  0  0  0  0  0  0
    3.9013   -2.1524    1.2410 O   0  0  0  0  0  0  0  0  0  0  0  0
    3.5590   -0.2967    2.3883 O   0  0  0  0  0  1  0  0  0  0  0  0
   -1.3100    0.2750   -0.5576 N   0  0  0  0  0  0  0  0  0  0  0  0
   -2.4238   -0.2057    0.0376 C   0  0  0  0  0  0  0  0  0  0  0  0
   -3.6764    0.4602   -0.2446 N   0  0  0  0  0  0  0  0  0  0  0  0
   -3.7208    1.5383   -1.0905 N   0  0  0  0  0  0  0  0  0  0  0  0
   -5.0043    1.8973   -1.1408 C   0  0  0  0  0  0  0  0  0  0  0  0
   -5.4217    3.0459   -1.9800 C   0  0  0  0  0  0  0  0  0  0  0  0
   -5.8090    1.0787   -0.3307 C   0  0  0  0  0  0  0  0  0  0  0  0
   -4.9502    0.1619    0.2396 C   0  0  0  0  0  0  0  0  0  0  0  0
   -5.2574   -0.9441    1.1811 C   0  0  0  0  0  0  0  0  0  0  0  0
   -2.4317   -1.2687    0.8724 N   0  0  0  0  0  0  0  0  0  0  0  0
   -0.6116   -2.8393    2.9080 H   0  0  0  0  0  0  0  0  0  0  0  0
   -0.8755   -3.9372    1.5266 H   0  0  0  0  0  0  0  0  0  0  0  0
   -2.2582   -3.2596    2.4036 H   0  0  0  0  0  0  0  0  0  0  0  0
    0.8683   -1.9349    0.7325 H   0  0  0  0  0  0  0  0  0  0  0  0
    0.7380    1.0560   -1.3892 H   0  0  0  0  0  0  0  0  0  0  0  0
    2.9740    1.3301   -1.7781 H   0  0  0  0  0  0  0  0  0  0  0  0
    5.2508    1.7839   -2.1145 H   0  0  0  0  0  0  0  0  0  0  0  0
    7.6317    1.6425   -1.4970 H   0  0  0  0  0  0  0  0  0  0  0  0
    8.3509    0.2938    0.4559 H   0  0  0  0  0  0  0  0  0  0  0  0
    6.6652   -0.9162    1.8178 H   0  0  0  0  0  0  0  0  0  0  0  0
   -6.5118    3.1458   -1.9976 H   0  0  0  0  0  0  0  0  0  0  0  0
   -5.0014    3.9779   -1.5890 H   0  0  0  0  0  0  0  0  0  0  0  0
   -5.0780    2.9158   -3.0115 H   0  0  0  0  0  0  0  0  0  0  0  0
   -6.8778    1.1427   -0.1797 H   0  0  0  0  0  0  0  0  0  0  0  0
   -4.7172   -0.8236    2.1252 H   0  0  0  0  0  0  0  0  0  0  0  0
   -5.0112   -1.9157    0.7415 H   0  0  0  0  0  0  0  0  0  0  0  0
   -6.3265   -0.9584    1.4202 H   0  0  0  0  0  0  0  0  0  0  0  0
  1  2  1  0
  2  3  2  0
  3  4  1  0
  4  5  1  0
  5  6  1  0
  6  7  2  3
  7  8  1  0
  8  9  2  0
  9 10  1  0
 10 11  2  0
 11 12  1  0
 12 13  2  0
 13 14  1  0
 14 15  2  0
 14 16  1  0
  4 17  2  0
 17 18  1  0
 18 19  1  0
 19 20  1  0
 20 21  2  0
 21 22  1  0
 21 23  1  0
 23 24  2  0
 24 25  1  0
 18 26  2  0
 26  2  1  0
 13  8  1  0
 24 19  1  0
  1 27  1  0
  1 28  1  0
  1 29  1  0
  3 30  1  0
  5 31  1  0
  7 32  1  0
  9 33  1  0
 10 34  1  0
 11 35  1  0
 12 36  1  0
 22 37  1  0
 22 38  1  0
 22 39  1  0
 23 40  1  0
 25 41  1  0
 25 42  1  0
 25 43  1  0
M  CHG  2  14   1  16  -1
M  END
$$$$
