
     RDKit          3D

 47 48  0  0  0  0  0  0  0  0999 V2000
    4.5021    2.9154    4.3958 C   0  0  0  0  0  0  0  0  0  0  0  0
    3.1266    2.3282    4.1473 C   0  0  0  0  0  0  0  0  0  0  0  0
    2.9812    2.1126    2.7374 O   0  0  0  0  0  0  0  0  0  0  0  0
    1.7876    1.5823    2.3655 C   0  0  0  0  0  0  0  0  0  0  0  0
    0.8807    1.2981    3.1356 O   0  0  0  0  0  0  0  0  0  0  0  0
    1.7323    1.3958    0.8877 C   0  0  0  0  0  0  0  0  0  0  0  0
    2.8758    1.7262    0.1134 C   0  0  0  0  0  0  0  0  0  0  0  0
    3.8026    2.0010   -0.5301 N   0  0  0  0  0  0  0  0  0  0  0  0
    0.5903    0.8819    0.3859 C   0  0  0  0  0  0  0  0  0  0  0  0
    0.1951    0.5729   -0.9960 C   0  0  0  0  0  0  0  0  0  0  0  0
   -0.7745   -0.3466   -1.2629 C   0  0  0  0  0  0  0  0  0  0  0  0
   -1.3219   -1.1617   -0.2498 N   0  0  0  0  0  0  0  0  0  0  0  0
   -0.5005   -2.1926    0.4331 C   0  0  0  0  0  0  0  0  0  0  0  0
   -1.3455   -3.4324    0.7630 C   0  0  0  0  0  0  0  0  0  0  0  0
   -2.4696   -3.1536    1.6121 O   0  0  0  0  0  0  0  0  0  0  0  0
   -2.9881   -1.8243    1.4458 C   0  0  0  0  0  0  0  0  0  0  0  0
   -2.7658   -1.2563    0.0355 C   0  0  0  0  0  0  0  0  0  0  0  0
   -1.2417   -0.5979   -2.7325 C   0  0  0  0  0  0  0  0  0  0  0  0
   -2.6644   -0.0765   -2.9993 C   0  0  0  0  0  0  0  0  0  0  0  0
   -1.1735   -2.0925   -3.0867 C   0  0  0  0  0  0  0  0  0  0  0  0
   -0.3623    0.0225   -3.6980 O   0  0  0  0  0  0  0  0  0  0  0  0
   -0.0290    1.3639   -3.3749 C   0  0  0  0  0  0  0  0  0  0  0  0
    0.8176    1.3761   -2.1152 C   0  0  0  0  0  0  0  0  0  0  0  0
    5.2818    2.2374    4.0330 H   0  0  0  0  0  0  0  0  0  0  0  0
    4.6614    3.0988    5.4620 H   0  0  0  0  0  0  0  0  0  0  0  0
    4.6226    3.8585    3.8526 H   0  0  0  0  0  0  0  0  0  0  0  0
    3.0289    1.3750    4.6787 H   0  0  0  0  0  0  0  0  0  0  0  0
    2.3571    3.0265    4.4951 H   0  0  0  0  0  0  0  0  0  0  0  0
   -0.1972    0.6361    1.1033 H   0  0  0  0  0  0  0  0  0  0  0  0
   -0.1054   -1.7687    1.3630 H   0  0  0  0  0  0  0  0  0  0  0  0
    0.3460   -2.4879   -0.1973 H   0  0  0  0  0  0  0  0  0  0  0  0
   -0.7308   -4.1835    1.2691 H   0  0  0  0  0  0  0  0  0  0  0  0
   -1.7287   -3.8903   -0.1563 H   0  0  0  0  0  0  0  0  0  0  0  0
   -4.0578   -1.8593    1.6748 H   0  0  0  0  0  0  0  0  0  0  0  0
   -2.5112   -1.1840    2.1974 H   0  0  0  0  0  0  0  0  0  0  0  0
   -3.2401   -1.9201   -0.6945 H   0  0  0  0  0  0  0  0  0  0  0  0
   -3.2263   -0.2648   -0.0327 H   0  0  0  0  0  0  0  0  0  0  0  0
   -2.8534   -0.0006   -4.0767 H   0  0  0  0  0  0  0  0  0  0  0  0
   -3.4354   -0.7245   -2.5749 H   0  0  0  0  0  0  0  0  0  0  0  0
   -2.8102    0.9264   -2.5829 H   0  0  0  0  0  0  0  0  0  0  0  0
   -0.1609   -2.4836   -2.9310 H   0  0  0  0  0  0  0  0  0  0  0  0
   -1.8697   -2.6979   -2.4992 H   0  0  0  0  0  0  0  0  0  0  0  0
   -1.4038   -2.2505   -4.1473 H   0  0  0  0  0  0  0  0  0  0  0  0
    0.5460    1.7777   -4.2100 H   0  0  0  0  0  0  0  0  0  0  0  0
   -0.9292    1.9791   -3.2701 H   0  0  0  0  0  0  0  0  0  0  0  0
    0.9662    2.4212   -1.8209 H   0  0  0  0  0  0  0  0  0  0  0  0
    1.7949    0.9365   -2.3483 H   0  0  0  0  0  0  0  0  0  0  0  0
  1  2  1  0
  2  3  1  0
  3  4  1  0
  4  5  2  0
  4  6  1  0
  6  7  1  0
  7  8  3  0
  6  9  2  3
  9 10  1  0
 10 11  2  0
 11 12  1  0
 12 13  1  0
 13 14  1  0
 14 15  1  0
 15 16  1  0
 16 17  1  0
 11 18  1  0
 18 19  1  0
 18 20  1  0
 18 21  1  0
 21 22  1  0
 22 23  1  0
 23 10  1  0
 17 12  1  0
  1 24  1  0
  1 25  1  0
  1 26  1  0
  2 27  1  0
  2 28  1  0
  9 29  1  0
 13 30  1  0
 13 31  1  0
 14 32  1  0
 14 33  1  0
 16 34  1  0
 16 35  1  0
 17 36  1  0
 17 37  1  0
 19 38  1  0
 19 39  1  0
 19 40  1  0
 20 41  1  0
 20 42  1  0
 20 43  1  0
 22 44  1  0
 22 45  1  0
 23 46  1  0
 23 47  1  0
M  END
$$$$
