
     RDKit          3D

 55 60  0  0  0  0  0  0  0  0999 V2000
   -3.6490    2.6222    0.2342 O   0  0  0  0  0  0  0  0  0  0  0  0
   -3.7621    1.3962    0.2508 C   0  0  0  0  0  0  0  0  0  0  0  0
   -4.8468    0.7602   -0.4831 C   0  0  0  0  0  0  0  0  0  0  0  0
   -5.6354   -0.3928   -0.2073 C   0  0  0  0  0  0  0  0  0  0  0  0
   -6.5263   -0.5170   -1.2498 C   0  0  0  0  0  0  0  0  0  0  0  0
   -6.3649    0.4954   -2.1376 O   0  0  0  0  0  0  0  0  0  0  0  0
   -5.3692    1.2762   -1.6573 C   0  0  0  0  0  0  0  0  0  0  0  0
   -2.8529    0.5884    0.9460 N   0  0  0  0  0  0  0  0  0  0  0  0
   -1.7847    1.2308    1.6937 C   0  0  0  0  0  0  0  0  0  0  0  0
   -0.4370    1.0349    0.9935 C   0  0  0  0  0  0  0  0  0  0  0  0
   -0.2308   -0.4065    0.4236 C   0  0  0  0  0  0  0  0  0  0  0  0
   -1.2927   -1.3450    1.0644 C   0  0  0  0  0  0  0  0  0  0  0  0
   -2.7130   -0.8532    0.7660 C   0  0  0  0  0  0  0  0  0  0  0  0
   -0.4975   -0.2869   -1.0002 O   0  0  0  0  0  0  0  0  0  0  0  0
   -0.1678   -1.3663   -1.7705 C   0  0  0  0  0  0  0  0  0  0  0  0
   -0.7688   -1.4286   -3.0304 C   0  0  0  0  0  0  0  0  0  0  0  0
   -0.5090   -2.5123   -3.8725 C   0  0  0  0  0  0  0  0  0  0  0  0
    0.3557   -3.5196   -3.4500 C   0  0  0  0  0  0  0  0  0  0  0  0
    0.5967   -4.5597   -4.2599 F   0  0  0  0  0  0  0  0  0  0  0  0
    0.9742   -3.4624   -2.2044 C   0  0  0  0  0  0  0  0  0  0  0  0
    0.7129   -2.3724   -1.3698 C   0  0  0  0  0  0  0  0  0  0  0  0
    1.3696   -2.2600   -0.0540 C   0  0  0  0  0  0  0  0  0  0  0  0
    2.0123   -3.2083    0.3819 O   0  0  0  0  0  0  0  0  0  0  0  0
    1.2215   -0.9105    0.6449 C   0  0  0  0  0  0  0  0  0  0  0  0
    2.3200    0.0040    0.1183 C   0  0  0  0  0  0  0  0  0  0  0  0
    2.9365    0.4295    1.4026 C   0  0  0  0  0  0  0  0  0  0  0  0
    4.0163    1.4439    1.4530 C   0  0  0  0  0  0  0  0  0  0  0  0
    4.5426    1.8154    2.6998 C   0  0  0  0  0  0  0  0  0  0  0  0
    5.5598    2.7688    2.7774 C   0  0  0  0  0  0  0  0  0  0  0  0
    6.0545    3.3561    1.6097 C   0  0  0  0  0  0  0  0  0  0  0  0
    5.5370    2.9888    0.3657 C   0  0  0  0  0  0  0  0  0  0  0  0
    4.5201    2.0337    0.2839 C   0  0  0  0  0  0  0  0  0  0  0  0
    2.4587   -0.1479    2.4576 N   0  0  0  0  0  0  0  0  0  0  0  0
    1.4756   -1.0730    2.0442 O   0  0  0  0  0  0  0  0  0  0  0  0
   -5.5775   -1.0488    0.6506 H   0  0  0  0  0  0  0  0  0  0  0  0
   -7.3086   -1.2222   -1.4879 H   0  0  0  0  0  0  0  0  0  0  0  0
   -5.1342    2.1507   -2.2498 H   0  0  0  0  0  0  0  0  0  0  0  0
   -1.7648    0.7840    2.6951 H   0  0  0  0  0  0  0  0  0  0  0  0
   -1.9766    2.2997    1.8369 H   0  0  0  0  0  0  0  0  0  0  0  0
    0.3344    1.3044    1.7219 H   0  0  0  0  0  0  0  0  0  0  0  0
   -0.3628    1.7642    0.1748 H   0  0  0  0  0  0  0  0  0  0  0  0
   -1.1378   -1.3966    2.1498 H   0  0  0  0  0  0  0  0  0  0  0  0
   -1.2148   -2.3740    0.6963 H   0  0  0  0  0  0  0  0  0  0  0  0
   -3.4143   -1.3469    1.4454 H   0  0  0  0  0  0  0  0  0  0  0  0
   -2.9819   -1.1224   -0.2603 H   0  0  0  0  0  0  0  0  0  0  0  0
   -1.4505   -0.6428   -3.3519 H   0  0  0  0  0  0  0  0  0  0  0  0
   -0.9801   -2.5805   -4.8521 H   0  0  0  0  0  0  0  0  0  0  0  0
    1.6512   -4.2577   -1.9009 H   0  0  0  0  0  0  0  0  0  0  0  0
    1.9427    0.8577   -0.4452 H   0  0  0  0  0  0  0  0  0  0  0  0
    3.0687   -0.5188   -0.4800 H   0  0  0  0  0  0  0  0  0  0  0  0
    4.1674    1.3629    3.6198 H   0  0  0  0  0  0  0  0  0  0  0  0
    5.9652    3.0512    3.7481 H   0  0  0  0  0  0  0  0  0  0  0  0
    6.8466    4.0985    1.6702 H   0  0  0  0  0  0  0  0  0  0  0  0
    5.9267    3.4481   -0.5443 H   0  0  0  0  0  0  0  0  0  0  0  0
    4.1447    1.7672   -0.7010 H   0  0  0  0  0  0  0  0  0  0  0  0
  1  2  2  0
  2  3  1  0
  3  4  1  0
  4  5  2  0
  5  6  1  0
  6  7  1  0
  2  8  1  0
  8  9  1  0
  9 10  1  0
 10 11  1  0
 11 12  1  0
 12 13  1  0
 11 14  1  0
 14 15  1  0
 15 16  2  0
 16 17  1  0
 17 18  2  0
 18 19  1  0
 18 20  1  0
 20 21  2  0
 21 22  1  0
 22 23  2  0
 22 24  1  0
 24 25  1  0
 25 26  1  0
 26 27  1  0
 27 28  2  0
 28 29  1  0
 29 30  2  0
 30 31  1  0
 31 32  2  0
 26 33  2  0
 33 34  1  0
  7  3  2  0
 13  8  1  0
 21 15  1  0
 34 24  1  0
 24 11  1  0
 32 27  1  0
  4 35  1  0
  5 36  1  0
  7 37  1  0
  9 38  1  0
  9 39  1  0
 10 40  1  0
 10 41  1  0
 12 42  1  0
 12 43  1  0
 13 44  1  0
 13 45  1  0
 16 46  1  0
 17 47  1  0
 20 48  1  0
 25 49  1  0
 25 50  1  0
 28 51  1  0
 29 52  1  0
 30 53  1  0
 31 54  1  0
 32 55  1  0
M  END
$$$$
