
     RDKit          3D

 43 45  0  0  0  0  0  0  0  0999 V2000
   -6.9072   -1.5314    0.5947 C   0  0  0  0  0  0  0  0  0  0  0  0
   -5.5040   -1.7673    0.6489 O   0  0  0  0  0  0  0  0  0  0  0  0
   -4.6838   -0.6929    0.4525 C   0  0  0  0  0  0  0  0  0  0  0  0
   -5.0890    0.6124    0.1848 C   0  0  0  0  0  0  0  0  0  0  0  0
   -4.1378    1.6262   -0.0013 C   0  0  0  0  0  0  0  0  0  0  0  0
   -2.7674    1.3527    0.0808 C   0  0  0  0  0  0  0  0  0  0  0  0
   -1.7900    2.2872   -0.1101 O   0  0  0  0  0  0  0  0  0  0  0  0
   -2.1756    3.6568   -0.1120 C   0  0  0  0  0  0  0  0  0  0  0  0
   -2.3701    0.0357    0.3432 C   0  0  0  0  0  0  0  0  0  0  0  0
   -0.6508   -0.3872    0.4697 S   0  0  0  0  0  6  0  0  0  0  0  0
   -0.5597   -1.8259    0.6243 O   0  0  0  0  0  0  0  0  0  0  0  0
   -0.0309    0.5063    1.4224 O   0  0  0  0  0  0  0  0  0  0  0  0
   -0.0940   -0.0812   -1.1181 N   0  0  0  0  0  0  0  0  0  0  0  0
    1.3219    0.1216   -1.2050 C   0  0  0  0  0  0  0  0  0  0  0  0
    1.8256    1.4150   -1.0855 C   0  0  0  0  0  0  0  0  0  0  0  0
    3.2025    1.6257   -1.1274 C   0  0  0  0  0  0  0  0  0  0  0  0
    4.0692    0.5401   -1.2613 C   0  0  0  0  0  0  0  0  0  0  0  0
    5.4034    0.8441   -1.2852 O   0  0  0  0  0  0  0  0  0  0  0  0
    3.5745   -0.7697   -1.3588 C   0  0  0  0  0  0  0  0  0  0  0  0
    4.6151   -2.2077   -1.5621 S   0  0  0  0  0  0  0  0  0  0  0  0
    5.5054   -2.1789   -0.0692 C   0  0  0  0  0  0  0  0  0  0  0  0
    6.5422   -1.3003    0.1315 N   0  0  0  0  0  0  0  0  0  0  0  0
    6.8959   -1.5530    1.3718 C   0  0  0  0  0  0  0  0  0  0  0  0
    6.1055   -2.5374    1.8801 N   0  0  0  0  0  0  0  0  0  0  0  0
    5.2234   -2.9701    0.9658 N   0  0  0  0  0  0  0  0  0  0  0  0
    2.1870   -0.9692   -1.3281 C   0  0  0  0  0  0  0  0  0  0  0  0
   -3.3206   -0.9784    0.5327 C   0  0  0  0  0  0  0  0  0  0  0  0
   -7.2207   -0.8398    1.3822 H   0  0  0  0  0  0  0  0  0  0  0  0
   -7.4136   -2.4850    0.7692 H   0  0  0  0  0  0  0  0  0  0  0  0
   -7.2092   -1.1713   -0.3932 H   0  0  0  0  0  0  0  0  0  0  0  0
   -6.1392    0.8797    0.1105 H   0  0  0  0  0  0  0  0  0  0  0  0
   -4.5074    2.6234   -0.2199 H   0  0  0  0  0  0  0  0  0  0  0  0
   -2.7257    3.9186    0.7982 H   0  0  0  0  0  0  0  0  0  0  0  0
   -2.7561    3.8973   -1.0086 H   0  0  0  0  0  0  0  0  0  0  0  0
   -1.2638    4.2608   -0.1345 H   0  0  0  0  0  0  0  0  0  0  0  0
   -0.3820   -0.8825   -1.6817 H   0  0  0  0  0  0  0  0  0  0  0  0
    1.1496    2.2555   -0.9538 H   0  0  0  0  0  0  0  0  0  0  0  0
    3.6031    2.6322   -1.0404 H   0  0  0  0  0  0  0  0  0  0  0  0
    5.9165    0.0342   -1.0806 H   0  0  0  0  0  0  0  0  0  0  0  0
    7.6798   -1.0686    1.9351 H   0  0  0  0  0  0  0  0  0  0  0  0
    6.1042   -2.9502    2.8082 H   0  0  0  0  0  0  0  0  0  0  0  0
    1.7823   -1.9776   -1.3839 H   0  0  0  0  0  0  0  0  0  0  0  0
   -3.0088   -1.9999    0.7484 H   0  0  0  0  0  0  0  0  0  0  0  0
  1  2  1  0
  2  3  1  0
  3  4  2  0
  4  5  1  0
  5  6  2  0
  6  7  1  0
  7  8  1  0
  6  9  1  0
  9 10  1  0
 10 11  2  0
 10 12  2  0
 10 13  1  0
 13 14  1  0
 14 15  2  0
 15 16  1  0
 16 17  2  0
 17 18  1  0
 17 19  1  0
 19 20  1  0
 20 21  1  0
 21 22  1  0
 22 23  2  0
 23 24  1  0
 24 25  1  0
 19 26  2  0
  9 27  2  0
 27  3  1  0
 26 14  1  0
 25 21  2  0
  1 28  1  0
  1 29  1  0
  1 30  1  0
  4 31  1  0
  5 32  1  0
  8 33  1  0
  8 34  1  0
  8 35  1  0
 13 36  1  0
 15 37  1  0
 16 38  1  0
 18 39  1  0
 23 40  1  0
 24 41  1  0
 26 42  1  0
 27 43  1  0
M  END
$$$$
