
     RDKit          3D

100102  0  0  0  0  0  0  0  0999 V2000
    1.3238   -0.3743    2.4874 C   0  0  0  0  0  0  0  0  0  0  0  0
    1.3239   -0.0594    1.1770 C   0  0  0  0  0  0  0  0  0  0  0  0
    1.9800   -0.9012    0.0689 C   0  0  1  0  0  0  0  0  0  0  0  0
    2.8185    0.0117   -0.6894 O   0  0  0  0  0  0  0  0  0  0  0  0
    2.9104   -0.2454   -2.0256 C   0  0  0  0  0  0  0  0  0  0  0  0
    2.3402   -1.1670   -2.5848 O   0  0  0  0  0  0  0  0  0  0  0  0
    3.7990    0.7830   -2.6887 C   0  0  0  0  0  0  0  0  0  0  0  0
    4.0250    0.5245   -4.1873 C   0  0  0  0  0  0  0  0  0  0  0  0
    4.7367    1.7175   -4.8288 C   0  0  0  0  0  0  0  0  0  0  0  0
    4.8373   -0.7461   -4.4406 C   0  0  0  0  0  0  0  0  0  0  0  0
    2.8656   -2.1183    0.4519 C   0  0  0  0  0  0  0  0  0  0  0  0
    3.8735   -1.7052    1.4124 O   0  0  0  0  0  0  0  0  0  0  0  0
    5.0670   -1.2977    0.9168 C   0  0  0  0  0  0  0  0  0  0  0  0
    5.9412   -0.7947    2.0224 C   0  0  0  0  0  0  0  0  0  0  0  0
    5.3927   -1.3278   -0.2651 O   0  0  0  0  0  0  0  0  0  0  0  0
    2.0947   -3.3255    1.0201 C   0  0  0  0  0  0  0  0  0  0  0  0
    2.2355   -3.6533    2.2104 O   0  0  0  0  0  0  0  0  0  0  0  0
    1.1615   -4.1591    0.0926 C   0  0  0  0  0  0  0  0  0  0  0  0
    0.8692   -5.5174    0.7718 C   0  0  0  0  0  0  0  0  0  0  0  0
    1.8610   -4.4755   -1.2394 C   0  0  0  0  0  0  0  0  0  0  0  0
   -0.1703   -3.4627   -0.1530 C   0  0  0  0  0  0  0  0  0  0  0  0
   -0.9081   -2.8455    0.7912 C   0  0  0  0  0  0  0  0  0  0  0  0
   -2.2836   -2.2165    0.6282 C   0  0  2  0  0  0  0  0  0  0  0  0
   -2.9742   -2.4567   -0.7227 C   0  0  0  0  0  0  0  0  0  0  0  0
   -2.3463   -0.7284    1.0947 C   0  0  2  0  0  0  0  0  0  0  0  0
   -3.7569   -0.4530    1.3315 O   0  0  0  0  0  0  0  0  0  0  0  0
   -4.2358   -0.4691    2.5949 C   0  0  0  0  0  0  0  0  0  0  0  0
   -3.5778   -0.5572    3.6187 O   0  0  0  0  0  0  0  0  0  0  0  0
   -5.7169   -0.3661    2.5455 C   0  0  0  0  0  0  0  0  0  0  0  0
   -6.4166   -0.3114    3.7560 C   0  0  0  0  0  0  0  0  0  0  0  0
   -7.8115   -0.2356    3.7563 C   0  0  0  0  0  0  0  0  0  0  0  0
   -8.5101   -0.2060    2.5467 C   0  0  0  0  0  0  0  0  0  0  0  0
   -7.8227   -0.2540    1.3370 C   0  0  0  0  0  0  0  0  0  0  0  0
   -6.4282   -0.3410    1.3308 C   0  0  0  0  0  0  0  0  0  0  0  0
   -1.7537    0.3853    0.1382 C   0  0  1  0  0  0  0  0  0  0  0  0
   -1.0162   -0.2038   -0.9301 O   0  0  0  0  0  0  0  0  0  0  0  0
   -2.8495    1.3013   -0.4814 C   0  0  0  0  0  0  0  0  0  0  0  0
   -2.8790    2.5279    0.4345 C   0  0  2  0  0  0  0  0  0  0  0  0
   -3.6809    3.6822   -0.1525 C   0  0  0  0  0  0  0  0  0  0  0  0
   -1.3789    2.7964    0.6266 C   0  0  2  0  0  0  0  0  0  0  0  0
   -0.8488    3.2851   -0.6200 O   0  0  0  0  0  0  0  0  0  0  0  0
   -0.3200    4.5360   -0.6248 C   0  0  0  0  0  0  0  0  0  0  0  0
   -0.0268    4.9649   -2.0322 C   0  0  0  0  0  0  0  0  0  0  0  0
   -0.1320    5.2351    0.3635 O   0  0  0  0  0  0  0  0  0  0  0  0
   -0.8331    1.3836    0.9470 C   0  0  2  0  0  0  0  0  0  0  0  0
    0.6859    1.2512    0.7028 C   0  0  1  0  0  0  0  0  0  0  0  0
    1.3662    2.2924    1.4365 O   0  0  0  0  0  0  0  0  0  0  0  0
    2.2082    3.0986    0.7270 C   0  0  0  0  0  0  0  0  0  0  0  0
    2.9699    3.9810    1.6654 C   0  0  0  0  0  0  0  0  0  0  0  0
    2.3131    3.1192   -0.4979 O   0  0  0  0  0  0  0  0  0  0  0  0
    0.8706    0.2945    3.2126 H   0  0  0  0  0  0  0  0  0  0  0  0
    1.7718   -1.2637    2.8968 H   0  0  0  0  0  0  0  0  0  0  0  0
    1.1725   -1.2502   -0.5719 H   0  0  0  0  0  0  0  0  0  0  0  0
    4.7559    0.8135   -2.1539 H   0  0  0  0  0  0  0  0  0  0  0  0
    3.3022    1.7494   -2.5684 H   0  0  0  0  0  0  0  0  0  0  0  0
    3.0476    0.4127   -4.6775 H   0  0  0  0  0  0  0  0  0  0  0  0
    4.8435    1.5669   -5.9082 H   0  0  0  0  0  0  0  0  0  0  0  0
    4.1652    2.6409   -4.6795 H   0  0  0  0  0  0  0  0  0  0  0  0
    5.7370    1.8639   -4.4009 H   0  0  0  0  0  0  0  0  0  0  0  0
    5.0647   -0.8527   -5.5016 H   0  0  0  0  0  0  0  0  0  0  0  0
    5.7754   -0.7409   -3.8762 H   0  0  0  0  0  0  0  0  0  0  0  0
    4.2774   -1.6410   -4.1476 H   0  0  0  0  0  0  0  0  0  0  0  0
    3.3869   -2.5007   -0.4269 H   0  0  0  0  0  0  0  0  0  0  0  0
    6.9037   -0.4540    1.6088 H   0  0  0  0  0  0  0  0  0  0  0  0
    6.1317   -1.6043    2.7329 H   0  0  0  0  0  0  0  0  0  0  0  0
    5.4641    0.0502    2.5242 H   0  0  0  0  0  0  0  0  0  0  0  0
    0.3671   -5.3909    1.7369 H   0  0  0  0  0  0  0  0  0  0  0  0
    1.7936   -6.0737    0.9683 H   0  0  0  0  0  0  0  0  0  0  0  0
    0.2224   -6.1532    0.1563 H   0  0  0  0  0  0  0  0  0  0  0  0
    1.3000   -5.2189   -1.8200 H   0  0  0  0  0  0  0  0  0  0  0  0
    2.8678   -4.8731   -1.0712 H   0  0  0  0  0  0  0  0  0  0  0  0
    1.9593   -3.5901   -1.8691 H   0  0  0  0  0  0  0  0  0  0  0  0
   -0.5563   -3.5148   -1.1736 H   0  0  0  0  0  0  0  0  0  0  0  0
   -0.5474   -2.8403    1.8235 H   0  0  0  0  0  0  0  0  0  0  0  0
   -2.9085   -2.7762    1.3383 H   0  0  0  0  0  0  0  0  0  0  0  0
   -3.0765   -3.5311   -0.9210 H   0  0  0  0  0  0  0  0  0  0  0  0
   -3.9864   -2.0344   -0.7331 H   0  0  0  0  0  0  0  0  0  0  0  0
   -2.4271   -2.0079   -1.5550 H   0  0  0  0  0  0  0  0  0  0  0  0
   -1.8207   -0.6794    2.0544 H   0  0  0  0  0  0  0  0  0  0  0  0
   -5.8792   -0.3371    4.7060 H   0  0  0  0  0  0  0  0  0  0  0  0
   -8.3502   -0.1971    4.7004 H   0  0  0  0  0  0  0  0  0  0  0  0
   -9.5975   -0.1462    2.5512 H   0  0  0  0  0  0  0  0  0  0  0  0
   -8.3694   -0.2370    0.3957 H   0  0  0  0  0  0  0  0  0  0  0  0
   -5.9167   -0.3953    0.3733 H   0  0  0  0  0  0  0  0  0  0  0  0
   -0.8698    0.4569   -1.6327 H   0  0  0  0  0  0  0  0  0  0  0  0
   -3.8308    0.8305   -0.5754 H   0  0  0  0  0  0  0  0  0  0  0  0
   -2.5835    1.5949   -1.5060 H   0  0  0  0  0  0  0  0  0  0  0  0
   -3.3278    2.2575    1.4005 H   0  0  0  0  0  0  0  0  0  0  0  0
   -4.7514    3.4317   -0.1553 H   0  0  0  0  0  0  0  0  0  0  0  0
   -3.5503    4.5899    0.4502 H   0  0  0  0  0  0  0  0  0  0  0  0
   -3.3968    3.9077   -1.1870 H   0  0  0  0  0  0  0  0  0  0  0  0
   -1.2044    3.4865    1.4612 H   0  0  0  0  0  0  0  0  0  0  0  0
    0.7399    5.7422   -2.0218 H   0  0  0  0  0  0  0  0  0  0  0  0
    0.3567    4.1208   -2.6209 H   0  0  0  0  0  0  0  0  0  0  0  0
   -0.9431    5.3541   -2.4885 H   0  0  0  0  0  0  0  0  0  0  0  0
   -1.0306    1.2679    2.0212 H   0  0  0  0  0  0  0  0  0  0  0  0
    0.8543    1.3698   -0.3659 H   0  0  0  0  0  0  0  0  0  0  0  0
    3.6227    4.6398    1.0914 H   0  0  0  0  0  0  0  0  0  0  0  0
    3.5805    3.3686    2.3285 H   0  0  0  0  0  0  0  0  0  0  0  0
    2.2679    4.5914    2.2356 H   0  0  0  0  0  0  0  0  0  0  0  0
  1  2  2  0
  2  3  1  0
  3  4  1  0
  4  5  1  0
  5  6  2  0
  5  7  1  0
  7  8  1  0
  8  9  1  0
  8 10  1  0
  3 11  1  0
 11 12  1  0
 12 13  1  0
 13 14  1  0
 13 15  2  0
 11 16  1  0
 16 17  2  0
 16 18  1  0
 18 19  1  0
 18 20  1  0
 18 21  1  0
 21 22  2  0
 22 23  1  0
 23 24  1  0
 23 25  1  0
 25 26  1  0
 26 27  1  0
 27 28  2  0
 27 29  1  0
 29 30  2  0
 30 31  1  0
 31 32  2  0
 32 33  1  0
 33 34  2  0
 25 35  1  0
 35 36  1  6
 35 37  1  0
 37 38  1  0
 38 39  1  0
 38 40  1  0
 40 41  1  0
 41 42  1  0
 42 43  1  0
 42 44  2  0
 40 45  1  0
 45 46  1  0
 46 47  1  0
 47 48  1  0
 48 49  1  0
 48 50  2  0
 46  2  1  0
 34 29  1  0
 45 35  1  0
  1 51  1  0
  1 52  1  0
  3 53  1  6
  7 54  1  0
  7 55  1  0
  8 56  1  0
  9 57  1  0
  9 58  1  0
  9 59  1  0
 10 60  1  0
 10 61  1  0
 10 62  1  0
 11 63  1  0
 14 64  1  0
 14 65  1  0
 14 66  1  0
 19 67  1  0
 19 68  1  0
 19 69  1  0
 20 70  1  0
 20 71  1  0
 20 72  1  0
 21 73  1  0
 22 74  1  0
 23 75  1  1
 24 76  1  0
 24 77  1  0
 24 78  1  0
 25 79  1  1
 30 80  1  0
 31 81  1  0
 32 82  1  0
 33 83  1  0
 34 84  1  0
 36 85  1  0
 37 86  1  0
 37 87  1  0
 38 88  1  1
 39 89  1  0
 39 90  1  0
 39 91  1  0
 40 92  1  1
 43 93  1  0
 43 94  1  0
 43 95  1  0
 45 96  1  1
 46 97  1  6
 49 98  1  0
 49 99  1  0
 49100  1  0
M  END
$$$$
