
     RDKit          3D

 54 58  0  0  0  0  0  0  0  0999 V2000
    2.9919   -2.3630   -0.0414 O   0  0  0  0  0  0  0  0  0  0  0  0
    2.8894   -1.1525    0.1491 C   0  0  0  0  0  0  0  0  0  0  0  0
    1.8104   -0.3117   -0.5070 C   0  0  0  0  0  0  0  0  0  0  0  0
    0.2540   -0.5408    0.4019 S   0  0  0  0  0  0  0  0  0  0  0  0
   -0.8097    0.3724   -0.6565 C   0  0  0  0  0  0  0  0  0  0  0  0
   -0.4050    1.5684   -0.9598 N   0  0  0  0  0  0  0  0  0  0  0  0
   -1.2779    2.2965   -1.7749 C   0  0  0  0  0  0  0  0  0  0  0  0
   -2.4746    1.7944   -2.1854 C   0  0  0  0  0  0  0  0  0  0  0  0
   -3.3363    2.8856   -3.1460 S   0  0  0  0  0  0  0  0  0  0  0  0
   -2.0842    4.0765   -3.0214 C   0  0  0  0  0  0  0  0  0  0  0  0
   -2.0728    5.3596   -3.6026 C   0  0  0  0  0  0  0  0  0  0  0  0
   -0.9725    6.1912   -3.3844 C   0  0  0  0  0  0  0  0  0  0  0  0
    0.0967    5.7621   -2.6089 C   0  0  0  0  0  0  0  0  0  0  0  0
    0.0851    4.4873   -2.0350 C   0  0  0  0  0  0  0  0  0  0  0  0
   -1.0173    3.6201   -2.2365 C   0  0  0  0  0  0  0  0  0  0  0  0
   -2.9316    0.4848   -1.8296 C   0  0  0  0  0  0  0  0  0  0  0  0
   -4.0305    0.0297   -2.1418 O   0  0  0  0  0  0  0  0  0  0  0  0
   -1.9987   -0.2333   -1.0673 N   0  0  0  0  0  0  0  0  0  0  0  0
   -2.3947   -1.5995   -0.6993 C   0  0  0  0  0  0  0  0  0  0  0  0
   -3.2094   -1.6303    0.5998 C   0  0  0  0  0  0  0  0  0  0  0  0
   -3.6201   -3.0361    0.9543 C   0  0  0  0  0  0  0  0  0  0  0  0
   -4.8155   -3.5699    0.4559 C   0  0  0  0  0  0  0  0  0  0  0  0
   -5.1819   -4.8830    0.7553 C   0  0  0  0  0  0  0  0  0  0  0  0
   -4.3548   -5.6743    1.5504 C   0  0  0  0  0  0  0  0  0  0  0  0
   -3.1613   -5.1533    2.0472 C   0  0  0  0  0  0  0  0  0  0  0  0
   -2.7932   -3.8404    1.7494 C   0  0  0  0  0  0  0  0  0  0  0  0
    3.7308   -0.4500    0.9819 N   0  0  0  0  0  0  0  0  0  0  0  0
    4.7051   -1.1461    1.7903 C   0  0  0  0  0  0  0  0  0  0  0  0
    5.6773   -0.1561    2.3113 C   0  0  0  0  0  0  0  0  0  0  0  0
    7.0232    0.0580    2.0906 C   0  0  0  0  0  0  0  0  0  0  0  0
    7.3894    1.1666    2.8919 C   0  0  0  0  0  0  0  0  0  0  0  0
    6.2458    1.5591    3.5495 C   0  0  0  0  0  0  0  0  0  0  0  0
    5.1992    0.7671    3.1977 O   0  0  0  0  0  0  0  0  0  0  0  0
    2.1061    0.7436   -0.5064 H   0  0  0  0  0  0  0  0  0  0  0  0
    1.7032   -0.6371   -1.5479 H   0  0  0  0  0  0  0  0  0  0  0  0
   -2.9066    5.6998   -4.2091 H   0  0  0  0  0  0  0  0  0  0  0  0
   -0.9552    7.1852   -3.8259 H   0  0  0  0  0  0  0  0  0  0  0  0
    0.9483    6.4188   -2.4455 H   0  0  0  0  0  0  0  0  0  0  0  0
    0.9254    4.1580   -1.4272 H   0  0  0  0  0  0  0  0  0  0  0  0
   -2.9896   -2.0277   -1.5181 H   0  0  0  0  0  0  0  0  0  0  0  0
   -1.5113   -2.2431   -0.6226 H   0  0  0  0  0  0  0  0  0  0  0  0
   -2.6356   -1.1967    1.4285 H   0  0  0  0  0  0  0  0  0  0  0  0
   -4.1037   -1.0005    0.5068 H   0  0  0  0  0  0  0  0  0  0  0  0
   -5.4681   -2.9666   -0.1725 H   0  0  0  0  0  0  0  0  0  0  0  0
   -6.1099   -5.2901    0.3639 H   0  0  0  0  0  0  0  0  0  0  0  0
   -4.6390   -6.6972    1.7808 H   0  0  0  0  0  0  0  0  0  0  0  0
   -2.5151   -5.7713    2.6646 H   0  0  0  0  0  0  0  0  0  0  0  0
   -1.8553   -3.4513    2.1399 H   0  0  0  0  0  0  0  0  0  0  0  0
    3.4239    0.4503    1.3331 H   0  0  0  0  0  0  0  0  0  0  0  0
    5.2016   -1.9147    1.1887 H   0  0  0  0  0  0  0  0  0  0  0  0
    4.1761   -1.6420    2.6110 H   0  0  0  0  0  0  0  0  0  0  0  0
    7.6603   -0.5216    1.4360 H   0  0  0  0  0  0  0  0  0  0  0  0
    8.3665    1.6210    2.9834 H   0  0  0  0  0  0  0  0  0  0  0  0
    6.0216    2.3445    4.2595 H   0  0  0  0  0  0  0  0  0  0  0  0
  1  2  2  0
  2  3  1  0
  3  4  1  0
  4  5  1  0
  5  6  2  0
  6  7  1  0
  7  8  2  0
  8  9  1  0
  9 10  1  0
 10 11  2  0
 11 12  1  0
 12 13  2  0
 13 14  1  0
 14 15  2  0
  8 16  1  0
 16 17  2  0
 16 18  1  0
 18 19  1  0
 19 20  1  0
 20 21  1  0
 21 22  2  0
 22 23  1  0
 23 24  2  0
 24 25  1  0
 25 26  2  0
  2 27  1  0
 27 28  1  0
 28 29  1  0
 29 30  2  0
 30 31  1  0
 31 32  2  0
 32 33  1  0
 18  5  1  0
 26 21  1  0
 33 29  1  0
 15  7  1  0
 15 10  1  0
  3 34  1  0
  3 35  1  0
 11 36  1  0
 12 37  1  0
 13 38  1  0
 14 39  1  0
 19 40  1  0
 19 41  1  0
 20 42  1  0
 20 43  1  0
 22 44  1  0
 23 45  1  0
 24 46  1  0
 25 47  1  0
 26 48  1  0
 27 49  1  0
 28 50  1  0
 28 51  1  0
 30 52  1  0
 31 53  1  0
 32 54  1  0
M  END
$$$$
