
     RDKit          3D

 44 44  0  0  0  0  0  0  0  0999 V2000
   -5.0051    2.2502    1.1907 C   0  0  0  0  0  0  0  0  0  0  0  0
   -4.8656    1.0637    0.2477 C   0  0  0  0  0  0  0  0  0  0  0  0
   -3.4713    0.8961   -0.1833 N   0  0  0  0  0  0  0  0  0  0  0  0
   -3.1092    1.5606   -1.4425 C   0  0  0  0  0  0  0  0  0  0  0  0
   -3.3125    0.6322   -2.6314 C   0  0  0  0  0  0  0  0  0  0  0  0
   -2.5625    0.1238    0.5343 C   0  0  0  0  0  0  0  0  0  0  0  0
   -2.8714   -0.4277    1.7891 C   0  0  0  0  0  0  0  0  0  0  0  0
   -1.9601   -1.2079    2.5129 C   0  0  0  0  0  0  0  0  0  0  0  0
   -0.6921   -1.4633    2.0035 C   0  0  0  0  0  0  0  0  0  0  0  0
   -0.3383   -0.9327    0.7703 C   0  0  0  0  0  0  0  0  0  0  0  0
    0.8678   -1.0926    0.1432 O   0  0  0  0  0  0  0  0  0  0  0  0
    1.8888   -1.7643    0.8693 C   0  0  0  0  0  0  0  0  0  0  0  0
    3.1980   -1.7665    0.0764 C   0  0  0  0  0  0  0  0  0  0  0  0
    3.7836   -2.8287   -0.1544 O   0  0  0  0  0  0  0  0  0  0  0  0
    3.7337   -0.5483   -0.3324 N   0  0  0  0  0  0  0  0  0  0  0  0
    3.1659    0.7538   -0.0112 C   0  0  0  0  0  0  0  0  0  0  0  0
    4.9010   -0.5673   -1.2174 C   0  0  0  0  0  0  0  0  0  0  0  0
    6.2095   -0.7287   -0.4465 C   0  0  0  0  0  0  0  0  0  0  0  0
    7.3539   -0.6495   -1.3593 C   0  0  0  0  0  0  0  0  0  0  0  0
    8.2570   -0.5661   -2.0831 N   0  0  0  0  0  0  0  0  0  0  0  0
   -1.2685   -0.1579    0.0570 C   0  0  0  0  0  0  0  0  0  0  0  0
   -4.6748    3.1762    0.7085 H   0  0  0  0  0  0  0  0  0  0  0  0
   -4.4093    2.1192    2.0990 H   0  0  0  0  0  0  0  0  0  0  0  0
   -6.0513    2.3766    1.4865 H   0  0  0  0  0  0  0  0  0  0  0  0
   -5.5041    1.2419   -0.6272 H   0  0  0  0  0  0  0  0  0  0  0  0
   -5.2658    0.1508    0.7025 H   0  0  0  0  0  0  0  0  0  0  0  0
   -3.7402    2.4474   -1.5848 H   0  0  0  0  0  0  0  0  0  0  0  0
   -2.0852    1.9497   -1.4183 H   0  0  0  0  0  0  0  0  0  0  0  0
   -3.0593    1.1497   -3.5620 H   0  0  0  0  0  0  0  0  0  0  0  0
   -4.3546    0.3028   -2.6997 H   0  0  0  0  0  0  0  0  0  0  0  0
   -2.6868   -0.2625   -2.5602 H   0  0  0  0  0  0  0  0  0  0  0  0
   -3.8389   -0.2601    2.2516 H   0  0  0  0  0  0  0  0  0  0  0  0
   -2.2507   -1.6154    3.4779 H   0  0  0  0  0  0  0  0  0  0  0  0
   -0.0182   -2.0792    2.5878 H   0  0  0  0  0  0  0  0  0  0  0  0
    2.0831   -1.2883    1.8378 H   0  0  0  0  0  0  0  0  0  0  0  0
    1.6006   -2.8110    1.0259 H   0  0  0  0  0  0  0  0  0  0  0  0
    2.5829    1.0990   -0.8697 H   0  0  0  0  0  0  0  0  0  0  0  0
    3.9787    1.4594    0.1860 H   0  0  0  0  0  0  0  0  0  0  0  0
    2.5284    0.7172    0.8731 H   0  0  0  0  0  0  0  0  0  0  0  0
    4.9031    0.3560   -1.8105 H   0  0  0  0  0  0  0  0  0  0  0  0
    4.7867   -1.3941   -1.9305 H   0  0  0  0  0  0  0  0  0  0  0  0
    6.2247   -1.6852    0.0877 H   0  0  0  0  0  0  0  0  0  0  0  0
    6.2915    0.0560    0.3148 H   0  0  0  0  0  0  0  0  0  0  0  0
   -0.9432    0.2149   -0.9091 H   0  0  0  0  0  0  0  0  0  0  0  0
  1  2  1  0
  2  3  1  0
  3  4  1  0
  4  5  1  0
  3  6  1  0
  6  7  2  0
  7  8  1  0
  8  9  2  0
  9 10  1  0
 10 11  1  0
 11 12  1  0
 12 13  1  0
 13 14  2  0
 13 15  1  0
 15 16  1  0
 15 17  1  0
 17 18  1  0
 18 19  1  0
 19 20  3  0
 10 21  2  0
 21  6  1  0
  1 22  1  0
  1 23  1  0
  1 24  1  0
  2 25  1  0
  2 26  1  0
  4 27  1  0
  4 28  1  0
  5 29  1  0
  5 30  1  0
  5 31  1  0
  7 32  1  0
  8 33  1  0
  9 34  1  0
 12 35  1  0
 12 36  1  0
 16 37  1  0
 16 38  1  0
 16 39  1  0
 17 40  1  0
 17 41  1  0
 18 42  1  0
 18 43  1  0
 21 44  1  0
M  END
$$$$
