
     RDKit          3D

 59 62  0  0  0  0  0  0  0  0999 V2000
    8.2138   -1.5730    2.6610 C   0  0  0  0  0  0  0  0  0  0  0  0
    7.8947   -0.3659    1.9916 O   0  0  0  0  0  0  0  0  0  0  0  0
    6.5810   -0.1626    1.6672 C   0  0  0  0  0  0  0  0  0  0  0  0
    6.3273    1.0376    0.9963 C   0  0  0  0  0  0  0  0  0  0  0  0
    5.0297    1.3852    0.6081 C   0  0  0  0  0  0  0  0  0  0  0  0
    3.9690    0.5272    0.8967 C   0  0  0  0  0  0  0  0  0  0  0  0
    2.5939    0.8590    0.5304 C   0  0  0  0  0  0  0  0  0  0  0  0
    1.5795    0.0275    0.8273 C   0  0  0  0  0  0  0  0  0  0  0  0
    0.1425    0.3384    0.5318 C   0  0  0  0  0  0  0  0  0  0  0  0
   -0.0962    0.3602   -0.9214 N   0  0  0  0  0  0  0  0  0  0  0  0
   -0.1329   -0.9456   -1.6186 C   0  0  0  0  0  0  0  0  0  0  0  0
   -1.5232   -1.4584   -2.0222 C   0  0  0  0  0  0  0  0  0  0  0  0
   -2.4869   -1.7038   -0.8705 C   0  0  0  0  0  0  0  0  0  0  0  0
   -2.1593   -3.1160   -0.4578 C   0  0  0  0  0  0  0  0  0  0  0  0
   -1.8658   -3.7705   -1.7875 C   0  0  0  0  0  0  0  0  0  0  0  0
   -1.3479   -2.7501   -2.6553 O   0  0  0  0  0  0  0  0  0  0  0  0
   -0.6083    1.7694   -1.6696 S   0  0  0  0  0  6  0  0  0  0  0  0
    0.1282    2.8743   -1.0975 O   0  0  0  0  0  0  0  0  0  0  0  0
   -0.6392    1.5527   -3.0989 O   0  0  0  0  0  0  0  0  0  0  0  0
   -2.2960    1.9559   -1.1263 C   0  0  0  0  0  0  0  0  0  0  0  0
   -3.3527    1.5946   -1.9656 C   0  0  0  0  0  0  0  0  0  0  0  0
   -4.6758    1.7855   -1.5465 C   0  0  0  0  0  0  0  0  0  0  0  0
   -4.9455    2.3653   -0.3005 C   0  0  0  0  0  0  0  0  0  0  0  0
   -6.3369    2.5992    0.1860 C   0  0  0  0  0  0  0  0  0  0  0  0
   -7.4956    2.2836   -0.7268 C   0  0  0  0  0  0  0  0  0  0  0  0
   -6.5182    3.0420    1.3170 O   0  0  0  0  0  0  0  0  0  0  0  0
   -3.8779    2.7581    0.5198 C   0  0  0  0  0  0  0  0  0  0  0  0
   -2.5571    2.5649    0.1066 C   0  0  0  0  0  0  0  0  0  0  0  0
    1.8540   -1.2584    1.5371 C   0  0  0  0  0  0  0  0  0  0  0  0
    0.9529   -2.0413    1.8231 O   0  0  0  0  0  0  0  0  0  0  0  0
    3.1554   -1.5316    1.8587 N   0  0  0  0  0  0  0  0  0  0  0  0
    4.2237   -0.6750    1.5671 C   0  0  0  0  0  0  0  0  0  0  0  0
    5.5210   -1.0264    1.9514 C   0  0  0  0  0  0  0  0  0  0  0  0
    7.9987   -2.4404    2.0278 H   0  0  0  0  0  0  0  0  0  0  0  0
    9.2879   -1.5653    2.8670 H   0  0  0  0  0  0  0  0  0  0  0  0
    7.6933   -1.6454    3.6207 H   0  0  0  0  0  0  0  0  0  0  0  0
    7.1492    1.7127    0.7776 H   0  0  0  0  0  0  0  0  0  0  0  0
    4.8600    2.3270    0.0891 H   0  0  0  0  0  0  0  0  0  0  0  0
    2.4128    1.8037    0.0232 H   0  0  0  0  0  0  0  0  0  0  0  0
   -0.0895    1.3050    0.9879 H   0  0  0  0  0  0  0  0  0  0  0  0
   -0.5439   -0.3662    1.0050 H   0  0  0  0  0  0  0  0  0  0  0  0
    0.4926   -0.8684   -2.5177 H   0  0  0  0  0  0  0  0  0  0  0  0
    0.3742   -1.7107   -1.0186 H   0  0  0  0  0  0  0  0  0  0  0  0
   -1.9665   -0.7926   -2.7666 H   0  0  0  0  0  0  0  0  0  0  0  0
   -2.4213   -0.9852   -0.0530 H   0  0  0  0  0  0  0  0  0  0  0  0
   -3.5171   -1.6728   -1.2482 H   0  0  0  0  0  0  0  0  0  0  0  0
   -1.2639   -3.1229    0.1730 H   0  0  0  0  0  0  0  0  0  0  0  0
   -2.9652   -3.6125    0.0897 H   0  0  0  0  0  0  0  0  0  0  0  0
   -2.7791   -4.1624   -2.2464 H   0  0  0  0  0  0  0  0  0  0  0  0
   -1.1412   -4.5846   -1.7021 H   0  0  0  0  0  0  0  0  0  0  0  0
   -3.1600    1.1732   -2.9481 H   0  0  0  0  0  0  0  0  0  0  0  0
   -5.4763    1.4834   -2.2148 H   0  0  0  0  0  0  0  0  0  0  0  0
   -7.5182    1.2160   -0.9591 H   0  0  0  0  0  0  0  0  0  0  0  0
   -8.4297    2.5403   -0.2202 H   0  0  0  0  0  0  0  0  0  0  0  0
   -7.4335    2.8848   -1.6422 H   0  0  0  0  0  0  0  0  0  0  0  0
   -4.0698    3.2388    1.4758 H   0  0  0  0  0  0  0  0  0  0  0  0
   -1.7458    2.9134    0.7408 H   0  0  0  0  0  0  0  0  0  0  0  0
    3.3179   -2.4068    2.3419 H   0  0  0  0  0  0  0  0  0  0  0  0
    5.6833   -1.9640    2.4685 H   0  0  0  0  0  0  0  0  0  0  0  0
  1  2  1  0
  2  3  1  0
  3  4  2  0
  4  5  1  0
  5  6  2  0
  6  7  1  0
  7  8  2  0
  8  9  1  0
  9 10  1  0
 10 11  1  0
 11 12  1  0
 12 13  1  0
 13 14  1  0
 14 15  1  0
 15 16  1  0
 10 17  1  0
 17 18  2  0
 17 19  2  0
 17 20  1  0
 20 21  2  0
 21 22  1  0
 22 23  2  0
 23 24  1  0
 24 25  1  0
 24 26  2  0
 23 27  1  0
 27 28  2  0
  8 29  1  0
 29 30  2  0
 29 31  1  0
 31 32  1  0
 32 33  2  0
 33  3  1  0
 32  6  1  0
 16 12  1  0
 28 20  1  0
  1 34  1  0
  1 35  1  0
  1 36  1  0
  4 37  1  0
  5 38  1  0
  7 39  1  0
  9 40  1  0
  9 41  1  0
 11 42  1  0
 11 43  1  0
 12 44  1  0
 13 45  1  0
 13 46  1  0
 14 47  1  0
 14 48  1  0
 15 49  1  0
 15 50  1  0
 21 51  1  0
 22 52  1  0
 25 53  1  0
 25 54  1  0
 25 55  1  0
 27 56  1  0
 28 57  1  0
 31 58  1  0
 33 59  1  0
M  END
$$$$
