
     RDKit          3D

 38 40  0  0  0  0  0  0  0  0999 V2000
   -0.1718    2.2928   -1.7598 C   0  0  0  0  0  0  0  0  0  0  0  0
   -0.5146    1.2796   -0.7040 C   0  0  0  0  0  0  0  0  0  0  0  0
   -0.9236    1.7283    0.5613 C   0  0  0  0  0  0  0  0  0  0  0  0
   -1.2460    0.8180    1.5648 C   0  0  0  0  0  0  0  0  0  0  0  0
   -1.6244    1.3420    2.7715 O   0  0  0  0  0  0  0  0  0  0  0  0
   -1.1803   -0.5586    1.3327 C   0  0  0  0  0  0  0  0  0  0  0  0
   -1.5806   -1.7434    2.6040 S   0  0  0  0  0  0  0  0  0  0  0  0
   -3.3246   -1.6673    2.6084 C   0  0  0  0  0  0  0  0  0  0  0  0
   -4.0438   -1.5745    3.7701 N   0  0  0  0  0  0  0  0  0  0  0  0
   -5.2859   -1.5282    3.3456 C   0  0  0  0  0  0  0  0  0  0  0  0
   -5.3035   -1.5875    1.9877 N   0  0  0  0  0  0  0  0  0  0  0  0
   -4.0600   -1.6758    1.4911 N   0  0  0  0  0  0  0  0  0  0  0  0
   -0.7663   -1.0114    0.0761 C   0  0  0  0  0  0  0  0  0  0  0  0
   -0.4263   -0.1044   -0.9345 C   0  0  0  0  0  0  0  0  0  0  0  0
    0.0181   -0.5913   -2.1978 N   0  0  0  0  0  0  0  0  0  0  0  0
    1.4145   -1.5270   -2.3178 S   0  0  0  0  0  6  0  0  0  0  0  0
    1.7330   -1.5887   -3.7300 O   0  0  0  0  0  0  0  0  0  0  0  0
    1.2640   -2.7335   -1.5334 O   0  0  0  0  0  0  0  0  0  0  0  0
    2.6525   -0.5160   -1.5325 C   0  0  0  0  0  0  0  0  0  0  0  0
    2.9283   -0.6931   -0.1719 C   0  0  0  0  0  0  0  0  0  0  0  0
    3.9064    0.0925    0.4403 C   0  0  0  0  0  0  0  0  0  0  0  0
    4.6109    1.0332   -0.3118 C   0  0  0  0  0  0  0  0  0  0  0  0
    5.8183    1.9994    0.4432 Cl  0  0  0  0  0  0  0  0  0  0  0  0
    4.3510    1.1933   -1.6740 C   0  0  0  0  0  0  0  0  0  0  0  0
    3.3720    0.4123   -2.2921 C   0  0  0  0  0  0  0  0  0  0  0  0
    0.8834    2.2115   -2.0384 H   0  0  0  0  0  0  0  0  0  0  0  0
   -0.7972    2.1459   -2.6471 H   0  0  0  0  0  0  0  0  0  0  0  0
   -0.3426    3.3162   -1.4069 H   0  0  0  0  0  0  0  0  0  0  0  0
   -0.9930    2.7920    0.7776 H   0  0  0  0  0  0  0  0  0  0  0  0
   -1.8092    0.5973    3.3730 H   0  0  0  0  0  0  0  0  0  0  0  0
   -6.1766   -1.4473    3.9531 H   0  0  0  0  0  0  0  0  0  0  0  0
   -6.0949   -1.5722    1.3527 H   0  0  0  0  0  0  0  0  0  0  0  0
   -0.7290   -2.0809   -0.1200 H   0  0  0  0  0  0  0  0  0  0  0  0
   -0.1546   -0.0320   -3.0305 H   0  0  0  0  0  0  0  0  0  0  0  0
    2.3880   -1.4340    0.4147 H   0  0  0  0  0  0  0  0  0  0  0  0
    4.1157   -0.0379    1.4986 H   0  0  0  0  0  0  0  0  0  0  0  0
    4.9117    1.9194   -2.2576 H   0  0  0  0  0  0  0  0  0  0  0  0
    3.1810    0.5313   -3.3561 H   0  0  0  0  0  0  0  0  0  0  0  0
  1  2  1  0
  2  3  2  0
  3  4  1  0
  4  5  1  0
  4  6  2  0
  6  7  1  0
  7  8  1  0
  8  9  1  0
  9 10  2  0
 10 11  1  0
 11 12  1  0
  6 13  1  0
 13 14  2  0
 14 15  1  0
 15 16  1  0
 16 17  2  0
 16 18  2  0
 16 19  1  0
 19 20  2  0
 20 21  1  0
 21 22  2  0
 22 23  1  0
 22 24  1  0
 24 25  2  0
 14  2  1  0
 25 19  1  0
 12  8  2  0
  1 26  1  0
  1 27  1  0
  1 28  1  0
  3 29  1  0
  5 30  1  0
 10 31  1  0
 11 32  1  0
 13 33  1  0
 15 34  1  0
 20 35  1  0
 21 36  1  0
 24 37  1  0
 25 38  1  0
M  END
$$$$
