
     RDKit          3D

 47 50  0  0  0  0  0  0  0  0999 V2000
   -3.7168    4.8361   -0.1606 N   0  0  0  0  0  0  0  0  0  0  0  0
   -4.3227    3.7062    0.2509 C   0  0  0  0  0  0  0  0  0  0  0  0
   -5.6309    3.5981    0.4784 N   0  0  0  0  0  0  0  0  0  0  0  0
   -5.8287    2.2869    0.8971 O   0  0  0  0  0  0  0  0  0  0  0  0
   -4.6287    1.5799    0.9284 N   0  0  0  0  0  0  0  0  0  0  0  0
   -3.7184    2.4616    0.5144 C   0  0  0  0  0  0  0  0  0  0  0  0
   -2.3483    2.1107    0.3980 N   0  0  0  0  0  0  0  0  0  0  0  0
   -1.4139    3.0290    0.0050 N   0  0  0  0  0  0  0  0  0  0  0  0
   -0.2199    2.4658    0.0108 N   0  0  0  0  0  0  0  0  0  0  0  0
   -0.3630    1.1578    0.3924 C   0  0  0  0  0  0  0  0  0  0  0  0
    0.7798    0.2532    0.4981 C   0  0  0  0  0  0  0  0  0  0  0  0
    0.6721   -0.8993    0.9046 O   0  0  0  0  0  0  0  0  0  0  0  0
    1.9647    0.8579    0.1038 N   0  0  0  0  0  0  0  0  0  0  0  0
    3.1438    0.1755    0.1433 N   0  0  0  0  0  0  0  0  0  0  0  0
    4.1835    0.8399   -0.2487 C   0  0  0  0  0  0  0  0  0  0  0  0
    5.5314    0.2372   -0.2635 C   0  0  0  0  0  0  0  0  0  0  0  0
    6.6132    1.0120   -0.6968 C   0  0  0  0  0  0  0  0  0  0  0  0
    7.8976    0.4616   -0.7187 C   0  0  0  0  0  0  0  0  0  0  0  0
    8.0854   -0.8557   -0.3076 C   0  0  0  0  0  0  0  0  0  0  0  0
    9.3209   -1.4314   -0.3131 O   0  0  0  0  0  0  0  0  0  0  0  0
    7.0139   -1.6307    0.1240 C   0  0  0  0  0  0  0  0  0  0  0  0
    5.7299   -1.0846    0.1473 C   0  0  0  0  0  0  0  0  0  0  0  0
   -1.7042    0.8978    0.6286 C   0  0  0  0  0  0  0  0  0  0  0  0
   -2.3899   -0.3637    1.0046 C   0  0  0  0  0  0  0  0  0  0  0  0
   -3.0529   -0.8029   -0.1777 O   0  0  0  0  0  0  0  0  0  0  0  0
   -3.8345   -1.9204   -0.0755 C   0  0  0  0  0  0  0  0  0  0  0  0
   -3.9289   -2.7586    1.0386 C   0  0  0  0  0  0  0  0  0  0  0  0
   -4.7706   -3.8747    1.0041 C   0  0  0  0  0  0  0  0  0  0  0  0
   -5.5093   -4.1476   -0.1411 C   0  0  0  0  0  0  0  0  0  0  0  0
   -6.3141   -5.2178   -0.1685 F   0  0  0  0  0  0  0  0  0  0  0  0
   -5.4220   -3.3268   -1.2572 C   0  0  0  0  0  0  0  0  0  0  0  0
   -4.5813   -2.2135   -1.2226 C   0  0  0  0  0  0  0  0  0  0  0  0
   -4.2843    5.6018   -0.5085 H   0  0  0  0  0  0  0  0  0  0  0  0
   -2.7565    4.8291   -0.4994 H   0  0  0  0  0  0  0  0  0  0  0  0
    1.9401    1.8232   -0.2113 H   0  0  0  0  0  0  0  0  0  0  0  0
    4.1067    1.8883   -0.5897 H   0  0  0  0  0  0  0  0  0  0  0  0
    6.4701    2.0401   -1.0183 H   0  0  0  0  0  0  0  0  0  0  0  0
    8.7320    1.0686   -1.0561 H   0  0  0  0  0  0  0  0  0  0  0  0
    9.9692   -0.7847   -0.6361 H   0  0  0  0  0  0  0  0  0  0  0  0
    7.1762   -2.6572    0.4415 H   0  0  0  0  0  0  0  0  0  0  0  0
    4.8931   -1.6927    0.4848 H   0  0  0  0  0  0  0  0  0  0  0  0
   -3.0921   -0.1977    1.8289 H   0  0  0  0  0  0  0  0  0  0  0  0
   -1.6697   -1.1211    1.3259 H   0  0  0  0  0  0  0  0  0  0  0  0
   -3.3587   -2.5804    1.9443 H   0  0  0  0  0  0  0  0  0  0  0  0
   -4.8511   -4.5338    1.8627 H   0  0  0  0  0  0  0  0  0  0  0  0
   -6.0040   -3.5560   -2.1435 H   0  0  0  0  0  0  0  0  0  0  0  0
   -4.5083   -1.5670   -2.0938 H   0  0  0  0  0  0  0  0  0  0  0  0
  1  2  1  0
  2  3  2  0
  3  4  1  0
  4  5  1  0
  5  6  2  0
  6  7  1  0
  7  8  1  0
  8  9  2  0
  9 10  1  0
 10 11  1  0
 11 12  2  0
 11 13  1  0
 13 14  1  0
 14 15  2  3
 15 16  1  0
 16 17  2  0
 17 18  1  0
 18 19  2  0
 19 20  1  0
 19 21  1  0
 21 22  2  0
 10 23  2  0
 23 24  1  0
 24 25  1  0
 25 26  1  0
 26 27  2  0
 27 28  1  0
 28 29  2  0
 29 30  1  0
 29 31  1  0
 31 32  2  0
  6  2  1  0
 23  7  1  0
 32 26  1  0
 22 16  1  0
  1 33  1  0
  1 34  1  0
 13 35  1  0
 15 36  1  0
 17 37  1  0
 18 38  1  0
 20 39  1  0
 21 40  1  0
 22 41  1  0
 24 42  1  0
 24 43  1  0
 27 44  1  0
 28 45  1  0
 31 46  1  0
 32 47  1  0
M  END
$$$$
