
     RDKit          3D

 44 46  0  0  0  0  0  0  0  0999 V2000
   -5.4818   -0.2769   -3.5222 C   0  0  0  0  0  0  0  0  0  0  0  0
   -4.7593   -0.7406   -2.2914 C   0  0  0  0  0  0  0  0  0  0  0  0
   -4.4052    0.1788   -1.2938 C   0  0  0  0  0  0  0  0  0  0  0  0
   -3.7120   -0.2416   -0.1579 C   0  0  0  0  0  0  0  0  0  0  0  0
   -3.3529   -1.5854   -0.0302 C   0  0  0  0  0  0  0  0  0  0  0  0
   -2.4849   -2.1328    1.4164 S   0  0  0  0  0  6  0  0  0  0  0  0
   -2.5328   -1.0913    2.4199 O   0  0  0  0  0  0  0  0  0  0  0  0
   -2.9430   -3.4741    1.7157 O   0  0  0  0  0  0  0  0  0  0  0  0
   -0.8951   -2.3014    0.8580 N   0  0  0  0  0  0  0  0  0  0  0  0
   -0.1054   -1.1248    0.7401 C   0  0  0  0  0  0  0  0  0  0  0  0
   -0.1203   -0.4069   -0.4542 C   0  0  0  0  0  0  0  0  0  0  0  0
    0.6175    0.7767   -0.5760 C   0  0  0  0  0  0  0  0  0  0  0  0
    0.5990    1.5496   -1.8641 C   0  0  0  0  0  0  0  0  0  0  0  0
    1.3731    1.2215    0.5203 C   0  0  0  0  0  0  0  0  0  0  0  0
    2.0868    2.3793    0.3469 O   0  0  0  0  0  0  0  0  0  0  0  0
    1.3825    0.5122    1.7344 C   0  0  0  0  0  0  0  0  0  0  0  0
    2.2225    1.0694    3.2118 S   0  0  0  0  0  0  0  0  0  0  0  0
    3.8926    0.9983    2.7354 C   0  0  0  0  0  0  0  0  0  0  0  0
    4.7975    0.2587    3.3794 N   0  0  0  0  0  0  0  0  0  0  0  0
    5.9157    0.5503    2.6979 N   0  0  0  0  0  0  0  0  0  0  0  0
    5.6656    1.4341    1.6854 C   0  0  0  0  0  0  0  0  0  0  0  0
    6.7149    1.9364    0.7742 C   0  0  0  0  0  0  0  0  0  0  0  0
    4.3857    1.7431    1.6947 N   0  0  0  0  0  0  0  0  0  0  0  0
    0.6275   -0.6648    1.8331 C   0  0  0  0  0  0  0  0  0  0  0  0
   -3.6957   -2.5128   -1.0172 C   0  0  0  0  0  0  0  0  0  0  0  0
   -4.3901   -2.0856   -2.1500 C   0  0  0  0  0  0  0  0  0  0  0  0
   -6.0689   -1.0903   -3.9631 H   0  0  0  0  0  0  0  0  0  0  0  0
   -6.1789    0.5328   -3.2812 H   0  0  0  0  0  0  0  0  0  0  0  0
   -4.7625    0.0814   -4.2652 H   0  0  0  0  0  0  0  0  0  0  0  0
   -4.6735    1.2287   -1.3940 H   0  0  0  0  0  0  0  0  0  0  0  0
   -3.4519    0.4808    0.6131 H   0  0  0  0  0  0  0  0  0  0  0  0
   -0.4581   -3.1200    1.2804 H   0  0  0  0  0  0  0  0  0  0  0  0
   -0.7027   -0.7716   -1.2972 H   0  0  0  0  0  0  0  0  0  0  0  0
    0.2038    2.5571   -1.6964 H   0  0  0  0  0  0  0  0  0  0  0  0
    1.6097    1.6184   -2.2792 H   0  0  0  0  0  0  0  0  0  0  0  0
   -0.0354    1.0654   -2.6141 H   0  0  0  0  0  0  0  0  0  0  0  0
    2.8455    2.3643    0.9682 H   0  0  0  0  0  0  0  0  0  0  0  0
    6.7929    0.1231    2.9748 H   0  0  0  0  0  0  0  0  0  0  0  0
    7.4784    1.1747    0.5885 H   0  0  0  0  0  0  0  0  0  0  0  0
    7.2007    2.8159    1.2067 H   0  0  0  0  0  0  0  0  0  0  0  0
    6.2805    2.2225   -0.1885 H   0  0  0  0  0  0  0  0  0  0  0  0
    0.5928   -1.2122    2.7722 H   0  0  0  0  0  0  0  0  0  0  0  0
   -3.4262   -3.5610   -0.9113 H   0  0  0  0  0  0  0  0  0  0  0  0
   -4.6484   -2.8096   -2.9203 H   0  0  0  0  0  0  0  0  0  0  0  0
  1  2  1  0
  2  3  2  0
  3  4  1  0
  4  5  2  0
  5  6  1  0
  6  7  2  0
  6  8  2  0
  6  9  1  0
  9 10  1  0
 10 11  2  0
 11 12  1  0
 12 13  1  0
 12 14  2  0
 14 15  1  0
 14 16  1  0
 16 17  1  0
 17 18  1  0
 18 19  2  0
 19 20  1  0
 20 21  1  0
 21 22  1  0
 21 23  2  0
 16 24  2  0
  5 25  1  0
 25 26  2  0
 26  2  1  0
 24 10  1  0
 23 18  1  0
  1 27  1  0
  1 28  1  0
  1 29  1  0
  3 30  1  0
  4 31  1  0
  9 32  1  0
 11 33  1  0
 13 34  1  0
 13 35  1  0
 13 36  1  0
 15 37  1  0
 20 38  1  0
 22 39  1  0
 22 40  1  0
 22 41  1  0
 24 42  1  0
 25 43  1  0
 26 44  1  0
M  END
$$$$
