
     RDKit          3D

 40 41  0  0  0  0  0  0  0  0999 V2000
    0.1222   -2.9886   -4.0233 C   0  0  0  0  0  0  0  0  0  0  0  0
   -1.2292   -3.4105   -3.4711 C   0  0  0  0  0  0  0  0  0  0  0  0
   -1.5678   -2.6496   -2.3107 O   0  0  0  0  0  0  0  0  0  0  0  0
   -2.1539   -1.4238   -2.5488 C   0  0  0  0  0  0  0  0  0  0  0  0
   -2.4712   -1.0921   -3.8256 N   0  0  0  0  0  0  0  0  0  0  0  0
   -3.1046    0.0859   -4.0218 C   0  0  0  0  0  0  0  0  0  0  0  0
   -3.4497    0.9552   -3.0009 C   0  0  0  0  0  0  0  0  0  0  0  0
   -3.1164    0.6006   -1.6980 C   0  0  0  0  0  0  0  0  0  0  0  0
   -2.4432   -0.6030   -1.4638 C   0  0  0  0  0  0  0  0  0  0  0  0
   -2.1029   -0.9516   -0.0765 C   0  0  0  0  0  0  0  0  0  0  0  0
   -2.8629   -0.7595    0.8598 O   0  0  0  0  0  0  0  0  0  0  0  0
   -0.8270   -1.3950   -0.0092 O   0  0  0  0  0  0  0  0  0  0  0  0
   -0.3445   -1.6960    1.3038 C   0  0  0  0  0  0  0  0  0  0  0  0
    0.4295   -0.5155    1.8332 C   0  0  0  0  0  0  0  0  0  0  0  0
    1.7505   -0.2900    1.4224 C   0  0  0  0  0  0  0  0  0  0  0  0
    2.4626    0.8169    1.8945 C   0  0  0  0  0  0  0  0  0  0  0  0
    1.8577    1.7192    2.7789 C   0  0  0  0  0  0  0  0  0  0  0  0
    2.5668    2.9152    3.3106 C   0  0  0  0  0  0  0  0  0  0  0  0
    2.0543    3.7219    4.0707 O   0  0  0  0  0  0  0  0  0  0  0  0
    3.8368    2.9708    2.8358 O   0  0  0  0  0  0  0  0  0  0  0  0
    4.5820    4.0947    3.3059 C   0  0  0  0  0  0  0  0  0  0  0  0
    0.5333    1.5027    3.1805 C   0  0  0  0  0  0  0  0  0  0  0  0
   -0.1764    0.3957    2.7080 C   0  0  0  0  0  0  0  0  0  0  0  0
    0.4186   -3.6354   -4.8540 H   0  0  0  0  0  0  0  0  0  0  0  0
    0.1029   -1.9541   -4.3794 H   0  0  0  0  0  0  0  0  0  0  0  0
    0.8889   -3.0425   -3.2433 H   0  0  0  0  0  0  0  0  0  0  0  0
   -2.0150   -3.3917   -4.2356 H   0  0  0  0  0  0  0  0  0  0  0  0
   -1.1563   -4.4537   -3.1429 H   0  0  0  0  0  0  0  0  0  0  0  0
   -3.3411    0.3170   -5.0570 H   0  0  0  0  0  0  0  0  0  0  0  0
   -3.9662    1.8849   -3.2139 H   0  0  0  0  0  0  0  0  0  0  0  0
   -3.3747    1.2565   -0.8697 H   0  0  0  0  0  0  0  0  0  0  0  0
   -1.1465   -1.9957    1.9897 H   0  0  0  0  0  0  0  0  0  0  0  0
    0.3200   -2.5639    1.2204 H   0  0  0  0  0  0  0  0  0  0  0  0
    2.2305   -0.9747    0.7257 H   0  0  0  0  0  0  0  0  0  0  0  0
    3.4862    0.9637    1.5589 H   0  0  0  0  0  0  0  0  0  0  0  0
    4.1102    5.0290    2.9857 H   0  0  0  0  0  0  0  0  0  0  0  0
    4.6792    4.0619    4.3956 H   0  0  0  0  0  0  0  0  0  0  0  0
    5.5826    4.0446    2.8677 H   0  0  0  0  0  0  0  0  0  0  0  0
    0.0448    2.1983    3.8607 H   0  0  0  0  0  0  0  0  0  0  0  0
   -1.2100    0.2521    3.0204 H   0  0  0  0  0  0  0  0  0  0  0  0
  1  2  1  0
  2  3  1  0
  3  4  1  0
  4  5  2  0
  5  6  1  0
  6  7  2  0
  7  8  1  0
  8  9  2  0
  9 10  1  0
 10 11  2  0
 10 12  1  0
 12 13  1  0
 13 14  1  0
 14 15  2  0
 15 16  1  0
 16 17  2  0
 17 18  1  0
 18 19  2  0
 18 20  1  0
 20 21  1  0
 17 22  1  0
 22 23  2  0
  9  4  1  0
 23 14  1  0
  1 24  1  0
  1 25  1  0
  1 26  1  0
  2 27  1  0
  2 28  1  0
  6 29  1  0
  7 30  1  0
  8 31  1  0
 13 32  1  0
 13 33  1  0
 15 34  1  0
 16 35  1  0
 21 36  1  0
 21 37  1  0
 21 38  1  0
 22 39  1  0
 23 40  1  0
M  END
$$$$
