
     RDKit          3D

 50 54  0  0  0  0  0  0  0  0999 V2000
   -4.9896    0.6255   -0.8615 C   0  0  0  0  0  0  0  0  0  0  0  0
   -4.5594   -0.6620   -0.2314 C   0  0  0  0  0  0  0  0  0  0  0  0
   -5.4019   -1.4986    0.3945 C   0  0  0  0  0  0  0  0  0  0  0  0
   -4.9303   -2.7185    0.9899 C   0  0  0  0  0  0  0  0  0  0  0  0
   -3.6320   -3.0315    0.9272 C   0  0  0  0  0  0  0  0  0  0  0  0
   -2.7101   -2.2077    0.2929 N   0  0  0  0  0  0  0  0  0  0  0  0
   -1.3782   -2.5819    0.2634 C   0  0  0  0  0  0  0  0  0  0  0  0
   -0.9331   -3.6095    0.7801 O   0  0  0  0  0  0  0  0  0  0  0  0
   -0.4492   -1.6534   -0.4390 C   0  0  0  0  0  0  0  0  0  0  0  0
    0.9716   -1.9620   -0.4906 C   0  0  0  0  0  0  0  0  0  0  0  0
    1.8565   -1.1571   -1.1013 C   0  0  0  0  0  0  0  0  0  0  0  0
    3.5387   -1.5177   -1.0058 S   0  0  0  0  0  6  0  0  0  0  0  0
    3.7431   -2.9539   -0.9366 O   0  0  0  0  0  0  0  0  0  0  0  0
    4.2809   -0.7279   -1.9738 O   0  0  0  0  0  0  0  0  0  0  0  0
    3.9609   -0.8541    0.5999 C   0  0  0  0  0  0  0  0  0  0  0  0
    4.1515   -1.7198    1.6836 C   0  0  0  0  0  0  0  0  0  0  0  0
    4.4839   -1.1896    2.9308 C   0  0  0  0  0  0  0  0  0  0  0  0
    4.6293    0.1871    3.0781 C   0  0  0  0  0  0  0  0  0  0  0  0
    4.9479    0.6905    4.2773 F   0  0  0  0  0  0  0  0  0  0  0  0
    4.4533    1.0494    1.9995 C   0  0  0  0  0  0  0  0  0  0  0  0
    4.1215    0.5301    0.7479 C   0  0  0  0  0  0  0  0  0  0  0  0
    1.3217    0.0804   -1.7514 C   0  0  0  0  0  0  0  0  0  0  0  0
    2.0911    0.8919   -2.4186 N   0  0  0  0  0  0  0  0  0  0  0  0
   -0.0473    0.3616   -1.6374 N   0  0  0  0  0  0  0  0  0  0  0  0
   -0.5468    1.6587   -2.1374 C   0  0  0  0  0  0  0  0  0  0  0  0
   -0.4144    2.7887   -1.1670 C   0  0  0  0  0  0  0  0  0  0  0  0
    0.6435    3.5960   -0.7998 C   0  0  0  0  0  0  0  0  0  0  0  0
    0.1457    4.4891    0.1780 C   0  0  0  0  0  0  0  0  0  0  0  0
   -1.1820    4.1729    0.3444 C   0  0  0  0  0  0  0  0  0  0  0  0
   -1.5330    3.1440   -0.4686 O   0  0  0  0  0  0  0  0  0  0  0  0
   -0.9428   -0.5193   -0.9842 C   0  0  0  0  0  0  0  0  0  0  0  0
   -2.2817   -0.2232   -0.9141 N   0  0  0  0  0  0  0  0  0  0  0  0
   -3.0997   -1.0211   -0.3056 C   0  0  0  0  0  0  0  0  0  0  0  0
   -4.7699    0.6218   -1.9342 H   0  0  0  0  0  0  0  0  0  0  0  0
   -6.0656    0.7942   -0.7456 H   0  0  0  0  0  0  0  0  0  0  0  0
   -4.4713    1.4726   -0.4001 H   0  0  0  0  0  0  0  0  0  0  0  0
   -6.4623   -1.2771    0.4730 H   0  0  0  0  0  0  0  0  0  0  0  0
   -5.6427   -3.3689    1.4872 H   0  0  0  0  0  0  0  0  0  0  0  0
   -3.2543   -3.9484    1.3734 H   0  0  0  0  0  0  0  0  0  0  0  0
    1.2949   -2.8700    0.0162 H   0  0  0  0  0  0  0  0  0  0  0  0
    4.0482   -2.7971    1.5695 H   0  0  0  0  0  0  0  0  0  0  0  0
    4.6355   -1.8392    3.7879 H   0  0  0  0  0  0  0  0  0  0  0  0
    4.5808    2.1185    2.1415 H   0  0  0  0  0  0  0  0  0  0  0  0
    3.9954    1.2057   -0.0958 H   0  0  0  0  0  0  0  0  0  0  0  0
    3.0668    0.5558   -2.4914 H   0  0  0  0  0  0  0  0  0  0  0  0
   -0.0294    1.9316   -3.0666 H   0  0  0  0  0  0  0  0  0  0  0  0
   -1.5968    1.5750   -2.4471 H   0  0  0  0  0  0  0  0  0  0  0  0
    1.6480    3.5356   -1.1967 H   0  0  0  0  0  0  0  0  0  0  0  0
    0.6859    5.2679    0.6972 H   0  0  0  0  0  0  0  0  0  0  0  0
   -1.9729    4.5647    0.9684 H   0  0  0  0  0  0  0  0  0  0  0  0
  1  2  1  0
  2  3  2  0
  3  4  1  0
  4  5  2  0
  5  6  1  0
  6  7  1  0
  7  8  2  0
  7  9  1  0
  9 10  1  0
 10 11  2  0
 11 12  1  0
 12 13  2  0
 12 14  2  0
 12 15  1  0
 15 16  2  0
 16 17  1  0
 17 18  2  0
 18 19  1  0
 18 20  1  0
 20 21  2  0
 11 22  1  0
 22 23  2  3
 22 24  1  0
 24 25  1  0
 25 26  1  0
 26 27  2  0
 27 28  1  0
 28 29  2  0
 29 30  1  0
 24 31  1  0
 31 32  1  0
 32 33  2  0
 33  2  1  0
 33  6  1  0
 31  9  2  0
 21 15  1  0
 30 26  1  0
  1 34  1  0
  1 35  1  0
  1 36  1  0
  3 37  1  0
  4 38  1  0
  5 39  1  0
 10 40  1  0
 16 41  1  0
 17 42  1  0
 20 43  1  0
 21 44  1  0
 23 45  1  0
 25 46  1  0
 25 47  1  0
 27 48  1  0
 28 49  1  0
 29 50  1  0
M  END
$$$$
