
     RDKit          3D

 43 45  0  0  0  0  0  0  0  0999 V2000
   -4.6633   -2.7091   -1.5029 C   0  0  0  0  0  0  0  0  0  0  0  0
   -3.6154   -2.3016   -0.6321 O   0  0  0  0  0  0  0  0  0  0  0  0
   -3.4217   -0.9580   -0.4784 C   0  0  0  0  0  0  0  0  0  0  0  0
   -4.1358    0.0528   -1.1178 C   0  0  0  0  0  0  0  0  0  0  0  0
   -3.8340    1.4001   -0.8730 C   0  0  0  0  0  0  0  0  0  0  0  0
   -2.8163    1.7586    0.0173 C   0  0  0  0  0  0  0  0  0  0  0  0
   -2.4538    3.0496    0.2788 O   0  0  0  0  0  0  0  0  0  0  0  0
   -3.3613    4.0781   -0.0972 C   0  0  0  0  0  0  0  0  0  0  0  0
   -2.0988    0.7356    0.6484 C   0  0  0  0  0  0  0  0  0  0  0  0
   -0.7963    1.1110    1.7925 S   0  0  0  0  0  6  0  0  0  0  0  0
   -1.3207    2.0371    2.7750 O   0  0  0  0  0  0  0  0  0  0  0  0
   -0.1820   -0.1305    2.2187 O   0  0  0  0  0  0  0  0  0  0  0  0
    0.3227    1.9681    0.8578 N   0  0  0  0  0  0  0  0  0  0  0  0
    1.2907    1.2378    0.1188 C   0  0  0  0  0  0  0  0  0  0  0  0
    0.9352    0.6012   -1.0685 C   0  0  0  0  0  0  0  0  0  0  0  0
    1.8838   -0.1486   -1.7617 C   0  0  0  0  0  0  0  0  0  0  0  0
    3.1772   -0.2698   -1.2571 C   0  0  0  0  0  0  0  0  0  0  0  0
    4.0384   -1.0395   -1.9908 O   0  0  0  0  0  0  0  0  0  0  0  0
    3.5500    0.3663   -0.0638 C   0  0  0  0  0  0  0  0  0  0  0  0
    5.2128    0.3370    0.5911 S   0  0  0  0  0  0  0  0  0  0  0  0
    5.4002   -1.3352    1.0339 C   0  0  0  0  0  0  0  0  0  0  0  0
    5.5956   -1.7577    2.3178 N   0  0  0  0  0  0  0  0  0  0  0  0
    5.6896   -3.0598    2.1897 C   0  0  0  0  0  0  0  0  0  0  0  0
    5.5727   -3.3967    0.8786 N   0  0  0  0  0  0  0  0  0  0  0  0
    5.4052   -2.3054    0.1094 N   0  0  0  0  0  0  0  0  0  0  0  0
    2.5887    1.1220    0.6218 C   0  0  0  0  0  0  0  0  0  0  0  0
   -2.4019   -0.6124    0.4061 C   0  0  0  0  0  0  0  0  0  0  0  0
   -4.6928   -3.8030   -1.5017 H   0  0  0  0  0  0  0  0  0  0  0  0
   -4.4714   -2.3821   -2.5301 H   0  0  0  0  0  0  0  0  0  0  0  0
   -5.6345   -2.3490   -1.1478 H   0  0  0  0  0  0  0  0  0  0  0  0
   -4.9345   -0.1691   -1.8187 H   0  0  0  0  0  0  0  0  0  0  0  0
   -4.4110    2.1484   -1.4079 H   0  0  0  0  0  0  0  0  0  0  0  0
   -2.9950    5.0178    0.3272 H   0  0  0  0  0  0  0  0  0  0  0  0
   -3.3894    4.1933   -1.1854 H   0  0  0  0  0  0  0  0  0  0  0  0
   -4.3625    3.8968    0.3081 H   0  0  0  0  0  0  0  0  0  0  0  0
    0.6092    2.8245    1.3288 H   0  0  0  0  0  0  0  0  0  0  0  0
   -0.0679    0.6928   -1.4731 H   0  0  0  0  0  0  0  0  0  0  0  0
    1.6163   -0.6453   -2.6902 H   0  0  0  0  0  0  0  0  0  0  0  0
    4.7304   -1.3707   -1.3774 H   0  0  0  0  0  0  0  0  0  0  0  0
    5.8373   -3.7811    2.9809 H   0  0  0  0  0  0  0  0  0  0  0  0
    5.5994   -4.3149    0.4483 H   0  0  0  0  0  0  0  0  0  0  0  0
    2.8496    1.6138    1.5556 H   0  0  0  0  0  0  0  0  0  0  0  0
   -1.8447   -1.4033    0.9052 H   0  0  0  0  0  0  0  0  0  0  0  0
  1  2  1  0
  2  3  1  0
  3  4  2  0
  4  5  1  0
  5  6  2  0
  6  7  1  0
  7  8  1  0
  6  9  1  0
  9 10  1  0
 10 11  2  0
 10 12  2  0
 10 13  1  0
 13 14  1  0
 14 15  2  0
 15 16  1  0
 16 17  2  0
 17 18  1  0
 17 19  1  0
 19 20  1  0
 20 21  1  0
 21 22  1  0
 22 23  2  0
 23 24  1  0
 24 25  1  0
 19 26  2  0
  9 27  2  0
 27  3  1  0
 26 14  1  0
 25 21  2  0
  1 28  1  0
  1 29  1  0
  1 30  1  0
  4 31  1  0
  5 32  1  0
  8 33  1  0
  8 34  1  0
  8 35  1  0
 13 36  1  0
 15 37  1  0
 16 38  1  0
 18 39  1  0
 23 40  1  0
 24 41  1  0
 26 42  1  0
 27 43  1  0
M  END
$$$$
