
     RDKit          3D

 32 34  0  0  0  0  0  0  0  0999 V2000
    0.0783    1.3788   -0.3626 O   0  0  0  0  0  0  0  0  0  0  0  0
   -0.2285    0.2238   -0.0895 C   0  0  0  0  0  0  0  0  0  0  0  0
   -1.6854   -0.2621   -0.0815 C   0  0  0  0  0  0  0  0  0  0  0  0
   -2.5822    0.7828   -0.4231 O   0  0  0  0  0  0  0  0  0  0  0  0
   -3.9153    0.4846   -0.4536 C   0  0  0  0  0  0  0  0  0  0  0  0
   -4.7413    1.5610   -0.7977 C   0  0  0  0  0  0  0  0  0  0  0  0
   -6.1257    1.4004   -0.8678 C   0  0  0  0  0  0  0  0  0  0  0  0
   -6.6801    0.1582   -0.5920 C   0  0  0  0  0  0  0  0  0  0  0  0
   -8.0079   -0.0034   -0.6573 F   0  0  0  0  0  0  0  0  0  0  0  0
   -5.8750   -0.9217   -0.2487 C   0  0  0  0  0  0  0  0  0  0  0  0
   -4.4875   -0.7603   -0.1786 C   0  0  0  0  0  0  0  0  0  0  0  0
    0.6429   -0.7962    0.2436 N   0  0  0  0  0  0  0  0  0  0  0  0
    2.0105   -0.7171    0.3329 C   0  0  0  0  0  0  0  0  0  0  0  0
    2.7416   -1.7608    0.6611 N   0  0  0  0  0  0  0  0  0  0  0  0
    4.0903   -1.4612    0.6928 N   0  0  0  0  0  0  0  0  0  0  0  0
    4.3090   -0.2038    0.3785 C   0  0  0  0  0  0  0  0  0  0  0  0
    5.7421    0.4095    0.3432 C   0  0  0  0  0  0  0  0  0  0  0  0
    6.3556    0.7768   -0.9843 C   0  0  0  0  0  0  0  0  0  0  0  0
    6.8775   -0.4059   -0.2220 C   0  0  0  0  0  0  0  0  0  0  0  0
    2.9028    0.7040    0.0395 S   0  0  0  0  0  0  0  0  0  0  0  0
   -1.9025   -0.6275    0.9298 H   0  0  0  0  0  0  0  0  0  0  0  0
   -1.7624   -1.0767   -0.8121 H   0  0  0  0  0  0  0  0  0  0  0  0
   -4.2993    2.5317   -1.0125 H   0  0  0  0  0  0  0  0  0  0  0  0
   -6.7681    2.2330   -1.1343 H   0  0  0  0  0  0  0  0  0  0  0  0
   -6.3331   -1.8829   -0.0376 H   0  0  0  0  0  0  0  0  0  0  0  0
   -3.8897   -1.6234    0.0922 H   0  0  0  0  0  0  0  0  0  0  0  0
    0.2885   -1.7194    0.4528 H   0  0  0  0  0  0  0  0  0  0  0  0
    5.9697    1.0435    1.1934 H   0  0  0  0  0  0  0  0  0  0  0  0
    6.9718    1.6675   -1.0267 H   0  0  0  0  0  0  0  0  0  0  0  0
    5.7953    0.5834   -1.8922 H   0  0  0  0  0  0  0  0  0  0  0  0
    6.6615   -1.3968   -0.6066 H   0  0  0  0  0  0  0  0  0  0  0  0
    7.8466   -0.3201    0.2554 H   0  0  0  0  0  0  0  0  0  0  0  0
  1  2  2  0
  2  3  1  0
  3  4  1  0
  4  5  1  0
  5  6  2  0
  6  7  1  0
  7  8  2  0
  8  9  1  0
  8 10  1  0
 10 11  2  0
  2 12  1  0
 12 13  1  0
 13 14  2  0
 14 15  1  0
 15 16  2  0
 16 17  1  0
 17 18  1  0
 18 19  1  0
 16 20  1  0
 11  5  1  0
 20 13  1  0
 19 17  1  0
  3 21  1  0
  3 22  1  0
  6 23  1  0
  7 24  1  0
 10 25  1  0
 11 26  1  0
 12 27  1  0
 17 28  1  0
 18 29  1  0
 18 30  1  0
 19 31  1  0
 19 32  1  0
M  END
$$$$
