
     RDKit          3D

 55 60  0  0  0  0  0  0  0  0999 V2000
    4.9642   -2.0831    0.4952 O   0  0  0  0  0  0  0  0  0  0  0  0
    4.3891   -1.0161    0.6998 C   0  0  0  0  0  0  0  0  0  0  0  0
    5.0672    0.0654    1.4000 C   0  0  0  0  0  0  0  0  0  0  0  0
    4.5610    1.0874    2.2578 C   0  0  0  0  0  0  0  0  0  0  0  0
    5.6448    1.8215    2.6788 C   0  0  0  0  0  0  0  0  0  0  0  0
    6.7899    1.3130    2.1590 O   0  0  0  0  0  0  0  0  0  0  0  0
    6.4375    0.2409    1.4052 C   0  0  0  0  0  0  0  0  0  0  0  0
    3.0495   -0.8070    0.3242 N   0  0  0  0  0  0  0  0  0  0  0  0
    2.3438   -1.9848   -0.1702 C   0  0  0  0  0  0  0  0  0  0  0  0
    0.8291   -1.8091   -0.0786 C   0  0  0  0  0  0  0  0  0  0  0  0
    0.3439   -0.5141   -0.7808 C   0  0  0  0  0  0  0  0  0  0  0  0
    1.1617    0.6804   -0.2303 C   0  0  0  0  0  0  0  0  0  0  0  0
    2.6655    0.4398   -0.3343 C   0  0  0  0  0  0  0  0  0  0  0  0
    0.6975   -0.7189   -2.1743 O   0  0  0  0  0  0  0  0  0  0  0  0
    0.0572    0.0293   -3.1155 C   0  0  0  0  0  0  0  0  0  0  0  0
    0.5940   -0.0155   -4.4023 C   0  0  0  0  0  0  0  0  0  0  0  0
    0.0191    0.7383   -5.4288 C   0  0  0  0  0  0  0  0  0  0  0  0
   -1.0952    1.5347   -5.1652 C   0  0  0  0  0  0  0  0  0  0  0  0
   -1.7950    2.4671   -6.4293 Cl  0  0  0  0  0  0  0  0  0  0  0  0
   -1.6449    1.5775   -3.8870 C   0  0  0  0  0  0  0  0  0  0  0  0
   -1.0668    0.8104   -2.8705 C   0  0  0  0  0  0  0  0  0  0  0  0
   -1.6322    0.8200   -1.5155 C   0  0  0  0  0  0  0  0  0  0  0  0
   -2.3984    1.7201   -1.1821 O   0  0  0  0  0  0  0  0  0  0  0  0
   -1.1878   -0.3151   -0.5997 C   0  0  0  0  0  0  0  0  0  0  0  0
   -1.6585   -0.0785    0.8291 C   0  0  0  0  0  0  0  0  0  0  0  0
   -2.9211   -0.8714    0.7882 C   0  0  0  0  0  0  0  0  0  0  0  0
   -3.9519   -0.7713    1.8489 C   0  0  0  0  0  0  0  0  0  0  0  0
   -5.1413   -1.5001    1.7079 C   0  0  0  0  0  0  0  0  0  0  0  0
   -6.1326   -1.4319    2.6908 C   0  0  0  0  0  0  0  0  0  0  0  0
   -5.9357   -0.6360    3.8164 C   0  0  0  0  0  0  0  0  0  0  0  0
   -7.1529   -0.5504    5.0285 Cl  0  0  0  0  0  0  0  0  0  0  0  0
   -4.7560    0.0914    3.9674 C   0  0  0  0  0  0  0  0  0  0  0  0
   -3.7620    0.0247    2.9848 C   0  0  0  0  0  0  0  0  0  0  0  0
   -3.0257   -1.6729   -0.2235 N   0  0  0  0  0  0  0  0  0  0  0  0
   -1.8795   -1.5000   -1.0280 O   0  0  0  0  0  0  0  0  0  0  0  0
    3.5328    1.2571    2.5430 H   0  0  0  0  0  0  0  0  0  0  0  0
    5.7664    2.6800    3.3250 H   0  0  0  0  0  0  0  0  0  0  0  0
    7.2543   -0.2932    0.9380 H   0  0  0  0  0  0  0  0  0  0  0  0
    2.6360   -2.8608    0.4213 H   0  0  0  0  0  0  0  0  0  0  0  0
    2.6652   -2.1704   -1.2024 H   0  0  0  0  0  0  0  0  0  0  0  0
    0.5533   -1.8031    0.9810 H   0  0  0  0  0  0  0  0  0  0  0  0
    0.3610   -2.6902   -0.5340 H   0  0  0  0  0  0  0  0  0  0  0  0
    0.9073    0.8570    0.8219 H   0  0  0  0  0  0  0  0  0  0  0  0
    0.9295    1.6002   -0.7789 H   0  0  0  0  0  0  0  0  0  0  0  0
    2.9814    0.3694   -1.3830 H   0  0  0  0  0  0  0  0  0  0  0  0
    3.1974    1.2981    0.0794 H   0  0  0  0  0  0  0  0  0  0  0  0
    1.4645   -0.6342   -4.6086 H   0  0  0  0  0  0  0  0  0  0  0  0
    0.4450    0.7002   -6.4287 H   0  0  0  0  0  0  0  0  0  0  0  0
   -2.5194    2.1911   -3.6832 H   0  0  0  0  0  0  0  0  0  0  0  0
   -1.8258    0.9724    1.0760 H   0  0  0  0  0  0  0  0  0  0  0  0
   -1.0102   -0.5220    1.5882 H   0  0  0  0  0  0  0  0  0  0  0  0
   -5.3062   -2.1241    0.8310 H   0  0  0  0  0  0  0  0  0  0  0  0
   -7.0512   -2.0005    2.5692 H   0  0  0  0  0  0  0  0  0  0  0  0
   -4.6047    0.7125    4.8469 H   0  0  0  0  0  0  0  0  0  0  0  0
   -2.8538    0.6013    3.1320 H   0  0  0  0  0  0  0  0  0  0  0  0
  1  2  2  0
  2  3  1  0
  3  4  1  0
  4  5  2  0
  5  6  1  0
  6  7  1  0
  2  8  1  0
  8  9  1  0
  9 10  1  0
 10 11  1  0
 11 12  1  0
 12 13  1  0
 11 14  1  0
 14 15  1  0
 15 16  2  0
 16 17  1  0
 17 18  2  0
 18 19  1  0
 18 20  1  0
 20 21  2  0
 21 22  1  0
 22 23  2  0
 22 24  1  0
 24 25  1  0
 25 26  1  0
 26 27  1  0
 27 28  2  0
 28 29  1  0
 29 30  2  0
 30 31  1  0
 30 32  1  0
 32 33  2  0
 26 34  2  0
 34 35  1  0
  7  3  2  0
 13  8  1  0
 21 15  1  0
 35 24  1  0
 24 11  1  0
 33 27  1  0
  4 36  1  0
  5 37  1  0
  7 38  1  0
  9 39  1  0
  9 40  1  0
 10 41  1  0
 10 42  1  0
 12 43  1  0
 12 44  1  0
 13 45  1  0
 13 46  1  0
 16 47  1  0
 17 48  1  0
 20 49  1  0
 25 50  1  0
 25 51  1  0
 28 52  1  0
 29 53  1  0
 32 54  1  0
 33 55  1  0
M  END
$$$$
