
     RDKit          3D

 57 62  0  0  0  0  0  0  0  0999 V2000
    5.6401   -1.9809   -2.9233 C   0  0  0  0  0  0  0  0  0  0  0  0
    4.3148   -1.8507   -2.4250 O   0  0  0  0  0  0  0  0  0  0  0  0
    4.1772   -1.5781   -1.0902 C   0  0  0  0  0  0  0  0  0  0  0  0
    5.2309   -1.4581   -0.1640 C   0  0  0  0  0  0  0  0  0  0  0  0
    4.9754   -1.1778    1.1841 C   0  0  0  0  0  0  0  0  0  0  0  0
    3.6603   -1.0266    1.5675 C   0  0  0  0  0  0  0  0  0  0  0  0
    2.6001   -1.1408    0.6663 C   0  0  0  0  0  0  0  0  0  0  0  0
    2.8504   -1.4190   -0.6699 C   0  0  0  0  0  0  0  0  0  0  0  0
    1.3127   -0.9325    1.4079 C   0  0  0  0  0  0  0  0  0  0  0  0
    0.3629   -2.0951    1.3464 N   0  0  0  0  0  0  0  0  0  0  0  0
   -1.0433   -1.5430    1.2223 C   0  0  2  0  0  0  0  0  0  0  0  0
   -1.8737   -2.4635    0.3087 C   0  0  0  0  0  0  0  0  0  0  0  0
   -3.3554   -2.1664    0.2816 C   0  0  0  0  0  0  0  0  0  0  0  0
   -4.1214   -2.2184    1.4546 C   0  0  0  0  0  0  0  0  0  0  0  0
   -5.4861   -1.9282    1.4224 C   0  0  0  0  0  0  0  0  0  0  0  0
   -6.1011   -1.5939    0.2179 C   0  0  0  0  0  0  0  0  0  0  0  0
   -5.3541   -1.5571   -0.9573 C   0  0  0  0  0  0  0  0  0  0  0  0
   -3.9895   -1.8476   -0.9280 C   0  0  0  0  0  0  0  0  0  0  0  0
   -0.8046   -0.1657    0.7126 C   0  0  0  0  0  0  0  0  0  0  0  0
    0.5478    0.1675    0.8101 C   0  0  0  0  0  0  0  0  0  0  0  0
    0.7195    1.4645    0.4125 C   0  0  0  0  0  0  0  0  0  0  0  0
    1.8191    2.2119    0.5008 O   0  0  0  0  0  0  0  0  0  0  0  0
   -0.5279    1.9212   -0.0544 N   0  0  0  0  0  0  0  0  0  0  0  0
   -0.7612    3.1663   -0.7232 C   0  0  0  0  0  0  0  0  0  0  0  0
   -1.9816    3.8393   -0.5913 C   0  0  0  0  0  0  0  0  0  0  0  0
   -2.1902    5.0560   -1.2474 C   0  0  0  0  0  0  0  0  0  0  0  0
   -1.1893    5.6036   -2.0468 C   0  0  0  0  0  0  0  0  0  0  0  0
    0.0222    4.9336   -2.1978 C   0  0  0  0  0  0  0  0  0  0  0  0
    0.2371    3.7187   -1.5422 C   0  0  0  0  0  0  0  0  0  0  0  0
   -1.4869    0.9339    0.2511 C   0  0  0  0  0  0  0  0  0  0  0  0
   -2.7872    1.1205    0.0435 O   0  0  0  0  0  0  0  0  0  0  0  0
    1.7938   -0.6585    2.8626 C   0  0  0  0  0  0  0  0  0  0  0  0
    1.1269   -0.4172    3.8589 O   0  0  0  0  0  0  0  0  0  0  0  0
    3.1892   -0.7514    2.8442 N   0  0  0  0  0  0  0  0  0  0  0  0
    6.1528   -2.8312   -2.4619 H   0  0  0  0  0  0  0  0  0  0  0  0
    5.5753   -2.1752   -3.9982 H   0  0  0  0  0  0  0  0  0  0  0  0
    6.2070   -1.0540   -2.7864 H   0  0  0  0  0  0  0  0  0  0  0  0
    6.2661   -1.5783   -0.4670 H   0  0  0  0  0  0  0  0  0  0  0  0
    5.7890   -1.0847    1.8944 H   0  0  0  0  0  0  0  0  0  0  0  0
    2.0377   -1.5002   -1.3852 H   0  0  0  0  0  0  0  0  0  0  0  0
    0.5729   -2.5775    0.4747 H   0  0  0  0  0  0  0  0  0  0  0  0
   -1.4667   -1.4917    2.2321 H   0  0  0  0  0  0  0  0  0  0  0  0
   -1.4728   -2.4305   -0.7137 H   0  0  0  0  0  0  0  0  0  0  0  0
   -1.7657   -3.5054    0.6410 H   0  0  0  0  0  0  0  0  0  0  0  0
   -3.6642   -2.4895    2.4045 H   0  0  0  0  0  0  0  0  0  0  0  0
   -6.0713   -1.9684    2.3379 H   0  0  0  0  0  0  0  0  0  0  0  0
   -7.1645   -1.3697    0.1937 H   0  0  0  0  0  0  0  0  0  0  0  0
   -5.8343   -1.3020   -1.8988 H   0  0  0  0  0  0  0  0  0  0  0  0
   -3.4227   -1.8085   -1.8564 H   0  0  0  0  0  0  0  0  0  0  0  0
    1.5548    3.1500    0.5111 H   0  0  0  0  0  0  0  0  0  0  0  0
   -2.7770    3.4581    0.0429 H   0  0  0  0  0  0  0  0  0  0  0  0
   -3.1380    5.5755   -1.1306 H   0  0  0  0  0  0  0  0  0  0  0  0
   -1.3581    6.5472   -2.5591 H   0  0  0  0  0  0  0  0  0  0  0  0
    0.7957    5.3486   -2.8392 H   0  0  0  0  0  0  0  0  0  0  0  0
    1.1730    3.1952   -1.7278 H   0  0  0  0  0  0  0  0  0  0  0  0
   -3.2681    0.3373    0.3674 H   0  0  0  0  0  0  0  0  0  0  0  0
    3.7519   -0.6121    3.6686 H   0  0  0  0  0  0  0  0  0  0  0  0
  1  2  1  0
  2  3  1  0
  3  4  2  0
  4  5  1  0
  5  6  2  0
  6  7  1  0
  7  8  2  0
  7  9  1  0
  9 10  1  0
 10 11  1  0
 11 12  1  0
 12 13  1  0
 13 14  2  0
 14 15  1  0
 15 16  2  0
 16 17  1  0
 17 18  2  0
 11 19  1  0
 19 20  1  0
 20 21  2  0
 21 22  1  0
 21 23  1  0
 23 24  1  0
 24 25  2  0
 25 26  1  0
 26 27  2  0
 27 28  1  0
 28 29  2  0
 23 30  1  0
 30 31  1  0
  9 32  1  0
 32 33  2  0
 32 34  1  0
  8  3  1  0
 20  9  1  0
 29 24  1  0
 34  6  1  0
 18 13  1  0
 30 19  2  0
  1 35  1  0
  1 36  1  0
  1 37  1  0
  4 38  1  0
  5 39  1  0
  8 40  1  0
 10 41  1  0
 11 42  1  1
 12 43  1  0
 12 44  1  0
 14 45  1  0
 15 46  1  0
 16 47  1  0
 17 48  1  0
 18 49  1  0
 22 50  1  0
 25 51  1  0
 26 52  1  0
 27 53  1  0
 28 54  1  0
 29 55  1  0
 31 56  1  0
 34 57  1  0
M  END
$$$$
