
     RDKit          3D

 42 44  0  0  0  0  0  0  0  0999 V2000
    4.0061    2.3063    0.5330 C   0  0  0  0  0  0  0  0  0  0  0  0
    4.6348    1.1489   -0.0050 O   0  0  0  0  0  0  0  0  0  0  0  0
    3.8168    0.1621   -0.4866 C   0  0  0  0  0  0  0  0  0  0  0  0
    4.4888   -0.9858   -0.9250 C   0  0  0  0  0  0  0  0  0  0  0  0
    3.7839   -2.0694   -1.4503 C   0  0  0  0  0  0  0  0  0  0  0  0
    4.3288   -3.2360   -1.9111 O   0  0  0  0  0  0  0  0  0  0  0  0
    5.7469   -3.3389   -1.8867 C   0  0  0  0  0  0  0  0  0  0  0  0
    2.3928   -2.0034   -1.5284 C   0  0  0  0  0  0  0  0  0  0  0  0
    1.7084   -0.8675   -1.0805 C   0  0  0  0  0  0  0  0  0  0  0  0
    0.2189   -0.8511   -1.1866 C   0  0  0  0  0  0  0  0  0  0  0  0
   -0.2932   -1.4559   -2.1201 O   0  0  0  0  0  0  0  0  0  0  0  0
   -0.4174   -0.1552   -0.1778 N   0  0  0  0  0  0  0  0  0  0  0  0
   -1.7810    0.0466   -0.0114 C   0  0  0  0  0  0  0  0  0  0  0  0
   -2.9183   -0.5741   -1.1290 S   0  0  0  0  0  0  0  0  0  0  0  0
   -4.1793    0.0284   -0.2244 C   0  0  0  0  0  0  0  0  0  0  0  0
   -3.7928    0.7075    0.8984 C   0  0  0  0  0  0  0  0  0  0  0  0
   -2.3725    0.7587    1.0405 C   0  0  0  0  0  0  0  0  0  0  0  0
   -1.5672    1.4049    2.0763 C   0  0  0  0  0  0  0  0  0  0  0  0
   -2.2230    2.2060    2.9643 N   0  0  0  0  0  0  0  0  0  0  0  0
   -0.3454    1.2826    2.1495 O   0  0  0  0  0  0  0  0  0  0  0  0
   -4.9882    1.1884    1.6426 C   0  0  0  0  0  0  0  0  0  0  0  0
   -6.1521    0.3903    0.9776 C   0  0  0  0  0  0  0  0  0  0  0  0
   -5.6440   -0.0538   -0.4244 C   0  0  0  0  0  0  0  0  0  0  0  0
    2.4259    0.2255   -0.5731 C   0  0  0  0  0  0  0  0  0  0  0  0
    4.7913    2.9660    0.9146 H   0  0  0  0  0  0  0  0  0  0  0  0
    3.3510    2.0479    1.3717 H   0  0  0  0  0  0  0  0  0  0  0  0
    3.4600    2.8527   -0.2429 H   0  0  0  0  0  0  0  0  0  0  0  0
    5.5712   -0.9992   -0.8447 H   0  0  0  0  0  0  0  0  0  0  0  0
    6.2100   -2.5704   -2.5146 H   0  0  0  0  0  0  0  0  0  0  0  0
    6.0183   -4.3148   -2.3007 H   0  0  0  0  0  0  0  0  0  0  0  0
    6.1277   -3.2949   -0.8610 H   0  0  0  0  0  0  0  0  0  0  0  0
    1.8382   -2.8450   -1.9402 H   0  0  0  0  0  0  0  0  0  0  0  0
    0.1445    0.2129    0.5877 H   0  0  0  0  0  0  0  0  0  0  0  0
   -1.6474    2.7353    3.6049 H   0  0  0  0  0  0  0  0  0  0  0  0
   -3.1671    2.5196    2.8093 H   0  0  0  0  0  0  0  0  0  0  0  0
   -5.1284    2.2634    1.4875 H   0  0  0  0  0  0  0  0  0  0  0  0
   -4.9360    0.9765    2.7141 H   0  0  0  0  0  0  0  0  0  0  0  0
   -7.0770    0.9726    0.9213 H   0  0  0  0  0  0  0  0  0  0  0  0
   -6.3615   -0.5029    1.5812 H   0  0  0  0  0  0  0  0  0  0  0  0
   -5.9940   -1.0592   -0.6733 H   0  0  0  0  0  0  0  0  0  0  0  0
   -5.9720    0.6522   -1.1942 H   0  0  0  0  0  0  0  0  0  0  0  0
    1.8938    1.1221   -0.2760 H   0  0  0  0  0  0  0  0  0  0  0  0
  1  2  1  0
  2  3  1  0
  3  4  2  0
  4  5  1  0
  5  6  1  0
  6  7  1  0
  5  8  2  0
  8  9  1  0
  9 10  1  0
 10 11  2  0
 10 12  1  0
 12 13  1  0
 13 14  1  0
 14 15  1  0
 15 16  2  0
 16 17  1  0
 17 18  1  0
 18 19  1  0
 18 20  2  0
 16 21  1  0
 21 22  1  0
 22 23  1  0
  9 24  2  0
 24  3  1  0
 17 13  2  0
 23 15  1  0
  1 25  1  0
  1 26  1  0
  1 27  1  0
  4 28  1  0
  7 29  1  0
  7 30  1  0
  7 31  1  0
  8 32  1  0
 12 33  1  0
 19 34  1  0
 19 35  1  0
 21 36  1  0
 21 37  1  0
 22 38  1  0
 22 39  1  0
 23 40  1  0
 23 41  1  0
 24 42  1  0
M  END
$$$$
