
     RDKit          3D

 36 37  0  0  0  0  0  0  0  0999 V2000
   -2.5406    0.4941    2.3580 C   0  0  0  0  0  0  0  0  0  0  0  0
   -2.4431   -1.2468    1.8523 S   0  0  0  0  0  0  0  0  0  0  0  0
   -3.2011   -1.1164    0.2324 C   0  0  0  0  0  0  0  0  0  0  0  0
   -4.4804   -1.6857    0.1097 C   0  0  0  0  0  0  0  0  0  0  0  0
   -5.1890   -1.6135   -1.0914 C   0  0  0  0  0  0  0  0  0  0  0  0
   -4.6303   -0.9700   -2.1896 C   0  0  0  0  0  0  0  0  0  0  0  0
   -3.3568   -0.4109   -2.0895 C   0  0  0  0  0  0  0  0  0  0  0  0
   -2.6249   -0.4909   -0.8901 C   0  0  0  0  0  0  0  0  0  0  0  0
   -1.2607    0.1179   -0.9227 C   0  0  0  0  0  0  0  0  0  0  0  0
   -1.1111    1.1518   -1.5647 O   0  0  0  0  0  0  0  0  0  0  0  0
   -0.2827   -0.5807   -0.2443 N   0  0  0  0  0  0  0  0  0  0  0  0
    1.0834   -0.2580   -0.1158 C   0  0  0  0  0  0  0  0  0  0  0  0
    1.8635   -1.1017    0.6792 C   0  0  0  0  0  0  0  0  0  0  0  0
    3.2261   -0.8523    0.8601 C   0  0  0  0  0  0  0  0  0  0  0  0
    3.8402    0.2478    0.2482 C   0  0  0  0  0  0  0  0  0  0  0  0
    5.3090    0.4886    0.4624 C   0  0  0  0  0  0  0  0  0  0  0  0
    3.0636    1.1036   -0.5559 C   0  0  0  0  0  0  0  0  0  0  0  0
    3.6691    2.2998   -1.2397 C   0  0  0  0  0  0  0  0  0  0  0  0
    1.6910    0.8386   -0.7284 C   0  0  0  0  0  0  0  0  0  0  0  0
   -3.5775    0.8405    2.3329 H   0  0  0  0  0  0  0  0  0  0  0  0
   -2.1674    0.5884    3.3812 H   0  0  0  0  0  0  0  0  0  0  0  0
   -1.9311    1.1277    1.7094 H   0  0  0  0  0  0  0  0  0  0  0  0
   -4.9455   -2.1851    0.9583 H   0  0  0  0  0  0  0  0  0  0  0  0
   -6.1804   -2.0545   -1.1646 H   0  0  0  0  0  0  0  0  0  0  0  0
   -5.1811   -0.9041   -3.1249 H   0  0  0  0  0  0  0  0  0  0  0  0
   -2.9254    0.0864   -2.9576 H   0  0  0  0  0  0  0  0  0  0  0  0
   -0.5900   -1.4023    0.2656 H   0  0  0  0  0  0  0  0  0  0  0  0
    1.4242   -1.9647    1.1725 H   0  0  0  0  0  0  0  0  0  0  0  0
    3.8054   -1.5277    1.4859 H   0  0  0  0  0  0  0  0  0  0  0  0
    5.8432    0.4562   -0.4924 H   0  0  0  0  0  0  0  0  0  0  0  0
    5.4697    1.4607    0.9390 H   0  0  0  0  0  0  0  0  0  0  0  0
    5.7508   -0.2739    1.1128 H   0  0  0  0  0  0  0  0  0  0  0  0
    2.9237    2.8539   -1.8200 H   0  0  0  0  0  0  0  0  0  0  0  0
    4.0878    2.9889   -0.4996 H   0  0  0  0  0  0  0  0  0  0  0  0
    4.4560    1.9836   -1.9317 H   0  0  0  0  0  0  0  0  0  0  0  0
    1.1126    1.5105   -1.3555 H   0  0  0  0  0  0  0  0  0  0  0  0
  1  2  1  0
  2  3  1  0
  3  4  2  0
  4  5  1  0
  5  6  2  0
  6  7  1  0
  7  8  2  0
  8  9  1  0
  9 10  2  0
  9 11  1  0
 11 12  1  0
 12 13  2  0
 13 14  1  0
 14 15  2  0
 15 16  1  0
 15 17  1  0
 17 18  1  0
 17 19  2  0
  8  3  1  0
 19 12  1  0
  1 20  1  0
  1 21  1  0
  1 22  1  0
  4 23  1  0
  5 24  1  0
  6 25  1  0
  7 26  1  0
 11 27  1  0
 13 28  1  0
 14 29  1  0
 16 30  1  0
 16 31  1  0
 16 32  1  0
 18 33  1  0
 18 34  1  0
 18 35  1  0
 19 36  1  0
M  END
$$$$
