
     RDKit          3D

 37 38  0  0  0  0  0  0  0  0999 V2000
    0.9754   -0.8306   -0.6030 O   0  0  0  0  0  0  0  0  0  0  0  0
    0.9381    0.3412   -0.2508 C   0  0  0  0  0  0  0  0  0  0  0  0
   -0.3239    0.9862    0.3031 C   0  0  0  0  0  0  0  0  0  0  0  0
   -1.5044    0.0181    0.3523 C   0  0  0  0  0  0  0  0  0  0  0  0
   -2.7521    0.6991    0.9161 C   0  0  0  0  0  0  0  0  0  0  0  0
   -3.9288   -0.2415    0.9727 C   0  0  0  0  0  0  0  0  0  0  0  0
   -4.7942   -0.3639   -0.1226 C   0  0  0  0  0  0  0  0  0  0  0  0
   -5.8742   -1.2469   -0.0753 C   0  0  0  0  0  0  0  0  0  0  0  0
   -6.0963   -2.0182    1.0638 C   0  0  0  0  0  0  0  0  0  0  0  0
   -5.2372   -1.9095    2.1557 C   0  0  0  0  0  0  0  0  0  0  0  0
   -4.1566   -1.0272    2.1103 C   0  0  0  0  0  0  0  0  0  0  0  0
    1.9906    1.2432   -0.2906 N   0  0  0  0  0  0  0  0  0  0  0  0
    3.3075    1.0107   -0.7404 C   0  0  0  0  0  0  0  0  0  0  0  0
    4.1995    2.0919   -0.6696 C   0  0  0  0  0  0  0  0  0  0  0  0
    5.5262    1.9612   -1.0889 C   0  0  0  0  0  0  0  0  0  0  0  0
    5.9801    0.7431   -1.5870 C   0  0  0  0  0  0  0  0  0  0  0  0
    5.0947   -0.3398   -1.6621 C   0  0  0  0  0  0  0  0  0  0  0  0
    5.5743   -1.6244   -2.1890 N   0  0  0  0  0  4  0  0  0  0  0  0
    4.7477   -2.5311   -2.3553 O   0  0  0  0  0  0  0  0  0  0  0  0
    6.7846   -1.7250   -2.4401 O   0  0  0  0  0  1  0  0  0  0  0  0
    3.7612   -0.2119   -1.2415 C   0  0  0  0  0  0  0  0  0  0  0  0
   -0.5755    1.8454   -0.3302 H   0  0  0  0  0  0  0  0  0  0  0  0
   -0.1045    1.3548    1.3123 H   0  0  0  0  0  0  0  0  0  0  0  0
   -1.2424   -0.8530    0.9667 H   0  0  0  0  0  0  0  0  0  0  0  0
   -1.7091   -0.3656   -0.6556 H   0  0  0  0  0  0  0  0  0  0  0  0
   -2.5488    1.0868    1.9225 H   0  0  0  0  0  0  0  0  0  0  0  0
   -3.0147    1.5725    0.3056 H   0  0  0  0  0  0  0  0  0  0  0  0
   -4.6299    0.2254   -1.0216 H   0  0  0  0  0  0  0  0  0  0  0  0
   -6.5400   -1.3360   -0.9297 H   0  0  0  0  0  0  0  0  0  0  0  0
   -6.9355   -2.7076    1.0987 H   0  0  0  0  0  0  0  0  0  0  0  0
   -5.4060   -2.5155    3.0418 H   0  0  0  0  0  0  0  0  0  0  0  0
   -3.4908   -0.9596    2.9675 H   0  0  0  0  0  0  0  0  0  0  0  0
    1.7938    2.1781    0.0453 H   0  0  0  0  0  0  0  0  0  0  0  0
    3.8744    3.0561   -0.2846 H   0  0  0  0  0  0  0  0  0  0  0  0
    6.2035    2.8100   -1.0262 H   0  0  0  0  0  0  0  0  0  0  0  0
    7.0150    0.6529   -1.9111 H   0  0  0  0  0  0  0  0  0  0  0  0
    3.0983   -1.0693   -1.3112 H   0  0  0  0  0  0  0  0  0  0  0  0
  1  2  2  0
  2  3  1  0
  3  4  1  0
  4  5  1  0
  5  6  1  0
  6  7  2  0
  7  8  1  0
  8  9  2  0
  9 10  1  0
 10 11  2  0
  2 12  1  0
 12 13  1  0
 13 14  2  0
 14 15  1  0
 15 16  2  0
 16 17  1  0
 17 18  1  0
 18 19  2  0
 18 20  1  0
 17 21  2  0
 11  6  1  0
 21 13  1  0
  3 22  1  0
  3 23  1  0
  4 24  1  0
  4 25  1  0
  5 26  1  0
  5 27  1  0
  7 28  1  0
  8 29  1  0
  9 30  1  0
 10 31  1  0
 11 32  1  0
 12 33  1  0
 14 34  1  0
 15 35  1  0
 16 36  1  0
 21 37  1  0
M  CHG  2  18   1  20  -1
M  END
$$$$
