
     RDKit          3D

 58 61  0  0  0  0  0  0  0  0999 V2000
   -5.1675    5.8563    0.8747 C   0  0  0  0  0  0  0  0  0  0  0  0
   -4.0142    5.0805    0.5770 O   0  0  0  0  0  0  0  0  0  0  0  0
   -4.0985    3.7330    0.7970 C   0  0  0  0  0  0  0  0  0  0  0  0
   -5.2185    3.0476    1.2470 C   0  0  0  0  0  0  0  0  0  0  0  0
   -5.1784    1.6616    1.4360 C   0  0  0  0  0  0  0  0  0  0  0  0
   -3.9877    0.9627    1.1596 C   0  0  0  0  0  0  0  0  0  0  0  0
   -3.7253   -0.7272    1.3201 S   0  0  0  0  0  0  0  0  0  0  0  0
   -2.1048   -0.6131    0.7889 C   0  0  0  0  0  0  0  0  0  0  0  0
   -1.3162   -1.8476    0.6845 C   0  0  0  0  0  0  0  0  0  0  0  0
   -1.1357   -2.4369   -0.5762 C   0  0  0  0  0  0  0  0  0  0  0  0
   -0.3753   -3.5986   -0.7149 C   0  0  0  0  0  0  0  0  0  0  0  0
    0.2197   -4.1793    0.4028 C   0  0  0  0  0  0  0  0  0  0  0  0
    0.0531   -3.6020    1.6618 C   0  0  0  0  0  0  0  0  0  0  0  0
   -0.7241   -2.4484    1.8086 C   0  0  0  0  0  0  0  0  0  0  0  0
   -0.8510   -1.8295    3.0275 O   0  0  0  0  0  0  0  0  0  0  0  0
   -1.3313   -2.7065    4.0443 C   0  0  0  0  0  0  0  0  0  0  0  0
   -1.7543    0.6933    0.4859 C   0  0  0  0  0  0  0  0  0  0  0  0
   -0.4222    1.0278   -0.0074 C   0  0  0  0  0  0  0  0  0  0  0  0
    0.6968    0.8808    0.8212 C   0  0  0  0  0  0  0  0  0  0  0  0
    1.9755    1.1624    0.3348 C   0  0  0  0  0  0  0  0  0  0  0  0
    2.1387    1.5824   -0.9848 C   0  0  0  0  0  0  0  0  0  0  0  0
    3.3552    1.8622   -1.5444 O   0  0  0  0  0  0  0  0  0  0  0  0
    4.3457    0.8347   -1.3681 C   0  0  0  0  0  0  0  0  0  0  0  0
    4.0442   -0.3941   -2.2467 C   0  0  0  0  0  0  0  0  0  0  0  0
    5.0881   -1.4359   -2.1940 N   0  0  0  0  0  0  0  0  0  0  0  0
    5.0655   -2.1468   -0.9133 C   0  0  0  0  0  0  0  0  0  0  0  0
    4.8873   -2.3911   -3.2870 C   0  0  0  0  0  0  0  0  0  0  0  0
    1.0229    1.7798   -1.7990 C   0  0  0  0  0  0  0  0  0  0  0  0
   -0.2560    1.4948   -1.3164 C   0  0  0  0  0  0  0  0  0  0  0  0
   -2.8449    1.6190    0.7000 C   0  0  0  0  0  0  0  0  0  0  0  0
   -2.9208    3.0261    0.5268 C   0  0  0  0  0  0  0  0  0  0  0  0
   -6.0097    5.5721    0.2358 H   0  0  0  0  0  0  0  0  0  0  0  0
   -5.4317    5.7809    1.9345 H   0  0  0  0  0  0  0  0  0  0  0  0
   -4.9295    6.9033    0.6654 H   0  0  0  0  0  0  0  0  0  0  0  0
   -6.1509    3.5576    1.4658 H   0  0  0  0  0  0  0  0  0  0  0  0
   -6.0578    1.1321    1.7920 H   0  0  0  0  0  0  0  0  0  0  0  0
   -1.5851   -1.9856   -1.4581 H   0  0  0  0  0  0  0  0  0  0  0  0
   -0.2403   -4.0437   -1.6968 H   0  0  0  0  0  0  0  0  0  0  0  0
    0.8245   -5.0749    0.2919 H   0  0  0  0  0  0  0  0  0  0  0  0
    0.5545   -4.0456    2.5152 H   0  0  0  0  0  0  0  0  0  0  0  0
   -1.7161   -2.0916    4.8616 H   0  0  0  0  0  0  0  0  0  0  0  0
   -2.1498   -3.3377    3.6848 H   0  0  0  0  0  0  0  0  0  0  0  0
   -0.5185   -3.3183    4.4446 H   0  0  0  0  0  0  0  0  0  0  0  0
    0.5787    0.5429    1.8493 H   0  0  0  0  0  0  0  0  0  0  0  0
    2.8232    1.0612    1.0046 H   0  0  0  0  0  0  0  0  0  0  0  0
    5.2983    1.2714   -1.6917 H   0  0  0  0  0  0  0  0  0  0  0  0
    4.4722    0.5818   -0.3127 H   0  0  0  0  0  0  0  0  0  0  0  0
    3.9498   -0.0238   -3.2751 H   0  0  0  0  0  0  0  0  0  0  0  0
    3.0607   -0.8135   -1.9982 H   0  0  0  0  0  0  0  0  0  0  0  0
    5.8375   -2.9239   -0.8947 H   0  0  0  0  0  0  0  0  0  0  0  0
    5.2950   -1.4755   -0.0813 H   0  0  0  0  0  0  0  0  0  0  0  0
    4.0973   -2.6218   -0.7210 H   0  0  0  0  0  0  0  0  0  0  0  0
    5.6728   -3.1553   -3.2780 H   0  0  0  0  0  0  0  0  0  0  0  0
    4.9551   -1.8865   -4.2569 H   0  0  0  0  0  0  0  0  0  0  0  0
    3.9136   -2.8914   -3.2259 H   0  0  0  0  0  0  0  0  0  0  0  0
    1.1511    2.1375   -2.8172 H   0  0  0  0  0  0  0  0  0  0  0  0
   -1.1158    1.6285   -1.9688 H   0  0  0  0  0  0  0  0  0  0  0  0
   -2.0449    3.5716    0.1816 H   0  0  0  0  0  0  0  0  0  0  0  0
  1  2  1  0
  2  3  1  0
  3  4  2  0
  4  5  1  0
  5  6  2  0
  6  7  1  0
  7  8  1  0
  8  9  1  0
  9 10  2  0
 10 11  1  0
 11 12  2  0
 12 13  1  0
 13 14  2  0
 14 15  1  0
 15 16  1  0
  8 17  2  0
 17 18  1  0
 18 19  2  0
 19 20  1  0
 20 21  2  0
 21 22  1  0
 22 23  1  0
 23 24  1  0
 24 25  1  0
 25 26  1  0
 25 27  1  0
 21 28  1  0
 28 29  2  0
 17 30  1  0
 30 31  2  0
 31  3  1  0
 30  6  1  0
 14  9  1  0
 29 18  1  0
  1 32  1  0
  1 33  1  0
  1 34  1  0
  4 35  1  0
  5 36  1  0
 10 37  1  0
 11 38  1  0
 12 39  1  0
 13 40  1  0
 16 41  1  0
 16 42  1  0
 16 43  1  0
 19 44  1  0
 20 45  1  0
 23 46  1  0
 23 47  1  0
 24 48  1  0
 24 49  1  0
 26 50  1  0
 26 51  1  0
 26 52  1  0
 27 53  1  0
 27 54  1  0
 27 55  1  0
 28 56  1  0
 29 57  1  0
 31 58  1  0
M  END
$$$$
