
     RDKit          3D

 60 63  0  0  0  0  0  0  0  0999 V2000
   -9.4333    1.1057   -0.7043 C   0  0  0  0  0  0  0  0  0  0  0  0
   -8.6497    1.0787    0.4810 O   0  0  0  0  0  0  0  0  0  0  0  0
   -7.2886    1.2036    0.3497 C   0  0  0  0  0  0  0  0  0  0  0  0
   -6.6219    1.3226   -0.8768 C   0  0  0  0  0  0  0  0  0  0  0  0
   -5.2316    1.4372   -0.9159 C   0  0  0  0  0  0  0  0  0  0  0  0
   -4.5094    1.4271    0.2770 C   0  0  0  0  0  0  0  0  0  0  0  0
   -2.7421    1.5632    0.2470 S   0  0  0  0  0  6  0  0  0  0  0  0
   -2.3582    2.5285    1.2539 O   0  0  0  0  0  0  0  0  0  0  0  0
   -2.3145    1.7055   -1.1281 O   0  0  0  0  0  0  0  0  0  0  0  0
   -2.2498    0.0540    0.7716 N   0  0  0  0  0  0  0  0  0  0  0  0
   -2.6102   -1.1392   -0.0123 C   0  0  0  0  0  0  0  0  0  0  0  0
   -1.3622   -1.9988    0.0190 C   0  0  0  0  0  0  0  0  0  0  0  0
   -0.6248   -1.5308    1.1528 O   0  0  0  0  0  0  0  0  0  0  0  0
   -0.8507   -0.1099    1.2062 C   0  0  0  0  0  0  0  0  0  0  0  0
    0.2061    0.6413    0.3494 C   0  0  0  0  0  0  0  0  0  0  0  0
    1.5745    0.3329    0.7318 N   0  0  0  0  0  0  0  0  0  0  0  0
    2.2843   -0.6946    0.1518 C   0  0  0  0  0  0  0  0  0  0  0  0
    1.9426   -1.3578   -0.8170 O   0  0  0  0  0  0  0  0  0  0  0  0
    3.6401   -0.9732    0.8414 C   0  0  0  0  0  0  0  0  0  0  0  0
    3.9528   -0.3544    1.8498 O   0  0  0  0  0  0  0  0  0  0  0  0
    4.3894   -1.9340    0.2049 N   0  0  0  0  0  0  0  0  0  0  0  0
    5.7408   -2.2413    0.5910 C   0  0  0  0  0  0  0  0  0  0  0  0
    6.7286   -1.4213   -0.1994 C   0  0  0  0  0  0  0  0  0  0  0  0
    7.1597   -0.1660    0.2926 C   0  0  0  0  0  0  0  0  0  0  0  0
    8.0618    0.6211   -0.4301 C   0  0  0  0  0  0  0  0  0  0  0  0
    8.5070    0.1360   -1.6398 C   0  0  0  0  0  0  0  0  0  0  0  0
    8.0850   -1.0764   -2.1338 C   0  0  0  0  0  0  0  0  0  0  0  0
    7.1979   -1.8760   -1.4436 C   0  0  0  0  0  0  0  0  0  0  0  0
    8.6372   -1.3652   -3.3436 O   0  0  0  0  0  0  0  0  0  0  0  0
    9.4568   -0.1955   -3.5526 C   0  0  0  0  0  0  0  0  0  0  0  0
    9.3802    0.7611   -2.4744 O   0  0  0  0  0  0  0  0  0  0  0  0
   -5.1573    1.3215    1.5114 C   0  0  0  0  0  0  0  0  0  0  0  0
   -6.5494    1.2070    1.5538 C   0  0  0  0  0  0  0  0  0  0  0  0
   -7.2807    1.0862    2.7090 O   0  0  0  0  0  0  0  0  0  0  0  0
   -6.5860    1.1765    3.9443 C   0  0  0  0  0  0  0  0  0  0  0  0
  -10.4832    1.0064   -0.4141 H   0  0  0  0  0  0  0  0  0  0  0  0
   -9.3223    2.0598   -1.2300 H   0  0  0  0  0  0  0  0  0  0  0  0
   -9.1898    0.2623   -1.3583 H   0  0  0  0  0  0  0  0  0  0  0  0
   -7.1581    1.3299   -1.8204 H   0  0  0  0  0  0  0  0  0  0  0  0
   -4.7277    1.5328   -1.8759 H   0  0  0  0  0  0  0  0  0  0  0  0
   -2.9134   -0.9241   -1.0400 H   0  0  0  0  0  0  0  0  0  0  0  0
   -3.4385   -1.6457    0.4945 H   0  0  0  0  0  0  0  0  0  0  0  0
   -1.5862   -3.0630    0.1308 H   0  0  0  0  0  0  0  0  0  0  0  0
   -0.7583   -1.8632   -0.8841 H   0  0  0  0  0  0  0  0  0  0  0  0
   -0.7540    0.1886    2.2554 H   0  0  0  0  0  0  0  0  0  0  0  0
    0.0966    1.7238    0.4579 H   0  0  0  0  0  0  0  0  0  0  0  0
    0.0863    0.3926   -0.7105 H   0  0  0  0  0  0  0  0  0  0  0  0
    1.9708    0.7269    1.5819 H   0  0  0  0  0  0  0  0  0  0  0  0
    4.0234   -2.2806   -0.6769 H   0  0  0  0  0  0  0  0  0  0  0  0
    5.8744   -2.0685    1.6655 H   0  0  0  0  0  0  0  0  0  0  0  0
    5.9032   -3.3098    0.4104 H   0  0  0  0  0  0  0  0  0  0  0  0
    6.7819    0.2007    1.2470 H   0  0  0  0  0  0  0  0  0  0  0  0
    8.3963    1.5815   -0.0541 H   0  0  0  0  0  0  0  0  0  0  0  0
    6.8800   -2.8260   -1.8605 H   0  0  0  0  0  0  0  0  0  0  0  0
    9.1385    0.2956   -4.4801 H   0  0  0  0  0  0  0  0  0  0  0  0
   10.4997   -0.5147   -3.6641 H   0  0  0  0  0  0  0  0  0  0  0  0
   -4.5569    1.3265    2.4152 H   0  0  0  0  0  0  0  0  0  0  0  0
   -5.8889    0.3402    4.0658 H   0  0  0  0  0  0  0  0  0  0  0  0
   -6.0730    2.1383    4.0414 H   0  0  0  0  0  0  0  0  0  0  0  0
   -7.3249    1.1143    4.7490 H   0  0  0  0  0  0  0  0  0  0  0  0
  1  2  1  0
  2  3  1  0
  3  4  2  0
  4  5  1  0
  5  6  2  0
  6  7  1  0
  7  8  2  0
  7  9  2  0
  7 10  1  0
 10 11  1  0
 11 12  1  0
 12 13  1  0
 13 14  1  0
 14 15  1  0
 15 16  1  0
 16 17  1  0
 17 18  2  0
 17 19  1  0
 19 20  2  0
 19 21  1  0
 21 22  1  0
 22 23  1  0
 23 24  2  0
 24 25  1  0
 25 26  2  0
 26 27  1  0
 27 28  2  0
 27 29  1  0
 29 30  1  0
 30 31  1  0
  6 32  1  0
 32 33  2  0
 33 34  1  0
 34 35  1  0
 33  3  1  0
 14 10  1  0
 28 23  1  0
 31 26  1  0
  1 36  1  0
  1 37  1  0
  1 38  1  0
  4 39  1  0
  5 40  1  0
 11 41  1  0
 11 42  1  0
 12 43  1  0
 12 44  1  0
 14 45  1  0
 15 46  1  0
 15 47  1  0
 16 48  1  0
 21 49  1  0
 22 50  1  0
 22 51  1  0
 24 52  1  0
 25 53  1  0
 28 54  1  0
 30 55  1  0
 30 56  1  0
 32 57  1  0
 35 58  1  0
 35 59  1  0
 35 60  1  0
M  END
$$$$
