
     RDKit          3D

 40 41  0  0  0  0  0  0  0  0999 V2000
   -2.0872   -4.3670   -4.2426 C   0  0  0  0  0  0  0  0  0  0  0  0
   -2.0341   -2.9543   -4.7987 C   0  0  0  0  0  0  0  0  0  0  0  0
   -1.4343   -2.0634   -3.8581 O   0  0  0  0  0  0  0  0  0  0  0  0
   -2.3018   -1.4398   -2.9880 C   0  0  0  0  0  0  0  0  0  0  0  0
   -3.5889   -1.8686   -2.9385 N   0  0  0  0  0  0  0  0  0  0  0  0
   -4.4048   -1.2853   -2.0337 C   0  0  0  0  0  0  0  0  0  0  0  0
   -3.9993   -0.2911   -1.1608 C   0  0  0  0  0  0  0  0  0  0  0  0
   -2.6758    0.1344   -1.2204 C   0  0  0  0  0  0  0  0  0  0  0  0
   -1.8033   -0.4483   -2.1492 C   0  0  0  0  0  0  0  0  0  0  0  0
   -0.4002    0.0001   -2.2492 C   0  0  0  0  0  0  0  0  0  0  0  0
    0.2331    0.1225   -3.2826 O   0  0  0  0  0  0  0  0  0  0  0  0
    0.0626    0.2591   -1.0001 O   0  0  0  0  0  0  0  0  0  0  0  0
    1.4275    0.6839   -0.9722 C   0  0  0  0  0  0  0  0  0  0  0  0
    1.7846    0.9880    0.4611 C   0  0  0  0  0  0  0  0  0  0  0  0
    1.9670   -0.0557    1.3792 C   0  0  0  0  0  0  0  0  0  0  0  0
    2.2843    0.2193    2.7119 C   0  0  0  0  0  0  0  0  0  0  0  0
    2.4198    1.5431    3.1486 C   0  0  0  0  0  0  0  0  0  0  0  0
    2.7575    1.7802    4.5788 C   0  0  0  0  0  0  0  0  0  0  0  0
    2.9147    0.8836    5.3927 O   0  0  0  0  0  0  0  0  0  0  0  0
    2.8616    3.1089    4.8336 O   0  0  0  0  0  0  0  0  0  0  0  0
    3.1877    3.4145    6.1902 C   0  0  0  0  0  0  0  0  0  0  0  0
    2.2314    2.5890    2.2359 C   0  0  0  0  0  0  0  0  0  0  0  0
    1.9132    2.3118    0.9024 C   0  0  0  0  0  0  0  0  0  0  0  0
   -1.0889   -4.6958   -3.9351 H   0  0  0  0  0  0  0  0  0  0  0  0
   -2.4712   -5.0635   -4.9934 H   0  0  0  0  0  0  0  0  0  0  0  0
   -2.7269   -4.4238   -3.3566 H   0  0  0  0  0  0  0  0  0  0  0  0
   -3.0150   -2.6097   -5.1480 H   0  0  0  0  0  0  0  0  0  0  0  0
   -1.3840   -2.9545   -5.6812 H   0  0  0  0  0  0  0  0  0  0  0  0
   -5.4273   -1.6534   -2.0277 H   0  0  0  0  0  0  0  0  0  0  0  0
   -4.6963    0.1427   -0.4519 H   0  0  0  0  0  0  0  0  0  0  0  0
   -2.3319    0.9177   -0.5495 H   0  0  0  0  0  0  0  0  0  0  0  0
    2.0804   -0.1114   -1.3524 H   0  0  0  0  0  0  0  0  0  0  0  0
    1.5587    1.5771   -1.5953 H   0  0  0  0  0  0  0  0  0  0  0  0
    1.8579   -1.0907    1.0601 H   0  0  0  0  0  0  0  0  0  0  0  0
    2.4229   -0.6055    3.4088 H   0  0  0  0  0  0  0  0  0  0  0  0
    2.4060    3.0498    6.8640 H   0  0  0  0  0  0  0  0  0  0  0  0
    3.2481    4.5020    6.2870 H   0  0  0  0  0  0  0  0  0  0  0  0
    4.1602    2.9886    6.4563 H   0  0  0  0  0  0  0  0  0  0  0  0
    2.3267    3.6263    2.5474 H   0  0  0  0  0  0  0  0  0  0  0  0
    1.7655    3.1392    0.2109 H   0  0  0  0  0  0  0  0  0  0  0  0
  1  2  1  0
  2  3  1  0
  3  4  1  0
  4  5  2  0
  5  6  1  0
  6  7  2  0
  7  8  1  0
  8  9  2  0
  9 10  1  0
 10 11  2  0
 10 12  1  0
 12 13  1  0
 13 14  1  0
 14 15  2  0
 15 16  1  0
 16 17  2  0
 17 18  1  0
 18 19  2  0
 18 20  1  0
 20 21  1  0
 17 22  1  0
 22 23  2  0
  9  4  1  0
 23 14  1  0
  1 24  1  0
  1 25  1  0
  1 26  1  0
  2 27  1  0
  2 28  1  0
  6 29  1  0
  7 30  1  0
  8 31  1  0
 13 32  1  0
 13 33  1  0
 15 34  1  0
 16 35  1  0
 21 36  1  0
 21 37  1  0
 21 38  1  0
 22 39  1  0
 23 40  1  0
M  END
$$$$
