
     RDKit          3D

 43 45  0  0  0  0  0  0  0  0999 V2000
    6.6265   -0.5471    3.0003 C   0  0  0  0  0  0  0  0  0  0  0  0
    5.7581   -0.1428    1.9410 O   0  0  0  0  0  0  0  0  0  0  0  0
    4.4391   -0.2504    2.2387 C   0  0  0  0  0  0  0  0  0  0  0  0
    3.9757   -0.6459    3.2971 O   0  0  0  0  0  0  0  0  0  0  0  0
    3.6017    0.1856    1.0882 C   0  0  0  0  0  0  0  0  0  0  0  0
    4.1512    0.6368   -0.1164 C   0  0  0  0  0  0  0  0  0  0  0  0
    3.3116    1.0321   -1.1623 C   0  0  0  0  0  0  0  0  0  0  0  0
    1.9214    0.9814   -1.0255 C   0  0  0  0  0  0  0  0  0  0  0  0
    1.2298    1.3985   -2.1290 O   0  0  0  0  0  0  0  0  0  0  0  0
   -0.1887    1.2562   -2.1226 C   0  0  0  0  0  0  0  0  0  0  0  0
   -0.6753   -0.1927   -2.3063 C   0  0  0  0  0  0  0  0  0  0  0  0
    0.0099   -0.9956   -2.9516 O   0  0  0  0  0  0  0  0  0  0  0  0
   -1.8358   -0.6107   -1.6372 N   0  0  0  0  0  0  0  0  0  0  0  0
   -1.8905   -2.0510   -1.3683 C   0  0  0  0  0  0  0  0  0  0  0  0
   -3.1386   -2.5414   -0.6530 C   0  0  0  0  0  0  0  0  0  0  0  0
   -3.4467   -1.6239    0.5149 C   0  0  0  0  0  0  0  0  0  0  0  0
   -3.6467   -0.2346   -0.0254 C   0  0  0  0  0  0  0  0  0  0  0  0
   -4.6175    0.5968    0.5554 C   0  0  0  0  0  0  0  0  0  0  0  0
   -4.8602    1.8644    0.0361 C   0  0  0  0  0  0  0  0  0  0  0  0
   -4.1480    2.2995   -1.0751 C   0  0  0  0  0  0  0  0  0  0  0  0
   -3.1656    1.4828   -1.6438 C   0  0  0  0  0  0  0  0  0  0  0  0
   -2.8614    0.2283   -1.0996 C   0  0  0  0  0  0  0  0  0  0  0  0
    1.3718    0.5354    0.1768 C   0  0  0  0  0  0  0  0  0  0  0  0
    2.2084    0.1388    1.2276 C   0  0  0  0  0  0  0  0  0  0  0  0
    6.4760    0.0844    3.8815 H   0  0  0  0  0  0  0  0  0  0  0  0
    6.4667   -1.6016    3.2460 H   0  0  0  0  0  0  0  0  0  0  0  0
    7.6578   -0.4239    2.6583 H   0  0  0  0  0  0  0  0  0  0  0  0
    5.2273    0.6849   -0.2610 H   0  0  0  0  0  0  0  0  0  0  0  0
    3.7459    1.3766   -2.0985 H   0  0  0  0  0  0  0  0  0  0  0  0
   -0.5972    1.7371   -1.2303 H   0  0  0  0  0  0  0  0  0  0  0  0
   -0.5445    1.8167   -2.9935 H   0  0  0  0  0  0  0  0  0  0  0  0
   -1.0041   -2.2988   -0.7688 H   0  0  0  0  0  0  0  0  0  0  0  0
   -1.7879   -2.5882   -2.3193 H   0  0  0  0  0  0  0  0  0  0  0  0
   -3.9834   -2.5541   -1.3543 H   0  0  0  0  0  0  0  0  0  0  0  0
   -2.9928   -3.5704   -0.3064 H   0  0  0  0  0  0  0  0  0  0  0  0
   -2.6295   -1.6193    1.2455 H   0  0  0  0  0  0  0  0  0  0  0  0
   -4.3517   -1.9788    1.0210 H   0  0  0  0  0  0  0  0  0  0  0  0
   -5.2023    0.2500    1.4048 H   0  0  0  0  0  0  0  0  0  0  0  0
   -5.6223    2.4996    0.4803 H   0  0  0  0  0  0  0  0  0  0  0  0
   -4.3647    3.2718   -1.5112 H   0  0  0  0  0  0  0  0  0  0  0  0
   -2.6887    1.8404   -2.5498 H   0  0  0  0  0  0  0  0  0  0  0  0
    0.3010    0.4817    0.3410 H   0  0  0  0  0  0  0  0  0  0  0  0
    1.7644   -0.2084    2.1591 H   0  0  0  0  0  0  0  0  0  0  0  0
  1  2  1  0
  2  3  1  0
  3  4  2  0
  3  5  1  0
  5  6  2  0
  6  7  1  0
  7  8  2  0
  8  9  1  0
  9 10  1  0
 10 11  1  0
 11 12  2  0
 11 13  1  0
 13 14  1  0
 14 15  1  0
 15 16  1  0
 16 17  1  0
 17 18  2  0
 18 19  1  0
 19 20  2  0
 20 21  1  0
 21 22  2  0
  8 23  1  0
 23 24  2  0
 24  5  1  0
 22 13  1  0
 22 17  1  0
  1 25  1  0
  1 26  1  0
  1 27  1  0
  6 28  1  0
  7 29  1  0
 10 30  1  0
 10 31  1  0
 14 32  1  0
 14 33  1  0
 15 34  1  0
 15 35  1  0
 16 36  1  0
 16 37  1  0
 18 38  1  0
 19 39  1  0
 20 40  1  0
 21 41  1  0
 23 42  1  0
 24 43  1  0
M  END
$$$$
