
     RDKit          3D

 42 44  0  0  0  0  0  0  0  0999 V2000
   -8.2968    0.0777    1.4164 C   0  0  0  0  0  0  0  0  0  0  0  0
   -7.6270   -0.2791    0.1152 C   0  0  0  0  0  0  0  0  0  0  0  0
   -8.2865   -0.6199   -0.8645 O   0  0  0  0  0  0  0  0  0  0  0  0
   -6.1374   -0.2143    0.0275 C   0  0  0  0  0  0  0  0  0  0  0  0
   -5.3387    0.1531    1.1142 C   0  0  0  0  0  0  0  0  0  0  0  0
   -3.9449    0.1979    0.9789 C   0  0  0  0  0  0  0  0  0  0  0  0
   -3.3284   -0.1192   -0.2385 C   0  0  0  0  0  0  0  0  0  0  0  0
   -1.9203   -0.0529   -0.2844 N   0  0  0  0  0  0  0  0  0  0  0  0
   -1.1078   -0.2452   -1.3878 C   0  0  0  0  0  0  0  0  0  0  0  0
   -1.4694   -0.4393   -2.5418 O   0  0  0  0  0  0  0  0  0  0  0  0
    0.3552   -0.1557   -1.1144 C   0  0  0  0  0  0  0  0  0  0  0  0
    1.1888    0.3766   -2.1024 C   0  0  0  0  0  0  0  0  0  0  0  0
    2.5659    0.4778   -1.8808 C   0  0  0  0  0  0  0  0  0  0  0  0
    3.1300    0.0418   -0.6753 C   0  0  0  0  0  0  0  0  0  0  0  0
    4.5218    0.1820   -0.5325 N   0  0  0  0  0  0  0  0  0  0  0  0
    5.3143   -0.1473    0.5534 C   0  0  0  0  0  0  0  0  0  0  0  0
    4.9115   -0.6232    1.6098 O   0  0  0  0  0  0  0  0  0  0  0  0
    6.7200    0.1377    0.3226 C   0  0  0  0  0  0  0  0  0  0  0  0
    7.8294   -0.0387    1.1279 C   0  0  0  0  0  0  0  0  0  0  0  0
    8.9477    0.4139    0.3881 C   0  0  0  0  0  0  0  0  0  0  0  0
    8.4581    0.8401   -0.8235 C   0  0  0  0  0  0  0  0  0  0  0  0
    7.1106    0.6793   -0.8774 O   0  0  0  0  0  0  0  0  0  0  0  0
    2.2956   -0.5085    0.3004 C   0  0  0  0  0  0  0  0  0  0  0  0
    0.9155   -0.6134    0.0829 C   0  0  0  0  0  0  0  0  0  0  0  0
   -4.1290   -0.4894   -1.3188 C   0  0  0  0  0  0  0  0  0  0  0  0
   -5.5229   -0.5357   -1.1878 C   0  0  0  0  0  0  0  0  0  0  0  0
   -7.9833   -0.6110    2.2052 H   0  0  0  0  0  0  0  0  0  0  0  0
   -8.0717    1.1123    1.6878 H   0  0  0  0  0  0  0  0  0  0  0  0
   -9.3813   -0.0126    1.2988 H   0  0  0  0  0  0  0  0  0  0  0  0
   -5.7698    0.4093    2.0773 H   0  0  0  0  0  0  0  0  0  0  0  0
   -3.3504    0.4875    1.8422 H   0  0  0  0  0  0  0  0  0  0  0  0
   -1.4665    0.2326    0.5732 H   0  0  0  0  0  0  0  0  0  0  0  0
    0.7682    0.7152   -3.0476 H   0  0  0  0  0  0  0  0  0  0  0  0
    3.1872    0.9003   -2.6670 H   0  0  0  0  0  0  0  0  0  0  0  0
    5.0305    0.5774   -1.3169 H   0  0  0  0  0  0  0  0  0  0  0  0
    7.8174   -0.4480    2.1295 H   0  0  0  0  0  0  0  0  0  0  0  0
    9.9831    0.4275    0.6993 H   0  0  0  0  0  0  0  0  0  0  0  0
    8.9158    1.2615   -1.7082 H   0  0  0  0  0  0  0  0  0  0  0  0
    2.6884   -0.8817    1.2416 H   0  0  0  0  0  0  0  0  0  0  0  0
    0.3047   -1.0847    0.8481 H   0  0  0  0  0  0  0  0  0  0  0  0
   -3.7037   -0.7543   -2.2823 H   0  0  0  0  0  0  0  0  0  0  0  0
   -6.1237   -0.8274   -2.0481 H   0  0  0  0  0  0  0  0  0  0  0  0
  1  2  1  0
  2  3  2  0
  2  4  1  0
  4  5  2  0
  5  6  1  0
  6  7  2  0
  7  8  1  0
  8  9  1  0
  9 10  2  0
  9 11  1  0
 11 12  2  0
 12 13  1  0
 13 14  2  0
 14 15  1  0
 15 16  1  0
 16 17  2  0
 16 18  1  0
 18 19  2  0
 19 20  1  0
 20 21  2  0
 21 22  1  0
 14 23  1  0
 23 24  2  0
  7 25  1  0
 25 26  2  0
 26  4  1  0
 24 11  1  0
 22 18  1  0
  1 27  1  0
  1 28  1  0
  1 29  1  0
  5 30  1  0
  6 31  1  0
  8 32  1  0
 12 33  1  0
 13 34  1  0
 15 35  1  0
 19 36  1  0
 20 37  1  0
 21 38  1  0
 23 39  1  0
 24 40  1  0
 25 41  1  0
 26 42  1  0
M  END
$$$$
