
     RDKit          3D

 50 52  0  0  0  0  0  0  0  0999 V2000
   -4.6811   -2.4268   -1.7956 C   0  0  0  0  0  0  0  0  0  0  0  0
   -4.9947   -1.5819   -0.6956 O   0  0  0  0  0  0  0  0  0  0  0  0
   -3.9720   -0.8386   -0.1699 C   0  0  0  0  0  0  0  0  0  0  0  0
   -2.6210   -0.9738   -0.4944 C   0  0  0  0  0  0  0  0  0  0  0  0
   -1.6651   -0.1666    0.1412 C   0  0  0  0  0  0  0  0  0  0  0  0
   -0.2432   -0.3362   -0.2268 C   0  0  0  0  0  0  0  0  0  0  0  0
    0.6946    0.3460    0.3510 N   0  0  0  0  0  0  0  0  0  0  0  0
    1.9906    0.0935   -0.0175 N   0  0  0  0  0  0  0  0  0  0  0  0
    2.5203   -1.1638   -0.2962 C   0  0  0  0  0  0  0  0  0  0  0  0
    1.8816   -2.2059   -0.4353 O   0  0  0  0  0  0  0  0  0  0  0  0
    4.0410   -1.1424   -0.4587 C   0  0  0  0  0  0  0  0  0  0  0  0
    4.5963    0.0768    0.0273 O   0  0  0  0  0  0  0  0  0  0  0  0
    5.9530    0.2198   -0.0689 C   0  0  0  0  0  0  0  0  0  0  0  0
    6.8434   -0.7181   -0.5908 C   0  0  0  0  0  0  0  0  0  0  0  0
    8.2148   -0.4405   -0.6294 C   0  0  0  0  0  0  0  0  0  0  0  0
    8.7129    0.7711   -0.1378 C   0  0  0  0  0  0  0  0  0  0  0  0
   10.1791    1.0782   -0.2118 C   0  0  0  0  0  0  0  0  0  0  0  0
    7.8152    1.7138    0.3715 C   0  0  0  0  0  0  0  0  0  0  0  0
    6.4468    1.4352    0.4095 C   0  0  0  0  0  0  0  0  0  0  0  0
   -2.0461    0.7710    1.1080 C   0  0  0  0  0  0  0  0  0  0  0  0
   -3.3912    0.9132    1.4387 C   0  0  0  0  0  0  0  0  0  0  0  0
   -4.3367    0.1210    0.7870 C   0  0  0  0  0  0  0  0  0  0  0  0
   -5.6777    0.2648    1.1608 O   0  0  0  0  0  0  0  0  0  0  0  0
   -6.4275    0.9962    0.2404 C   0  0  0  0  0  0  0  0  0  0  0  0
   -5.9678    1.5950   -0.7274 O   0  0  0  0  0  0  0  0  0  0  0  0
   -7.8265    0.9561    0.6356 C   0  0  0  0  0  0  0  0  0  0  0  0
   -8.4287    0.2939    1.6925 C   0  0  0  0  0  0  0  0  0  0  0  0
   -9.8377    0.5064    1.7426 C   0  0  0  0  0  0  0  0  0  0  0  0
  -10.2704    1.3228    0.7232 C   0  0  0  0  0  0  0  0  0  0  0  0
   -8.9853    1.8257   -0.2848 S   0  0  0  0  0  0  0  0  0  0  0  0
   -4.2501   -1.8563   -2.6251 H   0  0  0  0  0  0  0  0  0  0  0  0
   -4.0170   -3.2407   -1.4873 H   0  0  0  0  0  0  0  0  0  0  0  0
   -5.6147   -2.8750   -2.1492 H   0  0  0  0  0  0  0  0  0  0  0  0
   -2.2880   -1.7040   -1.2242 H   0  0  0  0  0  0  0  0  0  0  0  0
   -0.0409   -1.0561   -1.0381 H   0  0  0  0  0  0  0  0  0  0  0  0
    2.6616    0.7806    0.3257 H   0  0  0  0  0  0  0  0  0  0  0  0
    4.2499   -1.2589   -1.5284 H   0  0  0  0  0  0  0  0  0  0  0  0
    4.4365   -1.9880    0.1159 H   0  0  0  0  0  0  0  0  0  0  0  0
    6.5114   -1.6753   -0.9788 H   0  0  0  0  0  0  0  0  0  0  0  0
    8.8939   -1.1813   -1.0467 H   0  0  0  0  0  0  0  0  0  0  0  0
   10.4808    1.7429    0.6045 H   0  0  0  0  0  0  0  0  0  0  0  0
   10.7746    0.1635   -0.1221 H   0  0  0  0  0  0  0  0  0  0  0  0
   10.4127    1.5606   -1.1658 H   0  0  0  0  0  0  0  0  0  0  0  0
    8.1732    2.6710    0.7436 H   0  0  0  0  0  0  0  0  0  0  0  0
    5.7626    2.1767    0.8146 H   0  0  0  0  0  0  0  0  0  0  0  0
   -1.3007    1.3891    1.6028 H   0  0  0  0  0  0  0  0  0  0  0  0
   -3.6976    1.6361    2.1885 H   0  0  0  0  0  0  0  0  0  0  0  0
   -7.8853   -0.3209    2.4011 H   0  0  0  0  0  0  0  0  0  0  0  0
  -10.4989    0.0806    2.4878 H   0  0  0  0  0  0  0  0  0  0  0  0
  -11.2810    1.6492    0.5181 H   0  0  0  0  0  0  0  0  0  0  0  0
  1  2  1  0
  2  3  1  0
  3  4  2  0
  4  5  1  0
  5  6  1  0
  6  7  2  3
  7  8  1  0
  8  9  1  0
  9 10  2  0
  9 11  1  0
 11 12  1  0
 12 13  1  0
 13 14  2  0
 14 15  1  0
 15 16  2  0
 16 17  1  0
 16 18  1  0
 18 19  2  0
  5 20  2  0
 20 21  1  0
 21 22  2  0
 22 23  1  0
 23 24  1  0
 24 25  2  0
 24 26  1  0
 26 27  2  0
 27 28  1  0
 28 29  2  0
 29 30  1  0
 22  3  1  0
 30 26  1  0
 19 13  1  0
  1 31  1  0
  1 32  1  0
  1 33  1  0
  4 34  1  0
  6 35  1  0
  8 36  1  0
 11 37  1  0
 11 38  1  0
 14 39  1  0
 15 40  1  0
 17 41  1  0
 17 42  1  0
 17 43  1  0
 18 44  1  0
 19 45  1  0
 20 46  1  0
 21 47  1  0
 27 48  1  0
 28 49  1  0
 29 50  1  0
M  END
$$$$
