
     RDKit          3D

 39 40  0  0  0  0  0  0  0  0999 V2000
    6.8371   -0.9301    1.2450 C   0  0  0  0  0  0  0  0  0  0  0  0
    5.3390   -0.9280    1.3349 C   0  0  0  0  0  0  0  0  0  0  0  0
    4.5860   -1.9139    0.6867 C   0  0  0  0  0  0  0  0  0  0  0  0
    3.1897   -1.8929    0.7480 C   0  0  0  0  0  0  0  0  0  0  0  0
    2.5283   -0.8791    1.4523 C   0  0  0  0  0  0  0  0  0  0  0  0
    1.0411   -0.8971    1.4842 C   0  0  0  0  0  0  0  0  0  0  0  0
    0.3547   -1.6825    0.8472 O   0  0  0  0  0  0  0  0  0  0  0  0
    0.5660    0.0683    2.3069 O   0  0  0  0  0  0  0  0  0  0  0  0
   -0.8563    0.1357    2.4155 C   0  0  0  0  0  0  0  0  0  0  0  0
   -1.5167    0.8186    1.2161 C   0  0  0  0  0  0  0  0  0  0  0  0
   -1.8187    2.0081    1.2238 O   0  0  0  0  0  0  0  0  0  0  0  0
   -1.7458   -0.0182    0.1441 N   0  0  0  0  0  0  0  0  0  0  0  0
   -2.1943    0.4878   -1.1415 C   0  0  0  0  0  0  0  0  0  0  0  0
   -3.5994    1.1039   -1.1178 C   0  0  0  0  0  0  0  0  0  0  0  0
   -4.1381    1.2790   -2.4578 N   0  0  0  0  0  0  0  0  0  0  0  0
   -4.9602    0.3679   -3.0734 C   0  0  0  0  0  0  0  0  0  0  0  0
   -5.3281   -0.7564   -2.3966 O   0  0  0  0  0  0  0  0  0  0  0  0
   -5.3140    0.6931   -4.3224 C   0  0  0  0  0  0  0  0  0  0  0  0
   -4.6006    2.2006   -4.8074 S   0  0  0  0  0  0  0  0  0  0  0  0
   -3.7754    2.3626   -3.2427 C   0  0  0  0  0  0  0  0  0  0  0  0
   -3.0150    3.2769   -2.9746 O   0  0  0  0  0  0  0  0  0  0  0  0
    3.2789    0.1182    2.0873 C   0  0  0  0  0  0  0  0  0  0  0  0
    4.6754    0.0937    2.0244 C   0  0  0  0  0  0  0  0  0  0  0  0
    7.2192   -1.9457    1.0989 H   0  0  0  0  0  0  0  0  0  0  0  0
    7.1638   -0.3065    0.4072 H   0  0  0  0  0  0  0  0  0  0  0  0
    7.2810   -0.5472    2.1701 H   0  0  0  0  0  0  0  0  0  0  0  0
    5.0817   -2.7055    0.1286 H   0  0  0  0  0  0  0  0  0  0  0  0
    2.6227   -2.6706    0.2403 H   0  0  0  0  0  0  0  0  0  0  0  0
   -1.0934    0.7230    3.3092 H   0  0  0  0  0  0  0  0  0  0  0  0
   -1.2892   -0.8595    2.5753 H   0  0  0  0  0  0  0  0  0  0  0  0
   -1.2093   -0.8877    0.1382 H   0  0  0  0  0  0  0  0  0  0  0  0
   -2.1671   -0.3632   -1.8312 H   0  0  0  0  0  0  0  0  0  0  0  0
   -1.4614    1.2224   -1.4945 H   0  0  0  0  0  0  0  0  0  0  0  0
   -3.5662    2.0886   -0.6373 H   0  0  0  0  0  0  0  0  0  0  0  0
   -4.2836    0.4877   -0.5240 H   0  0  0  0  0  0  0  0  0  0  0  0
   -5.9210   -1.2763   -2.9651 H   0  0  0  0  0  0  0  0  0  0  0  0
   -5.9478    0.1165   -4.9790 H   0  0  0  0  0  0  0  0  0  0  0  0
    2.7939    0.9266    2.6291 H   0  0  0  0  0  0  0  0  0  0  0  0
    5.2428    0.8814    2.5160 H   0  0  0  0  0  0  0  0  0  0  0  0
  1  2  1  0
  2  3  2  0
  3  4  1  0
  4  5  2  0
  5  6  1  0
  6  7  2  0
  6  8  1  0
  8  9  1  0
  9 10  1  0
 10 11  2  0
 10 12  1  0
 12 13  1  0
 13 14  1  0
 14 15  1  0
 15 16  1  0
 16 17  1  0
 16 18  2  0
 18 19  1  0
 19 20  1  0
 20 21  2  0
  5 22  1  0
 22 23  2  0
 23  2  1  0
 20 15  1  0
  1 24  1  0
  1 25  1  0
  1 26  1  0
  3 27  1  0
  4 28  1  0
  9 29  1  0
  9 30  1  0
 12 31  1  0
 13 32  1  0
 13 33  1  0
 14 34  1  0
 14 35  1  0
 17 36  1  0
 18 37  1  0
 22 38  1  0
 23 39  1  0
M  END
$$$$
