
     RDKit          3D

 57 59  0  0  0  0  0  0  0  0999 V2000
    0.0692   -2.9370   -1.6555 C   0  0  0  0  0  0  0  0  0  0  0  0
   -0.5179   -2.1698   -2.7419 N   0  0  0  0  0  0  0  0  0  0  0  0
   -0.6754   -0.8119   -2.7226 C   0  0  0  0  0  0  0  0  0  0  0  0
   -0.3299   -0.0108   -4.1545 S   0  0  0  0  0  0  0  0  0  0  0  0
   -1.1025   -0.2321   -1.5385 N   0  0  0  0  0  0  0  0  0  0  0  0
   -2.1642   -0.8745   -0.7366 C   0  0  0  0  0  0  0  0  0  0  0  0
   -3.5650   -0.4041   -1.1539 C   0  0  0  0  0  0  0  0  0  0  0  0
   -4.6486   -1.0833   -0.3536 C   0  0  0  0  0  0  0  0  0  0  0  0
   -5.3626   -2.1586   -0.8946 C   0  0  0  0  0  0  0  0  0  0  0  0
   -6.3624   -2.7859   -0.1517 C   0  0  0  0  0  0  0  0  0  0  0  0
   -6.6526   -2.3502    1.1415 C   0  0  0  0  0  0  0  0  0  0  0  0
   -5.9361   -1.2907    1.7080 C   0  0  0  0  0  0  0  0  0  0  0  0
   -6.2642   -0.7976    3.0856 C   0  0  0  0  0  0  0  0  0  0  0  0
   -4.9425   -0.6552    0.9494 C   0  0  0  0  0  0  0  0  0  0  0  0
   -0.8130    1.1727   -1.1937 C   0  0  0  0  0  0  0  0  0  0  0  0
    0.4958    1.2452   -0.4581 C   0  0  0  0  0  0  0  0  0  0  0  0
    1.6828    1.4077   -1.0739 C   0  0  0  0  0  0  0  0  0  0  0  0
    2.9277    1.4848   -0.3109 C   0  0  0  0  0  0  0  0  0  0  0  0
    4.1644    1.6266   -0.9480 C   0  0  0  0  0  0  0  0  0  0  0  0
    5.3413    1.6998   -0.1918 C   0  0  0  0  0  0  0  0  0  0  0  0
    6.5968    1.8484   -0.7289 O   0  0  0  0  0  0  0  0  0  0  0  0
    6.7028    1.9865   -2.1379 C   0  0  0  0  0  0  0  0  0  0  0  0
    5.2765    1.6223    1.2182 C   0  0  0  0  0  0  0  0  0  0  0  0
    6.4787    1.6949    1.8792 O   0  0  0  0  0  0  0  0  0  0  0  0
    6.4626    1.5953    3.2970 C   0  0  0  0  0  0  0  0  0  0  0  0
    4.0351    1.4840    1.8511 C   0  0  0  0  0  0  0  0  0  0  0  0
    2.8725    1.4153    1.0834 C   0  0  0  0  0  0  0  0  0  0  0  0
    1.6276    1.2765    1.7101 N   0  0  0  0  0  0  0  0  0  0  0  0
    0.4373    1.1958    1.0347 C   0  0  0  0  0  0  0  0  0  0  0  0
   -0.6236    1.0942    1.6461 O   0  0  0  0  0  0  0  0  0  0  0  0
    0.1898   -2.3432   -0.7458 H   0  0  0  0  0  0  0  0  0  0  0  0
   -0.5615   -3.8096   -1.4697 H   0  0  0  0  0  0  0  0  0  0  0  0
    1.0604   -3.2667   -1.9770 H   0  0  0  0  0  0  0  0  0  0  0  0
   -0.2636   -2.5056   -3.6643 H   0  0  0  0  0  0  0  0  0  0  0  0
   -2.1324   -1.9615   -0.8561 H   0  0  0  0  0  0  0  0  0  0  0  0
   -1.9715   -0.6701    0.3233 H   0  0  0  0  0  0  0  0  0  0  0  0
   -3.7167   -0.5968   -2.2235 H   0  0  0  0  0  0  0  0  0  0  0  0
   -3.6663    0.6803   -1.0364 H   0  0  0  0  0  0  0  0  0  0  0  0
   -5.1488   -2.5097   -1.9017 H   0  0  0  0  0  0  0  0  0  0  0  0
   -6.9197   -3.6128   -0.5842 H   0  0  0  0  0  0  0  0  0  0  0  0
   -7.4406   -2.8449    1.7051 H   0  0  0  0  0  0  0  0  0  0  0  0
   -5.3537   -0.4996    3.6157 H   0  0  0  0  0  0  0  0  0  0  0  0
   -6.9393    0.0610    3.0230 H   0  0  0  0  0  0  0  0  0  0  0  0
   -6.7470   -1.5800    3.6808 H   0  0  0  0  0  0  0  0  0  0  0  0
   -4.3925    0.1813    1.3783 H   0  0  0  0  0  0  0  0  0  0  0  0
   -0.7703    1.7924   -2.0951 H   0  0  0  0  0  0  0  0  0  0  0  0
   -1.6287    1.5913   -0.5942 H   0  0  0  0  0  0  0  0  0  0  0  0
    1.7456    1.4725   -2.1556 H   0  0  0  0  0  0  0  0  0  0  0  0
    4.1896    1.6786   -2.0326 H   0  0  0  0  0  0  0  0  0  0  0  0
    6.1812    2.8838   -2.4860 H   0  0  0  0  0  0  0  0  0  0  0  0
    6.3321    1.0935   -2.6538 H   0  0  0  0  0  0  0  0  0  0  0  0
    7.7624    2.0985   -2.3850 H   0  0  0  0  0  0  0  0  0  0  0  0
    5.9245    2.4399    3.7442 H   0  0  0  0  0  0  0  0  0  0  0  0
    6.0413    0.6375    3.6246 H   0  0  0  0  0  0  0  0  0  0  0  0
    7.4988    1.6381    3.6449 H   0  0  0  0  0  0  0  0  0  0  0  0
    3.9538    1.4340    2.9318 H   0  0  0  0  0  0  0  0  0  0  0  0
    1.5628    1.2296    2.7180 H   0  0  0  0  0  0  0  0  0  0  0  0
  1  2  1  0
  2  3  1  0
  3  4  2  0
  3  5  1  0
  5  6  1  0
  6  7  1  0
  7  8  1  0
  8  9  2  0
  9 10  1  0
 10 11  2  0
 11 12  1  0
 12 13  1  0
 12 14  2  0
  5 15  1  0
 15 16  1  0
 16 17  2  0
 17 18  1  0
 18 19  2  0
 19 20  1  0
 20 21  1  0
 21 22  1  0
 20 23  2  0
 23 24  1  0
 24 25  1  0
 23 26  1  0
 26 27  2  0
 27 28  1  0
 28 29  1  0
 29 30  2  0
 14  8  1  0
 29 16  1  0
 27 18  1  0
  1 31  1  0
  1 32  1  0
  1 33  1  0
  2 34  1  0
  6 35  1  0
  6 36  1  0
  7 37  1  0
  7 38  1  0
  9 39  1  0
 10 40  1  0
 11 41  1  0
 13 42  1  0
 13 43  1  0
 13 44  1  0
 14 45  1  0
 15 46  1  0
 15 47  1  0
 17 48  1  0
 19 49  1  0
 22 50  1  0
 22 51  1  0
 22 52  1  0
 25 53  1  0
 25 54  1  0
 25 55  1  0
 26 56  1  0
 28 57  1  0
M  END
$$$$
