
     RDKit          3D

 58 62  0  0  0  0  0  0  0  0999 V2000
    6.0557    2.4227    1.8490 C   0  0  0  0  0  0  0  0  0  0  0  0
    6.1192    1.0925    1.1485 C   0  0  0  0  0  0  0  0  0  0  0  0
    7.1495    0.1524    1.7107 C   0  0  0  0  0  0  0  0  0  0  0  0
    5.3197    0.7727    0.1154 C   0  0  0  0  0  0  0  0  0  0  0  0
    4.1951    1.5631   -0.5803 C   0  0  0  0  0  0  0  0  0  0  0  0
    4.8316    1.5556   -1.9924 C   0  0  0  0  0  0  0  0  0  0  0  0
    5.5143    0.1465   -2.0891 C   0  0  0  0  0  0  0  0  0  0  0  0
    5.2046   -0.5120   -0.7208 C   0  0  0  0  0  0  0  0  0  0  0  0
    3.7262   -0.7355   -0.6389 C   0  0  0  0  0  0  0  0  0  0  0  0
    3.1164    0.5287   -0.5555 C   0  0  0  0  0  0  0  0  0  0  0  0
    1.7664    0.3663   -0.4858 C   0  0  0  0  0  0  0  0  0  0  0  0
    0.8119    1.2954   -0.4046 O   0  0  0  0  0  0  0  0  0  0  0  0
    1.5105   -1.0320   -0.5078 N   0  0  0  0  0  0  0  0  0  0  0  0
    0.2081   -1.5662   -0.4240 C   0  0  0  0  0  0  0  0  0  0  0  0
   -0.8506   -0.7842   -0.3270 N   0  0  0  0  0  0  0  0  0  0  0  0
   -1.9967   -1.5657   -0.2565 C   0  0  0  0  0  0  0  0  0  0  0  0
   -3.3011   -0.9281   -0.1385 C   0  0  0  0  0  0  0  0  0  0  0  0
   -4.3881   -1.3254   -0.9236 C   0  0  0  0  0  0  0  0  0  0  0  0
   -5.6287   -0.6929   -0.7899 C   0  0  0  0  0  0  0  0  0  0  0  0
   -5.8054    0.3582    0.1221 C   0  0  0  0  0  0  0  0  0  0  0  0
   -7.1595    1.0344    0.2409 C   0  0  0  0  0  0  0  0  0  0  0  0
   -7.6993    0.9927    1.6731 C   0  0  0  0  0  0  0  0  0  0  0  0
   -7.1063    2.4727   -0.2787 C   0  0  0  0  0  0  0  0  0  0  0  0
   -4.7060    0.7689    0.8891 C   0  0  0  0  0  0  0  0  0  0  0  0
   -3.4670    0.1341    0.7578 C   0  0  0  0  0  0  0  0  0  0  0  0
   -1.7758   -2.9356   -0.2653 C   0  0  0  0  0  0  0  0  0  0  0  0
   -2.7219   -4.0793   -0.1512 C   0  0  0  0  0  0  0  0  0  0  0  0
   -0.0894   -3.2357   -0.4301 S   0  0  0  0  0  0  0  0  0  0  0  0
    2.7574   -1.6976   -0.6187 C   0  0  0  0  0  0  0  0  0  0  0  0
    2.8768   -3.0205   -0.6845 O   0  0  0  0  0  0  0  0  0  0  0  0
    5.7684    2.2849    2.8958 H   0  0  0  0  0  0  0  0  0  0  0  0
    7.0354    2.9101    1.8215 H   0  0  0  0  0  0  0  0  0  0  0  0
    5.3398    3.1119    1.3972 H   0  0  0  0  0  0  0  0  0  0  0  0
    7.1893   -0.8050    1.1857 H   0  0  0  0  0  0  0  0  0  0  0  0
    6.9326   -0.0583    2.7631 H   0  0  0  0  0  0  0  0  0  0  0  0
    8.1456    0.6026    1.6460 H   0  0  0  0  0  0  0  0  0  0  0  0
    3.9284    2.5396   -0.1809 H   0  0  0  0  0  0  0  0  0  0  0  0
    4.0873    1.6882   -2.7859 H   0  0  0  0  0  0  0  0  0  0  0  0
    5.5875    2.3438   -2.0932 H   0  0  0  0  0  0  0  0  0  0  0  0
    6.5944    0.2655   -2.2393 H   0  0  0  0  0  0  0  0  0  0  0  0
    5.1111   -0.4283   -2.9305 H   0  0  0  0  0  0  0  0  0  0  0  0
    5.8273   -1.3620   -0.4502 H   0  0  0  0  0  0  0  0  0  0  0  0
   -0.0575    0.8344   -0.3774 H   0  0  0  0  0  0  0  0  0  0  0  0
   -4.2820   -2.1167   -1.6608 H   0  0  0  0  0  0  0  0  0  0  0  0
   -6.4559   -1.0222   -1.4152 H   0  0  0  0  0  0  0  0  0  0  0  0
   -7.8775    0.4880   -0.3857 H   0  0  0  0  0  0  0  0  0  0  0  0
   -7.0874    1.5883    2.3592 H   0  0  0  0  0  0  0  0  0  0  0  0
   -7.7269   -0.0347    2.0529 H   0  0  0  0  0  0  0  0  0  0  0  0
   -8.7190    1.3913    1.7112 H   0  0  0  0  0  0  0  0  0  0  0  0
   -6.4412    3.1013    0.3236 H   0  0  0  0  0  0  0  0  0  0  0  0
   -8.1030    2.9267   -0.2592 H   0  0  0  0  0  0  0  0  0  0  0  0
   -6.7454    2.5027   -1.3123 H   0  0  0  0  0  0  0  0  0  0  0  0
   -4.7985    1.5927    1.5937 H   0  0  0  0  0  0  0  0  0  0  0  0
   -2.6287    0.4758    1.3623 H   0  0  0  0  0  0  0  0  0  0  0  0
   -2.2285   -4.9814    0.2252 H   0  0  0  0  0  0  0  0  0  0  0  0
   -3.5378   -3.8462    0.5408 H   0  0  0  0  0  0  0  0  0  0  0  0
   -3.1532   -4.3140   -1.1296 H   0  0  0  0  0  0  0  0  0  0  0  0
    3.8278   -3.2254   -0.7213 H   0  0  0  0  0  0  0  0  0  0  0  0
  1  2  1  0
  2  3  1  0
  2  4  2  3
  4  5  1  0
  5  6  1  0
  6  7  1  0
  7  8  1  0
  8  9  1  0
  9 10  1  0
 10 11  2  0
 11 12  1  0
 11 13  1  0
 13 14  1  0
 14 15  2  0
 15 16  1  0
 16 17  1  0
 17 18  2  0
 18 19  1  0
 19 20  2  0
 20 21  1  0
 21 22  1  0
 21 23  1  0
 20 24  1  0
 24 25  2  0
 16 26  2  0
 26 27  1  0
 26 28  1  0
 13 29  1  0
 29 30  1  0
  8  4  1  0
 29  9  2  0
 10  5  1  0
 28 14  1  0
 25 17  1  0
  1 31  1  0
  1 32  1  0
  1 33  1  0
  3 34  1  0
  3 35  1  0
  3 36  1  0
  5 37  1  0
  6 38  1  0
  6 39  1  0
  7 40  1  0
  7 41  1  0
  8 42  1  0
 12 43  1  0
 18 44  1  0
 19 45  1  0
 21 46  1  0
 22 47  1  0
 22 48  1  0
 22 49  1  0
 23 50  1  0
 23 51  1  0
 23 52  1  0
 24 53  1  0
 25 54  1  0
 27 55  1  0
 27 56  1  0
 27 57  1  0
 30 58  1  0
M  END
$$$$
