
     RDKit          3D

 31 32  0  0  0  0  0  0  0  0999 V2000
    0.6019   -2.3236    3.0650 C   0  0  0  0  0  0  0  0  0  0  0  0
    1.3563   -3.0608    1.5898 S   0  0  0  0  0  0  0  0  0  0  0  0
    2.0056   -1.5855    0.8235 C   0  0  0  0  0  0  0  0  0  0  0  0
    2.9941   -0.8202    1.4518 C   0  0  0  0  0  0  0  0  0  0  0  0
    3.4852    0.3341    0.8386 C   0  0  0  0  0  0  0  0  0  0  0  0
    2.9960    0.7223   -0.4077 C   0  0  0  0  0  0  0  0  0  0  0  0
    2.0271   -0.0505   -1.0474 C   0  0  0  0  0  0  0  0  0  0  0  0
    1.5139    0.3657   -2.3168 N   0  0  0  0  0  0  0  0  0  0  0  0
    0.3824    1.6422   -2.2833 S   0  0  0  0  0  6  0  0  0  0  0  0
    0.7947    2.6709   -1.3514 O   0  0  0  0  0  0  0  0  0  0  0  0
    0.0364    1.9455   -3.6556 O   0  0  0  0  0  0  0  0  0  0  0  0
   -1.1046    1.0055   -1.6252 C   0  0  0  0  0  0  0  0  0  0  0  0
   -2.1193    1.7278   -1.0303 C   0  0  0  0  0  0  0  0  0  0  0  0
   -3.0608    0.7962   -0.6976 N   0  0  0  0  0  0  0  0  0  0  0  0
   -4.3167    1.0635   -0.0437 C   0  0  0  0  0  0  0  0  0  0  0  0
   -2.6090   -0.4285   -1.1004 C   0  0  0  0  0  0  0  0  0  0  0  0
   -1.4230   -0.3459   -1.6626 N   0  0  0  0  0  0  0  0  0  0  0  0
    1.5317   -1.2027   -0.4354 C   0  0  0  0  0  0  0  0  0  0  0  0
   -0.1174   -1.5500    2.7814 H   0  0  0  0  0  0  0  0  0  0  0  0
    1.3649   -1.8905    3.7178 H   0  0  0  0  0  0  0  0  0  0  0  0
    0.0717   -3.1019    3.6226 H   0  0  0  0  0  0  0  0  0  0  0  0
    3.3932   -1.1159    2.4192 H   0  0  0  0  0  0  0  0  0  0  0  0
    4.2463    0.9330    1.3309 H   0  0  0  0  0  0  0  0  0  0  0  0
    3.3746    1.6256   -0.8795 H   0  0  0  0  0  0  0  0  0  0  0  0
    1.0869   -0.3943   -2.8509 H   0  0  0  0  0  0  0  0  0  0  0  0
   -2.2306    2.7854   -0.8335 H   0  0  0  0  0  0  0  0  0  0  0  0
   -4.9316    0.1594   -0.0462 H   0  0  0  0  0  0  0  0  0  0  0  0
   -4.8310    1.8615   -0.5856 H   0  0  0  0  0  0  0  0  0  0  0  0
   -4.1090    1.3702    0.9839 H   0  0  0  0  0  0  0  0  0  0  0  0
   -3.1781   -1.3405   -0.9677 H   0  0  0  0  0  0  0  0  0  0  0  0
    0.7680   -1.7981   -0.9285 H   0  0  0  0  0  0  0  0  0  0  0  0
  1  2  1  0
  2  3  1  0
  3  4  2  0
  4  5  1  0
  5  6  2  0
  6  7  1  0
  7  8  1  0
  8  9  1  0
  9 10  2  0
  9 11  2  0
  9 12  1  0
 12 13  2  0
 13 14  1  0
 14 15  1  0
 14 16  1  0
 16 17  2  0
  7 18  2  0
 18  3  1  0
 17 12  1  0
  1 19  1  0
  1 20  1  0
  1 21  1  0
  4 22  1  0
  5 23  1  0
  6 24  1  0
  8 25  1  0
 13 26  1  0
 15 27  1  0
 15 28  1  0
 15 29  1  0
 16 30  1  0
 18 31  1  0
M  END
$$$$
