
     RDKit          3D

 52 51  0  0  0  0  0  0  0  0999 V2000
   -5.9777    1.0949   -2.3715 C   0  0  0  0  0  0  0  0  0  0  0  0
   -5.5185    1.5832   -1.3742 C   0  0  0  0  0  0  0  0  0  0  0  0
   -4.9712    2.2098   -0.1693 C   0  0  0  0  0  0  0  0  0  0  0  0
   -4.7164    1.2137    0.9790 N   0  0  0  0  0  4  0  0  0  0  0  0
   -5.9077    0.2849    1.1972 C   0  0  0  0  0  0  0  0  0  0  0  0
   -4.5613    2.0523    2.2607 C   0  0  0  0  0  0  0  0  0  0  0  0
   -3.4010    0.4272    0.8097 C   0  0  0  0  0  0  0  0  0  0  0  0
   -3.3230   -0.4489   -0.4399 C   0  0  0  0  0  0  0  0  0  0  0  0
   -2.1062   -1.3850   -0.4269 C   0  0  0  0  0  0  0  0  0  0  0  0
   -0.7668   -0.6436   -0.4694 C   0  0  0  0  0  0  0  0  0  0  0  0
    0.4044   -1.6257   -0.5602 C   0  0  0  0  0  0  0  0  0  0  0  0
    1.7653   -0.9415   -0.7286 C   0  0  0  0  0  0  0  0  0  0  0  0
    2.1962   -0.1352    0.4995 C   0  0  0  0  0  0  0  0  0  0  0  0
    3.5599    0.5439    0.3323 C   0  0  0  0  0  0  0  0  0  0  0  0
    4.7295   -0.4421    0.2660 C   0  0  0  0  0  0  0  0  0  0  0  0
    6.0702    0.2958    0.2149 C   0  0  0  0  0  0  0  0  0  0  0  0
    7.2801   -0.6403    0.2541 C   0  0  0  0  0  0  0  0  0  0  0  0
    7.3953   -1.5375   -0.9684 C   0  0  0  0  0  0  0  0  0  0  0  0
   -6.3835    0.6720   -3.2641 H   0  0  0  0  0  0  0  0  0  0  0  0
   -4.0223    2.7182   -0.3721 H   0  0  0  0  0  0  0  0  0  0  0  0
   -5.6866    2.9523    0.2039 H   0  0  0  0  0  0  0  0  0  0  0  0
   -6.7979    0.8995    1.3632 H   0  0  0  0  0  0  0  0  0  0  0  0
   -5.7043   -0.3325    2.0776 H   0  0  0  0  0  0  0  0  0  0  0  0
   -6.0495   -0.3540    0.3241 H   0  0  0  0  0  0  0  0  0  0  0  0
   -3.7352    2.7551    2.1160 H   0  0  0  0  0  0  0  0  0  0  0  0
   -5.4960    2.5920    2.4410 H   0  0  0  0  0  0  0  0  0  0  0  0
   -4.3490    1.3764    3.0946 H   0  0  0  0  0  0  0  0  0  0  0  0
   -3.2922   -0.1895    1.7102 H   0  0  0  0  0  0  0  0  0  0  0  0
   -2.5958    1.1708    0.8038 H   0  0  0  0  0  0  0  0  0  0  0  0
   -4.2141   -1.0768   -0.5314 H   0  0  0  0  0  0  0  0  0  0  0  0
   -3.2630    0.1739   -1.3379 H   0  0  0  0  0  0  0  0  0  0  0  0
   -2.1773   -2.0472   -1.2988 H   0  0  0  0  0  0  0  0  0  0  0  0
   -2.1462   -2.0274    0.4613 H   0  0  0  0  0  0  0  0  0  0  0  0
   -0.6612   -0.0294    0.4302 H   0  0  0  0  0  0  0  0  0  0  0  0
   -0.7483    0.0317   -1.3329 H   0  0  0  0  0  0  0  0  0  0  0  0
    0.2489   -2.2875   -1.4214 H   0  0  0  0  0  0  0  0  0  0  0  0
    0.4217   -2.2657    0.3303 H   0  0  0  0  0  0  0  0  0  0  0  0
    1.7427   -0.2904   -1.6108 H   0  0  0  0  0  0  0  0  0  0  0  0
    2.5047   -1.7243   -0.9312 H   0  0  0  0  0  0  0  0  0  0  0  0
    1.4593    0.6510    0.6979 H   0  0  0  0  0  0  0  0  0  0  0  0
    2.2141   -0.7841    1.3832 H   0  0  0  0  0  0  0  0  0  0  0  0
    3.5514    1.1714   -0.5672 H   0  0  0  0  0  0  0  0  0  0  0  0
    3.7100    1.2174    1.1854 H   0  0  0  0  0  0  0  0  0  0  0  0
    4.6274   -1.0746   -0.6211 H   0  0  0  0  0  0  0  0  0  0  0  0
    4.7056   -1.0997    1.1431 H   0  0  0  0  0  0  0  0  0  0  0  0
    6.1157    0.9180   -0.6874 H   0  0  0  0  0  0  0  0  0  0  0  0
    6.1383    0.9772    1.0721 H   0  0  0  0  0  0  0  0  0  0  0  0
    8.1883   -0.0298    0.3242 H   0  0  0  0  0  0  0  0  0  0  0  0
    7.2442   -1.2589    1.1584 H   0  0  0  0  0  0  0  0  0  0  0  0
    7.3950   -0.9480   -1.8906 H   0  0  0  0  0  0  0  0  0  0  0  0
    8.3304   -2.1054   -0.9299 H   0  0  0  0  0  0  0  0  0  0  0  0
    6.5735   -2.2577   -1.0166 H   0  0  0  0  0  0  0  0  0  0  0  0
  1  2  3  0
  2  3  1  0
  3  4  1  0
  4  5  1  0
  4  6  1  0
  4  7  1  0
  7  8  1  0
  8  9  1  0
  9 10  1  0
 10 11  1  0
 11 12  1  0
 12 13  1  0
 13 14  1  0
 14 15  1  0
 15 16  1  0
 16 17  1  0
 17 18  1  0
  1 19  1  0
  3 20  1  0
  3 21  1  0
  5 22  1  0
  5 23  1  0
  5 24  1  0
  6 25  1  0
  6 26  1  0
  6 27  1  0
  7 28  1  0
  7 29  1  0
  8 30  1  0
  8 31  1  0
  9 32  1  0
  9 33  1  0
 10 34  1  0
 10 35  1  0
 11 36  1  0
 11 37  1  0
 12 38  1  0
 12 39  1  0
 13 40  1  0
 13 41  1  0
 14 42  1  0
 14 43  1  0
 15 44  1  0
 15 45  1  0
 16 46  1  0
 16 47  1  0
 17 48  1  0
 17 49  1  0
 18 50  1  0
 18 51  1  0
 18 52  1  0
M  CHG  1   4   1
M  END
$$$$
