
     RDKit          3D

 56 58  0  0  0  0  0  0  0  0999 V2000
    6.8695    4.3187   -3.0365 C   0  0  0  0  0  0  0  0  0  0  0  0
    5.5840    3.8548   -2.6416 O   0  0  0  0  0  0  0  0  0  0  0  0
    5.4129    2.4993   -2.5454 C   0  0  0  0  0  0  0  0  0  0  0  0
    6.3803    1.5321   -2.8228 C   0  0  0  0  0  0  0  0  0  0  0  0
    6.0798    0.1712   -2.6873 C   0  0  0  0  0  0  0  0  0  0  0  0
    4.8062   -0.2301   -2.2807 C   0  0  0  0  0  0  0  0  0  0  0  0
    4.4057   -1.5380   -2.1206 O   0  0  0  0  0  0  0  0  0  0  0  0
    5.3466   -2.5529   -2.4750 C   0  0  0  0  0  0  0  0  0  0  0  0
    3.8215    0.7440   -2.0033 C   0  0  0  0  0  0  0  0  0  0  0  0
    2.5489    0.2634   -1.6169 N   0  0  0  0  0  0  0  0  0  0  0  0
    1.4045    0.9880   -1.3360 C   0  0  0  0  0  0  0  0  0  0  0  0
    1.3055    2.2125   -1.3351 O   0  0  0  0  0  0  0  0  0  0  0  0
    0.2044    0.1045   -1.0270 C   0  0  0  0  0  0  0  0  0  0  0  0
   -0.3284    0.3634    0.6922 S   0  0  0  0  0  0  0  0  0  0  0  0
   -1.7894   -0.6009    0.6608 C   0  0  0  0  0  0  0  0  0  0  0  0
   -1.6926   -1.7793    0.1365 N   0  0  0  0  0  0  0  0  0  0  0  0
   -2.8275   -2.5916    0.1063 C   0  0  0  0  0  0  0  0  0  0  0  0
   -2.7497   -3.8417   -0.5162 C   0  0  0  0  0  0  0  0  0  0  0  0
   -3.8631   -4.6852   -0.5562 C   0  0  0  0  0  0  0  0  0  0  0  0
   -5.0644   -4.2850    0.0307 C   0  0  0  0  0  0  0  0  0  0  0  0
   -5.1513   -3.0407    0.6577 C   0  0  0  0  0  0  0  0  0  0  0  0
   -4.0307   -2.2026    0.6877 C   0  0  0  0  0  0  0  0  0  0  0  0
   -4.0800   -0.8804    1.3327 C   0  0  0  0  0  0  0  0  0  0  0  0
   -5.0858   -0.5709    1.9657 O   0  0  0  0  0  0  0  0  0  0  0  0
   -2.9494   -0.0750    1.2092 N   0  0  0  0  0  0  0  0  0  0  0  0
   -3.0475    1.2924    1.7585 C   0  0  0  0  0  0  0  0  0  0  0  0
   -2.7271    1.3499    3.2620 C   0  0  0  0  0  0  0  0  0  0  0  0
   -3.8526    0.9437    4.0869 N   0  0  0  0  0  0  0  0  0  0  0  0
   -4.8723    1.8346    4.3508 C   0  0  0  0  0  0  0  0  0  0  0  0
   -6.0664    1.2126    5.0248 C   0  0  0  0  0  0  0  0  0  0  0  0
   -4.8317    3.0238    4.0501 O   0  0  0  0  0  0  0  0  0  0  0  0
    4.1363    2.0994   -2.1355 C   0  0  0  0  0  0  0  0  0  0  0  0
    7.6356    4.0200   -2.3108 H   0  0  0  0  0  0  0  0  0  0  0  0
    6.8374    5.4125   -3.0573 H   0  0  0  0  0  0  0  0  0  0  0  0
    7.1231    3.9751   -4.0461 H   0  0  0  0  0  0  0  0  0  0  0  0
    7.3788    1.8025   -3.1476 H   0  0  0  0  0  0  0  0  0  0  0  0
    6.8649   -0.5454   -2.9086 H   0  0  0  0  0  0  0  0  0  0  0  0
    6.2266   -2.5279   -1.8203 H   0  0  0  0  0  0  0  0  0  0  0  0
    4.8588   -3.5211   -2.3350 H   0  0  0  0  0  0  0  0  0  0  0  0
    5.6346   -2.4769   -3.5326 H   0  0  0  0  0  0  0  0  0  0  0  0
    2.5089   -0.7494   -1.5628 H   0  0  0  0  0  0  0  0  0  0  0  0
    0.4496   -0.9521   -1.1850 H   0  0  0  0  0  0  0  0  0  0  0  0
   -0.6009    0.3743   -1.7225 H   0  0  0  0  0  0  0  0  0  0  0  0
   -1.8132   -4.1613   -0.9682 H   0  0  0  0  0  0  0  0  0  0  0  0
   -3.7903   -5.6551   -1.0446 H   0  0  0  0  0  0  0  0  0  0  0  0
   -5.9306   -4.9418    0.0016 H   0  0  0  0  0  0  0  0  0  0  0  0
   -6.0871   -2.7257    1.1145 H   0  0  0  0  0  0  0  0  0  0  0  0
   -2.3712    1.9571    1.2152 H   0  0  0  0  0  0  0  0  0  0  0  0
   -4.0591    1.6722    1.5687 H   0  0  0  0  0  0  0  0  0  0  0  0
   -2.4575    2.3770    3.5352 H   0  0  0  0  0  0  0  0  0  0  0  0
   -1.8861    0.6970    3.5201 H   0  0  0  0  0  0  0  0  0  0  0  0
   -4.1335   -0.0303    4.0258 H   0  0  0  0  0  0  0  0  0  0  0  0
   -6.8324    1.0044    4.2754 H   0  0  0  0  0  0  0  0  0  0  0  0
   -5.7989    0.2804    5.5286 H   0  0  0  0  0  0  0  0  0  0  0  0
   -6.4588    1.9046    5.7737 H   0  0  0  0  0  0  0  0  0  0  0  0
    3.4049    2.8759   -1.9238 H   0  0  0  0  0  0  0  0  0  0  0  0
  1  2  1  0
  2  3  1  0
  3  4  2  0
  4  5  1  0
  5  6  2  0
  6  7  1  0
  7  8  1  0
  6  9  1  0
  9 10  1  0
 10 11  1  0
 11 12  2  0
 11 13  1  0
 13 14  1  0
 14 15  1  0
 15 16  2  0
 16 17  1  0
 17 18  2  0
 18 19  1  0
 19 20  2  0
 20 21  1  0
 21 22  2  0
 22 23  1  0
 23 24  2  0
 23 25  1  0
 25 26  1  0
 26 27  1  0
 27 28  1  0
 28 29  1  0
 29 30  1  0
 29 31  2  0
  9 32  2  0
 32  3  1  0
 25 15  1  0
 22 17  1  0
  1 33  1  0
  1 34  1  0
  1 35  1  0
  4 36  1  0
  5 37  1  0
  8 38  1  0
  8 39  1  0
  8 40  1  0
 10 41  1  0
 13 42  1  0
 13 43  1  0
 18 44  1  0
 19 45  1  0
 20 46  1  0
 21 47  1  0
 26 48  1  0
 26 49  1  0
 27 50  1  0
 27 51  1  0
 28 52  1  0
 30 53  1  0
 30 54  1  0
 30 55  1  0
 32 56  1  0
M  END
$$$$
