
     RDKit          3D

 61 65  0  0  0  0  0  0  0  0999 V2000
    6.3583   -4.1676    2.4343 C   0  0  0  0  0  0  0  0  0  0  0  0
    5.1552   -3.4064    1.9598 C   0  0  0  0  0  0  0  0  0  0  0  0
    3.9379   -3.5086    2.6382 C   0  0  0  0  0  0  0  0  0  0  0  0
    2.8249   -2.7755    2.2141 C   0  0  0  0  0  0  0  0  0  0  0  0
    2.9030   -1.9133    1.1085 C   0  0  0  0  0  0  0  0  0  0  0  0
    1.7327   -1.1431    0.6628 C   0  0  0  0  0  0  0  0  0  0  0  0
    1.7987    0.2350    0.4737 C   0  0  0  0  0  0  0  0  0  0  0  0
    0.6814    0.9652    0.0438 C   0  0  0  0  0  0  0  0  0  0  0  0
    0.7833    2.4111   -0.1801 C   0  0  0  0  0  0  0  0  0  0  0  0
    0.7644    3.3047    0.9033 C   0  0  0  0  0  0  0  0  0  0  0  0
    0.8634    4.6826    0.6943 C   0  0  0  0  0  0  0  0  0  0  0  0
    0.9852    5.1966   -0.6000 C   0  0  0  0  0  0  0  0  0  0  0  0
    1.1271    6.6752   -0.8198 C   0  0  0  0  0  0  0  0  0  0  0  0
    1.0405    4.3115   -1.6807 C   0  0  0  0  0  0  0  0  0  0  0  0
    0.9423    2.9331   -1.4740 C   0  0  0  0  0  0  0  0  0  0  0  0
   -0.5086    0.3319   -0.1942 N   0  0  0  0  0  4  0  0  0  0  0  0
   -1.6570    1.0878   -0.6366 C   0  0  0  0  0  0  0  0  0  0  0  0
   -2.0203    1.0349   -1.9839 C   0  0  0  0  0  0  0  0  0  0  0  0
   -3.1290    1.7666   -2.4034 C   0  0  0  0  0  0  0  0  0  0  0  0
   -3.8498    2.5334   -1.4830 C   0  0  0  0  0  0  0  0  0  0  0  0
   -3.4705    2.5747   -0.1380 C   0  0  0  0  0  0  0  0  0  0  0  0
   -2.3653    1.8470    0.2971 C   0  0  0  0  0  0  0  0  0  0  0  0
   -0.6046   -1.0215   -0.0125 C   0  0  0  0  0  0  0  0  0  0  0  0
   -1.8915   -1.6872   -0.2401 C   0  0  0  0  0  0  0  0  0  0  0  0
   -2.9107   -1.6400    0.7249 C   0  0  0  0  0  0  0  0  0  0  0  0
   -4.1345   -2.2762    0.5023 C   0  0  0  0  0  0  0  0  0  0  0  0
   -4.3650   -2.9749   -0.6864 C   0  0  0  0  0  0  0  0  0  0  0  0
   -5.6677   -3.6880   -0.9089 C   0  0  0  0  0  0  0  0  0  0  0  0
   -3.3424   -3.0572   -1.6360 C   0  0  0  0  0  0  0  0  0  0  0  0
   -2.1180   -2.4214   -1.4158 C   0  0  0  0  0  0  0  0  0  0  0  0
    0.5099   -1.7599    0.4109 C   0  0  0  0  0  0  0  0  0  0  0  0
    4.1359   -1.8072    0.4444 C   0  0  0  0  0  0  0  0  0  0  0  0
    5.2493   -2.5405    0.8673 C   0  0  0  0  0  0  0  0  0  0  0  0
    7.0230   -4.4082    1.5978 H   0  0  0  0  0  0  0  0  0  0  0  0
    6.0632   -5.1152    2.8971 H   0  0  0  0  0  0  0  0  0  0  0  0
    6.9122   -3.5728    3.1670 H   0  0  0  0  0  0  0  0  0  0  0  0
    3.8488   -4.1610    3.5052 H   0  0  0  0  0  0  0  0  0  0  0  0
    1.8982   -2.8807    2.7746 H   0  0  0  0  0  0  0  0  0  0  0  0
    2.7350    0.7624    0.6634 H   0  0  0  0  0  0  0  0  0  0  0  0
    0.6754    2.9431    1.9268 H   0  0  0  0  0  0  0  0  0  0  0  0
    0.8502    5.3570    1.5496 H   0  0  0  0  0  0  0  0  0  0  0  0
    2.1821    6.9612   -0.7695 H   0  0  0  0  0  0  0  0  0  0  0  0
    0.7275    6.9650   -1.7973 H   0  0  0  0  0  0  0  0  0  0  0  0
    0.5704    7.2367   -0.0622 H   0  0  0  0  0  0  0  0  0  0  0  0
    1.1666    4.6941   -2.6927 H   0  0  0  0  0  0  0  0  0  0  0  0
    1.0002    2.2772   -2.3410 H   0  0  0  0  0  0  0  0  0  0  0  0
   -1.4613    0.4462   -2.7039 H   0  0  0  0  0  0  0  0  0  0  0  0
   -3.4394    1.7458   -3.4468 H   0  0  0  0  0  0  0  0  0  0  0  0
   -4.7157    3.1044   -1.8173 H   0  0  0  0  0  0  0  0  0  0  0  0
   -4.0433    3.1781    0.5645 H   0  0  0  0  0  0  0  0  0  0  0  0
   -2.0790    1.8789    1.3433 H   0  0  0  0  0  0  0  0  0  0  0  0
   -2.7675   -1.1149    1.6677 H   0  0  0  0  0  0  0  0  0  0  0  0
   -4.9098   -2.2292    1.2660 H   0  0  0  0  0  0  0  0  0  0  0  0
   -5.6058   -4.7094   -0.5211 H   0  0  0  0  0  0  0  0  0  0  0  0
   -5.9133   -3.7275   -1.9754 H   0  0  0  0  0  0  0  0  0  0  0  0
   -6.4890   -3.1669   -0.4055 H   0  0  0  0  0  0  0  0  0  0  0  0
   -3.4949   -3.6238   -2.5537 H   0  0  0  0  0  0  0  0  0  0  0  0
   -1.3450   -2.5124   -2.1776 H   0  0  0  0  0  0  0  0  0  0  0  0
    0.4116   -2.8389    0.5420 H   0  0  0  0  0  0  0  0  0  0  0  0
    4.2489   -1.1580   -0.4214 H   0  0  0  0  0  0  0  0  0  0  0  0
    6.1925   -2.4337    0.3342 H   0  0  0  0  0  0  0  0  0  0  0  0
  1  2  1  0
  2  3  2  0
  3  4  1  0
  4  5  2  0
  5  6  1  0
  6  7  2  0
  7  8  1  0
  8  9  1  0
  9 10  2  0
 10 11  1  0
 11 12  2  0
 12 13  1  0
 12 14  1  0
 14 15  2  0
  8 16  2  0
 16 17  1  0
 17 18  2  0
 18 19  1  0
 19 20  2  0
 20 21  1  0
 21 22  2  0
 16 23  1  0
 23 24  1  0
 24 25  2  0
 25 26  1  0
 26 27  2  0
 27 28  1  0
 27 29  1  0
 29 30  2  0
 23 31  2  0
  5 32  1  0
 32 33  2  0
 33  2  1  0
 31  6  1  0
 15  9  1  0
 22 17  1  0
 30 24  1  0
  1 34  1  0
  1 35  1  0
  1 36  1  0
  3 37  1  0
  4 38  1  0
  7 39  1  0
 10 40  1  0
 11 41  1  0
 13 42  1  0
 13 43  1  0
 13 44  1  0
 14 45  1  0
 15 46  1  0
 18 47  1  0
 19 48  1  0
 20 49  1  0
 21 50  1  0
 22 51  1  0
 25 52  1  0
 26 53  1  0
 28 54  1  0
 28 55  1  0
 28 56  1  0
 29 57  1  0
 30 58  1  0
 31 59  1  0
 32 60  1  0
 33 61  1  0
M  CHG  1  16   1
M  END
$$$$
