
     RDKit          3D

 46 48  0  0  0  0  0  0  0  0999 V2000
   -2.8125    2.3660   -0.6635 C   0  0  0  0  0  0  0  0  0  0  0  0
   -2.9214    1.3786   -1.5631 C   0  0  0  0  0  0  0  0  0  0  0  0
   -2.6333   -0.0885   -1.3802 C   0  0  0  0  0  0  0  0  0  0  0  0
   -2.2942   -0.4918   -0.0284 N   0  0  0  0  0  0  0  0  0  0  0  0
   -1.0434   -0.6063    0.5194 C   0  0  0  0  0  0  0  0  0  0  0  0
    0.4260   -0.3372   -0.3487 S   0  0  0  0  0  0  0  0  0  0  0  0
    1.6457   -0.6984    0.9515 C   0  0  0  0  0  0  0  0  0  0  0  0
    3.0552   -0.5531    0.4286 C   0  0  0  0  0  0  0  0  0  0  0  0
    3.7222    0.6775    0.5117 C   0  0  0  0  0  0  0  0  0  0  0  0
    5.0202    0.8192    0.0106 C   0  0  0  0  0  0  0  0  0  0  0  0
    5.6684   -0.2692   -0.5869 C   0  0  0  0  0  0  0  0  0  0  0  0
    7.0470   -0.1741   -1.1410 C   0  0  0  0  0  0  0  0  0  0  0  0
    7.6316   -1.1120   -1.6617 O   0  0  0  0  0  0  0  0  0  0  0  0
    7.5408    1.0803   -0.9866 O   0  0  0  0  0  0  0  0  0  0  0  0
    8.8619    1.2489   -1.5021 C   0  0  0  0  0  0  0  0  0  0  0  0
    5.0029   -1.4987   -0.6767 C   0  0  0  0  0  0  0  0  0  0  0  0
    3.7060   -1.6389   -0.1751 C   0  0  0  0  0  0  0  0  0  0  0  0
   -1.1392   -0.9184    1.7905 N   0  0  0  0  0  0  0  0  0  0  0  0
   -2.4737   -1.0234    2.0936 N   0  0  0  0  0  0  0  0  0  0  0  0
   -3.1658   -0.7940    0.9949 C   0  0  0  0  0  0  0  0  0  0  0  0
   -4.5934   -0.8000    0.9487 C   0  0  0  0  0  0  0  0  0  0  0  0
   -5.4806   -1.8983   -0.0208 S   0  0  0  0  0  0  0  0  0  0  0  0
   -6.9458   -1.2319    0.5648 C   0  0  0  0  0  0  0  0  0  0  0  0
   -8.1396   -1.6773    0.1411 N   0  0  0  0  0  0  0  0  0  0  0  0
   -6.8153   -0.2577    1.4272 N   0  0  0  0  0  0  0  0  0  0  0  0
   -5.4715   -0.0208    1.6854 C   0  0  0  0  0  0  0  0  0  0  0  0
   -5.1221    1.0294    2.6791 C   0  0  0  0  0  0  0  0  0  0  0  0
   -2.4785    2.2041    0.3567 H   0  0  0  0  0  0  0  0  0  0  0  0
   -3.0554    3.3892   -0.9372 H   0  0  0  0  0  0  0  0  0  0  0  0
   -3.2573    1.6489   -2.5638 H   0  0  0  0  0  0  0  0  0  0  0  0
   -1.8203   -0.3875   -2.0493 H   0  0  0  0  0  0  0  0  0  0  0  0
   -3.5034   -0.6675   -1.6988 H   0  0  0  0  0  0  0  0  0  0  0  0
    1.4982   -1.7184    1.3263 H   0  0  0  0  0  0  0  0  0  0  0  0
    1.4962   -0.0188    1.7986 H   0  0  0  0  0  0  0  0  0  0  0  0
    3.2327    1.5368    0.9665 H   0  0  0  0  0  0  0  0  0  0  0  0
    5.5106    1.7860    0.0917 H   0  0  0  0  0  0  0  0  0  0  0  0
    8.8856    1.0455   -2.5785 H   0  0  0  0  0  0  0  0  0  0  0  0
    9.1534    2.2912   -1.3434 H   0  0  0  0  0  0  0  0  0  0  0  0
    9.5672    0.6035   -0.9676 H   0  0  0  0  0  0  0  0  0  0  0  0
    5.4905   -2.3531   -1.1430 H   0  0  0  0  0  0  0  0  0  0  0  0
    3.2053   -2.6016   -0.2617 H   0  0  0  0  0  0  0  0  0  0  0  0
   -8.9174   -1.0546    0.3271 H   0  0  0  0  0  0  0  0  0  0  0  0
   -8.1807   -2.1266   -0.7644 H   0  0  0  0  0  0  0  0  0  0  0  0
   -4.4035    0.6529    3.4158 H   0  0  0  0  0  0  0  0  0  0  0  0
   -4.6862    1.8979    2.1750 H   0  0  0  0  0  0  0  0  0  0  0  0
   -6.0130    1.3624    3.2214 H   0  0  0  0  0  0  0  0  0  0  0  0
  1  2  2  0
  2  3  1  0
  3  4  1  0
  4  5  1  0
  5  6  1  0
  6  7  1  0
  7  8  1  0
  8  9  2  0
  9 10  1  0
 10 11  2  0
 11 12  1  0
 12 13  2  0
 12 14  1  0
 14 15  1  0
 11 16  1  0
 16 17  2  0
  5 18  2  0
 18 19  1  0
 19 20  2  0
 20 21  1  0
 21 22  1  0
 22 23  1  0
 23 24  1  0
 23 25  2  0
 25 26  1  0
 26 27  1  0
 20  4  1  0
 26 21  2  0
 17  8  1  0
  1 28  1  0
  1 29  1  0
  2 30  1  0
  3 31  1  0
  3 32  1  0
  7 33  1  0
  7 34  1  0
  9 35  1  0
 10 36  1  0
 15 37  1  0
 15 38  1  0
 15 39  1  0
 16 40  1  0
 17 41  1  0
 24 42  1  0
 24 43  1  0
 27 44  1  0
 27 45  1  0
 27 46  1  0
M  END
$$$$
