
     RDKit          3D

 79 84  0  0  0  0  0  0  0  0999 V2000
   -5.8678    2.3506   -1.9962 C   0  0  0  0  0  0  0  0  0  0  0  0
   -4.8935    3.0906   -2.5518 C   0  0  0  0  0  0  0  0  0  0  0  0
   -4.6588    4.5173   -2.1304 C   0  0  0  0  0  0  0  0  0  0  0  0
   -4.0167    2.5505   -3.6684 C   0  0  0  0  0  0  0  0  0  0  0  0
   -2.5485    2.2796   -3.2928 C   0  0  1  0  0  0  0  0  0  0  0  0
   -1.8521    3.5182   -3.1041 O   0  0  0  0  0  0  0  0  0  0  0  0
   -2.4099    1.3790   -2.0583 C   0  0  0  0  0  0  0  0  0  0  0  0
   -1.0130    1.1439   -1.7714 O   0  0  0  0  0  0  0  0  0  0  0  0
   -0.6545   -0.1605   -2.0082 C   0  0  0  0  0  0  0  0  0  0  0  0
   -0.4595   -0.5464   -3.3444 C   0  0  0  0  0  0  0  0  0  0  0  0
   -0.1427   -1.8584   -3.5994 C   0  0  0  0  0  0  0  0  0  0  0  0
   -0.0201   -2.7718   -2.5856 C   0  0  0  0  0  0  0  0  0  0  0  0
   -0.1814   -2.4168   -1.2617 C   0  0  0  0  0  0  0  0  0  0  0  0
   -0.4539   -1.0638   -0.9325 C   0  0  0  0  0  0  0  0  0  0  0  0
   -0.5777   -0.6621    0.5633 C   0  0  0  0  0  0  0  0  0  0  0  0
    0.3179   -1.4961    1.5434 C   0  0  0  0  0  0  0  0  0  0  0  0
   -0.2209   -2.0560    2.7240 C   0  0  0  0  0  0  0  0  0  0  0  0
    0.6148   -2.7374    3.5836 C   0  0  0  0  0  0  0  0  0  0  0  0
    1.9499   -2.8868    3.3253 C   0  0  0  0  0  0  0  0  0  0  0  0
    2.5353   -2.3551    2.1990 C   0  0  0  0  0  0  0  0  0  0  0  0
    1.7245   -1.6363    1.3072 C   0  0  0  0  0  0  0  0  0  0  0  0
    2.1988   -1.0526    0.1632 O   0  0  0  0  0  0  0  0  0  0  0  0
    3.6052   -0.8228    0.0040 C   0  0  0  0  0  0  0  0  0  0  0  0
    4.0636    0.3879    0.8375 C   0  0  2  0  0  0  0  0  0  0  0  0
    3.5107    1.5769    0.2574 O   0  0  0  0  0  0  0  0  0  0  0  0
    5.5976    0.4944    0.8399 C   0  0  0  0  0  0  0  0  0  0  0  0
    6.1329    1.4559    1.8857 C   0  0  0  0  0  0  0  0  0  0  0  0
    6.6260    2.6587    1.5444 C   0  0  0  0  0  0  0  0  0  0  0  0
    6.1012    0.9951    3.3154 C   0  0  0  0  0  0  0  0  0  0  0  0
    2.5937   -3.5888    4.2969 O   0  0  0  0  0  0  0  0  0  0  0  0
    1.5148   -3.8175    5.2251 C   0  0  0  0  0  0  0  0  0  0  0  0
    0.2449   -3.3091    4.7583 O   0  0  0  0  0  0  0  0  0  0  0  0
   -0.2239    0.8599    0.8627 C   0  0  0  0  0  0  0  0  0  0  0  0
    0.8498    1.4338    0.7451 O   0  0  0  0  0  0  0  0  0  0  0  0
   -1.3669    1.4756    1.3672 N   0  0  0  0  0  0  0  0  0  0  0  0
   -2.4492    0.6130    1.3871 C   0  0  0  0  0  0  0  0  0  0  0  0
   -3.7422    0.9180    1.7562 C   0  0  0  0  0  0  0  0  0  0  0  0
   -4.6843   -0.1010    1.6520 C   0  0  0  0  0  0  0  0  0  0  0  0
   -5.9579    0.1490    1.9794 F   0  0  0  0  0  0  0  0  0  0  0  0
   -4.3377   -1.3791    1.1932 C   0  0  0  0  0  0  0  0  0  0  0  0
   -3.0203   -1.6659    0.8243 C   0  0  0  0  0  0  0  0  0  0  0  0
   -2.0744   -0.6516    0.9290 C   0  0  0  0  0  0  0  0  0  0  0  0
    0.2833   -4.0161   -3.0420 O   0  0  0  0  0  0  0  0  0  0  0  0
    0.3758   -3.7687   -4.4606 C   0  0  0  0  0  0  0  0  0  0  0  0
    0.0710   -2.4036   -4.8252 O   0  0  0  0  0  0  0  0  0  0  0  0
   -6.5134    2.7532   -1.2189 H   0  0  0  0  0  0  0  0  0  0  0  0
   -6.0635    1.3306   -2.3126 H   0  0  0  0  0  0  0  0  0  0  0  0
   -4.7152    5.1848   -2.9988 H   0  0  0  0  0  0  0  0  0  0  0  0
   -3.6753    4.6250   -1.6623 H   0  0  0  0  0  0  0  0  0  0  0  0
   -5.4040    4.8652   -1.4091 H   0  0  0  0  0  0  0  0  0  0  0  0
   -4.0503    3.2636   -4.5041 H   0  0  0  0  0  0  0  0  0  0  0  0
   -4.4477    1.6146   -4.0496 H   0  0  0  0  0  0  0  0  0  0  0  0
   -2.0662    1.8040   -4.1536 H   0  0  0  0  0  0  0  0  0  0  0  0
   -1.1287    3.3541   -2.4658 H   0  0  0  0  0  0  0  0  0  0  0  0
   -2.9809    0.4471   -2.1778 H   0  0  0  0  0  0  0  0  0  0  0  0
   -2.7997    1.9031   -1.1796 H   0  0  0  0  0  0  0  0  0  0  0  0
   -0.5466    0.1596   -4.1590 H   0  0  0  0  0  0  0  0  0  0  0  0
   -0.0605   -3.1796   -0.4990 H   0  0  0  0  0  0  0  0  0  0  0  0
   -1.2624   -1.9502    3.0011 H   0  0  0  0  0  0  0  0  0  0  0  0
    3.5942   -2.5131    2.0490 H   0  0  0  0  0  0  0  0  0  0  0  0
    4.1779   -1.7352    0.2066 H   0  0  0  0  0  0  0  0  0  0  0  0
    3.7484   -0.6025   -1.0611 H   0  0  0  0  0  0  0  0  0  0  0  0
    3.6749    0.3215    1.8596 H   0  0  0  0  0  0  0  0  0  0  0  0
    2.5448    1.5463    0.4521 H   0  0  0  0  0  0  0  0  0  0  0  0
    5.9339    0.8118   -0.1578 H   0  0  0  0  0  0  0  0  0  0  0  0
    6.0533   -0.4903    1.0217 H   0  0  0  0  0  0  0  0  0  0  0  0
    6.6352    2.9948    0.5106 H   0  0  0  0  0  0  0  0  0  0  0  0
    7.0087    3.3521    2.2845 H   0  0  0  0  0  0  0  0  0  0  0  0
    6.7108    0.0967    3.4403 H   0  0  0  0  0  0  0  0  0  0  0  0
    6.4916    1.7599    3.9987 H   0  0  0  0  0  0  0  0  0  0  0  0
    5.0764    0.7689    3.6325 H   0  0  0  0  0  0  0  0  0  0  0  0
    1.7620   -3.3302    6.1749 H   0  0  0  0  0  0  0  0  0  0  0  0
    1.4240   -4.8935    5.3999 H   0  0  0  0  0  0  0  0  0  0  0  0
   -1.3797    2.4509    1.6276 H   0  0  0  0  0  0  0  0  0  0  0  0
   -4.0321    1.9024    2.0978 H   0  0  0  0  0  0  0  0  0  0  0  0
   -5.1098   -2.1399    1.1174 H   0  0  0  0  0  0  0  0  0  0  0  0
   -2.7530   -2.6543    0.4621 H   0  0  0  0  0  0  0  0  0  0  0  0
   -0.3259   -4.4385   -4.9743 H   0  0  0  0  0  0  0  0  0  0  0  0
    1.3948   -4.0062   -4.7896 H   0  0  0  0  0  0  0  0  0  0  0  0
  1  2  2  0
  2  3  1  0
  2  4  1  0
  4  5  1  0
  5  6  1  0
  5  7  1  0
  7  8  1  0
  8  9  1  0
  9 10  2  0
 10 11  1  0
 11 12  2  0
 12 13  1  0
 13 14  2  0
 14 15  1  0
 15 16  1  0
 16 17  2  0
 17 18  1  0
 18 19  2  0
 19 20  1  0
 20 21  2  0
 21 22  1  0
 22 23  1  0
 23 24  1  0
 24 25  1  0
 24 26  1  0
 26 27  1  0
 27 28  2  0
 27 29  1  0
 19 30  1  0
 30 31  1  0
 31 32  1  0
 15 33  1  0
 33 34  2  0
 33 35  1  0
 35 36  1  0
 36 37  2  0
 37 38  1  0
 38 39  1  0
 38 40  2  0
 40 41  1  0
 41 42  2  0
 12 43  1  0
 43 44  1  0
 44 45  1  0
 14  9  1  0
 42 15  1  0
 45 11  1  0
 21 16  1  0
 42 36  1  0
 32 18  1  0
  1 46  1  0
  1 47  1  0
  3 48  1  0
  3 49  1  0
  3 50  1  0
  4 51  1  0
  4 52  1  0
  5 53  1  6
  6 54  1  0
  7 55  1  0
  7 56  1  0
 10 57  1  0
 13 58  1  0
 17 59  1  0
 20 60  1  0
 23 61  1  0
 23 62  1  0
 24 63  1  1
 25 64  1  0
 26 65  1  0
 26 66  1  0
 28 67  1  0
 28 68  1  0
 29 69  1  0
 29 70  1  0
 29 71  1  0
 31 72  1  0
 31 73  1  0
 35 74  1  0
 37 75  1  0
 40 76  1  0
 41 77  1  0
 44 78  1  0
 44 79  1  0
M  END
$$$$
