
     RDKit          3D

 37 39  0  0  0  0  0  0  0  0999 V2000
    6.0185    0.7863   -0.7260 C   0  0  0  0  0  0  0  0  0  0  0  0
    4.6274    0.9685   -0.9666 O   0  0  0  0  0  0  0  0  0  0  0  0
    3.7607    0.3749   -0.0889 C   0  0  0  0  0  0  0  0  0  0  0  0
    4.1216   -0.4266    1.0025 C   0  0  0  0  0  0  0  0  0  0  0  0
    3.1403   -0.9869    1.8253 C   0  0  0  0  0  0  0  0  0  0  0  0
    1.8076   -0.7325    1.5401 C   0  0  0  0  0  0  0  0  0  0  0  0
    1.4214    0.0779    0.4545 C   0  0  0  0  0  0  0  0  0  0  0  0
    2.4076    0.6238   -0.3622 C   0  0  0  0  0  0  0  0  0  0  0  0
    0.0067    0.2275    0.2974 N   0  0  0  0  0  0  0  0  0  0  0  0
   -0.3722    1.5885   -0.0967 C   0  0  0  0  0  0  0  0  0  0  0  0
   -0.6608   -0.5073    1.2905 C   0  0  0  0  0  0  0  0  0  0  0  0
   -1.9757   -0.7711    1.4003 C   0  0  0  0  0  0  0  0  0  0  0  0
   -3.0084   -0.3830    0.4411 C   0  0  0  0  0  0  0  0  0  0  0  0
   -4.0152    0.4986    0.8563 C   0  0  0  0  0  0  0  0  0  0  0  0
   -4.9994    0.9035   -0.0356 C   0  0  0  0  0  0  0  0  0  0  0  0
   -4.9716    0.4217   -1.3339 C   0  0  0  0  0  0  0  0  0  0  0  0
   -3.9711   -0.4646   -1.7111 C   0  0  0  0  0  0  0  0  0  0  0  0
   -3.0204   -0.8675   -0.8333 N   0  0  0  0  0  4  0  0  0  0  0  0
   -2.0172   -1.8492   -1.3023 C   0  0  0  0  0  0  0  0  0  0  0  0
    0.4050   -1.3234    2.4653 S   0  0  0  0  0  0  0  0  0  0  0  0
    6.2963   -0.2698   -0.8050 H   0  0  0  0  0  0  0  0  0  0  0  0
    6.3087    1.2013    0.2449 H   0  0  0  0  0  0  0  0  0  0  0  0
    6.5656    1.3337   -1.4996 H   0  0  0  0  0  0  0  0  0  0  0  0
    5.1612   -0.6346    1.2379 H   0  0  0  0  0  0  0  0  0  0  0  0
    3.4228   -1.6053    2.6723 H   0  0  0  0  0  0  0  0  0  0  0  0
    2.1591    1.2331   -1.2247 H   0  0  0  0  0  0  0  0  0  0  0  0
   -1.4571    1.7102   -0.1423 H   0  0  0  0  0  0  0  0  0  0  0  0
    0.0092    2.3290    0.6165 H   0  0  0  0  0  0  0  0  0  0  0  0
   -0.0011    1.8288   -1.0987 H   0  0  0  0  0  0  0  0  0  0  0  0
   -2.3475   -1.3600    2.2378 H   0  0  0  0  0  0  0  0  0  0  0  0
   -4.0272    0.8834    1.8754 H   0  0  0  0  0  0  0  0  0  0  0  0
   -5.7799    1.5942    0.2811 H   0  0  0  0  0  0  0  0  0  0  0  0
   -5.7309    0.7304   -2.0500 H   0  0  0  0  0  0  0  0  0  0  0  0
   -3.9267   -0.8639   -2.7212 H   0  0  0  0  0  0  0  0  0  0  0  0
   -1.1395   -1.2978   -1.6442 H   0  0  0  0  0  0  0  0  0  0  0  0
   -1.7780   -2.5499   -0.4998 H   0  0  0  0  0  0  0  0  0  0  0  0
   -2.4397   -2.4216   -2.1334 H   0  0  0  0  0  0  0  0  0  0  0  0
  1  2  1  0
  2  3  1  0
  3  4  2  0
  4  5  1  0
  5  6  2  0
  6  7  1  0
  7  8  2  0
  7  9  1  0
  9 10  1  0
  9 11  1  0
 11 12  2  3
 12 13  1  0
 13 14  2  0
 14 15  1  0
 15 16  2  0
 16 17  1  0
 17 18  2  0
 18 19  1  0
 11 20  1  0
  8  3  1  0
 18 13  1  0
 20  6  1  0
  1 21  1  0
  1 22  1  0
  1 23  1  0
  4 24  1  0
  5 25  1  0
  8 26  1  0
 10 27  1  0
 10 28  1  0
 10 29  1  0
 12 30  1  0
 14 31  1  0
 15 32  1  0
 16 33  1  0
 17 34  1  0
 19 35  1  0
 19 36  1  0
 19 37  1  0
M  CHG  1  18   1
M  END
$$$$
