
     RDKit          3D

 39 40  0  0  0  0  0  0  0  0999 V2000
    6.1656    0.1963    1.5965 C   0  0  0  0  0  0  0  0  0  0  0  0
    4.7578   -0.2875    1.4084 C   0  0  0  0  0  0  0  0  0  0  0  0
    3.8347   -0.2183    2.4582 C   0  0  0  0  0  0  0  0  0  0  0  0
    2.5320   -0.6977    2.2907 C   0  0  0  0  0  0  0  0  0  0  0  0
    2.1415   -1.2631    1.0705 C   0  0  0  0  0  0  0  0  0  0  0  0
    0.7697   -1.7903    0.8393 C   0  0  0  0  0  0  0  0  0  0  0  0
    0.3960   -2.2718   -0.2205 O   0  0  0  0  0  0  0  0  0  0  0  0
    0.0044   -1.6547    1.9495 O   0  0  0  0  0  0  0  0  0  0  0  0
   -1.3342   -2.1363    1.8278 C   0  0  0  0  0  0  0  0  0  0  0  0
   -2.2491   -1.1836    1.0560 C   0  0  0  0  0  0  0  0  0  0  0  0
   -2.9744   -0.3684    1.6177 O   0  0  0  0  0  0  0  0  0  0  0  0
   -2.1872   -1.3261   -0.3135 N   0  0  0  0  0  0  0  0  0  0  0  0
   -2.8995   -0.4339   -1.2083 C   0  0  0  0  0  0  0  0  0  0  0  0
   -2.1624    0.8925   -1.4271 C   0  0  0  0  0  0  0  0  0  0  0  0
   -2.8295    1.7335   -2.4052 N   0  0  0  0  0  0  0  0  0  0  0  0
   -3.7740    2.6753   -2.0808 C   0  0  0  0  0  0  0  0  0  0  0  0
   -4.0701    2.8865   -0.7691 O   0  0  0  0  0  0  0  0  0  0  0  0
   -4.3193    3.3009   -3.1302 C   0  0  0  0  0  0  0  0  0  0  0  0
   -3.6626    2.7081   -4.6269 S   0  0  0  0  0  0  0  0  0  0  0  0
   -2.6248    1.5553   -3.7638 C   0  0  0  0  0  0  0  0  0  0  0  0
   -1.8910    0.7548   -4.3197 O   0  0  0  0  0  0  0  0  0  0  0  0
    3.0675   -1.3433    0.0227 C   0  0  0  0  0  0  0  0  0  0  0  0
    4.3677   -0.8624    0.1934 C   0  0  0  0  0  0  0  0  0  0  0  0
    6.2254    0.9311    2.4064 H   0  0  0  0  0  0  0  0  0  0  0  0
    6.5314    0.6846    0.6869 H   0  0  0  0  0  0  0  0  0  0  0  0
    6.8201   -0.6457    1.8401 H   0  0  0  0  0  0  0  0  0  0  0  0
    4.1225    0.2114    3.4157 H   0  0  0  0  0  0  0  0  0  0  0  0
    1.8364   -0.6218    3.1226 H   0  0  0  0  0  0  0  0  0  0  0  0
   -1.3560   -3.1365    1.3768 H   0  0  0  0  0  0  0  0  0  0  0  0
   -1.7398   -2.2453    2.8399 H   0  0  0  0  0  0  0  0  0  0  0  0
   -1.3927   -1.8469   -0.6904 H   0  0  0  0  0  0  0  0  0  0  0  0
   -3.8998   -0.2474   -0.8007 H   0  0  0  0  0  0  0  0  0  0  0  0
   -3.0230   -0.9678   -2.1571 H   0  0  0  0  0  0  0  0  0  0  0  0
   -1.1497    0.6811   -1.7937 H   0  0  0  0  0  0  0  0  0  0  0  0
   -2.0420    1.4385   -0.4839 H   0  0  0  0  0  0  0  0  0  0  0  0
   -4.7753    3.5513   -0.7092 H   0  0  0  0  0  0  0  0  0  0  0  0
   -5.0750    4.0718   -3.0938 H   0  0  0  0  0  0  0  0  0  0  0  0
    2.7832   -1.7839   -0.9315 H   0  0  0  0  0  0  0  0  0  0  0  0
    5.0753   -0.9404   -0.6297 H   0  0  0  0  0  0  0  0  0  0  0  0
  1  2  1  0
  2  3  2  0
  3  4  1  0
  4  5  2  0
  5  6  1  0
  6  7  2  0
  6  8  1  0
  8  9  1  0
  9 10  1  0
 10 11  2  0
 10 12  1  0
 12 13  1  0
 13 14  1  0
 14 15  1  0
 15 16  1  0
 16 17  1  0
 16 18  2  0
 18 19  1  0
 19 20  1  0
 20 21  2  0
  5 22  1  0
 22 23  2  0
 23  2  1  0
 20 15  1  0
  1 24  1  0
  1 25  1  0
  1 26  1  0
  3 27  1  0
  4 28  1  0
  9 29  1  0
  9 30  1  0
 12 31  1  0
 13 32  1  0
 13 33  1  0
 14 34  1  0
 14 35  1  0
 17 36  1  0
 18 37  1  0
 22 38  1  0
 23 39  1  0
M  END
$$$$
