
     RDKit          3D

 51 54  0  0  0  0  0  0  0  0999 V2000
   -6.7818   -1.4076    1.1246 C   0  0  0  0  0  0  0  0  0  0  0  0
   -6.5967    0.1041    1.1482 C   0  0  0  0  0  0  0  0  0  0  0  0
   -5.7451    0.5628    0.0404 N   0  0  0  0  0  0  0  0  0  0  0  0
   -6.4212    0.8327   -1.2428 C   0  0  0  0  0  0  0  0  0  0  0  0
   -6.1392   -0.2555   -2.2759 C   0  0  0  0  0  0  0  0  0  0  0  0
   -4.3644    0.6822    0.1770 C   0  0  0  0  0  0  0  0  0  0  0  0
   -3.6670    0.1373    1.2746 C   0  0  0  0  0  0  0  0  0  0  0  0
   -2.2715    0.2348    1.4153 C   0  0  0  0  0  0  0  0  0  0  0  0
   -1.5206    0.8997    0.4532 C   0  0  0  0  0  0  0  0  0  0  0  0
   -0.0773    1.0292    0.5380 C   0  0  0  0  0  0  0  0  0  0  0  0
    0.5987    1.7207   -0.3946 C   0  0  0  0  0  0  0  0  0  0  0  0
    2.0178    1.8056   -0.2747 C   0  0  0  0  0  0  0  0  0  0  0  0
    2.8296    0.7875   -0.0448 N   0  0  0  0  0  0  0  0  0  0  0  0
    4.1522    1.2045    0.0262 C   0  0  0  0  0  0  0  0  0  0  0  0
    5.2361    0.2357    0.1762 C   0  0  0  0  0  0  0  0  0  0  0  0
    6.4968    0.5914    0.6702 C   0  0  0  0  0  0  0  0  0  0  0  0
    7.5204   -0.3621    0.7579 C   0  0  0  0  0  0  0  0  0  0  0  0
    7.3075   -1.6823    0.3554 C   0  0  0  0  0  0  0  0  0  0  0  0
    8.3938   -2.5046    0.4789 O   0  0  0  0  0  0  0  0  0  0  0  0
    8.2709   -3.8100   -0.0746 C   0  0  0  0  0  0  0  0  0  0  0  0
    6.0501   -2.0508   -0.1165 C   0  0  0  0  0  0  0  0  0  0  0  0
    5.0229   -1.0984   -0.1992 C   0  0  0  0  0  0  0  0  0  0  0  0
    4.3292    2.5686   -0.0958 C   0  0  0  0  0  0  0  0  0  0  0  0
    2.8183    3.3465   -0.2996 S   0  0  0  0  0  0  0  0  0  0  0  0
   -0.0966    2.3254   -1.5612 C   0  0  0  0  0  0  0  0  0  0  0  0
    0.4892    2.9379   -2.4460 O   0  0  0  0  0  0  0  0  0  0  0  0
   -1.4787    2.1524   -1.6224 O   0  0  0  0  0  0  0  0  0  0  0  0
   -2.1864    1.4564   -0.6250 C   0  0  0  0  0  0  0  0  0  0  0  0
   -3.5737    1.3551   -0.7708 C   0  0  0  0  0  0  0  0  0  0  0  0
   -7.3189   -1.7273    0.2262 H   0  0  0  0  0  0  0  0  0  0  0  0
   -5.8234   -1.9372    1.1428 H   0  0  0  0  0  0  0  0  0  0  0  0
   -7.3657   -1.7316    1.9947 H   0  0  0  0  0  0  0  0  0  0  0  0
   -7.5832    0.5802    1.0759 H   0  0  0  0  0  0  0  0  0  0  0  0
   -6.2037    0.4310    2.1198 H   0  0  0  0  0  0  0  0  0  0  0  0
   -7.5082    0.8804   -1.0931 H   0  0  0  0  0  0  0  0  0  0  0  0
   -6.1491    1.8217   -1.6331 H   0  0  0  0  0  0  0  0  0  0  0  0
   -6.6557   -0.0278   -3.2166 H   0  0  0  0  0  0  0  0  0  0  0  0
   -5.0711   -0.3486   -2.4948 H   0  0  0  0  0  0  0  0  0  0  0  0
   -6.4892   -1.2353   -1.9275 H   0  0  0  0  0  0  0  0  0  0  0  0
   -4.1943   -0.4028    2.0557 H   0  0  0  0  0  0  0  0  0  0  0  0
   -1.7969   -0.2144    2.2841 H   0  0  0  0  0  0  0  0  0  0  0  0
    0.4333    0.5527    1.3719 H   0  0  0  0  0  0  0  0  0  0  0  0
    6.7084    1.6053    0.9979 H   0  0  0  0  0  0  0  0  0  0  0  0
    8.4963   -0.0684    1.1364 H   0  0  0  0  0  0  0  0  0  0  0  0
    7.5443   -4.4058    0.4888 H   0  0  0  0  0  0  0  0  0  0  0  0
    9.2442   -4.3033    0.0122 H   0  0  0  0  0  0  0  0  0  0  0  0
    8.0115   -3.7697   -1.1406 H   0  0  0  0  0  0  0  0  0  0  0  0
    5.8311   -3.0635   -0.4322 H   0  0  0  0  0  0  0  0  0  0  0  0
    4.0501   -1.4069   -0.5775 H   0  0  0  0  0  0  0  0  0  0  0  0
    5.2419    3.1440   -0.0869 H   0  0  0  0  0  0  0  0  0  0  0  0
   -4.0151    1.8282   -1.6414 H   0  0  0  0  0  0  0  0  0  0  0  0
  1  2  1  0
  2  3  1  0
  3  4  1  0
  4  5  1  0
  3  6  1  0
  6  7  2  0
  7  8  1  0
  8  9  2  0
  9 10  1  0
 10 11  2  0
 11 12  1  0
 12 13  2  0
 13 14  1  0
 14 15  1  0
 15 16  2  0
 16 17  1  0
 17 18  2  0
 18 19  1  0
 19 20  1  0
 18 21  1  0
 21 22  2  0
 14 23  2  0
 23 24  1  0
 11 25  1  0
 25 26  2  0
 25 27  1  0
 27 28  1  0
 28 29  2  0
 29  6  1  0
 28  9  1  0
 24 12  1  0
 22 15  1  0
  1 30  1  0
  1 31  1  0
  1 32  1  0
  2 33  1  0
  2 34  1  0
  4 35  1  0
  4 36  1  0
  5 37  1  0
  5 38  1  0
  5 39  1  0
  7 40  1  0
  8 41  1  0
 10 42  1  0
 16 43  1  0
 17 44  1  0
 20 45  1  0
 20 46  1  0
 20 47  1  0
 21 48  1  0
 22 49  1  0
 23 50  1  0
 29 51  1  0
M  END
$$$$
