
     RDKit          3D

 60 63  0  0  0  0  0  0  0  0999 V2000
   -4.6430   -2.5715   -0.4534 C   0  0  0  0  0  0  0  0  0  0  0  0
   -4.6513   -1.4682   -1.4657 C   0  0  0  0  0  0  0  0  0  0  0  0
   -5.7071   -0.5801   -1.5433 C   0  0  0  0  0  0  0  0  0  0  0  0
   -5.6228    0.3923   -2.5251 C   0  0  0  0  0  0  0  0  0  0  0  0
   -6.7099    1.4071   -2.6789 C   0  0  0  0  0  0  0  0  0  0  0  0
   -4.5736    0.4819   -3.3686 N   0  0  0  0  0  0  0  0  0  0  0  0
   -3.6138   -0.4456   -3.2403 C   0  0  0  0  0  0  0  0  0  0  0  0
   -2.2217   -0.3407   -4.3290 S   0  0  0  0  0  0  0  0  0  0  0  0
   -1.2880    0.9328   -3.4381 C   0  0  0  0  0  0  0  0  0  0  0  0
   -0.8075    0.4504   -2.1114 C   0  0  0  0  0  0  0  0  0  0  0  0
    0.1741   -0.4173   -1.9166 N   0  0  0  0  0  0  0  0  0  0  0  0
    0.2713   -0.6718   -0.5778 N   0  0  0  0  0  0  0  0  0  0  0  0
   -0.6208    0.0749    0.0316 C   0  0  0  0  0  0  0  0  0  0  0  0
   -0.9274    0.0872    1.7302 S   0  0  0  0  0  0  0  0  0  0  0  0
   -0.2201   -1.5101    2.2264 C   0  0  0  0  0  0  0  0  0  0  0  0
    1.2582   -1.3821    2.5541 C   0  0  0  0  0  0  0  0  0  0  0  0
    1.6183   -1.2476    3.7192 O   0  0  0  0  0  0  0  0  0  0  0  0
    2.0769   -1.4705    1.4391 N   0  0  0  0  0  0  0  0  0  0  0  0
    3.4844   -1.4689    1.3978 C   0  0  0  0  0  0  0  0  0  0  0  0
    4.0765   -1.4361    0.1368 C   0  0  0  0  0  0  0  0  0  0  0  0
    5.4653   -1.4647    0.0036 C   0  0  0  0  0  0  0  0  0  0  0  0
    6.2921   -1.5206    1.1339 C   0  0  0  0  0  0  0  0  0  0  0  0
    7.7846   -1.5648    0.9495 C   0  0  0  0  0  0  0  0  0  0  0  0
    5.7036   -1.5274    2.4120 C   0  0  0  0  0  0  0  0  0  0  0  0
    6.5263   -1.6110    3.6697 C   0  0  0  0  0  0  0  0  0  0  0  0
    4.3022   -1.5157    2.5278 C   0  0  0  0  0  0  0  0  0  0  0  0
   -1.3003    0.8340   -0.8840 N   0  0  0  0  0  0  0  0  0  0  0  0
   -2.3303    1.8166   -0.6190 C   0  0  0  0  0  0  0  0  0  0  0  0
   -1.7371    3.1693   -0.5121 C   0  0  0  0  0  0  0  0  0  0  0  0
   -1.0933    3.8537    0.5008 C   0  0  0  0  0  0  0  0  0  0  0  0
   -0.7670    5.1282   -0.0215 C   0  0  0  0  0  0  0  0  0  0  0  0
   -1.2271    5.1406   -1.3163 C   0  0  0  0  0  0  0  0  0  0  0  0
   -1.8158    3.9574   -1.6229 O   0  0  0  0  0  0  0  0  0  0  0  0
   -3.6004   -1.4078   -2.3047 N   0  0  0  0  0  0  0  0  0  0  0  0
   -5.3630   -3.3439   -0.7391 H   0  0  0  0  0  0  0  0  0  0  0  0
   -4.8963   -2.1862    0.5363 H   0  0  0  0  0  0  0  0  0  0  0  0
   -3.6486   -3.0336   -0.3872 H   0  0  0  0  0  0  0  0  0  0  0  0
   -6.5538   -0.6424   -0.8675 H   0  0  0  0  0  0  0  0  0  0  0  0
   -7.6479    0.9200   -2.9491 H   0  0  0  0  0  0  0  0  0  0  0  0
   -6.8487    1.9480   -1.7420 H   0  0  0  0  0  0  0  0  0  0  0  0
   -6.4616    2.1372   -3.4593 H   0  0  0  0  0  0  0  0  0  0  0  0
   -1.8812    1.8476   -3.3710 H   0  0  0  0  0  0  0  0  0  0  0  0
   -0.4127    1.1772   -4.0548 H   0  0  0  0  0  0  0  0  0  0  0  0
   -0.7295   -1.8393    3.1343 H   0  0  0  0  0  0  0  0  0  0  0  0
   -0.3904   -2.2891    1.4756 H   0  0  0  0  0  0  0  0  0  0  0  0
    1.6046   -1.4330    0.5334 H   0  0  0  0  0  0  0  0  0  0  0  0
    3.4674   -1.3875   -0.7644 H   0  0  0  0  0  0  0  0  0  0  0  0
    5.9012   -1.4368   -0.9962 H   0  0  0  0  0  0  0  0  0  0  0  0
    8.2396   -0.6707    1.3838 H   0  0  0  0  0  0  0  0  0  0  0  0
    8.0562   -1.5835   -0.1070 H   0  0  0  0  0  0  0  0  0  0  0  0
    8.2067   -2.4581    1.4177 H   0  0  0  0  0  0  0  0  0  0  0  0
    6.7661   -2.6602    3.8896 H   0  0  0  0  0  0  0  0  0  0  0  0
    5.9824   -1.1900    4.5216 H   0  0  0  0  0  0  0  0  0  0  0  0
    7.4587   -1.0401    3.5816 H   0  0  0  0  0  0  0  0  0  0  0  0
    3.8694   -1.5672    3.5227 H   0  0  0  0  0  0  0  0  0  0  0  0
   -3.0669    1.7825   -1.4252 H   0  0  0  0  0  0  0  0  0  0  0  0
   -2.8628    1.5530    0.2972 H   0  0  0  0  0  0  0  0  0  0  0  0
   -0.8813    3.4811    1.4939 H   0  0  0  0  0  0  0  0  0  0  0  0
   -0.2522    5.9346    0.4844 H   0  0  0  0  0  0  0  0  0  0  0  0
   -1.2107    5.8762   -2.1087 H   0  0  0  0  0  0  0  0  0  0  0  0
  1  2  1  0
  2  3  2  0
  3  4  1  0
  4  5  1  0
  4  6  2  0
  6  7  1  0
  7  8  1  0
  8  9  1  0
  9 10  1  0
 10 11  2  0
 11 12  1  0
 12 13  2  0
 13 14  1  0
 14 15  1  0
 15 16  1  0
 16 17  2  0
 16 18  1  0
 18 19  1  0
 19 20  2  0
 20 21  1  0
 21 22  2  0
 22 23  1  0
 22 24  1  0
 24 25  1  0
 24 26  2  0
 13 27  1  0
 27 28  1  0
 28 29  1  0
 29 30  2  0
 30 31  1  0
 31 32  2  0
 32 33  1  0
  7 34  2  0
 34  2  1  0
 27 10  1  0
 33 29  1  0
 26 19  1  0
  1 35  1  0
  1 36  1  0
  1 37  1  0
  3 38  1  0
  5 39  1  0
  5 40  1  0
  5 41  1  0
  9 42  1  0
  9 43  1  0
 15 44  1  0
 15 45  1  0
 18 46  1  0
 20 47  1  0
 21 48  1  0
 23 49  1  0
 23 50  1  0
 23 51  1  0
 25 52  1  0
 25 53  1  0
 25 54  1  0
 26 55  1  0
 28 56  1  0
 28 57  1  0
 30 58  1  0
 31 59  1  0
 32 60  1  0
M  END
$$$$
