
     RDKit          3D

 51 55  0  0  0  0  0  0  0  0999 V2000
    5.9360    1.3759   -2.6543 C   0  0  0  0  0  0  0  0  0  0  0  0
    4.6478    1.9040   -2.5880 C   0  0  0  0  0  0  0  0  0  0  0  0
    3.8566    1.6773   -1.4610 C   0  0  0  0  0  0  0  0  0  0  0  0
    4.3502    0.9227   -0.3878 C   0  0  0  0  0  0  0  0  0  0  0  0
    3.4860    0.6586    0.8228 C   0  0  0  0  0  0  0  0  0  0  0  0
    2.6085   -0.5899    0.6264 C   0  0  0  0  0  0  0  0  0  0  0  0
    1.7989   -0.9193    1.8143 N   0  0  0  0  0  0  0  0  0  0  0  0
    1.1350   -2.2339    1.6699 C   0  0  0  0  0  0  0  0  0  0  0  0
   -0.2611   -2.2108    1.0080 C   0  0  0  0  0  0  0  0  0  0  0  0
   -1.1869   -1.2443    1.6436 N   0  0  0  0  0  0  0  0  0  0  0  0
   -2.1746   -0.6779    0.8337 C   0  0  0  0  0  0  0  0  0  0  0  0
   -2.2410    0.6269    0.7349 N   0  0  0  0  0  0  0  0  0  0  0  0
   -3.1913    1.2393   -0.1043 C   0  0  0  0  0  0  0  0  0  0  0  0
   -3.2092    2.6335   -0.1782 C   0  0  0  0  0  0  0  0  0  0  0  0
   -4.1229    3.2927   -1.0047 C   0  0  0  0  0  0  0  0  0  0  0  0
   -5.0313    2.5592   -1.7689 C   0  0  0  0  0  0  0  0  0  0  0  0
   -5.0320    1.1651   -1.7101 C   0  0  0  0  0  0  0  0  0  0  0  0
   -4.1113    0.5199   -0.8788 C   0  0  0  0  0  0  0  0  0  0  0  0
   -4.0506   -0.8768   -0.7492 N   0  0  0  0  0  0  0  0  0  0  0  0
   -4.8225   -1.8440   -1.3484 C   0  0  0  0  0  0  0  0  0  0  0  0
   -4.4318   -3.0708   -0.8579 C   0  0  0  0  0  0  0  0  0  0  0  0
   -3.3807   -2.8392    0.0594 C   0  0  0  0  0  0  0  0  0  0  0  0
   -3.1339   -1.4779    0.0857 C   0  0  0  0  0  0  0  0  0  0  0  0
   -0.5330   -0.3879    2.6558 C   0  0  0  0  0  0  0  0  0  0  0  0
    0.8070    0.1463    2.1134 C   0  0  0  0  0  0  0  0  0  0  0  0
    5.6447    0.3918   -0.4665 C   0  0  0  0  0  0  0  0  0  0  0  0
    6.4341    0.6198   -1.5945 C   0  0  0  0  0  0  0  0  0  0  0  0
    6.5512    1.5534   -3.5322 H   0  0  0  0  0  0  0  0  0  0  0  0
    4.2588    2.4927   -3.4149 H   0  0  0  0  0  0  0  0  0  0  0  0
    2.8520    2.0936   -1.4246 H   0  0  0  0  0  0  0  0  0  0  0  0
    2.8731    1.5472    1.0166 H   0  0  0  0  0  0  0  0  0  0  0  0
    4.1251    0.5340    1.7065 H   0  0  0  0  0  0  0  0  0  0  0  0
    3.2777   -1.4337    0.4114 H   0  0  0  0  0  0  0  0  0  0  0  0
    1.9675   -0.4698   -0.2571 H   0  0  0  0  0  0  0  0  0  0  0  0
    1.7806   -2.9455    1.1401 H   0  0  0  0  0  0  0  0  0  0  0  0
    1.0276   -2.6527    2.6796 H   0  0  0  0  0  0  0  0  0  0  0  0
   -0.1409   -1.9669   -0.0549 H   0  0  0  0  0  0  0  0  0  0  0  0
   -0.6865   -3.2161    1.0765 H   0  0  0  0  0  0  0  0  0  0  0  0
   -2.5025    3.2072    0.4154 H   0  0  0  0  0  0  0  0  0  0  0  0
   -4.1243    4.3787   -1.0502 H   0  0  0  0  0  0  0  0  0  0  0  0
   -5.7419    3.0763   -2.4092 H   0  0  0  0  0  0  0  0  0  0  0  0
   -5.7499    0.6168   -2.3105 H   0  0  0  0  0  0  0  0  0  0  0  0
   -5.5987   -1.5963   -2.0582 H   0  0  0  0  0  0  0  0  0  0  0  0
   -4.8675   -4.0258   -1.1222 H   0  0  0  0  0  0  0  0  0  0  0  0
   -2.8672   -3.5897    0.6438 H   0  0  0  0  0  0  0  0  0  0  0  0
   -1.1785    0.4443    2.9600 H   0  0  0  0  0  0  0  0  0  0  0  0
   -0.3672   -0.9765    3.5668 H   0  0  0  0  0  0  0  0  0  0  0  0
    0.5912    0.7390    1.2147 H   0  0  0  0  0  0  0  0  0  0  0  0
    1.2468    0.8253    2.8524 H   0  0  0  0  0  0  0  0  0  0  0  0
    6.0450   -0.2028    0.3517 H   0  0  0  0  0  0  0  0  0  0  0  0
    7.4380    0.2069   -1.6466 H   0  0  0  0  0  0  0  0  0  0  0  0
  1  2  2  0
  2  3  1  0
  3  4  2  0
  4  5  1  0
  5  6  1  0
  6  7  1  0
  7  8  1  0
  8  9  1  0
  9 10  1  0
 10 11  1  0
 11 12  2  0
 12 13  1  0
 13 14  2  0
 14 15  1  0
 15 16  2  0
 16 17  1  0
 17 18  2  0
 18 19  1  0
 19 20  1  0
 20 21  2  0
 21 22  1  0
 22 23  2  0
 10 24  1  0
 24 25  1  0
  4 26  1  0
 26 27  2  0
 27  1  1  0
 25  7  1  0
 23 11  1  0
 18 13  1  0
 23 19  1  0
  1 28  1  0
  2 29  1  0
  3 30  1  0
  5 31  1  0
  5 32  1  0
  6 33  1  0
  6 34  1  0
  8 35  1  0
  8 36  1  0
  9 37  1  0
  9 38  1  0
 14 39  1  0
 15 40  1  0
 16 41  1  0
 17 42  1  0
 20 43  1  0
 21 44  1  0
 22 45  1  0
 24 46  1  0
 24 47  1  0
 25 48  1  0
 25 49  1  0
 26 50  1  0
 27 51  1  0
M  END
$$$$
