
     RDKit          3D

 36 37  0  0  0  0  0  0  0  0999 V2000
    4.2111    1.0263    1.6498 C   0  0  0  0  0  0  0  0  0  0  0  0
    4.6377    0.3100    0.4360 N   0  0  0  0  0  0  0  0  0  0  0  0
    4.7809   -1.1419    0.6384 C   0  0  0  0  0  0  0  0  0  0  0  0
    3.9680    0.8231   -1.0404 S   0  0  0  0  0  6  0  0  0  0  0  0
    3.9853    2.2706   -1.0707 O   0  0  0  0  0  0  0  0  0  0  0  0
    4.5625    0.0471   -2.1080 O   0  0  0  0  0  0  0  0  0  0  0  0
    2.2617    0.3195   -0.9081 C   0  0  0  0  0  0  0  0  0  0  0  0
    1.3127    1.2158   -0.4061 C   0  0  0  0  0  0  0  0  0  0  0  0
   -0.0286    0.8302   -0.3253 C   0  0  0  0  0  0  0  0  0  0  0  0
   -0.4242   -0.4441   -0.7596 C   0  0  0  0  0  0  0  0  0  0  0  0
   -1.8361   -0.9093   -0.6866 C   0  0  0  0  0  0  0  0  0  0  0  0
   -2.1894   -2.0389   -0.9829 O   0  0  0  0  0  0  0  0  0  0  0  0
   -2.6517    0.0921   -0.2710 O   0  0  0  0  0  0  0  0  0  0  0  0
   -3.9922   -0.3121   -0.0359 C   0  0  0  0  0  0  0  0  0  0  0  0
   -4.9042    0.8923   -0.0164 C   0  0  0  0  0  0  0  0  0  0  0  0
   -6.0714    0.3777    0.7857 C   0  0  0  0  0  0  0  0  0  0  0  0
   -5.5013   -0.4911    1.7665 O   0  0  0  0  0  0  0  0  0  0  0  0
   -4.2491   -0.8692    1.3542 C   0  0  0  0  0  0  0  0  0  0  0  0
   -3.4804   -1.5313    2.0322 O   0  0  0  0  0  0  0  0  0  0  0  0
    0.5349   -1.3260   -1.2813 C   0  0  0  0  0  0  0  0  0  0  0  0
    1.8759   -0.9436   -1.3658 C   0  0  0  0  0  0  0  0  0  0  0  0
    4.2116    2.1083    1.4928 H   0  0  0  0  0  0  0  0  0  0  0  0
    4.9164    0.8242    2.4627 H   0  0  0  0  0  0  0  0  0  0  0  0
    3.2157    0.7038    1.9676 H   0  0  0  0  0  0  0  0  0  0  0  0
    5.4901   -1.3308    1.4510 H   0  0  0  0  0  0  0  0  0  0  0  0
    3.8231   -1.5988    0.9024 H   0  0  0  0  0  0  0  0  0  0  0  0
    5.1848   -1.6293   -0.2530 H   0  0  0  0  0  0  0  0  0  0  0  0
    1.6073    2.2117   -0.0803 H   0  0  0  0  0  0  0  0  0  0  0  0
   -0.7529    1.5346    0.0770 H   0  0  0  0  0  0  0  0  0  0  0  0
   -4.3480   -1.0345   -0.7817 H   0  0  0  0  0  0  0  0  0  0  0  0
   -5.1869    1.2377   -1.0149 H   0  0  0  0  0  0  0  0  0  0  0  0
   -4.4195    1.7323    0.4973 H   0  0  0  0  0  0  0  0  0  0  0  0
   -6.6135    1.1875    1.2823 H   0  0  0  0  0  0  0  0  0  0  0  0
   -6.7747   -0.1989    0.1753 H   0  0  0  0  0  0  0  0  0  0  0  0
    0.2382   -2.3147   -1.6294 H   0  0  0  0  0  0  0  0  0  0  0  0
    2.6063   -1.6304   -1.7892 H   0  0  0  0  0  0  0  0  0  0  0  0
  1  2  1  0
  2  3  1  0
  2  4  1  0
  4  5  2  0
  4  6  2  0
  4  7  1  0
  7  8  2  0
  8  9  1  0
  9 10  2  0
 10 11  1  0
 11 12  2  0
 11 13  1  0
 13 14  1  0
 14 15  1  0
 15 16  1  0
 16 17  1  0
 17 18  1  0
 18 19  2  0
 10 20  1  0
 20 21  2  0
 21  7  1  0
 18 14  1  0
  1 22  1  0
  1 23  1  0
  1 24  1  0
  3 25  1  0
  3 26  1  0
  3 27  1  0
  8 28  1  0
  9 29  1  0
 14 30  1  0
 15 31  1  0
 15 32  1  0
 16 33  1  0
 16 34  1  0
 20 35  1  0
 21 36  1  0
M  END
$$$$
