
     RDKit          3D

 56 61  0  0  0  0  0  0  0  0999 V2000
    0.3570    0.1006   -2.9901 O   0  0  0  0  0  0  0  0  0  0  0  0
    0.4649    1.1715   -2.4111 C   0  0  0  0  0  0  0  0  0  0  0  0
    0.3638    2.4172   -3.0394 N   0  0  0  0  0  0  0  0  0  0  0  0
    0.5202    3.4571   -2.1347 C   0  0  0  0  0  0  0  0  0  0  0  0
    0.4778    4.8074   -2.4108 C   0  0  0  0  0  0  0  0  0  0  0  0
    0.6503    5.6870   -1.3400 C   0  0  0  0  0  0  0  0  0  0  0  0
    0.8593    5.2022   -0.0363 C   0  0  0  0  0  0  0  0  0  0  0  0
    0.9011    3.8284    0.2198 C   0  0  0  0  0  0  0  0  0  0  0  0
    0.7269    2.9575   -0.8455 C   0  0  0  0  0  0  0  0  0  0  0  0
    0.7181    1.4550   -0.9004 C   0  0  0  0  0  0  0  0  0  0  0  0
    1.9755    0.7977   -0.4127 N   0  0  0  0  0  0  0  0  0  0  0  0
    1.5940   -0.3851    0.4548 C   0  0  2  0  0  0  0  0  0  0  0  0
    1.7913   -1.7317   -0.2626 C   0  0  0  0  0  0  0  0  0  0  0  0
    3.2446   -2.0685   -0.5060 C   0  0  0  0  0  0  0  0  0  0  0  0
    4.0170   -2.6661    0.4992 C   0  0  0  0  0  0  0  0  0  0  0  0
    5.3619   -2.9638    0.2729 C   0  0  0  0  0  0  0  0  0  0  0  0
    5.9459   -2.6657   -0.9574 C   0  0  0  0  0  0  0  0  0  0  0  0
    5.1866   -2.0681   -1.9619 C   0  0  0  0  0  0  0  0  0  0  0  0
    3.8424   -1.7690   -1.7372 C   0  0  0  0  0  0  0  0  0  0  0  0
    0.1746   -0.1051    0.7643 C   0  0  0  0  0  0  0  0  0  0  0  0
   -0.3312    0.9425   -0.0077 C   0  0  0  0  0  0  0  0  0  0  0  0
   -1.6443    1.1347    0.3341 C   0  0  0  0  0  0  0  0  0  0  0  0
   -2.5549    2.0038   -0.0858 O   0  0  0  0  0  0  0  0  0  0  0  0
   -1.9413    0.1909    1.3099 N   0  0  0  0  0  0  0  0  0  0  0  0
   -3.2194    0.1192    2.0152 C   0  0  0  0  0  0  0  0  0  0  0  0
   -3.9774   -1.1561    1.7290 C   0  0  0  0  0  0  0  0  0  0  0  0
   -4.5115   -1.9075    2.7877 C   0  0  0  0  0  0  0  0  0  0  0  0
   -5.2229   -3.0821    2.5363 C   0  0  0  0  0  0  0  0  0  0  0  0
   -5.4177   -3.5136    1.2261 C   0  0  0  0  0  0  0  0  0  0  0  0
   -4.9094   -2.7672    0.1655 C   0  0  0  0  0  0  0  0  0  0  0  0
   -4.1995   -1.5916    0.4137 C   0  0  0  0  0  0  0  0  0  0  0  0
   -0.8176   -0.5853    1.5732 C   0  0  0  0  0  0  0  0  0  0  0  0
   -0.7802   -1.5831    2.4476 O   0  0  0  0  0  0  0  0  0  0  0  0
    0.2157    2.5091   -4.0328 H   0  0  0  0  0  0  0  0  0  0  0  0
    0.3188    5.1811   -3.4157 H   0  0  0  0  0  0  0  0  0  0  0  0
    0.6246    6.7607   -1.5138 H   0  0  0  0  0  0  0  0  0  0  0  0
    0.9907    5.9067    0.7826 H   0  0  0  0  0  0  0  0  0  0  0  0
    1.0566    3.4587    1.2290 H   0  0  0  0  0  0  0  0  0  0  0  0
    2.4288    1.4608    0.2118 H   0  0  0  0  0  0  0  0  0  0  0  0
    2.1947   -0.3488    1.3718 H   0  0  0  0  0  0  0  0  0  0  0  0
    1.3475   -2.5386    0.3375 H   0  0  0  0  0  0  0  0  0  0  0  0
    1.2428   -1.7571   -1.2136 H   0  0  0  0  0  0  0  0  0  0  0  0
    3.5732   -2.9050    1.4628 H   0  0  0  0  0  0  0  0  0  0  0  0
    5.9539   -3.4288    1.0567 H   0  0  0  0  0  0  0  0  0  0  0  0
    6.9923   -2.8985   -1.1335 H   0  0  0  0  0  0  0  0  0  0  0  0
    5.6393   -1.8325   -2.9209 H   0  0  0  0  0  0  0  0  0  0  0  0
    3.2585   -1.2951   -2.5246 H   0  0  0  0  0  0  0  0  0  0  0  0
   -2.1250    2.5962   -0.7296 H   0  0  0  0  0  0  0  0  0  0  0  0
   -3.8363    0.9817    1.7437 H   0  0  0  0  0  0  0  0  0  0  0  0
   -2.9795    0.2085    3.0818 H   0  0  0  0  0  0  0  0  0  0  0  0
   -4.3812   -1.5835    3.8182 H   0  0  0  0  0  0  0  0  0  0  0  0
   -5.6295   -3.6600    3.3625 H   0  0  0  0  0  0  0  0  0  0  0  0
   -5.9713   -4.4284    1.0301 H   0  0  0  0  0  0  0  0  0  0  0  0
   -5.0655   -3.0989   -0.8581 H   0  0  0  0  0  0  0  0  0  0  0  0
   -3.8151   -1.0199   -0.4301 H   0  0  0  0  0  0  0  0  0  0  0  0
   -1.6799   -1.9313    2.5742 H   0  0  0  0  0  0  0  0  0  0  0  0
  1  2  2  0
  2  3  1  0
  3  4  1  0
  4  5  2  0
  5  6  1  0
  6  7  2  0
  7  8  1  0
  8  9  2  0
  9 10  1  0
 10 11  1  0
 11 12  1  0
 12 13  1  0
 13 14  1  0
 14 15  2  0
 15 16  1  0
 16 17  2  0
 17 18  1  0
 18 19  2  0
 12 20  1  0
 20 21  1  0
 21 22  2  0
 22 23  1  0
 22 24  1  0
 24 25  1  0
 25 26  1  0
 26 27  2  0
 27 28  1  0
 28 29  2  0
 29 30  1  0
 30 31  2  0
 24 32  1  0
 32 33  1  0
 10  2  1  0
 19 14  1  0
 32 20  2  0
  9  4  1  0
 21 10  1  0
 31 26  1  0
  3 34  1  0
  5 35  1  0
  6 36  1  0
  7 37  1  0
  8 38  1  0
 11 39  1  0
 12 40  1  1
 13 41  1  0
 13 42  1  0
 15 43  1  0
 16 44  1  0
 17 45  1  0
 18 46  1  0
 19 47  1  0
 23 48  1  0
 25 49  1  0
 25 50  1  0
 27 51  1  0
 28 52  1  0
 29 53  1  0
 30 54  1  0
 31 55  1  0
 33 56  1  0
M  END
$$$$
