
     RDKit          3D

 47 48  0  0  0  0  0  0  0  0999 V2000
   -5.3594    1.0198    0.8783 C   0  0  0  0  0  0  0  0  0  0  0  0
   -4.2125    1.6553    1.6492 C   0  0  0  0  0  0  0  0  0  0  0  0
   -3.2160    0.6508    2.0518 N   0  0  0  0  0  0  0  0  0  0  0  0
   -3.4908   -0.0654    3.3079 C   0  0  0  0  0  0  0  0  0  0  0  0
   -3.8379   -1.5271    3.0579 C   0  0  0  0  0  0  0  0  0  0  0  0
   -2.0627    0.4277    1.3060 C   0  0  0  0  0  0  0  0  0  0  0  0
   -0.9436   -0.2254    1.8434 C   0  0  0  0  0  0  0  0  0  0  0  0
    0.2238   -0.4497    1.1017 C   0  0  0  0  0  0  0  0  0  0  0  0
    0.3195   -0.0182   -0.2225 C   0  0  0  0  0  0  0  0  0  0  0  0
    1.5352   -0.2761   -1.0152 C   0  0  0  0  0  0  0  0  0  0  0  0
    2.7791   -0.0667   -0.5570 C   0  0  0  0  0  0  0  0  0  0  0  0
    3.9597   -0.2725   -1.4001 C   0  0  0  0  0  0  0  0  0  0  0  0
    4.1305    0.4821   -2.5688 C   0  0  0  0  0  0  0  0  0  0  0  0
    5.2631    0.3084   -3.3530 C   0  0  0  0  0  0  0  0  0  0  0  0
    6.2182   -0.6152   -2.9615 C   0  0  0  0  0  0  0  0  0  0  0  0
    6.0217   -1.3474   -1.7975 C   0  0  0  0  0  0  0  0  0  0  0  0
    4.9133   -1.1744   -1.0379 N   0  0  0  0  0  4  0  0  0  0  0  0
    4.7447   -2.0035    0.1718 C   0  0  0  0  0  0  0  0  0  0  0  0
   -0.7882    0.6210   -0.8039 C   0  0  0  0  0  0  0  0  0  0  0  0
   -0.6410    1.0047   -2.1167 O   0  0  0  0  0  0  0  0  0  0  0  0
   -1.7526    1.6304   -2.7481 C   0  0  0  0  0  0  0  0  0  0  0  0
   -1.9473    0.8367   -0.0371 C   0  0  0  0  0  0  0  0  0  0  0  0
   -5.9076    0.3083    1.5037 H   0  0  0  0  0  0  0  0  0  0  0  0
   -6.0653    1.7893    0.5502 H   0  0  0  0  0  0  0  0  0  0  0  0
   -5.0052    0.4822   -0.0065 H   0  0  0  0  0  0  0  0  0  0  0  0
   -3.7599    2.4655    1.0657 H   0  0  0  0  0  0  0  0  0  0  0  0
   -4.6176    2.1515    2.5402 H   0  0  0  0  0  0  0  0  0  0  0  0
   -4.3423    0.3941    3.8254 H   0  0  0  0  0  0  0  0  0  0  0  0
   -2.6525    0.0248    4.0073 H   0  0  0  0  0  0  0  0  0  0  0  0
   -3.0052   -2.0749    2.6072 H   0  0  0  0  0  0  0  0  0  0  0  0
   -4.0896   -2.0200    4.0023 H   0  0  0  0  0  0  0  0  0  0  0  0
   -4.6979   -1.6206    2.3876 H   0  0  0  0  0  0  0  0  0  0  0  0
   -0.9460   -0.5743    2.8718 H   0  0  0  0  0  0  0  0  0  0  0  0
    1.0429   -0.9753    1.5833 H   0  0  0  0  0  0  0  0  0  0  0  0
    1.3490   -0.6065   -2.0368 H   0  0  0  0  0  0  0  0  0  0  0  0
    2.9570    0.3007    0.4500 H   0  0  0  0  0  0  0  0  0  0  0  0
    3.3803    1.2143   -2.8664 H   0  0  0  0  0  0  0  0  0  0  0  0
    5.3983    0.8937   -4.2615 H   0  0  0  0  0  0  0  0  0  0  0  0
    7.1133   -0.7658   -3.5617 H   0  0  0  0  0  0  0  0  0  0  0  0
    6.7532   -2.0807   -1.4684 H   0  0  0  0  0  0  0  0  0  0  0  0
    3.8028   -2.5518    0.0867 H   0  0  0  0  0  0  0  0  0  0  0  0
    5.5678   -2.7179    0.2546 H   0  0  0  0  0  0  0  0  0  0  0  0
    4.7506   -1.3412    1.0412 H   0  0  0  0  0  0  0  0  0  0  0  0
   -2.0002    2.5791   -2.2607 H   0  0  0  0  0  0  0  0  0  0  0  0
   -2.6176    0.9599   -2.7805 H   0  0  0  0  0  0  0  0  0  0  0  0
   -1.4666    1.8529   -3.7806 H   0  0  0  0  0  0  0  0  0  0  0  0
   -2.7986    1.3173   -0.5025 H   0  0  0  0  0  0  0  0  0  0  0  0
  1  2  1  0
  2  3  1  0
  3  4  1  0
  4  5  1  0
  3  6  1  0
  6  7  2  0
  7  8  1  0
  8  9  2  0
  9 10  1  0
 10 11  2  3
 11 12  1  0
 12 13  2  0
 13 14  1  0
 14 15  2  0
 15 16  1  0
 16 17  2  0
 17 18  1  0
  9 19  1  0
 19 20  1  0
 20 21  1  0
 19 22  2  0
 22  6  1  0
 17 12  1  0
  1 23  1  0
  1 24  1  0
  1 25  1  0
  2 26  1  0
  2 27  1  0
  4 28  1  0
  4 29  1  0
  5 30  1  0
  5 31  1  0
  5 32  1  0
  7 33  1  0
  8 34  1  0
 10 35  1  0
 11 36  1  0
 13 37  1  0
 14 38  1  0
 15 39  1  0
 16 40  1  0
 18 41  1  0
 18 42  1  0
 18 43  1  0
 21 44  1  0
 21 45  1  0
 21 46  1  0
 22 47  1  0
M  CHG  1  17   1
M  END
$$$$
