
     RDKit          3D

 36 37  0  0  0  0  0  0  0  0999 V2000
    6.1900    0.5852    2.1354 C   0  0  0  0  0  0  0  0  0  0  0  0
    4.8717    0.2109    1.7335 O   0  0  0  0  0  0  0  0  0  0  0  0
    4.5659    0.5575    0.4578 C   0  0  0  0  0  0  0  0  0  0  0  0
    5.3073    1.1368   -0.3206 O   0  0  0  0  0  0  0  0  0  0  0  0
    3.1808    0.1344    0.1144 C   0  0  0  0  0  0  0  0  0  0  0  0
    2.3512   -0.5354    1.0214 C   0  0  0  0  0  0  0  0  0  0  0  0
    1.0560   -0.9115    0.6475 C   0  0  0  0  0  0  0  0  0  0  0  0
    0.5605   -0.6203   -0.6334 C   0  0  0  0  0  0  0  0  0  0  0  0
   -0.8357   -1.0427   -1.0696 C   0  0  0  0  0  0  0  0  0  0  0  0
   -1.6239   -1.4702    0.0482 O   0  0  0  0  0  0  0  0  0  0  0  0
   -3.0108   -1.4066   -0.2676 C   0  0  0  0  0  0  0  0  0  0  0  0
   -3.4265    0.0659   -0.4244 C   0  0  0  0  0  0  0  0  0  0  0  0
   -4.6268    0.1481   -1.3800 C   0  0  0  0  0  0  0  0  0  0  0  0
   -3.8299    0.6634    0.9326 C   0  0  0  0  0  0  0  0  0  0  0  0
   -2.2305    0.8559   -0.9832 C   0  0  0  0  0  0  0  0  0  0  0  0
   -1.4577    0.0059   -1.8268 O   0  0  0  0  0  0  0  0  0  0  0  0
    1.4067    0.0419   -1.5392 C   0  0  0  0  0  0  0  0  0  0  0  0
    2.7010    0.4193   -1.1692 C   0  0  0  0  0  0  0  0  0  0  0  0
    6.3351    0.2568    3.1683 H   0  0  0  0  0  0  0  0  0  0  0  0
    6.3079    1.6728    2.0978 H   0  0  0  0  0  0  0  0  0  0  0  0
    6.9378    0.0912    1.5070 H   0  0  0  0  0  0  0  0  0  0  0  0
    2.6961   -0.7750    2.0242 H   0  0  0  0  0  0  0  0  0  0  0  0
    0.4329   -1.4359    1.3704 H   0  0  0  0  0  0  0  0  0  0  0  0
   -0.7201   -1.9021   -1.7414 H   0  0  0  0  0  0  0  0  0  0  0  0
   -3.5680   -1.8927    0.5407 H   0  0  0  0  0  0  0  0  0  0  0  0
   -3.1950   -1.9929   -1.1773 H   0  0  0  0  0  0  0  0  0  0  0  0
   -4.3674   -0.2280   -2.3760 H   0  0  0  0  0  0  0  0  0  0  0  0
   -5.4697   -0.4446   -1.0070 H   0  0  0  0  0  0  0  0  0  0  0  0
   -4.9709    1.1820   -1.4958 H   0  0  0  0  0  0  0  0  0  0  0  0
   -4.0903    1.7234    0.8355 H   0  0  0  0  0  0  0  0  0  0  0  0
   -4.6984    0.1433    1.3521 H   0  0  0  0  0  0  0  0  0  0  0  0
   -3.0137    0.5840    1.6594 H   0  0  0  0  0  0  0  0  0  0  0  0
   -1.5876    1.2567   -0.1891 H   0  0  0  0  0  0  0  0  0  0  0  0
   -2.5646    1.7125   -1.5788 H   0  0  0  0  0  0  0  0  0  0  0  0
    1.0542    0.2734   -2.5434 H   0  0  0  0  0  0  0  0  0  0  0  0
    3.3323    0.9368   -1.8894 H   0  0  0  0  0  0  0  0  0  0  0  0
  1  2  1  0
  2  3  1  0
  3  4  2  0
  3  5  1  0
  5  6  2  0
  6  7  1  0
  7  8  2  0
  8  9  1  0
  9 10  1  0
 10 11  1  0
 11 12  1  0
 12 13  1  0
 12 14  1  0
 12 15  1  0
 15 16  1  0
  8 17  1  0
 17 18  2  0
 18  5  1  0
 16  9  1  0
  1 19  1  0
  1 20  1  0
  1 21  1  0
  6 22  1  0
  7 23  1  0
  9 24  1  0
 11 25  1  0
 11 26  1  0
 13 27  1  0
 13 28  1  0
 13 29  1  0
 14 30  1  0
 14 31  1  0
 14 32  1  0
 15 33  1  0
 15 34  1  0
 17 35  1  0
 18 36  1  0
M  END
$$$$
