
     RDKit          3D

 57 61  0  0  0  0  0  0  0  0999 V2000
   -1.9676    1.1407    3.7178 O   0  0  0  0  0  0  0  0  0  0  0  0
   -1.9453    0.1894    2.9450 C   0  0  0  0  0  0  0  0  0  0  0  0
   -0.8436   -0.0711    2.1382 N   0  0  0  0  0  0  0  0  0  0  0  0
   -0.7431   -1.1566    1.2759 C   0  0  0  0  0  0  0  0  0  0  0  0
    0.5437   -1.2807    0.4680 C   0  0  0  0  0  0  0  0  0  0  0  0
    0.6507   -0.1706   -0.5878 C   0  0  0  0  0  0  0  0  0  0  0  0
    1.5314    0.9921   -0.1508 C   0  0  0  0  0  0  0  0  0  0  0  0
    2.8909    0.5536    0.2795 N   0  0  0  0  0  0  0  0  0  0  0  0
    4.1911    1.1162   -0.7000 S   0  0  0  0  0  6  0  0  0  0  0  0
    5.4277    0.6467   -0.1190 O   0  0  0  0  0  0  0  0  0  0  0  0
    3.8085    0.8101   -2.0592 O   0  0  0  0  0  0  0  0  0  0  0  0
    4.1554    2.8840   -0.4660 C   0  0  0  0  0  0  0  0  0  0  0  0
    3.8019    3.3647    0.8065 C   0  0  0  0  0  0  0  0  0  0  0  0
    3.7052    4.7353    1.0375 C   0  0  0  0  0  0  0  0  0  0  0  0
    3.9658    5.6303    0.0050 C   0  0  0  0  0  0  0  0  0  0  0  0
    4.3417    5.1566   -1.2539 C   0  0  0  0  0  0  0  0  0  0  0  0
    4.4591    3.7753   -1.5107 C   0  0  0  0  0  0  0  0  0  0  0  0
    4.9171    3.3248   -2.8788 C   0  0  0  0  0  0  0  0  0  0  0  0
    5.8316    2.3217   -2.8422 F   0  0  0  0  0  0  0  0  0  0  0  0
    3.8903    2.9202   -3.6711 F   0  0  0  0  0  0  0  0  0  0  0  0
    5.5285    4.3304   -3.5757 F   0  0  0  0  0  0  0  0  0  0  0  0
    3.0191   -0.8922    0.6119 C   0  0  0  0  0  0  0  0  0  0  0  0
    1.7834   -1.3651    1.3628 C   0  0  0  0  0  0  0  0  0  0  0  0
   -1.6866   -2.0422    1.1071 N   0  0  0  0  0  0  0  0  0  0  0  0
   -2.7859   -1.7948    1.8616 C   0  0  0  0  0  0  0  0  0  0  0  0
   -2.9944   -0.7729    2.7556 C   0  0  0  0  0  0  0  0  0  0  0  0
   -4.2240   -0.8768    3.3275 N   0  0  0  0  0  0  0  0  0  0  0  0
   -4.8144   -1.9512    2.8033 N   0  0  0  0  0  0  0  0  0  0  0  0
   -3.9586   -2.4939    1.9004 N   0  0  0  0  0  0  0  0  0  0  0  0
   -4.3135   -3.6883    1.1630 C   0  0  0  0  0  0  0  0  0  0  0  0
   -4.8459   -3.3528   -0.2075 C   0  0  0  0  0  0  0  0  0  0  0  0
   -4.0053   -3.3974   -1.3296 C   0  0  0  0  0  0  0  0  0  0  0  0
   -4.4970   -3.0752   -2.5954 C   0  0  0  0  0  0  0  0  0  0  0  0
   -5.8297   -2.7004   -2.7520 C   0  0  0  0  0  0  0  0  0  0  0  0
   -6.6726   -2.6443   -1.6434 C   0  0  0  0  0  0  0  0  0  0  0  0
   -6.1841   -2.9662   -0.3765 C   0  0  0  0  0  0  0  0  0  0  0  0
   -0.0785    0.5710    2.2742 H   0  0  0  0  0  0  0  0  0  0  0  0
    0.4664   -2.2296   -0.0829 H   0  0  0  0  0  0  0  0  0  0  0  0
   -0.3420    0.2042   -0.8648 H   0  0  0  0  0  0  0  0  0  0  0  0
    1.0809   -0.6018   -1.5023 H   0  0  0  0  0  0  0  0  0  0  0  0
    1.0775    1.5225    0.6932 H   0  0  0  0  0  0  0  0  0  0  0  0
    1.5857    1.7216   -0.9660 H   0  0  0  0  0  0  0  0  0  0  0  0
    3.6068    2.6755    1.6264 H   0  0  0  0  0  0  0  0  0  0  0  0
    3.4293    5.1054    2.0227 H   0  0  0  0  0  0  0  0  0  0  0  0
    3.8908    6.7013    0.1822 H   0  0  0  0  0  0  0  0  0  0  0  0
    4.5591    5.8801   -2.0409 H   0  0  0  0  0  0  0  0  0  0  0  0
    3.1642   -1.4858   -0.2984 H   0  0  0  0  0  0  0  0  0  0  0  0
    3.8933   -1.0307    1.2576 H   0  0  0  0  0  0  0  0  0  0  0  0
    1.6691   -0.7737    2.2786 H   0  0  0  0  0  0  0  0  0  0  0  0
    1.9217   -2.4029    1.6899 H   0  0  0  0  0  0  0  0  0  0  0  0
   -3.4223   -4.3231    1.0992 H   0  0  0  0  0  0  0  0  0  0  0  0
   -5.0599   -4.2433    1.7435 H   0  0  0  0  0  0  0  0  0  0  0  0
   -2.9588   -3.6771   -1.2239 H   0  0  0  0  0  0  0  0  0  0  0  0
   -3.8387   -3.1134   -3.4598 H   0  0  0  0  0  0  0  0  0  0  0  0
   -6.2119   -2.4478   -3.7377 H   0  0  0  0  0  0  0  0  0  0  0  0
   -7.7111   -2.3455   -1.7645 H   0  0  0  0  0  0  0  0  0  0  0  0
   -6.8532   -2.9063    0.4807 H   0  0  0  0  0  0  0  0  0  0  0  0
  1  2  2  0
  2  3  1  0
  3  4  1  0
  4  5  1  0
  5  6  1  0
  6  7  1  0
  7  8  1  0
  8  9  1  0
  9 10  2  0
  9 11  2  0
  9 12  1  0
 12 13  2  0
 13 14  1  0
 14 15  2  0
 15 16  1  0
 16 17  2  0
 17 18  1  0
 18 19  1  0
 18 20  1  0
 18 21  1  0
  8 22  1  0
 22 23  1  0
  4 24  2  0
 24 25  1  0
 25 26  2  0
 26 27  1  0
 27 28  2  0
 28 29  1  0
 29 30  1  0
 30 31  1  0
 31 32  2  0
 32 33  1  0
 33 34  2  0
 34 35  1  0
 35 36  2  0
 26  2  1  0
 36 31  1  0
 23  5  1  0
 29 25  1  0
 17 12  1  0
  3 37  1  0
  5 38  1  0
  6 39  1  0
  6 40  1  0
  7 41  1  0
  7 42  1  0
 13 43  1  0
 14 44  1  0
 15 45  1  0
 16 46  1  0
 22 47  1  0
 22 48  1  0
 23 49  1  0
 23 50  1  0
 30 51  1  0
 30 52  1  0
 32 53  1  0
 33 54  1  0
 34 55  1  0
 35 56  1  0
 36 57  1  0
M  END
$$$$
