
     RDKit          3D

 46 49  0  0  0  0  0  0  0  0999 V2000
   -6.2794    1.9220    2.6868 C   0  0  0  0  0  0  0  0  0  0  0  0
   -5.5430    2.1348    1.4885 O   0  0  0  0  0  0  0  0  0  0  0  0
   -4.5781    1.2153    1.1832 C   0  0  0  0  0  0  0  0  0  0  0  0
   -4.3060    0.0470    1.8933 C   0  0  0  0  0  0  0  0  0  0  0  0
   -3.2735   -0.8044    1.4809 C   0  0  0  0  0  0  0  0  0  0  0  0
   -2.4984   -0.4855    0.3571 C   0  0  0  0  0  0  0  0  0  0  0  0
   -1.4348   -1.3466   -0.0338 N   0  0  0  0  0  0  0  0  0  0  0  0
   -0.1451   -1.0069   -0.4255 C   0  0  0  0  0  0  0  0  0  0  0  0
    0.5227    0.5977   -0.3835 S   0  0  0  0  0  0  0  0  0  0  0  0
    2.0032    0.2734    0.6267 C   0  0  0  0  0  0  0  0  0  0  0  0
    3.0019    1.4037    0.4528 C   0  0  0  0  0  0  0  0  0  0  0  0
    3.1645    2.2399    1.3368 O   0  0  0  0  0  0  0  0  0  0  0  0
    3.6785    1.3223   -0.7536 N   0  0  0  0  0  0  0  0  0  0  0  0
    4.7355    2.1504   -1.1655 C   0  0  0  0  0  0  0  0  0  0  0  0
    5.1720    3.1381   -0.3573 N   0  0  0  0  0  0  0  0  0  0  0  0
    6.2074    3.8998   -0.7848 C   0  0  0  0  0  0  0  0  0  0  0  0
    6.8464    3.7158   -1.9989 C   0  0  0  0  0  0  0  0  0  0  0  0
    8.1607    4.7114   -2.4672 Cl  0  0  0  0  0  0  0  0  0  0  0  0
    6.3993    2.6995   -2.8329 C   0  0  0  0  0  0  0  0  0  0  0  0
    5.3305    1.9075   -2.4142 C   0  0  0  0  0  0  0  0  0  0  0  0
    4.7868    0.6387   -3.4553 Cl  0  0  0  0  0  0  0  0  0  0  0  0
    0.5956   -2.0538   -0.7098 N   0  0  0  0  0  0  0  0  0  0  0  0
   -0.2126   -3.1329   -0.4910 C   0  0  0  0  0  0  0  0  0  0  0  0
    0.0847   -4.4963   -0.6475 C   0  0  0  0  0  0  0  0  0  0  0  0
   -0.9126   -5.4416   -0.3844 C   0  0  0  0  0  0  0  0  0  0  0  0
   -2.1874   -5.0372    0.0173 C   0  0  0  0  0  0  0  0  0  0  0  0
   -2.5020   -3.6830    0.1738 C   0  0  0  0  0  0  0  0  0  0  0  0
   -1.4831   -2.7411   -0.0633 C   0  0  0  0  0  0  0  0  0  0  0  0
   -2.7734    0.6817   -0.3607 C   0  0  0  0  0  0  0  0  0  0  0  0
   -3.8148    1.5192    0.0508 C   0  0  0  0  0  0  0  0  0  0  0  0
   -6.9853    2.7520    2.7925 H   0  0  0  0  0  0  0  0  0  0  0  0
   -6.8630    0.9993    2.6324 H   0  0  0  0  0  0  0  0  0  0  0  0
   -5.6262    1.9269    3.5663 H   0  0  0  0  0  0  0  0  0  0  0  0
   -4.8645   -0.2250    2.7850 H   0  0  0  0  0  0  0  0  0  0  0  0
   -3.0608   -1.6823    2.0855 H   0  0  0  0  0  0  0  0  0  0  0  0
    1.7194    0.2018    1.6859 H   0  0  0  0  0  0  0  0  0  0  0  0
    2.4941   -0.6670    0.3456 H   0  0  0  0  0  0  0  0  0  0  0  0
    3.3889    0.6084   -1.4132 H   0  0  0  0  0  0  0  0  0  0  0  0
    6.5115    4.6807   -0.0948 H   0  0  0  0  0  0  0  0  0  0  0  0
    6.8799    2.5209   -3.7921 H   0  0  0  0  0  0  0  0  0  0  0  0
    1.0730   -4.8031   -0.9800 H   0  0  0  0  0  0  0  0  0  0  0  0
   -0.6922   -6.4988   -0.5062 H   0  0  0  0  0  0  0  0  0  0  0  0
   -2.9562   -5.7872    0.1978 H   0  0  0  0  0  0  0  0  0  0  0  0
   -3.5098   -3.3875    0.4498 H   0  0  0  0  0  0  0  0  0  0  0  0
   -2.2261    0.9463   -1.2624 H   0  0  0  0  0  0  0  0  0  0  0  0
   -4.0284    2.4257   -0.5111 H   0  0  0  0  0  0  0  0  0  0  0  0
  1  2  1  0
  2  3  1  0
  3  4  2  0
  4  5  1  0
  5  6  2  0
  6  7  1  0
  7  8  1  0
  8  9  1  0
  9 10  1  0
 10 11  1  0
 11 12  2  0
 11 13  1  0
 13 14  1  0
 14 15  2  0
 15 16  1  0
 16 17  2  0
 17 18  1  0
 17 19  1  0
 19 20  2  0
 20 21  1  0
  8 22  2  0
 22 23  1  0
 23 24  2  0
 24 25  1  0
 25 26  2  0
 26 27  1  0
 27 28  2  0
  6 29  1  0
 29 30  2  0
 30  3  1  0
 28  7  1  0
 20 14  1  0
 28 23  1  0
  1 31  1  0
  1 32  1  0
  1 33  1  0
  4 34  1  0
  5 35  1  0
 10 36  1  0
 10 37  1  0
 13 38  1  0
 16 39  1  0
 19 40  1  0
 24 41  1  0
 25 42  1  0
 26 43  1  0
 27 44  1  0
 29 45  1  0
 30 46  1  0
M  END
$$$$
