
     RDKit          3D

 58 60  0  0  0  0  0  0  0  0999 V2000
   -2.8443    2.7650    3.3115 C   0  0  0  0  0  0  0  0  0  0  0  0
   -2.9127    2.5716    1.8171 C   0  0  0  0  0  0  0  0  0  0  0  0
   -3.9772    3.1720    1.1178 C   0  0  0  0  0  0  0  0  0  0  0  0
   -4.1017    3.0251   -0.2631 C   0  0  0  0  0  0  0  0  0  0  0  0
   -3.1591    2.2694   -0.9540 C   0  0  0  0  0  0  0  0  0  0  0  0
   -3.3048    2.0563   -2.7181 S   0  0  0  0  0  6  0  0  0  0  0  0
   -1.9671    1.9355   -3.2587 O   0  0  0  0  0  0  0  0  0  0  0  0
   -4.2180    3.0756   -3.1963 O   0  0  0  0  0  0  0  0  0  0  0  0
   -4.0806    0.5588   -2.8663 N   0  0  0  0  0  0  0  0  0  0  0  0
   -5.5174    0.4681   -2.4817 C   0  0  0  0  0  0  0  0  0  0  0  0
   -5.7233   -0.5674   -1.3718 C   0  0  0  0  0  0  0  0  0  0  0  0
   -5.3068   -1.8864   -1.7453 O   0  0  0  0  0  0  0  0  0  0  0  0
   -4.1971   -1.9056   -2.6585 C   0  0  0  0  0  0  0  0  0  0  0  0
   -3.2977   -0.6678   -2.5498 C   0  0  0  0  0  0  0  0  0  0  0  0
   -2.0743    1.6968   -0.2818 C   0  0  0  0  0  0  0  0  0  0  0  0
   -1.9555    1.8084    1.1083 C   0  0  0  0  0  0  0  0  0  0  0  0
   -0.9053    1.1866    1.8281 N   0  0  0  0  0  0  0  0  0  0  0  0
    0.0700    0.3320    1.3320 C   0  0  0  0  0  0  0  0  0  0  0  0
    0.1715   -0.0636    0.1740 O   0  0  0  0  0  0  0  0  0  0  0  0
    1.0746   -0.0949    2.4102 C   0  0  0  0  0  0  0  0  0  0  0  0
    2.1252   -0.9021    1.8783 O   0  0  0  0  0  0  0  0  0  0  0  0
    1.7694   -2.2023    1.6438 C   0  0  0  0  0  0  0  0  0  0  0  0
    0.7072   -2.7026    1.9917 O   0  0  0  0  0  0  0  0  0  0  0  0
    2.8520   -2.9488    0.8708 C   0  0  0  0  0  0  0  0  0  0  0  0
    4.0426   -2.1502    0.6156 N   0  0  0  0  0  0  0  0  0  0  0  0
    5.1572   -2.7184    0.0396 C   0  0  0  0  0  0  0  0  0  0  0  0
    5.2441   -3.9151   -0.2106 O   0  0  0  0  0  0  0  0  0  0  0  0
    6.2700   -1.7869   -0.3071 C   0  0  0  0  0  0  0  0  0  0  0  0
    6.4979   -0.6087    0.4185 C   0  0  0  0  0  0  0  0  0  0  0  0
    7.5578    0.2341    0.0661 C   0  0  0  0  0  0  0  0  0  0  0  0
    8.3923   -0.0995   -1.0032 C   0  0  0  0  0  0  0  0  0  0  0  0
    8.1770   -1.2796   -1.7195 C   0  0  0  0  0  0  0  0  0  0  0  0
    7.1202   -2.1250   -1.3702 C   0  0  0  0  0  0  0  0  0  0  0  0
   -3.6261    3.4509    3.6722 H   0  0  0  0  0  0  0  0  0  0  0  0
   -1.8776    3.2015    3.5929 H   0  0  0  0  0  0  0  0  0  0  0  0
   -2.9853    1.8014    3.8227 H   0  0  0  0  0  0  0  0  0  0  0  0
   -4.7188    3.7635    1.6506 H   0  0  0  0  0  0  0  0  0  0  0  0
   -4.9287    3.5011   -0.7842 H   0  0  0  0  0  0  0  0  0  0  0  0
   -5.9104    1.4364   -2.1554 H   0  0  0  0  0  0  0  0  0  0  0  0
   -6.0742    0.1725   -3.3808 H   0  0  0  0  0  0  0  0  0  0  0  0
   -6.7830   -0.6237   -1.1017 H   0  0  0  0  0  0  0  0  0  0  0  0
   -5.1720   -0.2831   -0.4659 H   0  0  0  0  0  0  0  0  0  0  0  0
   -3.6245   -2.8136   -2.4465 H   0  0  0  0  0  0  0  0  0  0  0  0
   -4.5998   -1.9985   -3.6762 H   0  0  0  0  0  0  0  0  0  0  0  0
   -2.4656   -0.7608   -3.2568 H   0  0  0  0  0  0  0  0  0  0  0  0
   -2.9052   -0.6112   -1.5305 H   0  0  0  0  0  0  0  0  0  0  0  0
   -1.3406    1.1563   -0.8726 H   0  0  0  0  0  0  0  0  0  0  0  0
   -0.8956    1.3444    2.8274 H   0  0  0  0  0  0  0  0  0  0  0  0
    1.5404    0.8083    2.8205 H   0  0  0  0  0  0  0  0  0  0  0  0
    0.5533   -0.6053    3.2291 H   0  0  0  0  0  0  0  0  0  0  0  0
    2.4424   -3.2463   -0.0999 H   0  0  0  0  0  0  0  0  0  0  0  0
    3.1454   -3.8380    1.4369 H   0  0  0  0  0  0  0  0  0  0  0  0
    3.9140   -1.1481    0.5555 H   0  0  0  0  0  0  0  0  0  0  0  0
    5.8783   -0.3471    1.2716 H   0  0  0  0  0  0  0  0  0  0  0  0
    7.7390    1.1464    0.6295 H   0  0  0  0  0  0  0  0  0  0  0  0
    9.2185    0.5571   -1.2723 H   0  0  0  0  0  0  0  0  0  0  0  0
    8.8330   -1.5450   -2.5473 H   0  0  0  0  0  0  0  0  0  0  0  0
    6.9570   -3.0498   -1.9270 H   0  0  0  0  0  0  0  0  0  0  0  0
  1  2  1  0
  2  3  2  0
  3  4  1  0
  4  5  2  0
  5  6  1  0
  6  7  2  0
  6  8  2  0
  6  9  1  0
  9 10  1  0
 10 11  1  0
 11 12  1  0
 12 13  1  0
 13 14  1  0
  5 15  1  0
 15 16  2  0
 16 17  1  0
 17 18  1  0
 18 19  2  0
 18 20  1  0
 20 21  1  0
 21 22  1  0
 22 23  2  0
 22 24  1  0
 24 25  1  0
 25 26  1  0
 26 27  2  0
 26 28  1  0
 28 29  2  0
 29 30  1  0
 30 31  2  0
 31 32  1  0
 32 33  2  0
 16  2  1  0
 33 28  1  0
 14  9  1  0
  1 34  1  0
  1 35  1  0
  1 36  1  0
  3 37  1  0
  4 38  1  0
 10 39  1  0
 10 40  1  0
 11 41  1  0
 11 42  1  0
 13 43  1  0
 13 44  1  0
 14 45  1  0
 14 46  1  0
 15 47  1  0
 17 48  1  0
 20 49  1  0
 20 50  1  0
 24 51  1  0
 24 52  1  0
 25 53  1  0
 29 54  1  0
 30 55  1  0
 31 56  1  0
 32 57  1  0
 33 58  1  0
M  END
$$$$
