
     RDKit          3D

 38 41  0  0  0  0  0  0  0  0999 V2000
    6.7886   -0.5161    0.6490 C   0  0  0  0  0  0  0  0  0  0  0  0
    5.3292   -0.3943    0.3257 C   0  0  0  0  0  0  0  0  0  0  0  0
    4.8354   -0.8406   -0.9041 C   0  0  0  0  0  0  0  0  0  0  0  0
    3.4803   -0.6984   -1.2197 C   0  0  0  0  0  0  0  0  0  0  0  0
    2.5933   -0.1083   -0.3116 C   0  0  0  0  0  0  0  0  0  0  0  0
    1.1675    0.0868   -0.6138 C   0  0  0  0  0  0  0  0  0  0  0  0
    0.4261   -0.7729   -1.3325 C   0  0  0  0  0  0  0  0  0  0  0  0
   -0.9823   -0.5858   -1.6625 C   0  0  0  0  0  0  0  0  0  0  0  0
   -1.3686   -0.8767   -2.9264 N   0  0  0  0  0  0  0  0  0  0  0  0
   -2.6622   -0.7086   -3.2726 C   0  0  0  0  0  0  0  0  0  0  0  0
   -3.6597   -0.2710   -2.4159 C   0  0  0  0  0  0  0  0  0  0  0  0
   -3.2811   -0.0063   -1.0912 C   0  0  0  0  0  0  0  0  0  0  0  0
   -1.9418   -0.1764   -0.7358 C   0  0  0  0  0  0  0  0  0  0  0  0
   -1.8525    0.0991    0.6097 N   0  0  0  0  0  0  0  0  0  0  0  0
   -3.0682    0.4840    1.1219 C   0  0  0  0  0  0  0  0  0  0  0  0
   -3.4202    0.8654    2.4220 C   0  0  0  0  0  0  0  0  0  0  0  0
   -4.7564    1.2023    2.6574 C   0  0  0  0  0  0  0  0  0  0  0  0
   -5.6997    1.1556    1.6337 C   0  0  0  0  0  0  0  0  0  0  0  0
   -5.3298    0.7688    0.3404 C   0  0  0  0  0  0  0  0  0  0  0  0
   -3.9872    0.4273    0.0760 C   0  0  0  0  0  0  0  0  0  0  0  0
    3.0976    0.3671    0.9051 C   0  0  0  0  0  0  0  0  0  0  0  0
    4.4524    0.2250    1.2219 C   0  0  0  0  0  0  0  0  0  0  0  0
    7.2214   -1.4022    0.1728 H   0  0  0  0  0  0  0  0  0  0  0  0
    7.3248    0.3714    0.2992 H   0  0  0  0  0  0  0  0  0  0  0  0
    6.9422   -0.6204    1.7282 H   0  0  0  0  0  0  0  0  0  0  0  0
    5.5028   -1.2987   -1.6309 H   0  0  0  0  0  0  0  0  0  0  0  0
    3.1337   -1.0417   -2.1917 H   0  0  0  0  0  0  0  0  0  0  0  0
    0.7330    1.0047   -0.2258 H   0  0  0  0  0  0  0  0  0  0  0  0
    0.8606   -1.6654   -1.7737 H   0  0  0  0  0  0  0  0  0  0  0  0
   -2.8913   -0.9458   -4.3082 H   0  0  0  0  0  0  0  0  0  0  0  0
   -4.6818   -0.1569   -2.7547 H   0  0  0  0  0  0  0  0  0  0  0  0
   -1.0052    0.0169    1.1521 H   0  0  0  0  0  0  0  0  0  0  0  0
   -2.6892    0.8999    3.2233 H   0  0  0  0  0  0  0  0  0  0  0  0
   -5.0635    1.5037    3.6565 H   0  0  0  0  0  0  0  0  0  0  0  0
   -6.7340    1.4203    1.8394 H   0  0  0  0  0  0  0  0  0  0  0  0
   -6.0732    0.7332   -0.4503 H   0  0  0  0  0  0  0  0  0  0  0  0
    2.4414    0.8517    1.6239 H   0  0  0  0  0  0  0  0  0  0  0  0
    4.8179    0.6035    2.1738 H   0  0  0  0  0  0  0  0  0  0  0  0
  1  2  1  0
  2  3  2  0
  3  4  1  0
  4  5  2  0
  5  6  1  0
  6  7  2  3
  7  8  1  0
  8  9  2  0
  9 10  1  0
 10 11  2  0
 11 12  1  0
 12 13  2  0
 13 14  1  0
 14 15  1  0
 15 16  2  0
 16 17  1  0
 17 18  2  0
 18 19  1  0
 19 20  2  0
  5 21  1  0
 21 22  2  0
 22  2  1  0
 13  8  1  0
 20 15  1  0
 20 12  1  0
  1 23  1  0
  1 24  1  0
  1 25  1  0
  3 26  1  0
  4 27  1  0
  6 28  1  0
  7 29  1  0
 10 30  1  0
 11 31  1  0
 14 32  1  0
 16 33  1  0
 17 34  1  0
 18 35  1  0
 19 36  1  0
 21 37  1  0
 22 38  1  0
M  END
$$$$
