
     RDKit          3D

 40 41  0  0  0  0  0  0  0  0999 V2000
   -6.9344    0.1528   -0.1923 C   0  0  0  0  0  0  0  0  0  0  0  0
   -5.4405    0.0504   -0.0908 C   0  0  0  0  0  0  0  0  0  0  0  0
   -4.7542    0.6967    0.9314 C   0  0  0  0  0  0  0  0  0  0  0  0
   -3.3750    0.5588    1.0232 C   0  0  0  0  0  0  0  0  0  0  0  0
   -2.6844   -0.2300    0.0959 C   0  0  0  0  0  0  0  0  0  0  0  0
   -1.2335   -0.4029    0.2095 C   0  0  0  0  0  0  0  0  0  0  0  0
   -0.3765    0.6278    0.1341 C   0  0  0  0  0  0  0  0  0  0  0  0
    1.0799    0.4606    0.2128 C   0  0  0  0  0  0  0  0  0  0  0  0
    1.6888   -0.3958    1.1288 C   0  0  0  0  0  0  0  0  0  0  0  0
    3.0871   -0.5163    1.1746 C   0  0  0  0  0  0  0  0  0  0  0  0
    3.9362    0.2195    0.3304 C   0  0  0  0  0  0  0  0  0  0  0  0
    5.3261    0.0733    0.3627 N   0  0  0  0  0  0  0  0  0  0  0  0
    5.9497   -0.5796    1.5144 C   0  0  0  0  0  0  0  0  0  0  0  0
    6.1655    1.0504   -0.3317 C   0  0  0  0  0  0  0  0  0  0  0  0
    3.2942    1.0798   -0.5762 C   0  0  0  0  0  0  0  0  0  0  0  0
    1.8974    1.2104   -0.6307 C   0  0  0  0  0  0  0  0  0  0  0  0
   -3.3739   -0.8665   -0.8903 N   0  0  0  0  0  4  0  0  0  0  0  0
   -2.6671   -1.6876   -1.8953 C   0  0  0  0  0  0  0  0  0  0  0  0
   -4.7198   -0.7401   -0.9845 C   0  0  0  0  0  0  0  0  0  0  0  0
   -7.2630    0.0481   -1.2317 H   0  0  0  0  0  0  0  0  0  0  0  0
   -7.2833    1.1285    0.1620 H   0  0  0  0  0  0  0  0  0  0  0  0
   -7.4048   -0.6319    0.4082 H   0  0  0  0  0  0  0  0  0  0  0  0
   -5.2853    1.3066    1.6621 H   0  0  0  0  0  0  0  0  0  0  0  0
   -2.8410    1.0609    1.8290 H   0  0  0  0  0  0  0  0  0  0  0  0
   -0.8775   -1.4217    0.3396 H   0  0  0  0  0  0  0  0  0  0  0  0
   -0.7195    1.6490   -0.0261 H   0  0  0  0  0  0  0  0  0  0  0  0
    1.1008   -0.9797    1.8320 H   0  0  0  0  0  0  0  0  0  0  0  0
    3.4945   -1.2118    1.9029 H   0  0  0  0  0  0  0  0  0  0  0  0
    7.0400   -0.6157    1.4105 H   0  0  0  0  0  0  0  0  0  0  0  0
    5.7236   -0.0409    2.4413 H   0  0  0  0  0  0  0  0  0  0  0  0
    5.6229   -1.6211    1.6039 H   0  0  0  0  0  0  0  0  0  0  0  0
    5.9629    1.0530   -1.4080 H   0  0  0  0  0  0  0  0  0  0  0  0
    7.2290    0.8069   -0.2281 H   0  0  0  0  0  0  0  0  0  0  0  0
    6.0152    2.0565    0.0749 H   0  0  0  0  0  0  0  0  0  0  0  0
    3.8687    1.6810   -1.2752 H   0  0  0  0  0  0  0  0  0  0  0  0
    1.4713    1.9019   -1.3540 H   0  0  0  0  0  0  0  0  0  0  0  0
   -2.2329   -2.5502   -1.3834 H   0  0  0  0  0  0  0  0  0  0  0  0
   -1.9010   -1.0698   -2.3710 H   0  0  0  0  0  0  0  0  0  0  0  0
   -3.3695   -2.0334   -2.6580 H   0  0  0  0  0  0  0  0  0  0  0  0
   -5.2165   -1.2779   -1.7883 H   0  0  0  0  0  0  0  0  0  0  0  0
  1  2  1  0
  2  3  2  0
  3  4  1  0
  4  5  2  0
  5  6  1  0
  6  7  2  3
  7  8  1  0
  8  9  2  0
  9 10  1  0
 10 11  2  0
 11 12  1  0
 12 13  1  0
 12 14  1  0
 11 15  1  0
 15 16  2  0
  5 17  1  0
 17 18  1  0
 17 19  2  0
 19  2  1  0
 16  8  1  0
  1 20  1  0
  1 21  1  0
  1 22  1  0
  3 23  1  0
  4 24  1  0
  6 25  1  0
  7 26  1  0
  9 27  1  0
 10 28  1  0
 13 29  1  0
 13 30  1  0
 13 31  1  0
 14 32  1  0
 14 33  1  0
 14 34  1  0
 15 35  1  0
 16 36  1  0
 18 37  1  0
 18 38  1  0
 18 39  1  0
 19 40  1  0
M  CHG  1  17   1
M  END
$$$$
