
     RDKit          3D

 44 46  0  0  0  0  0  0  0  0999 V2000
    5.3602   -1.3927    3.2012 C   0  0  0  0  0  0  0  0  0  0  0  0
    4.7861   -0.9960    1.8713 C   0  0  0  0  0  0  0  0  0  0  0  0
    3.6655   -1.6639    1.3607 C   0  0  0  0  0  0  0  0  0  0  0  0
    3.1620   -1.3437    0.0966 C   0  0  0  0  0  0  0  0  0  0  0  0
    3.7795   -0.3504   -0.6725 C   0  0  0  0  0  0  0  0  0  0  0  0
    3.2920    0.0080   -2.0353 C   0  0  0  0  0  0  0  0  0  0  0  0
    4.0483    0.5093   -2.8599 O   0  0  0  0  0  0  0  0  0  0  0  0
    1.9617   -0.2320   -2.2920 N   0  0  0  0  0  0  0  0  0  0  0  0
    1.3747    0.1314   -3.5747 C   0  0  0  0  0  0  0  0  0  0  0  0
   -0.0717   -0.3291   -3.7247 C   0  0  0  0  0  0  0  0  0  0  0  0
   -0.7250   -0.2099   -4.7535 O   0  0  0  0  0  0  0  0  0  0  0  0
   -0.5440   -0.8518   -2.5575 O   0  0  0  0  0  0  0  0  0  0  0  0
   -1.9382   -1.1858   -2.5638 C   0  0  0  0  0  0  0  0  0  0  0  0
   -2.4728   -1.1229   -1.1683 C   0  0  0  0  0  0  0  0  0  0  0  0
   -2.3742   -2.0979   -0.1945 C   0  0  0  0  0  0  0  0  0  0  0  0
   -3.0914   -1.5497    1.2592 S   0  0  0  0  0  0  0  0  0  0  0  0
   -3.5034   -0.0536    0.5026 C   0  0  0  0  0  0  0  0  0  0  0  0
   -4.2395    1.0223    1.2013 C   0  0  0  0  0  0  0  0  0  0  0  0
   -4.6338    2.1525    0.4587 C   0  0  0  0  0  0  0  0  0  0  0  0
   -5.3455    3.2016    1.0480 C   0  0  0  0  0  0  0  0  0  0  0  0
   -5.6764    3.1423    2.3991 C   0  0  0  0  0  0  0  0  0  0  0  0
   -5.2903    2.0387    3.1578 C   0  0  0  0  0  0  0  0  0  0  0  0
   -4.5767    0.9871    2.5651 C   0  0  0  0  0  0  0  0  0  0  0  0
   -3.1140    0.0352   -0.7565 N   0  0  0  0  0  0  0  0  0  0  0  0
    4.9133    0.3026   -0.1744 C   0  0  0  0  0  0  0  0  0  0  0  0
    5.4109   -0.0159    1.0907 C   0  0  0  0  0  0  0  0  0  0  0  0
    5.9347   -0.5725    3.6494 H   0  0  0  0  0  0  0  0  0  0  0  0
    6.0239   -2.2544    3.0695 H   0  0  0  0  0  0  0  0  0  0  0  0
    4.5648   -1.6582    3.9052 H   0  0  0  0  0  0  0  0  0  0  0  0
    3.1876   -2.4515    1.9392 H   0  0  0  0  0  0  0  0  0  0  0  0
    2.3106   -1.9020   -0.2827 H   0  0  0  0  0  0  0  0  0  0  0  0
    1.3212   -0.3646   -1.5191 H   0  0  0  0  0  0  0  0  0  0  0  0
    1.9785   -0.3167   -4.3711 H   0  0  0  0  0  0  0  0  0  0  0  0
    1.4017    1.2235   -3.6545 H   0  0  0  0  0  0  0  0  0  0  0  0
   -2.5146   -0.4968   -3.1937 H   0  0  0  0  0  0  0  0  0  0  0  0
   -2.0500   -2.2003   -2.9622 H   0  0  0  0  0  0  0  0  0  0  0  0
   -1.9183   -3.0750   -0.2623 H   0  0  0  0  0  0  0  0  0  0  0  0
   -4.3863    2.2166   -0.6019 H   0  0  0  0  0  0  0  0  0  0  0  0
   -5.6416    4.0598    0.4488 H   0  0  0  0  0  0  0  0  0  0  0  0
   -6.2356    3.9554    2.8578 H   0  0  0  0  0  0  0  0  0  0  0  0
   -5.5490    1.9941    4.2143 H   0  0  0  0  0  0  0  0  0  0  0  0
   -4.2954    0.1468    3.1948 H   0  0  0  0  0  0  0  0  0  0  0  0
    5.4134    1.0617   -0.7730 H   0  0  0  0  0  0  0  0  0  0  0  0
    6.2972    0.4986    1.4566 H   0  0  0  0  0  0  0  0  0  0  0  0
  1  2  1  0
  2  3  2  0
  3  4  1  0
  4  5  2  0
  5  6  1  0
  6  7  2  0
  6  8  1  0
  8  9  1  0
  9 10  1  0
 10 11  2  0
 10 12  1  0
 12 13  1  0
 13 14  1  0
 14 15  2  0
 15 16  1  0
 16 17  1  0
 17 18  1  0
 18 19  2  0
 19 20  1  0
 20 21  2  0
 21 22  1  0
 22 23  2  0
 17 24  2  0
  5 25  1  0
 25 26  2  0
 26  2  1  0
 24 14  1  0
 23 18  1  0
  1 27  1  0
  1 28  1  0
  1 29  1  0
  3 30  1  0
  4 31  1  0
  8 32  1  0
  9 33  1  0
  9 34  1  0
 13 35  1  0
 13 36  1  0
 15 37  1  0
 19 38  1  0
 20 39  1  0
 21 40  1  0
 22 41  1  0
 23 42  1  0
 25 43  1  0
 26 44  1  0
M  END
$$$$
