
     RDKit          3D

 34 37  0  0  0  0  0  0  0  0999 V2000
   -3.4273   -2.2380    1.8795 C   0  0  0  0  0  0  0  0  0  0  0  0
   -2.9128   -0.9958    1.4168 O   0  0  0  0  0  0  0  0  0  0  0  0
   -3.5742   -0.3829    0.3827 C   0  0  0  0  0  0  0  0  0  0  0  0
   -4.7363   -0.8737   -0.2217 C   0  0  0  0  0  0  0  0  0  0  0  0
   -5.3400   -0.1704   -1.2691 C   0  0  0  0  0  0  0  0  0  0  0  0
   -4.7852    1.0264   -1.7140 C   0  0  0  0  0  0  0  0  0  0  0  0
   -5.6064    1.9717   -3.1298 Br  0  0  0  0  0  0  0  0  0  0  0  0
   -3.6294    1.5314   -1.1240 C   0  0  0  0  0  0  0  0  0  0  0  0
   -3.0184    0.8292   -0.0762 C   0  0  0  0  0  0  0  0  0  0  0  0
   -1.7943    1.3863    0.5159 C   0  0  0  0  0  0  0  0  0  0  0  0
   -0.5505    0.9836    0.2219 C   0  0  0  0  0  0  0  0  0  0  0  0
   -0.0863   -0.2510   -0.9359 S   0  0  0  0  0  0  0  0  0  0  0  0
    1.5601    0.0025   -0.5305 C   0  0  0  0  0  0  0  0  0  0  0  0
    2.6968   -0.5024   -0.9140 N   0  0  0  0  0  0  0  0  0  0  0  0
    3.5930    0.2211   -0.1374 C   0  0  0  0  0  0  0  0  0  0  0  0
    5.1369   -0.0123   -0.2220 C   0  0  0  0  0  0  0  0  0  0  0  0
    5.7626   -0.9287   -1.0456 C   0  0  0  0  0  0  0  0  0  0  0  0
    7.1532   -0.8098   -0.8060 C   0  0  0  0  0  0  0  0  0  0  0  0
    7.2919    0.1702    0.1477 C   0  0  0  0  0  0  0  0  0  0  0  0
    6.0781    0.6594    0.5080 O   0  0  0  0  0  0  0  0  0  0  0  0
    3.0358    1.1323    0.6860 N   0  0  0  0  0  0  0  0  0  0  0  0
    1.7346    0.9579    0.4042 N   0  0  0  0  0  0  0  0  0  0  0  0
    0.6244    1.5983    0.9111 C   0  0  0  0  0  0  0  0  0  0  0  0
    0.6622    2.4833    1.7462 O   0  0  0  0  0  0  0  0  0  0  0  0
   -4.4333   -2.1178    2.2945 H   0  0  0  0  0  0  0  0  0  0  0  0
   -2.7754   -2.5900    2.6847 H   0  0  0  0  0  0  0  0  0  0  0  0
   -3.4122   -2.9921    1.0858 H   0  0  0  0  0  0  0  0  0  0  0  0
   -5.2011   -1.8009    0.0976 H   0  0  0  0  0  0  0  0  0  0  0  0
   -6.2426   -0.5661   -1.7284 H   0  0  0  0  0  0  0  0  0  0  0  0
   -3.2025    2.4666   -1.4785 H   0  0  0  0  0  0  0  0  0  0  0  0
   -1.9616    2.1641    1.2592 H   0  0  0  0  0  0  0  0  0  0  0  0
    5.2655   -1.5985   -1.7339 H   0  0  0  0  0  0  0  0  0  0  0  0
    7.9543   -1.3678   -1.2698 H   0  0  0  0  0  0  0  0  0  0  0  0
    8.1403    0.6138    0.6501 H   0  0  0  0  0  0  0  0  0  0  0  0
  1  2  1  0
  2  3  1  0
  3  4  2  0
  4  5  1  0
  5  6  2  0
  6  7  1  0
  6  8  1  0
  8  9  2  0
  9 10  1  0
 10 11  2  3
 11 12  1  0
 12 13  1  0
 13 14  2  0
 14 15  1  0
 15 16  1  0
 16 17  2  0
 17 18  1  0
 18 19  2  0
 19 20  1  0
 15 21  2  0
 21 22  1  0
 22 23  1  0
 23 24  2  0
  9  3  1  0
 23 11  1  0
 22 13  1  0
 20 16  1  0
  1 25  1  0
  1 26  1  0
  1 27  1  0
  4 28  1  0
  5 29  1  0
  8 30  1  0
 10 31  1  0
 17 32  1  0
 18 33  1  0
 19 34  1  0
M  END
$$$$
