
     RDKit          3D

 53 55  0  0  0  0  0  0  0  0999 V2000
    8.3332    2.8104    0.4457 C   0  0  0  0  0  0  0  0  0  0  0  0
    7.8741    1.6872   -0.2962 O   0  0  0  0  0  0  0  0  0  0  0  0
    6.7450    1.0635    0.1568 C   0  0  0  0  0  0  0  0  0  0  0  0
    6.3541   -0.0492   -0.5952 C   0  0  0  0  0  0  0  0  0  0  0  0
    5.2174   -0.7819   -0.2485 C   0  0  0  0  0  0  0  0  0  0  0  0
    4.4523   -0.3824    0.8492 C   0  0  0  0  0  0  0  0  0  0  0  0
    3.0235   -1.3349    1.3212 S   0  0  0  0  0  6  0  0  0  0  0  0
    3.2150   -2.6785    0.8191 O   0  0  0  0  0  0  0  0  0  0  0  0
    2.7868   -1.0897    2.7279 O   0  0  0  0  0  0  0  0  0  0  0  0
    1.7571   -0.6520    0.4688 N   0  0  0  0  0  0  0  0  0  0  0  0
    1.7189   -0.7470   -0.9889 C   0  0  0  0  0  0  0  0  0  0  0  0
    0.6376    0.2504   -1.3376 C   0  0  0  0  0  0  0  0  0  0  0  0
    0.7902    1.2973   -0.3728 O   0  0  0  0  0  0  0  0  0  0  0  0
    1.2966    0.6968    0.8361 C   0  0  0  0  0  0  0  0  0  0  0  0
    0.1968    0.6427    1.9230 C   0  0  0  0  0  0  0  0  0  0  0  0
   -0.8673   -0.3031    1.6224 N   0  0  0  0  0  0  0  0  0  0  0  0
   -2.0965    0.0826    1.1471 C   0  0  0  0  0  0  0  0  0  0  0  0
   -2.5129    1.2283    1.0542 O   0  0  0  0  0  0  0  0  0  0  0  0
   -2.9859   -1.0999    0.6999 C   0  0  0  0  0  0  0  0  0  0  0  0
   -2.5543   -2.2434    0.7347 O   0  0  0  0  0  0  0  0  0  0  0  0
   -4.2408   -0.7202    0.2875 N   0  0  0  0  0  0  0  0  0  0  0  0
   -5.2756   -1.6921    0.0506 C   0  0  0  0  0  0  0  0  0  0  0  0
   -6.4227   -1.0937   -0.7184 C   0  0  0  0  0  0  0  0  0  0  0  0
   -6.4480   -1.2328   -2.1180 C   0  0  0  0  0  0  0  0  0  0  0  0
   -7.4836   -0.6819   -2.8752 C   0  0  0  0  0  0  0  0  0  0  0  0
   -8.5062    0.0239   -2.2477 C   0  0  0  0  0  0  0  0  0  0  0  0
   -8.4900    0.1836   -0.8627 C   0  0  0  0  0  0  0  0  0  0  0  0
   -7.4536   -0.3672   -0.1019 C   0  0  0  0  0  0  0  0  0  0  0  0
   -7.4876   -0.1041    1.6054 Cl  0  0  0  0  0  0  0  0  0  0  0  0
    4.8510    0.7087    1.6269 C   0  0  0  0  0  0  0  0  0  0  0  0
    5.9924    1.4363    1.2726 C   0  0  0  0  0  0  0  0  0  0  0  0
    8.5992    2.5255    1.4690 H   0  0  0  0  0  0  0  0  0  0  0  0
    7.5926    3.6169    0.4390 H   0  0  0  0  0  0  0  0  0  0  0  0
    9.2384    3.1856   -0.0415 H   0  0  0  0  0  0  0  0  0  0  0  0
    6.9499   -0.3525   -1.4537 H   0  0  0  0  0  0  0  0  0  0  0  0
    4.9447   -1.6578   -0.8327 H   0  0  0  0  0  0  0  0  0  0  0  0
    2.6668   -0.4238   -1.4271 H   0  0  0  0  0  0  0  0  0  0  0  0
    1.4729   -1.7525   -1.3371 H   0  0  0  0  0  0  0  0  0  0  0  0
    0.7423    0.6539   -2.3483 H   0  0  0  0  0  0  0  0  0  0  0  0
   -0.3628   -0.1817   -1.2337 H   0  0  0  0  0  0  0  0  0  0  0  0
    2.1129    1.3390    1.1754 H   0  0  0  0  0  0  0  0  0  0  0  0
    0.6222    0.3278    2.8800 H   0  0  0  0  0  0  0  0  0  0  0  0
   -0.2385    1.6395    2.0512 H   0  0  0  0  0  0  0  0  0  0  0  0
   -0.6379   -1.2931    1.5644 H   0  0  0  0  0  0  0  0  0  0  0  0
   -4.4889    0.2515    0.4574 H   0  0  0  0  0  0  0  0  0  0  0  0
   -4.8477   -2.5413   -0.4967 H   0  0  0  0  0  0  0  0  0  0  0  0
   -5.6028   -2.0963    1.0149 H   0  0  0  0  0  0  0  0  0  0  0  0
   -5.6526   -1.7741   -2.6281 H   0  0  0  0  0  0  0  0  0  0  0  0
   -7.4892   -0.8017   -3.9561 H   0  0  0  0  0  0  0  0  0  0  0  0
   -9.3124    0.4549   -2.8360 H   0  0  0  0  0  0  0  0  0  0  0  0
   -9.2875    0.7439   -0.3805 H   0  0  0  0  0  0  0  0  0  0  0  0
    4.2895    0.9967    2.5131 H   0  0  0  0  0  0  0  0  0  0  0  0
    6.2719    2.2819    1.8932 H   0  0  0  0  0  0  0  0  0  0  0  0
  1  2  1  0
  2  3  1  0
  3  4  2  0
  4  5  1  0
  5  6  2  0
  6  7  1  0
  7  8  2  0
  7  9  2  0
  7 10  1  0
 10 11  1  0
 11 12  1  0
 12 13  1  0
 13 14  1  0
 14 15  1  0
 15 16  1  0
 16 17  1  0
 17 18  2  0
 17 19  1  0
 19 20  2  0
 19 21  1  0
 21 22  1  0
 22 23  1  0
 23 24  2  0
 24 25  1  0
 25 26  2  0
 26 27  1  0
 27 28  2  0
 28 29  1  0
  6 30  1  0
 30 31  2  0
 31  3  1  0
 14 10  1  0
 28 23  1  0
  1 32  1  0
  1 33  1  0
  1 34  1  0
  4 35  1  0
  5 36  1  0
 11 37  1  0
 11 38  1  0
 12 39  1  0
 12 40  1  0
 14 41  1  0
 15 42  1  0
 15 43  1  0
 16 44  1  0
 21 45  1  0
 22 46  1  0
 22 47  1  0
 24 48  1  0
 25 49  1  0
 26 50  1  0
 27 51  1  0
 30 52  1  0
 31 53  1  0
M  END
$$$$
