
     RDKit          3D

 49 51  0  0  0  0  0  0  0  0999 V2000
    3.6414   -0.1716    2.8060 C   0  0  0  0  0  0  0  0  0  0  0  0
    2.8176    0.8891    2.3438 O   0  0  0  0  0  0  0  0  0  0  0  0
    2.6279    0.9974    0.9876 C   0  0  0  0  0  0  0  0  0  0  0  0
    3.3184    0.2394    0.0326 C   0  0  0  0  0  0  0  0  0  0  0  0
    3.0545    0.4058   -1.3277 C   0  0  0  0  0  0  0  0  0  0  0  0
    2.0915    1.3308   -1.7295 C   0  0  0  0  0  0  0  0  0  0  0  0
    1.7049    1.4951   -3.4589 S   0  0  0  0  0  6  0  0  0  0  0  0
    1.0140    2.7533   -3.6485 O   0  0  0  0  0  0  0  0  0  0  0  0
    2.9034    1.1777   -4.2067 O   0  0  0  0  0  0  0  0  0  0  0  0
    0.6198    0.2183   -3.7318 N   0  0  0  0  0  0  0  0  0  0  0  0
   -0.4948    0.1014   -2.8498 C   0  0  0  0  0  0  0  0  0  0  0  0
   -1.5294    1.0225   -2.9036 C   0  0  0  0  0  0  0  0  0  0  0  0
   -2.5519    0.9490   -1.9659 C   0  0  0  0  0  0  0  0  0  0  0  0
   -2.5276   -0.0261   -0.9497 C   0  0  0  0  0  0  0  0  0  0  0  0
   -1.4791   -0.9731   -0.8824 C   0  0  0  0  0  0  0  0  0  0  0  0
   -0.4791   -0.8918   -1.8635 C   0  0  0  0  0  0  0  0  0  0  0  0
   -1.4678   -1.9789    0.1612 N   0  0  0  0  0  0  0  0  0  0  0  0
   -0.4208   -2.9053    0.3251 C   0  0  0  0  0  0  0  0  0  0  0  0
   -0.6960   -4.0829    1.2365 C   0  0  0  0  0  0  0  0  0  0  0  0
    0.6929   -2.8380   -0.1977 O   0  0  0  0  0  0  0  0  0  0  0  0
   -2.6475   -2.0370    1.0366 C   0  0  0  0  0  0  0  0  0  0  0  0
   -3.2485   -0.6759    1.3302 C   0  0  0  0  0  0  0  0  0  0  0  0
   -3.6705   -0.0320    0.0293 C   0  0  0  0  0  0  0  0  0  0  0  0
    1.4172    2.1212   -0.7928 C   0  0  0  0  0  0  0  0  0  0  0  0
    1.6739    1.9508    0.5702 C   0  0  0  0  0  0  0  0  0  0  0  0
    1.0457    2.6541    1.5689 O   0  0  0  0  0  0  0  0  0  0  0  0
    0.0236    3.5647    1.1889 C   0  0  0  0  0  0  0  0  0  0  0  0
    3.6183   -0.1603    3.9000 H   0  0  0  0  0  0  0  0  0  0  0  0
    3.2611   -1.1442    2.4760 H   0  0  0  0  0  0  0  0  0  0  0  0
    4.6810   -0.0255    2.4953 H   0  0  0  0  0  0  0  0  0  0  0  0
    4.0645   -0.4952    0.3170 H   0  0  0  0  0  0  0  0  0  0  0  0
    3.5910   -0.1963   -2.0572 H   0  0  0  0  0  0  0  0  0  0  0  0
    1.1234   -0.6409   -3.9513 H   0  0  0  0  0  0  0  0  0  0  0  0
   -1.5440    1.7971   -3.6663 H   0  0  0  0  0  0  0  0  0  0  0  0
   -3.3664    1.6690   -2.0183 H   0  0  0  0  0  0  0  0  0  0  0  0
    0.3508   -1.5863   -1.8837 H   0  0  0  0  0  0  0  0  0  0  0  0
   -0.5918   -3.7799    2.2813 H   0  0  0  0  0  0  0  0  0  0  0  0
    0.0360   -4.8712    1.0318 H   0  0  0  0  0  0  0  0  0  0  0  0
   -1.6859   -4.5066    1.0489 H   0  0  0  0  0  0  0  0  0  0  0  0
   -3.3802   -2.6972    0.5559 H   0  0  0  0  0  0  0  0  0  0  0  0
   -2.3835   -2.4869    1.9979 H   0  0  0  0  0  0  0  0  0  0  0  0
   -2.5102   -0.0461    1.8435 H   0  0  0  0  0  0  0  0  0  0  0  0
   -4.1121   -0.7771    1.9967 H   0  0  0  0  0  0  0  0  0  0  0  0
   -4.5118   -0.5782   -0.4143 H   0  0  0  0  0  0  0  0  0  0  0  0
   -4.0063    0.9916    0.2335 H   0  0  0  0  0  0  0  0  0  0  0  0
    0.6859    2.8406   -1.1461 H   0  0  0  0  0  0  0  0  0  0  0  0
   -0.3862    4.0069    2.1021 H   0  0  0  0  0  0  0  0  0  0  0  0
    0.4275    4.3788    0.5783 H   0  0  0  0  0  0  0  0  0  0  0  0
   -0.7945    3.0496    0.6741 H   0  0  0  0  0  0  0  0  0  0  0  0
  1  2  1  0
  2  3  1  0
  3  4  2  0
  4  5  1  0
  5  6  2  0
  6  7  1  0
  7  8  2  0
  7  9  2  0
  7 10  1  0
 10 11  1  0
 11 12  2  0
 12 13  1  0
 13 14  2  0
 14 15  1  0
 15 16  2  0
 15 17  1  0
 17 18  1  0
 18 19  1  0
 18 20  2  0
 17 21  1  0
 21 22  1  0
 22 23  1  0
  6 24  1  0
 24 25  2  0
 25 26  1  0
 26 27  1  0
 25  3  1  0
 16 11  1  0
 23 14  1  0
  1 28  1  0
  1 29  1  0
  1 30  1  0
  4 31  1  0
  5 32  1  0
 10 33  1  0
 12 34  1  0
 13 35  1  0
 16 36  1  0
 19 37  1  0
 19 38  1  0
 19 39  1  0
 21 40  1  0
 21 41  1  0
 22 42  1  0
 22 43  1  0
 23 44  1  0
 23 45  1  0
 24 46  1  0
 27 47  1  0
 27 48  1  0
 27 49  1  0
M  END
$$$$
