
     RDKit          3D

 39 40  0  0  0  0  0  0  0  0999 V2000
    4.3951    0.1567    4.0358 C   0  0  0  0  0  0  0  0  0  0  0  0
    3.5363   -0.2090    2.8604 C   0  0  0  0  0  0  0  0  0  0  0  0
    3.9326    0.1136    1.5571 C   0  0  0  0  0  0  0  0  0  0  0  0
    3.1164   -0.2076    0.4698 C   0  0  0  0  0  0  0  0  0  0  0  0
    1.8900   -0.8521    0.6739 C   0  0  0  0  0  0  0  0  0  0  0  0
    1.0438   -1.1475   -0.5126 C   0  0  0  0  0  0  0  0  0  0  0  0
    1.2259   -0.6358   -1.6080 O   0  0  0  0  0  0  0  0  0  0  0  0
    0.0676   -2.0322   -0.1927 O   0  0  0  0  0  0  0  0  0  0  0  0
   -0.7795   -2.4276   -1.2762 C   0  0  0  0  0  0  0  0  0  0  0  0
   -1.9973   -1.5263   -1.4770 C   0  0  0  0  0  0  0  0  0  0  0  0
   -2.5896   -1.4677   -2.5486 O   0  0  0  0  0  0  0  0  0  0  0  0
   -2.4026   -0.8539   -0.3422 N   0  0  0  0  0  0  0  0  0  0  0  0
   -3.5034    0.0983   -0.3519 C   0  0  0  0  0  0  0  0  0  0  0  0
   -3.0582    1.5490   -0.5978 C   0  0  0  0  0  0  0  0  0  0  0  0
   -2.5977    1.7871   -1.9519 N   0  0  0  0  0  0  0  0  0  0  0  0
   -1.2845    1.7065   -2.3415 C   0  0  0  0  0  0  0  0  0  0  0  0
   -0.3313    1.4798   -1.3977 O   0  0  0  0  0  0  0  0  0  0  0  0
   -1.0838    1.8339   -3.6577 C   0  0  0  0  0  0  0  0  0  0  0  0
   -2.5847    2.0828   -4.5022 S   0  0  0  0  0  0  0  0  0  0  0  0
   -3.5015    1.9532   -2.9896 C   0  0  0  0  0  0  0  0  0  0  0  0
   -4.7188    2.0207   -2.9213 O   0  0  0  0  0  0  0  0  0  0  0  0
    1.4869   -1.1693    1.9770 C   0  0  0  0  0  0  0  0  0  0  0  0
    2.3070   -0.8467    3.0626 C   0  0  0  0  0  0  0  0  0  0  0  0
    4.4787   -0.6882    4.7245 H   0  0  0  0  0  0  0  0  0  0  0  0
    5.4086    0.4240    3.7197 H   0  0  0  0  0  0  0  0  0  0  0  0
    3.9637    1.0149    4.5653 H   0  0  0  0  0  0  0  0  0  0  0  0
    4.8780    0.6190    1.3786 H   0  0  0  0  0  0  0  0  0  0  0  0
    3.4464    0.0476   -0.5358 H   0  0  0  0  0  0  0  0  0  0  0  0
   -1.1524   -3.4312   -1.0451 H   0  0  0  0  0  0  0  0  0  0  0  0
   -0.2187   -2.4955   -2.2156 H   0  0  0  0  0  0  0  0  0  0  0  0
   -1.7712   -0.8581    0.4483 H   0  0  0  0  0  0  0  0  0  0  0  0
   -4.2416   -0.2117   -1.1003 H   0  0  0  0  0  0  0  0  0  0  0  0
   -3.9749    0.0298    0.6348 H   0  0  0  0  0  0  0  0  0  0  0  0
   -2.2812    1.8399    0.1168 H   0  0  0  0  0  0  0  0  0  0  0  0
   -3.9188    2.2067   -0.4214 H   0  0  0  0  0  0  0  0  0  0  0  0
    0.4311    1.0561   -1.8472 H   0  0  0  0  0  0  0  0  0  0  0  0
   -0.1306    1.7898   -4.1636 H   0  0  0  0  0  0  0  0  0  0  0  0
    0.5349   -1.6566    2.1665 H   0  0  0  0  0  0  0  0  0  0  0  0
    1.9796   -1.0925    4.0707 H   0  0  0  0  0  0  0  0  0  0  0  0
  1  2  1  0
  2  3  2  0
  3  4  1  0
  4  5  2  0
  5  6  1  0
  6  7  2  0
  6  8  1  0
  8  9  1  0
  9 10  1  0
 10 11  2  0
 10 12  1  0
 12 13  1  0
 13 14  1  0
 14 15  1  0
 15 16  1  0
 16 17  1  0
 16 18  2  0
 18 19  1  0
 19 20  1  0
 20 21  2  0
  5 22  1  0
 22 23  2  0
 23  2  1  0
 20 15  1  0
  1 24  1  0
  1 25  1  0
  1 26  1  0
  3 27  1  0
  4 28  1  0
  9 29  1  0
  9 30  1  0
 12 31  1  0
 13 32  1  0
 13 33  1  0
 14 34  1  0
 14 35  1  0
 17 36  1  0
 18 37  1  0
 22 38  1  0
 23 39  1  0
M  END
$$$$
