
     RDKit          3D

 41 44  0  0  0  0  0  0  0  0999 V2000
   -1.8478    1.2541   -3.8670 O   0  0  0  0  0  0  0  0  0  0  0  0
   -1.6521    1.2577   -2.4317 S   0  0  0  0  0  6  0  0  0  0  0  0
   -1.6256    2.4978   -1.6885 O   0  0  0  0  0  0  0  0  0  0  0  0
   -0.2197    0.4003   -2.1626 N   0  0  0  0  0  0  0  0  0  0  0  0
    0.3997    0.5039   -0.8778 C   0  0  0  0  0  0  0  0  0  0  0  0
   -0.0113   -0.4034    0.1027 C   0  0  0  0  0  0  0  0  0  0  0  0
    0.5334   -0.3622    1.3872 C   0  0  0  0  0  0  0  0  0  0  0  0
   -0.1247   -1.5096    2.5908 S   0  0  0  0  0  0  0  0  0  0  0  0
    1.2545   -2.5126    2.9300 C   0  0  0  0  0  0  0  0  0  0  0  0
    2.4299   -1.9978    3.4150 N   0  0  0  0  0  0  0  0  0  0  0  0
    3.1801   -3.0666    3.5541 C   0  0  0  0  0  0  0  0  0  0  0  0
    2.4769   -4.1680    3.1787 N   0  0  0  0  0  0  0  0  0  0  0  0
    1.2378   -3.8390    2.7812 N   0  0  0  0  0  0  0  0  0  0  0  0
    1.5034    0.6105    1.6739 C   0  0  0  0  0  0  0  0  0  0  0  0
    2.0794    0.6862    2.9222 O   0  0  0  0  0  0  0  0  0  0  0  0
    1.9242    1.5507    0.7035 C   0  0  0  0  0  0  0  0  0  0  0  0
    2.8916    2.5374    0.9926 C   0  0  0  0  0  0  0  0  0  0  0  0
    3.3015    3.4641    0.0349 C   0  0  0  0  0  0  0  0  0  0  0  0
    2.7495    3.4269   -1.2365 C   0  0  0  0  0  0  0  0  0  0  0  0
    1.7926    2.4601   -1.5488 C   0  0  0  0  0  0  0  0  0  0  0  0
    1.3629    1.5039   -0.5969 C   0  0  0  0  0  0  0  0  0  0  0  0
   -2.8812    0.1907   -1.7261 C   0  0  0  0  0  0  0  0  0  0  0  0
   -3.4355    0.4986   -0.4800 C   0  0  0  0  0  0  0  0  0  0  0  0
   -4.4003   -0.3462    0.0678 C   0  0  0  0  0  0  0  0  0  0  0  0
   -4.8140   -1.4812   -0.6321 C   0  0  0  0  0  0  0  0  0  0  0  0
   -4.2691   -1.7749   -1.8837 C   0  0  0  0  0  0  0  0  0  0  0  0
   -3.3020   -0.9367   -2.4380 C   0  0  0  0  0  0  0  0  0  0  0  0
    0.3861    0.4265   -2.9814 H   0  0  0  0  0  0  0  0  0  0  0  0
   -0.7580   -1.1555   -0.1429 H   0  0  0  0  0  0  0  0  0  0  0  0
    4.2000   -3.1044    3.9105 H   0  0  0  0  0  0  0  0  0  0  0  0
    2.7625   -5.1412    3.1696 H   0  0  0  0  0  0  0  0  0  0  0  0
    2.0851   -0.2154    3.3066 H   0  0  0  0  0  0  0  0  0  0  0  0
    3.3308    2.5904    1.9879 H   0  0  0  0  0  0  0  0  0  0  0  0
    4.0428    4.2166    0.2897 H   0  0  0  0  0  0  0  0  0  0  0  0
    3.0526    4.1544   -1.9849 H   0  0  0  0  0  0  0  0  0  0  0  0
    1.3685    2.4774   -2.5498 H   0  0  0  0  0  0  0  0  0  0  0  0
   -3.1186    1.3830    0.0689 H   0  0  0  0  0  0  0  0  0  0  0  0
   -4.8323   -0.1193    1.0398 H   0  0  0  0  0  0  0  0  0  0  0  0
   -5.5683   -2.1365   -0.2024 H   0  0  0  0  0  0  0  0  0  0  0  0
   -4.6020   -2.6559   -2.4272 H   0  0  0  0  0  0  0  0  0  0  0  0
   -2.8834   -1.1647   -3.4154 H   0  0  0  0  0  0  0  0  0  0  0  0
  1  2  2  0
  2  3  2  0
  2  4  1  0
  4  5  1  0
  5  6  2  0
  6  7  1  0
  7  8  1  0
  8  9  1  0
  9 10  1  0
 10 11  2  0
 11 12  1  0
 12 13  1  0
  7 14  2  0
 14 15  1  0
 14 16  1  0
 16 17  2  0
 17 18  1  0
 18 19  2  0
 19 20  1  0
 20 21  2  0
  2 22  1  0
 22 23  2  0
 23 24  1  0
 24 25  2  0
 25 26  1  0
 26 27  2  0
 21  5  1  0
 27 22  1  0
 13  9  2  0
 21 16  1  0
  4 28  1  0
  6 29  1  0
 11 30  1  0
 12 31  1  0
 15 32  1  0
 17 33  1  0
 18 34  1  0
 19 35  1  0
 20 36  1  0
 23 37  1  0
 24 38  1  0
 25 39  1  0
 26 40  1  0
 27 41  1  0
M  END
$$$$
