
     RDKit          3D

 43 45  0  0  0  0  0  0  0  0999 V2000
   -7.0657    1.3549    1.8489 C   0  0  0  0  0  0  0  0  0  0  0  0
   -5.7346    1.2698    1.2735 N   0  0  0  0  0  0  0  0  0  0  0  0
   -5.1579    2.5272    0.8172 C   0  0  0  0  0  0  0  0  0  0  0  0
   -5.2767    0.0107    0.8839 C   0  0  0  0  0  0  0  0  0  0  0  0
   -5.9616   -1.0083    0.9365 O   0  0  0  0  0  0  0  0  0  0  0  0
   -3.8839   -0.1281    0.4037 C   0  0  0  0  0  0  0  0  0  0  0  0
   -3.6452   -0.7547   -0.8203 C   0  0  0  0  0  0  0  0  0  0  0  0
   -2.3326   -0.9174   -1.2781 C   0  0  0  0  0  0  0  0  0  0  0  0
   -1.2533   -0.4736   -0.5091 C   0  0  0  0  0  0  0  0  0  0  0  0
    0.0931   -0.6021   -0.8954 N   0  0  0  0  0  0  0  0  0  0  0  0
    0.6071   -1.1377   -2.0635 C   0  0  0  0  0  0  0  0  0  0  0  0
   -0.0533   -1.5886   -2.9930 O   0  0  0  0  0  0  0  0  0  0  0  0
    2.0592   -1.1116   -2.0944 C   0  0  0  0  0  0  0  0  0  0  0  0
    2.9544   -1.5413   -3.0526 C   0  0  0  0  0  0  0  0  0  0  0  0
    4.2496   -1.2675   -2.5509 C   0  0  0  0  0  0  0  0  0  0  0  0
    4.0842   -0.6833   -1.3096 C   0  0  0  0  0  0  0  0  0  0  0  0
    5.0000   -0.1754   -0.2890 C   0  0  0  0  0  0  0  0  0  0  0  0
    4.5236    0.3589    0.9193 C   0  0  0  0  0  0  0  0  0  0  0  0
    5.4061    0.8429    1.8916 C   0  0  0  0  0  0  0  0  0  0  0  0
    6.7781    0.7965    1.6646 C   0  0  0  0  0  0  0  0  0  0  0  0
    7.8646    1.3914    2.8574 Cl  0  0  0  0  0  0  0  0  0  0  0  0
    7.2739    0.2707    0.4754 C   0  0  0  0  0  0  0  0  0  0  0  0
    6.3886   -0.2121   -0.4952 C   0  0  0  0  0  0  0  0  0  0  0  0
    2.7479   -0.5867   -1.0306 O   0  0  0  0  0  0  0  0  0  0  0  0
   -1.5040    0.1302    0.7321 C   0  0  0  0  0  0  0  0  0  0  0  0
   -2.8131    0.2989    1.1928 C   0  0  0  0  0  0  0  0  0  0  0  0
   -7.3492    0.4171    2.3354 H   0  0  0  0  0  0  0  0  0  0  0  0
   -7.7812    1.5722    1.0504 H   0  0  0  0  0  0  0  0  0  0  0  0
   -7.0860    2.1569    2.5925 H   0  0  0  0  0  0  0  0  0  0  0  0
   -4.2289    2.3956    0.2617 H   0  0  0  0  0  0  0  0  0  0  0  0
   -4.9749    3.1639    1.6873 H   0  0  0  0  0  0  0  0  0  0  0  0
   -5.8767    3.0184    0.1536 H   0  0  0  0  0  0  0  0  0  0  0  0
   -4.4769   -1.1207   -1.4184 H   0  0  0  0  0  0  0  0  0  0  0  0
   -2.1910   -1.4061   -2.2375 H   0  0  0  0  0  0  0  0  0  0  0  0
    0.7952   -0.2660   -0.2455 H   0  0  0  0  0  0  0  0  0  0  0  0
    2.6907   -1.9981   -3.9974 H   0  0  0  0  0  0  0  0  0  0  0  0
    5.1895   -1.4760   -3.0422 H   0  0  0  0  0  0  0  0  0  0  0  0
    3.4558    0.4044    1.1201 H   0  0  0  0  0  0  0  0  0  0  0  0
    5.0147    1.2509    2.8195 H   0  0  0  0  0  0  0  0  0  0  0  0
    8.3450    0.2323    0.2947 H   0  0  0  0  0  0  0  0  0  0  0  0
    6.8040   -0.6173   -1.4148 H   0  0  0  0  0  0  0  0  0  0  0  0
   -0.6848    0.4711    1.3601 H   0  0  0  0  0  0  0  0  0  0  0  0
   -2.9939    0.7498    2.1651 H   0  0  0  0  0  0  0  0  0  0  0  0
  1  2  1  0
  2  3  1  0
  2  4  1  0
  4  5  2  0
  4  6  1  0
  6  7  2  0
  7  8  1  0
  8  9  2  0
  9 10  1  0
 10 11  1  0
 11 12  2  0
 11 13  1  0
 13 14  2  0
 14 15  1  0
 15 16  2  0
 16 17  1  0
 17 18  2  0
 18 19  1  0
 19 20  2  0
 20 21  1  0
 20 22  1  0
 22 23  2  0
 16 24  1  0
  9 25  1  0
 25 26  2  0
 26  6  1  0
 24 13  1  0
 23 17  1  0
  1 27  1  0
  1 28  1  0
  1 29  1  0
  3 30  1  0
  3 31  1  0
  3 32  1  0
  7 33  1  0
  8 34  1  0
 10 35  1  0
 14 36  1  0
 15 37  1  0
 18 38  1  0
 19 39  1  0
 22 40  1  0
 23 41  1  0
 25 42  1  0
 26 43  1  0
M  END
$$$$
