
     RDKit          3D

 48 51  0  0  0  0  0  0  0  0999 V2000
    6.2752    0.2870   -2.6451 C   0  0  0  0  0  0  0  0  0  0  0  0
    5.5885    0.1425   -1.3501 C   0  0  0  0  0  0  0  0  0  0  0  0
    4.3154    0.3921   -0.9028 C   0  0  0  0  0  0  0  0  0  0  0  0
    4.3341    0.0289    0.4742 C   0  0  0  0  0  0  0  0  0  0  0  0
    3.2509    0.0802    1.4670 C   0  0  0  0  0  0  0  0  0  0  0  0
    3.4261   -0.1016    2.6695 O   0  0  0  0  0  0  0  0  0  0  0  0
    1.9940    0.3405    0.9521 N   0  0  0  0  0  0  0  0  0  0  0  0
    0.8192    0.3459    1.8001 C   0  0  0  0  0  0  0  0  0  0  0  0
    0.3610   -1.0804    2.1916 C   0  0  0  0  0  0  0  0  0  0  0  0
   -0.4934   -1.8254    1.1170 C   0  0  0  0  0  0  0  0  0  0  0  0
    0.3412   -2.1579   -0.1360 C   0  0  0  0  0  0  0  0  0  0  0  0
   -0.9724   -3.1611    1.7225 C   0  0  0  0  0  0  0  0  0  0  0  0
   -1.7446   -0.9833    0.7166 C   0  0  0  0  0  0  0  0  0  0  0  0
   -1.4124    0.4656    0.5723 C   0  0  0  0  0  0  0  0  0  0  0  0
   -0.2596    1.0564    1.0602 C   0  0  0  0  0  0  0  0  0  0  0  0
   -0.3493    2.3952    0.6680 C   0  0  0  0  0  0  0  0  0  0  0  0
   -1.4465    2.6386   -0.0425 N   0  0  0  0  0  0  0  0  0  0  0  0
   -2.1520    1.4688   -0.0453 N   0  0  0  0  0  0  0  0  0  0  0  0
   -3.4518    1.4542   -0.6447 C   0  0  0  0  0  0  0  0  0  0  0  0
   -3.8545    2.5705   -1.4069 C   0  0  0  0  0  0  0  0  0  0  0  0
   -5.1111    2.6072   -2.0167 C   0  0  0  0  0  0  0  0  0  0  0  0
   -5.9757    1.5349   -1.8609 C   0  0  0  0  0  0  0  0  0  0  0  0
   -7.1818    1.5653   -2.4415 F   0  0  0  0  0  0  0  0  0  0  0  0
   -5.6088    0.4322   -1.1007 C   0  0  0  0  0  0  0  0  0  0  0  0
   -4.3502    0.3910   -0.4880 C   0  0  0  0  0  0  0  0  0  0  0  0
    5.5594   -0.4063    0.8164 N   0  0  0  0  0  0  0  0  0  0  0  0
    6.3340   -0.3363   -0.3227 O   0  0  0  0  0  0  0  0  0  0  0  0
    5.5839    0.6356   -3.4185 H   0  0  0  0  0  0  0  0  0  0  0  0
    6.6913   -0.6720   -2.9691 H   0  0  0  0  0  0  0  0  0  0  0  0
    7.0930    1.0100   -2.5666 H   0  0  0  0  0  0  0  0  0  0  0  0
    3.5002    0.7898   -1.4877 H   0  0  0  0  0  0  0  0  0  0  0  0
    1.8578    0.3747   -0.0464 H   0  0  0  0  0  0  0  0  0  0  0  0
    1.0682    0.8972    2.7153 H   0  0  0  0  0  0  0  0  0  0  0  0
    1.2238   -1.6959    2.4758 H   0  0  0  0  0  0  0  0  0  0  0  0
   -0.2548   -0.9871    3.0981 H   0  0  0  0  0  0  0  0  0  0  0  0
    1.2782   -2.6571    0.1348 H   0  0  0  0  0  0  0  0  0  0  0  0
    0.5871   -1.2687   -0.7222 H   0  0  0  0  0  0  0  0  0  0  0  0
   -0.2090   -2.8307   -0.8044 H   0  0  0  0  0  0  0  0  0  0  0  0
   -0.1237   -3.8019    1.9857 H   0  0  0  0  0  0  0  0  0  0  0  0
   -1.6042   -3.7126    1.0169 H   0  0  0  0  0  0  0  0  0  0  0  0
   -1.5590   -2.9969    2.6334 H   0  0  0  0  0  0  0  0  0  0  0  0
   -2.5049   -1.0776    1.5020 H   0  0  0  0  0  0  0  0  0  0  0  0
   -2.1597   -1.3833   -0.2150 H   0  0  0  0  0  0  0  0  0  0  0  0
    0.3521    3.2016    0.8447 H   0  0  0  0  0  0  0  0  0  0  0  0
   -3.1919    3.4247   -1.5425 H   0  0  0  0  0  0  0  0  0  0  0  0
   -5.4154    3.4660   -2.6061 H   0  0  0  0  0  0  0  0  0  0  0  0
   -6.3105   -0.3877   -0.9786 H   0  0  0  0  0  0  0  0  0  0  0  0
   -4.1371   -0.4728    0.1267 H   0  0  0  0  0  0  0  0  0  0  0  0
  1  2  1  0
  2  3  2  0
  3  4  1  0
  4  5  1  0
  5  6  2  0
  5  7  1  0
  7  8  1  0
  8  9  1  0
  9 10  1  0
 10 11  1  0
 10 12  1  0
 10 13  1  0
 13 14  1  0
 14 15  2  0
 15 16  1  0
 16 17  2  0
 17 18  1  0
 18 19  1  0
 19 20  2  0
 20 21  1  0
 21 22  2  0
 22 23  1  0
 22 24  1  0
 24 25  2  0
  4 26  2  0
 26 27  1  0
 27  2  1  0
 15  8  1  0
 25 19  1  0
 18 14  1  0
  1 28  1  0
  1 29  1  0
  1 30  1  0
  3 31  1  0
  7 32  1  0
  8 33  1  0
  9 34  1  0
  9 35  1  0
 11 36  1  0
 11 37  1  0
 11 38  1  0
 12 39  1  0
 12 40  1  0
 12 41  1  0
 13 42  1  0
 13 43  1  0
 16 44  1  0
 20 45  1  0
 21 46  1  0
 24 47  1  0
 25 48  1  0
M  END
$$$$
