
     RDKit          3D

 69 75  0  0  0  0  0  0  0  0999 V2000
   -4.2358    5.3798    0.2368 C   0  0  0  0  0  0  0  0  0  0  0  0
   -3.3241    4.2822   -0.2256 C   0  0  0  0  0  0  0  0  0  0  0  0
   -2.9817    4.1134   -1.5803 C   0  0  0  0  0  0  0  0  0  0  0  0
   -3.5967    5.1710   -2.8053 Cl  0  0  0  0  0  0  0  0  0  0  0  0
   -2.1399    3.0646   -2.0024 C   0  0  0  0  0  0  0  0  0  0  0  0
   -1.6198    2.1486   -1.0867 C   0  0  0  0  0  0  0  0  0  0  0  0
   -1.9598    2.2940    0.2506 C   0  0  0  0  0  0  0  0  0  0  0  0
   -2.8113    3.3350    0.6541 C   0  0  0  0  0  0  0  0  0  0  0  0
   -3.0662    3.2290    2.0189 N   0  0  0  0  0  0  0  0  0  0  0  0
   -2.4154    2.1335    2.5909 C   0  0  0  0  0  0  0  0  0  0  0  0
   -2.5211    1.8113    3.7645 O   0  0  0  0  0  0  0  0  0  0  0  0
   -1.5919    1.4608    1.4558 C   0  0  1  0  0  0  0  0  0  0  0  0
   -1.9962    0.0664    1.1682 C   0  0  0  0  0  0  0  0  0  0  0  0
   -0.9194   -0.7997    1.3504 C   0  0  0  0  0  0  0  0  0  0  0  0
   -1.3238   -2.0787    1.0916 C   0  0  0  0  0  0  0  0  0  0  0  0
   -0.6331   -3.2043    1.2675 O   0  0  0  0  0  0  0  0  0  0  0  0
   -2.6596   -2.0097    0.6457 N   0  0  0  0  0  0  0  0  0  0  0  0
   -3.4240   -3.0996    0.1183 C   0  0  0  0  0  0  0  0  0  0  0  0
   -2.7853   -4.1332   -0.5854 C   0  0  0  0  0  0  0  0  0  0  0  0
   -3.5265   -5.1967   -1.1070 C   0  0  0  0  0  0  0  0  0  0  0  0
   -4.9077   -5.2348   -0.9369 C   0  0  0  0  0  0  0  0  0  0  0  0
   -5.5510   -4.2070   -0.2509 C   0  0  0  0  0  0  0  0  0  0  0  0
   -4.8147   -3.1401    0.2722 C   0  0  0  0  0  0  0  0  0  0  0  0
   -3.0853   -0.6706    0.7695 C   0  0  0  0  0  0  0  0  0  0  0  0
   -4.3148   -0.2754    0.4484 O   0  0  0  0  0  0  0  0  0  0  0  0
    0.2901   -0.0977    1.8261 C   0  0  1  0  0  0  0  0  0  0  0  0
    1.5392   -0.3704    0.9629 C   0  0  0  0  0  0  0  0  0  0  0  0
    2.6309    0.5895    1.1928 N   0  0  0  0  0  0  0  0  0  0  0  0
    3.9778    0.3263    1.0312 C   0  0  0  0  0  0  0  0  0  0  0  0
    4.8498    1.1218    1.3696 O   0  0  0  0  0  0  0  0  0  0  0  0
    4.2684   -0.8905    0.4798 N   0  0  0  0  0  0  0  0  0  0  0  0
    5.6294   -1.2881    0.1947 C   0  0  0  0  0  0  0  0  0  0  0  0
    5.9082   -1.2117   -1.2854 C   0  0  0  0  0  0  0  0  0  0  0  0
    6.2171    0.0189   -1.8837 C   0  0  0  0  0  0  0  0  0  0  0  0
    6.4532    0.1006   -3.2573 C   0  0  0  0  0  0  0  0  0  0  0  0
    6.3774   -1.0460   -4.0465 C   0  0  0  0  0  0  0  0  0  0  0  0
    6.0613   -2.2734   -3.4643 C   0  0  0  0  0  0  0  0  0  0  0  0
    5.8239   -2.3569   -2.0907 C   0  0  0  0  0  0  0  0  0  0  0  0
    2.2433    1.9051    1.7127 C   0  0  0  0  0  0  0  0  0  0  0  0
    0.8042    2.2833    1.3182 C   0  0  0  0  0  0  0  0  0  0  0  0
   -0.1621    1.3330    1.8573 N   0  0  0  0  0  0  0  0  0  0  0  0
   -4.1188    5.5847    1.3050 H   0  0  0  0  0  0  0  0  0  0  0  0
   -4.0106    6.3233   -0.2712 H   0  0  0  0  0  0  0  0  0  0  0  0
   -5.2806    5.1115    0.0440 H   0  0  0  0  0  0  0  0  0  0  0  0
   -1.8951    2.9574   -3.0589 H   0  0  0  0  0  0  0  0  0  0  0  0
   -0.9797    1.3371   -1.4213 H   0  0  0  0  0  0  0  0  0  0  0  0
   -3.6624    3.8339    2.5653 H   0  0  0  0  0  0  0  0  0  0  0  0
   -1.2680   -3.9309    1.4170 H   0  0  0  0  0  0  0  0  0  0  0  0
   -1.7179   -4.1070   -0.7916 H   0  0  0  0  0  0  0  0  0  0  0  0
   -3.0271   -5.9862   -1.6631 H   0  0  0  0  0  0  0  0  0  0  0  0
   -5.4853   -6.0594   -1.3471 H   0  0  0  0  0  0  0  0  0  0  0  0
   -6.6300   -4.2326   -0.1216 H   0  0  0  0  0  0  0  0  0  0  0  0
   -5.3494   -2.3698    0.8216 H   0  0  0  0  0  0  0  0  0  0  0  0
   -4.3651    0.6905    0.5588 H   0  0  0  0  0  0  0  0  0  0  0  0
    0.5042   -0.3870    2.8624 H   0  0  0  0  0  0  0  0  0  0  0  0
    1.8924   -1.3903    1.1536 H   0  0  0  0  0  0  0  0  0  0  0  0
    1.2951   -0.3053   -0.1056 H   0  0  0  0  0  0  0  0  0  0  0  0
    3.5639   -1.3016   -0.1104 H   0  0  0  0  0  0  0  0  0  0  0  0
    5.7419   -2.3202    0.5474 H   0  0  0  0  0  0  0  0  0  0  0  0
    6.3504   -0.6779    0.7516 H   0  0  0  0  0  0  0  0  0  0  0  0
    6.2710    0.9210   -1.2751 H   0  0  0  0  0  0  0  0  0  0  0  0
    6.6953    1.0598   -3.7092 H   0  0  0  0  0  0  0  0  0  0  0  0
    6.5628   -0.9828   -5.1156 H   0  0  0  0  0  0  0  0  0  0  0  0
    5.9997   -3.1660   -4.0822 H   0  0  0  0  0  0  0  0  0  0  0  0
    5.5753   -3.3212   -1.6524 H   0  0  0  0  0  0  0  0  0  0  0  0
    2.3464    1.8661    2.8046 H   0  0  0  0  0  0  0  0  0  0  0  0
    2.9381    2.6668    1.3424 H   0  0  0  0  0  0  0  0  0  0  0  0
    0.5811    3.2898    1.6919 H   0  0  0  0  0  0  0  0  0  0  0  0
    0.7652    2.3129    0.2231 H   0  0  0  0  0  0  0  0  0  0  0  0
  1  2  1  0
  2  3  2  0
  3  4  1  0
  3  5  1  0
  5  6  2  0
  6  7  1  0
  7  8  2  0
  8  9  1  0
  9 10  1  0
 10 11  2  0
 10 12  1  0
 12 13  1  0
 13 14  1  0
 14 15  2  0
 15 16  1  0
 15 17  1  0
 17 18  1  0
 18 19  2  0
 19 20  1  0
 20 21  2  0
 21 22  1  0
 22 23  2  0
 17 24  1  0
 24 25  1  0
 14 26  1  0
 26 27  1  0
 27 28  1  0
 28 29  1  0
 29 30  2  0
 29 31  1  0
 31 32  1  0
 32 33  1  0
 33 34  2  0
 34 35  1  0
 35 36  2  0
 36 37  1  0
 37 38  2  0
 28 39  1  0
 39 40  1  0
 40 41  1  0
  8  2  1  0
 12 41  1  1
 12  7  1  0
 24 13  2  0
 41 26  1  0
 23 18  1  0
 38 33  1  0
  1 42  1  0
  1 43  1  0
  1 44  1  0
  5 45  1  0
  6 46  1  0
  9 47  1  0
 16 48  1  0
 19 49  1  0
 20 50  1  0
 21 51  1  0
 22 52  1  0
 23 53  1  0
 25 54  1  0
 26 55  1  1
 27 56  1  0
 27 57  1  0
 31 58  1  0
 32 59  1  0
 32 60  1  0
 34 61  1  0
 35 62  1  0
 36 63  1  0
 37 64  1  0
 38 65  1  0
 39 66  1  0
 39 67  1  0
 40 68  1  0
 40 69  1  0
M  END
$$$$
