
     RDKit          3D

 59 62  0  0  0  0  0  0  0  0999 V2000
    8.5699    3.0105    1.3541 C   0  0  0  0  0  0  0  0  0  0  0  0
    8.8944    1.8481    0.5985 O   0  0  0  0  0  0  0  0  0  0  0  0
    7.8526    1.0648    0.1859 C   0  0  0  0  0  0  0  0  0  0  0  0
    8.2297   -0.1243   -0.4478 C   0  0  0  0  0  0  0  0  0  0  0  0
    7.2649   -1.0186   -0.9238 C   0  0  0  0  0  0  0  0  0  0  0  0
    5.9038   -0.7201   -0.7926 C   0  0  0  0  0  0  0  0  0  0  0  0
    4.9092   -1.6888   -1.3628 C   0  0  0  0  0  0  0  0  0  0  0  0
    5.2678   -2.8380   -1.6233 O   0  0  0  0  0  0  0  0  0  0  0  0
    3.4931   -1.2253   -1.6322 C   0  0  0  0  0  0  0  0  0  0  0  0
    2.4251   -1.7041   -0.2432 S   0  0  0  0  0  0  0  0  0  0  0  0
    1.2133   -0.4737   -0.3408 C   0  0  0  0  0  0  0  0  0  0  0  0
    1.4177    0.7486   -0.7733 N   0  0  0  0  0  0  0  0  0  0  0  0
    0.2316    1.4298   -0.6778 N   0  0  0  0  0  0  0  0  0  0  0  0
   -0.6725    0.6127   -0.1715 C   0  0  0  0  0  0  0  0  0  0  0  0
   -2.1027    0.9469    0.1058 C   0  0  0  0  0  0  0  0  0  0  0  0
   -3.0343    0.1913   -0.7359 N   0  0  0  0  0  0  0  0  0  0  0  0
   -4.4168    0.4154   -0.6059 C   0  0  0  0  0  0  0  0  0  0  0  0
   -4.9924    0.9023    0.5725 C   0  0  0  0  0  0  0  0  0  0  0  0
   -6.3770    1.0691    0.7044 C   0  0  0  0  0  0  0  0  0  0  0  0
   -7.2351    0.7186   -0.3365 C   0  0  0  0  0  0  0  0  0  0  0  0
   -8.7162    0.9120   -0.1903 C   0  0  0  0  0  0  0  0  0  0  0  0
   -6.6841    0.1738   -1.5012 C   0  0  0  0  0  0  0  0  0  0  0  0
   -5.2914    0.0002   -1.6404 C   0  0  0  0  0  0  0  0  0  0  0  0
   -4.7804   -0.6374   -2.9098 C   0  0  0  0  0  0  0  0  0  0  0  0
   -0.0911   -0.6201    0.0475 N   0  0  0  0  0  0  0  0  0  0  0  0
   -0.7627   -1.8283    0.4895 C   0  0  0  0  0  0  0  0  0  0  0  0
   -1.2000   -1.7371    1.9052 C   0  0  0  0  0  0  0  0  0  0  0  0
   -2.4270   -1.8777    2.5242 C   0  0  0  0  0  0  0  0  0  0  0  0
   -2.2035   -1.6821    3.9086 C   0  0  0  0  0  0  0  0  0  0  0  0
   -0.8590   -1.4326    4.0468 C   0  0  0  0  0  0  0  0  0  0  0  0
   -0.2400   -1.4781    2.8372 O   0  0  0  0  0  0  0  0  0  0  0  0
    5.5258    0.4719   -0.1605 C   0  0  0  0  0  0  0  0  0  0  0  0
    6.4957    1.3569    0.3272 C   0  0  0  0  0  0  0  0  0  0  0  0
    9.5078    3.5052    1.6297 H   0  0  0  0  0  0  0  0  0  0  0  0
    8.0477    2.7449    2.2788 H   0  0  0  0  0  0  0  0  0  0  0  0
    7.9846    3.7165    0.7524 H   0  0  0  0  0  0  0  0  0  0  0  0
    9.2854   -0.3559   -0.5711 H   0  0  0  0  0  0  0  0  0  0  0  0
    7.5846   -1.9378   -1.4120 H   0  0  0  0  0  0  0  0  0  0  0  0
    3.4861   -0.1518   -1.8412 H   0  0  0  0  0  0  0  0  0  0  0  0
    3.1396   -1.7154   -2.5481 H   0  0  0  0  0  0  0  0  0  0  0  0
   -2.2908    0.7619    1.1674 H   0  0  0  0  0  0  0  0  0  0  0  0
   -2.2472    2.0226   -0.0666 H   0  0  0  0  0  0  0  0  0  0  0  0
   -2.7578    0.2780   -1.7142 H   0  0  0  0  0  0  0  0  0  0  0  0
   -4.3843    1.1806    1.4264 H   0  0  0  0  0  0  0  0  0  0  0  0
   -6.7769    1.4764    1.6322 H   0  0  0  0  0  0  0  0  0  0  0  0
   -9.0935    0.3082    0.6399 H   0  0  0  0  0  0  0  0  0  0  0  0
   -9.2509    0.6113   -1.0967 H   0  0  0  0  0  0  0  0  0  0  0  0
   -8.9404    1.9664   -0.0022 H   0  0  0  0  0  0  0  0  0  0  0  0
   -7.3443   -0.1177   -2.3165 H   0  0  0  0  0  0  0  0  0  0  0  0
   -4.1180    0.0504   -3.4448 H   0  0  0  0  0  0  0  0  0  0  0  0
   -5.6024   -0.9026   -3.5930 H   0  0  0  0  0  0  0  0  0  0  0  0
   -4.2440   -1.5589   -2.6735 H   0  0  0  0  0  0  0  0  0  0  0  0
   -1.6115   -1.9968   -0.1829 H   0  0  0  0  0  0  0  0  0  0  0  0
   -0.0982   -2.6880    0.3680 H   0  0  0  0  0  0  0  0  0  0  0  0
   -3.3671   -2.0808    2.0331 H   0  0  0  0  0  0  0  0  0  0  0  0
   -2.9303   -1.7029    4.7110 H   0  0  0  0  0  0  0  0  0  0  0  0
   -0.2206   -1.2083    4.8904 H   0  0  0  0  0  0  0  0  0  0  0  0
    4.4800    0.7391   -0.0190 H   0  0  0  0  0  0  0  0  0  0  0  0
    6.1541    2.2686    0.8025 H   0  0  0  0  0  0  0  0  0  0  0  0
  1  2  1  0
  2  3  1  0
  3  4  2  0
  4  5  1  0
  5  6  2  0
  6  7  1  0
  7  8  2  0
  7  9  1  0
  9 10  1  0
 10 11  1  0
 11 12  2  0
 12 13  1  0
 13 14  2  0
 14 15  1  0
 15 16  1  0
 16 17  1  0
 17 18  2  0
 18 19  1  0
 19 20  2  0
 20 21  1  0
 20 22  1  0
 22 23  2  0
 23 24  1  0
 14 25  1  0
 25 26  1  0
 26 27  1  0
 27 28  2  0
 28 29  1  0
 29 30  2  0
 30 31  1  0
  6 32  1  0
 32 33  2  0
 33  3  1  0
 25 11  1  0
 31 27  1  0
 23 17  1  0
  1 34  1  0
  1 35  1  0
  1 36  1  0
  4 37  1  0
  5 38  1  0
  9 39  1  0
  9 40  1  0
 15 41  1  0
 15 42  1  0
 16 43  1  0
 18 44  1  0
 19 45  1  0
 21 46  1  0
 21 47  1  0
 21 48  1  0
 22 49  1  0
 24 50  1  0
 24 51  1  0
 24 52  1  0
 26 53  1  0
 26 54  1  0
 28 55  1  0
 29 56  1  0
 30 57  1  0
 32 58  1  0
 33 59  1  0
M  END
$$$$
