
     RDKit          3D

 63 67  0  0  0  0  0  0  0  0999 V2000
   -6.1597   -2.6462    2.3709 C   0  0  0  0  0  0  0  0  0  0  0  0
   -5.1006   -3.4249    1.8089 O   0  0  0  0  0  0  0  0  0  0  0  0
   -4.0553   -2.6911    1.3510 C   0  0  0  0  0  0  0  0  0  0  0  0
   -3.9748   -1.4710    1.3998 O   0  0  0  0  0  0  0  0  0  0  0  0
   -2.9944   -3.5628    0.7601 C   0  0  0  0  0  0  0  0  0  0  0  0
   -3.0928   -4.9633    0.8695 C   0  0  0  0  0  0  0  0  0  0  0  0
   -2.1095   -5.7901    0.3272 C   0  0  0  0  0  0  0  0  0  0  0  0
   -1.0137   -5.2283   -0.3171 C   0  0  0  0  0  0  0  0  0  0  0  0
   -0.9028   -3.8401   -0.4318 C   0  0  0  0  0  0  0  0  0  0  0  0
   -1.8955   -2.9904    0.0780 C   0  0  0  0  0  0  0  0  0  0  0  0
   -1.7551   -1.5768   -0.0033 N   0  0  0  0  0  0  0  0  0  0  0  0
   -1.1095   -0.7962   -0.9530 C   0  0  0  0  0  0  0  0  0  0  0  0
   -0.9975   -1.2645   -2.5706 S   0  0  0  0  0  0  0  0  0  0  0  0
   -0.6400    0.4374   -0.4425 N   0  0  0  0  0  0  0  0  0  0  0  0
   -0.7584    0.8032    0.9850 C   0  0  0  0  0  0  0  0  0  0  0  0
   -1.7464    1.9254    1.2313 C   0  0  0  0  0  0  0  0  0  0  0  0
   -3.0894    1.8242    0.7989 C   0  0  0  0  0  0  0  0  0  0  0  0
   -4.0122    2.8434    1.0549 C   0  0  0  0  0  0  0  0  0  0  0  0
   -3.5696    3.9509    1.7412 C   0  0  0  0  0  0  0  0  0  0  0  0
   -2.2679    4.0646    2.1653 C   0  0  0  0  0  0  0  0  0  0  0  0
   -1.3368    3.0756    1.9288 C   0  0  0  0  0  0  0  0  0  0  0  0
   -2.0374    5.2314    2.8253 O   0  0  0  0  0  0  0  0  0  0  0  0
   -3.3393    5.8473    2.7472 C   0  0  0  0  0  0  0  0  0  0  0  0
   -4.3227    5.0314    2.0788 O   0  0  0  0  0  0  0  0  0  0  0  0
    0.0579    1.4433   -1.2825 C   0  0  0  0  0  0  0  0  0  0  0  0
    1.5556    1.2672   -1.2452 C   0  0  0  0  0  0  0  0  0  0  0  0
    2.2376    0.5154   -2.1301 C   0  0  0  0  0  0  0  0  0  0  0  0
    3.6937    0.4002   -2.0764 C   0  0  0  0  0  0  0  0  0  0  0  0
    4.4004   -0.4054   -2.9714 C   0  0  0  0  0  0  0  0  0  0  0  0
    5.7954   -0.4959   -2.8869 C   0  0  0  0  0  0  0  0  0  0  0  0
    6.4900    0.2186   -1.9071 C   0  0  0  0  0  0  0  0  0  0  0  0
    7.8451    0.2129   -1.7188 O   0  0  0  0  0  0  0  0  0  0  0  0
    8.6016   -0.6858   -2.5211 C   0  0  0  0  0  0  0  0  0  0  0  0
    5.7821    1.0323   -1.0174 C   0  0  0  0  0  0  0  0  0  0  0  0
    4.3932    1.1174   -1.1047 C   0  0  0  0  0  0  0  0  0  0  0  0
    3.6813    1.9322   -0.2193 N   0  0  0  0  0  0  0  0  0  0  0  0
    2.3190    2.0752   -0.2419 C   0  0  0  0  0  0  0  0  0  0  0  0
    1.7631    2.8439    0.5376 O   0  0  0  0  0  0  0  0  0  0  0  0
   -6.9530   -3.3300    2.6842 H   0  0  0  0  0  0  0  0  0  0  0  0
   -5.8066   -2.0993    3.2506 H   0  0  0  0  0  0  0  0  0  0  0  0
   -6.5692   -1.9582    1.6253 H   0  0  0  0  0  0  0  0  0  0  0  0
   -3.9345   -5.4289    1.3777 H   0  0  0  0  0  0  0  0  0  0  0  0
   -2.1956   -6.8707    0.4161 H   0  0  0  0  0  0  0  0  0  0  0  0
   -0.2345   -5.8678   -0.7257 H   0  0  0  0  0  0  0  0  0  0  0  0
   -0.0091   -3.4381   -0.9012 H   0  0  0  0  0  0  0  0  0  0  0  0
   -2.4536   -1.0649    0.5381 H   0  0  0  0  0  0  0  0  0  0  0  0
    0.2389    1.0663    1.3512 H   0  0  0  0  0  0  0  0  0  0  0  0
   -1.0561   -0.0463    1.6076 H   0  0  0  0  0  0  0  0  0  0  0  0
   -3.4286    0.9452    0.2566 H   0  0  0  0  0  0  0  0  0  0  0  0
   -5.0416    2.7616    0.7280 H   0  0  0  0  0  0  0  0  0  0  0  0
   -0.3136    3.1973    2.2714 H   0  0  0  0  0  0  0  0  0  0  0  0
   -3.6902    6.0557    3.7649 H   0  0  0  0  0  0  0  0  0  0  0  0
   -3.2462    6.7976    2.2078 H   0  0  0  0  0  0  0  0  0  0  0  0
   -0.2324    2.4496   -0.9599 H   0  0  0  0  0  0  0  0  0  0  0  0
   -0.2957    1.3779   -2.3165 H   0  0  0  0  0  0  0  0  0  0  0  0
    1.7266   -0.0343   -2.9126 H   0  0  0  0  0  0  0  0  0  0  0  0
    3.8765   -0.9692   -3.7402 H   0  0  0  0  0  0  0  0  0  0  0  0
    6.3074   -1.1311   -3.6034 H   0  0  0  0  0  0  0  0  0  0  0  0
    8.5471   -0.4112   -3.5792 H   0  0  0  0  0  0  0  0  0  0  0  0
    9.6480   -0.6104   -2.2111 H   0  0  0  0  0  0  0  0  0  0  0  0
    8.2828   -1.7213   -2.3632 H   0  0  0  0  0  0  0  0  0  0  0  0
    6.3263    1.5901   -0.2602 H   0  0  0  0  0  0  0  0  0  0  0  0
    4.1719    2.4795    0.4751 H   0  0  0  0  0  0  0  0  0  0  0  0
  1  2  1  0
  2  3  1  0
  3  4  2  0
  3  5  1  0
  5  6  2  0
  6  7  1  0
  7  8  2  0
  8  9  1  0
  9 10  2  0
 10 11  1  0
 11 12  1  0
 12 13  2  0
 12 14  1  0
 14 15  1  0
 15 16  1  0
 16 17  2  0
 17 18  1  0
 18 19  2  0
 19 20  1  0
 20 21  2  0
 20 22  1  0
 22 23  1  0
 23 24  1  0
 14 25  1  0
 25 26  1  0
 26 27  2  0
 27 28  1  0
 28 29  2  0
 29 30  1  0
 30 31  2  0
 31 32  1  0
 32 33  1  0
 31 34  1  0
 34 35  2  0
 35 36  1  0
 36 37  1  0
 37 38  2  0
 10  5  1  0
 21 16  1  0
 37 26  1  0
 24 19  1  0
 35 28  1  0
  1 39  1  0
  1 40  1  0
  1 41  1  0
  6 42  1  0
  7 43  1  0
  8 44  1  0
  9 45  1  0
 11 46  1  0
 15 47  1  0
 15 48  1  0
 17 49  1  0
 18 50  1  0
 21 51  1  0
 23 52  1  0
 23 53  1  0
 25 54  1  0
 25 55  1  0
 27 56  1  0
 29 57  1  0
 30 58  1  0
 33 59  1  0
 33 60  1  0
 33 61  1  0
 34 62  1  0
 36 63  1  0
M  END
$$$$
