
     RDKit          3D

 46 49  0  0  0  0  0  0  0  0999 V2000
    4.6161   -1.2291    1.6177 O   0  0  0  0  0  0  0  0  0  0  0  0
    3.5940   -0.5507    1.6844 C   0  0  0  0  0  0  0  0  0  0  0  0
    2.4076   -1.0087    2.5243 C   0  0  0  0  0  0  0  0  0  0  0  0
    1.1874   -1.8843    1.4989 S   0  0  0  0  0  0  0  0  0  0  0  0
    0.3324   -0.5615    0.7858 C   0  0  0  0  0  0  0  0  0  0  0  0
    0.6269    0.7064    0.9575 N   0  0  0  0  0  0  0  0  0  0  0  0
   -0.1993    1.4403    0.1541 N   0  0  0  0  0  0  0  0  0  0  0  0
   -1.0131    0.6108   -0.4742 C   0  0  0  0  0  0  0  0  0  0  0  0
   -2.0473    1.0241   -1.4699 C   0  0  0  0  0  0  0  0  0  0  0  0
   -3.4728    0.8086   -1.0446 C   0  0  0  0  0  0  0  0  0  0  0  0
   -4.5006    0.2498   -1.7834 C   0  0  0  0  0  0  0  0  0  0  0  0
   -5.7378    0.2345   -1.0739 C   0  0  0  0  0  0  0  0  0  0  0  0
   -5.6182    0.7891    0.1789 C   0  0  0  0  0  0  0  0  0  0  0  0
   -4.0314    1.3443    0.4870 S   0  0  0  0  0  0  0  0  0  0  0  0
   -0.7172   -0.6819   -0.0867 N   0  0  0  0  0  0  0  0  0  0  0  0
   -1.3250   -1.9072   -0.5719 C   0  0  0  0  0  0  0  0  0  0  0  0
   -2.4340   -2.3708    0.3003 C   0  0  0  0  0  0  0  0  0  0  0  0
   -3.7279   -2.7826    0.0454 C   0  0  0  0  0  0  0  0  0  0  0  0
   -4.2982   -3.1143    1.2989 C   0  0  0  0  0  0  0  0  0  0  0  0
   -3.3170   -2.8988    2.2362 C   0  0  0  0  0  0  0  0  0  0  0  0
   -2.1805   -2.4603    1.6389 O   0  0  0  0  0  0  0  0  0  0  0  0
    3.3820    0.6581    1.0431 N   0  0  0  0  0  0  0  0  0  0  0  0
    4.2576    1.3551    0.1932 C   0  0  0  0  0  0  0  0  0  0  0  0
    5.5951    1.0068   -0.0049 C   0  0  0  0  0  0  0  0  0  0  0  0
    6.3920    1.7607   -0.8691 C   0  0  0  0  0  0  0  0  0  0  0  0
    8.0457    1.3327   -1.0964 Cl  0  0  0  0  0  0  0  0  0  0  0  0
    5.8707    2.8599   -1.5457 C   0  0  0  0  0  0  0  0  0  0  0  0
    4.5377    3.2050   -1.3475 C   0  0  0  0  0  0  0  0  0  0  0  0
    3.8697    4.5485   -2.1885 Cl  0  0  0  0  0  0  0  0  0  0  0  0
    3.7342    2.4683   -0.4783 C   0  0  0  0  0  0  0  0  0  0  0  0
    2.7811   -1.6995    3.2878 H   0  0  0  0  0  0  0  0  0  0  0  0
    1.9605   -0.1629    3.0580 H   0  0  0  0  0  0  0  0  0  0  0  0
   -1.8588    0.4990   -2.4137 H   0  0  0  0  0  0  0  0  0  0  0  0
   -1.9173    2.0910   -1.6900 H   0  0  0  0  0  0  0  0  0  0  0  0
   -4.3780   -0.1257   -2.7913 H   0  0  0  0  0  0  0  0  0  0  0  0
   -6.6694   -0.1579   -1.4651 H   0  0  0  0  0  0  0  0  0  0  0  0
   -6.3851    0.9146    0.9319 H   0  0  0  0  0  0  0  0  0  0  0  0
   -1.6859   -1.7248   -1.5885 H   0  0  0  0  0  0  0  0  0  0  0  0
   -0.5511   -2.6769   -0.6514 H   0  0  0  0  0  0  0  0  0  0  0  0
   -4.2140   -2.8253   -0.9201 H   0  0  0  0  0  0  0  0  0  0  0  0
   -5.3035   -3.4635    1.4958 H   0  0  0  0  0  0  0  0  0  0  0  0
   -3.2697   -3.0032    3.3107 H   0  0  0  0  0  0  0  0  0  0  0  0
    2.4290    1.0237    1.0917 H   0  0  0  0  0  0  0  0  0  0  0  0
    6.0436    0.1633    0.5094 H   0  0  0  0  0  0  0  0  0  0  0  0
    6.4963    3.4386   -2.2178 H   0  0  0  0  0  0  0  0  0  0  0  0
    2.6934    2.7566   -0.3386 H   0  0  0  0  0  0  0  0  0  0  0  0
  1  2  2  0
  2  3  1  0
  3  4  1  0
  4  5  1  0
  5  6  2  0
  6  7  1  0
  7  8  2  0
  8  9  1  0
  9 10  1  0
 10 11  2  0
 11 12  1  0
 12 13  2  0
 13 14  1  0
  8 15  1  0
 15 16  1  0
 16 17  1  0
 17 18  2  0
 18 19  1  0
 19 20  2  0
 20 21  1  0
  2 22  1  0
 22 23  1  0
 23 24  2  0
 24 25  1  0
 25 26  1  0
 25 27  2  0
 27 28  1  0
 28 29  1  0
 28 30  2  0
 15  5  1  0
 21 17  1  0
 30 23  1  0
 14 10  1  0
  3 31  1  0
  3 32  1  0
  9 33  1  0
  9 34  1  0
 11 35  1  0
 12 36  1  0
 13 37  1  0
 16 38  1  0
 16 39  1  0
 18 40  1  0
 19 41  1  0
 20 42  1  0
 22 43  1  0
 24 44  1  0
 27 45  1  0
 30 46  1  0
M  END
$$$$
