
     RDKit          3D

 52 51  0  0  0  0  0  0  0  0999 V2000
   -4.3466    3.3746    1.2565 C   0  0  0  0  0  0  0  0  0  0  0  0
   -4.8464    2.3904    0.7822 C   0  0  0  0  0  0  0  0  0  0  0  0
   -5.4645    1.1998    0.1936 C   0  0  0  0  0  0  0  0  0  0  0  0
   -4.7494   -0.0945    0.6200 N   0  0  0  0  0  4  0  0  0  0  0  0
   -4.9146   -0.2879    2.1329 C   0  0  0  0  0  0  0  0  0  0  0  0
   -5.4358   -1.2711   -0.0698 C   0  0  0  0  0  0  0  0  0  0  0  0
   -3.2381   -0.0829    0.3070 C   0  0  0  0  0  0  0  0  0  0  0  0
   -2.9155    0.1629   -1.1688 C   0  0  0  0  0  0  0  0  0  0  0  0
   -1.4121    0.0720   -1.4645 C   0  0  0  0  0  0  0  0  0  0  0  0
   -0.5956    1.1769   -0.7884 C   0  0  0  0  0  0  0  0  0  0  0  0
    0.8614    1.2270   -1.2598 C   0  0  0  0  0  0  0  0  0  0  0  0
    1.6648   -0.0202   -0.8815 C   0  0  0  0  0  0  0  0  0  0  0  0
    3.1375    0.1341   -1.2699 C   0  0  0  0  0  0  0  0  0  0  0  0
    3.9687   -1.1277   -1.0183 C   0  0  0  0  0  0  0  0  0  0  0  0
    4.0297   -1.6037    0.4366 C   0  0  0  0  0  0  0  0  0  0  0  0
    4.5495   -0.5772    1.4482 C   0  0  0  0  0  0  0  0  0  0  0  0
    5.9454   -0.0178    1.1636 C   0  0  0  0  0  0  0  0  0  0  0  0
    7.0330   -1.0805    1.1470 C   0  0  0  0  0  0  0  0  0  0  0  0
   -3.9115    4.2576    1.6707 H   0  0  0  0  0  0  0  0  0  0  0  0
   -5.4482    1.2433   -0.9002 H   0  0  0  0  0  0  0  0  0  0  0  0
   -6.5100    1.1077    0.5103 H   0  0  0  0  0  0  0  0  0  0  0  0
   -4.4891   -1.2598    2.4017 H   0  0  0  0  0  0  0  0  0  0  0  0
   -4.3818    0.5096    2.6578 H   0  0  0  0  0  0  0  0  0  0  0  0
   -5.9816   -0.2617    2.3736 H   0  0  0  0  0  0  0  0  0  0  0  0
   -5.4345   -1.1040   -1.1495 H   0  0  0  0  0  0  0  0  0  0  0  0
   -6.4673   -1.3299    0.2914 H   0  0  0  0  0  0  0  0  0  0  0  0
   -4.8929   -2.1870    0.1812 H   0  0  0  0  0  0  0  0  0  0  0  0
   -2.8467   -1.0570    0.6250 H   0  0  0  0  0  0  0  0  0  0  0  0
   -2.7842    0.6832    0.9436 H   0  0  0  0  0  0  0  0  0  0  0  0
   -3.4164   -0.5819   -1.7956 H   0  0  0  0  0  0  0  0  0  0  0  0
   -3.2755    1.1461   -1.4893 H   0  0  0  0  0  0  0  0  0  0  0  0
   -1.2735    0.1374   -2.5508 H   0  0  0  0  0  0  0  0  0  0  0  0
   -1.0453   -0.9134   -1.1556 H   0  0  0  0  0  0  0  0  0  0  0  0
   -1.0578    2.1483   -1.0032 H   0  0  0  0  0  0  0  0  0  0  0  0
   -0.6146    1.0496    0.2998 H   0  0  0  0  0  0  0  0  0  0  0  0
    0.8914    1.3721   -2.3465 H   0  0  0  0  0  0  0  0  0  0  0  0
    1.3355    2.1086   -0.8106 H   0  0  0  0  0  0  0  0  0  0  0  0
    1.2515   -0.9003   -1.3865 H   0  0  0  0  0  0  0  0  0  0  0  0
    1.5767   -0.1893    0.1974 H   0  0  0  0  0  0  0  0  0  0  0  0
    3.2014    0.3738   -2.3389 H   0  0  0  0  0  0  0  0  0  0  0  0
    3.5753    0.9861   -0.7375 H   0  0  0  0  0  0  0  0  0  0  0  0
    4.9866   -0.9541   -1.3870 H   0  0  0  0  0  0  0  0  0  0  0  0
    3.5641   -1.9443   -1.6297 H   0  0  0  0  0  0  0  0  0  0  0  0
    3.0313   -1.9278    0.7541 H   0  0  0  0  0  0  0  0  0  0  0  0
    4.6548   -2.5038    0.4801 H   0  0  0  0  0  0  0  0  0  0  0  0
    4.5526   -1.0455    2.4407 H   0  0  0  0  0  0  0  0  0  0  0  0
    3.8439    0.2594    1.5142 H   0  0  0  0  0  0  0  0  0  0  0  0
    5.9533    0.5284    0.2143 H   0  0  0  0  0  0  0  0  0  0  0  0
    6.1875    0.7147    1.9433 H   0  0  0  0  0  0  0  0  0  0  0  0
    8.0155   -0.6104    1.0367 H   0  0  0  0  0  0  0  0  0  0  0  0
    7.0354   -1.6550    2.0787 H   0  0  0  0  0  0  0  0  0  0  0  0
    6.9028   -1.7749    0.3119 H   0  0  0  0  0  0  0  0  0  0  0  0
  1  2  3  0
  2  3  1  0
  3  4  1  0
  4  5  1  0
  4  6  1  0
  4  7  1  0
  7  8  1  0
  8  9  1  0
  9 10  1  0
 10 11  1  0
 11 12  1  0
 12 13  1  0
 13 14  1  0
 14 15  1  0
 15 16  1  0
 16 17  1  0
 17 18  1  0
  1 19  1  0
  3 20  1  0
  3 21  1  0
  5 22  1  0
  5 23  1  0
  5 24  1  0
  6 25  1  0
  6 26  1  0
  6 27  1  0
  7 28  1  0
  7 29  1  0
  8 30  1  0
  8 31  1  0
  9 32  1  0
  9 33  1  0
 10 34  1  0
 10 35  1  0
 11 36  1  0
 11 37  1  0
 12 38  1  0
 12 39  1  0
 13 40  1  0
 13 41  1  0
 14 42  1  0
 14 43  1  0
 15 44  1  0
 15 45  1  0
 16 46  1  0
 16 47  1  0
 17 48  1  0
 17 49  1  0
 18 50  1  0
 18 51  1  0
 18 52  1  0
M  CHG  1   4   1
M  END
$$$$
