
     RDKit          3D

 45 47  0  0  0  0  0  0  0  0999 V2000
    8.2611    0.1627    1.9685 C   0  0  0  0  0  0  0  0  0  0  0  0
    7.5674   -0.8751    1.0982 C   0  0  0  0  0  0  0  0  0  0  0  0
    6.4864   -0.2911    0.1857 C   0  0  0  0  0  0  0  0  0  0  0  0
    5.3428    0.3818    0.9478 C   0  0  0  0  0  0  0  0  0  0  0  0
    4.2553    0.8151    0.0186 C   0  0  0  0  0  0  0  0  0  0  0  0
    4.3021    1.8892   -0.7427 N   0  0  0  0  0  0  0  0  0  0  0  0
    3.1555    2.0359   -1.4969 N   0  0  0  0  0  0  0  0  0  0  0  0
    2.2875    1.0748   -1.2730 C   0  0  0  0  0  0  0  0  0  0  0  0
    1.0762    1.0333   -1.9169 N   0  0  0  0  0  0  0  0  0  0  0  0
    0.0791    0.0918   -1.7501 C   0  0  0  0  0  0  0  0  0  0  0  0
    0.1062   -0.8684   -0.9890 O   0  0  0  0  0  0  0  0  0  0  0  0
   -1.1352    0.3967   -2.6448 C   0  0  0  0  0  0  0  0  0  0  0  0
   -2.2038   -0.5322   -2.5991 O   0  0  0  0  0  0  0  0  0  0  0  0
   -3.1432   -0.3848   -1.6184 C   0  0  0  0  0  0  0  0  0  0  0  0
   -3.0107    0.3781   -0.4580 C   0  0  0  0  0  0  0  0  0  0  0  0
   -4.0547    0.4356    0.4793 C   0  0  0  0  0  0  0  0  0  0  0  0
   -5.2455   -0.2706    0.2756 C   0  0  0  0  0  0  0  0  0  0  0  0
   -6.3732   -0.2565    1.2171 C   0  0  0  0  0  0  0  0  0  0  0  0
   -6.2942    0.5482    2.4802 C   0  0  0  0  0  0  0  0  0  0  0  0
   -7.4612   -0.9805    0.9158 C   0  0  0  0  0  0  0  0  0  0  0  0
   -7.5871   -1.7874   -0.3083 C   0  0  0  0  0  0  0  0  0  0  0  0
   -8.6090   -2.4268   -0.5321 O   0  0  0  0  0  0  0  0  0  0  0  0
   -6.5090   -1.7810   -1.1753 O   0  0  0  0  0  0  0  0  0  0  0  0
   -5.3503   -1.0339   -0.8868 C   0  0  0  0  0  0  0  0  0  0  0  0
   -4.3198   -1.1021   -1.8256 C   0  0  0  0  0  0  0  0  0  0  0  0
    2.7995   -0.0824   -0.1349 S   0  0  0  0  0  0  0  0  0  0  0  0
    7.5755    0.5811    2.7122 H   0  0  0  0  0  0  0  0  0  0  0  0
    9.0942   -0.2976    2.5098 H   0  0  0  0  0  0  0  0  0  0  0  0
    8.6617    0.9825    1.3627 H   0  0  0  0  0  0  0  0  0  0  0  0
    8.3216   -1.3663    0.4711 H   0  0  0  0  0  0  0  0  0  0  0  0
    7.1323   -1.6533    1.7374 H   0  0  0  0  0  0  0  0  0  0  0  0
    6.9434    0.4262   -0.5087 H   0  0  0  0  0  0  0  0  0  0  0  0
    6.0862   -1.1043   -0.4338 H   0  0  0  0  0  0  0  0  0  0  0  0
    5.7127    1.2696    1.4734 H   0  0  0  0  0  0  0  0  0  0  0  0
    4.9502   -0.2968    1.7144 H   0  0  0  0  0  0  0  0  0  0  0  0
    0.9526    1.7944   -2.5714 H   0  0  0  0  0  0  0  0  0  0  0  0
   -1.4874    1.4199   -2.4591 H   0  0  0  0  0  0  0  0  0  0  0  0
   -0.7678    0.3824   -3.6787 H   0  0  0  0  0  0  0  0  0  0  0  0
   -2.1004    0.9226   -0.2304 H   0  0  0  0  0  0  0  0  0  0  0  0
   -3.9043    1.0356    1.3733 H   0  0  0  0  0  0  0  0  0  0  0  0
   -5.4650    0.2060    3.1082 H   0  0  0  0  0  0  0  0  0  0  0  0
   -7.2096    0.4603    3.0765 H   0  0  0  0  0  0  0  0  0  0  0  0
   -6.1548    1.6108    2.2569 H   0  0  0  0  0  0  0  0  0  0  0  0
   -8.3272   -1.0159    1.5676 H   0  0  0  0  0  0  0  0  0  0  0  0
   -4.4362   -1.7136   -2.7162 H   0  0  0  0  0  0  0  0  0  0  0  0
  1  2  1  0
  2  3  1  0
  3  4  1  0
  4  5  1  0
  5  6  2  0
  6  7  1  0
  7  8  2  0
  8  9  1  0
  9 10  1  0
 10 11  2  0
 10 12  1  0
 12 13  1  0
 13 14  1  0
 14 15  2  0
 15 16  1  0
 16 17  2  0
 17 18  1  0
 18 19  1  0
 18 20  2  0
 20 21  1  0
 21 22  2  0
 21 23  1  0
 23 24  1  0
 24 25  2  0
  8 26  1  0
 26  5  1  0
 25 14  1  0
 24 17  1  0
  1 27  1  0
  1 28  1  0
  1 29  1  0
  2 30  1  0
  2 31  1  0
  3 32  1  0
  3 33  1  0
  4 34  1  0
  4 35  1  0
  9 36  1  0
 12 37  1  0
 12 38  1  0
 15 39  1  0
 16 40  1  0
 19 41  1  0
 19 42  1  0
 19 43  1  0
 20 44  1  0
 25 45  1  0
M  END
$$$$
