
     RDKit          3D

 44 45  0  0  0  0  0  0  0  0999 V2000
    6.1637    0.9341    2.8814 C   0  0  0  0  0  0  0  0  0  0  0  0
    6.6072    0.4742    1.5054 C   0  0  0  0  0  0  0  0  0  0  0  0
    5.4951   -0.0807    0.7872 O   0  0  0  0  0  0  0  0  0  0  0  0
    4.7400    0.8072    0.0938 C   0  0  0  0  0  0  0  0  0  0  0  0
    4.9212    2.0126    0.0347 O   0  0  0  0  0  0  0  0  0  0  0  0
    3.6237    0.1102   -0.6038 C   0  0  0  0  0  0  0  0  0  0  0  0
    2.7205    0.8865   -1.3459 C   0  0  0  0  0  0  0  0  0  0  0  0
    1.6555    0.2844   -2.0209 C   0  0  0  0  0  0  0  0  0  0  0  0
    1.4859   -1.0995   -1.9403 C   0  0  0  0  0  0  0  0  0  0  0  0
    0.1460   -1.8828   -2.8002 S   0  0  0  0  0  6  0  0  0  0  0  0
   -0.4740   -0.9229   -3.6924 O   0  0  0  0  0  0  0  0  0  0  0  0
    0.6235   -3.1618   -3.2771 O   0  0  0  0  0  0  0  0  0  0  0  0
   -0.9861   -2.1848   -1.5255 N   0  0  0  0  0  0  0  0  0  0  0  0
   -2.1034   -1.2743   -1.5653 N   0  0  0  0  0  0  0  0  0  0  0  0
   -1.8210    0.1044   -0.5665 S   0  0  0  0  0  6  0  0  0  0  0  0
   -0.8600   -0.3075    0.4397 O   0  0  0  0  0  0  0  0  0  0  0  0
   -1.5654    1.2214   -1.4470 O   0  0  0  0  0  0  0  0  0  0  0  0
   -3.4006    0.3098    0.1997 C   0  0  0  0  0  0  0  0  0  0  0  0
   -3.7449   -0.4969    1.2870 C   0  0  0  0  0  0  0  0  0  0  0  0
   -4.9845   -0.3249    1.9048 C   0  0  0  0  0  0  0  0  0  0  0  0
   -5.8726    0.6610    1.4534 C   0  0  0  0  0  0  0  0  0  0  0  0
   -7.2180    0.8216    2.0996 C   0  0  0  0  0  0  0  0  0  0  0  0
   -5.5136    1.4611    0.3597 C   0  0  0  0  0  0  0  0  0  0  0  0
   -4.2757    1.2948   -0.2635 C   0  0  0  0  0  0  0  0  0  0  0  0
    2.3888   -1.8891   -1.2207 C   0  0  0  0  0  0  0  0  0  0  0  0
    3.4539   -1.2820   -0.5491 C   0  0  0  0  0  0  0  0  0  0  0  0
    5.6954    0.1101    3.4297 H   0  0  0  0  0  0  0  0  0  0  0  0
    7.0149    1.3045    3.4597 H   0  0  0  0  0  0  0  0  0  0  0  0
    5.4178    1.7318    2.8075 H   0  0  0  0  0  0  0  0  0  0  0  0
    7.3521   -0.3220    1.6057 H   0  0  0  0  0  0  0  0  0  0  0  0
    7.0797    1.2878    0.9430 H   0  0  0  0  0  0  0  0  0  0  0  0
    2.8435    1.9676   -1.4015 H   0  0  0  0  0  0  0  0  0  0  0  0
    0.9684    0.9046   -2.5944 H   0  0  0  0  0  0  0  0  0  0  0  0
   -0.5129   -2.1806   -0.6060 H   0  0  0  0  0  0  0  0  0  0  0  0
   -2.2844   -0.9336   -2.5285 H   0  0  0  0  0  0  0  0  0  0  0  0
   -3.0614   -1.2585    1.6554 H   0  0  0  0  0  0  0  0  0  0  0  0
   -5.2543   -0.9623    2.7448 H   0  0  0  0  0  0  0  0  0  0  0  0
   -7.1746    0.5597    3.1620 H   0  0  0  0  0  0  0  0  0  0  0  0
   -7.5608    1.8596    2.0351 H   0  0  0  0  0  0  0  0  0  0  0  0
   -7.9496    0.1755    1.6050 H   0  0  0  0  0  0  0  0  0  0  0  0
   -6.1975    2.2233   -0.0094 H   0  0  0  0  0  0  0  0  0  0  0  0
   -4.0084    1.9346   -1.1018 H   0  0  0  0  0  0  0  0  0  0  0  0
    2.2785   -2.9715   -1.1840 H   0  0  0  0  0  0  0  0  0  0  0  0
    4.1482   -1.9067    0.0087 H   0  0  0  0  0  0  0  0  0  0  0  0
  1  2  1  0
  2  3  1  0
  3  4  1  0
  4  5  2  0
  4  6  1  0
  6  7  2  0
  7  8  1  0
  8  9  2  0
  9 10  1  0
 10 11  2  0
 10 12  2  0
 10 13  1  0
 13 14  1  0
 14 15  1  0
 15 16  2  0
 15 17  2  0
 15 18  1  0
 18 19  2  0
 19 20  1  0
 20 21  2  0
 21 22  1  0
 21 23  1  0
 23 24  2  0
  9 25  1  0
 25 26  2  0
 26  6  1  0
 24 18  1  0
  1 27  1  0
  1 28  1  0
  1 29  1  0
  2 30  1  0
  2 31  1  0
  7 32  1  0
  8 33  1  0
 13 34  1  0
 14 35  1  0
 19 36  1  0
 20 37  1  0
 22 38  1  0
 22 39  1  0
 22 40  1  0
 23 41  1  0
 24 42  1  0
 25 43  1  0
 26 44  1  0
M  END
$$$$
