
     RDKit          3D

 44 46  0  0  0  0  0  0  0  0999 V2000
    5.1880    2.3749   -1.8983 C   0  0  0  0  0  0  0  0  0  0  0  0
    4.1276    1.4255   -1.4098 C   0  0  0  0  0  0  0  0  0  0  0  0
    3.0059    1.9340   -0.7385 C   0  0  0  0  0  0  0  0  0  0  0  0
    2.0025    1.0838   -0.2646 C   0  0  0  0  0  0  0  0  0  0  0  0
    2.1063   -0.2965   -0.4545 C   0  0  0  0  0  0  0  0  0  0  0  0
    1.0659   -1.2572    0.0303 C   0  0  0  0  0  0  0  0  0  0  0  0
    1.2286   -2.4610   -0.1680 O   0  0  0  0  0  0  0  0  0  0  0  0
   -0.1583   -0.6911    0.7486 C   0  0  0  0  0  0  0  0  0  0  0  0
   -1.0324   -1.7120    1.2308 O   0  0  0  0  0  0  0  0  0  0  0  0
   -2.1421   -1.8450    0.4334 C   0  0  0  0  0  0  0  0  0  0  0  0
   -2.1506   -2.9281   -0.4499 C   0  0  0  0  0  0  0  0  0  0  0  0
   -3.2489   -3.1423   -1.2780 C   0  0  0  0  0  0  0  0  0  0  0  0
   -4.3426   -2.2835   -1.2114 C   0  0  0  0  0  0  0  0  0  0  0  0
   -4.3399   -1.2123   -0.3121 C   0  0  0  0  0  0  0  0  0  0  0  0
   -3.2432   -0.9710    0.5363 C   0  0  0  0  0  0  0  0  0  0  0  0
   -3.2797    0.1600    1.4833 C   0  0  0  0  0  0  0  0  0  0  0  0
   -3.5206    1.4699    1.0337 C   0  0  0  0  0  0  0  0  0  0  0  0
   -3.5486    2.5448    1.9261 C   0  0  0  0  0  0  0  0  0  0  0  0
   -3.3367    2.3277    3.2850 C   0  0  0  0  0  0  0  0  0  0  0  0
   -3.0985    1.0378    3.7522 C   0  0  0  0  0  0  0  0  0  0  0  0
   -3.0718   -0.0358    2.8584 C   0  0  0  0  0  0  0  0  0  0  0  0
    3.2274   -0.8096   -1.1225 C   0  0  0  0  0  0  0  0  0  0  0  0
    4.2429    0.0358   -1.6009 C   0  0  0  0  0  0  0  0  0  0  0  0
    5.4255   -0.5650   -2.3109 C   0  0  0  0  0  0  0  0  0  0  0  0
    6.1308    2.1910   -1.3737 H   0  0  0  0  0  0  0  0  0  0  0  0
    4.9065    3.4185   -1.7209 H   0  0  0  0  0  0  0  0  0  0  0  0
    5.3397    2.2571   -2.9759 H   0  0  0  0  0  0  0  0  0  0  0  0
    2.9052    3.0062   -0.5776 H   0  0  0  0  0  0  0  0  0  0  0  0
    1.1578    1.5335    0.2477 H   0  0  0  0  0  0  0  0  0  0  0  0
   -0.6650    0.0123    0.0759 H   0  0  0  0  0  0  0  0  0  0  0  0
    0.1894   -0.1458    1.6326 H   0  0  0  0  0  0  0  0  0  0  0  0
   -1.2948   -3.5986   -0.4910 H   0  0  0  0  0  0  0  0  0  0  0  0
   -3.2518   -3.9816   -1.9687 H   0  0  0  0  0  0  0  0  0  0  0  0
   -5.2049   -2.4517   -1.8515 H   0  0  0  0  0  0  0  0  0  0  0  0
   -5.2167   -0.5691   -0.2642 H   0  0  0  0  0  0  0  0  0  0  0  0
   -3.6818    1.6624   -0.0251 H   0  0  0  0  0  0  0  0  0  0  0  0
   -3.7377    3.5502    1.5589 H   0  0  0  0  0  0  0  0  0  0  0  0
   -3.3602    3.1623    3.9806 H   0  0  0  0  0  0  0  0  0  0  0  0
   -2.9355    0.8626    4.8124 H   0  0  0  0  0  0  0  0  0  0  0  0
   -2.8871   -1.0379    3.2425 H   0  0  0  0  0  0  0  0  0  0  0  0
    3.3120   -1.8861   -1.2709 H   0  0  0  0  0  0  0  0  0  0  0  0
    5.4643   -0.2148   -3.3469 H   0  0  0  0  0  0  0  0  0  0  0  0
    6.3545   -0.2961   -1.7989 H   0  0  0  0  0  0  0  0  0  0  0  0
    5.3687   -1.6583   -2.3334 H   0  0  0  0  0  0  0  0  0  0  0  0
  1  2  1  0
  2  3  2  0
  3  4  1  0
  4  5  2  0
  5  6  1  0
  6  7  2  0
  6  8  1  0
  8  9  1  0
  9 10  1  0
 10 11  2  0
 11 12  1  0
 12 13  2  0
 13 14  1  0
 14 15  2  0
 15 16  1  0
 16 17  2  0
 17 18  1  0
 18 19  2  0
 19 20  1  0
 20 21  2  0
  5 22  1  0
 22 23  2  0
 23 24  1  0
 23  2  1  0
 15 10  1  0
 21 16  1  0
  1 25  1  0
  1 26  1  0
  1 27  1  0
  3 28  1  0
  4 29  1  0
  8 30  1  0
  8 31  1  0
 11 32  1  0
 12 33  1  0
 13 34  1  0
 14 35  1  0
 17 36  1  0
 18 37  1  0
 19 38  1  0
 20 39  1  0
 21 40  1  0
 22 41  1  0
 24 42  1  0
 24 43  1  0
 24 44  1  0
M  END
$$$$
