
     RDKit          3D

 48 50  0  0  0  0  0  0  0  0999 V2000
   -1.5136    1.4407   -3.5633 C   0  0  0  0  0  0  0  0  0  0  0  0
   -1.9246    1.7284   -2.2344 O   0  0  0  0  0  0  0  0  0  0  0  0
   -1.9719    0.6842   -1.3485 C   0  0  0  0  0  0  0  0  0  0  0  0
   -1.6810   -0.6432   -1.6682 C   0  0  0  0  0  0  0  0  0  0  0  0
   -1.7343   -1.6418   -0.6834 C   0  0  0  0  0  0  0  0  0  0  0  0
   -1.3429   -3.0229   -0.9902 C   0  0  0  0  0  0  0  0  0  0  0  0
   -0.1305   -3.4207   -1.4226 C   0  0  0  0  0  0  0  0  0  0  0  0
    0.1230   -4.7776   -1.7482 C   0  0  0  0  0  0  0  0  0  0  0  0
    0.2938   -5.9034   -1.9721 N   0  0  0  0  0  0  0  0  0  0  0  0
    0.9868   -2.4533   -1.6295 C   0  0  0  0  0  0  0  0  0  0  0  0
    1.4533   -2.3141   -2.7528 O   0  0  0  0  0  0  0  0  0  0  0  0
    1.3465   -1.7816   -0.4746 N   0  0  0  0  0  0  0  0  0  0  0  0
    2.3616   -0.8015   -0.3093 C   0  0  0  0  0  0  0  0  0  0  0  0
    3.2496   -0.4902   -1.3440 C   0  0  0  0  0  0  0  0  0  0  0  0
    4.2685    0.4400   -1.1476 C   0  0  0  0  0  0  0  0  0  0  0  0
    4.4115    1.0624    0.0886 C   0  0  0  0  0  0  0  0  0  0  0  0
    3.5497    0.7951    1.1388 C   0  0  0  0  0  0  0  0  0  0  0  0
    3.7656    1.4544    2.2924 N   0  0  0  0  0  0  0  0  0  0  0  0
    2.9347    1.2264    3.3289 C   0  0  0  0  0  0  0  0  0  0  0  0
    1.8634    0.3625    3.2673 C   0  0  0  0  0  0  0  0  0  0  0  0
    1.6430   -0.3187    2.0724 C   0  0  0  0  0  0  0  0  0  0  0  0
    2.4976   -0.1377    0.9549 C   0  0  0  0  0  0  0  0  0  0  0  0
   -2.1399   -1.3157    0.6117 C   0  0  0  0  0  0  0  0  0  0  0  0
   -2.4654    0.0010    0.9394 C   0  0  0  0  0  0  0  0  0  0  0  0
   -2.8518    0.1887    2.2418 O   0  0  0  0  0  0  0  0  0  0  0  0
   -3.9929    1.0370    2.3924 C   0  0  0  0  0  0  0  0  0  0  0  0
   -2.3304    1.0062   -0.0269 C   0  0  0  0  0  0  0  0  0  0  0  0
   -2.5740    2.3217    0.2925 O   0  0  0  0  0  0  0  0  0  0  0  0
   -1.3709    2.9290    0.7771 C   0  0  0  0  0  0  0  0  0  0  0  0
   -0.4820    1.0765   -3.5850 H   0  0  0  0  0  0  0  0  0  0  0  0
   -2.1938    0.7316   -4.0453 H   0  0  0  0  0  0  0  0  0  0  0  0
   -1.5537    2.3720   -4.1359 H   0  0  0  0  0  0  0  0  0  0  0  0
   -1.4041   -0.9255   -2.6772 H   0  0  0  0  0  0  0  0  0  0  0  0
   -2.1358   -3.7569   -0.8502 H   0  0  0  0  0  0  0  0  0  0  0  0
    0.8314   -2.0303    0.3548 H   0  0  0  0  0  0  0  0  0  0  0  0
    3.1899   -0.9648   -2.3185 H   0  0  0  0  0  0  0  0  0  0  0  0
    4.9588    0.6728   -1.9549 H   0  0  0  0  0  0  0  0  0  0  0  0
    5.2172    1.7824    0.2344 H   0  0  0  0  0  0  0  0  0  0  0  0
    3.1625    1.7797    4.2365 H   0  0  0  0  0  0  0  0  0  0  0  0
    1.2108    0.2252    4.1231 H   0  0  0  0  0  0  0  0  0  0  0  0
    0.7819   -0.9773    2.0347 H   0  0  0  0  0  0  0  0  0  0  0  0
   -2.2166   -2.0827    1.3803 H   0  0  0  0  0  0  0  0  0  0  0  0
   -4.7241    0.8904    1.5952 H   0  0  0  0  0  0  0  0  0  0  0  0
   -4.4748    0.7716    3.3333 H   0  0  0  0  0  0  0  0  0  0  0  0
   -3.6953    2.0864    2.4630 H   0  0  0  0  0  0  0  0  0  0  0  0
   -1.5926    3.9802    0.9930 H   0  0  0  0  0  0  0  0  0  0  0  0
   -0.5697    2.8982    0.0264 H   0  0  0  0  0  0  0  0  0  0  0  0
   -1.0346    2.4574    1.7094 H   0  0  0  0  0  0  0  0  0  0  0  0
  1  2  1  0
  2  3  1  0
  3  4  2  0
  4  5  1  0
  5  6  1  0
  6  7  2  3
  7  8  1  0
  8  9  3  0
  7 10  1  0
 10 11  2  0
 10 12  1  0
 12 13  1  0
 13 14  2  0
 14 15  1  0
 15 16  2  0
 16 17  1  0
 17 18  2  0
 18 19  1  0
 19 20  2  0
 20 21  1  0
 21 22  2  0
  5 23  2  0
 23 24  1  0
 24 25  1  0
 25 26  1  0
 24 27  2  0
 27 28  1  0
 28 29  1  0
 27  3  1  0
 22 13  1  0
 22 17  1  0
  1 30  1  0
  1 31  1  0
  1 32  1  0
  4 33  1  0
  6 34  1  0
 12 35  1  0
 14 36  1  0
 15 37  1  0
 16 38  1  0
 19 39  1  0
 20 40  1  0
 21 41  1  0
 23 42  1  0
 26 43  1  0
 26 44  1  0
 26 45  1  0
 29 46  1  0
 29 47  1  0
 29 48  1  0
M  END
$$$$
