
     RDKit          3D

 43 45  0  0  0  0  0  0  0  0999 V2000
    6.9998    1.0323   -1.3147 C   0  0  0  0  0  0  0  0  0  0  0  0
    5.7437    1.1550   -1.9698 O   0  0  0  0  0  0  0  0  0  0  0  0
    4.6522    0.6317   -1.3331 C   0  0  0  0  0  0  0  0  0  0  0  0
    3.4537    0.7731   -2.0319 C   0  0  0  0  0  0  0  0  0  0  0  0
    2.2549    0.2871   -1.5041 C   0  0  0  0  0  0  0  0  0  0  0  0
    2.2330   -0.3571   -0.2632 C   0  0  0  0  0  0  0  0  0  0  0  0
    1.0451   -0.8185    0.3592 N   0  0  0  0  0  0  0  0  0  0  0  0
   -0.2430   -0.7560   -0.0850 C   0  0  0  0  0  0  0  0  0  0  0  0
   -1.0127   -1.7965    0.0306 N   0  0  0  0  0  0  0  0  0  0  0  0
   -2.2969   -1.5987   -0.4319 C   0  0  0  0  0  0  0  0  0  0  0  0
   -3.1027   -2.5176   -0.5372 O   0  0  0  0  0  0  0  0  0  0  0  0
   -2.7701   -0.2103   -0.8637 C   0  0  0  0  0  0  0  0  0  0  0  0
   -4.2265   -0.0312   -1.1959 C   0  0  0  0  0  0  0  0  0  0  0  0
   -5.0586    0.2354    0.0336 C   0  0  0  0  0  0  0  0  0  0  0  0
   -5.7401   -0.8085    0.6732 C   0  0  0  0  0  0  0  0  0  0  0  0
   -6.4902   -0.5622    1.8240 C   0  0  0  0  0  0  0  0  0  0  0  0
   -6.5625    0.7268    2.3484 C   0  0  0  0  0  0  0  0  0  0  0  0
   -5.8820    1.7708    1.7247 C   0  0  0  0  0  0  0  0  0  0  0  0
   -5.1307    1.5268    0.5743 C   0  0  0  0  0  0  0  0  0  0  0  0
   -1.9364    0.7917   -0.9158 N   0  0  0  0  0  0  0  0  0  0  0  0
   -0.6585    0.4657   -0.5645 N   0  0  0  0  0  0  0  0  0  0  0  0
    3.4520   -0.4988    0.4441 C   0  0  0  0  0  0  0  0  0  0  0  0
    3.3448   -1.1554    1.6501 O   0  0  0  0  0  0  0  0  0  0  0  0
    4.5184   -1.2623    2.4456 C   0  0  0  0  0  0  0  0  0  0  0  0
    4.6505   -0.0084   -0.0932 C   0  0  0  0  0  0  0  0  0  0  0  0
    6.9997    1.5658   -0.3585 H   0  0  0  0  0  0  0  0  0  0  0  0
    7.2742   -0.0194   -1.1815 H   0  0  0  0  0  0  0  0  0  0  0  0
    7.7572    1.4955   -1.9544 H   0  0  0  0  0  0  0  0  0  0  0  0
    3.4525    1.2621   -3.0038 H   0  0  0  0  0  0  0  0  0  0  0  0
    1.3566    0.3964   -2.1046 H   0  0  0  0  0  0  0  0  0  0  0  0
    1.2482   -1.6605    0.8952 H   0  0  0  0  0  0  0  0  0  0  0  0
   -4.6005   -0.9074   -1.7371 H   0  0  0  0  0  0  0  0  0  0  0  0
   -4.3284    0.8122   -1.8907 H   0  0  0  0  0  0  0  0  0  0  0  0
   -5.6870   -1.8238    0.2828 H   0  0  0  0  0  0  0  0  0  0  0  0
   -7.0150   -1.3789    2.3130 H   0  0  0  0  0  0  0  0  0  0  0  0
   -7.1460    0.9166    3.2453 H   0  0  0  0  0  0  0  0  0  0  0  0
   -5.9337    2.7754    2.1362 H   0  0  0  0  0  0  0  0  0  0  0  0
   -4.5979    2.3507    0.1032 H   0  0  0  0  0  0  0  0  0  0  0  0
   -0.0291    1.2438   -0.3728 H   0  0  0  0  0  0  0  0  0  0  0  0
    4.9119   -0.2742    2.7060 H   0  0  0  0  0  0  0  0  0  0  0  0
    5.2771   -1.8737    1.9464 H   0  0  0  0  0  0  0  0  0  0  0  0
    4.2453   -1.7674    3.3771 H   0  0  0  0  0  0  0  0  0  0  0  0
    5.5775   -0.1280    0.4509 H   0  0  0  0  0  0  0  0  0  0  0  0
  1  2  1  0
  2  3  1  0
  3  4  2  0
  4  5  1  0
  5  6  2  0
  6  7  1  0
  7  8  1  0
  8  9  2  0
  9 10  1  0
 10 11  2  0
 10 12  1  0
 12 13  1  0
 13 14  1  0
 14 15  2  0
 15 16  1  0
 16 17  2  0
 17 18  1  0
 18 19  2  0
 12 20  2  0
 20 21  1  0
  6 22  1  0
 22 23  1  0
 23 24  1  0
 22 25  2  0
 25  3  1  0
 21  8  1  0
 19 14  1  0
  1 26  1  0
  1 27  1  0
  1 28  1  0
  4 29  1  0
  5 30  1  0
  7 31  1  0
 13 32  1  0
 13 33  1  0
 15 34  1  0
 16 35  1  0
 17 36  1  0
 18 37  1  0
 19 38  1  0
 21 39  1  0
 24 40  1  0
 24 41  1  0
 24 42  1  0
 25 43  1  0
M  END
$$$$
