
     RDKit          3D

 58 61  0  0  0  0  0  0  0  0999 V2000
    8.7752   -2.2529   -2.1724 C   0  0  0  0  0  0  0  0  0  0  0  0
    7.8816   -1.0870   -1.8424 C   0  0  0  0  0  0  0  0  0  0  0  0
    8.4259    0.2031   -1.9213 C   0  0  0  0  0  0  0  0  0  0  0  0
    7.6471    1.3198   -1.6425 C   0  0  0  0  0  0  0  0  0  0  0  0
    6.3107    1.1677   -1.2810 C   0  0  0  0  0  0  0  0  0  0  0  0
    5.7300   -0.1015   -1.1905 C   0  0  0  0  0  0  0  0  0  0  0  0
    4.3733   -0.2836   -0.8087 N   0  0  0  0  0  0  0  0  0  0  0  0
    3.4227    0.6873   -0.5299 C   0  0  0  0  0  0  0  0  0  0  0  0
    3.5816    1.9005   -0.6401 O   0  0  0  0  0  0  0  0  0  0  0  0
    2.0941    0.1497   -0.0635 C   0  0  0  0  0  0  0  0  0  0  0  0
    2.0033   -1.1921    0.4043 C   0  0  0  0  0  0  0  0  0  0  0  0
    2.0221   -2.3024    0.7465 N   0  0  0  0  0  0  0  0  0  0  0  0
    1.0484    0.9991   -0.0483 C   0  0  0  0  0  0  0  0  0  0  0  0
   -0.2769    0.7096    0.3947 C   0  0  0  0  0  0  0  0  0  0  0  0
   -0.9036    1.4282    1.3869 C   0  0  0  0  0  0  0  0  0  0  0  0
   -2.1503    0.8870    1.5753 N   0  0  0  0  0  0  0  0  0  0  0  0
   -3.0968    1.3507    2.5806 C   0  0  0  0  0  0  0  0  0  0  0  0
   -4.1769    2.2266    1.9736 C   0  0  0  0  0  0  0  0  0  0  0  0
   -3.9424    3.3107    1.4399 O   0  0  0  0  0  0  0  0  0  0  0  0
   -5.4519    1.7119    2.0808 N   0  0  0  0  0  0  0  0  0  0  0  0
   -6.5424    2.3297    1.3553 C   0  0  0  0  0  0  0  0  0  0  0  0
   -7.7697    1.5266    1.5909 C   0  0  0  0  0  0  0  0  0  0  0  0
   -9.0263    1.8189    2.0823 C   0  0  0  0  0  0  0  0  0  0  0  0
   -9.7449    0.5953    2.0910 C   0  0  0  0  0  0  0  0  0  0  0  0
   -8.8885   -0.3614    1.5915 C   0  0  0  0  0  0  0  0  0  0  0  0
   -7.6862    0.1906    1.2929 O   0  0  0  0  0  0  0  0  0  0  0  0
   -2.3498   -0.1702    0.7046 C   0  0  0  0  0  0  0  0  0  0  0  0
   -3.4514   -1.0247    0.5185 C   0  0  0  0  0  0  0  0  0  0  0  0
   -3.3704   -2.0067   -0.4709 C   0  0  0  0  0  0  0  0  0  0  0  0
   -2.2323   -2.1354   -1.2573 C   0  0  0  0  0  0  0  0  0  0  0  0
   -1.1402   -1.2838   -1.0705 C   0  0  0  0  0  0  0  0  0  0  0  0
   -1.1858   -0.2893   -0.0664 C   0  0  0  0  0  0  0  0  0  0  0  0
    6.5231   -1.2510   -1.4729 C   0  0  0  0  0  0  0  0  0  0  0  0
    5.9214   -2.6374   -1.3867 C   0  0  0  0  0  0  0  0  0  0  0  0
    9.7987   -1.9274   -2.3830 H   0  0  0  0  0  0  0  0  0  0  0  0
    8.8298   -2.9529   -1.3309 H   0  0  0  0  0  0  0  0  0  0  0  0
    8.4084   -2.7724   -3.0611 H   0  0  0  0  0  0  0  0  0  0  0  0
    9.4663    0.3481   -2.2035 H   0  0  0  0  0  0  0  0  0  0  0  0
    8.0781    2.3161   -1.7052 H   0  0  0  0  0  0  0  0  0  0  0  0
    5.7512    2.0741   -1.0704 H   0  0  0  0  0  0  0  0  0  0  0  0
    4.0854   -1.2499   -0.7408 H   0  0  0  0  0  0  0  0  0  0  0  0
    1.2091    2.0325   -0.3599 H   0  0  0  0  0  0  0  0  0  0  0  0
   -0.5695    2.2722    1.9750 H   0  0  0  0  0  0  0  0  0  0  0  0
   -2.5560    1.9320    3.3369 H   0  0  0  0  0  0  0  0  0  0  0  0
   -3.5132    0.4683    3.0815 H   0  0  0  0  0  0  0  0  0  0  0  0
   -5.5607    0.7174    2.2722 H   0  0  0  0  0  0  0  0  0  0  0  0
   -6.2894    2.3440    0.2882 H   0  0  0  0  0  0  0  0  0  0  0  0
   -6.6577    3.3620    1.7062 H   0  0  0  0  0  0  0  0  0  0  0  0
   -9.3770    2.7943    2.4003 H   0  0  0  0  0  0  0  0  0  0  0  0
  -10.7627    0.4304    2.4159 H   0  0  0  0  0  0  0  0  0  0  0  0
   -8.9765   -1.4245    1.4033 H   0  0  0  0  0  0  0  0  0  0  0  0
   -4.3533   -0.9361    1.1125 H   0  0  0  0  0  0  0  0  0  0  0  0
   -4.2132   -2.6757   -0.6340 H   0  0  0  0  0  0  0  0  0  0  0  0
   -2.1892   -2.9023   -2.0241 H   0  0  0  0  0  0  0  0  0  0  0  0
   -0.2629   -1.3942   -1.7016 H   0  0  0  0  0  0  0  0  0  0  0  0
    5.5520   -2.8154   -0.3730 H   0  0  0  0  0  0  0  0  0  0  0  0
    5.0954   -2.7334   -2.1047 H   0  0  0  0  0  0  0  0  0  0  0  0
    6.6332   -3.4409   -1.6081 H   0  0  0  0  0  0  0  0  0  0  0  0
  1  2  1  0
  2  3  2  0
  3  4  1  0
  4  5  2  0
  5  6  1  0
  6  7  1  0
  7  8  1  0
  8  9  2  0
  8 10  1  0
 10 11  1  0
 11 12  3  0
 10 13  2  3
 13 14  1  0
 14 15  2  0
 15 16  1  0
 16 17  1  0
 17 18  1  0
 18 19  2  0
 18 20  1  0
 20 21  1  0
 21 22  1  0
 22 23  2  0
 23 24  1  0
 24 25  2  0
 25 26  1  0
 16 27  1  0
 27 28  2  0
 28 29  1  0
 29 30  2  0
 30 31  1  0
 31 32  2  0
  6 33  2  0
 33 34  1  0
 33  2  1  0
 32 14  1  0
 26 22  1  0
 32 27  1  0
  1 35  1  0
  1 36  1  0
  1 37  1  0
  3 38  1  0
  4 39  1  0
  5 40  1  0
  7 41  1  0
 13 42  1  0
 15 43  1  0
 17 44  1  0
 17 45  1  0
 20 46  1  0
 21 47  1  0
 21 48  1  0
 23 49  1  0
 24 50  1  0
 25 51  1  0
 28 52  1  0
 29 53  1  0
 30 54  1  0
 31 55  1  0
 34 56  1  0
 34 57  1  0
 34 58  1  0
M  END
$$$$
