
     RDKit          3D

 53 55  0  0  0  0  0  0  0  0999 V2000
   -7.4021    0.8470    1.0735 C   0  0  0  0  0  0  0  0  0  0  0  0
   -6.4666   -0.2038    1.2817 O   0  0  0  0  0  0  0  0  0  0  0  0
   -6.2616   -1.0788    0.2464 C   0  0  0  0  0  0  0  0  0  0  0  0
   -6.9475   -1.0457   -0.9725 C   0  0  0  0  0  0  0  0  0  0  0  0
   -6.6551   -1.9727   -1.9766 C   0  0  0  0  0  0  0  0  0  0  0  0
   -5.6732   -2.9371   -1.7742 C   0  0  0  0  0  0  0  0  0  0  0  0
   -4.9864   -2.9813   -0.5631 C   0  0  0  0  0  0  0  0  0  0  0  0
   -5.2805   -2.0651    0.4619 C   0  0  0  0  0  0  0  0  0  0  0  0
   -4.5003   -2.1322    1.7517 C   0  0  0  0  0  0  0  0  0  0  0  0
   -3.3842   -1.2223    1.7285 N   0  0  0  0  0  0  0  0  0  0  0  0
   -2.1332   -1.5985    1.3073 C   0  0  0  0  0  0  0  0  0  0  0  0
   -1.7586   -2.7378    1.0648 O   0  0  0  0  0  0  0  0  0  0  0  0
   -1.1552   -0.4121    1.1407 C   0  0  0  0  0  0  0  0  0  0  0  0
   -1.5002    0.7202    1.4458 O   0  0  0  0  0  0  0  0  0  0  0  0
    0.0751   -0.7783    0.6484 N   0  0  0  0  0  0  0  0  0  0  0  0
    1.2007    0.1417    0.6216 C   0  0  0  0  0  0  0  0  0  0  0  0
    2.3438   -0.3713   -0.2863 C   0  0  0  0  0  0  0  0  0  0  0  0
    2.6870   -1.7171    0.1169 O   0  0  0  0  0  0  0  0  0  0  0  0
    3.7199   -1.5783    1.0965 C   0  0  0  0  0  0  0  0  0  0  0  0
    4.5404   -0.3967    0.6249 C   0  0  0  0  0  0  0  0  0  0  0  0
    3.6126    0.3734   -0.2169 N   0  0  0  0  0  0  0  0  0  0  0  0
    3.5468    2.0369   -0.0568 S   0  0  0  0  0  6  0  0  0  0  0  0
    3.3543    2.3245    1.3482 O   0  0  0  0  0  0  0  0  0  0  0  0
    2.6455    2.5484   -1.0645 O   0  0  0  0  0  0  0  0  0  0  0  0
    5.1905    2.5297   -0.5129 C   0  0  0  0  0  0  0  0  0  0  0  0
    5.6028    2.3643   -1.8397 C   0  0  0  0  0  0  0  0  0  0  0  0
    6.8922    2.7483   -2.2115 C   0  0  0  0  0  0  0  0  0  0  0  0
    7.7524    3.2971   -1.2589 C   0  0  0  0  0  0  0  0  0  0  0  0
    9.4989    3.8154   -1.7643 Br  0  0  0  0  0  0  0  0  0  0  0  0
    7.3364    3.4698    0.0628 C   0  0  0  0  0  0  0  0  0  0  0  0
    6.0476    3.0873    0.4404 C   0  0  0  0  0  0  0  0  0  0  0  0
   -7.0978    1.4889    0.2402 H   0  0  0  0  0  0  0  0  0  0  0  0
   -7.4186    1.4627    1.9780 H   0  0  0  0  0  0  0  0  0  0  0  0
   -8.4117    0.4512    0.9227 H   0  0  0  0  0  0  0  0  0  0  0  0
   -7.7160   -0.3079   -1.1773 H   0  0  0  0  0  0  0  0  0  0  0  0
   -7.1919   -1.9360   -2.9212 H   0  0  0  0  0  0  0  0  0  0  0  0
   -5.4383   -3.6515   -2.5589 H   0  0  0  0  0  0  0  0  0  0  0  0
   -4.2097   -3.7308   -0.4183 H   0  0  0  0  0  0  0  0  0  0  0  0
   -4.1428   -3.1536    1.9286 H   0  0  0  0  0  0  0  0  0  0  0  0
   -5.1327   -1.8691    2.6063 H   0  0  0  0  0  0  0  0  0  0  0  0
   -3.5712   -0.2244    1.7690 H   0  0  0  0  0  0  0  0  0  0  0  0
    0.2573   -1.7801    0.5967 H   0  0  0  0  0  0  0  0  0  0  0  0
    1.5366    0.2399    1.6599 H   0  0  0  0  0  0  0  0  0  0  0  0
    0.8373    1.1212    0.2958 H   0  0  0  0  0  0  0  0  0  0  0  0
    2.0014   -0.4269   -1.3250 H   0  0  0  0  0  0  0  0  0  0  0  0
    3.2599   -1.3882    2.0723 H   0  0  0  0  0  0  0  0  0  0  0  0
    4.3042   -2.5002    1.1603 H   0  0  0  0  0  0  0  0  0  0  0  0
    5.3719   -0.7321   -0.0041 H   0  0  0  0  0  0  0  0  0  0  0  0
    4.9509    0.1612    1.4703 H   0  0  0  0  0  0  0  0  0  0  0  0
    4.9262    1.9428   -2.5804 H   0  0  0  0  0  0  0  0  0  0  0  0
    7.2144    2.6209   -3.2421 H   0  0  0  0  0  0  0  0  0  0  0  0
    8.0053    3.9053    0.8014 H   0  0  0  0  0  0  0  0  0  0  0  0
    5.7230    3.2317    1.4687 H   0  0  0  0  0  0  0  0  0  0  0  0
  1  2  1  0
  2  3  1  0
  3  4  2  0
  4  5  1  0
  5  6  2  0
  6  7  1  0
  7  8  2  0
  8  9  1  0
  9 10  1  0
 10 11  1  0
 11 12  2  0
 11 13  1  0
 13 14  2  0
 13 15  1  0
 15 16  1  0
 16 17  1  0
 17 18  1  0
 18 19  1  0
 19 20  1  0
 20 21  1  0
 21 22  1  0
 22 23  2  0
 22 24  2  0
 22 25  1  0
 25 26  2  0
 26 27  1  0
 27 28  2  0
 28 29  1  0
 28 30  1  0
 30 31  2  0
  8  3  1  0
 21 17  1  0
 31 25  1  0
  1 32  1  0
  1 33  1  0
  1 34  1  0
  4 35  1  0
  5 36  1  0
  6 37  1  0
  7 38  1  0
  9 39  1  0
  9 40  1  0
 10 41  1  0
 15 42  1  0
 16 43  1  0
 16 44  1  0
 17 45  1  0
 19 46  1  0
 19 47  1  0
 20 48  1  0
 20 49  1  0
 26 50  1  0
 27 51  1  0
 30 52  1  0
 31 53  1  0
M  END
$$$$
