
     RDKit          3D

 46 48  0  0  0  0  0  0  0  0999 V2000
    1.2327    1.9256   -2.7933 O   0  0  0  0  0  0  0  0  0  0  0  0
    0.8113    1.8950   -1.6364 C   0  0  0  0  0  0  0  0  0  0  0  0
   -0.1610    2.9359   -1.0811 C   0  0  0  0  0  0  0  0  0  0  0  0
   -0.7895    2.5910    0.1450 O   0  0  0  0  0  0  0  0  0  0  0  0
   -1.8853    1.7746    0.1001 C   0  0  0  0  0  0  0  0  0  0  0  0
   -2.3920    1.1318   -1.0272 C   0  0  0  0  0  0  0  0  0  0  0  0
   -3.5217    0.3091   -0.9194 C   0  0  0  0  0  0  0  0  0  0  0  0
   -4.1669    0.1100    0.3113 C   0  0  0  0  0  0  0  0  0  0  0  0
   -5.3532   -0.7549    0.4172 C   0  0  0  0  0  0  0  0  0  0  0  0
   -6.5445   -0.2825    0.9931 C   0  0  0  0  0  0  0  0  0  0  0  0
   -7.6718   -1.1026    1.0933 C   0  0  0  0  0  0  0  0  0  0  0  0
   -7.6262   -2.4113    0.6198 C   0  0  0  0  0  0  0  0  0  0  0  0
   -6.4553   -2.9000    0.0462 C   0  0  0  0  0  0  0  0  0  0  0  0
   -5.3293   -2.0782   -0.0543 C   0  0  0  0  0  0  0  0  0  0  0  0
   -3.6419    0.7613    1.4365 C   0  0  0  0  0  0  0  0  0  0  0  0
   -2.5137    1.5810    1.3309 C   0  0  0  0  0  0  0  0  0  0  0  0
    1.2098    0.9338   -0.7279 N   0  0  0  0  0  0  0  0  0  0  0  0
    2.3437    0.1594   -1.0716 N   0  0  0  0  0  0  0  0  0  0  0  0
    3.3988    0.1992   -0.1675 C   0  0  0  0  0  0  0  0  0  0  0  0
    3.2864    0.7327    0.9315 O   0  0  0  0  0  0  0  0  0  0  0  0
    4.5093   -0.4408   -0.6668 N   0  0  0  0  0  0  0  0  0  0  0  0
    5.7753   -0.5738   -0.0604 C   0  0  0  0  0  0  0  0  0  0  0  0
    6.1410    0.0376    1.1407 C   0  0  0  0  0  0  0  0  0  0  0  0
    7.4270   -0.1525    1.6592 C   0  0  0  0  0  0  0  0  0  0  0  0
    8.3417   -0.9485    0.9763 C   0  0  0  0  0  0  0  0  0  0  0  0
    9.5695   -1.1230    1.4811 F   0  0  0  0  0  0  0  0  0  0  0  0
    8.0014   -1.5618   -0.2193 C   0  0  0  0  0  0  0  0  0  0  0  0
    6.7224   -1.3674   -0.7260 C   0  0  0  0  0  0  0  0  0  0  0  0
    6.3876   -1.9579   -1.8849 F   0  0  0  0  0  0  0  0  0  0  0  0
   -0.8939    3.2125   -1.8478 H   0  0  0  0  0  0  0  0  0  0  0  0
    0.4364    3.8335   -0.8834 H   0  0  0  0  0  0  0  0  0  0  0  0
   -1.9410    1.2359   -2.0085 H   0  0  0  0  0  0  0  0  0  0  0  0
   -3.9047   -0.1734   -1.8172 H   0  0  0  0  0  0  0  0  0  0  0  0
   -6.6057    0.7403    1.3596 H   0  0  0  0  0  0  0  0  0  0  0  0
   -8.5848   -0.7168    1.5393 H   0  0  0  0  0  0  0  0  0  0  0  0
   -8.5021   -3.0497    0.6981 H   0  0  0  0  0  0  0  0  0  0  0  0
   -6.4148   -3.9221   -0.3212 H   0  0  0  0  0  0  0  0  0  0  0  0
   -4.4211   -2.4844   -0.4951 H   0  0  0  0  0  0  0  0  0  0  0  0
   -4.1020    0.6242    2.4131 H   0  0  0  0  0  0  0  0  0  0  0  0
   -2.1244    2.0705    2.2207 H   0  0  0  0  0  0  0  0  0  0  0  0
    1.0941    1.1230    0.2707 H   0  0  0  0  0  0  0  0  0  0  0  0
    2.5891    0.2382   -2.0579 H   0  0  0  0  0  0  0  0  0  0  0  0
    4.3810   -0.9626   -1.5254 H   0  0  0  0  0  0  0  0  0  0  0  0
    5.4529    0.6682    1.6957 H   0  0  0  0  0  0  0  0  0  0  0  0
    7.7177    0.3189    2.5937 H   0  0  0  0  0  0  0  0  0  0  0  0
    8.7180   -2.1791   -0.7471 H   0  0  0  0  0  0  0  0  0  0  0  0
  1  2  2  0
  2  3  1  0
  3  4  1  0
  4  5  1  0
  5  6  2  0
  6  7  1  0
  7  8  2  0
  8  9  1  0
  9 10  2  0
 10 11  1  0
 11 12  2  0
 12 13  1  0
 13 14  2  0
  8 15  1  0
 15 16  2  0
  2 17  1  0
 17 18  1  0
 18 19  1  0
 19 20  2  0
 19 21  1  0
 21 22  1  0
 22 23  2  0
 23 24  1  0
 24 25  2  0
 25 26  1  0
 25 27  1  0
 27 28  2  0
 28 29  1  0
 16  5  1  0
 28 22  1  0
 14  9  1  0
  3 30  1  0
  3 31  1  0
  6 32  1  0
  7 33  1  0
 10 34  1  0
 11 35  1  0
 12 36  1  0
 13 37  1  0
 14 38  1  0
 15 39  1  0
 16 40  1  0
 17 41  1  0
 18 42  1  0
 21 43  1  0
 23 44  1  0
 24 45  1  0
 27 46  1  0
M  END
$$$$
