
     RDKit          3D

 44 46  0  0  0  0  0  0  0  0999 V2000
   -5.5134    1.6873   -2.5486 C   0  0  0  0  0  0  0  0  0  0  0  0
   -4.8990    1.5434   -1.1543 C   0  0  0  0  0  0  0  0  0  0  0  0
   -4.5149    2.9107   -0.5838 C   0  0  0  0  0  0  0  0  0  0  0  0
   -3.7223    0.5824   -1.1674 C   0  0  0  0  0  0  0  0  0  0  0  0
   -2.5421    0.8743   -1.8714 C   0  0  0  0  0  0  0  0  0  0  0  0
   -1.4758   -0.0267   -1.8827 C   0  0  0  0  0  0  0  0  0  0  0  0
   -1.5842   -1.2278   -1.1805 C   0  0  0  0  0  0  0  0  0  0  0  0
   -0.2443   -2.3897   -1.2010 S   0  0  0  0  0  6  0  0  0  0  0  0
   -0.8252   -3.7155   -1.2574 O   0  0  0  0  0  0  0  0  0  0  0  0
    0.7362   -1.9665   -2.1766 O   0  0  0  0  0  0  0  0  0  0  0  0
    0.4091   -2.2358    0.3545 N   0  0  0  0  0  0  0  0  0  0  0  0
    1.3097   -1.1606    0.5908 C   0  0  0  0  0  0  0  0  0  0  0  0
    0.8120    0.0895    0.9563 C   0  0  0  0  0  0  0  0  0  0  0  0
    1.6893    1.1566    1.1454 C   0  0  0  0  0  0  0  0  0  0  0  0
    3.0563    0.9657    0.9617 C   0  0  0  0  0  0  0  0  0  0  0  0
    3.8619    2.0556    1.1518 O   0  0  0  0  0  0  0  0  0  0  0  0
    3.5673   -0.2855    0.5910 C   0  0  0  0  0  0  0  0  0  0  0  0
    5.3125   -0.5383    0.3242 S   0  0  0  0  0  0  0  0  0  0  0  0
    5.9080   -0.8750    1.9316 C   0  0  0  0  0  0  0  0  0  0  0  0
    7.2492   -0.8646    2.2174 N   0  0  0  0  0  0  0  0  0  0  0  0
    7.2858   -1.1571    3.4953 C   0  0  0  0  0  0  0  0  0  0  0  0
    6.0189   -1.3280    3.9554 N   0  0  0  0  0  0  0  0  0  0  0  0
    5.1189   -1.1565    2.9749 N   0  0  0  0  0  0  0  0  0  0  0  0
    2.6791   -1.3492    0.3944 C   0  0  0  0  0  0  0  0  0  0  0  0
   -2.7529   -1.5439   -0.4851 C   0  0  0  0  0  0  0  0  0  0  0  0
   -3.8148   -0.6379   -0.4779 C   0  0  0  0  0  0  0  0  0  0  0  0
   -4.8143    2.1406   -3.2595 H   0  0  0  0  0  0  0  0  0  0  0  0
   -6.4070    2.3187   -2.5124 H   0  0  0  0  0  0  0  0  0  0  0  0
   -5.8085    0.7103   -2.9471 H   0  0  0  0  0  0  0  0  0  0  0  0
   -5.6770    1.1315   -0.4983 H   0  0  0  0  0  0  0  0  0  0  0  0
   -4.0799    2.8094    0.4170 H   0  0  0  0  0  0  0  0  0  0  0  0
   -3.7854    3.4297   -1.2145 H   0  0  0  0  0  0  0  0  0  0  0  0
   -5.3974    3.5545   -0.5014 H   0  0  0  0  0  0  0  0  0  0  0  0
   -2.4452    1.8062   -2.4244 H   0  0  0  0  0  0  0  0  0  0  0  0
   -0.5713    0.2159   -2.4368 H   0  0  0  0  0  0  0  0  0  0  0  0
    0.6702   -3.1521    0.7167 H   0  0  0  0  0  0  0  0  0  0  0  0
   -0.2531    0.2416    1.1076 H   0  0  0  0  0  0  0  0  0  0  0  0
    1.3110    2.1333    1.4332 H   0  0  0  0  0  0  0  0  0  0  0  0
    4.7778    1.7661    0.9862 H   0  0  0  0  0  0  0  0  0  0  0  0
    8.1663   -1.2544    4.1144 H   0  0  0  0  0  0  0  0  0  0  0  0
    5.7000   -1.5563    4.8905 H   0  0  0  0  0  0  0  0  0  0  0  0
    3.0541   -2.3190    0.0797 H   0  0  0  0  0  0  0  0  0  0  0  0
   -2.8439   -2.4877    0.0471 H   0  0  0  0  0  0  0  0  0  0  0  0
   -4.7217   -0.8951    0.0664 H   0  0  0  0  0  0  0  0  0  0  0  0
  1  2  1  0
  2  3  1  0
  2  4  1  0
  4  5  2  0
  5  6  1  0
  6  7  2  0
  7  8  1  0
  8  9  2  0
  8 10  2  0
  8 11  1  0
 11 12  1  0
 12 13  2  0
 13 14  1  0
 14 15  2  0
 15 16  1  0
 15 17  1  0
 17 18  1  0
 18 19  1  0
 19 20  1  0
 20 21  2  0
 21 22  1  0
 22 23  1  0
 17 24  2  0
  7 25  1  0
 25 26  2  0
 26  4  1  0
 24 12  1  0
 23 19  2  0
  1 27  1  0
  1 28  1  0
  1 29  1  0
  2 30  1  0
  3 31  1  0
  3 32  1  0
  3 33  1  0
  5 34  1  0
  6 35  1  0
 11 36  1  0
 13 37  1  0
 14 38  1  0
 16 39  1  0
 21 40  1  0
 22 41  1  0
 24 42  1  0
 25 43  1  0
 26 44  1  0
M  END
$$$$
