
     RDKit          3D

 38 40  0  0  0  0  0  0  0  0999 V2000
   -7.0762   -0.4278   -2.3659 C   0  0  0  0  0  0  0  0  0  0  0  0
   -6.2571    0.1337   -1.2196 C   0  0  0  0  0  0  0  0  0  0  0  0
   -6.3199   -0.7842   -0.1314 O   0  0  0  0  0  0  0  0  0  0  0  0
   -5.6743   -0.3074    1.0545 C   0  0  0  0  0  0  0  0  0  0  0  0
   -4.1988   -0.5162    0.9557 C   0  0  0  0  0  0  0  0  0  0  0  0
   -3.5865   -1.6835    0.9949 N   0  0  0  0  0  0  0  0  0  0  0  0
   -2.2156   -1.5523    0.9025 N   0  0  0  0  0  0  0  0  0  0  0  0
   -1.8420   -0.2985    0.7954 C   0  0  0  0  0  0  0  0  0  0  0  0
   -0.5263    0.0647    0.6887 N   0  0  0  0  0  0  0  0  0  0  0  0
   -0.0122    1.3319    0.5465 C   0  0  0  0  0  0  0  0  0  0  0  0
   -0.6457    2.3813    0.4769 O   0  0  0  0  0  0  0  0  0  0  0  0
    1.5182    1.3462    0.4701 C   0  0  0  0  0  0  0  0  0  0  0  0
    2.0486    0.0254    0.5543 O   0  0  0  0  0  0  0  0  0  0  0  0
    3.3996   -0.1056    0.3774 C   0  0  0  0  0  0  0  0  0  0  0  0
    3.8429   -1.4372    0.2437 C   0  0  0  0  0  0  0  0  0  0  0  0
    5.1963   -1.7324    0.0528 C   0  0  0  0  0  0  0  0  0  0  0  0
    6.0768   -0.6762    0.0066 C   0  0  0  0  0  0  0  0  0  0  0  0
    5.6504    0.6237    0.1457 C   0  0  0  0  0  0  0  0  0  0  0  0
    4.3205    0.9452    0.3336 C   0  0  0  0  0  0  0  0  0  0  0  0
    6.6762    1.5144    0.0749 O   0  0  0  0  0  0  0  0  0  0  0  0
    7.7952    0.6258   -0.1313 C   0  0  0  0  0  0  0  0  0  0  0  0
    7.4205   -0.7658   -0.1749 O   0  0  0  0  0  0  0  0  0  0  0  0
   -3.1248    0.8204    0.8168 S   0  0  0  0  0  0  0  0  0  0  0  0
   -6.7110   -1.4169   -2.6570 H   0  0  0  0  0  0  0  0  0  0  0  0
   -8.1225   -0.5505   -2.0676 H   0  0  0  0  0  0  0  0  0  0  0  0
   -7.0325    0.2344   -3.2349 H   0  0  0  0  0  0  0  0  0  0  0  0
   -6.6661    1.1041   -0.9162 H   0  0  0  0  0  0  0  0  0  0  0  0
   -5.2190    0.2653   -1.5426 H   0  0  0  0  0  0  0  0  0  0  0  0
   -5.9523    0.7338    1.2530 H   0  0  0  0  0  0  0  0  0  0  0  0
   -6.0537   -0.9078    1.8882 H   0  0  0  0  0  0  0  0  0  0  0  0
    0.1289   -0.7099    0.7128 H   0  0  0  0  0  0  0  0  0  0  0  0
    1.8767    1.9500    1.3109 H   0  0  0  0  0  0  0  0  0  0  0  0
    1.7864    1.8031   -0.4898 H   0  0  0  0  0  0  0  0  0  0  0  0
    3.1219   -2.2513    0.2820 H   0  0  0  0  0  0  0  0  0  0  0  0
    5.5399   -2.7546   -0.0585 H   0  0  0  0  0  0  0  0  0  0  0  0
    4.0437    1.9860    0.4448 H   0  0  0  0  0  0  0  0  0  0  0  0
    8.5126    0.7700    0.6856 H   0  0  0  0  0  0  0  0  0  0  0  0
    8.2816    0.8887   -1.0786 H   0  0  0  0  0  0  0  0  0  0  0  0
  1  2  1  0
  2  3  1  0
  3  4  1  0
  4  5  1  0
  5  6  2  0
  6  7  1  0
  7  8  2  0
  8  9  1  0
  9 10  1  0
 10 11  2  0
 10 12  1  0
 12 13  1  0
 13 14  1  0
 14 15  2  0
 15 16  1  0
 16 17  2  0
 17 18  1  0
 18 19  2  0
 18 20  1  0
 20 21  1  0
 21 22  1  0
  8 23  1  0
 23  5  1  0
 19 14  1  0
 22 17  1  0
  1 24  1  0
  1 25  1  0
  1 26  1  0
  2 27  1  0
  2 28  1  0
  4 29  1  0
  4 30  1  0
  9 31  1  0
 12 32  1  0
 12 33  1  0
 15 34  1  0
 16 35  1  0
 19 36  1  0
 21 37  1  0
 21 38  1  0
M  END
$$$$
