
     RDKit          3D

 43 46  0  0  0  0  0  0  0  0999 V2000
    6.4106    2.1246   -0.7561 C   0  0  0  0  0  0  0  0  0  0  0  0
    5.0334    1.5282   -0.7187 C   0  0  0  0  0  0  0  0  0  0  0  0
    4.1109    1.8098   -1.7302 C   0  0  0  0  0  0  0  0  0  0  0  0
    2.8180    1.2800   -1.6802 C   0  0  0  0  0  0  0  0  0  0  0  0
    2.4305    0.4655   -0.6099 C   0  0  0  0  0  0  0  0  0  0  0  0
    0.9758   -0.1252   -0.5626 C   0  0  0  0  0  0  0  0  0  0  0  0
   -0.0463    0.1263   -1.4707 C   0  0  0  0  0  0  0  0  0  0  0  0
   -1.1955   -0.5527   -1.0629 N   0  0  0  0  0  4  0  0  0  0  0  0
   -2.4918   -0.5583   -1.7357 C   0  0  0  0  0  0  0  0  0  0  0  0
   -3.5429   -0.0211   -0.7999 C   0  0  0  0  0  0  0  0  0  0  0  0
   -3.4504    1.2828   -0.2860 C   0  0  0  0  0  0  0  0  0  0  0  0
   -4.4234    1.7741    0.5873 C   0  0  0  0  0  0  0  0  0  0  0  0
   -5.5013    0.9707    0.9563 C   0  0  0  0  0  0  0  0  0  0  0  0
   -5.6057   -0.3199    0.4459 C   0  0  0  0  0  0  0  0  0  0  0  0
   -6.9284   -1.3184    0.9022 Cl  0  0  0  0  0  0  0  0  0  0  0  0
   -4.6389   -0.8167   -0.4301 C   0  0  0  0  0  0  0  0  0  0  0  0
   -0.8875   -1.2169    0.0467 C   0  0  0  0  0  0  0  0  0  0  0  0
    0.3888   -0.9900    0.3434 N   0  0  0  0  0  0  0  0  0  0  0  0
    0.8048   -1.7115    1.5379 C   0  0  0  0  0  0  0  0  0  0  0  0
   -0.3590   -2.7115    1.7811 C   0  0  0  0  0  0  0  0  0  0  0  0
   -1.5560   -2.1284    1.0046 C   0  0  0  0  0  0  0  0  0  0  0  0
    3.3425    0.1984    0.4115 C   0  0  0  0  0  0  0  0  0  0  0  0
    4.6348    0.7309    0.3583 C   0  0  0  0  0  0  0  0  0  0  0  0
    6.4108    3.0966   -0.2535 H   0  0  0  0  0  0  0  0  0  0  0  0
    7.1336    1.4686   -0.2600 H   0  0  0  0  0  0  0  0  0  0  0  0
    6.7497    2.2592   -1.7886 H   0  0  0  0  0  0  0  0  0  0  0  0
    4.3976    2.4452   -2.5671 H   0  0  0  0  0  0  0  0  0  0  0  0
    2.1441    1.5229   -2.4962 H   0  0  0  0  0  0  0  0  0  0  0  0
   -0.1074    0.7258   -2.3631 H   0  0  0  0  0  0  0  0  0  0  0  0
   -2.4479    0.0570   -2.6409 H   0  0  0  0  0  0  0  0  0  0  0  0
   -2.7060   -1.5894   -2.0384 H   0  0  0  0  0  0  0  0  0  0  0  0
   -2.6207    1.9312   -0.5626 H   0  0  0  0  0  0  0  0  0  0  0  0
   -4.3467    2.7870    0.9783 H   0  0  0  0  0  0  0  0  0  0  0  0
   -6.2579    1.3586    1.6349 H   0  0  0  0  0  0  0  0  0  0  0  0
   -4.7510   -1.8263   -0.8212 H   0  0  0  0  0  0  0  0  0  0  0  0
    1.7460   -2.2397    1.3702 H   0  0  0  0  0  0  0  0  0  0  0  0
    0.8951   -1.0014    2.3651 H   0  0  0  0  0  0  0  0  0  0  0  0
   -0.5722   -2.8645    2.8423 H   0  0  0  0  0  0  0  0  0  0  0  0
   -0.0897   -3.6821    1.3479 H   0  0  0  0  0  0  0  0  0  0  0  0
   -2.1972   -1.5087    1.6347 H   0  0  0  0  0  0  0  0  0  0  0  0
   -2.1215   -2.8780    0.4500 H   0  0  0  0  0  0  0  0  0  0  0  0
    3.0847   -0.4039    1.2726 H   0  0  0  0  0  0  0  0  0  0  0  0
    5.3333    0.5212    1.1673 H   0  0  0  0  0  0  0  0  0  0  0  0
  1  2  1  0
  2  3  2  0
  3  4  1  0
  4  5  2  0
  5  6  1  0
  6  7  2  0
  7  8  1  0
  8  9  1  0
  9 10  1  0
 10 11  2  0
 11 12  1  0
 12 13  2  0
 13 14  1  0
 14 15  1  0
 14 16  2  0
  8 17  2  0
 17 18  1  0
 18 19  1  0
 19 20  1  0
 20 21  1  0
  5 22  1  0
 22 23  2  0
 23  2  1  0
 18  6  1  0
 16 10  1  0
 21 17  1  0
  1 24  1  0
  1 25  1  0
  1 26  1  0
  3 27  1  0
  4 28  1  0
  7 29  1  0
  9 30  1  0
  9 31  1  0
 11 32  1  0
 12 33  1  0
 13 34  1  0
 16 35  1  0
 19 36  1  0
 19 37  1  0
 20 38  1  0
 20 39  1  0
 21 40  1  0
 21 41  1  0
 22 42  1  0
 23 43  1  0
M  CHG  1   8   1
M  END
$$$$
