
     RDKit          3D

 37 39  0  0  0  0  0  0  0  0999 V2000
   -7.4772    0.8935    0.5293 C   0  0  0  0  0  0  0  0  0  0  0  0
   -6.5774   -0.1323    0.1301 O   0  0  0  0  0  0  0  0  0  0  0  0
   -5.2565    0.2045    0.0340 C   0  0  0  0  0  0  0  0  0  0  0  0
   -4.4154   -0.8329   -0.3654 C   0  0  0  0  0  0  0  0  0  0  0  0
   -3.0395   -0.6221   -0.5036 C   0  0  0  0  0  0  0  0  0  0  0  0
   -2.4675    0.6335   -0.2444 C   0  0  0  0  0  0  0  0  0  0  0  0
   -1.0146    0.7939   -0.4079 C   0  0  0  0  0  0  0  0  0  0  0  0
   -0.1905   -0.1386   -0.8444 N   0  0  0  0  0  0  0  0  0  0  0  0
    1.1000    0.3477   -0.8613 C   0  0  0  0  0  0  0  0  0  0  0  0
    2.1562   -0.4204   -1.2795 N   0  0  0  0  0  0  0  0  0  0  0  0
    2.0852   -1.7544   -1.6094 C   0  0  0  0  0  0  0  0  0  0  0  0
    1.0881   -2.4704   -1.5527 O   0  0  0  0  0  0  0  0  0  0  0  0
    3.4127   -2.3274   -2.0813 C   0  0  0  0  0  0  0  0  0  0  0  0
    4.3343   -3.0500   -0.6930 S   0  0  0  0  0  0  0  0  0  0  0  0
    4.8965   -1.6078    0.1130 C   0  0  0  0  0  0  0  0  0  0  0  0
    4.8641   -0.4255   -0.4645 N   0  0  0  0  0  0  0  0  0  0  0  0
    5.3140    0.5740    0.3695 N   0  0  0  0  0  0  0  0  0  0  0  0
    5.6909    0.1059    1.5416 C   0  0  0  0  0  0  0  0  0  0  0  0
    6.2252    0.9282    2.6557 C   0  0  0  0  0  0  0  0  0  0  0  0
    5.5150   -1.5964    1.7083 S   0  0  0  0  0  0  0  0  0  0  0  0
    1.3194    1.6050   -0.4766 N   0  0  0  0  0  0  0  0  0  0  0  0
   -0.1577    2.2398   -0.0431 S   0  0  0  0  0  0  0  0  0  0  0  0
   -3.3256    1.6698    0.1563 C   0  0  0  0  0  0  0  0  0  0  0  0
   -4.7063    1.4578    0.2945 C   0  0  0  0  0  0  0  0  0  0  0  0
   -8.4836    0.4646    0.5543 H   0  0  0  0  0  0  0  0  0  0  0  0
   -7.4837    1.7162   -0.1932 H   0  0  0  0  0  0  0  0  0  0  0  0
   -7.2436    1.2534    1.5367 H   0  0  0  0  0  0  0  0  0  0  0  0
   -4.8298   -1.8167   -0.5728 H   0  0  0  0  0  0  0  0  0  0  0  0
   -2.4103   -1.4555   -0.8181 H   0  0  0  0  0  0  0  0  0  0  0  0
    3.0533    0.0508   -1.2124 H   0  0  0  0  0  0  0  0  0  0  0  0
    4.0035   -1.5730   -2.6111 H   0  0  0  0  0  0  0  0  0  0  0  0
    3.1971   -3.1200   -2.8060 H   0  0  0  0  0  0  0  0  0  0  0  0
    5.5902    0.8424    3.5430 H   0  0  0  0  0  0  0  0  0  0  0  0
    7.2407    0.6154    2.9184 H   0  0  0  0  0  0  0  0  0  0  0  0
    6.2618    1.9840    2.3688 H   0  0  0  0  0  0  0  0  0  0  0  0
   -2.9483    2.6669    0.3687 H   0  0  0  0  0  0  0  0  0  0  0  0
   -5.3207    2.2960    0.6069 H   0  0  0  0  0  0  0  0  0  0  0  0
  1  2  1  0
  2  3  1  0
  3  4  2  0
  4  5  1  0
  5  6  2  0
  6  7  1  0
  7  8  2  0
  8  9  1  0
  9 10  1  0
 10 11  1  0
 11 12  2  0
 11 13  1  0
 13 14  1  0
 14 15  1  0
 15 16  2  0
 16 17  1  0
 17 18  2  0
 18 19  1  0
 18 20  1  0
  9 21  2  0
 21 22  1  0
  6 23  1  0
 23 24  2  0
 24  3  1  0
 22  7  1  0
 20 15  1  0
  1 25  1  0
  1 26  1  0
  1 27  1  0
  4 28  1  0
  5 29  1  0
 10 30  1  0
 13 31  1  0
 13 32  1  0
 19 33  1  0
 19 34  1  0
 19 35  1  0
 23 36  1  0
 24 37  1  0
M  END
$$$$
