
     RDKit          3D

 50 53  0  0  0  0  0  0  0  0999 V2000
    6.9426    3.4075   -0.3645 C   0  0  0  0  0  0  0  0  0  0  0  0
    6.7505    2.1336   -0.9665 O   0  0  0  0  0  0  0  0  0  0  0  0
    5.6336    1.4373   -0.5967 C   0  0  0  0  0  0  0  0  0  0  0  0
    4.6772    1.8487    0.3283 C   0  0  0  0  0  0  0  0  0  0  0  0
    3.5694    1.0347    0.6105 C   0  0  0  0  0  0  0  0  0  0  0  0
    3.3857   -0.2071   -0.0242 C   0  0  0  0  0  0  0  0  0  0  0  0
    2.2175   -1.0695    0.2524 C   0  0  0  0  0  0  0  0  0  0  0  0
    0.9695   -0.5669    0.5775 C   0  0  0  0  0  0  0  0  0  0  0  0
   -0.0687   -1.4691    0.8189 C   0  0  0  0  0  0  0  0  0  0  0  0
   -1.3966   -0.9038    1.1514 C   0  0  0  0  0  0  0  0  0  0  0  0
   -1.8761   -1.1481    2.2501 O   0  0  0  0  0  0  0  0  0  0  0  0
   -1.9367   -0.1370    0.1368 N   0  0  0  0  0  0  0  0  0  0  0  0
   -3.1704    0.5471    0.1455 C   0  0  0  0  0  0  0  0  0  0  0  0
   -4.0467    0.5601    1.2273 C   0  0  0  0  0  0  0  0  0  0  0  0
   -5.2516    1.2671    1.1514 C   0  0  0  0  0  0  0  0  0  0  0  0
   -5.6067    1.9723   -0.0079 C   0  0  0  0  0  0  0  0  0  0  0  0
   -6.9062    2.7279   -0.0364 C   0  0  0  0  0  0  0  0  0  0  0  0
   -4.7345    1.9503   -1.1075 C   0  0  0  0  0  0  0  0  0  0  0  0
   -4.9768    2.6978   -2.2746 N   0  0  0  0  0  0  0  0  0  0  0  0
   -3.5192    1.2555   -1.0111 C   0  0  0  0  0  0  0  0  0  0  0  0
    0.1385   -2.8608    0.7512 C   0  0  0  0  0  0  0  0  0  0  0  0
   -0.8557   -3.8426    0.9910 C   0  0  0  0  0  0  0  0  0  0  0  0
   -0.5623   -5.2004    0.8871 C   0  0  0  0  0  0  0  0  0  0  0  0
    0.7215   -5.5954    0.5408 C   0  0  0  0  0  0  0  0  0  0  0  0
    1.7027   -4.6301    0.3027 C   0  0  0  0  0  0  0  0  0  0  0  0
    1.4364   -3.2710    0.4013 C   0  0  0  0  0  0  0  0  0  0  0  0
    2.4333   -2.4039    0.1507 N   0  0  0  0  0  0  0  0  0  0  0  0
    4.3727   -0.6080   -0.9407 C   0  0  0  0  0  0  0  0  0  0  0  0
    5.4773    0.2029   -1.2248 C   0  0  0  0  0  0  0  0  0  0  0  0
    7.0874    3.3123    0.7154 H   0  0  0  0  0  0  0  0  0  0  0  0
    7.8535    3.8439   -0.7852 H   0  0  0  0  0  0  0  0  0  0  0  0
    6.1136    4.0844   -0.5940 H   0  0  0  0  0  0  0  0  0  0  0  0
    4.7628    2.7918    0.8556 H   0  0  0  0  0  0  0  0  0  0  0  0
    2.8593    1.3859    1.3566 H   0  0  0  0  0  0  0  0  0  0  0  0
    0.7921    0.5010    0.6455 H   0  0  0  0  0  0  0  0  0  0  0  0
   -1.4144   -0.0860   -0.7299 H   0  0  0  0  0  0  0  0  0  0  0  0
   -3.8240    0.0347    2.1504 H   0  0  0  0  0  0  0  0  0  0  0  0
   -5.9116    1.2628    2.0169 H   0  0  0  0  0  0  0  0  0  0  0  0
   -7.5573    2.3314   -0.8243 H   0  0  0  0  0  0  0  0  0  0  0  0
   -7.4462    2.6409    0.9129 H   0  0  0  0  0  0  0  0  0  0  0  0
   -6.7225    3.7916   -0.2185 H   0  0  0  0  0  0  0  0  0  0  0  0
   -5.9292    3.0403   -2.3492 H   0  0  0  0  0  0  0  0  0  0  0  0
   -4.3154    3.4678   -2.3605 H   0  0  0  0  0  0  0  0  0  0  0  0
   -2.8508    1.2677   -1.8683 H   0  0  0  0  0  0  0  0  0  0  0  0
   -1.8672   -3.5524    1.2721 H   0  0  0  0  0  0  0  0  0  0  0  0
   -1.3333   -5.9420    1.0801 H   0  0  0  0  0  0  0  0  0  0  0  0
    0.9670   -6.6507    0.4582 H   0  0  0  0  0  0  0  0  0  0  0  0
    2.7078   -4.9488    0.0339 H   0  0  0  0  0  0  0  0  0  0  0  0
    4.2858   -1.5684   -1.4468 H   0  0  0  0  0  0  0  0  0  0  0  0
    6.2222   -0.1376   -1.9412 H   0  0  0  0  0  0  0  0  0  0  0  0
  1  2  1  0
  2  3  1  0
  3  4  2  0
  4  5  1  0
  5  6  2  0
  6  7  1  0
  7  8  2  0
  8  9  1  0
  9 10  1  0
 10 11  2  0
 10 12  1  0
 12 13  1  0
 13 14  2  0
 14 15  1  0
 15 16  2  0
 16 17  1  0
 16 18  1  0
 18 19  1  0
 18 20  2  0
  9 21  2  0
 21 22  1  0
 22 23  2  0
 23 24  1  0
 24 25  2  0
 25 26  1  0
 26 27  2  0
  6 28  1  0
 28 29  2  0
 29  3  1  0
 27  7  1  0
 20 13  1  0
 26 21  1  0
  1 30  1  0
  1 31  1  0
  1 32  1  0
  4 33  1  0
  5 34  1  0
  8 35  1  0
 12 36  1  0
 14 37  1  0
 15 38  1  0
 17 39  1  0
 17 40  1  0
 17 41  1  0
 19 42  1  0
 19 43  1  0
 20 44  1  0
 22 45  1  0
 23 46  1  0
 24 47  1  0
 25 48  1  0
 28 49  1  0
 29 50  1  0
M  END
$$$$
