
     RDKit          3D

 56 58  0  0  0  0  0  0  0  0999 V2000
    0.8875    1.5210   -4.1988 C   0  0  0  0  0  0  0  0  0  0  0  0
    1.6624    0.9645   -3.1461 O   0  0  0  0  0  0  0  0  0  0  0  0
    1.0257    0.6932   -1.9596 C   0  0  0  0  0  0  0  0  0  0  0  0
   -0.3576    0.8028   -1.7615 C   0  0  0  0  0  0  0  0  0  0  0  0
   -0.9312    0.5051   -0.5172 C   0  0  0  0  0  0  0  0  0  0  0  0
   -2.3819    0.5758   -0.2886 C   0  0  0  0  0  0  0  0  0  0  0  0
   -3.1532    1.5655   -0.7642 C   0  0  0  0  0  0  0  0  0  0  0  0
   -4.6214    1.6863   -0.5586 C   0  0  0  0  0  0  0  0  0  0  0  0
   -5.2198    2.6932   -0.9228 O   0  0  0  0  0  0  0  0  0  0  0  0
   -5.3646    0.6003    0.0988 C   0  0  0  0  0  0  0  0  0  0  0  0
   -5.6508   -0.5925   -0.5956 C   0  0  0  0  0  0  0  0  0  0  0  0
   -5.1663   -0.6868   -1.8733 O   0  0  0  0  0  0  0  0  0  0  0  0
   -5.4977   -1.8478   -2.6259 C   0  0  0  0  0  0  0  0  0  0  0  0
   -6.3931   -1.5969    0.0476 C   0  0  0  0  0  0  0  0  0  0  0  0
   -6.8528   -1.4172    1.3563 C   0  0  0  0  0  0  0  0  0  0  0  0
   -6.5608   -0.2301    2.0111 C   0  0  0  0  0  0  0  0  0  0  0  0
   -7.0022   -0.0240    3.3159 O   0  0  0  0  0  0  0  0  0  0  0  0
   -6.5531    1.2326    3.7137 C   0  0  0  0  0  0  0  0  0  0  0  0
   -6.7814    1.6901    4.8255 O   0  0  0  0  0  0  0  0  0  0  0  0
   -5.6136    2.1217    2.5127 S   0  0  0  0  0  0  0  0  0  0  0  0
   -5.8251    0.7778    1.3993 C   0  0  0  0  0  0  0  0  0  0  0  0
   -0.1047    0.0711    0.5228 C   0  0  0  0  0  0  0  0  0  0  0  0
    1.2761   -0.0448    0.3351 C   0  0  0  0  0  0  0  0  0  0  0  0
    1.8500    0.2622   -0.9014 C   0  0  0  0  0  0  0  0  0  0  0  0
    3.1924    0.1806   -1.1760 O   0  0  0  0  0  0  0  0  0  0  0  0
    4.0496   -0.3425   -0.1597 C   0  0  0  0  0  0  0  0  0  0  0  0
    5.4664   -0.3827   -0.7260 C   0  0  0  0  0  0  0  0  0  0  0  0
    6.4673   -1.0607    0.2154 C   0  0  0  0  0  0  0  0  0  0  0  0
    6.5375   -0.4687    1.5622 N   0  0  0  0  0  0  0  0  0  0  0  0
    7.0976    0.8858    1.5351 C   0  0  0  0  0  0  0  0  0  0  0  0
    7.3495   -1.3174    2.4409 C   0  0  0  0  0  0  0  0  0  0  0  0
    1.5595    1.7237   -5.0375 H   0  0  0  0  0  0  0  0  0  0  0  0
    0.1300    0.8117   -4.5475 H   0  0  0  0  0  0  0  0  0  0  0  0
    0.4338    2.4717   -3.8997 H   0  0  0  0  0  0  0  0  0  0  0  0
   -1.0090    1.1053   -2.5748 H   0  0  0  0  0  0  0  0  0  0  0  0
   -2.7914   -0.2302    0.3130 H   0  0  0  0  0  0  0  0  0  0  0  0
   -2.7341    2.3910   -1.3324 H   0  0  0  0  0  0  0  0  0  0  0  0
   -5.0595   -1.7353   -3.6230 H   0  0  0  0  0  0  0  0  0  0  0  0
   -6.5818   -1.9452   -2.7472 H   0  0  0  0  0  0  0  0  0  0  0  0
   -5.0667   -2.7463   -2.1718 H   0  0  0  0  0  0  0  0  0  0  0  0
   -6.6347   -2.5338   -0.4470 H   0  0  0  0  0  0  0  0  0  0  0  0
   -7.4297   -2.1942    1.8503 H   0  0  0  0  0  0  0  0  0  0  0  0
   -0.5230   -0.1731    1.4970 H   0  0  0  0  0  0  0  0  0  0  0  0
    1.8758   -0.3741    1.1774 H   0  0  0  0  0  0  0  0  0  0  0  0
    4.0197    0.3099    0.7203 H   0  0  0  0  0  0  0  0  0  0  0  0
    3.7337   -1.3574    0.1098 H   0  0  0  0  0  0  0  0  0  0  0  0
    5.4537   -0.9269   -1.6799 H   0  0  0  0  0  0  0  0  0  0  0  0
    5.7902    0.6332   -0.9834 H   0  0  0  0  0  0  0  0  0  0  0  0
    7.4581   -1.0642   -0.2572 H   0  0  0  0  0  0  0  0  0  0  0  0
    6.1623   -2.1123    0.3044 H   0  0  0  0  0  0  0  0  0  0  0  0
    7.1624    1.2937    2.5503 H   0  0  0  0  0  0  0  0  0  0  0  0
    6.4528    1.5710    0.9752 H   0  0  0  0  0  0  0  0  0  0  0  0
    8.0998    0.9092    1.0925 H   0  0  0  0  0  0  0  0  0  0  0  0
    7.3729   -0.9089    3.4579 H   0  0  0  0  0  0  0  0  0  0  0  0
    8.3814   -1.4159    2.0838 H   0  0  0  0  0  0  0  0  0  0  0  0
    6.9133   -2.3202    2.5188 H   0  0  0  0  0  0  0  0  0  0  0  0
  1  2  1  0
  2  3  1  0
  3  4  2  0
  4  5  1  0
  5  6  1  0
  6  7  2  0
  7  8  1  0
  8  9  2  0
  8 10  1  0
 10 11  2  0
 11 12  1  0
 12 13  1  0
 11 14  1  0
 14 15  2  0
 15 16  1  0
 16 17  1  0
 17 18  1  0
 18 19  2  0
 18 20  1  0
 20 21  1  0
  5 22  2  0
 22 23  1  0
 23 24  2  0
 24 25  1  0
 25 26  1  0
 26 27  1  0
 27 28  1  0
 28 29  1  0
 29 30  1  0
 29 31  1  0
 24  3  1  0
 21 10  1  0
 21 16  2  0
  1 32  1  0
  1 33  1  0
  1 34  1  0
  4 35  1  0
  6 36  1  0
  7 37  1  0
 13 38  1  0
 13 39  1  0
 13 40  1  0
 14 41  1  0
 15 42  1  0
 22 43  1  0
 23 44  1  0
 26 45  1  0
 26 46  1  0
 27 47  1  0
 27 48  1  0
 28 49  1  0
 28 50  1  0
 30 51  1  0
 30 52  1  0
 30 53  1  0
 31 54  1  0
 31 55  1  0
 31 56  1  0
M  END
$$$$
