
     RDKit          3D

 85 87  0  0  0  0  0  0  0  0999 V2000
   -2.8354    4.2479   -0.8533 C   0  0  0  0  0  0  0  0  0  0  0  0
   -2.1105    2.9385   -0.9413 C   0  0  0  0  0  0  0  0  0  0  0  0
   -1.1500    2.7360   -1.6727 O   0  0  0  0  0  0  0  0  0  0  0  0
   -2.6716    2.0380   -0.0996 O   0  0  0  0  0  0  0  0  0  0  0  0
   -2.0464    0.7288    0.0035 C   0  0  1  0  0  0  0  0  0  0  0  0
   -1.1728    0.6914    1.2950 C   0  0  2  0  0  0  0  0  0  0  0  0
   -0.1825    1.7499    1.2509 O   0  0  0  0  0  0  0  0  0  0  0  0
   -0.4171    2.8573    1.9975 C   0  0  0  0  0  0  0  0  0  0  0  0
    0.7665    3.7743    1.9556 C   0  0  0  0  0  0  0  0  0  0  0  0
   -1.4472    3.0972    2.6142 O   0  0  0  0  0  0  0  0  0  0  0  0
   -0.3596   -0.5771    1.5680 C   0  0  0  0  0  0  0  0  0  0  0  0
   -0.5578   -1.1412    2.9585 C   0  0  0  0  0  0  0  0  0  0  0  0
    0.5878   -1.1386    0.7777 C   0  0  0  0  0  0  0  0  0  0  0  0
    1.0379   -0.7489   -0.6123 C   0  0  1  0  0  0  0  0  0  0  0  0
    2.1379    0.3354   -0.6654 C   0  0  1  0  0  0  0  0  0  0  0  0
    3.1957    0.0562    0.2727 O   0  0  0  0  0  0  0  0  0  0  0  0
    4.0100    1.1052    0.5626 C   0  0  0  0  0  0  0  0  0  0  0  0
    3.8526    2.2594    0.1923 O   0  0  0  0  0  0  0  0  0  0  0  0
    5.1905    0.6503    1.3491 C   0  0  0  0  0  0  0  0  0  0  0  0
    6.1244    1.6136    1.7505 C   0  0  0  0  0  0  0  0  0  0  0  0
    7.2607    1.2424    2.4662 C   0  0  0  0  0  0  0  0  0  0  0  0
    7.4789   -0.0962    2.7883 C   0  0  0  0  0  0  0  0  0  0  0  0
    6.5599   -1.0623    2.3925 C   0  0  0  0  0  0  0  0  0  0  0  0
    5.4149   -0.6966    1.6766 C   0  0  0  0  0  0  0  0  0  0  0  0
    2.7093    0.2330   -2.0930 C   0  0  2  0  0  0  0  0  0  0  0  0
    2.2546    1.3994   -2.9728 C   0  0  0  0  0  0  0  0  0  0  0  0
    2.2165   -1.1088   -2.6642 C   0  0  0  0  0  0  0  0  0  0  0  0
    1.5964   -1.8932   -1.4866 C   0  0  1  0  0  0  0  0  0  0  0  0
    2.6362   -2.6175   -0.8169 O   0  0  0  0  0  0  0  0  0  0  0  0
    0.5621   -2.8984   -2.0382 C   0  0  0  0  0  0  0  0  0  0  0  0
    0.7479   -3.4766   -3.1175 O   0  0  0  0  0  0  0  0  0  0  0  0
   -0.5741   -3.3710   -1.1890 C   0  0  0  0  0  0  0  0  0  0  0  0
   -0.2447   -4.5474   -0.3119 C   0  0  0  0  0  0  0  0  0  0  0  0
   -1.8176   -2.8651   -1.2773 C   0  0  0  0  0  0  0  0  0  0  0  0
   -2.3280   -1.7089   -2.1134 C   0  0  0  0  0  0  0  0  0  0  0  0
   -3.5141   -0.9036   -1.4712 C   0  0  0  0  0  0  0  0  0  0  0  0
   -4.7645   -1.8226   -1.3760 C   0  0  0  0  0  0  0  0  0  0  0  0
   -3.8964    0.2495   -2.4445 C   0  0  0  0  0  0  0  0  0  0  0  0
   -3.1624   -0.3587   -0.0300 C   0  0  2  0  0  0  0  0  0  0  0  0
   -4.3780    0.2185    0.5196 O   0  0  0  0  0  0  0  0  0  0  0  0
   -4.6463    0.0125    1.8331 C   0  0  0  0  0  0  0  0  0  0  0  0
   -5.8771    0.7709    2.2296 C   0  0  0  0  0  0  0  0  0  0  0  0
   -3.9820   -0.6733    2.5951 O   0  0  0  0  0  0  0  0  0  0  0  0
   -2.6293    4.7242    0.1060 H   0  0  0  0  0  0  0  0  0  0  0  0
   -3.9099    4.0986   -0.9840 H   0  0  0  0  0  0  0  0  0  0  0  0
   -2.4875    4.9001   -1.6611 H   0  0  0  0  0  0  0  0  0  0  0  0
   -1.4092    0.5972   -0.8617 H   0  0  0  0  0  0  0  0  0  0  0  0
   -1.8341    0.8598    2.1523 H   0  0  0  0  0  0  0  0  0  0  0  0
    1.7036    3.2151    2.0748 H   0  0  0  0  0  0  0  0  0  0  0  0
    0.7720    4.3508    1.0270 H   0  0  0  0  0  0  0  0  0  0  0  0
    0.7018    4.4687    2.8040 H   0  0  0  0  0  0  0  0  0  0  0  0
    0.0013   -2.0720    3.1290 H   0  0  0  0  0  0  0  0  0  0  0  0
   -1.6142   -1.3695    3.1418 H   0  0  0  0  0  0  0  0  0  0  0  0
   -0.2165   -0.4119    3.7046 H   0  0  0  0  0  0  0  0  0  0  0  0
    1.1586   -1.9717    1.1967 H   0  0  0  0  0  0  0  0  0  0  0  0
    0.1900   -0.3530   -1.1644 H   0  0  0  0  0  0  0  0  0  0  0  0
    1.7039    1.3171   -0.4548 H   0  0  0  0  0  0  0  0  0  0  0  0
    5.9626    2.6643    1.5075 H   0  0  0  0  0  0  0  0  0  0  0  0
    7.9739    2.0062    2.7703 H   0  0  0  0  0  0  0  0  0  0  0  0
    8.3622   -0.3796    3.3533 H   0  0  0  0  0  0  0  0  0  0  0  0
    6.7378   -2.1018    2.6340 H   0  0  0  0  0  0  0  0  0  0  0  0
    4.7066   -1.4607    1.3743 H   0  0  0  0  0  0  0  0  0  0  0  0
    3.8063    0.2381   -2.0761 H   0  0  0  0  0  0  0  0  0  0  0  0
    1.1711    1.4079   -3.0870 H   0  0  0  0  0  0  0  0  0  0  0  0
    2.5507    2.3573   -2.5379 H   0  0  0  0  0  0  0  0  0  0  0  0
    2.7012    1.3158   -3.9570 H   0  0  0  0  0  0  0  0  0  0  0  0
    3.0501   -1.6495   -3.1357 H   0  0  0  0  0  0  0  0  0  0  0  0
    1.4624   -0.9327   -3.4443 H   0  0  0  0  0  0  0  0  0  0  0  0
    3.1276   -3.1085   -1.4933 H   0  0  0  0  0  0  0  0  0  0  0  0
   -0.2245   -5.4757   -0.8899 H   0  0  0  0  0  0  0  0  0  0  0  0
   -0.9761   -4.6715    0.4931 H   0  0  0  0  0  0  0  0  0  0  0  0
    0.7247   -4.4214    0.1699 H   0  0  0  0  0  0  0  0  0  0  0  0
   -2.5822   -3.3787   -0.6841 H   0  0  0  0  0  0  0  0  0  0  0  0
   -1.5062   -1.0296   -2.3617 H   0  0  0  0  0  0  0  0  0  0  0  0
   -2.6752   -2.1253   -3.0703 H   0  0  0  0  0  0  0  0  0  0  0  0
   -4.9708   -2.3134   -2.3290 H   0  0  0  0  0  0  0  0  0  0  0  0
   -4.6523   -2.6027   -0.6117 H   0  0  0  0  0  0  0  0  0  0  0  0
   -5.6585   -1.2475   -1.1181 H   0  0  0  0  0  0  0  0  0  0  0  0
   -4.6711    0.9019   -2.0155 H   0  0  0  0  0  0  0  0  0  0  0  0
   -3.0313    0.8728   -2.7048 H   0  0  0  0  0  0  0  0  0  0  0  0
   -4.2952   -0.1540   -3.3870 H   0  0  0  0  0  0  0  0  0  0  0  0
   -2.8728   -1.2200    0.5802 H   0  0  0  0  0  0  0  0  0  0  0  0
   -5.6385    1.8261    2.3606 H   0  0  0  0  0  0  0  0  0  0  0  0
   -6.2672    0.3789    3.1771 H   0  0  0  0  0  0  0  0  0  0  0  0
   -6.6501    0.6505    1.4711 H   0  0  0  0  0  0  0  0  0  0  0  0
  1  2  1  0
  2  3  2  0
  2  4  1  0
  4  5  1  0
  5  6  1  0
  6  7  1  0
  7  8  1  0
  8  9  1  0
  8 10  2  0
  6 11  1  0
 11 12  1  0
 11 13  2  0
 13 14  1  0
 14 15  1  0
 15 16  1  0
 16 17  1  0
 17 18  2  0
 17 19  1  0
 19 20  2  0
 20 21  1  0
 21 22  2  0
 22 23  1  0
 23 24  2  0
 15 25  1  0
 25 26  1  0
 25 27  1  0
 27 28  1  0
 28 29  1  1
 28 30  1  0
 30 31  2  0
 30 32  1  0
 32 33  1  0
 32 34  2  3
 34 35  1  0
 35 36  1  0
 36 37  1  0
 36 38  1  0
 36 39  1  0
 39 40  1  0
 40 41  1  0
 41 42  1  0
 41 43  2  0
 39  5  1  0
 28 14  1  0
 24 19  1  0
  1 44  1  0
  1 45  1  0
  1 46  1  0
  5 47  1  6
  6 48  1  1
  9 49  1  0
  9 50  1  0
  9 51  1  0
 12 52  1  0
 12 53  1  0
 12 54  1  0
 13 55  1  0
 14 56  1  6
 15 57  1  1
 20 58  1  0
 21 59  1  0
 22 60  1  0
 23 61  1  0
 24 62  1  0
 25 63  1  1
 26 64  1  0
 26 65  1  0
 26 66  1  0
 27 67  1  0
 27 68  1  0
 29 69  1  0
 33 70  1  0
 33 71  1  0
 33 72  1  0
 34 73  1  0
 35 74  1  0
 35 75  1  0
 37 76  1  0
 37 77  1  0
 37 78  1  0
 38 79  1  0
 38 80  1  0
 38 81  1  0
 39 82  1  1
 42 83  1  0
 42 84  1  0
 42 85  1  0
M  END
$$$$
