
     RDKit          3D

 48 51  0  0  0  0  0  0  0  0999 V2000
    7.2858    0.2337   -1.9180 C   0  0  0  0  0  0  0  0  0  0  0  0
    5.9726    0.2701   -1.2531 C   0  0  0  0  0  0  0  0  0  0  0  0
    5.5288   -0.0260    0.0101 C   0  0  0  0  0  0  0  0  0  0  0  0
    4.1362    0.2291   -0.0305 C   0  0  0  0  0  0  0  0  0  0  0  0
    3.1709    0.0676    1.0576 C   0  0  0  0  0  0  0  0  0  0  0  0
    3.4952   -0.3168    2.1764 O   0  0  0  0  0  0  0  0  0  0  0  0
    1.8739    0.3692    0.7095 N   0  0  0  0  0  0  0  0  0  0  0  0
    0.7625    0.1864    1.6141 C   0  0  0  0  0  0  0  0  0  0  0  0
    0.3774   -1.3025    1.7884 C   0  0  0  0  0  0  0  0  0  0  0  0
   -0.5154   -1.8933    0.6524 C   0  0  0  0  0  0  0  0  0  0  0  0
    0.2499   -1.9682   -0.6851 C   0  0  0  0  0  0  0  0  0  0  0  0
   -0.9053   -3.3334    1.0456 C   0  0  0  0  0  0  0  0  0  0  0  0
   -1.8195   -1.0552    0.4715 C   0  0  0  0  0  0  0  0  0  0  0  0
   -1.5556    0.4125    0.5772 C   0  0  0  0  0  0  0  0  0  0  0  0
   -0.3914    0.9634    1.0853 C   0  0  0  0  0  0  0  0  0  0  0  0
   -0.5593    2.3439    0.9490 C   0  0  0  0  0  0  0  0  0  0  0  0
   -1.7231    2.6578    0.3880 N   0  0  0  0  0  0  0  0  0  0  0  0
   -2.3794    1.4720    0.2110 N   0  0  0  0  0  0  0  0  0  0  0  0
   -3.7231    1.5022   -0.2832 C   0  0  0  0  0  0  0  0  0  0  0  0
   -4.2398    2.7280   -0.7524 C   0  0  0  0  0  0  0  0  0  0  0  0
   -5.5442    2.8166   -1.2444 C   0  0  0  0  0  0  0  0  0  0  0  0
   -6.3435    1.6846   -1.2625 C   0  0  0  0  0  0  0  0  0  0  0  0
   -7.5945    1.7637   -1.7325 F   0  0  0  0  0  0  0  0  0  0  0  0
   -5.8628    0.4694   -0.7934 C   0  0  0  0  0  0  0  0  0  0  0  0
   -4.5555    0.3757   -0.2998 C   0  0  0  0  0  0  0  0  0  0  0  0
    3.7667    0.6555   -1.2513 N   0  0  0  0  0  0  0  0  0  0  0  0
    4.9229    0.6813   -2.0101 O   0  0  0  0  0  0  0  0  0  0  0  0
    7.2287   -0.3275   -2.8553 H   0  0  0  0  0  0  0  0  0  0  0  0
    7.6305    1.2474   -2.1421 H   0  0  0  0  0  0  0  0  0  0  0  0
    8.0333   -0.2470   -1.2805 H   0  0  0  0  0  0  0  0  0  0  0  0
    6.1075   -0.3809    0.8484 H   0  0  0  0  0  0  0  0  0  0  0  0
    1.7069    0.6238   -0.2596 H   0  0  0  0  0  0  0  0  0  0  0  0
    1.0633    0.5829    2.5918 H   0  0  0  0  0  0  0  0  0  0  0  0
   -0.1830   -1.3880    2.7316 H   0  0  0  0  0  0  0  0  0  0  0  0
    1.2769   -1.9188    1.9156 H   0  0  0  0  0  0  0  0  0  0  0  0
   -0.3090   -2.5565   -1.4233 H   0  0  0  0  0  0  0  0  0  0  0  0
    0.4083   -0.9808   -1.1295 H   0  0  0  0  0  0  0  0  0  0  0  0
    1.2272   -2.4452   -0.5577 H   0  0  0  0  0  0  0  0  0  0  0  0
   -1.4456   -3.3487    2.0002 H   0  0  0  0  0  0  0  0  0  0  0  0
   -1.5548   -3.7897    0.2882 H   0  0  0  0  0  0  0  0  0  0  0  0
   -0.0203   -3.9697    1.1574 H   0  0  0  0  0  0  0  0  0  0  0  0
   -2.5324   -1.3286    1.2605 H   0  0  0  0  0  0  0  0  0  0  0  0
   -2.2663   -1.3001   -0.4988 H   0  0  0  0  0  0  0  0  0  0  0  0
    0.1254    3.1375    1.2172 H   0  0  0  0  0  0  0  0  0  0  0  0
   -3.6296    3.6305   -0.7499 H   0  0  0  0  0  0  0  0  0  0  0  0
   -5.9344    3.7608   -1.6112 H   0  0  0  0  0  0  0  0  0  0  0  0
   -6.5120   -0.4008   -0.8065 H   0  0  0  0  0  0  0  0  0  0  0  0
   -4.2510   -0.5876    0.0838 H   0  0  0  0  0  0  0  0  0  0  0  0
  1  2  1  0
  2  3  2  0
  3  4  1  0
  4  5  1  0
  5  6  2  0
  5  7  1  0
  7  8  1  0
  8  9  1  0
  9 10  1  0
 10 11  1  0
 10 12  1  0
 10 13  1  0
 13 14  1  0
 14 15  2  0
 15 16  1  0
 16 17  2  0
 17 18  1  0
 18 19  1  0
 19 20  2  0
 20 21  1  0
 21 22  2  0
 22 23  1  0
 22 24  1  0
 24 25  2  0
  4 26  2  0
 26 27  1  0
 27  2  1  0
 15  8  1  0
 25 19  1  0
 18 14  1  0
  1 28  1  0
  1 29  1  0
  1 30  1  0
  3 31  1  0
  7 32  1  0
  8 33  1  0
  9 34  1  0
  9 35  1  0
 11 36  1  0
 11 37  1  0
 11 38  1  0
 12 39  1  0
 12 40  1  0
 12 41  1  0
 13 42  1  0
 13 43  1  0
 16 44  1  0
 20 45  1  0
 21 46  1  0
 24 47  1  0
 25 48  1  0
M  END
$$$$
