
     RDKit          3D

 44 46  0  0  0  0  0  0  0  0999 V2000
   -0.8566    2.7481   -1.4755 C   0  0  0  0  0  0  0  0  0  0  0  0
   -2.0344    1.9403   -1.0042 C   0  0  0  0  0  0  0  0  0  0  0  0
   -3.3323    2.4322   -1.1939 C   0  0  0  0  0  0  0  0  0  0  0  0
   -4.4399    1.6989   -0.7677 C   0  0  0  0  0  0  0  0  0  0  0  0
   -4.2753    0.4572   -0.1429 C   0  0  0  0  0  0  0  0  0  0  0  0
   -5.4972   -0.3247    0.3092 C   0  0  0  0  0  0  0  0  0  0  0  0
   -5.5027   -0.5368    1.8253 C   0  0  0  0  0  0  0  0  0  0  0  0
   -5.6145   -1.6604   -0.4297 C   0  0  0  0  0  0  0  0  0  0  0  0
   -2.9717   -0.0352    0.0452 C   0  0  0  0  0  0  0  0  0  0  0  0
   -1.8545    0.6943   -0.3799 C   0  0  0  0  0  0  0  0  0  0  0  0
   -0.5532    0.2880   -0.2399 O   0  0  0  0  0  0  0  0  0  0  0  0
   -0.3183   -0.9579    0.4107 C   0  0  0  0  0  0  0  0  0  0  0  0
    1.1818   -1.2599    0.4838 C   0  0  0  0  0  0  0  0  0  0  0  0
    1.5831   -2.2650    1.0633 O   0  0  0  0  0  0  0  0  0  0  0  0
    1.9458   -0.3132   -0.1573 N   0  0  0  0  0  0  0  0  0  0  0  0
    3.3083   -0.2847   -0.2903 C   0  0  0  0  0  0  0  0  0  0  0  0
    3.9299    0.6806   -0.9334 N   0  0  0  0  0  0  0  0  0  0  0  0
    5.3005    0.4994   -0.9457 N   0  0  0  0  0  0  0  0  0  0  0  0
    5.6442   -0.5928   -0.3008 C   0  0  0  0  0  0  0  0  0  0  0  0
    7.1293   -1.0487   -0.1659 C   0  0  0  0  0  0  0  0  0  0  0  0
    8.1979   -0.0141    0.0810 C   0  0  0  0  0  0  0  0  0  0  0  0
    7.8088   -0.9622    1.1773 C   0  0  0  0  0  0  0  0  0  0  0  0
    4.3393   -1.4817    0.3503 S   0  0  0  0  0  0  0  0  0  0  0  0
   -0.1862    2.9662   -0.6375 H   0  0  0  0  0  0  0  0  0  0  0  0
   -1.1704    3.7056   -1.9047 H   0  0  0  0  0  0  0  0  0  0  0  0
   -0.3069    2.1998   -2.2476 H   0  0  0  0  0  0  0  0  0  0  0  0
   -3.4913    3.3939   -1.6770 H   0  0  0  0  0  0  0  0  0  0  0  0
   -5.4348    2.1085   -0.9297 H   0  0  0  0  0  0  0  0  0  0  0  0
   -6.3948    0.2582    0.0633 H   0  0  0  0  0  0  0  0  0  0  0  0
   -5.4298    0.4201    2.3549 H   0  0  0  0  0  0  0  0  0  0  0  0
   -4.6683   -1.1653    2.1553 H   0  0  0  0  0  0  0  0  0  0  0  0
   -6.4308   -1.0253    2.1417 H   0  0  0  0  0  0  0  0  0  0  0  0
   -5.6230   -1.5074   -1.5150 H   0  0  0  0  0  0  0  0  0  0  0  0
   -6.5440   -2.1713   -0.1558 H   0  0  0  0  0  0  0  0  0  0  0  0
   -4.7836   -2.3341   -0.1942 H   0  0  0  0  0  0  0  0  0  0  0  0
   -2.8562   -0.9998    0.5288 H   0  0  0  0  0  0  0  0  0  0  0  0
   -0.7813   -1.7752   -0.1542 H   0  0  0  0  0  0  0  0  0  0  0  0
   -0.6909   -0.9227    1.4410 H   0  0  0  0  0  0  0  0  0  0  0  0
    1.4603    0.4666   -0.5883 H   0  0  0  0  0  0  0  0  0  0  0  0
    7.3933   -1.8812   -0.8095 H   0  0  0  0  0  0  0  0  0  0  0  0
    9.1573   -0.1559   -0.4023 H   0  0  0  0  0  0  0  0  0  0  0  0
    7.9002    1.0248    0.1737 H   0  0  0  0  0  0  0  0  0  0  0  0
    7.2568   -0.5589    2.0189 H   0  0  0  0  0  0  0  0  0  0  0  0
    8.5060   -1.7485    1.4420 H   0  0  0  0  0  0  0  0  0  0  0  0
  1  2  1  0
  2  3  2  0
  3  4  1  0
  4  5  2  0
  5  6  1  0
  6  7  1  0
  6  8  1  0
  5  9  1  0
  9 10  2  0
 10 11  1  0
 11 12  1  0
 12 13  1  0
 13 14  2  0
 13 15  1  0
 15 16  1  0
 16 17  2  0
 17 18  1  0
 18 19  2  0
 19 20  1  0
 20 21  1  0
 21 22  1  0
 19 23  1  0
 10  2  1  0
 23 16  1  0
 22 20  1  0
  1 24  1  0
  1 25  1  0
  1 26  1  0
  3 27  1  0
  4 28  1  0
  6 29  1  0
  7 30  1  0
  7 31  1  0
  7 32  1  0
  8 33  1  0
  8 34  1  0
  8 35  1  0
  9 36  1  0
 12 37  1  0
 12 38  1  0
 15 39  1  0
 20 40  1  0
 21 41  1  0
 21 42  1  0
 22 43  1  0
 22 44  1  0
M  END
$$$$
