
     RDKit          3D

 51 54  0  0  0  0  0  0  0  0999 V2000
    7.1232   -2.9013   -0.6046 N   0  0  0  0  0  0  0  0  0  0  0  0
    6.0225   -3.1968    0.6297 S   0  0  0  0  0  6  0  0  0  0  0  0
    5.2803   -4.3716    0.2343 O   0  0  0  0  0  0  0  0  0  0  0  0
    6.7850   -3.1417    1.8549 O   0  0  0  0  0  0  0  0  0  0  0  0
    4.9673   -1.7825    0.5254 C   0  0  0  0  0  0  0  0  0  0  0  0
    3.9299   -1.7629   -0.4096 C   0  0  0  0  0  0  0  0  0  0  0  0
    3.0880   -0.6493   -0.4789 C   0  0  0  0  0  0  0  0  0  0  0  0
    3.2660    0.4382    0.3898 C   0  0  0  0  0  0  0  0  0  0  0  0
    2.3873    1.5298    0.2321 N   0  0  0  0  0  0  0  0  0  0  0  0
    2.2632    2.6456    1.0409 C   0  0  0  0  0  0  0  0  0  0  0  0
    2.8878    2.8613    2.0785 O   0  0  0  0  0  0  0  0  0  0  0  0
    1.2563    3.6620    0.5184 C   0  0  0  0  0  0  0  0  0  0  0  0
   -0.4440    3.2088    0.9712 S   0  0  0  0  0  0  0  0  0  0  0  0
   -0.8230    2.0228   -0.2379 C   0  0  0  0  0  0  0  0  0  0  0  0
    0.0046    1.6743   -1.1979 N   0  0  0  0  0  0  0  0  0  0  0  0
   -0.6395    0.7899   -2.0086 N   0  0  0  0  0  0  0  0  0  0  0  0
   -1.8657    0.6163   -1.5469 C   0  0  0  0  0  0  0  0  0  0  0  0
   -2.8283   -0.3958   -2.0894 C   0  0  0  0  0  0  0  0  0  0  0  0
   -3.1222   -1.5227   -1.1364 C   0  0  0  0  0  0  0  0  0  0  0  0
   -4.3131   -1.8164   -0.4965 C   0  0  0  0  0  0  0  0  0  0  0  0
   -4.2189   -2.9746    0.3274 C   0  0  0  0  0  0  0  0  0  0  0  0
   -2.9636   -3.5395    0.2823 C   0  0  0  0  0  0  0  0  0  0  0  0
   -1.9066   -2.6706   -0.7446 S   0  0  0  0  0  0  0  0  0  0  0  0
   -2.0557    1.4153   -0.4217 N   0  0  0  0  0  0  0  0  0  0  0  0
   -3.2403    1.5686    0.3416 C   0  0  0  0  0  0  0  0  0  0  0  0
   -4.4656    1.7880   -0.3043 C   0  0  0  0  0  0  0  0  0  0  0  0
   -5.6312    1.9389    0.4494 C   0  0  0  0  0  0  0  0  0  0  0  0
   -5.5823    1.8704    1.8407 C   0  0  0  0  0  0  0  0  0  0  0  0
   -4.3652    1.6536    2.4842 C   0  0  0  0  0  0  0  0  0  0  0  0
   -3.1924    1.5042    1.7397 C   0  0  0  0  0  0  0  0  0  0  0  0
    4.2987    0.3958    1.3321 C   0  0  0  0  0  0  0  0  0  0  0  0
    5.1498   -0.7125    1.4037 C   0  0  0  0  0  0  0  0  0  0  0  0
    8.0559   -2.7781   -0.2099 H   0  0  0  0  0  0  0  0  0  0  0  0
    7.0661   -3.6404   -1.3047 H   0  0  0  0  0  0  0  0  0  0  0  0
    3.7678   -2.6033   -1.0798 H   0  0  0  0  0  0  0  0  0  0  0  0
    2.2832   -0.6443   -1.2138 H   0  0  0  0  0  0  0  0  0  0  0  0
    1.7151    1.4508   -0.5325 H   0  0  0  0  0  0  0  0  0  0  0  0
    1.3702    3.7969   -0.5634 H   0  0  0  0  0  0  0  0  0  0  0  0
    1.4849    4.6286    0.9802 H   0  0  0  0  0  0  0  0  0  0  0  0
   -2.4051   -0.8211   -3.0091 H   0  0  0  0  0  0  0  0  0  0  0  0
   -3.7568    0.0888   -2.4069 H   0  0  0  0  0  0  0  0  0  0  0  0
   -5.2175   -1.2295   -0.6081 H   0  0  0  0  0  0  0  0  0  0  0  0
   -5.0326   -3.3784    0.9198 H   0  0  0  0  0  0  0  0  0  0  0  0
   -2.6167   -4.4241    0.8025 H   0  0  0  0  0  0  0  0  0  0  0  0
   -4.5325    1.8957   -1.3836 H   0  0  0  0  0  0  0  0  0  0  0  0
   -6.5809    2.1224   -0.0464 H   0  0  0  0  0  0  0  0  0  0  0  0
   -6.4913    1.9935    2.4258 H   0  0  0  0  0  0  0  0  0  0  0  0
   -4.3288    1.5974    3.5695 H   0  0  0  0  0  0  0  0  0  0  0  0
   -2.2642    1.3049    2.2719 H   0  0  0  0  0  0  0  0  0  0  0  0
    4.4828    1.2206    2.0120 H   0  0  0  0  0  0  0  0  0  0  0  0
    5.9479   -0.7257    2.1432 H   0  0  0  0  0  0  0  0  0  0  0  0
  1  2  1  0
  2  3  2  0
  2  4  2  0
  2  5  1  0
  5  6  2  0
  6  7  1  0
  7  8  2  0
  8  9  1  0
  9 10  1  0
 10 11  2  0
 10 12  1  0
 12 13  1  0
 13 14  1  0
 14 15  2  0
 15 16  1  0
 16 17  2  0
 17 18  1  0
 18 19  1  0
 19 20  2  0
 20 21  1  0
 21 22  2  0
 22 23  1  0
 17 24  1  0
 24 25  1  0
 25 26  2  0
 26 27  1  0
 27 28  2  0
 28 29  1  0
 29 30  2  0
  8 31  1  0
 31 32  2  0
 32  5  1  0
 24 14  1  0
 30 25  1  0
 23 19  1  0
  1 33  1  0
  1 34  1  0
  6 35  1  0
  7 36  1  0
  9 37  1  0
 12 38  1  0
 12 39  1  0
 18 40  1  0
 18 41  1  0
 20 42  1  0
 21 43  1  0
 22 44  1  0
 26 45  1  0
 27 46  1  0
 28 47  1  0
 29 48  1  0
 30 49  1  0
 31 50  1  0
 32 51  1  0
M  END
$$$$
