
     RDKit          3D

 97 99  0  0  0  0  0  0  0  0999 V2000
   -1.4452    4.6785    1.5421 C   0  0  0  0  0  0  0  0  0  0  0  0
   -1.3300    3.5309    0.5862 C   0  0  0  0  0  0  0  0  0  0  0  0
   -1.0668    3.6531   -0.6014 O   0  0  0  0  0  0  0  0  0  0  0  0
   -1.5323    2.3586    1.2401 O   0  0  0  0  0  0  0  0  0  0  0  0
   -1.3838    1.1363    0.4624 C   0  0  1  0  0  0  0  0  0  0  0  0
   -0.7237    0.0859    1.4098 C   0  0  2  0  0  0  0  0  0  0  0  0
   -1.4292    0.0467    2.6782 O   0  0  0  0  0  0  0  0  0  0  0  0
   -2.3153   -0.9551    2.8898 C   0  0  0  0  0  0  0  0  0  0  0  0
   -2.9548   -0.7979    4.2337 C   0  0  0  0  0  0  0  0  0  0  0  0
   -2.5720   -1.8581    2.1063 O   0  0  0  0  0  0  0  0  0  0  0  0
    0.7482    0.3965    1.7197 C   0  0  0  0  0  0  0  0  0  0  0  0
    1.0273    1.2088    2.9627 C   0  0  0  0  0  0  0  0  0  0  0  0
    1.7889   -0.0277    0.9672 C   0  0  0  0  0  0  0  0  0  0  0  0
    1.7183   -0.7543   -0.3688 C   0  0  1  0  0  0  0  0  0  0  0  0
    2.6713   -0.1676   -1.4412 C   0  0  1  0  0  0  0  0  0  0  0  0
    2.9737    1.2165   -1.2636 O   0  0  0  0  0  0  0  0  0  0  0  0
    2.0590    2.0657   -1.7997 C   0  0  0  0  0  0  0  0  0  0  0  0
    1.0791    1.7281   -2.4422 O   0  0  0  0  0  0  0  0  0  0  0  0
    2.4281    3.4799   -1.5307 C   0  0  0  0  0  0  0  0  0  0  0  0
    3.4501    3.8346   -0.6417 C   0  0  0  0  0  0  0  0  0  0  0  0
    3.7665    5.1813   -0.4412 C   0  0  0  0  0  0  0  0  0  0  0  0
    3.0667    6.1766   -1.1281 C   0  0  0  0  0  0  0  0  0  0  0  0
    2.0418    5.8297   -2.0048 C   0  0  0  0  0  0  0  0  0  0  0  0
    1.7217    4.4848   -2.2039 C   0  0  0  0  0  0  0  0  0  0  0  0
    3.9204   -1.0419   -1.4047 C   0  0  1  0  0  0  0  0  0  0  0  0
    4.9283   -0.7405   -0.2976 C   0  0  0  0  0  0  0  0  0  0  0  0
    3.3071   -2.4352   -1.2825 C   0  0  0  0  0  0  0  0  0  0  0  0
    2.0379   -2.2942   -0.3828 C   0  0  1  0  0  0  0  0  0  0  0  0
    2.3828   -2.6628    0.9953 O   0  0  0  0  0  0  0  0  0  0  0  0
    2.7889   -3.9183    1.3103 C   0  0  0  0  0  0  0  0  0  0  0  0
    2.9891   -4.0375    2.7901 C   0  0  0  0  0  0  0  0  0  0  0  0
    2.9965   -4.8231    0.5162 O   0  0  0  0  0  0  0  0  0  0  0  0
    0.8542   -3.2049   -0.9050 C   0  0  1  0  0  0  0  0  0  0  0  0
   -0.1169   -3.3757    0.1586 O   0  0  0  0  0  0  0  0  0  0  0  0
   -0.5366   -4.6487    0.4078 C   0  0  0  0  0  0  0  0  0  0  0  0
   -1.4801   -4.6786    1.5657 C   0  0  0  0  0  0  0  0  0  0  0  0
   -0.2140   -5.6465   -0.2212 O   0  0  0  0  0  0  0  0  0  0  0  0
    0.1403   -2.7873   -2.2429 C   0  0  1  0  0  0  0  0  0  0  0  0
   -0.6667   -3.9520   -2.8351 C   0  0  0  0  0  0  0  0  0  0  0  0
   -0.7522   -1.5525   -2.2566 C   0  0  0  0  0  0  0  0  0  0  0  0
   -1.8092   -1.3048   -1.4597 C   0  0  0  0  0  0  0  0  0  0  0  0
   -2.7331   -0.0829   -1.4803 C   0  0  0  0  0  0  0  0  0  0  0  0
   -2.4168    0.9152   -2.6185 C   0  0  0  0  0  0  0  0  0  0  0  0
   -4.1544   -0.6307   -1.7726 C   0  0  0  0  0  0  0  0  0  0  0  0
   -2.7711    0.6624   -0.0866 C   0  0  2  0  0  0  0  0  0  0  0  0
   -3.6762    1.7938   -0.2224 O   0  0  0  0  0  0  0  0  0  0  0  0
   -4.5179    2.0333    0.8186 C   0  0  0  0  0  0  0  0  0  0  0  0
   -5.3844    3.2164    0.5158 C   0  0  0  0  0  0  0  0  0  0  0  0
   -4.5566    1.4052    1.8674 O   0  0  0  0  0  0  0  0  0  0  0  0
   -2.3032    4.5291    2.2049 H   0  0  0  0  0  0  0  0  0  0  0  0
   -0.5242    4.7665    2.1231 H   0  0  0  0  0  0  0  0  0  0  0  0
   -1.6157    5.6019    0.9792 H   0  0  0  0  0  0  0  0  0  0  0  0
   -0.7008    1.3205   -0.3720 H   0  0  0  0  0  0  0  0  0  0  0  0
   -0.7520   -0.9067    0.9565 H   0  0  0  0  0  0  0  0  0  0  0  0
   -3.6222   -1.6444    4.4159 H   0  0  0  0  0  0  0  0  0  0  0  0
   -3.5406    0.1243    4.2606 H   0  0  0  0  0  0  0  0  0  0  0  0
   -2.1904   -0.7850    5.0154 H   0  0  0  0  0  0  0  0  0  0  0  0
    0.5219    2.1748    2.9150 H   0  0  0  0  0  0  0  0  0  0  0  0
    2.0959    1.4166    3.0861 H   0  0  0  0  0  0  0  0  0  0  0  0
    0.6978    0.6768    3.8601 H   0  0  0  0  0  0  0  0  0  0  0  0
    2.7932    0.2188    1.3057 H   0  0  0  0  0  0  0  0  0  0  0  0
    0.7218   -0.5627   -0.7413 H   0  0  0  0  0  0  0  0  0  0  0  0
    2.2220   -0.3212   -2.4341 H   0  0  0  0  0  0  0  0  0  0  0  0
    4.0071    3.0725   -0.0981 H   0  0  0  0  0  0  0  0  0  0  0  0
    4.5622    5.4532    0.2459 H   0  0  0  0  0  0  0  0  0  0  0  0
    3.3184    7.2237   -0.9748 H   0  0  0  0  0  0  0  0  0  0  0  0
    1.4910    6.6027   -2.5379 H   0  0  0  0  0  0  0  0  0  0  0  0
    0.9061    4.2248   -2.8793 H   0  0  0  0  0  0  0  0  0  0  0  0
    4.4587   -0.9452   -2.3562 H   0  0  0  0  0  0  0  0  0  0  0  0
    4.5458   -0.9715    0.7000 H   0  0  0  0  0  0  0  0  0  0  0  0
    5.8297   -1.3470   -0.4407 H   0  0  0  0  0  0  0  0  0  0  0  0
    5.2374    0.3102   -0.3176 H   0  0  0  0  0  0  0  0  0  0  0  0
    4.0475   -3.1445   -0.9011 H   0  0  0  0  0  0  0  0  0  0  0  0
    3.0280   -2.7759   -2.2858 H   0  0  0  0  0  0  0  0  0  0  0  0
    2.1907   -3.5091    3.3204 H   0  0  0  0  0  0  0  0  0  0  0  0
    2.9401   -5.0929    3.0767 H   0  0  0  0  0  0  0  0  0  0  0  0
    3.9629   -3.6254    3.0662 H   0  0  0  0  0  0  0  0  0  0  0  0
    1.3176   -4.1773   -1.1119 H   0  0  0  0  0  0  0  0  0  0  0  0
   -1.0741   -4.0898    2.3943 H   0  0  0  0  0  0  0  0  0  0  0  0
   -1.5895   -5.7108    1.9143 H   0  0  0  0  0  0  0  0  0  0  0  0
   -2.4564   -4.3020    1.2529 H   0  0  0  0  0  0  0  0  0  0  0  0
    0.9385   -2.5843   -2.9684 H   0  0  0  0  0  0  0  0  0  0  0  0
   -0.0431   -4.8455   -2.9431 H   0  0  0  0  0  0  0  0  0  0  0  0
   -1.5345   -4.2086   -2.2193 H   0  0  0  0  0  0  0  0  0  0  0  0
   -1.0415   -3.7004   -3.8341 H   0  0  0  0  0  0  0  0  0  0  0  0
   -0.4800   -0.8188   -3.0154 H   0  0  0  0  0  0  0  0  0  0  0  0
   -2.0861   -2.0598   -0.7229 H   0  0  0  0  0  0  0  0  0  0  0  0
   -3.1629    1.7158   -2.6744 H   0  0  0  0  0  0  0  0  0  0  0  0
   -2.4186    0.4206   -3.5972 H   0  0  0  0  0  0  0  0  0  0  0  0
   -1.4419    1.3890   -2.4868 H   0  0  0  0  0  0  0  0  0  0  0  0
   -4.1843   -1.1738   -2.7253 H   0  0  0  0  0  0  0  0  0  0  0  0
   -4.4878   -1.3214   -0.9877 H   0  0  0  0  0  0  0  0  0  0  0  0
   -4.8941    0.1749   -1.8362 H   0  0  0  0  0  0  0  0  0  0  0  0
   -3.2186   -0.0383    0.6206 H   0  0  0  0  0  0  0  0  0  0  0  0
   -4.8262    4.1375    0.6994 H   0  0  0  0  0  0  0  0  0  0  0  0
   -6.2665    3.1879    1.1628 H   0  0  0  0  0  0  0  0  0  0  0  0
   -5.7261    3.1799   -0.5221 H   0  0  0  0  0  0  0  0  0  0  0  0
  1  2  1  0
  2  3  2  0
  2  4  1  0
  4  5  1  0
  5  6  1  0
  6  7  1  0
  7  8  1  0
  8  9  1  0
  8 10  2  0
  6 11  1  0
 11 12  1  0
 11 13  2  0
 13 14  1  0
 14 15  1  0
 15 16  1  0
 16 17  1  0
 17 18  2  0
 17 19  1  0
 19 20  2  0
 20 21  1  0
 21 22  2  0
 22 23  1  0
 23 24  2  0
 15 25  1  0
 25 26  1  0
 25 27  1  0
 27 28  1  0
 28 29  1  1
 29 30  1  0
 30 31  1  0
 30 32  2  0
 28 33  1  0
 33 34  1  0
 34 35  1  0
 35 36  1  0
 35 37  2  0
 33 38  1  0
 38 39  1  0
 38 40  1  0
 40 41  2  0
 41 42  1  0
 42 43  1  0
 42 44  1  0
 42 45  1  0
 45 46  1  0
 46 47  1  0
 47 48  1  0
 47 49  2  0
 45  5  1  0
 28 14  1  0
 24 19  1  0
  1 50  1  0
  1 51  1  0
  1 52  1  0
  5 53  1  6
  6 54  1  6
  9 55  1  0
  9 56  1  0
  9 57  1  0
 12 58  1  0
 12 59  1  0
 12 60  1  0
 13 61  1  0
 14 62  1  6
 15 63  1  6
 20 64  1  0
 21 65  1  0
 22 66  1  0
 23 67  1  0
 24 68  1  0
 25 69  1  6
 26 70  1  0
 26 71  1  0
 26 72  1  0
 27 73  1  0
 27 74  1  0
 31 75  1  0
 31 76  1  0
 31 77  1  0
 33 78  1  6
 36 79  1  0
 36 80  1  0
 36 81  1  0
 38 82  1  6
 39 83  1  0
 39 84  1  0
 39 85  1  0
 40 86  1  0
 41 87  1  0
 43 88  1  0
 43 89  1  0
 43 90  1  0
 44 91  1  0
 44 92  1  0
 44 93  1  0
 45 94  1  1
 48 95  1  0
 48 96  1  0
 48 97  1  0
M  END
$$$$
