
     RDKit          3D

 48 52  0  0  0  0  0  0  0  0999 V2000
   -4.6467   -2.4405    0.2420 C   0  0  0  0  0  0  0  0  0  0  0  0
   -3.4632   -1.6105    0.2425 N   0  0  0  0  0  0  0  0  0  0  0  0
   -2.2864   -1.9378   -0.3651 C   0  0  0  0  0  0  0  0  0  0  0  0
   -1.3764   -0.9050   -0.1828 C   0  0  0  0  0  0  0  0  0  0  0  0
    0.0282   -0.9226   -0.7537 C   0  0  0  0  0  0  0  0  0  0  0  0
    0.0034   -0.0087   -1.9758 C   0  0  0  0  0  0  0  0  0  0  0  0
    0.1627    1.3781   -1.9021 C   0  0  0  0  0  0  0  0  0  0  0  0
    0.1194    2.1407   -3.0677 C   0  0  0  0  0  0  0  0  0  0  0  0
   -0.0825    1.5117   -4.2872 C   0  0  0  0  0  0  0  0  0  0  0  0
   -0.2267    0.1374   -4.2918 C   0  0  0  0  0  0  0  0  0  0  0  0
   -0.1828   -0.6282   -3.1798 N   0  0  0  0  0  0  0  0  0  0  0  0
    1.1787   -0.5663    0.1622 C   0  0  0  0  0  0  0  0  0  0  0  0
    1.1519   -0.4402    1.5430 C   0  0  0  0  0  0  0  0  0  0  0  0
    2.4073   -0.1380    1.9905 N   0  0  0  0  0  0  0  0  0  0  0  0
    2.7524    0.0911    3.3756 C   0  0  0  0  0  0  0  0  0  0  0  0
    3.2966   -0.1198    0.9411 C   0  0  0  0  0  0  0  0  0  0  0  0
    4.6819    0.1112    0.9144 C   0  0  0  0  0  0  0  0  0  0  0  0
    5.3395    0.0354   -0.3157 C   0  0  0  0  0  0  0  0  0  0  0  0
    4.6412   -0.2657   -1.4792 C   0  0  0  0  0  0  0  0  0  0  0  0
    3.2612   -0.4921   -1.4413 C   0  0  0  0  0  0  0  0  0  0  0  0
    2.5642   -0.4092   -0.2145 C   0  0  0  0  0  0  0  0  0  0  0  0
   -2.0645    0.0912    0.6040 C   0  0  0  0  0  0  0  0  0  0  0  0
   -1.7148    1.3513    1.1421 C   0  0  0  0  0  0  0  0  0  0  0  0
   -2.6456    2.0914    1.8800 C   0  0  0  0  0  0  0  0  0  0  0  0
   -3.9253    1.5981    2.0963 C   0  0  0  0  0  0  0  0  0  0  0  0
   -4.3049    0.3555    1.5866 C   0  0  0  0  0  0  0  0  0  0  0  0
   -3.3613   -0.3793    0.8480 C   0  0  0  0  0  0  0  0  0  0  0  0
   -5.4582   -1.8861   -0.2364 H   0  0  0  0  0  0  0  0  0  0  0  0
   -4.4503   -3.3605   -0.3146 H   0  0  0  0  0  0  0  0  0  0  0  0
   -4.8999   -2.6827    1.2773 H   0  0  0  0  0  0  0  0  0  0  0  0
   -2.1750   -2.8702   -0.9044 H   0  0  0  0  0  0  0  0  0  0  0  0
    0.2355   -1.9442   -1.1072 H   0  0  0  0  0  0  0  0  0  0  0  0
    0.3406    1.8704   -0.9537 H   0  0  0  0  0  0  0  0  0  0  0  0
    0.2451    3.2182   -3.0183 H   0  0  0  0  0  0  0  0  0  0  0  0
   -0.1243    2.0775   -5.2103 H   0  0  0  0  0  0  0  0  0  0  0  0
   -0.3862   -0.4050   -5.2189 H   0  0  0  0  0  0  0  0  0  0  0  0
    0.3287   -0.5450    2.2391 H   0  0  0  0  0  0  0  0  0  0  0  0
    1.8530    0.0285    3.9936 H   0  0  0  0  0  0  0  0  0  0  0  0
    3.1899    1.0889    3.4625 H   0  0  0  0  0  0  0  0  0  0  0  0
    3.4682   -0.6747    3.6851 H   0  0  0  0  0  0  0  0  0  0  0  0
    5.2363    0.3353    1.8199 H   0  0  0  0  0  0  0  0  0  0  0  0
    6.4121    0.2076   -0.3614 H   0  0  0  0  0  0  0  0  0  0  0  0
    5.1676   -0.3279   -2.4282 H   0  0  0  0  0  0  0  0  0  0  0  0
    2.7340   -0.7300   -2.3617 H   0  0  0  0  0  0  0  0  0  0  0  0
   -0.7176    1.7542    1.0038 H   0  0  0  0  0  0  0  0  0  0  0  0
   -2.3609    3.0582    2.2869 H   0  0  0  0  0  0  0  0  0  0  0  0
   -4.6396    2.1834    2.6700 H   0  0  0  0  0  0  0  0  0  0  0  0
   -5.3061   -0.0252    1.7608 H   0  0  0  0  0  0  0  0  0  0  0  0
  1  2  1  0
  2  3  1  0
  3  4  2  0
  4  5  1  0
  5  6  1  0
  6  7  2  0
  7  8  1  0
  8  9  2  0
  9 10  1  0
 10 11  2  0
  5 12  1  0
 12 13  2  0
 13 14  1  0
 14 15  1  0
 14 16  1  0
 16 17  2  0
 17 18  1  0
 18 19  2  0
 19 20  1  0
 20 21  2  0
  4 22  1  0
 22 23  2  0
 23 24  1  0
 24 25  2  0
 25 26  1  0
 26 27  2  0
 27  2  1  0
 11  6  1  0
 21 12  1  0
 27 22  1  0
 21 16  1  0
  1 28  1  0
  1 29  1  0
  1 30  1  0
  3 31  1  0
  5 32  1  0
  7 33  1  0
  8 34  1  0
  9 35  1  0
 10 36  1  0
 13 37  1  0
 15 38  1  0
 15 39  1  0
 15 40  1  0
 17 41  1  0
 18 42  1  0
 19 43  1  0
 20 44  1  0
 23 45  1  0
 24 46  1  0
 25 47  1  0
 26 48  1  0
M  END
$$$$
