
     RDKit          3D

 51 55  0  0  0  0  0  0  0  0999 V2000
   -3.6269   -2.4868   -1.3203 C   0  0  0  0  0  0  0  0  0  0  0  0
   -2.9608   -1.1401   -1.1746 C   0  0  0  0  0  0  0  0  0  0  0  0
   -1.5858   -1.1970   -0.9892 N   0  0  0  0  0  0  0  0  0  0  0  0
   -0.8281   -0.0894   -0.8446 C   0  0  0  0  0  0  0  0  0  0  0  0
    0.5173    0.1284   -0.6412 C   0  0  0  0  0  0  0  0  0  0  0  0
    1.5296   -0.9033   -0.5179 C   0  0  0  0  0  0  0  0  0  0  0  0
    1.2655   -2.0952   -0.6546 O   0  0  0  0  0  0  0  0  0  0  0  0
    2.7977   -0.4570   -0.2266 N   0  0  0  0  0  0  0  0  0  0  0  0
    3.8664   -1.3966    0.0127 C   0  0  0  0  0  0  0  0  0  0  0  0
    5.1850   -0.6803    0.1307 C   0  0  0  0  0  0  0  0  0  0  0  0
    5.8984   -0.3129   -1.0344 C   0  0  0  0  0  0  0  0  0  0  0  0
    7.1103    0.3799   -0.9485 C   0  0  0  0  0  0  0  0  0  0  0  0
    7.5790    0.6970    0.3072 C   0  0  0  0  0  0  0  0  0  0  0  0
    6.8889    0.3527    1.4449 C   0  0  0  0  0  0  0  0  0  0  0  0
    5.6918   -0.3302    1.3928 C   0  0  0  0  0  0  0  0  0  0  0  0
    7.5182    0.7636    2.5781 O   0  0  0  0  0  0  0  0  0  0  0  0
    8.6891    1.3987    2.0229 C   0  0  0  0  0  0  0  0  0  0  0  0
    8.7302    1.3662    0.5811 O   0  0  0  0  0  0  0  0  0  0  0  0
    0.6099    1.5409   -0.6067 C   0  0  0  0  0  0  0  0  0  0  0  0
   -0.5648    2.1598   -0.7605 N   0  0  0  0  0  0  0  0  0  0  0  0
   -1.4499    1.1353   -0.9042 N   0  0  0  0  0  0  0  0  0  0  0  0
   -2.8275    1.3217   -1.1012 C   0  0  0  0  0  0  0  0  0  0  0  0
   -3.3080    2.4461   -1.1836 O   0  0  0  0  0  0  0  0  0  0  0  0
   -3.6249    0.0437   -1.2134 C   0  0  0  0  0  0  0  0  0  0  0  0
   -5.1092    0.2473   -1.3970 C   0  0  0  0  0  0  0  0  0  0  0  0
   -5.8589    0.3947   -0.0934 C   0  0  0  0  0  0  0  0  0  0  0  0
   -5.9794    1.6450    0.5317 C   0  0  0  0  0  0  0  0  0  0  0  0
   -6.6592    1.7711    1.7465 C   0  0  0  0  0  0  0  0  0  0  0  0
   -7.2278    0.6516    2.3523 C   0  0  0  0  0  0  0  0  0  0  0  0
   -7.1164   -0.5955    1.7421 C   0  0  0  0  0  0  0  0  0  0  0  0
   -6.4367   -0.7141    0.5323 C   0  0  0  0  0  0  0  0  0  0  0  0
   -6.3508   -1.9253   -0.0354 F   0  0  0  0  0  0  0  0  0  0  0  0
   -3.0553   -3.1177   -2.0108 H   0  0  0  0  0  0  0  0  0  0  0  0
   -3.6653   -2.9919   -0.3496 H   0  0  0  0  0  0  0  0  0  0  0  0
   -4.6404   -2.4351   -1.7204 H   0  0  0  0  0  0  0  0  0  0  0  0
   -1.1520   -2.1245   -0.9558 H   0  0  0  0  0  0  0  0  0  0  0  0
    2.9518    0.5051    0.0365 H   0  0  0  0  0  0  0  0  0  0  0  0
    3.8967   -2.1294   -0.8025 H   0  0  0  0  0  0  0  0  0  0  0  0
    3.6381   -1.9503    0.9313 H   0  0  0  0  0  0  0  0  0  0  0  0
    5.5037   -0.5696   -2.0165 H   0  0  0  0  0  0  0  0  0  0  0  0
    7.6627    0.6605   -1.8383 H   0  0  0  0  0  0  0  0  0  0  0  0
    5.1678   -0.5843    2.3086 H   0  0  0  0  0  0  0  0  0  0  0  0
    8.7088    2.4445    2.3505 H   0  0  0  0  0  0  0  0  0  0  0  0
    9.5801    0.8917    2.4110 H   0  0  0  0  0  0  0  0  0  0  0  0
    1.4901    2.1581   -0.4795 H   0  0  0  0  0  0  0  0  0  0  0  0
   -5.2970    1.1321   -2.0202 H   0  0  0  0  0  0  0  0  0  0  0  0
   -5.5543   -0.5656   -1.9813 H   0  0  0  0  0  0  0  0  0  0  0  0
   -5.5436    2.5337    0.0769 H   0  0  0  0  0  0  0  0  0  0  0  0
   -6.7426    2.7474    2.2186 H   0  0  0  0  0  0  0  0  0  0  0  0
   -7.7565    0.7522    3.2966 H   0  0  0  0  0  0  0  0  0  0  0  0
   -7.5549   -1.4768    2.1992 H   0  0  0  0  0  0  0  0  0  0  0  0
  1  2  1  0
  2  3  1  0
  3  4  1  0
  4  5  2  0
  5  6  1  0
  6  7  2  0
  6  8  1  0
  8  9  1  0
  9 10  1  0
 10 11  2  0
 11 12  1  0
 12 13  2  0
 13 14  1  0
 14 15  2  0
 14 16  1  0
 16 17  1  0
 17 18  1  0
  5 19  1  0
 19 20  2  0
 20 21  1  0
 21 22  1  0
 22 23  2  0
 22 24  1  0
 24 25  1  0
 25 26  1  0
 26 27  2  0
 27 28  1  0
 28 29  2  0
 29 30  1  0
 30 31  2  0
 31 32  1  0
 24  2  2  0
 31 26  1  0
 21  4  1  0
 15 10  1  0
 18 13  1  0
  1 33  1  0
  1 34  1  0
  1 35  1  0
  3 36  1  0
  8 37  1  0
  9 38  1  0
  9 39  1  0
 11 40  1  0
 12 41  1  0
 15 42  1  0
 17 43  1  0
 17 44  1  0
 19 45  1  0
 25 46  1  0
 25 47  1  0
 27 48  1  0
 28 49  1  0
 29 50  1  0
 30 51  1  0
M  END
$$$$
