
     RDKit          3D

 55 58  0  0  0  0  0  0  0  0999 V2000
    6.7721    1.5059    1.1160 C   0  0  0  0  0  0  0  0  0  0  0  0
    6.8337    0.8366   -0.2506 C   0  0  0  0  0  0  0  0  0  0  0  0
    5.9882   -0.3644   -0.3090 N   0  0  0  0  0  0  0  0  0  0  0  0
    6.6866   -1.6559   -0.3514 C   0  0  0  0  0  0  0  0  0  0  0  0
    7.0061   -2.1618    1.0471 C   0  0  0  0  0  0  0  0  0  0  0  0
    4.5991   -0.2877   -0.3460 C   0  0  0  0  0  0  0  0  0  0  0  0
    3.7783   -1.4041   -0.1139 C   0  0  0  0  0  0  0  0  0  0  0  0
    2.3759   -1.3323   -0.1495 C   0  0  0  0  0  0  0  0  0  0  0  0
    1.7301   -0.1255   -0.4104 C   0  0  0  0  0  0  0  0  0  0  0  0
    0.2623   -0.0939   -0.4700 C   0  0  0  0  0  0  0  0  0  0  0  0
   -0.4789    0.9394   -0.0363 C   0  0  0  0  0  0  0  0  0  0  0  0
   -1.9438    1.0238   -0.0823 C   0  0  0  0  0  0  0  0  0  0  0  0
   -2.7735   -0.0851   -0.0660 C   0  0  0  0  0  0  0  0  0  0  0  0
   -4.1625    0.0956   -0.0869 C   0  0  0  0  0  0  0  0  0  0  0  0
   -5.0237   -1.0957   -0.0754 C   0  0  0  0  0  0  0  0  0  0  0  0
   -5.4498   -1.6594    1.1369 C   0  0  0  0  0  0  0  0  0  0  0  0
   -6.2650   -2.7932    1.1475 C   0  0  0  0  0  0  0  0  0  0  0  0
   -6.6621   -3.3777   -0.0536 C   0  0  0  0  0  0  0  0  0  0  0  0
   -6.2450   -2.8307   -1.2655 C   0  0  0  0  0  0  0  0  0  0  0  0
   -5.4296   -1.6970   -1.2766 C   0  0  0  0  0  0  0  0  0  0  0  0
   -4.6820    1.4140   -0.1138 C   0  0  0  0  0  0  0  0  0  0  0  0
   -6.0656    1.7194   -0.1380 C   0  0  0  0  0  0  0  0  0  0  0  0
   -6.5148    3.0387   -0.1602 C   0  0  0  0  0  0  0  0  0  0  0  0
   -5.5915    4.0736   -0.1579 C   0  0  0  0  0  0  0  0  0  0  0  0
   -4.2262    3.7811   -0.1339 C   0  0  0  0  0  0  0  0  0  0  0  0
   -3.7526    2.4758   -0.1124 C   0  0  0  0  0  0  0  0  0  0  0  0
   -2.4239    2.2855   -0.0904 N   0  0  0  0  0  0  0  0  0  0  0  0
    2.5184    0.9960   -0.6603 C   0  0  0  0  0  0  0  0  0  0  0  0
    3.9202    0.9111   -0.6218 C   0  0  0  0  0  0  0  0  0  0  0  0
    7.4478    2.3667    1.1429 H   0  0  0  0  0  0  0  0  0  0  0  0
    5.7660    1.8639    1.3530 H   0  0  0  0  0  0  0  0  0  0  0  0
    7.0734    0.8152    1.9096 H   0  0  0  0  0  0  0  0  0  0  0  0
    7.8805    0.5695   -0.4428 H   0  0  0  0  0  0  0  0  0  0  0  0
    6.5736    1.5443   -1.0455 H   0  0  0  0  0  0  0  0  0  0  0  0
    7.6254   -1.5513   -0.9100 H   0  0  0  0  0  0  0  0  0  0  0  0
    6.1178   -2.4071   -0.9114 H   0  0  0  0  0  0  0  0  0  0  0  0
    7.4836   -3.1452    0.9921 H   0  0  0  0  0  0  0  0  0  0  0  0
    7.6946   -1.4851    1.5626 H   0  0  0  0  0  0  0  0  0  0  0  0
    6.1056   -2.2538    1.6617 H   0  0  0  0  0  0  0  0  0  0  0  0
    4.2081   -2.3722    0.1236 H   0  0  0  0  0  0  0  0  0  0  0  0
    1.8024   -2.2356    0.0444 H   0  0  0  0  0  0  0  0  0  0  0  0
   -0.2006   -0.9807   -0.8939 H   0  0  0  0  0  0  0  0  0  0  0  0
   -0.0065    1.8260    0.3797 H   0  0  0  0  0  0  0  0  0  0  0  0
   -2.3622   -1.0886   -0.0263 H   0  0  0  0  0  0  0  0  0  0  0  0
   -5.1477   -1.2124    2.0822 H   0  0  0  0  0  0  0  0  0  0  0  0
   -6.5891   -3.2194    2.0934 H   0  0  0  0  0  0  0  0  0  0  0  0
   -7.2964   -4.2604   -0.0452 H   0  0  0  0  0  0  0  0  0  0  0  0
   -6.5536   -3.2860   -2.2030 H   0  0  0  0  0  0  0  0  0  0  0  0
   -5.1119   -1.2794   -2.2300 H   0  0  0  0  0  0  0  0  0  0  0  0
   -6.8071    0.9227   -0.1391 H   0  0  0  0  0  0  0  0  0  0  0  0
   -7.5801    3.2529   -0.1785 H   0  0  0  0  0  0  0  0  0  0  0  0
   -5.9249    5.1078   -0.1747 H   0  0  0  0  0  0  0  0  0  0  0  0
   -3.5074    4.5977   -0.1325 H   0  0  0  0  0  0  0  0  0  0  0  0
    2.0629    1.9531   -0.9025 H   0  0  0  0  0  0  0  0  0  0  0  0
    4.4656    1.8250   -0.8345 H   0  0  0  0  0  0  0  0  0  0  0  0
  1  2  1  0
  2  3  1  0
  3  4  1  0
  4  5  1  0
  3  6  1  0
  6  7  2  0
  7  8  1  0
  8  9  2  0
  9 10  1  0
 10 11  2  3
 11 12  1  0
 12 13  2  0
 13 14  1  0
 14 15  1  0
 15 16  2  0
 16 17  1  0
 17 18  2  0
 18 19  1  0
 19 20  2  0
 14 21  2  0
 21 22  1  0
 22 23  2  0
 23 24  1  0
 24 25  2  0
 25 26  1  0
 26 27  2  0
  9 28  1  0
 28 29  2  0
 29  6  1  0
 27 12  1  0
 20 15  1  0
 26 21  1  0
  1 30  1  0
  1 31  1  0
  1 32  1  0
  2 33  1  0
  2 34  1  0
  4 35  1  0
  4 36  1  0
  5 37  1  0
  5 38  1  0
  5 39  1  0
  7 40  1  0
  8 41  1  0
 10 42  1  0
 11 43  1  0
 13 44  1  0
 16 45  1  0
 17 46  1  0
 18 47  1  0
 19 48  1  0
 20 49  1  0
 22 50  1  0
 23 51  1  0
 24 52  1  0
 25 53  1  0
 28 54  1  0
 29 55  1  0
M  END
$$$$
