
     RDKit          3D

 63 67  0  0  0  0  0  0  0  0999 V2000
    7.7510   -0.8438   -4.0247 C   0  0  0  0  0  0  0  0  0  0  0  0
    6.8518    0.3757   -3.9409 C   0  0  0  0  0  0  0  0  0  0  0  0
    5.7937    0.1442   -3.0013 O   0  0  0  0  0  0  0  0  0  0  0  0
    6.0760    0.4507   -1.7019 C   0  0  0  0  0  0  0  0  0  0  0  0
    7.1427    0.9051   -1.3096 O   0  0  0  0  0  0  0  0  0  0  0  0
    4.9515    0.1761   -0.8163 C   0  0  0  0  0  0  0  0  0  0  0  0
    3.6640   -0.3434   -1.1362 C   0  0  0  0  0  0  0  0  0  0  0  0
    2.9241   -0.4166    0.0303 C   0  0  0  0  0  0  0  0  0  0  0  0
    1.5650   -0.8661    0.2853 C   0  0  0  0  0  0  0  0  0  0  0  0
    0.7020   -1.2391   -0.7436 N   0  0  0  0  0  0  0  0  0  0  0  0
    0.3240   -0.2232   -1.7457 C   0  0  0  0  0  0  0  0  0  0  0  0
   -0.8779    0.6121   -1.2491 C   0  0  0  0  0  0  0  0  0  0  0  0
   -2.0641   -0.2192   -0.9281 N   0  0  0  0  0  0  0  0  0  0  0  0
   -3.1510    0.6404   -0.4164 C   0  0  0  0  0  0  0  0  0  0  0  0
   -4.4895   -0.1026   -0.2253 C   0  0  0  0  0  0  0  0  0  0  0  0
   -5.7112    0.7389    0.1213 C   0  0  0  0  0  0  0  0  0  0  0  0
   -5.5980    2.0935    0.4843 C   0  0  0  0  0  0  0  0  0  0  0  0
   -6.7236    2.8521    0.8122 C   0  0  0  0  0  0  0  0  0  0  0  0
   -7.9858    2.2738    0.7910 C   0  0  0  0  0  0  0  0  0  0  0  0
   -8.1246    0.9319    0.4454 C   0  0  0  0  0  0  0  0  0  0  0  0
   -7.0016    0.1465    0.1154 C   0  0  0  0  0  0  0  0  0  0  0  0
   -7.2157   -1.3109   -0.2485 C   0  0  0  0  0  0  0  0  0  0  0  0
   -6.9402   -1.5717   -1.5569 F   0  0  0  0  0  0  0  0  0  0  0  0
   -6.4387   -2.1626    0.4789 F   0  0  0  0  0  0  0  0  0  0  0  0
   -8.4970   -1.7373   -0.0536 F   0  0  0  0  0  0  0  0  0  0  0  0
   -1.6711   -1.2646    0.0512 C   0  0  0  0  0  0  0  0  0  0  0  0
   -0.4557   -2.0980   -0.4183 C   0  0  0  0  0  0  0  0  0  0  0  0
    1.1531   -0.9299    1.5258 N   0  0  0  0  0  0  0  0  0  0  0  0
    1.9917   -0.5294    2.5840 C   0  0  0  0  0  0  0  0  0  0  0  0
    1.4962   -0.6020    3.8870 C   0  0  0  0  0  0  0  0  0  0  0  0
    2.2836   -0.2083    4.9727 C   0  0  0  0  0  0  0  0  0  0  0  0
    3.5793    0.2646    4.7633 C   0  0  0  0  0  0  0  0  0  0  0  0
    4.0952    0.3461    3.4695 C   0  0  0  0  0  0  0  0  0  0  0  0
    3.2956   -0.0507    2.3938 C   0  0  0  0  0  0  0  0  0  0  0  0
    3.7385   -0.0130    1.0622 N   0  0  0  0  0  0  0  0  0  0  0  0
    4.9528    0.3775    0.5557 C   0  0  0  0  0  0  0  0  0  0  0  0
    7.1691   -1.7304   -4.2998 H   0  0  0  0  0  0  0  0  0  0  0  0
    8.5388   -0.6938   -4.7669 H   0  0  0  0  0  0  0  0  0  0  0  0
    8.2167   -1.0581   -3.0572 H   0  0  0  0  0  0  0  0  0  0  0  0
    6.3820    0.5528   -4.9146 H   0  0  0  0  0  0  0  0  0  0  0  0
    7.4200    1.2788   -3.6895 H   0  0  0  0  0  0  0  0  0  0  0  0
    3.3165   -0.6352   -2.1198 H   0  0  0  0  0  0  0  0  0  0  0  0
    1.1548    0.4521   -1.9732 H   0  0  0  0  0  0  0  0  0  0  0  0
    0.0639   -0.7282   -2.6851 H   0  0  0  0  0  0  0  0  0  0  0  0
   -0.5714    1.1924   -0.3683 H   0  0  0  0  0  0  0  0  0  0  0  0
   -1.1407    1.3266   -2.0386 H   0  0  0  0  0  0  0  0  0  0  0  0
   -3.3184    1.4461   -1.1433 H   0  0  0  0  0  0  0  0  0  0  0  0
   -2.8475    1.1137    0.5269 H   0  0  0  0  0  0  0  0  0  0  0  0
   -4.3753   -0.8388    0.5782 H   0  0  0  0  0  0  0  0  0  0  0  0
   -4.7026   -0.6430   -1.1554 H   0  0  0  0  0  0  0  0  0  0  0  0
   -4.6325    2.5921    0.5230 H   0  0  0  0  0  0  0  0  0  0  0  0
   -6.6099    3.8981    1.0874 H   0  0  0  0  0  0  0  0  0  0  0  0
   -8.8613    2.8654    1.0464 H   0  0  0  0  0  0  0  0  0  0  0  0
   -9.1223    0.4935    0.4374 H   0  0  0  0  0  0  0  0  0  0  0  0
   -1.4535   -0.8062    1.0235 H   0  0  0  0  0  0  0  0  0  0  0  0
   -2.5013   -1.9638    0.1981 H   0  0  0  0  0  0  0  0  0  0  0  0
   -0.7305   -2.6650   -1.3172 H   0  0  0  0  0  0  0  0  0  0  0  0
   -0.1885   -2.8421    0.3412 H   0  0  0  0  0  0  0  0  0  0  0  0
    0.4867   -0.9682    4.0539 H   0  0  0  0  0  0  0  0  0  0  0  0
    1.8834   -0.2714    5.9812 H   0  0  0  0  0  0  0  0  0  0  0  0
    4.1875    0.5697    5.6112 H   0  0  0  0  0  0  0  0  0  0  0  0
    5.1061    0.7143    3.3324 H   0  0  0  0  0  0  0  0  0  0  0  0
    5.7441    0.7519    1.1913 H   0  0  0  0  0  0  0  0  0  0  0  0
  1  2  1  0
  2  3  1  0
  3  4  1  0
  4  5  2  0
  4  6  1  0
  6  7  1  0
  7  8  2  0
  8  9  1  0
  9 10  1  0
 10 11  1  0
 11 12  1  0
 12 13  1  0
 13 14  1  0
 14 15  1  0
 15 16  1  0
 16 17  2  0
 17 18  1  0
 18 19  2  0
 19 20  1  0
 20 21  2  0
 21 22  1  0
 22 23  1  0
 22 24  1  0
 22 25  1  0
 13 26  1  0
 26 27  1  0
  9 28  2  0
 28 29  1  0
 29 30  2  0
 30 31  1  0
 31 32  2  0
 32 33  1  0
 33 34  2  0
 34 35  1  0
 35 36  1  0
 36  6  2  0
 35  8  1  0
 27 10  1  0
 34 29  1  0
 21 16  1  0
  1 37  1  0
  1 38  1  0
  1 39  1  0
  2 40  1  0
  2 41  1  0
  7 42  1  0
 11 43  1  0
 11 44  1  0
 12 45  1  0
 12 46  1  0
 14 47  1  0
 14 48  1  0
 15 49  1  0
 15 50  1  0
 17 51  1  0
 18 52  1  0
 19 53  1  0
 20 54  1  0
 26 55  1  0
 26 56  1  0
 27 57  1  0
 27 58  1  0
 30 59  1  0
 31 60  1  0
 32 61  1  0
 33 62  1  0
 36 63  1  0
M  END
$$$$
