
     RDKit          3D

 28 28  0  0  0  0  0  0  0  0999 V2000
   -1.8687   -1.4189   -1.3614 C   0  0  0  0  0  0  0  0  0  0  0  0
   -1.9283   -0.5948   -0.0615 C   0  0  0  0  0  0  0  0  0  0  0  0
   -1.9258   -1.5698    1.1219 C   0  0  0  0  0  0  0  0  0  0  0  0
   -3.2211    0.2325   -0.0610 C   0  0  0  0  0  0  0  0  0  0  0  0
   -0.7242    0.3734   -0.0166 C   0  0  0  0  0  0  0  0  0  0  0  0
   -0.0512    0.5957   -1.0291 O   0  0  0  0  0  0  0  0  0  0  0  0
   -0.4146    1.1057    1.2797 C   0  0  0  0  0  0  0  0  0  0  0  0
    0.8684    0.2550    2.2337 S   0  0  0  0  0  0  0  0  0  0  0  0
    2.2292    0.5039    1.1277 C   0  0  0  0  0  0  0  0  0  0  0  0
    2.8613   -0.5956    0.6852 N   0  0  0  0  0  0  0  0  0  0  0  0
    3.8793   -0.3866   -0.1685 C   0  0  0  0  0  0  0  0  0  0  0  0
    4.2877    0.8620   -0.5729 C   0  0  0  0  0  0  0  0  0  0  0  0
    3.5840    1.9164   -0.0413 C   0  0  0  0  0  0  0  0  0  0  0  0
    2.5582    1.7694    0.8167 N   0  0  0  0  0  0  0  0  0  0  0  0
   -1.9113   -0.7744   -2.2471 H   0  0  0  0  0  0  0  0  0  0  0  0
   -2.7057   -2.1235   -1.4258 H   0  0  0  0  0  0  0  0  0  0  0  0
   -0.9385   -1.9959   -1.4201 H   0  0  0  0  0  0  0  0  0  0  0  0
   -2.7432   -2.2953    1.0373 H   0  0  0  0  0  0  0  0  0  0  0  0
   -2.0540   -1.0535    2.0788 H   0  0  0  0  0  0  0  0  0  0  0  0
   -0.9865   -2.1319    1.1689 H   0  0  0  0  0  0  0  0  0  0  0  0
   -4.1022   -0.4082   -0.1785 H   0  0  0  0  0  0  0  0  0  0  0  0
   -3.3435    0.7931    0.8717 H   0  0  0  0  0  0  0  0  0  0  0  0
   -3.2230    0.9616   -0.8795 H   0  0  0  0  0  0  0  0  0  0  0  0
   -1.3173    1.1838    1.8905 H   0  0  0  0  0  0  0  0  0  0  0  0
   -0.1170    2.1328    1.0434 H   0  0  0  0  0  0  0  0  0  0  0  0
    4.3716   -1.2840   -0.5312 H   0  0  0  0  0  0  0  0  0  0  0  0
    5.1062    1.0050   -1.2638 H   0  0  0  0  0  0  0  0  0  0  0  0
    3.8300    2.9424   -0.2987 H   0  0  0  0  0  0  0  0  0  0  0  0
  1  2  1  0
  2  3  1  0
  2  4  1  0
  2  5  1  0
  5  6  2  0
  5  7  1  0
  7  8  1  0
  8  9  1  0
  9 10  2  0
 10 11  1  0
 11 12  2  0
 12 13  1  0
 13 14  2  0
 14  9  1  0
  1 15  1  0
  1 16  1  0
  1 17  1  0
  3 18  1  0
  3 19  1  0
  3 20  1  0
  4 21  1  0
  4 22  1  0
  4 23  1  0
  7 24  1  0
  7 25  1  0
 11 26  1  0
 12 27  1  0
 13 28  1  0
M  END
$$$$
