
     RDKit          3D

 42 44  0  0  0  0  0  0  0  0999 V2000
    5.1132   -0.6089   -2.6424 C   0  0  0  0  0  0  0  0  0  0  0  0
    4.2466   -1.0289   -1.5868 O   0  0  0  0  0  0  0  0  0  0  0  0
    4.8164   -0.9792   -0.3494 C   0  0  0  0  0  0  0  0  0  0  0  0
    5.9765   -0.6565   -0.1240 O   0  0  0  0  0  0  0  0  0  0  0  0
    3.8486   -1.4200    0.7141 C   0  0  0  0  0  0  0  0  0  0  0  0
    2.6798   -0.5590    0.7954 N   0  0  0  0  0  0  0  0  0  0  0  0
    1.4138   -0.9269    0.4104 C   0  0  0  0  0  0  0  0  0  0  0  0
    0.5671    0.1325    0.6563 C   0  0  0  0  0  0  0  0  0  0  0  0
   -0.8384    0.1742    0.3897 C   0  0  0  0  0  0  0  0  0  0  0  0
   -1.5874   -0.8425   -0.0712 C   0  0  0  0  0  0  0  0  0  0  0  0
   -3.0289   -0.7385   -0.3219 C   0  0  0  0  0  0  0  0  0  0  0  0
   -3.8644   -1.7860    0.0605 C   0  0  0  0  0  0  0  0  0  0  0  0
   -5.2294   -1.7068   -0.1921 C   0  0  0  0  0  0  0  0  0  0  0  0
   -5.7534   -0.6260   -0.8122 N   0  0  0  0  0  4  0  0  0  0  0  0
   -7.2012   -0.5710   -1.0769 C   0  0  0  0  0  0  0  0  0  0  0  0
   -4.9593    0.3907   -1.2152 C   0  0  0  0  0  0  0  0  0  0  0  0
   -3.5893    0.3548   -0.9810 C   0  0  0  0  0  0  0  0  0  0  0  0
    1.3532    1.1863    1.2221 C   0  0  0  0  0  0  0  0  0  0  0  0
    1.0709    2.4934    1.6791 C   0  0  0  0  0  0  0  0  0  0  0  0
    2.1000    3.2900    2.1923 C   0  0  0  0  0  0  0  0  0  0  0  0
    3.4016    2.8063    2.2573 C   0  0  0  0  0  0  0  0  0  0  0  0
    3.7117    1.5181    1.8145 C   0  0  0  0  0  0  0  0  0  0  0  0
    2.6719    0.7250    1.3008 C   0  0  0  0  0  0  0  0  0  0  0  0
    4.5559   -0.6684   -3.5814 H   0  0  0  0  0  0  0  0  0  0  0  0
    5.9810   -1.2722   -2.7116 H   0  0  0  0  0  0  0  0  0  0  0  0
    5.4272    0.4287   -2.4911 H   0  0  0  0  0  0  0  0  0  0  0  0
    3.5295   -2.4482    0.5152 H   0  0  0  0  0  0  0  0  0  0  0  0
    4.3397   -1.4052    1.6929 H   0  0  0  0  0  0  0  0  0  0  0  0
    1.2344   -1.9063   -0.0125 H   0  0  0  0  0  0  0  0  0  0  0  0
   -1.3220    1.1253    0.6013 H   0  0  0  0  0  0  0  0  0  0  0  0
   -1.1402   -1.8158   -0.2593 H   0  0  0  0  0  0  0  0  0  0  0  0
   -3.4614   -2.6629    0.5645 H   0  0  0  0  0  0  0  0  0  0  0  0
   -5.9097   -2.5035    0.0959 H   0  0  0  0  0  0  0  0  0  0  0  0
   -7.5208    0.4734   -1.1182 H   0  0  0  0  0  0  0  0  0  0  0  0
   -7.7306   -1.0791   -0.2666 H   0  0  0  0  0  0  0  0  0  0  0  0
   -7.3783   -1.0702   -2.0327 H   0  0  0  0  0  0  0  0  0  0  0  0
   -5.4273    1.2257   -1.7290 H   0  0  0  0  0  0  0  0  0  0  0  0
   -2.9663    1.1779   -1.3268 H   0  0  0  0  0  0  0  0  0  0  0  0
    0.0611    2.8889    1.6385 H   0  0  0  0  0  0  0  0  0  0  0  0
    1.8807    4.2955    2.5433 H   0  0  0  0  0  0  0  0  0  0  0  0
    4.1921    3.4379    2.6574 H   0  0  0  0  0  0  0  0  0  0  0  0
    4.7351    1.1570    1.8695 H   0  0  0  0  0  0  0  0  0  0  0  0
  1  2  1  0
  2  3  1  0
  3  4  2  0
  3  5  1  0
  5  6  1  0
  6  7  1  0
  7  8  2  0
  8  9  1  0
  9 10  2  3
 10 11  1  0
 11 12  2  0
 12 13  1  0
 13 14  2  0
 14 15  1  0
 14 16  1  0
 16 17  2  0
  8 18  1  0
 18 19  2  0
 19 20  1  0
 20 21  2  0
 21 22  1  0
 22 23  2  0
 23  6  1  0
 17 11  1  0
 23 18  1  0
  1 24  1  0
  1 25  1  0
  1 26  1  0
  5 27  1  0
  5 28  1  0
  7 29  1  0
  9 30  1  0
 10 31  1  0
 12 32  1  0
 13 33  1  0
 15 34  1  0
 15 35  1  0
 15 36  1  0
 16 37  1  0
 17 38  1  0
 19 39  1  0
 20 40  1  0
 21 41  1  0
 22 42  1  0
M  CHG  1  14   1
M  END
$$$$
