
     RDKit          3D

 41 43  0  0  0  0  0  0  0  0999 V2000
    0.7471   -3.2818    0.7415 C   0  0  0  0  0  0  0  0  0  0  0  0
   -0.4243   -2.4181    1.1057 C   0  0  0  0  0  0  0  0  0  0  0  0
   -1.7240   -2.9165    0.9881 C   0  0  0  0  0  0  0  0  0  0  0  0
   -2.8233   -2.1191    1.3185 C   0  0  0  0  0  0  0  0  0  0  0  0
   -2.6554   -0.7975    1.7645 C   0  0  0  0  0  0  0  0  0  0  0  0
   -3.8814   -0.0109    2.1303 C   0  0  0  0  0  0  0  0  0  0  0  0
   -1.3441   -0.2981    1.8791 C   0  0  0  0  0  0  0  0  0  0  0  0
   -1.0059    1.3627    2.4418 S   0  0  0  0  0  6  0  0  0  0  0  0
   -1.9390    1.6818    3.5030 O   0  0  0  0  0  0  0  0  0  0  0  0
    0.4180    1.5141    2.6597 O   0  0  0  0  0  0  0  0  0  0  0  0
   -1.4610    2.3110    1.1102 N   0  0  0  0  0  0  0  0  0  0  0  0
   -0.5256    2.4389    0.0461 C   0  0  0  0  0  0  0  0  0  0  0  0
    0.3497    3.5249    0.0282 C   0  0  0  0  0  0  0  0  0  0  0  0
    1.3195    3.6207   -0.9713 C   0  0  0  0  0  0  0  0  0  0  0  0
    1.4181    2.6181   -1.9388 C   0  0  0  0  0  0  0  0  0  0  0  0
    2.3728    2.7185   -2.9149 O   0  0  0  0  0  0  0  0  0  0  0  0
    0.5506    1.5158   -1.9211 C   0  0  0  0  0  0  0  0  0  0  0  0
    0.6461    0.2012   -3.1262 S   0  0  0  0  0  0  0  0  0  0  0  0
    2.0275   -0.6998   -2.5520 C   0  0  0  0  0  0  0  0  0  0  0  0
    2.4935   -0.6580   -1.2607 N   0  0  0  0  0  0  0  0  0  0  0  0
    3.5160   -1.4791   -1.2878 C   0  0  0  0  0  0  0  0  0  0  0  0
    3.6312   -2.0165   -2.5290 N   0  0  0  0  0  0  0  0  0  0  0  0
    2.6865   -1.5464   -3.3542 N   0  0  0  0  0  0  0  0  0  0  0  0
   -0.4289    1.4389   -0.9228 C   0  0  0  0  0  0  0  0  0  0  0  0
   -0.2397   -1.1059    1.5538 C   0  0  0  0  0  0  0  0  0  0  0  0
    0.7281   -3.5111   -0.3320 H   0  0  0  0  0  0  0  0  0  0  0  0
    1.6993   -2.7851    0.9702 H   0  0  0  0  0  0  0  0  0  0  0  0
    0.7162   -4.2185    1.3150 H   0  0  0  0  0  0  0  0  0  0  0  0
   -1.8899   -3.9341    0.6389 H   0  0  0  0  0  0  0  0  0  0  0  0
   -3.8207   -2.5466    1.2287 H   0  0  0  0  0  0  0  0  0  0  0  0
   -3.8603    0.9913    1.6948 H   0  0  0  0  0  0  0  0  0  0  0  0
   -3.9740    0.0534    3.2182 H   0  0  0  0  0  0  0  0  0  0  0  0
   -4.7897   -0.4942    1.7505 H   0  0  0  0  0  0  0  0  0  0  0  0
   -1.9382    3.1543    1.4258 H   0  0  0  0  0  0  0  0  0  0  0  0
    0.2996    4.2894    0.7991 H   0  0  0  0  0  0  0  0  0  0  0  0
    1.9939    4.4716   -0.9731 H   0  0  0  0  0  0  0  0  0  0  0  0
    2.9697    3.4539   -2.7030 H   0  0  0  0  0  0  0  0  0  0  0  0
    4.1809   -1.7183   -0.4695 H   0  0  0  0  0  0  0  0  0  0  0  0
    4.3027   -2.6920   -2.8743 H   0  0  0  0  0  0  0  0  0  0  0  0
   -1.1128    0.5939   -0.9024 H   0  0  0  0  0  0  0  0  0  0  0  0
    0.7710   -0.7067    1.6360 H   0  0  0  0  0  0  0  0  0  0  0  0
  1  2  1  0
  2  3  2  0
  3  4  1  0
  4  5  2  0
  5  6  1  0
  5  7  1  0
  7  8  1  0
  8  9  2  0
  8 10  2  0
  8 11  1  0
 11 12  1  0
 12 13  2  0
 13 14  1  0
 14 15  2  0
 15 16  1  0
 15 17  1  0
 17 18  1  0
 18 19  1  0
 19 20  1  0
 20 21  2  0
 21 22  1  0
 22 23  1  0
 17 24  2  0
  7 25  2  0
 25  2  1  0
 24 12  1  0
 23 19  2  0
  1 26  1  0
  1 27  1  0
  1 28  1  0
  3 29  1  0
  4 30  1  0
  6 31  1  0
  6 32  1  0
  6 33  1  0
 11 34  1  0
 13 35  1  0
 14 36  1  0
 16 37  1  0
 21 38  1  0
 22 39  1  0
 24 40  1  0
 25 41  1  0
M  END
$$$$
