
     RDKit          3D

 59 62  0  0  0  0  0  0  0  0999 V2000
    7.5222    4.0388    1.0184 C   0  0  0  0  0  0  0  0  0  0  0  0
    6.5495    2.8970    1.0228 C   0  0  0  0  0  0  0  0  0  0  0  0
    6.7361    1.7940    0.1845 C   0  0  0  0  0  0  0  0  0  0  0  0
    5.8120    0.7412    0.1681 C   0  0  0  0  0  0  0  0  0  0  0  0
    4.6856    0.7744    0.9967 C   0  0  0  0  0  0  0  0  0  0  0  0
    3.7113   -0.2724    1.0127 N   0  0  0  0  0  0  0  0  0  0  0  0
    2.4862   -0.0121    1.5464 N   0  0  0  0  0  0  0  0  0  0  0  0
    1.7361   -1.0669    1.2223 C   0  0  0  0  0  0  0  0  0  0  0  0
    0.3162   -1.2356    1.4962 C   0  0  0  0  0  0  0  0  0  0  0  0
   -0.3870   -0.3913    2.0496 O   0  0  0  0  0  0  0  0  0  0  0  0
   -0.1728   -2.4858    1.0720 N   0  0  0  0  0  0  0  0  0  0  0  0
   -1.5908   -2.7507    1.2423 C   0  0  0  0  0  0  0  0  0  0  0  0
   -2.4079   -2.0335    0.1638 C   0  0  0  0  0  0  0  0  0  0  0  0
   -1.9694   -1.7369   -0.9442 O   0  0  0  0  0  0  0  0  0  0  0  0
   -3.7209   -1.7913    0.5330 N   0  0  0  0  0  0  0  0  0  0  0  0
   -4.6166   -1.0505   -0.3386 C   0  0  0  0  0  0  0  0  0  0  0  0
   -4.3741    0.4605   -0.2670 C   0  0  0  0  0  0  0  0  0  0  0  0
   -5.3375    1.2241   -1.1489 C   0  0  0  0  0  0  0  0  0  0  0  0
   -4.9921    1.4140   -2.4988 C   0  0  0  0  0  0  0  0  0  0  0  0
   -5.8422    2.0965   -3.3670 C   0  0  0  0  0  0  0  0  0  0  0  0
   -7.0518    2.5964   -2.8998 C   0  0  0  0  0  0  0  0  0  0  0  0
   -7.4121    2.4118   -1.5652 C   0  0  0  0  0  0  0  0  0  0  0  0
   -6.5699    1.7220   -0.6778 C   0  0  0  0  0  0  0  0  0  0  0  0
   -6.9987    1.5646    0.7550 C   0  0  0  0  0  0  0  0  0  0  0  0
    0.5857   -3.4888    0.4598 N   0  0  0  0  0  0  0  0  0  0  0  0
    1.8526   -3.3083    0.2086 C   0  0  0  0  0  0  0  0  0  0  0  0
    2.6072   -4.4128   -0.4741 C   0  0  0  0  0  0  0  0  0  0  0  0
    2.4850   -2.0712    0.5997 C   0  0  0  0  0  0  0  0  0  0  0  0
    3.7855   -1.5957    0.5583 C   0  0  0  0  0  0  0  0  0  0  0  0
    5.0434   -2.2945    0.1894 C   0  0  0  0  0  0  0  0  0  0  0  0
    4.4801    1.9030    1.8073 C   0  0  0  0  0  0  0  0  0  0  0  0
    5.4048    2.9515    1.8215 C   0  0  0  0  0  0  0  0  0  0  0  0
    7.1517    4.8444    0.3770 H   0  0  0  0  0  0  0  0  0  0  0  0
    7.6668    4.4251    2.0332 H   0  0  0  0  0  0  0  0  0  0  0  0
    8.5036    3.7208    0.6490 H   0  0  0  0  0  0  0  0  0  0  0  0
    7.5995    1.7507   -0.4764 H   0  0  0  0  0  0  0  0  0  0  0  0
    5.9874   -0.0567   -0.5425 H   0  0  0  0  0  0  0  0  0  0  0  0
   -1.9018   -2.4078    2.2353 H   0  0  0  0  0  0  0  0  0  0  0  0
   -1.7769   -3.8273    1.1663 H   0  0  0  0  0  0  0  0  0  0  0  0
   -3.9665   -1.8531    1.5123 H   0  0  0  0  0  0  0  0  0  0  0  0
   -4.4856   -1.4143   -1.3653 H   0  0  0  0  0  0  0  0  0  0  0  0
   -5.6379   -1.2987   -0.0272 H   0  0  0  0  0  0  0  0  0  0  0  0
   -3.3441    0.6940   -0.5697 H   0  0  0  0  0  0  0  0  0  0  0  0
   -4.4448    0.8076    0.7711 H   0  0  0  0  0  0  0  0  0  0  0  0
   -4.0473    1.0283   -2.8797 H   0  0  0  0  0  0  0  0  0  0  0  0
   -5.5574    2.2383   -4.4059 H   0  0  0  0  0  0  0  0  0  0  0  0
   -7.7150    3.1321   -3.5730 H   0  0  0  0  0  0  0  0  0  0  0  0
   -8.3617    2.8135   -1.2198 H   0  0  0  0  0  0  0  0  0  0  0  0
   -6.9511    0.5145    1.0598 H   0  0  0  0  0  0  0  0  0  0  0  0
   -6.3584    2.1660    1.4087 H   0  0  0  0  0  0  0  0  0  0  0  0
   -8.0328    1.8951    0.9041 H   0  0  0  0  0  0  0  0  0  0  0  0
    3.2542   -4.9138    0.2499 H   0  0  0  0  0  0  0  0  0  0  0  0
    1.9108   -5.1500   -0.8841 H   0  0  0  0  0  0  0  0  0  0  0  0
    3.2094   -4.0119   -1.2934 H   0  0  0  0  0  0  0  0  0  0  0  0
    4.9753   -3.3642    0.4066 H   0  0  0  0  0  0  0  0  0  0  0  0
    5.2510   -2.1827   -0.8787 H   0  0  0  0  0  0  0  0  0  0  0  0
    5.8968   -1.9342    0.7704 H   0  0  0  0  0  0  0  0  0  0  0  0
    3.6012    1.9807    2.4463 H   0  0  0  0  0  0  0  0  0  0  0  0
    5.2189    3.8120    2.4603 H   0  0  0  0  0  0  0  0  0  0  0  0
  1  2  1  0
  2  3  2  0
  3  4  1  0
  4  5  2  0
  5  6  1  0
  6  7  1  0
  7  8  2  0
  8  9  1  0
  9 10  2  0
  9 11  1  0
 11 12  1  0
 12 13  1  0
 13 14  2  0
 13 15  1  0
 15 16  1  0
 16 17  1  0
 17 18  1  0
 18 19  2  0
 19 20  1  0
 20 21  2  0
 21 22  1  0
 22 23  2  0
 23 24  1  0
 11 25  1  0
 25 26  2  0
 26 27  1  0
 26 28  1  0
 28 29  2  0
 29 30  1  0
  5 31  1  0
 31 32  2  0
 32  2  1  0
 29  6  1  0
 28  8  1  0
 23 18  1  0
  1 33  1  0
  1 34  1  0
  1 35  1  0
  3 36  1  0
  4 37  1  0
 12 38  1  0
 12 39  1  0
 15 40  1  0
 16 41  1  0
 16 42  1  0
 17 43  1  0
 17 44  1  0
 19 45  1  0
 20 46  1  0
 21 47  1  0
 22 48  1  0
 24 49  1  0
 24 50  1  0
 24 51  1  0
 27 52  1  0
 27 53  1  0
 27 54  1  0
 30 55  1  0
 30 56  1  0
 30 57  1  0
 31 58  1  0
 32 59  1  0
M  END
$$$$
