
     RDKit          3D

 36 38  0  0  0  0  0  0  0  0999 V2000
   -5.9710   -1.3659    0.6538 C   0  0  0  0  0  0  0  0  0  0  0  0
   -5.2585   -0.1463    0.2771 N   0  0  0  0  0  0  0  0  0  0  0  0
   -5.9873    0.7621   -0.6064 C   0  0  0  0  0  0  0  0  0  0  0  0
   -3.8595   -0.1667    0.2228 C   0  0  0  0  0  0  0  0  0  0  0  0
   -3.1189    0.8660   -0.3783 C   0  0  0  0  0  0  0  0  0  0  0  0
   -1.7149    0.8615   -0.4196 C   0  0  0  0  0  0  0  0  0  0  0  0
   -0.9894   -0.1766    0.1626 C   0  0  0  0  0  0  0  0  0  0  0  0
    0.4766   -0.2397    0.1215 C   0  0  0  0  0  0  0  0  0  0  0  0
    1.2762    0.8278    0.2800 C   0  0  0  0  0  0  0  0  0  0  0  0
    2.6945    0.6883    0.2409 C   0  0  0  0  0  0  0  0  0  0  0  0
    3.3761   -0.4247    0.0508 N   0  0  0  0  0  0  0  0  0  0  0  0
    4.7380   -0.1800    0.0748 C   0  0  0  0  0  0  0  0  0  0  0  0
    5.7537   -1.1429   -0.0946 C   0  0  0  0  0  0  0  0  0  0  0  0
    7.0965   -0.7542   -0.0467 C   0  0  0  0  0  0  0  0  0  0  0  0
    7.4364    0.5778    0.1672 C   0  0  0  0  0  0  0  0  0  0  0  0
    6.4470    1.5513    0.3379 C   0  0  0  0  0  0  0  0  0  0  0  0
    5.1019    1.1484    0.2876 C   0  0  0  0  0  0  0  0  0  0  0  0
    3.6782    2.0955    0.4588 S   0  0  0  0  0  0  0  0  0  0  0  0
   -1.6981   -1.2148    0.7641 C   0  0  0  0  0  0  0  0  0  0  0  0
   -3.1018   -1.1996    0.8012 C   0  0  0  0  0  0  0  0  0  0  0  0
   -5.7573   -2.1798   -0.0478 H   0  0  0  0  0  0  0  0  0  0  0  0
   -5.7128   -1.6782    1.6714 H   0  0  0  0  0  0  0  0  0  0  0  0
   -7.0554   -1.2077    0.6561 H   0  0  0  0  0  0  0  0  0  0  0  0
   -5.7518    1.8079   -0.3818 H   0  0  0  0  0  0  0  0  0  0  0  0
   -5.7652    0.5514   -1.6584 H   0  0  0  0  0  0  0  0  0  0  0  0
   -7.0705    0.6640   -0.4719 H   0  0  0  0  0  0  0  0  0  0  0  0
   -3.6156    1.7142   -0.8391 H   0  0  0  0  0  0  0  0  0  0  0  0
   -1.2086    1.6810   -0.9231 H   0  0  0  0  0  0  0  0  0  0  0  0
    0.9031   -1.2312   -0.0249 H   0  0  0  0  0  0  0  0  0  0  0  0
    0.8560    1.8132    0.4555 H   0  0  0  0  0  0  0  0  0  0  0  0
    5.4827   -2.1806   -0.2612 H   0  0  0  0  0  0  0  0  0  0  0  0
    7.8767   -1.5004   -0.1778 H   0  0  0  0  0  0  0  0  0  0  0  0
    8.4846    0.8675    0.2025 H   0  0  0  0  0  0  0  0  0  0  0  0
    6.7132    2.5906    0.5048 H   0  0  0  0  0  0  0  0  0  0  0  0
   -1.1714   -2.0469    1.2262 H   0  0  0  0  0  0  0  0  0  0  0  0
   -3.5830   -2.0324    1.3045 H   0  0  0  0  0  0  0  0  0  0  0  0
  1  2  1  0
  2  3  1  0
  2  4  1  0
  4  5  2  0
  5  6  1  0
  6  7  2  0
  7  8  1  0
  8  9  2  3
  9 10  1  0
 10 11  2  0
 11 12  1  0
 12 13  2  0
 13 14  1  0
 14 15  2  0
 15 16  1  0
 16 17  2  0
 17 18  1  0
  7 19  1  0
 19 20  2  0
 20  4  1  0
 18 10  1  0
 17 12  1  0
  1 21  1  0
  1 22  1  0
  1 23  1  0
  3 24  1  0
  3 25  1  0
  3 26  1  0
  5 27  1  0
  6 28  1  0
  8 29  1  0
  9 30  1  0
 13 31  1  0
 14 32  1  0
 15 33  1  0
 16 34  1  0
 19 35  1  0
 20 36  1  0
M  END
$$$$
