
     RDKit          3D

 44 46  0  0  0  0  0  0  0  0999 V2000
   -2.6015   -2.9825   -2.1455 C   0  0  0  0  0  0  0  0  0  0  0  0
   -3.1734   -1.7292   -1.5411 C   0  0  0  0  0  0  0  0  0  0  0  0
   -4.5267   -1.4198   -1.7300 C   0  0  0  0  0  0  0  0  0  0  0  0
   -5.0752   -0.2629   -1.1760 C   0  0  0  0  0  0  0  0  0  0  0  0
   -4.2832    0.6108   -0.4215 C   0  0  0  0  0  0  0  0  0  0  0  0
   -4.9027    1.8662    0.1686 C   0  0  0  0  0  0  0  0  0  0  0  0
   -4.2784    3.1309   -0.4259 C   0  0  0  0  0  0  0  0  0  0  0  0
   -4.8114    1.8789    1.6968 C   0  0  0  0  0  0  0  0  0  0  0  0
   -2.9245    0.2988   -0.2356 C   0  0  0  0  0  0  0  0  0  0  0  0
   -2.3658   -0.8606   -0.7880 C   0  0  0  0  0  0  0  0  0  0  0  0
   -1.0526   -1.2332   -0.6674 O   0  0  0  0  0  0  0  0  0  0  0  0
   -0.2261   -0.4683    0.1952 C   0  0  0  0  0  0  0  0  0  0  0  0
    1.1631   -1.1084    0.2859 C   0  0  0  0  0  0  0  0  0  0  0  0
    1.3046   -2.3113    0.4900 O   0  0  0  0  0  0  0  0  0  0  0  0
    2.1820   -0.1874    0.1330 N   0  0  0  0  0  0  0  0  0  0  0  0
    3.5004   -0.5432    0.2195 C   0  0  0  0  0  0  0  0  0  0  0  0
    4.0620   -1.7029    0.4561 N   0  0  0  0  0  0  0  0  0  0  0  0
    5.4443   -1.6104    0.4677 N   0  0  0  0  0  0  0  0  0  0  0  0
    5.8470   -0.3791    0.2515 C   0  0  0  0  0  0  0  0  0  0  0  0
    7.3560    0.0144    0.2158 C   0  0  0  0  0  0  0  0  0  0  0  0
    7.9457    0.7567    1.3899 C   0  0  0  0  0  0  0  0  0  0  0  0
    8.3216   -0.6764    1.1451 C   0  0  0  0  0  0  0  0  0  0  0  0
    4.5905    0.7553   -0.0065 S   0  0  0  0  0  0  0  0  0  0  0  0
   -2.1644   -3.6158   -1.3663 H   0  0  0  0  0  0  0  0  0  0  0  0
   -1.8336   -2.7299   -2.8841 H   0  0  0  0  0  0  0  0  0  0  0  0
   -3.3727   -3.5713   -2.6534 H   0  0  0  0  0  0  0  0  0  0  0  0
   -5.1654   -2.0819   -2.3106 H   0  0  0  0  0  0  0  0  0  0  0  0
   -6.1299   -0.0519   -1.3402 H   0  0  0  0  0  0  0  0  0  0  0  0
   -5.9702    1.8823   -0.0883 H   0  0  0  0  0  0  0  0  0  0  0  0
   -4.7921    4.0248   -0.0553 H   0  0  0  0  0  0  0  0  0  0  0  0
   -4.3559    3.1291   -1.5190 H   0  0  0  0  0  0  0  0  0  0  0  0
   -3.2183    3.2253   -0.1670 H   0  0  0  0  0  0  0  0  0  0  0  0
   -3.7744    1.9295    2.0461 H   0  0  0  0  0  0  0  0  0  0  0  0
   -5.2637    0.9769    2.1236 H   0  0  0  0  0  0  0  0  0  0  0  0
   -5.3416    2.7459    2.1061 H   0  0  0  0  0  0  0  0  0  0  0  0
   -2.3189    0.9846    0.3464 H   0  0  0  0  0  0  0  0  0  0  0  0
   -0.1359    0.5536   -0.1901 H   0  0  0  0  0  0  0  0  0  0  0  0
   -0.6316   -0.4492    1.2138 H   0  0  0  0  0  0  0  0  0  0  0  0
    1.9911    0.7817   -0.0700 H   0  0  0  0  0  0  0  0  0  0  0  0
    7.7240    0.2635   -0.7739 H   0  0  0  0  0  0  0  0  0  0  0  0
    8.6883    1.5190    1.1854 H   0  0  0  0  0  0  0  0  0  0  0  0
    7.3169    0.9687    2.2476 H   0  0  0  0  0  0  0  0  0  0  0  0
    9.3159   -0.8899    0.7723 H   0  0  0  0  0  0  0  0  0  0  0  0
    7.9368   -1.4312    1.8224 H   0  0  0  0  0  0  0  0  0  0  0  0
  1  2  1  0
  2  3  2  0
  3  4  1  0
  4  5  2  0
  5  6  1  0
  6  7  1  0
  6  8  1  0
  5  9  1  0
  9 10  2  0
 10 11  1  0
 11 12  1  0
 12 13  1  0
 13 14  2  0
 13 15  1  0
 15 16  1  0
 16 17  2  0
 17 18  1  0
 18 19  2  0
 19 20  1  0
 20 21  1  0
 21 22  1  0
 19 23  1  0
 10  2  1  0
 23 16  1  0
 22 20  1  0
  1 24  1  0
  1 25  1  0
  1 26  1  0
  3 27  1  0
  4 28  1  0
  6 29  1  0
  7 30  1  0
  7 31  1  0
  7 32  1  0
  8 33  1  0
  8 34  1  0
  8 35  1  0
  9 36  1  0
 12 37  1  0
 12 38  1  0
 15 39  1  0
 20 40  1  0
 21 41  1  0
 21 42  1  0
 22 43  1  0
 22 44  1  0
M  END
$$$$
