
     RDKit          3D

 45 49  0  0  0  0  0  0  0  0999 V2000
    1.3289   -1.4665    0.9782 O   0  0  0  0  0  0  0  0  0  0  0  0
    1.6083   -0.6779    0.0872 C   0  0  0  0  0  0  0  0  0  0  0  0
    0.7422   -0.0128   -0.7341 O   0  0  0  0  0  0  0  0  0  0  0  0
   -0.5993   -0.1495   -0.3388 C   0  0  0  0  0  0  0  0  0  0  0  0
   -1.1757    0.6516    0.5915 C   0  0  0  0  0  0  0  0  0  0  0  0
   -0.3814    1.7051    1.2481 C   0  0  0  0  0  0  0  0  0  0  0  0
   -0.1461    2.9243    0.5989 C   0  0  0  0  0  0  0  0  0  0  0  0
    0.6425    3.9035    1.2057 C   0  0  0  0  0  0  0  0  0  0  0  0
    1.2014    3.6697    2.4616 C   0  0  0  0  0  0  0  0  0  0  0  0
    0.9709    2.4592    3.1140 C   0  0  0  0  0  0  0  0  0  0  0  0
    0.1816    1.4791    2.5102 C   0  0  0  0  0  0  0  0  0  0  0  0
   -2.6335    0.4723    0.9696 C   0  0  0  0  0  0  0  0  0  0  0  0
   -3.1723    1.1730    1.8225 O   0  0  0  0  0  0  0  0  0  0  0  0
   -3.3008   -0.5107    0.2866 N   0  0  0  0  0  0  0  0  0  0  0  0
   -2.7015   -1.2939   -0.6824 C   0  0  0  0  0  0  0  0  0  0  0  0
   -3.5955   -2.2000   -1.2286 C   0  0  0  0  0  0  0  0  0  0  0  0
   -3.1614   -3.0577   -2.2190 C   0  0  0  0  0  0  0  0  0  0  0  0
   -1.8212   -2.9696   -2.6298 C   0  0  0  0  0  0  0  0  0  0  0  0
   -0.9340   -2.0340   -2.0516 C   0  0  0  0  0  0  0  0  0  0  0  0
   -1.3781   -1.1710   -1.0501 C   0  0  0  0  0  0  0  0  0  0  0  0
   -4.9405   -2.0492   -0.5857 C   0  0  0  0  0  0  0  0  0  0  0  0
   -4.7011   -0.9034    0.4299 C   0  0  0  0  0  0  0  0  0  0  0  0
    3.0099   -0.3313   -0.2755 C   0  0  0  0  0  0  0  0  0  0  0  0
    4.0444   -1.1057    0.2702 C   0  0  0  0  0  0  0  0  0  0  0  0
    5.3780   -0.8168   -0.0324 C   0  0  0  0  0  0  0  0  0  0  0  0
    5.6804    0.2497   -0.8770 C   0  0  0  0  0  0  0  0  0  0  0  0
    7.3211    0.6066   -1.2495 Cl  0  0  0  0  0  0  0  0  0  0  0  0
    4.6615    1.0314   -1.4197 C   0  0  0  0  0  0  0  0  0  0  0  0
    3.3261    0.7442   -1.1191 C   0  0  0  0  0  0  0  0  0  0  0  0
   -0.5796    3.1194   -0.3791 H   0  0  0  0  0  0  0  0  0  0  0  0
    0.8158    4.8508    0.7020 H   0  0  0  0  0  0  0  0  0  0  0  0
    1.8115    4.4339    2.9362 H   0  0  0  0  0  0  0  0  0  0  0  0
    1.4021    2.2778    4.0950 H   0  0  0  0  0  0  0  0  0  0  0  0
    0.0119    0.5361    3.0265 H   0  0  0  0  0  0  0  0  0  0  0  0
   -3.8308   -3.7828   -2.6708 H   0  0  0  0  0  0  0  0  0  0  0  0
   -1.4560   -3.6376   -3.4078 H   0  0  0  0  0  0  0  0  0  0  0  0
    0.0961   -2.0014   -2.3960 H   0  0  0  0  0  0  0  0  0  0  0  0
   -5.2413   -2.9684   -0.0739 H   0  0  0  0  0  0  0  0  0  0  0  0
   -5.7017   -1.7676   -1.3196 H   0  0  0  0  0  0  0  0  0  0  0  0
   -4.8781   -1.2267    1.4615 H   0  0  0  0  0  0  0  0  0  0  0  0
   -5.3392   -0.0363    0.2275 H   0  0  0  0  0  0  0  0  0  0  0  0
    3.8156   -1.9370    0.9356 H   0  0  0  0  0  0  0  0  0  0  0  0
    6.1716   -1.4241    0.3957 H   0  0  0  0  0  0  0  0  0  0  0  0
    4.8991    1.8679   -2.0724 H   0  0  0  0  0  0  0  0  0  0  0  0
    2.5482    1.3762   -1.5414 H   0  0  0  0  0  0  0  0  0  0  0  0
  1  2  2  0
  2  3  1  0
  3  4  1  0
  4  5  2  0
  5  6  1  0
  6  7  2  0
  7  8  1  0
  8  9  2  0
  9 10  1  0
 10 11  2  0
  5 12  1  0
 12 13  2  0
 12 14  1  0
 14 15  1  0
 15 16  2  0
 16 17  1  0
 17 18  2  0
 18 19  1  0
 19 20  2  0
 16 21  1  0
 21 22  1  0
  2 23  1  0
 23 24  2  0
 24 25  1  0
 25 26  2  0
 26 27  1  0
 26 28  1  0
 28 29  2  0
 20  4  1  0
 29 23  1  0
 11  6  1  0
 22 14  1  0
 20 15  1  0
  7 30  1  0
  8 31  1  0
  9 32  1  0
 10 33  1  0
 11 34  1  0
 17 35  1  0
 18 36  1  0
 19 37  1  0
 21 38  1  0
 21 39  1  0
 22 40  1  0
 22 41  1  0
 24 42  1  0
 25 43  1  0
 28 44  1  0
 29 45  1  0
M  END
$$$$
