
     RDKit          3D

 55 58  0  0  0  0  0  0  0  0999 V2000
    8.2359    3.0041    0.9027 C   0  0  0  0  0  0  0  0  0  0  0  0
    7.8288    1.6429    0.9071 O   0  0  0  0  0  0  0  0  0  0  0  0
    6.5208    1.3710    0.5959 C   0  0  0  0  0  0  0  0  0  0  0  0
    5.5960    2.3229    0.1581 C   0  0  0  0  0  0  0  0  0  0  0  0
    4.2851    1.9441   -0.1444 C   0  0  0  0  0  0  0  0  0  0  0  0
    3.8835    0.6109   -0.0130 C   0  0  0  0  0  0  0  0  0  0  0  0
    2.4672    0.2626   -0.3274 C   0  0  0  0  0  0  0  0  0  0  0  0
    2.2164   -1.0886   -0.9249 C   0  0  0  0  0  0  0  0  0  0  0  0
    0.9334   -1.3925   -1.2034 C   0  0  0  0  0  0  0  0  0  0  0  0
    0.5011   -2.6764   -1.7991 C   0  0  0  0  0  0  0  0  0  0  0  0
   -0.3635   -3.3604   -1.0082 F   0  0  0  0  0  0  0  0  0  0  0  0
    1.5612   -3.5118   -1.9958 F   0  0  0  0  0  0  0  0  0  0  0  0
   -0.0813   -2.5253   -3.0144 F   0  0  0  0  0  0  0  0  0  0  0  0
   -0.0671   -0.4651   -0.9375 N   0  0  0  0  0  0  0  0  0  0  0  0
   -1.3992   -0.5835   -1.1477 N   0  0  0  0  0  0  0  0  0  0  0  0
   -1.9447    0.5686   -0.7194 C   0  0  0  0  0  0  0  0  0  0  0  0
   -3.3889    0.9007   -0.7810 C   0  0  0  0  0  0  0  0  0  0  0  0
   -3.7336    2.0808   -0.6855 O   0  0  0  0  0  0  0  0  0  0  0  0
   -4.3395   -0.1147   -0.9508 N   0  0  0  0  0  0  0  0  0  0  0  0
   -4.0417   -1.5389   -0.9101 C   0  0  0  0  0  0  0  0  0  0  0  0
   -5.7284    0.2659   -1.1824 C   0  0  0  0  0  0  0  0  0  0  0  0
   -6.5883    0.1111    0.0515 C   0  0  0  0  0  0  0  0  0  0  0  0
   -7.5246   -0.9304    0.1474 C   0  0  0  0  0  0  0  0  0  0  0  0
   -8.3102   -1.0745    1.2922 C   0  0  0  0  0  0  0  0  0  0  0  0
   -8.1680   -0.1841    2.3534 C   0  0  0  0  0  0  0  0  0  0  0  0
   -7.2427    0.8551    2.2702 C   0  0  0  0  0  0  0  0  0  0  0  0
   -6.4575    1.0019    1.1260 C   0  0  0  0  0  0  0  0  0  0  0  0
   -0.9356    1.4509   -0.2577 C   0  0  0  0  0  0  0  0  0  0  0  0
    0.2524    0.7780   -0.3927 C   0  0  0  0  0  0  0  0  0  0  0  0
    1.5330    1.1409   -0.0947 N   0  0  0  0  0  0  0  0  0  0  0  0
    4.8005   -0.3454    0.4377 C   0  0  0  0  0  0  0  0  0  0  0  0
    6.1215    0.0257    0.7206 C   0  0  0  0  0  0  0  0  0  0  0  0
    7.0705   -0.8563    1.1779 O   0  0  0  0  0  0  0  0  0  0  0  0
    6.9259   -2.2114    0.7606 C   0  0  0  0  0  0  0  0  0  0  0  0
    9.2785    3.0424    1.2333 H   0  0  0  0  0  0  0  0  0  0  0  0
    7.6426    3.6000    1.6042 H   0  0  0  0  0  0  0  0  0  0  0  0
    8.1925    3.4232   -0.1082 H   0  0  0  0  0  0  0  0  0  0  0  0
    5.8616    3.3672    0.0384 H   0  0  0  0  0  0  0  0  0  0  0  0
    3.5772    2.7007   -0.4775 H   0  0  0  0  0  0  0  0  0  0  0  0
    3.0370   -1.7598   -1.1427 H   0  0  0  0  0  0  0  0  0  0  0  0
   -3.3394   -1.7608   -0.1029 H   0  0  0  0  0  0  0  0  0  0  0  0
   -3.6277   -1.8391   -1.8769 H   0  0  0  0  0  0  0  0  0  0  0  0
   -4.9517   -2.1174   -0.7275 H   0  0  0  0  0  0  0  0  0  0  0  0
   -6.1127   -0.3524   -2.0037 H   0  0  0  0  0  0  0  0  0  0  0  0
   -5.7980    1.3029   -1.5334 H   0  0  0  0  0  0  0  0  0  0  0  0
   -7.6472   -1.6369   -0.6700 H   0  0  0  0  0  0  0  0  0  0  0  0
   -9.0323   -1.8850    1.3566 H   0  0  0  0  0  0  0  0  0  0  0  0
   -8.7788   -0.2977    3.2444 H   0  0  0  0  0  0  0  0  0  0  0  0
   -7.1303    1.5515    3.0959 H   0  0  0  0  0  0  0  0  0  0  0  0
   -5.7403    1.8198    1.0728 H   0  0  0  0  0  0  0  0  0  0  0  0
   -1.0679    2.4524    0.1271 H   0  0  0  0  0  0  0  0  0  0  0  0
    4.4763   -1.3633    0.6155 H   0  0  0  0  0  0  0  0  0  0  0  0
    6.7051   -2.2855   -0.3129 H   0  0  0  0  0  0  0  0  0  0  0  0
    6.1577   -2.7209    1.3565 H   0  0  0  0  0  0  0  0  0  0  0  0
    7.8796   -2.7200    0.9388 H   0  0  0  0  0  0  0  0  0  0  0  0
  1  2  1  0
  2  3  1  0
  3  4  2  0
  4  5  1  0
  5  6  2  0
  6  7  1  0
  7  8  1  0
  8  9  2  0
  9 10  1  0
 10 11  1  0
 10 12  1  0
 10 13  1  0
  9 14  1  0
 14 15  1  0
 15 16  2  0
 16 17  1  0
 17 18  2  0
 17 19  1  0
 19 20  1  0
 19 21  1  0
 21 22  1  0
 22 23  2  0
 23 24  1  0
 24 25  2  0
 25 26  1  0
 26 27  2  0
 16 28  1  0
 28 29  2  0
 29 30  1  0
  6 31  1  0
 31 32  2  0
 32 33  1  0
 33 34  1  0
 32  3  1  0
 30  7  2  0
 29 14  1  0
 27 22  1  0
  1 35  1  0
  1 36  1  0
  1 37  1  0
  4 38  1  0
  5 39  1  0
  8 40  1  0
 20 41  1  0
 20 42  1  0
 20 43  1  0
 21 44  1  0
 21 45  1  0
 23 46  1  0
 24 47  1  0
 25 48  1  0
 26 49  1  0
 27 50  1  0
 28 51  1  0
 31 52  1  0
 34 53  1  0
 34 54  1  0
 34 55  1  0
M  END
$$$$
