
     RDKit          3D

 64 69  0  0  0  0  0  0  0  0999 V2000
   -4.1386    4.2738    3.7810 C   0  0  0  0  0  0  0  0  0  0  0  0
   -3.5953    2.9613    3.8393 O   0  0  0  0  0  0  0  0  0  0  0  0
   -3.7361    2.1841    2.7230 C   0  0  0  0  0  0  0  0  0  0  0  0
   -4.3852    2.5498    1.5441 C   0  0  0  0  0  0  0  0  0  0  0  0
   -4.4572    1.6512    0.4725 C   0  0  0  0  0  0  0  0  0  0  0  0
   -3.8824    0.3771    0.5669 C   0  0  0  0  0  0  0  0  0  0  0  0
   -3.9422   -0.5600   -0.5610 C   0  0  0  0  0  0  0  0  0  0  0  0
   -5.4684   -1.1779   -1.0219 S   0  0  0  0  0  0  0  0  0  0  0  0
   -4.8043   -2.1485   -2.2750 C   0  0  0  0  0  0  0  0  0  0  0  0
   -5.5241   -2.9965   -3.1457 C   0  0  0  0  0  0  0  0  0  0  0  0
   -4.7877   -3.6836   -4.0882 C   0  0  0  0  0  0  0  0  0  0  0  0
   -3.4295   -3.5585   -4.1869 C   0  0  0  0  0  0  0  0  0  0  0  0
   -2.7059   -2.7354   -3.3464 C   0  0  0  0  0  0  0  0  0  0  0  0
   -3.4098   -2.0041   -2.3487 C   0  0  0  0  0  0  0  0  0  0  0  0
   -2.9235   -1.0810   -1.3438 C   0  0  0  0  0  0  0  0  0  0  0  0
   -1.5277   -0.7045   -1.1398 C   0  0  0  0  0  0  0  0  0  0  0  0
   -1.0914    0.5908   -1.4302 C   0  0  0  0  0  0  0  0  0  0  0  0
    0.2478    0.9360   -1.2345 C   0  0  0  0  0  0  0  0  0  0  0  0
    1.1645   -0.0020   -0.7530 C   0  0  0  0  0  0  0  0  0  0  0  0
    2.4397    0.4696   -0.6146 O   0  0  0  0  0  0  0  0  0  0  0  0
    3.4154   -0.4260   -0.0786 C   0  0  0  0  0  0  0  0  0  0  0  0
    4.7815    0.2853    0.0054 C   0  0  0  0  0  0  0  0  0  0  0  0
    4.8377    1.4541    0.9065 N   0  0  0  0  0  0  0  0  0  0  0  0
    4.6214    1.1396    2.3245 C   0  0  0  0  0  0  0  0  0  0  0  0
    5.7934    0.4056    2.9809 C   0  0  0  0  0  0  0  0  0  0  0  0
    7.0995    1.1711    2.7922 C   0  0  0  0  0  0  0  0  0  0  0  0
    7.3168    1.5344    1.3271 C   0  0  0  0  0  0  0  0  0  0  0  0
    6.0824    2.2188    0.7333 C   0  0  0  0  0  0  0  0  0  0  0  0
    0.7301   -1.2969   -0.4676 C   0  0  0  0  0  0  0  0  0  0  0  0
   -0.6112   -1.6474   -0.6612 C   0  0  0  0  0  0  0  0  0  0  0  0
   -2.9063   -4.3219   -5.1842 O   0  0  0  0  0  0  0  0  0  0  0  0
   -4.0995   -4.9417   -5.7056 C   0  0  0  0  0  0  0  0  0  0  0  0
   -5.2992   -4.5431   -5.0114 O   0  0  0  0  0  0  0  0  0  0  0  0
   -3.2312    0.0171    1.7513 C   0  0  0  0  0  0  0  0  0  0  0  0
   -3.1615    0.9153    2.8195 C   0  0  0  0  0  0  0  0  0  0  0  0
   -3.6576    4.8661    2.9955 H   0  0  0  0  0  0  0  0  0  0  0  0
   -3.9347    4.7630    4.7383 H   0  0  0  0  0  0  0  0  0  0  0  0
   -5.2249    4.2454    3.6469 H   0  0  0  0  0  0  0  0  0  0  0  0
   -4.8449    3.5244    1.4220 H   0  0  0  0  0  0  0  0  0  0  0  0
   -4.9614    1.9580   -0.4413 H   0  0  0  0  0  0  0  0  0  0  0  0
   -6.6006   -3.1009   -3.0782 H   0  0  0  0  0  0  0  0  0  0  0  0
   -1.6293   -2.6502   -3.4519 H   0  0  0  0  0  0  0  0  0  0  0  0
   -1.7843    1.3388   -1.8070 H   0  0  0  0  0  0  0  0  0  0  0  0
    0.5815    1.9470   -1.4565 H   0  0  0  0  0  0  0  0  0  0  0  0
    3.5274   -1.2826   -0.7556 H   0  0  0  0  0  0  0  0  0  0  0  0
    3.1081   -0.7931    0.9065 H   0  0  0  0  0  0  0  0  0  0  0  0
    5.5424   -0.4564    0.2724 H   0  0  0  0  0  0  0  0  0  0  0  0
    5.0138    0.6321   -1.0100 H   0  0  0  0  0  0  0  0  0  0  0  0
    4.4548    2.0834    2.8612 H   0  0  0  0  0  0  0  0  0  0  0  0
    3.6978    0.5705    2.4702 H   0  0  0  0  0  0  0  0  0  0  0  0
    5.8913   -0.6026    2.5615 H   0  0  0  0  0  0  0  0  0  0  0  0
    5.5951    0.2821    4.0518 H   0  0  0  0  0  0  0  0  0  0  0  0
    7.9414    0.5751    3.1607 H   0  0  0  0  0  0  0  0  0  0  0  0
    7.0708    2.0890    3.3919 H   0  0  0  0  0  0  0  0  0  0  0  0
    8.1827    2.2009    1.2406 H   0  0  0  0  0  0  0  0  0  0  0  0
    7.5584    0.6306    0.7557 H   0  0  0  0  0  0  0  0  0  0  0  0
    6.2535    2.4363   -0.3282 H   0  0  0  0  0  0  0  0  0  0  0  0
    5.9549    3.1987    1.2123 H   0  0  0  0  0  0  0  0  0  0  0  0
    1.4061   -2.0579   -0.0941 H   0  0  0  0  0  0  0  0  0  0  0  0
   -0.9353   -2.6599   -0.4309 H   0  0  0  0  0  0  0  0  0  0  0  0
   -4.2006   -4.6742   -6.7637 H   0  0  0  0  0  0  0  0  0  0  0  0
   -3.9932   -6.0297   -5.6261 H   0  0  0  0  0  0  0  0  0  0  0  0
   -2.7733   -0.9635    1.8528 H   0  0  0  0  0  0  0  0  0  0  0  0
   -2.6515    0.6234    3.7340 H   0  0  0  0  0  0  0  0  0  0  0  0
  1  2  1  0
  2  3  1  0
  3  4  2  0
  4  5  1  0
  5  6  2  0
  6  7  1  0
  7  8  1  0
  8  9  1  0
  9 10  2  0
 10 11  1  0
 11 12  2  0
 12 13  1  0
 13 14  2  0
 14 15  1  0
 15 16  1  0
 16 17  2  0
 17 18  1  0
 18 19  2  0
 19 20  1  0
 20 21  1  0
 21 22  1  0
 22 23  1  0
 23 24  1  0
 24 25  1  0
 25 26  1  0
 26 27  1  0
 27 28  1  0
 19 29  1  0
 29 30  2  0
 12 31  1  0
 31 32  1  0
 32 33  1  0
  6 34  1  0
 34 35  2  0
 35  3  1  0
 15  7  2  0
 30 16  1  0
 14  9  1  0
 28 23  1  0
 33 11  1  0
  1 36  1  0
  1 37  1  0
  1 38  1  0
  4 39  1  0
  5 40  1  0
 10 41  1  0
 13 42  1  0
 17 43  1  0
 18 44  1  0
 21 45  1  0
 21 46  1  0
 22 47  1  0
 22 48  1  0
 24 49  1  0
 24 50  1  0
 25 51  1  0
 25 52  1  0
 26 53  1  0
 26 54  1  0
 27 55  1  0
 27 56  1  0
 28 57  1  0
 28 58  1  0
 29 59  1  0
 30 60  1  0
 32 61  1  0
 32 62  1  0
 34 63  1  0
 35 64  1  0
M  END
$$$$
