
     RDKit          3D

 43 45  0  0  0  0  0  0  0  0999 V2000
    2.6350    1.0550    2.1218 O   0  0  0  0  0  0  0  0  0  0  0  0
    2.6642   -0.1613    1.9548 C   0  0  0  0  0  0  0  0  0  0  0  0
    3.9155   -0.9593    2.3025 C   0  0  0  0  0  0  0  0  0  0  0  0
    4.3592   -2.1476    0.9845 S   0  0  0  0  0  0  0  0  0  0  0  0
    4.7265   -1.0104   -0.3449 C   0  0  0  0  0  0  0  0  0  0  0  0
    3.9810   -1.0913   -1.5266 C   0  0  0  0  0  0  0  0  0  0  0  0
    4.2393   -0.2164   -2.5864 C   0  0  0  0  0  0  0  0  0  0  0  0
    5.2504    0.7385   -2.4784 C   0  0  0  0  0  0  0  0  0  0  0  0
    6.0075    0.8171   -1.3113 C   0  0  0  0  0  0  0  0  0  0  0  0
    5.7450   -0.0552   -0.2575 C   0  0  0  0  0  0  0  0  0  0  0  0
    6.5001    0.0373    0.8481 F   0  0  0  0  0  0  0  0  0  0  0  0
    1.6130   -0.9535    1.5213 N   0  0  0  0  0  0  0  0  0  0  0  0
    0.3234   -0.5457    1.1330 C   0  0  0  0  0  0  0  0  0  0  0  0
   -0.1233    0.7701    1.1615 C   0  0  0  0  0  0  0  0  0  0  0  0
   -1.4283    1.0843    0.7540 C   0  0  0  0  0  0  0  0  0  0  0  0
   -2.3321    0.1032    0.3168 C   0  0  0  0  0  0  0  0  0  0  0  0
   -3.6226    0.4771   -0.0870 N   0  0  0  0  0  0  0  0  0  0  0  0
   -4.4105    1.1601    0.9705 C   0  0  0  0  0  0  0  0  0  0  0  0
   -5.6977    1.7508    0.3707 C   0  0  0  0  0  0  0  0  0  0  0  0
   -6.4805    0.7513   -0.3018 O   0  0  0  0  0  0  0  0  0  0  0  0
   -5.7127    0.1633   -1.3640 C   0  0  0  0  0  0  0  0  0  0  0  0
   -4.4394   -0.5088   -0.8271 C   0  0  0  0  0  0  0  0  0  0  0  0
   -1.8575   -1.2134    0.2786 C   0  0  0  0  0  0  0  0  0  0  0  0
   -0.5537   -1.5358    0.6845 C   0  0  0  0  0  0  0  0  0  0  0  0
    4.7454   -0.2743    2.4960 H   0  0  0  0  0  0  0  0  0  0  0  0
    3.7193   -1.5168    3.2241 H   0  0  0  0  0  0  0  0  0  0  0  0
    3.1872   -1.8271   -1.6324 H   0  0  0  0  0  0  0  0  0  0  0  0
    3.6475   -0.2794   -3.4969 H   0  0  0  0  0  0  0  0  0  0  0  0
    5.4479    1.4193   -3.3028 H   0  0  0  0  0  0  0  0  0  0  0  0
    6.8006    1.5517   -1.2131 H   0  0  0  0  0  0  0  0  0  0  0  0
    1.8260   -1.9389    1.4104 H   0  0  0  0  0  0  0  0  0  0  0  0
    0.5148    1.5862    1.4847 H   0  0  0  0  0  0  0  0  0  0  0  0
   -1.7231    2.1311    0.7574 H   0  0  0  0  0  0  0  0  0  0  0  0
   -3.8522    1.9745    1.4437 H   0  0  0  0  0  0  0  0  0  0  0  0
   -4.6732    0.4287    1.7459 H   0  0  0  0  0  0  0  0  0  0  0  0
   -5.4666    2.5566   -0.3366 H   0  0  0  0  0  0  0  0  0  0  0  0
   -6.3170    2.1746    1.1677 H   0  0  0  0  0  0  0  0  0  0  0  0
   -5.4704    0.9379   -2.1016 H   0  0  0  0  0  0  0  0  0  0  0  0
   -6.3456   -0.5814   -1.8567 H   0  0  0  0  0  0  0  0  0  0  0  0
   -3.8787   -0.9181   -1.6754 H   0  0  0  0  0  0  0  0  0  0  0  0
   -4.7265   -1.3284   -0.1562 H   0  0  0  0  0  0  0  0  0  0  0  0
   -2.4933   -2.0290   -0.0509 H   0  0  0  0  0  0  0  0  0  0  0  0
   -0.2441   -2.5768    0.6425 H   0  0  0  0  0  0  0  0  0  0  0  0
  1  2  2  0
  2  3  1  0
  3  4  1  0
  4  5  1  0
  5  6  2  0
  6  7  1  0
  7  8  2  0
  8  9  1  0
  9 10  2  0
 10 11  1  0
  2 12  1  0
 12 13  1  0
 13 14  2  0
 14 15  1  0
 15 16  2  0
 16 17  1  0
 17 18  1  0
 18 19  1  0
 19 20  1  0
 20 21  1  0
 21 22  1  0
 16 23  1  0
 23 24  2  0
 10  5  1  0
 24 13  1  0
 22 17  1  0
  3 25  1  0
  3 26  1  0
  6 27  1  0
  7 28  1  0
  8 29  1  0
  9 30  1  0
 12 31  1  0
 14 32  1  0
 15 33  1  0
 18 34  1  0
 18 35  1  0
 19 36  1  0
 19 37  1  0
 21 38  1  0
 21 39  1  0
 22 40  1  0
 22 41  1  0
 23 42  1  0
 24 43  1  0
M  END
$$$$
