
     RDKit          3D

 38 39  0  0  0  0  0  0  0  0999 V2000
    1.1232    2.9770    0.7522 O   0  0  0  0  0  0  0  0  0  0  0  0
    0.5222    2.0389    0.2421 C   0  0  0  0  0  0  0  0  0  0  0  0
   -0.6438    1.4455    0.9441 C   0  0  0  0  0  0  0  0  0  0  0  0
   -1.6154    0.7305    0.3555 C   0  0  0  0  0  0  0  0  0  0  0  0
   -2.7652    0.2039    1.1092 C   0  0  0  0  0  0  0  0  0  0  0  0
   -2.5270   -0.6306    2.2142 C   0  0  0  0  0  0  0  0  0  0  0  0
   -3.5859   -1.1488    2.9695 C   0  0  0  0  0  0  0  0  0  0  0  0
   -4.9054   -0.8464    2.6366 C   0  0  0  0  0  0  0  0  0  0  0  0
   -5.1730   -0.0300    1.5405 C   0  0  0  0  0  0  0  0  0  0  0  0
   -4.1052    0.4779    0.7838 C   0  0  0  0  0  0  0  0  0  0  0  0
   -4.4421    1.3197   -0.3522 N   0  0  0  0  0  4  0  0  0  0  0  0
   -4.0281    0.9686   -1.4657 O   0  0  0  0  0  0  0  0  0  0  0  0
   -5.1522    2.3094   -0.1283 O   0  0  0  0  0  1  0  0  0  0  0  0
    0.8935    1.4315   -0.9273 N   0  0  0  0  0  0  0  0  0  0  0  0
    2.0947    1.8290   -1.6391 C   0  0  0  0  0  0  0  0  0  0  0  0
    3.3752    1.2552   -1.0219 C   0  0  0  0  0  0  0  0  0  0  0  0
    3.4119   -0.2568   -1.0499 C   0  0  0  0  0  0  0  0  0  0  0  0
    3.7225   -0.9400   -2.2357 C   0  0  0  0  0  0  0  0  0  0  0  0
    3.7345   -2.3352   -2.2612 C   0  0  0  0  0  0  0  0  0  0  0  0
    3.4360   -3.0452   -1.1045 C   0  0  0  0  0  0  0  0  0  0  0  0
    3.4460   -4.3844   -1.1313 F   0  0  0  0  0  0  0  0  0  0  0  0
    3.1255   -2.3872    0.0791 C   0  0  0  0  0  0  0  0  0  0  0  0
    3.1124   -0.9925    0.1075 C   0  0  0  0  0  0  0  0  0  0  0  0
   -0.6824    1.6990    2.0000 H   0  0  0  0  0  0  0  0  0  0  0  0
   -1.6153    0.5360   -0.7137 H   0  0  0  0  0  0  0  0  0  0  0  0
   -1.5091   -0.8910    2.5015 H   0  0  0  0  0  0  0  0  0  0  0  0
   -3.3766   -1.7904    3.8234 H   0  0  0  0  0  0  0  0  0  0  0  0
   -5.7229   -1.2485    3.2312 H   0  0  0  0  0  0  0  0  0  0  0  0
   -6.2034    0.2053    1.2816 H   0  0  0  0  0  0  0  0  0  0  0  0
    0.4898    0.5385   -1.1737 H   0  0  0  0  0  0  0  0  0  0  0  0
    1.9754    1.4969   -2.6761 H   0  0  0  0  0  0  0  0  0  0  0  0
    2.1514    2.9234   -1.6404 H   0  0  0  0  0  0  0  0  0  0  0  0
    3.4896    1.6071    0.0109 H   0  0  0  0  0  0  0  0  0  0  0  0
    4.2457    1.6382   -1.5691 H   0  0  0  0  0  0  0  0  0  0  0  0
    3.9593   -0.3897   -3.1437 H   0  0  0  0  0  0  0  0  0  0  0  0
    3.9759   -2.8718   -3.1731 H   0  0  0  0  0  0  0  0  0  0  0  0
    2.8990   -2.9630    0.9705 H   0  0  0  0  0  0  0  0  0  0  0  0
    2.8693   -0.4798    1.0362 H   0  0  0  0  0  0  0  0  0  0  0  0
  1  2  2  0
  2  3  1  0
  3  4  2  3
  4  5  1  0
  5  6  2  0
  6  7  1  0
  7  8  2  0
  8  9  1  0
  9 10  2  0
 10 11  1  0
 11 12  2  0
 11 13  1  0
  2 14  1  0
 14 15  1  0
 15 16  1  0
 16 17  1  0
 17 18  2  0
 18 19  1  0
 19 20  2  0
 20 21  1  0
 20 22  1  0
 22 23  2  0
 10  5  1  0
 23 17  1  0
  3 24  1  0
  4 25  1  0
  6 26  1  0
  7 27  1  0
  8 28  1  0
  9 29  1  0
 14 30  1  0
 15 31  1  0
 15 32  1  0
 16 33  1  0
 16 34  1  0
 18 35  1  0
 19 36  1  0
 22 37  1  0
 23 38  1  0
M  CHG  2  11   1  13  -1
M  END
$$$$
