
     RDKit          3D

 58 60  0  0  0  0  0  0  0  0999 V2000
    9.9536   -2.5858   -0.7863 C   0  0  0  0  0  0  0  0  0  0  0  0
    8.5256   -2.2523   -1.1006 C   0  0  0  0  0  0  0  0  0  0  0  0
    7.4820   -2.9339   -0.4653 C   0  0  0  0  0  0  0  0  0  0  0  0
    6.1522   -2.6028   -0.7343 C   0  0  0  0  0  0  0  0  0  0  0  0
    5.8438   -1.5790   -1.6382 C   0  0  0  0  0  0  0  0  0  0  0  0
    4.4070   -1.2097   -1.9056 C   0  0  0  0  0  0  0  0  0  0  0  0
    3.8771   -0.2187   -0.8669 C   0  0  0  0  0  0  0  0  0  0  0  0
    2.5050    0.1754   -1.1331 N   0  0  0  0  0  0  0  0  0  0  0  0
    1.4419   -0.6359   -0.7997 C   0  0  0  0  0  0  0  0  0  0  0  0
    1.5701   -1.7185   -0.2376 O   0  0  0  0  0  0  0  0  0  0  0  0
    0.0984   -0.0377   -1.1609 C   0  0  0  0  0  0  0  0  0  0  0  0
   -1.0438   -1.0327   -0.9922 C   0  0  0  0  0  0  0  0  0  0  0  0
   -1.2411   -1.3473    0.4334 N   0  0  0  0  0  0  0  0  0  0  0  0
   -2.6935   -2.0571    0.8925 S   0  0  0  0  0  6  0  0  0  0  0  0
   -2.4237   -2.8050    2.1002 O   0  0  0  0  0  0  0  0  0  0  0  0
   -3.3108   -2.6641   -0.2640 O   0  0  0  0  0  0  0  0  0  0  0  0
   -3.6454   -0.6302    1.3540 C   0  0  0  0  0  0  0  0  0  0  0  0
   -3.6758   -0.2151    2.6848 C   0  0  0  0  0  0  0  0  0  0  0  0
   -4.4482    0.8940    3.0483 C   0  0  0  0  0  0  0  0  0  0  0  0
   -5.1969    1.5996    2.0909 C   0  0  0  0  0  0  0  0  0  0  0  0
   -5.1532    1.1628    0.7667 C   0  0  0  0  0  0  0  0  0  0  0  0
   -4.3935    0.0441    0.3912 C   0  0  0  0  0  0  0  0  0  0  0  0
   -5.9153    1.8928   -0.2571 C   0  0  0  0  0  0  0  0  0  0  0  0
   -5.8841    1.4959   -1.4198 O   0  0  0  0  0  0  0  0  0  0  0  0
   -6.6268    3.0041    0.1665 N   0  0  0  0  0  0  0  0  0  0  0  0
   -7.3971    3.7239   -0.8318 C   0  0  0  0  0  0  0  0  0  0  0  0
   -6.7418    3.4220    1.4868 C   0  0  0  0  0  0  0  0  0  0  0  0
   -7.4704    4.3661    1.8016 O   0  0  0  0  0  0  0  0  0  0  0  0
   -5.9961    2.7228    2.4326 N   0  0  0  0  0  0  0  0  0  0  0  0
   -6.0732    3.1552    3.8229 C   0  0  0  0  0  0  0  0  0  0  0  0
    6.8883   -0.8847   -2.2599 C   0  0  0  0  0  0  0  0  0  0  0  0
    8.2182   -1.2168   -1.9901 C   0  0  0  0  0  0  0  0  0  0  0  0
   10.5975   -2.3993   -1.6521 H   0  0  0  0  0  0  0  0  0  0  0  0
   10.0597   -3.6440   -0.5251 H   0  0  0  0  0  0  0  0  0  0  0  0
   10.3037   -1.9773    0.0532 H   0  0  0  0  0  0  0  0  0  0  0  0
    7.6969   -3.7299    0.2442 H   0  0  0  0  0  0  0  0  0  0  0  0
    5.3563   -3.1490   -0.2309 H   0  0  0  0  0  0  0  0  0  0  0  0
    4.3156   -0.7814   -2.9122 H   0  0  0  0  0  0  0  0  0  0  0  0
    3.7942   -2.1198   -1.9191 H   0  0  0  0  0  0  0  0  0  0  0  0
    4.4773    0.6981   -0.8635 H   0  0  0  0  0  0  0  0  0  0  0  0
    3.9253   -0.6519    0.1393 H   0  0  0  0  0  0  0  0  0  0  0  0
    2.3409    1.0353   -1.6407 H   0  0  0  0  0  0  0  0  0  0  0  0
   -0.0646    0.8446   -0.5307 H   0  0  0  0  0  0  0  0  0  0  0  0
    0.1370    0.2870   -2.2074 H   0  0  0  0  0  0  0  0  0  0  0  0
   -1.9529   -0.5839   -1.4049 H   0  0  0  0  0  0  0  0  0  0  0  0
   -0.8293   -1.9583   -1.5377 H   0  0  0  0  0  0  0  0  0  0  0  0
   -0.4420   -1.8158    0.8788 H   0  0  0  0  0  0  0  0  0  0  0  0
   -3.1070   -0.7478    3.4453 H   0  0  0  0  0  0  0  0  0  0  0  0
   -4.4454    1.1802    4.0966 H   0  0  0  0  0  0  0  0  0  0  0  0
   -4.3898   -0.2929   -0.6441 H   0  0  0  0  0  0  0  0  0  0  0  0
   -7.4726    4.7863   -0.5796 H   0  0  0  0  0  0  0  0  0  0  0  0
   -8.4039    3.2944   -0.8612 H   0  0  0  0  0  0  0  0  0  0  0  0
   -6.9449    3.6335   -1.8239 H   0  0  0  0  0  0  0  0  0  0  0  0
   -6.4901    2.3464    4.4315 H   0  0  0  0  0  0  0  0  0  0  0  0
   -5.0724    3.4224    4.1764 H   0  0  0  0  0  0  0  0  0  0  0  0
   -6.7131    4.0324    3.9506 H   0  0  0  0  0  0  0  0  0  0  0  0
    6.6763   -0.0789   -2.9587 H   0  0  0  0  0  0  0  0  0  0  0  0
    9.0146   -0.6620   -2.4809 H   0  0  0  0  0  0  0  0  0  0  0  0
  1  2  1  0
  2  3  2  0
  3  4  1  0
  4  5  2  0
  5  6  1  0
  6  7  1  0
  7  8  1  0
  8  9  1  0
  9 10  2  0
  9 11  1  0
 11 12  1  0
 12 13  1  0
 13 14  1  0
 14 15  2  0
 14 16  2  0
 14 17  1  0
 17 18  2  0
 18 19  1  0
 19 20  2  0
 20 21  1  0
 21 22  2  0
 21 23  1  0
 23 24  2  0
 23 25  1  0
 25 26  1  0
 25 27  1  0
 27 28  2  0
 27 29  1  0
 29 30  1  0
  5 31  1  0
 31 32  2  0
 32  2  1  0
 22 17  1  0
 29 20  1  0
  1 33  1  0
  1 34  1  0
  1 35  1  0
  3 36  1  0
  4 37  1  0
  6 38  1  0
  6 39  1  0
  7 40  1  0
  7 41  1  0
  8 42  1  0
 11 43  1  0
 11 44  1  0
 12 45  1  0
 12 46  1  0
 13 47  1  0
 18 48  1  0
 19 49  1  0
 22 50  1  0
 26 51  1  0
 26 52  1  0
 26 53  1  0
 30 54  1  0
 30 55  1  0
 30 56  1  0
 31 57  1  0
 32 58  1  0
M  END
$$$$
