
     RDKit          3D

 41 44  0  0  0  0  0  0  0  0999 V2000
    0.1192   -2.8649   -0.0026 O   0  0  0  0  0  0  0  0  0  0  0  0
   -0.0744   -1.8489    0.6608 C   0  0  0  0  0  0  0  0  0  0  0  0
   -1.4345   -1.6051    1.3284 C   0  0  0  0  0  0  0  0  0  0  0  0
   -2.0609   -0.3542    0.8737 N   0  0  0  0  0  0  0  0  0  0  0  0
   -1.7378    0.8121    1.5592 C   0  0  0  0  0  0  0  0  0  0  0  0
   -0.8523    0.8440    2.4184 O   0  0  0  0  0  0  0  0  0  0  0  0
   -2.5268    2.0543    1.2222 C   0  0  0  0  0  0  0  0  0  0  0  0
   -1.8703    2.8477    0.1130 C   0  0  0  0  0  0  0  0  0  0  0  0
   -1.3024    1.8707   -1.3120 S   0  0  0  0  0  0  0  0  0  0  0  0
   -2.5708    0.6073   -1.3790 C   0  0  0  0  0  0  0  0  0  0  0  0
   -3.2972    0.5311   -2.5782 C   0  0  0  0  0  0  0  0  0  0  0  0
   -4.2247   -0.4873   -2.7881 C   0  0  0  0  0  0  0  0  0  0  0  0
   -4.4235   -1.4507   -1.8074 C   0  0  0  0  0  0  0  0  0  0  0  0
   -3.6985   -1.3951   -0.6145 C   0  0  0  0  0  0  0  0  0  0  0  0
   -2.7691   -0.3684   -0.3740 C   0  0  0  0  0  0  0  0  0  0  0  0
    0.8585   -0.8694    0.9554 N   0  0  0  0  0  0  0  0  0  0  0  0
    2.1838   -0.7625    0.4928 C   0  0  0  0  0  0  0  0  0  0  0  0
    2.7778   -1.6754   -0.3992 C   0  0  0  0  0  0  0  0  0  0  0  0
    4.1024   -1.5092   -0.8260 C   0  0  0  0  0  0  0  0  0  0  0  0
    4.8015   -0.4252   -0.3467 C   0  0  0  0  0  0  0  0  0  0  0  0
    4.2291    0.4713    0.5217 C   0  0  0  0  0  0  0  0  0  0  0  0
    2.9278    0.3321    0.9584 C   0  0  0  0  0  0  0  0  0  0  0  0
    5.0833    1.4695    0.8747 O   0  0  0  0  0  0  0  0  0  0  0  0
    6.2588    1.0967    0.1254 C   0  0  0  0  0  0  0  0  0  0  0  0
    6.0874   -0.1069   -0.6509 O   0  0  0  0  0  0  0  0  0  0  0  0
   -1.2768   -1.5661    2.4134 H   0  0  0  0  0  0  0  0  0  0  0  0
   -2.0783   -2.4687    1.1436 H   0  0  0  0  0  0  0  0  0  0  0  0
   -2.5970    2.6696    2.1276 H   0  0  0  0  0  0  0  0  0  0  0  0
   -3.5622    1.7937    0.9742 H   0  0  0  0  0  0  0  0  0  0  0  0
   -0.9912    3.3713    0.5046 H   0  0  0  0  0  0  0  0  0  0  0  0
   -2.5637    3.6150   -0.2475 H   0  0  0  0  0  0  0  0  0  0  0  0
   -3.1299    1.2580   -3.3711 H   0  0  0  0  0  0  0  0  0  0  0  0
   -4.7783   -0.5355   -3.7226 H   0  0  0  0  0  0  0  0  0  0  0  0
   -5.1430   -2.2503   -1.9687 H   0  0  0  0  0  0  0  0  0  0  0  0
   -3.9091   -2.1523    0.1359 H   0  0  0  0  0  0  0  0  0  0  0  0
    0.5435   -0.1320    1.5873 H   0  0  0  0  0  0  0  0  0  0  0  0
    2.2282   -2.5291   -0.7843 H   0  0  0  0  0  0  0  0  0  0  0  0
    4.5592   -2.2120   -1.5133 H   0  0  0  0  0  0  0  0  0  0  0  0
    2.5078    1.0607    1.6431 H   0  0  0  0  0  0  0  0  0  0  0  0
    7.0879    0.9466    0.8265 H   0  0  0  0  0  0  0  0  0  0  0  0
    6.5168    1.9179   -0.5531 H   0  0  0  0  0  0  0  0  0  0  0  0
  1  2  2  0
  2  3  1  0
  3  4  1  0
  4  5  1  0
  5  6  2  0
  5  7  1  0
  7  8  1  0
  8  9  1  0
  9 10  1  0
 10 11  2  0
 11 12  1  0
 12 13  2  0
 13 14  1  0
 14 15  2  0
  2 16  1  0
 16 17  1  0
 17 18  2  0
 18 19  1  0
 19 20  2  0
 20 21  1  0
 21 22  2  0
 21 23  1  0
 23 24  1  0
 24 25  1  0
 15  4  1  0
 22 17  1  0
 15 10  1  0
 25 20  1  0
  3 26  1  0
  3 27  1  0
  7 28  1  0
  7 29  1  0
  8 30  1  0
  8 31  1  0
 11 32  1  0
 12 33  1  0
 13 34  1  0
 14 35  1  0
 16 36  1  0
 18 37  1  0
 19 38  1  0
 22 39  1  0
 24 40  1  0
 24 41  1  0
M  END
$$$$
