
     RDKit          3D

 56 58  0  0  0  0  0  0  0  0999 V2000
   10.2130    1.7760    1.4074 C   0  0  0  0  0  0  0  0  0  0  0  0
    8.7180    1.9735    1.2319 C   0  0  0  0  0  0  0  0  0  0  0  0
    8.2255    0.9055    0.4243 O   0  0  0  0  0  0  0  0  0  0  0  0
    6.8852    0.8955    0.1576 C   0  0  0  0  0  0  0  0  0  0  0  0
    6.4512   -0.1800   -0.6171 C   0  0  0  0  0  0  0  0  0  0  0  0
    5.1031   -0.3107   -0.9646 C   0  0  0  0  0  0  0  0  0  0  0  0
    4.1641    0.6355   -0.5402 C   0  0  0  0  0  0  0  0  0  0  0  0
    2.8247    0.4350   -0.9336 N   0  0  0  0  0  0  0  0  0  0  0  0
    1.7271    1.2223   -0.6251 C   0  0  0  0  0  0  0  0  0  0  0  0
    1.7230    2.2285    0.0759 O   0  0  0  0  0  0  0  0  0  0  0  0
    0.4526    0.6714   -1.2421 C   0  0  0  0  0  0  0  0  0  0  0  0
   -0.7311    1.6187   -1.0833 C   0  0  0  0  0  0  0  0  0  0  0  0
   -1.1308    1.7010    0.3321 N   0  0  0  0  0  0  0  0  0  0  0  0
   -2.6581    2.3080    0.6871 S   0  0  0  0  0  6  0  0  0  0  0  0
   -3.1286    3.0903   -0.4327 O   0  0  0  0  0  0  0  0  0  0  0  0
   -2.5852    2.8496    2.0257 O   0  0  0  0  0  0  0  0  0  0  0  0
   -3.6147    0.8138    0.7706 C   0  0  0  0  0  0  0  0  0  0  0  0
   -3.8179    0.1850    1.9983 C   0  0  0  0  0  0  0  0  0  0  0  0
   -4.5927   -0.9790    2.0619 C   0  0  0  0  0  0  0  0  0  0  0  0
   -5.1739   -1.5256    0.9048 C   0  0  0  0  0  0  0  0  0  0  0  0
   -4.9606   -0.8751   -0.3107 C   0  0  0  0  0  0  0  0  0  0  0  0
   -4.1945    0.2982   -0.3868 C   0  0  0  0  0  0  0  0  0  0  0  0
   -5.5413   -1.4374   -1.5391 C   0  0  0  0  0  0  0  0  0  0  0  0
   -5.2558   -0.9261   -2.6196 O   0  0  0  0  0  0  0  0  0  0  0  0
   -6.3669   -2.5393   -1.3901 N   0  0  0  0  0  0  0  0  0  0  0  0
   -6.9791   -3.0959   -2.5826 C   0  0  0  0  0  0  0  0  0  0  0  0
   -6.5548   -3.2385   -0.2036 C   0  0  0  0  0  0  0  0  0  0  0  0
   -7.2122   -4.2815   -0.1717 O   0  0  0  0  0  0  0  0  0  0  0  0
   -5.9568   -2.7099    0.9374 N   0  0  0  0  0  0  0  0  0  0  0  0
   -6.1549   -3.4080    2.2020 C   0  0  0  0  0  0  0  0  0  0  0  0
    4.6013    1.7106    0.2340 C   0  0  0  0  0  0  0  0  0  0  0  0
    5.9540    1.8408    0.5816 C   0  0  0  0  0  0  0  0  0  0  0  0
   10.7184    1.7761    0.4362 H   0  0  0  0  0  0  0  0  0  0  0  0
   10.4218    0.8084    1.8754 H   0  0  0  0  0  0  0  0  0  0  0  0
   10.6410    2.5681    2.0279 H   0  0  0  0  0  0  0  0  0  0  0  0
    8.5397    2.9364    0.7394 H   0  0  0  0  0  0  0  0  0  0  0  0
    8.2373    1.9589    2.2169 H   0  0  0  0  0  0  0  0  0  0  0  0
    7.1697   -0.9234   -0.9540 H   0  0  0  0  0  0  0  0  0  0  0  0
    4.8073   -1.1632   -1.5698 H   0  0  0  0  0  0  0  0  0  0  0  0
    2.6538   -0.3865   -1.5006 H   0  0  0  0  0  0  0  0  0  0  0  0
    0.6331    0.5073   -2.3112 H   0  0  0  0  0  0  0  0  0  0  0  0
    0.2340   -0.2963   -0.7750 H   0  0  0  0  0  0  0  0  0  0  0  0
   -1.5608    1.2324   -1.6837 H   0  0  0  0  0  0  0  0  0  0  0  0
   -0.4735    2.6208   -1.4434 H   0  0  0  0  0  0  0  0  0  0  0  0
   -0.4191    2.1084    0.9514 H   0  0  0  0  0  0  0  0  0  0  0  0
   -3.3810    0.5915    2.9092 H   0  0  0  0  0  0  0  0  0  0  0  0
   -4.7254   -1.4358    3.0389 H   0  0  0  0  0  0  0  0  0  0  0  0
   -4.0563    0.8003   -1.3430 H   0  0  0  0  0  0  0  0  0  0  0  0
   -6.4243   -3.9948   -2.8699 H   0  0  0  0  0  0  0  0  0  0  0  0
   -8.0158   -3.3778   -2.3721 H   0  0  0  0  0  0  0  0  0  0  0  0
   -6.9713   -2.3889   -3.4165 H   0  0  0  0  0  0  0  0  0  0  0  0
   -5.1834   -3.7082    2.6072 H   0  0  0  0  0  0  0  0  0  0  0  0
   -6.7603   -4.3113    2.0879 H   0  0  0  0  0  0  0  0  0  0  0  0
   -6.6736   -2.7466    2.9035 H   0  0  0  0  0  0  0  0  0  0  0  0
    3.9169    2.4754    0.5876 H   0  0  0  0  0  0  0  0  0  0  0  0
    6.2394    2.6966    1.1845 H   0  0  0  0  0  0  0  0  0  0  0  0
  1  2  1  0
  2  3  1  0
  3  4  1  0
  4  5  2  0
  5  6  1  0
  6  7  2  0
  7  8  1  0
  8  9  1  0
  9 10  2  0
  9 11  1  0
 11 12  1  0
 12 13  1  0
 13 14  1  0
 14 15  2  0
 14 16  2  0
 14 17  1  0
 17 18  2  0
 18 19  1  0
 19 20  2  0
 20 21  1  0
 21 22  2  0
 21 23  1  0
 23 24  2  0
 23 25  1  0
 25 26  1  0
 25 27  1  0
 27 28  2  0
 27 29  1  0
 29 30  1  0
  7 31  1  0
 31 32  2  0
 32  4  1  0
 22 17  1  0
 29 20  1  0
  1 33  1  0
  1 34  1  0
  1 35  1  0
  2 36  1  0
  2 37  1  0
  5 38  1  0
  6 39  1  0
  8 40  1  0
 11 41  1  0
 11 42  1  0
 12 43  1  0
 12 44  1  0
 13 45  1  0
 18 46  1  0
 19 47  1  0
 22 48  1  0
 26 49  1  0
 26 50  1  0
 26 51  1  0
 30 52  1  0
 30 53  1  0
 30 54  1  0
 31 55  1  0
 32 56  1  0
M  END
$$$$
