
     RDKit          3D

 16 16  0  0  0  0  0  0  0  0999 V2000
    2.0634   -0.2772   -0.7314 C   0  0  0  0  0  0  0  0  0  0  0  0
    1.3425    0.3322    0.4605 C   0  0  0  0  0  0  0  0  0  0  0  0
   -0.0933    0.1847    0.3477 N   0  0  0  0  0  0  0  0  0  0  0  0
   -0.9104    1.0539   -0.2973 C   0  0  0  0  0  0  0  0  0  0  0  0
   -0.6330    2.0990   -0.8558 O   0  0  0  0  0  0  0  0  0  0  0  0
   -2.2674    0.5004   -0.2291 C   0  0  0  0  0  0  0  0  0  0  0  0
   -2.1977   -0.6678    0.4103 C   0  0  0  0  0  0  0  0  0  0  0  0
   -0.7940   -0.8967    0.7704 C   0  0  0  0  0  0  0  0  0  0  0  0
   -0.3943   -1.8992    1.3328 O   0  0  0  0  0  0  0  0  0  0  0  0
    1.7533    0.2024   -1.6657 H   0  0  0  0  0  0  0  0  0  0  0  0
    3.1455   -0.1547   -0.6256 H   0  0  0  0  0  0  0  0  0  0  0  0
    1.8458   -1.3469   -0.8176 H   0  0  0  0  0  0  0  0  0  0  0  0
    1.5826    1.3988    0.5279 H   0  0  0  0  0  0  0  0  0  0  0  0
    1.6756   -0.1595    1.3808 H   0  0  0  0  0  0  0  0  0  0  0  0
   -3.1293    0.9894   -0.6466 H   0  0  0  0  0  0  0  0  0  0  0  0
   -2.9891   -1.3589    0.6389 H   0  0  0  0  0  0  0  0  0  0  0  0
  1  2  1  0
  2  3  1  0
  3  4  1  0
  4  5  2  0
  4  6  1  0
  6  7  2  0
  7  8  1  0
  8  9  2  0
  8  3  1  0
  1 10  1  0
  1 11  1  0
  1 12  1  0
  2 13  1  0
  2 14  1  0
  6 15  1  0
  7 16  1  0
M  END
$$$$
