
     RDKit          3D

 58 62  0  0  0  0  0  0  0  0999 V2000
    8.5878    1.9502   -0.0258 C   0  0  0  0  0  0  0  0  0  0  0  0
    7.6597    1.8541    1.0444 O   0  0  0  0  0  0  0  0  0  0  0  0
    6.3356    1.6790    0.7274 C   0  0  0  0  0  0  0  0  0  0  0  0
    5.8424    1.5737   -0.5760 C   0  0  0  0  0  0  0  0  0  0  0  0
    4.4731    1.3980   -0.8028 C   0  0  0  0  0  0  0  0  0  0  0  0
    3.5723    1.3256    0.2666 C   0  0  0  0  0  0  0  0  0  0  0  0
    2.1372    1.1523    0.0577 C   0  0  0  0  0  0  0  0  0  0  0  0
    1.1670    1.0811    0.9502 N   0  0  0  0  0  0  0  0  0  0  0  0
    0.0193    0.9163    0.2004 C   0  0  0  0  0  0  0  0  0  0  0  0
   -1.3052    0.7963    0.8620 C   0  0  0  0  0  0  0  0  0  0  0  0
   -1.7533   -0.5864    0.8948 N   0  0  0  0  0  0  0  0  0  0  0  0
   -2.7833   -1.1562    0.1882 C   0  0  0  0  0  0  0  0  0  0  0  0
   -3.7467   -0.2945   -0.9650 S   0  0  0  0  0  0  0  0  0  0  0  0
   -4.9209   -1.5952   -1.4520 C   0  0  0  0  0  0  0  0  0  0  0  0
   -5.9052   -1.0838   -2.4753 C   0  0  0  0  0  0  0  0  0  0  0  0
   -5.6729   -1.2698   -3.8480 C   0  0  0  0  0  0  0  0  0  0  0  0
   -6.5785   -0.7851   -4.7962 C   0  0  0  0  0  0  0  0  0  0  0  0
   -7.7218   -0.1052   -4.3823 C   0  0  0  0  0  0  0  0  0  0  0  0
   -7.9494    0.0865   -3.0251 C   0  0  0  0  0  0  0  0  0  0  0  0
   -9.0435    0.7501   -2.6274 F   0  0  0  0  0  0  0  0  0  0  0  0
   -7.0566   -0.3925   -2.0720 C   0  0  0  0  0  0  0  0  0  0  0  0
   -2.9527   -2.4207    0.4959 N   0  0  0  0  0  0  0  0  0  0  0  0
   -2.0072   -2.6914    1.4521 C   0  0  0  0  0  0  0  0  0  0  0  0
   -1.7521   -3.8810    2.1328 C   0  0  0  0  0  0  0  0  0  0  0  0
   -0.7225   -3.8343    3.0577 C   0  0  0  0  0  0  0  0  0  0  0  0
    0.0273   -2.7405    3.3268 N   0  0  0  0  0  0  0  0  0  0  0  0
   -0.2155   -1.5874    2.6595 C   0  0  0  0  0  0  0  0  0  0  0  0
   -1.2412   -1.5645    1.7247 C   0  0  0  0  0  0  0  0  0  0  0  0
    0.3493    0.9095   -1.1393 C   0  0  0  0  0  0  0  0  0  0  0  0
   -0.4012    0.7801   -2.4001 C   0  0  0  0  0  0  0  0  0  0  0  0
    1.7042    1.0561   -1.2384 O   0  0  0  0  0  0  0  0  0  0  0  0
    4.0728    1.4286    1.5744 C   0  0  0  0  0  0  0  0  0  0  0  0
    5.4421    1.6024    1.8142 C   0  0  0  0  0  0  0  0  0  0  0  0
    6.0017    1.7146    3.0634 O   0  0  0  0  0  0  0  0  0  0  0  0
    5.1435    1.5716    4.1858 C   0  0  0  0  0  0  0  0  0  0  0  0
    9.5832    2.0914    0.4063 H   0  0  0  0  0  0  0  0  0  0  0  0
    8.6098    1.0270   -0.6142 H   0  0  0  0  0  0  0  0  0  0  0  0
    8.3739    2.8184   -0.6579 H   0  0  0  0  0  0  0  0  0  0  0  0
    6.4961    1.6244   -1.4405 H   0  0  0  0  0  0  0  0  0  0  0  0
    4.1192    1.3196   -1.8290 H   0  0  0  0  0  0  0  0  0  0  0  0
   -2.0474    1.4226    0.3617 H   0  0  0  0  0  0  0  0  0  0  0  0
   -1.2521    1.1404    1.9016 H   0  0  0  0  0  0  0  0  0  0  0  0
   -5.4658   -1.9537   -0.5709 H   0  0  0  0  0  0  0  0  0  0  0  0
   -4.3712   -2.4495   -1.8634 H   0  0  0  0  0  0  0  0  0  0  0  0
   -4.7813   -1.7934   -4.1868 H   0  0  0  0  0  0  0  0  0  0  0  0
   -6.3890   -0.9356   -5.8555 H   0  0  0  0  0  0  0  0  0  0  0  0
   -8.4332    0.2785   -5.1062 H   0  0  0  0  0  0  0  0  0  0  0  0
   -7.2664   -0.2182   -1.0198 H   0  0  0  0  0  0  0  0  0  0  0  0
   -2.3258   -4.7784    1.9506 H   0  0  0  0  0  0  0  0  0  0  0  0
   -0.4607   -4.7178    3.6342 H   0  0  0  0  0  0  0  0  0  0  0  0
    0.4140   -0.7381    2.8954 H   0  0  0  0  0  0  0  0  0  0  0  0
   -1.2796    1.4324   -2.3951 H   0  0  0  0  0  0  0  0  0  0  0  0
   -0.7333   -0.2521   -2.5418 H   0  0  0  0  0  0  0  0  0  0  0  0
    0.2171    1.0582   -3.2594 H   0  0  0  0  0  0  0  0  0  0  0  0
    3.3648    1.3727    2.3966 H   0  0  0  0  0  0  0  0  0  0  0  0
    5.7576    1.6491    5.0882 H   0  0  0  0  0  0  0  0  0  0  0  0
    4.4025    2.3767    4.2190 H   0  0  0  0  0  0  0  0  0  0  0  0
    4.6623    0.5881    4.1956 H   0  0  0  0  0  0  0  0  0  0  0  0
  1  2  1  0
  2  3  1  0
  3  4  2  0
  4  5  1  0
  5  6  2  0
  6  7  1  0
  7  8  2  0
  8  9  1  0
  9 10  1  0
 10 11  1  0
 11 12  1  0
 12 13  1  0
 13 14  1  0
 14 15  1  0
 15 16  2  0
 16 17  1  0
 17 18  2  0
 18 19  1  0
 19 20  1  0
 19 21  2  0
 12 22  2  0
 22 23  1  0
 23 24  2  0
 24 25  1  0
 25 26  2  0
 26 27  1  0
 27 28  2  0
  9 29  2  0
 29 30  1  0
 29 31  1  0
  6 32  1  0
 32 33  2  0
 33 34  1  0
 34 35  1  0
 33  3  1  0
 31  7  1  0
 28 11  1  0
 21 15  1  0
 28 23  1  0
  1 36  1  0
  1 37  1  0
  1 38  1  0
  4 39  1  0
  5 40  1  0
 10 41  1  0
 10 42  1  0
 14 43  1  0
 14 44  1  0
 16 45  1  0
 17 46  1  0
 18 47  1  0
 21 48  1  0
 24 49  1  0
 25 50  1  0
 27 51  1  0
 30 52  1  0
 30 53  1  0
 30 54  1  0
 32 55  1  0
 35 56  1  0
 35 57  1  0
 35 58  1  0
M  END
$$$$
