
     RDKit          3D

 83 86  0  0  0  0  0  0  0  0999 V2000
   -7.0843   -6.7090    0.1396 C   0  0  0  0  0  0  0  0  0  0  0  0
   -5.6741   -6.8172    0.2743 O   0  0  0  0  0  0  0  0  0  0  0  0
   -4.9699   -5.6444    0.3405 C   0  0  0  0  0  0  0  0  0  0  0  0
   -5.5168   -4.3704    0.5272 C   0  0  0  0  0  0  0  0  0  0  0  0
   -4.6821   -3.2505    0.6045 C   0  0  0  0  0  0  0  0  0  0  0  0
   -3.2981   -3.3924    0.4687 C   0  0  0  0  0  0  0  0  0  0  0  0
   -2.4107   -2.2995    0.4690 N   0  0  0  0  0  0  0  0  0  0  0  0
   -2.6182   -1.0718    1.0802 C   0  0  0  0  0  0  0  0  0  0  0  0
   -3.5548   -0.8129    1.8333 O   0  0  0  0  0  0  0  0  0  0  0  0
   -1.6415   -0.1666    0.7032 N   0  0  0  0  0  0  0  0  0  0  0  0
   -1.4417    1.1051    1.2810 C   0  0  0  0  0  0  0  0  0  0  0  0
   -1.7122    1.3127    2.6383 C   0  0  0  0  0  0  0  0  0  0  0  0
   -1.5418    2.5688    3.2211 C   0  0  0  0  0  0  0  0  0  0  0  0
   -1.0964    3.6279    2.4336 C   0  0  0  0  0  0  0  0  0  0  0  0
   -0.8096    3.4392    1.0717 C   0  0  0  0  0  0  0  0  0  0  0  0
   -0.9371    2.1646    0.5000 C   0  0  0  0  0  0  0  0  0  0  0  0
   -0.7562    1.9927   -0.8527 O   0  0  0  0  0  0  0  0  0  0  0  0
    0.5427    1.4564   -1.2041 C   0  0  0  0  0  0  0  0  0  0  0  0
    0.2946    0.5347   -2.4348 C   0  0  0  0  0  0  0  0  0  0  0  0
   -0.1673   -0.8193   -2.0758 N   0  0  0  0  0  0  0  0  0  0  0  0
   -1.4491   -1.2295   -2.6296 C   0  0  0  0  0  0  0  0  0  0  0  0
    0.5646   -1.7258   -1.3076 C   0  0  0  0  0  0  0  0  0  0  0  0
    0.0255   -2.6941   -0.7743 O   0  0  0  0  0  0  0  0  0  0  0  0
    1.8919   -1.4001   -1.1700 N   0  0  0  0  0  0  0  0  0  0  0  0
    2.7709   -1.8515   -0.1689 C   0  0  0  0  0  0  0  0  0  0  0  0
    2.3341   -2.4491    1.0175 C   0  0  0  0  0  0  0  0  0  0  0  0
    3.2529   -2.8062    2.0123 C   0  0  0  0  0  0  0  0  0  0  0  0
    4.6157   -2.5743    1.8275 C   0  0  0  0  0  0  0  0  0  0  0  0
    5.6103   -2.8540    2.7333 O   0  0  0  0  0  0  0  0  0  0  0  0
    5.2150   -3.5318    3.9266 C   0  0  0  0  0  0  0  0  0  0  0  0
    5.0499   -1.9816    0.6401 C   0  0  0  0  0  0  0  0  0  0  0  0
    4.1376   -1.6165   -0.3496 C   0  0  0  0  0  0  0  0  0  0  0  0
    1.5540    2.5743   -1.5741 C   0  0  0  0  0  0  0  0  0  0  0  0
    2.9695    2.0106   -1.8148 C   0  0  0  0  0  0  0  0  0  0  0  0
    1.6656    3.6587   -0.4950 C   0  0  0  0  0  0  0  0  0  0  0  0
    0.6031    4.6673   -0.5824 N   0  0  0  0  0  0  0  0  0  0  0  0
    0.8769    5.9484   -1.2759 C   0  0  0  0  0  0  0  0  0  0  0  0
    1.4712    5.7737   -2.6782 C   0  0  0  0  0  0  0  0  0  0  0  0
    1.7093    6.9123   -0.4040 C   0  0  0  0  0  0  0  0  0  0  0  0
    3.0967    6.5571   -0.4039 O   0  0  0  0  0  0  0  0  0  0  0  0
   -0.4823    4.6634    0.2990 C   0  0  0  0  0  0  0  0  0  0  0  0
   -1.1520    5.6748    0.5328 O   0  0  0  0  0  0  0  0  0  0  0  0
   -2.7546   -4.6677    0.2646 C   0  0  0  0  0  0  0  0  0  0  0  0
   -3.5863   -5.7850    0.2167 C   0  0  0  0  0  0  0  0  0  0  0  0
   -7.5381   -6.2529    1.0265 H   0  0  0  0  0  0  0  0  0  0  0  0
   -7.4896   -7.7225    0.0518 H   0  0  0  0  0  0  0  0  0  0  0  0
   -7.3526   -6.1515   -0.7679 H   0  0  0  0  0  0  0  0  0  0  0  0
   -6.5842   -4.2053    0.6354 H   0  0  0  0  0  0  0  0  0  0  0  0
   -5.1362   -2.2774    0.7702 H   0  0  0  0  0  0  0  0  0  0  0  0
   -1.4262   -2.5180    0.2793 H   0  0  0  0  0  0  0  0  0  0  0  0
   -1.2988   -0.2968   -0.2434 H   0  0  0  0  0  0  0  0  0  0  0  0
   -2.0805    0.4980    3.2673 H   0  0  0  0  0  0  0  0  0  0  0  0
   -1.7671    2.7200    4.2723 H   0  0  0  0  0  0  0  0  0  0  0  0
   -1.0064    4.6208    2.8725 H   0  0  0  0  0  0  0  0  0  0  0  0
    0.9458    0.8783   -0.3653 H   0  0  0  0  0  0  0  0  0  0  0  0
   -0.4763    0.9903   -3.0674 H   0  0  0  0  0  0  0  0  0  0  0  0
    1.1708    0.4088   -3.0638 H   0  0  0  0  0  0  0  0  0  0  0  0
   -1.7418   -2.2274   -2.2923 H   0  0  0  0  0  0  0  0  0  0  0  0
   -1.3579   -1.2510   -3.7213 H   0  0  0  0  0  0  0  0  0  0  0  0
   -2.2174   -0.5105   -2.3368 H   0  0  0  0  0  0  0  0  0  0  0  0
    2.3143   -0.9995   -1.9921 H   0  0  0  0  0  0  0  0  0  0  0  0
    1.2836   -2.6336    1.2065 H   0  0  0  0  0  0  0  0  0  0  0  0
    2.8688   -3.2590    2.9192 H   0  0  0  0  0  0  0  0  0  0  0  0
    6.1021   -3.6310    4.5630 H   0  0  0  0  0  0  0  0  0  0  0  0
    4.8452   -4.5386    3.6996 H   0  0  0  0  0  0  0  0  0  0  0  0
    4.4631   -2.9519    4.4860 H   0  0  0  0  0  0  0  0  0  0  0  0
    6.1117   -1.8041    0.4862 H   0  0  0  0  0  0  0  0  0  0  0  0
    4.5172   -1.1385   -1.2504 H   0  0  0  0  0  0  0  0  0  0  0  0
    1.2145    3.0327   -2.5094 H   0  0  0  0  0  0  0  0  0  0  0  0
    3.6624    2.8112   -2.0901 H   0  0  0  0  0  0  0  0  0  0  0  0
    2.9938    1.2856   -2.6322 H   0  0  0  0  0  0  0  0  0  0  0  0
    3.3381    1.5171   -0.9093 H   0  0  0  0  0  0  0  0  0  0  0  0
    2.6254    4.1715   -0.5734 H   0  0  0  0  0  0  0  0  0  0  0  0
    1.6744    3.2011    0.5055 H   0  0  0  0  0  0  0  0  0  0  0  0
   -0.0957    6.4416   -1.4181 H   0  0  0  0  0  0  0  0  0  0  0  0
    0.7868    5.1855   -3.3016 H   0  0  0  0  0  0  0  0  0  0  0  0
    1.6028    6.7469   -3.1640 H   0  0  0  0  0  0  0  0  0  0  0  0
    2.4380    5.2619   -2.6747 H   0  0  0  0  0  0  0  0  0  0  0  0
    1.6312    7.9230   -0.8080 H   0  0  0  0  0  0  0  0  0  0  0  0
    1.3541    6.9262    0.6325 H   0  0  0  0  0  0  0  0  0  0  0  0
    3.5441    7.2129    0.1598 H   0  0  0  0  0  0  0  0  0  0  0  0
   -1.6804   -4.8100    0.1534 H   0  0  0  0  0  0  0  0  0  0  0  0
   -3.1543   -6.7754    0.0803 H   0  0  0  0  0  0  0  0  0  0  0  0
  1  2  1  0
  2  3  1  0
  3  4  2  0
  4  5  1  0
  5  6  2  0
  6  7  1  0
  7  8  1  0
  8  9  2  0
  8 10  1  0
 10 11  1  0
 11 12  2  0
 12 13  1  0
 13 14  2  0
 14 15  1  0
 15 16  2  0
 16 17  1  0
 17 18  1  0
 18 19  1  0
 19 20  1  0
 20 21  1  0
 20 22  1  0
 22 23  2  0
 22 24  1  0
 24 25  1  0
 25 26  2  0
 26 27  1  0
 27 28  2  0
 28 29  1  0
 29 30  1  0
 28 31  1  0
 31 32  2  0
 18 33  1  0
 33 34  1  0
 33 35  1  0
 35 36  1  0
 36 37  1  0
 37 38  1  0
 37 39  1  0
 39 40  1  0
 36 41  1  0
 41 42  2  0
  6 43  1  0
 43 44  2  0
 44  3  1  0
 16 11  1  0
 32 25  1  0
 41 15  1  0
  1 45  1  0
  1 46  1  0
  1 47  1  0
  4 48  1  0
  5 49  1  0
  7 50  1  0
 10 51  1  0
 12 52  1  0
 13 53  1  0
 14 54  1  0
 18 55  1  0
 19 56  1  0
 19 57  1  0
 21 58  1  0
 21 59  1  0
 21 60  1  0
 24 61  1  0
 26 62  1  0
 27 63  1  0
 30 64  1  0
 30 65  1  0
 30 66  1  0
 31 67  1  0
 32 68  1  0
 33 69  1  0
 34 70  1  0
 34 71  1  0
 34 72  1  0
 35 73  1  0
 35 74  1  0
 37 75  1  0
 38 76  1  0
 38 77  1  0
 38 78  1  0
 39 79  1  0
 39 80  1  0
 40 81  1  0
 43 82  1  0
 44 83  1  0
M  END
$$$$
