
     RDKit          3D

 54 57  0  0  0  0  0  0  0  0999 V2000
   -6.0229   -0.4163   -1.4466 C   0  0  0  0  0  0  0  0  0  0  0  0
   -5.5970    0.9232   -1.2333 O   0  0  0  0  0  0  0  0  0  0  0  0
   -4.2998    1.1213   -0.8451 C   0  0  0  0  0  0  0  0  0  0  0  0
   -3.3355    0.1136   -0.7171 C   0  0  0  0  0  0  0  0  0  0  0  0
   -2.0077    0.3913   -0.3156 C   0  0  0  0  0  0  0  0  0  0  0  0
   -1.0237   -0.7044   -0.1878 C   0  0  0  0  0  0  0  0  0  0  0  0
    0.3300   -0.5444   -0.4309 C   0  0  0  0  0  0  0  0  0  0  0  0
    1.1616   -1.6552   -0.2785 C   0  0  0  0  0  0  0  0  0  0  0  0
    2.6048   -1.4621   -0.5250 C   0  0  0  0  0  0  0  0  0  0  0  0
    3.0861   -1.9283   -1.5471 O   0  0  0  0  0  0  0  0  0  0  0  0
    3.2397   -0.7689    0.4860 N   0  0  0  0  0  0  0  0  0  0  0  0
    4.6077   -0.4383    0.5643 C   0  0  0  0  0  0  0  0  0  0  0  0
    5.5312   -0.6993   -0.4501 C   0  0  0  0  0  0  0  0  0  0  0  0
    6.8802   -0.3589   -0.2899 C   0  0  0  0  0  0  0  0  0  0  0  0
    7.2993    0.2543    0.8840 C   0  0  0  0  0  0  0  0  0  0  0  0
    8.6005    0.6062    1.0785 O   0  0  0  0  0  0  0  0  0  0  0  0
    6.3930    0.5350    1.8975 C   0  0  0  0  0  0  0  0  0  0  0  0
    5.0478    0.1954    1.7353 C   0  0  0  0  0  0  0  0  0  0  0  0
    0.6550   -2.9133    0.1024 C   0  0  0  0  0  0  0  0  0  0  0  0
    1.4363   -4.0829    0.2733 C   0  0  0  0  0  0  0  0  0  0  0  0
    0.8495   -5.2820    0.6699 C   0  0  0  0  0  0  0  0  0  0  0  0
   -0.5196   -5.3317    0.8937 C   0  0  0  0  0  0  0  0  0  0  0  0
   -1.2908   -4.1810    0.7196 C   0  0  0  0  0  0  0  0  0  0  0  0
   -0.7300   -2.9725    0.3281 C   0  0  0  0  0  0  0  0  0  0  0  0
   -1.5362   -1.9054    0.1885 N   0  0  0  0  0  0  0  0  0  0  0  0
   -1.6779    1.7266   -0.0275 C   0  0  0  0  0  0  0  0  0  0  0  0
   -2.6377    2.7339   -0.1281 C   0  0  0  0  0  0  0  0  0  0  0  0
   -2.2598    4.0229    0.1481 O   0  0  0  0  0  0  0  0  0  0  0  0
   -2.6021    4.3561    1.4952 C   0  0  0  0  0  0  0  0  0  0  0  0
   -3.9316    2.4423   -0.5661 C   0  0  0  0  0  0  0  0  0  0  0  0
   -4.8590    3.4548   -0.6416 O   0  0  0  0  0  0  0  0  0  0  0  0
   -4.8848    3.9851   -1.9654 C   0  0  0  0  0  0  0  0  0  0  0  0
   -5.9108   -1.0227   -0.5402 H   0  0  0  0  0  0  0  0  0  0  0  0
   -5.4956   -0.8675   -2.2919 H   0  0  0  0  0  0  0  0  0  0  0  0
   -7.0879   -0.3862   -1.6995 H   0  0  0  0  0  0  0  0  0  0  0  0
   -3.5911   -0.9212   -0.9296 H   0  0  0  0  0  0  0  0  0  0  0  0
    0.7397    0.4050   -0.7614 H   0  0  0  0  0  0  0  0  0  0  0  0
    2.6776   -0.5137    1.2906 H   0  0  0  0  0  0  0  0  0  0  0  0
    5.2361   -1.1735   -1.3805 H   0  0  0  0  0  0  0  0  0  0  0  0
    7.5788   -0.5831   -1.0922 H   0  0  0  0  0  0  0  0  0  0  0  0
    9.0994    0.4068    0.2695 H   0  0  0  0  0  0  0  0  0  0  0  0
    6.7287    1.0107    2.8127 H   0  0  0  0  0  0  0  0  0  0  0  0
    4.3568    0.4210    2.5436 H   0  0  0  0  0  0  0  0  0  0  0  0
    2.5100   -4.0645    0.0895 H   0  0  0  0  0  0  0  0  0  0  0  0
    1.4581   -6.1725    0.7967 H   0  0  0  0  0  0  0  0  0  0  0  0
   -0.9927   -6.2590    1.2022 H   0  0  0  0  0  0  0  0  0  0  0  0
   -2.3630   -4.2280    0.8982 H   0  0  0  0  0  0  0  0  0  0  0  0
   -0.6791    2.0010    0.3012 H   0  0  0  0  0  0  0  0  0  0  0  0
   -1.8309    3.9792    2.1733 H   0  0  0  0  0  0  0  0  0  0  0  0
   -3.5821    3.9738    1.7972 H   0  0  0  0  0  0  0  0  0  0  0  0
   -2.6304    5.4477    1.5768 H   0  0  0  0  0  0  0  0  0  0  0  0
   -3.9002    4.3557   -2.2683 H   0  0  0  0  0  0  0  0  0  0  0  0
   -5.2476    3.2436   -2.6839 H   0  0  0  0  0  0  0  0  0  0  0  0
   -5.5800    4.8297   -1.9729 H   0  0  0  0  0  0  0  0  0  0  0  0
  1  2  1  0
  2  3  1  0
  3  4  2  0
  4  5  1  0
  5  6  1  0
  6  7  2  0
  7  8  1  0
  8  9  1  0
  9 10  2  0
  9 11  1  0
 11 12  1  0
 12 13  2  0
 13 14  1  0
 14 15  2  0
 15 16  1  0
 15 17  1  0
 17 18  2  0
  8 19  2  0
 19 20  1  0
 20 21  2  0
 21 22  1  0
 22 23  2  0
 23 24  1  0
 24 25  2  0
  5 26  2  0
 26 27  1  0
 27 28  1  0
 28 29  1  0
 27 30  2  0
 30 31  1  0
 31 32  1  0
 30  3  1  0
 25  6  1  0
 18 12  1  0
 24 19  1  0
  1 33  1  0
  1 34  1  0
  1 35  1  0
  4 36  1  0
  7 37  1  0
 11 38  1  0
 13 39  1  0
 14 40  1  0
 16 41  1  0
 17 42  1  0
 18 43  1  0
 20 44  1  0
 21 45  1  0
 22 46  1  0
 23 47  1  0
 26 48  1  0
 29 49  1  0
 29 50  1  0
 29 51  1  0
 32 52  1  0
 32 53  1  0
 32 54  1  0
M  END
$$$$
