
     RDKit          3D

 53 56  0  0  0  0  0  0  0  0999 V2000
    6.6419    3.5474   -1.2844 C   0  0  0  0  0  0  0  0  0  0  0  0
    6.8147    2.5253   -0.3097 O   0  0  0  0  0  0  0  0  0  0  0  0
    5.8464    1.5605   -0.2560 C   0  0  0  0  0  0  0  0  0  0  0  0
    5.9905    0.6418    0.7853 C   0  0  0  0  0  0  0  0  0  0  0  0
    5.0713   -0.3960    0.9611 C   0  0  0  0  0  0  0  0  0  0  0  0
    3.9913   -0.5343    0.0855 C   0  0  0  0  0  0  0  0  0  0  0  0
    3.0225   -1.5564    0.1706 N   0  0  0  0  0  0  0  0  0  0  0  0
    2.8337   -2.4695    1.1949 C   0  0  0  0  0  0  0  0  0  0  0  0
    3.4807   -2.5280    2.2383 O   0  0  0  0  0  0  0  0  0  0  0  0
    1.7044   -3.4595    0.9268 C   0  0  0  0  0  0  0  0  0  0  0  0
    0.0778   -2.7408    1.3344 S   0  0  0  0  0  0  0  0  0  0  0  0
   -0.2718   -1.8363   -0.1049 C   0  0  0  0  0  0  0  0  0  0  0  0
    0.5603   -1.7275   -1.1155 N   0  0  0  0  0  0  0  0  0  0  0  0
   -0.0686   -1.0426   -2.1100 N   0  0  0  0  0  0  0  0  0  0  0  0
   -1.2888   -0.7306   -1.6987 C   0  0  0  0  0  0  0  0  0  0  0  0
   -2.2443    0.1279   -2.4734 C   0  0  0  0  0  0  0  0  0  0  0  0
   -2.5355    1.4587   -1.8266 C   0  0  0  0  0  0  0  0  0  0  0  0
   -3.6969    1.8701   -1.1947 C   0  0  0  0  0  0  0  0  0  0  0  0
   -3.6173    3.2150   -0.7223 C   0  0  0  0  0  0  0  0  0  0  0  0
   -2.4041    3.7956   -1.0236 C   0  0  0  0  0  0  0  0  0  0  0  0
   -1.3639    2.7159   -1.8538 S   0  0  0  0  0  0  0  0  0  0  0  0
   -1.4918   -1.2587   -0.4252 N   0  0  0  0  0  0  0  0  0  0  0  0
   -2.6881   -1.2355    0.3385 C   0  0  0  0  0  0  0  0  0  0  0  0
   -2.6567   -0.8556    1.6845 C   0  0  0  0  0  0  0  0  0  0  0  0
   -3.8453   -0.8100    2.4218 C   0  0  0  0  0  0  0  0  0  0  0  0
   -5.0691   -1.1406    1.8280 C   0  0  0  0  0  0  0  0  0  0  0  0
   -6.3345   -1.1125    2.6368 C   0  0  0  0  0  0  0  0  0  0  0  0
   -5.0866   -1.5544    0.4907 C   0  0  0  0  0  0  0  0  0  0  0  0
   -3.9054   -1.5979   -0.2556 C   0  0  0  0  0  0  0  0  0  0  0  0
    3.8527    0.3805   -0.9653 C   0  0  0  0  0  0  0  0  0  0  0  0
    4.7697    1.4253   -1.1330 C   0  0  0  0  0  0  0  0  0  0  0  0
    6.6660    3.1288   -2.3002 H   0  0  0  0  0  0  0  0  0  0  0  0
    5.7134    4.1061   -1.1106 H   0  0  0  0  0  0  0  0  0  0  0  0
    7.4788    4.2462   -1.1892 H   0  0  0  0  0  0  0  0  0  0  0  0
    6.8273    0.7350    1.4747 H   0  0  0  0  0  0  0  0  0  0  0  0
    5.2316   -1.0850    1.7845 H   0  0  0  0  0  0  0  0  0  0  0  0
    2.2992   -1.5413   -0.5576 H   0  0  0  0  0  0  0  0  0  0  0  0
    1.8656   -4.3335    1.5676 H   0  0  0  0  0  0  0  0  0  0  0  0
    1.7414   -3.8214   -0.1036 H   0  0  0  0  0  0  0  0  0  0  0  0
   -3.1806   -0.4148   -2.6663 H   0  0  0  0  0  0  0  0  0  0  0  0
   -1.8162    0.3082   -3.4695 H   0  0  0  0  0  0  0  0  0  0  0  0
   -4.5691    1.2378   -1.0713 H   0  0  0  0  0  0  0  0  0  0  0  0
   -4.4130    3.7336   -0.1967 H   0  0  0  0  0  0  0  0  0  0  0  0
   -2.0767    4.8050   -0.7966 H   0  0  0  0  0  0  0  0  0  0  0  0
   -1.7310   -0.5591    2.1734 H   0  0  0  0  0  0  0  0  0  0  0  0
   -3.8077   -0.5057    3.4679 H   0  0  0  0  0  0  0  0  0  0  0  0
   -6.3195   -0.2786    3.3499 H   0  0  0  0  0  0  0  0  0  0  0  0
   -7.2100   -0.9774    1.9917 H   0  0  0  0  0  0  0  0  0  0  0  0
   -6.4478   -2.0495    3.1864 H   0  0  0  0  0  0  0  0  0  0  0  0
   -6.0190   -1.8545    0.0261 H   0  0  0  0  0  0  0  0  0  0  0  0
   -3.9536   -1.9627   -1.2780 H   0  0  0  0  0  0  0  0  0  0  0  0
    3.0191    0.2983   -1.6655 H   0  0  0  0  0  0  0  0  0  0  0  0
    4.6125    2.1072   -1.9612 H   0  0  0  0  0  0  0  0  0  0  0  0
  1  2  1  0
  2  3  1  0
  3  4  2  0
  4  5  1  0
  5  6  2  0
  6  7  1  0
  7  8  1  0
  8  9  2  0
  8 10  1  0
 10 11  1  0
 11 12  1  0
 12 13  2  0
 13 14  1  0
 14 15  2  0
 15 16  1  0
 16 17  1  0
 17 18  2  0
 18 19  1  0
 19 20  2  0
 20 21  1  0
 15 22  1  0
 22 23  1  0
 23 24  2  0
 24 25  1  0
 25 26  2  0
 26 27  1  0
 26 28  1  0
 28 29  2  0
  6 30  1  0
 30 31  2  0
 31  3  1  0
 22 12  1  0
 29 23  1  0
 21 17  1  0
  1 32  1  0
  1 33  1  0
  1 34  1  0
  4 35  1  0
  5 36  1  0
  7 37  1  0
 10 38  1  0
 10 39  1  0
 16 40  1  0
 16 41  1  0
 18 42  1  0
 19 43  1  0
 20 44  1  0
 24 45  1  0
 25 46  1  0
 27 47  1  0
 27 48  1  0
 27 49  1  0
 28 50  1  0
 29 51  1  0
 30 52  1  0
 31 53  1  0
M  END
$$$$
