
     RDKit          3D

 25 26  0  0  0  0  0  0  0  0999 V2000
   -1.8011    1.5293   -2.0889 O   0  0  0  0  0  0  0  0  0  0  0  0
   -1.7102    0.7952   -1.1127 C   0  0  0  0  0  0  0  0  0  0  0  0
   -0.5300    0.3757   -0.5755 O   0  0  0  0  0  0  0  0  0  0  0  0
    0.6203    0.8736   -1.2600 C   0  0  0  0  0  0  0  0  0  0  0  0
    1.8384    0.3308   -0.5594 C   0  0  0  0  0  0  0  0  0  0  0  0
    2.3878   -0.9018   -0.9398 C   0  0  0  0  0  0  0  0  0  0  0  0
    3.5042   -1.4136   -0.2764 C   0  0  0  0  0  0  0  0  0  0  0  0
    4.0763   -0.7037    0.7775 C   0  0  0  0  0  0  0  0  0  0  0  0
    3.5308    0.5163    1.1725 C   0  0  0  0  0  0  0  0  0  0  0  0
    2.4145    1.0302    0.5106 C   0  0  0  0  0  0  0  0  0  0  0  0
   -2.8068    0.2409   -0.3541 C   0  0  0  0  0  0  0  0  0  0  0  0
   -2.8539   -0.5897    0.7532 C   0  0  0  0  0  0  0  0  0  0  0  0
   -4.2225   -0.7969    1.0543 C   0  0  0  0  0  0  0  0  0  0  0  0
   -4.9320   -0.0835    0.1171 C   0  0  0  0  0  0  0  0  0  0  0  0
   -6.8286    0.0172    0.0178 Br  0  0  0  0  0  0  0  0  0  0  0  0
   -4.0861    0.5471   -0.7385 O   0  0  0  0  0  0  0  0  0  0  0  0
    0.6132    0.5452   -2.3068 H   0  0  0  0  0  0  0  0  0  0  0  0
    0.6329    1.9704   -1.2369 H   0  0  0  0  0  0  0  0  0  0  0  0
    1.9475   -1.4715   -1.7553 H   0  0  0  0  0  0  0  0  0  0  0  0
    3.9262   -2.3681   -0.5804 H   0  0  0  0  0  0  0  0  0  0  0  0
    4.9452   -1.1034    1.2939 H   0  0  0  0  0  0  0  0  0  0  0  0
    3.9736    1.0670    1.9985 H   0  0  0  0  0  0  0  0  0  0  0  0
    1.9951    1.9798    0.8358 H   0  0  0  0  0  0  0  0  0  0  0  0
   -1.9970   -0.9941    1.2761 H   0  0  0  0  0  0  0  0  0  0  0  0
   -4.6376   -1.3924    1.8554 H   0  0  0  0  0  0  0  0  0  0  0  0
  1  2  2  0
  2  3  1  0
  3  4  1  0
  4  5  1  0
  5  6  2  0
  6  7  1  0
  7  8  2  0
  8  9  1  0
  9 10  2  0
  2 11  1  0
 11 12  2  0
 12 13  1  0
 13 14  2  0
 14 15  1  0
 14 16  1  0
 10  5  1  0
 16 11  1  0
  4 17  1  0
  4 18  1  0
  6 19  1  0
  7 20  1  0
  8 21  1  0
  9 22  1  0
 10 23  1  0
 12 24  1  0
 13 25  1  0
M  END
$$$$
