
     RDKit          3D

 57 60  0  0  0  0  0  0  0  0999 V2000
   -8.5340    2.4822    1.9691 C   0  0  0  0  0  0  0  0  0  0  0  0
   -8.1908    1.0030    2.0564 C   0  0  0  0  0  0  0  0  0  0  0  0
   -6.8738    0.6934    1.3930 C   0  0  0  0  0  0  0  0  0  0  0  0
   -6.8163    0.3993    0.0286 C   0  0  0  0  0  0  0  0  0  0  0  0
   -5.5893    0.1285   -0.5873 C   0  0  0  0  0  0  0  0  0  0  0  0
   -4.3798    0.1506    0.1312 C   0  0  0  0  0  0  0  0  0  0  0  0
   -3.0954   -0.1333   -0.5462 C   0  0  0  0  0  0  0  0  0  0  0  0
   -1.8848    0.3899   -0.1278 C   0  0  0  0  0  0  0  0  0  0  0  0
   -0.7297    0.0458   -0.8317 C   0  0  0  0  0  0  0  0  0  0  0  0
    0.5429    0.5832   -0.2986 C   0  0  0  0  0  0  0  0  0  0  0  0
    0.6569    1.7967   -0.1949 O   0  0  0  0  0  0  0  0  0  0  0  0
    1.4500   -0.3900    0.0740 N   0  0  0  0  0  0  0  0  0  0  0  0
    2.7385   -0.1978    0.6118 C   0  0  0  0  0  0  0  0  0  0  0  0
    3.4830   -1.3476    0.9104 C   0  0  0  0  0  0  0  0  0  0  0  0
    4.7730   -1.2463    1.4383 C   0  0  0  0  0  0  0  0  0  0  0  0
    5.3282    0.0138    1.6608 C   0  0  0  0  0  0  0  0  0  0  0  0
    6.9540    0.1536    2.3550 S   0  0  0  0  0  6  0  0  0  0  0  0
    6.9970    1.3863    3.1149 O   0  0  0  0  0  0  0  0  0  0  0  0
    7.3253   -1.1033    2.9636 O   0  0  0  0  0  0  0  0  0  0  0  0
    7.9147    0.4259    1.0283 N   0  0  0  0  0  0  0  0  0  0  0  0
    8.1143   -0.4748   -0.0229 C   0  0  0  0  0  0  0  0  0  0  0  0
    9.0888    0.0056   -1.0608 C   0  0  0  0  0  0  0  0  0  0  0  0
    7.5349   -1.5466   -0.1142 O   0  0  0  0  0  0  0  0  0  0  0  0
    4.5922    1.1677    1.3861 C   0  0  0  0  0  0  0  0  0  0  0  0
    3.3019    1.0578    0.8558 C   0  0  0  0  0  0  0  0  0  0  0  0
   -0.7849   -0.7745   -1.9780 C   0  0  0  0  0  0  0  0  0  0  0  0
    0.3244   -1.1161   -2.7952 C   0  0  0  0  0  0  0  0  0  0  0  0
    0.1710   -1.9441   -3.9052 C   0  0  0  0  0  0  0  0  0  0  0  0
   -1.0875   -2.4342   -4.2209 C   0  0  0  0  0  0  0  0  0  0  0  0
   -2.1844   -2.0832   -3.4308 C   0  0  0  0  0  0  0  0  0  0  0  0
   -2.0592   -1.2574   -2.3216 C   0  0  0  0  0  0  0  0  0  0  0  0
   -3.1675   -0.9537   -1.6252 N   0  0  0  0  0  0  0  0  0  0  0  0
   -4.4582    0.4469    1.5040 C   0  0  0  0  0  0  0  0  0  0  0  0
   -5.6837    0.7186    2.1253 C   0  0  0  0  0  0  0  0  0  0  0  0
   -7.7698    3.0966    2.4573 H   0  0  0  0  0  0  0  0  0  0  0  0
   -9.4920    2.6779    2.4612 H   0  0  0  0  0  0  0  0  0  0  0  0
   -8.6144    2.8111    0.9274 H   0  0  0  0  0  0  0  0  0  0  0  0
   -8.1571    0.6930    3.1081 H   0  0  0  0  0  0  0  0  0  0  0  0
   -8.9864    0.4084    1.5908 H   0  0  0  0  0  0  0  0  0  0  0  0
   -7.7243    0.3782   -0.5694 H   0  0  0  0  0  0  0  0  0  0  0  0
   -5.5808   -0.0992   -1.6525 H   0  0  0  0  0  0  0  0  0  0  0  0
   -1.8190    1.0616    0.7221 H   0  0  0  0  0  0  0  0  0  0  0  0
    1.1556   -1.3540   -0.0356 H   0  0  0  0  0  0  0  0  0  0  0  0
    3.0740   -2.3398    0.7352 H   0  0  0  0  0  0  0  0  0  0  0  0
    5.3401   -2.1493    1.6582 H   0  0  0  0  0  0  0  0  0  0  0  0
    8.3689    1.3329    1.0456 H   0  0  0  0  0  0  0  0  0  0  0  0
    8.7030    0.9110   -1.5369 H   0  0  0  0  0  0  0  0  0  0  0  0
   10.0543    0.2168   -0.5930 H   0  0  0  0  0  0  0  0  0  0  0  0
    9.2270   -0.7667   -1.8227 H   0  0  0  0  0  0  0  0  0  0  0  0
    5.0050    2.1546    1.5832 H   0  0  0  0  0  0  0  0  0  0  0  0
    2.7587    1.9755    0.6505 H   0  0  0  0  0  0  0  0  0  0  0  0
    1.3171   -0.7220   -2.5849 H   0  0  0  0  0  0  0  0  0  0  0  0
    1.0286   -2.1965   -4.5239 H   0  0  0  0  0  0  0  0  0  0  0  0
   -1.2256   -3.0791   -5.0851 H   0  0  0  0  0  0  0  0  0  0  0  0
   -3.1707   -2.4615   -3.6926 H   0  0  0  0  0  0  0  0  0  0  0  0
   -3.5642    0.4579    2.1233 H   0  0  0  0  0  0  0  0  0  0  0  0
   -5.6994    0.9471    3.1889 H   0  0  0  0  0  0  0  0  0  0  0  0
  1  2  1  0
  2  3  1  0
  3  4  2  0
  4  5  1  0
  5  6  2  0
  6  7  1  0
  7  8  2  0
  8  9  1  0
  9 10  1  0
 10 11  2  0
 10 12  1  0
 12 13  1  0
 13 14  2  0
 14 15  1  0
 15 16  2  0
 16 17  1  0
 17 18  2  0
 17 19  2  0
 17 20  1  0
 20 21  1  0
 21 22  1  0
 21 23  2  0
 16 24  1  0
 24 25  2  0
  9 26  2  0
 26 27  1  0
 27 28  2  0
 28 29  1  0
 29 30  2  0
 30 31  1  0
 31 32  2  0
  6 33  1  0
 33 34  2  0
 34  3  1  0
 32  7  1  0
 25 13  1  0
 31 26  1  0
  1 35  1  0
  1 36  1  0
  1 37  1  0
  2 38  1  0
  2 39  1  0
  4 40  1  0
  5 41  1  0
  8 42  1  0
 12 43  1  0
 14 44  1  0
 15 45  1  0
 20 46  1  0
 22 47  1  0
 22 48  1  0
 22 49  1  0
 24 50  1  0
 25 51  1  0
 27 52  1  0
 28 53  1  0
 29 54  1  0
 30 55  1  0
 33 56  1  0
 34 57  1  0
M  END
$$$$
