
     RDKit          3D

 41 43  0  0  0  0  0  0  0  0999 V2000
   -3.9067    0.3113    2.8925 C   0  0  0  0  0  0  0  0  0  0  0  0
   -3.7125   -0.4109    1.5921 C   0  0  0  0  0  0  0  0  0  0  0  0
   -4.3089   -1.6547    1.3752 C   0  0  0  0  0  0  0  0  0  0  0  0
   -4.1605   -2.3094    0.1498 C   0  0  0  0  0  0  0  0  0  0  0  0
   -3.4201   -1.7347   -0.8961 C   0  0  0  0  0  0  0  0  0  0  0  0
   -3.3128   -2.4874   -2.1927 C   0  0  0  0  0  0  0  0  0  0  0  0
   -2.8090   -0.4872   -0.6707 C   0  0  0  0  0  0  0  0  0  0  0  0
   -1.7957    0.2925   -1.9195 S   0  0  0  0  0  6  0  0  0  0  0  0
   -1.0582   -0.7201   -2.6434 O   0  0  0  0  0  0  0  0  0  0  0  0
   -2.6515    1.2372   -2.6061 O   0  0  0  0  0  0  0  0  0  0  0  0
   -0.6934    1.2189   -1.0605 N   0  0  0  0  0  0  0  0  0  0  0  0
    0.4430    0.7071   -0.3700 C   0  0  0  0  0  0  0  0  0  0  0  0
    0.6072   -0.6335   -0.0230 C   0  0  0  0  0  0  0  0  0  0  0  0
    1.7203   -1.0382    0.7174 C   0  0  0  0  0  0  0  0  0  0  0  0
    2.6708   -0.1047    1.1208 C   0  0  0  0  0  0  0  0  0  0  0  0
    3.7292   -0.5979    1.8319 O   0  0  0  0  0  0  0  0  0  0  0  0
    2.5165    1.2506    0.8093 C   0  0  0  0  0  0  0  0  0  0  0  0
    3.6210    2.5365    1.3750 S   0  0  0  0  0  0  0  0  0  0  0  0
    5.1007    2.1276    0.5585 C   0  0  0  0  0  0  0  0  0  0  0  0
    5.7476    0.9368    0.7709 N   0  0  0  0  0  0  0  0  0  0  0  0
    6.8002    1.0350   -0.0082 C   0  0  0  0  0  0  0  0  0  0  0  0
    6.7839    2.2358   -0.6459 N   0  0  0  0  0  0  0  0  0  0  0  0
    5.7089    2.9576   -0.2918 N   0  0  0  0  0  0  0  0  0  0  0  0
    1.3880    1.6431    0.0713 C   0  0  0  0  0  0  0  0  0  0  0  0
   -2.9750    0.1758    0.5578 C   0  0  0  0  0  0  0  0  0  0  0  0
   -3.0307    0.9228    3.1333 H   0  0  0  0  0  0  0  0  0  0  0  0
   -4.0444   -0.3965    3.7167 H   0  0  0  0  0  0  0  0  0  0  0  0
   -4.7863    0.9596    2.8326 H   0  0  0  0  0  0  0  0  0  0  0  0
   -4.8998   -2.1249    2.1588 H   0  0  0  0  0  0  0  0  0  0  0  0
   -4.6402   -3.2776    0.0148 H   0  0  0  0  0  0  0  0  0  0  0  0
   -3.4815   -1.8245   -3.0469 H   0  0  0  0  0  0  0  0  0  0  0  0
   -4.0732   -3.2739   -2.2573 H   0  0  0  0  0  0  0  0  0  0  0  0
   -2.3328   -2.9664   -2.2748 H   0  0  0  0  0  0  0  0  0  0  0  0
   -0.7232    2.2040   -1.3167 H   0  0  0  0  0  0  0  0  0  0  0  0
   -0.1054   -1.3976   -0.3161 H   0  0  0  0  0  0  0  0  0  0  0  0
    1.8481   -2.0863    0.9766 H   0  0  0  0  0  0  0  0  0  0  0  0
    4.4918    0.0036    1.6963 H   0  0  0  0  0  0  0  0  0  0  0  0
    7.5793    0.2984   -0.1462 H   0  0  0  0  0  0  0  0  0  0  0  0
    7.4474    2.6204   -1.3098 H   0  0  0  0  0  0  0  0  0  0  0  0
    1.2472    2.6967   -0.1600 H   0  0  0  0  0  0  0  0  0  0  0  0
   -2.5294    1.1549    0.7182 H   0  0  0  0  0  0  0  0  0  0  0  0
  1  2  1  0
  2  3  2  0
  3  4  1  0
  4  5  2  0
  5  6  1  0
  5  7  1  0
  7  8  1  0
  8  9  2  0
  8 10  2  0
  8 11  1  0
 11 12  1  0
 12 13  2  0
 13 14  1  0
 14 15  2  0
 15 16  1  0
 15 17  1  0
 17 18  1  0
 18 19  1  0
 19 20  1  0
 20 21  2  0
 21 22  1  0
 22 23  1  0
 17 24  2  0
  7 25  2  0
 25  2  1  0
 24 12  1  0
 23 19  2  0
  1 26  1  0
  1 27  1  0
  1 28  1  0
  3 29  1  0
  4 30  1  0
  6 31  1  0
  6 32  1  0
  6 33  1  0
 11 34  1  0
 13 35  1  0
 14 36  1  0
 16 37  1  0
 21 38  1  0
 22 39  1  0
 24 40  1  0
 25 41  1  0
M  END
$$$$
