
     RDKit          3D

 69 73  0  0  0  0  0  0  0  0999 V2000
    2.1850   -4.7542    1.0030 C   0  0  0  0  0  0  0  0  0  0  0  0
    2.3415   -3.3600    1.2354 O   0  0  0  0  0  0  0  0  0  0  0  0
    2.8373   -2.6134    0.2017 C   0  0  0  0  0  0  0  0  0  0  0  0
    3.2536   -3.1007   -1.0369 C   0  0  0  0  0  0  0  0  0  0  0  0
    3.7455   -2.2315   -2.0175 C   0  0  0  0  0  0  0  0  0  0  0  0
    4.1153   -2.8442   -3.1850 O   0  0  0  0  0  0  0  0  0  0  0  0
    4.6505   -2.0132   -4.2078 C   0  0  0  0  0  0  0  0  0  0  0  0
    3.8185   -0.8631   -1.7538 C   0  0  0  0  0  0  0  0  0  0  0  0
    3.4061   -0.3583   -0.5115 C   0  0  0  0  0  0  0  0  0  0  0  0
    3.4619    1.0829   -0.2330 C   0  0  0  0  0  0  0  0  0  0  0  0
    4.9941    1.8431   -0.1801 S   0  0  0  0  0  0  0  0  0  0  0  0
    4.3223    3.3770    0.1969 C   0  0  0  0  0  0  0  0  0  0  0  0
    5.0257    4.5791    0.4044 C   0  0  0  0  0  0  0  0  0  0  0  0
    4.3135    5.7469    0.7012 C   0  0  0  0  0  0  0  0  0  0  0  0
    2.9284    5.7275    0.7889 C   0  0  0  0  0  0  0  0  0  0  0  0
    2.1244    6.7986    1.0684 O   0  0  0  0  0  0  0  0  0  0  0  0
    2.7674    8.0464    1.2952 C   0  0  0  0  0  0  0  0  0  0  0  0
    2.2417    4.5253    0.5801 C   0  0  0  0  0  0  0  0  0  0  0  0
    2.9313    3.3201    0.2831 C   0  0  0  0  0  0  0  0  0  0  0  0
    2.4400    1.9818    0.0346 C   0  0  0  0  0  0  0  0  0  0  0  0
    1.0394    1.5708    0.0515 C   0  0  0  0  0  0  0  0  0  0  0  0
    0.3283    1.5615    1.2545 C   0  0  0  0  0  0  0  0  0  0  0  0
   -1.0095    1.1602    1.2711 C   0  0  0  0  0  0  0  0  0  0  0  0
   -1.6514    0.7675    0.0937 C   0  0  0  0  0  0  0  0  0  0  0  0
   -2.9568    0.3954    0.2544 O   0  0  0  0  0  0  0  0  0  0  0  0
   -3.6516   -0.0682   -0.9062 C   0  0  0  0  0  0  0  0  0  0  0  0
   -5.0792   -0.4999   -0.5161 C   0  0  0  0  0  0  0  0  0  0  0  0
   -5.1793   -1.8822   -0.0058 N   0  0  0  0  0  0  0  0  0  0  0  0
   -4.3932   -2.0806    1.2259 C   0  0  0  0  0  0  0  0  0  0  0  0
   -4.8769   -3.2529    2.0933 C   0  0  0  0  0  0  0  0  0  0  0  0
   -5.5050   -4.3505    1.2484 C   0  0  0  0  0  0  0  0  0  0  0  0
   -6.6599   -3.8001    0.4092 C   0  0  0  0  0  0  0  0  0  0  0  0
   -6.5737   -2.2864    0.1791 C   0  0  0  0  0  0  0  0  0  0  0  0
   -0.9443    0.7862   -1.1087 C   0  0  0  0  0  0  0  0  0  0  0  0
    0.3963    1.1877   -1.1302 C   0  0  0  0  0  0  0  0  0  0  0  0
    2.9181   -1.2435    0.4579 C   0  0  0  0  0  0  0  0  0  0  0  0
    1.4895   -4.9425    0.1784 H   0  0  0  0  0  0  0  0  0  0  0  0
    1.7567   -5.1975    1.9071 H   0  0  0  0  0  0  0  0  0  0  0  0
    3.1524   -5.2345    0.8232 H   0  0  0  0  0  0  0  0  0  0  0  0
    3.2100   -4.1587   -1.2742 H   0  0  0  0  0  0  0  0  0  0  0  0
    5.5683   -1.5173   -3.8746 H   0  0  0  0  0  0  0  0  0  0  0  0
    4.9079   -2.6530   -5.0575 H   0  0  0  0  0  0  0  0  0  0  0  0
    3.9087   -1.2851   -4.5523 H   0  0  0  0  0  0  0  0  0  0  0  0
    4.1852   -0.1659   -2.5000 H   0  0  0  0  0  0  0  0  0  0  0  0
    6.1099    4.6022    0.3356 H   0  0  0  0  0  0  0  0  0  0  0  0
    4.8831    6.6574    0.8564 H   0  0  0  0  0  0  0  0  0  0  0  0
    1.9916    8.7889    1.5054 H   0  0  0  0  0  0  0  0  0  0  0  0
    3.3124    8.3771    0.4049 H   0  0  0  0  0  0  0  0  0  0  0  0
    3.4270    7.9979    2.1680 H   0  0  0  0  0  0  0  0  0  0  0  0
    1.1557    4.5195    0.6460 H   0  0  0  0  0  0  0  0  0  0  0  0
    0.8091    1.8559    2.1842 H   0  0  0  0  0  0  0  0  0  0  0  0
   -1.5555    1.1488    2.2113 H   0  0  0  0  0  0  0  0  0  0  0  0
   -3.7294    0.7574   -1.6245 H   0  0  0  0  0  0  0  0  0  0  0  0
   -3.1229   -0.9077   -1.3746 H   0  0  0  0  0  0  0  0  0  0  0  0
   -5.6845   -0.4386   -1.4293 H   0  0  0  0  0  0  0  0  0  0  0  0
   -5.5006    0.2064    0.2105 H   0  0  0  0  0  0  0  0  0  0  0  0
   -4.4041   -1.1832    1.8576 H   0  0  0  0  0  0  0  0  0  0  0  0
   -3.3509   -2.2661    0.9406 H   0  0  0  0  0  0  0  0  0  0  0  0
   -5.6189   -2.8906    2.8164 H   0  0  0  0  0  0  0  0  0  0  0  0
   -4.0386   -3.6545    2.6736 H   0  0  0  0  0  0  0  0  0  0  0  0
   -5.8587   -5.1715    1.8818 H   0  0  0  0  0  0  0  0  0  0  0  0
   -4.7421   -4.7737    0.5829 H   0  0  0  0  0  0  0  0  0  0  0  0
   -7.6131   -4.0245    0.9030 H   0  0  0  0  0  0  0  0  0  0  0  0
   -6.6771   -4.3269   -0.5529 H   0  0  0  0  0  0  0  0  0  0  0  0
   -7.1727   -2.0491   -0.7087 H   0  0  0  0  0  0  0  0  0  0  0  0
   -7.0278   -1.7456    1.0199 H   0  0  0  0  0  0  0  0  0  0  0  0
   -1.4016    0.4934   -2.0475 H   0  0  0  0  0  0  0  0  0  0  0  0
    0.9332    1.1953   -2.0759 H   0  0  0  0  0  0  0  0  0  0  0  0
    2.5926   -0.8685    1.4259 H   0  0  0  0  0  0  0  0  0  0  0  0
  1  2  1  0
  2  3  1  0
  3  4  2  0
  4  5  1  0
  5  6  1  0
  6  7  1  0
  5  8  2  0
  8  9  1  0
  9 10  1  0
 10 11  1  0
 11 12  1  0
 12 13  2  0
 13 14  1  0
 14 15  2  0
 15 16  1  0
 16 17  1  0
 15 18  1  0
 18 19  2  0
 19 20  1  0
 20 21  1  0
 21 22  2  0
 22 23  1  0
 23 24  2  0
 24 25  1  0
 25 26  1  0
 26 27  1  0
 27 28  1  0
 28 29  1  0
 29 30  1  0
 30 31  1  0
 31 32  1  0
 32 33  1  0
 24 34  1  0
 34 35  2  0
  9 36  2  0
 36  3  1  0
 20 10  2  0
 35 21  1  0
 19 12  1  0
 33 28  1  0
  1 37  1  0
  1 38  1  0
  1 39  1  0
  4 40  1  0
  7 41  1  0
  7 42  1  0
  7 43  1  0
  8 44  1  0
 13 45  1  0
 14 46  1  0
 17 47  1  0
 17 48  1  0
 17 49  1  0
 18 50  1  0
 22 51  1  0
 23 52  1  0
 26 53  1  0
 26 54  1  0
 27 55  1  0
 27 56  1  0
 29 57  1  0
 29 58  1  0
 30 59  1  0
 30 60  1  0
 31 61  1  0
 31 62  1  0
 32 63  1  0
 32 64  1  0
 33 65  1  0
 33 66  1  0
 34 67  1  0
 35 68  1  0
 36 69  1  0
M  END
$$$$
