
     RDKit          3D

 36 37  0  0  0  0  0  0  0  0999 V2000
   -0.3618    2.6225    0.8787 O   0  0  0  0  0  0  0  0  0  0  0  0
   -0.7260    1.7007    1.6055 C   0  0  0  0  0  0  0  0  0  0  0  0
    0.2058    1.0475    2.6285 C   0  0  0  0  0  0  0  0  0  0  0  0
    1.4983    0.7860    2.0675 O   0  0  0  0  0  0  0  0  0  0  0  0
    1.4905   -0.0624    1.0082 C   0  0  0  0  0  0  0  0  0  0  0  0
    0.5112   -0.6641    0.5811 O   0  0  0  0  0  0  0  0  0  0  0  0
    2.8473   -0.1718    0.4198 C   0  0  0  0  0  0  0  0  0  0  0  0
    3.1317   -1.2738   -0.3974 C   0  0  0  0  0  0  0  0  0  0  0  0
    4.3855   -1.4005   -0.9996 C   0  0  0  0  0  0  0  0  0  0  0  0
    5.3585   -0.4240   -0.7914 C   0  0  0  0  0  0  0  0  0  0  0  0
    5.0722    0.6736    0.0213 C   0  0  0  0  0  0  0  0  0  0  0  0
    6.2651    1.8839    0.2667 Cl  0  0  0  0  0  0  0  0  0  0  0  0
    3.8276    0.8055    0.6359 C   0  0  0  0  0  0  0  0  0  0  0  0
   -1.9784    1.1269    1.5013 N   0  0  0  0  0  0  0  0  0  0  0  0
   -2.8529    1.4880    0.4014 C   0  0  0  0  0  0  0  0  0  0  0  0
   -2.4523    0.7797   -0.9085 C   0  0  0  0  0  0  0  0  0  0  0  0
   -3.1558   -0.4798   -1.1053 N   0  0  0  0  0  0  0  0  0  0  0  0
   -2.8408   -1.7032   -0.5538 C   0  0  0  0  0  0  0  0  0  0  0  0
   -1.7669   -1.8895    0.2655 O   0  0  0  0  0  0  0  0  0  0  0  0
   -3.6802   -2.6931   -0.8833 C   0  0  0  0  0  0  0  0  0  0  0  0
   -4.9461   -2.1410   -1.9354 S   0  0  0  0  0  0  0  0  0  0  0  0
   -4.3298   -0.4805   -1.8602 C   0  0  0  0  0  0  0  0  0  0  0  0
   -4.9086    0.4643   -2.3771 O   0  0  0  0  0  0  0  0  0  0  0  0
    0.3444    1.7473    3.4575 H   0  0  0  0  0  0  0  0  0  0  0  0
   -0.2248    0.1229    3.0354 H   0  0  0  0  0  0  0  0  0  0  0  0
    2.3794   -2.0451   -0.5611 H   0  0  0  0  0  0  0  0  0  0  0  0
    4.6078   -2.2548   -1.6334 H   0  0  0  0  0  0  0  0  0  0  0  0
    6.3313   -0.5222   -1.2649 H   0  0  0  0  0  0  0  0  0  0  0  0
    3.6193    1.6763    1.2575 H   0  0  0  0  0  0  0  0  0  0  0  0
   -2.1720    0.2667    1.9952 H   0  0  0  0  0  0  0  0  0  0  0  0
   -3.8805    1.2419    0.6961 H   0  0  0  0  0  0  0  0  0  0  0  0
   -2.7890    2.5752    0.2689 H   0  0  0  0  0  0  0  0  0  0  0  0
   -1.3734    0.6123   -1.0008 H   0  0  0  0  0  0  0  0  0  0  0  0
   -2.7236    1.4421   -1.7393 H   0  0  0  0  0  0  0  0  0  0  0  0
   -1.1326   -1.1428    0.1586 H   0  0  0  0  0  0  0  0  0  0  0  0
   -3.5804   -3.7145   -0.5487 H   0  0  0  0  0  0  0  0  0  0  0  0
  1  2  2  0
  2  3  1  0
  3  4  1  0
  4  5  1  0
  5  6  2  0
  5  7  1  0
  7  8  2  0
  8  9  1  0
  9 10  2  0
 10 11  1  0
 11 12  1  0
 11 13  2  0
  2 14  1  0
 14 15  1  0
 15 16  1  0
 16 17  1  0
 17 18  1  0
 18 19  1  0
 18 20  2  0
 20 21  1  0
 21 22  1  0
 22 23  2  0
 13  7  1  0
 22 17  1  0
  3 24  1  0
  3 25  1  0
  8 26  1  0
  9 27  1  0
 10 28  1  0
 13 29  1  0
 14 30  1  0
 15 31  1  0
 15 32  1  0
 16 33  1  0
 16 34  1  0
 19 35  1  0
 20 36  1  0
M  END
$$$$
