
     RDKit          3D

 49 52  0  0  0  0  0  0  0  0999 V2000
   -5.6797    1.0780    2.7044 C   0  0  0  0  0  0  0  0  0  0  0  0
   -4.3364    1.1577    2.0377 C   0  0  0  0  0  0  0  0  0  0  0  0
   -4.0835    2.1588    1.0919 C   0  0  0  0  0  0  0  0  0  0  0  0
   -2.8404    2.2428    0.4614 C   0  0  0  0  0  0  0  0  0  0  0  0
   -1.8318    1.3214    0.7803 C   0  0  0  0  0  0  0  0  0  0  0  0
   -0.5615    1.4371    0.1641 N   0  0  0  0  0  0  0  0  0  0  0  0
   -0.2913    1.6231   -1.1892 C   0  0  0  0  0  0  0  0  0  0  0  0
   -1.2725    1.4766   -2.3104 C   0  0  0  0  0  0  0  0  0  0  0  0
   -1.8105    0.0775   -2.4443 C   0  0  0  0  0  0  0  0  0  0  0  0
   -3.0888   -0.3816   -2.1833 C   0  0  0  0  0  0  0  0  0  0  0  0
   -3.2290   -1.7763   -2.4385 C   0  0  0  0  0  0  0  0  0  0  0  0
   -2.0554   -2.3393   -2.8878 C   0  0  0  0  0  0  0  0  0  0  0  0
   -0.7959   -1.1910   -3.0038 S   0  0  0  0  0  0  0  0  0  0  0  0
    1.0045    1.8273   -1.3547 N   0  0  0  0  0  0  0  0  0  0  0  0
    1.6126    1.7132   -0.1428 N   0  0  0  0  0  0  0  0  0  0  0  0
    0.6932    1.4337    0.7530 C   0  0  0  0  0  0  0  0  0  0  0  0
    1.0319    1.2403    2.4434 S   0  0  0  0  0  0  0  0  0  0  0  0
    2.8449    1.3860    2.4692 C   0  0  0  0  0  0  0  0  0  0  0  0
    3.5110    0.0880    2.0266 C   0  0  0  0  0  0  0  0  0  0  0  0
    3.9162   -0.7252    2.8561 O   0  0  0  0  0  0  0  0  0  0  0  0
    3.5958   -0.0475    0.6506 N   0  0  0  0  0  0  0  0  0  0  0  0
    4.1659   -1.1084   -0.0806 C   0  0  0  0  0  0  0  0  0  0  0  0
    4.9447   -2.1217    0.4923 C   0  0  0  0  0  0  0  0  0  0  0  0
    5.4867   -3.1377   -0.3043 C   0  0  0  0  0  0  0  0  0  0  0  0
    5.2489   -3.1365   -1.6727 C   0  0  0  0  0  0  0  0  0  0  0  0
    5.7672   -4.1131   -2.4299 F   0  0  0  0  0  0  0  0  0  0  0  0
    4.4784   -2.1330   -2.2481 C   0  0  0  0  0  0  0  0  0  0  0  0
    4.2473   -2.1330   -3.5683 F   0  0  0  0  0  0  0  0  0  0  0  0
    3.9397   -1.1186   -1.4630 C   0  0  0  0  0  0  0  0  0  0  0  0
   -2.0811    0.3122    1.7150 C   0  0  0  0  0  0  0  0  0  0  0  0
   -3.3325    0.2297    2.3334 C   0  0  0  0  0  0  0  0  0  0  0  0
   -5.9720    2.0608    3.0890 H   0  0  0  0  0  0  0  0  0  0  0  0
   -5.6644    0.3864    3.5519 H   0  0  0  0  0  0  0  0  0  0  0  0
   -6.4329    0.7314    1.9911 H   0  0  0  0  0  0  0  0  0  0  0  0
   -4.8525    2.8931    0.8555 H   0  0  0  0  0  0  0  0  0  0  0  0
   -2.6669    3.0687   -0.2271 H   0  0  0  0  0  0  0  0  0  0  0  0
   -2.0933    2.1916   -2.2058 H   0  0  0  0  0  0  0  0  0  0  0  0
   -0.7758    1.7524   -3.2505 H   0  0  0  0  0  0  0  0  0  0  0  0
   -3.8941    0.2504   -1.8253 H   0  0  0  0  0  0  0  0  0  0  0  0
   -4.1440   -2.3383   -2.3012 H   0  0  0  0  0  0  0  0  0  0  0  0
   -1.8767   -3.3710   -3.1575 H   0  0  0  0  0  0  0  0  0  0  0  0
    3.1957    2.2288    1.8617 H   0  0  0  0  0  0  0  0  0  0  0  0
    3.1560    1.5900    3.4995 H   0  0  0  0  0  0  0  0  0  0  0  0
    3.0825    0.6443    0.0996 H   0  0  0  0  0  0  0  0  0  0  0  0
    5.1578   -2.1445    1.5568 H   0  0  0  0  0  0  0  0  0  0  0  0
    6.0917   -3.9269    0.1385 H   0  0  0  0  0  0  0  0  0  0  0  0
    3.3385   -0.3497   -1.9455 H   0  0  0  0  0  0  0  0  0  0  0  0
   -1.3346   -0.4418    1.9560 H   0  0  0  0  0  0  0  0  0  0  0  0
   -3.5138   -0.5658    3.0551 H   0  0  0  0  0  0  0  0  0  0  0  0
  1  2  1  0
  2  3  2  0
  3  4  1  0
  4  5  2  0
  5  6  1  0
  6  7  1  0
  7  8  1  0
  8  9  1  0
  9 10  2  0
 10 11  1  0
 11 12  2  0
 12 13  1  0
  7 14  2  0
 14 15  1  0
 15 16  2  0
 16 17  1  0
 17 18  1  0
 18 19  1  0
 19 20  2  0
 19 21  1  0
 21 22  1  0
 22 23  2  0
 23 24  1  0
 24 25  2  0
 25 26  1  0
 25 27  1  0
 27 28  1  0
 27 29  2  0
  5 30  1  0
 30 31  2  0
 31  2  1  0
 16  6  1  0
 29 22  1  0
 13  9  1  0
  1 32  1  0
  1 33  1  0
  1 34  1  0
  3 35  1  0
  4 36  1  0
  8 37  1  0
  8 38  1  0
 10 39  1  0
 11 40  1  0
 12 41  1  0
 18 42  1  0
 18 43  1  0
 21 44  1  0
 23 45  1  0
 24 46  1  0
 29 47  1  0
 30 48  1  0
 31 49  1  0
M  END
$$$$
