
     RDKit          3D

 70 76  0  0  0  0  0  0  0  0999 V2000
   -6.4911   -3.6381   -0.3719 C   0  0  0  0  0  0  0  0  0  0  0  0
   -5.2648   -3.2174    0.3817 C   0  0  0  0  0  0  0  0  0  0  0  0
   -5.0411   -3.6223    1.7120 C   0  0  0  0  0  0  0  0  0  0  0  0
   -6.1768   -4.6282    2.5444 Cl  0  0  0  0  0  0  0  0  0  0  0  0
   -3.8886   -3.2281    2.4218 C   0  0  0  0  0  0  0  0  0  0  0  0
   -2.9268   -2.4106    1.8279 C   0  0  0  0  0  0  0  0  0  0  0  0
   -3.1442   -1.9934    0.5254 C   0  0  0  0  0  0  0  0  0  0  0  0
   -4.2903   -2.3992   -0.1773 C   0  0  0  0  0  0  0  0  0  0  0  0
   -4.2622   -1.8637   -1.4647 N   0  0  0  0  0  0  0  0  0  0  0  0
   -3.1105   -1.1051   -1.6900 C   0  0  0  0  0  0  0  0  0  0  0  0
   -2.8318   -0.5604   -2.7479 O   0  0  0  0  0  0  0  0  0  0  0  0
   -2.3045   -1.1264   -0.3668 C   0  0  1  0  0  0  0  0  0  0  0  0
   -2.1504    0.2215    0.2486 C   0  0  0  0  0  0  0  0  0  0  0  0
   -0.8452    0.6873    0.0203 C   0  0  0  0  0  0  0  0  0  0  0  0
   -0.6852    1.8961    0.6308 C   0  0  0  0  0  0  0  0  0  0  0  0
    0.4357    2.6021    0.7645 O   0  0  0  0  0  0  0  0  0  0  0  0
   -1.9421    2.2571    1.1617 N   0  0  0  0  0  0  0  0  0  0  0  0
   -2.2671    3.5186    1.7547 C   0  0  0  0  0  0  0  0  0  0  0  0
   -1.6617    4.6935    1.2834 C   0  0  0  0  0  0  0  0  0  0  0  0
   -1.9711    5.9272    1.8617 C   0  0  0  0  0  0  0  0  0  0  0  0
   -2.8869    5.9981    2.9084 C   0  0  0  0  0  0  0  0  0  0  0  0
   -3.5024    4.8377    3.3718 C   0  0  0  0  0  0  0  0  0  0  0  0
   -3.2001    3.6013    2.7947 C   0  0  0  0  0  0  0  0  0  0  0  0
   -2.8227    1.1679    0.9811 C   0  0  0  0  0  0  0  0  0  0  0  0
   -4.0788    1.1804    1.4215 O   0  0  0  0  0  0  0  0  0  0  0  0
   -0.0799   -0.2945   -0.7707 C   0  0  1  0  0  0  0  0  0  0  0  0
    1.3803   -0.5584   -0.4184 C   0  0  0  0  0  0  0  0  0  0  0  0
    1.8937   -1.7424   -1.1518 N   0  0  0  0  0  0  0  0  0  0  0  0
    3.2523   -1.9766   -1.3546 C   0  0  0  0  0  0  0  0  0  0  0  0
    3.6784   -3.0808   -1.6955 O   0  0  0  0  0  0  0  0  0  0  0  0
    4.1864   -0.7952   -1.1557 C   0  0  0  0  0  0  0  0  0  0  0  0
    5.6394   -1.1660   -1.4496 C   0  0  0  0  0  0  0  0  0  0  0  0
    6.5605    0.0136   -1.2516 C   0  0  0  0  0  0  0  0  0  0  0  0
    7.2481    0.1865   -0.0425 C   0  0  0  0  0  0  0  0  0  0  0  0
    8.0826    1.2904    0.1441 C   0  0  0  0  0  0  0  0  0  0  0  0
    8.2329    2.2324   -0.8727 C   0  0  0  0  0  0  0  0  0  0  0  0
    7.5498    2.0717   -2.0771 C   0  0  0  0  0  0  0  0  0  0  0  0
    6.7166    0.9680   -2.2667 C   0  0  0  0  0  0  0  0  0  0  0  0
    1.0010   -2.9191   -1.1916 C   0  0  0  0  0  0  0  0  0  0  0  0
   -0.4970   -2.5869   -1.4120 C   0  0  0  0  0  0  0  0  0  0  0  0
   -0.8858   -1.5272   -0.4969 N   0  0  0  0  0  0  0  0  0  0  0  0
   -7.3846   -3.2027    0.0879 H   0  0  0  0  0  0  0  0  0  0  0  0
   -6.5806   -4.7297   -0.3813 H   0  0  0  0  0  0  0  0  0  0  0  0
   -6.4709   -3.3153   -1.4166 H   0  0  0  0  0  0  0  0  0  0  0  0
   -3.7387   -3.5646    3.4463 H   0  0  0  0  0  0  0  0  0  0  0  0
   -2.0347   -2.1101    2.3709 H   0  0  0  0  0  0  0  0  0  0  0  0
   -4.9501   -2.0082   -2.1893 H   0  0  0  0  0  0  0  0  0  0  0  0
    0.3274    3.2205    1.5102 H   0  0  0  0  0  0  0  0  0  0  0  0
   -0.9879    4.6821    0.4293 H   0  0  0  0  0  0  0  0  0  0  0  0
   -1.5098    6.8357    1.4827 H   0  0  0  0  0  0  0  0  0  0  0  0
   -3.1305    6.9585    3.3555 H   0  0  0  0  0  0  0  0  0  0  0  0
   -4.2205    4.8917    4.1857 H   0  0  0  0  0  0  0  0  0  0  0  0
   -3.6829    2.7153    3.1972 H   0  0  0  0  0  0  0  0  0  0  0  0
   -4.4976    0.3375    1.1744 H   0  0  0  0  0  0  0  0  0  0  0  0
   -0.1570   -0.0230   -1.8334 H   0  0  0  0  0  0  0  0  0  0  0  0
    1.5086   -0.7614    0.6525 H   0  0  0  0  0  0  0  0  0  0  0  0
    1.9786    0.3259   -0.6540 H   0  0  0  0  0  0  0  0  0  0  0  0
    4.1008   -0.4497   -0.1193 H   0  0  0  0  0  0  0  0  0  0  0  0
    3.8689    0.0131   -1.8245 H   0  0  0  0  0  0  0  0  0  0  0  0
    5.7413   -1.5358   -2.4779 H   0  0  0  0  0  0  0  0  0  0  0  0
    5.9590   -1.9951   -0.8049 H   0  0  0  0  0  0  0  0  0  0  0  0
    7.1390   -0.5393    0.7610 H   0  0  0  0  0  0  0  0  0  0  0  0
    8.6157    1.4159    1.0831 H   0  0  0  0  0  0  0  0  0  0  0  0
    8.8827    3.0910   -0.7266 H   0  0  0  0  0  0  0  0  0  0  0  0
    7.6657    2.8062   -2.8701 H   0  0  0  0  0  0  0  0  0  0  0  0
    6.1888    0.8555   -3.2117 H   0  0  0  0  0  0  0  0  0  0  0  0
    1.3347   -3.6075   -1.9759 H   0  0  0  0  0  0  0  0  0  0  0  0
    1.1253   -3.4352   -0.2311 H   0  0  0  0  0  0  0  0  0  0  0  0
   -0.6533   -2.2896   -2.4559 H   0  0  0  0  0  0  0  0  0  0  0  0
   -1.0857   -3.4931   -1.2327 H   0  0  0  0  0  0  0  0  0  0  0  0
  1  2  1  0
  2  3  2  0
  3  4  1  0
  3  5  1  0
  5  6  2  0
  6  7  1  0
  7  8  2  0
  8  9  1  0
  9 10  1  0
 10 11  2  0
 10 12  1  0
 12 13  1  0
 13 14  1  0
 14 15  2  0
 15 16  1  0
 15 17  1  0
 17 18  1  0
 18 19  2  0
 19 20  1  0
 20 21  2  0
 21 22  1  0
 22 23  2  0
 17 24  1  0
 24 25  1  0
 14 26  1  0
 26 27  1  0
 27 28  1  0
 28 29  1  0
 29 30  2  0
 29 31  1  0
 31 32  1  0
 32 33  1  0
 33 34  2  0
 34 35  1  0
 35 36  2  0
 36 37  1  0
 37 38  2  0
 28 39  1  0
 39 40  1  0
 40 41  1  0
  8  2  1  0
 12 41  1  6
 12  7  1  0
 24 13  2  0
 41 26  1  0
 23 18  1  0
 38 33  1  0
  1 42  1  0
  1 43  1  0
  1 44  1  0
  5 45  1  0
  6 46  1  0
  9 47  1  0
 16 48  1  0
 19 49  1  0
 20 50  1  0
 21 51  1  0
 22 52  1  0
 23 53  1  0
 25 54  1  0
 26 55  1  6
 27 56  1  0
 27 57  1  0
 31 58  1  0
 31 59  1  0
 32 60  1  0
 32 61  1  0
 34 62  1  0
 35 63  1  0
 36 64  1  0
 37 65  1  0
 38 66  1  0
 39 67  1  0
 39 68  1  0
 40 69  1  0
 40 70  1  0
M  END
$$$$
