
     RDKit          3D

 39 41  0  0  0  0  0  0  0  0999 V2000
   -4.7189    1.4089   -2.3348 C   0  0  0  0  0  0  0  0  0  0  0  0
   -4.2136    1.0540   -0.9666 C   0  0  0  0  0  0  0  0  0  0  0  0
   -5.0546    1.1689    0.1439 C   0  0  0  0  0  0  0  0  0  0  0  0
   -4.6022    0.8761    1.4344 C   0  0  0  0  0  0  0  0  0  0  0  0
   -3.2712    0.4717    1.5804 C   0  0  0  0  0  0  0  0  0  0  0  0
   -2.5732    0.1269    2.7126 N   0  0  0  0  0  0  0  0  0  0  0  0
   -1.2780   -0.2233    2.4045 C   0  0  0  0  0  0  0  0  0  0  0  0
   -0.3545   -0.6848    3.4738 C   0  0  0  0  0  0  0  0  0  0  0  0
   -1.1318   -0.0663    1.0361 C   0  0  0  0  0  0  0  0  0  0  0  0
    0.0430   -0.3133    0.2573 C   0  0  0  0  0  0  0  0  0  0  0  0
    1.3075   -0.0761    0.6446 C   0  0  0  0  0  0  0  0  0  0  0  0
    2.4810   -0.3276   -0.1982 C   0  0  0  0  0  0  0  0  0  0  0  0
    3.6276   -0.8710    0.3777 C   0  0  0  0  0  0  0  0  0  0  0  0
    4.7553   -1.0910   -0.4054 C   0  0  0  0  0  0  0  0  0  0  0  0
    4.7529   -0.7756   -1.7197 N   0  0  0  0  0  4  0  0  0  0  0  0
    5.9629   -1.0071   -2.5268 C   0  0  0  0  0  0  0  0  0  0  0  0
    3.6613   -0.2239   -2.2947 C   0  0  0  0  0  0  0  0  0  0  0  0
    2.5110    0.0113   -1.5502 C   0  0  0  0  0  0  0  0  0  0  0  0
   -2.3939    0.3544    0.5053 C   0  0  0  0  0  0  0  0  0  0  0  0
   -2.8762    0.6604   -0.7875 C   0  0  0  0  0  0  0  0  0  0  0  0
   -4.5668    2.4759   -2.5244 H   0  0  0  0  0  0  0  0  0  0  0  0
   -5.7858    1.1802   -2.4287 H   0  0  0  0  0  0  0  0  0  0  0  0
   -4.1952    0.8341   -3.1060 H   0  0  0  0  0  0  0  0  0  0  0  0
   -6.0863    1.4918    0.0136 H   0  0  0  0  0  0  0  0  0  0  0  0
   -5.2673    0.9650    2.2876 H   0  0  0  0  0  0  0  0  0  0  0  0
   -2.9740    0.1148    3.6405 H   0  0  0  0  0  0  0  0  0  0  0  0
   -0.9054   -1.0366    4.3525 H   0  0  0  0  0  0  0  0  0  0  0  0
    0.2668   -1.5148    3.1231 H   0  0  0  0  0  0  0  0  0  0  0  0
    0.2998    0.1332    3.7907 H   0  0  0  0  0  0  0  0  0  0  0  0
   -0.1436   -0.7041   -0.7407 H   0  0  0  0  0  0  0  0  0  0  0  0
    1.5082    0.3284    1.6339 H   0  0  0  0  0  0  0  0  0  0  0  0
    3.6479   -1.1337    1.4341 H   0  0  0  0  0  0  0  0  0  0  0  0
    5.6643   -1.5160    0.0111 H   0  0  0  0  0  0  0  0  0  0  0  0
    6.5752   -0.1042   -2.4646 H   0  0  0  0  0  0  0  0  0  0  0  0
    5.6710   -1.2098   -3.5604 H   0  0  0  0  0  0  0  0  0  0  0  0
    6.5001   -1.8709   -2.1270 H   0  0  0  0  0  0  0  0  0  0  0  0
    3.7195    0.0319   -3.3491 H   0  0  0  0  0  0  0  0  0  0  0  0
    1.6492    0.4712   -2.0303 H   0  0  0  0  0  0  0  0  0  0  0  0
   -2.2119    0.5911   -1.6430 H   0  0  0  0  0  0  0  0  0  0  0  0
  1  2  1  0
  2  3  2  0
  3  4  1  0
  4  5  2  0
  5  6  1  0
  6  7  1  0
  7  8  1  0
  7  9  2  0
  9 10  1  0
 10 11  2  3
 11 12  1  0
 12 13  2  0
 13 14  1  0
 14 15  2  0
 15 16  1  0
 15 17  1  0
 17 18  2  0
  9 19  1  0
 19 20  2  0
 20  2  1  0
 19  5  1  0
 18 12  1  0
  1 21  1  0
  1 22  1  0
  1 23  1  0
  3 24  1  0
  4 25  1  0
  6 26  1  0
  8 27  1  0
  8 28  1  0
  8 29  1  0
 10 30  1  0
 11 31  1  0
 13 32  1  0
 14 33  1  0
 16 34  1  0
 16 35  1  0
 16 36  1  0
 17 37  1  0
 18 38  1  0
 20 39  1  0
M  CHG  1  15   1
M  END
$$$$
