
     RDKit          3D

 45 44  0  0  0  0  0  0  0  0999 V2000
    7.0256   -2.0691   -0.4156 C   0  0  0  0  0  0  0  0  0  0  0  0
    5.7060   -1.9326    0.3277 C   0  0  0  0  0  0  0  0  0  0  0  0
    4.8790   -3.2172    0.2385 C   0  0  0  0  0  0  0  0  0  0  0  0
    3.5687   -3.1201    1.0147 C   0  0  0  0  0  0  0  0  0  0  0  0
    2.6561   -2.1674    0.4272 N   0  0  0  0  0  0  0  0  0  0  0  0
    1.6159   -1.6405    1.1297 C   0  0  0  0  0  0  0  0  0  0  0  0
    1.4235   -1.7722    2.3280 O   0  0  0  0  0  0  0  0  0  0  0  0
    0.8171   -0.9527    0.2794 O   0  0  0  0  0  0  0  0  0  0  0  0
   -0.3201   -0.3439    0.9055 C   0  0  0  0  0  0  0  0  0  0  0  0
   -1.0892    0.5115   -0.1161 C   0  0  0  0  0  0  0  0  0  0  0  0
   -0.4124    1.8661   -0.4088 C   0  0  0  0  0  0  0  0  0  0  0  0
    0.9737    1.7607   -1.0257 C   0  0  0  0  0  0  0  0  0  0  0  0
   -2.4522    0.7453    0.3511 N   0  0  0  0  0  0  0  0  0  0  0  0
   -3.4966    0.9500   -0.4984 C   0  0  0  0  0  0  0  0  0  0  0  0
   -3.4561    0.8341   -1.7127 O   0  0  0  0  0  0  0  0  0  0  0  0
   -4.5806    1.3172    0.2259 O   0  0  0  0  0  0  0  0  0  0  0  0
   -5.7809    1.5812   -0.5238 C   0  0  0  0  0  0  0  0  0  0  0  0
   -6.9569    1.3662    0.4213 C   0  0  0  0  0  0  0  0  0  0  0  0
   -5.7573    3.0167   -1.0369 C   0  0  0  0  0  0  0  0  0  0  0  0
    6.8579   -2.2786   -1.4769 H   0  0  0  0  0  0  0  0  0  0  0  0
    7.6012   -1.1413   -0.3392 H   0  0  0  0  0  0  0  0  0  0  0  0
    7.6304   -2.8795    0.0037 H   0  0  0  0  0  0  0  0  0  0  0  0
    5.1456   -1.0909   -0.0949 H   0  0  0  0  0  0  0  0  0  0  0  0
    5.9085   -1.6932    1.3781 H   0  0  0  0  0  0  0  0  0  0  0  0
    4.6718   -3.4493   -0.8135 H   0  0  0  0  0  0  0  0  0  0  0  0
    5.4643   -4.0515    0.6435 H   0  0  0  0  0  0  0  0  0  0  0  0
    3.7535   -2.8526    2.0612 H   0  0  0  0  0  0  0  0  0  0  0  0
    3.0621   -4.0917    1.0084 H   0  0  0  0  0  0  0  0  0  0  0  0
    2.5552   -2.1164   -0.5770 H   0  0  0  0  0  0  0  0  0  0  0  0
   -0.9713   -1.1450    1.2777 H   0  0  0  0  0  0  0  0  0  0  0  0
   -0.0055    0.2739    1.7562 H   0  0  0  0  0  0  0  0  0  0  0  0
   -1.1510   -0.0430   -1.0616 H   0  0  0  0  0  0  0  0  0  0  0  0
   -0.3523    2.4596    0.5122 H   0  0  0  0  0  0  0  0  0  0  0  0
   -1.0457    2.4402   -1.0974 H   0  0  0  0  0  0  0  0  0  0  0  0
    1.3181    2.7508   -1.3418 H   0  0  0  0  0  0  0  0  0  0  0  0
    0.9670    1.1089   -1.9048 H   0  0  0  0  0  0  0  0  0  0  0  0
    1.7042    1.3775   -0.3078 H   0  0  0  0  0  0  0  0  0  0  0  0
   -2.6235    1.0249    1.3075 H   0  0  0  0  0  0  0  0  0  0  0  0
   -5.8754    0.8772   -1.3598 H   0  0  0  0  0  0  0  0  0  0  0  0
   -7.9110    1.5500   -0.0820 H   0  0  0  0  0  0  0  0  0  0  0  0
   -6.8866    2.0250    1.2940 H   0  0  0  0  0  0  0  0  0  0  0  0
   -6.9557    0.3392    0.8023 H   0  0  0  0  0  0  0  0  0  0  0  0
   -6.6812    3.2620   -1.5697 H   0  0  0  0  0  0  0  0  0  0  0  0
   -4.9152    3.1742   -1.7185 H   0  0  0  0  0  0  0  0  0  0  0  0
   -5.6287    3.7253   -0.2112 H   0  0  0  0  0  0  0  0  0  0  0  0
  1  2  1  0
  2  3  1  0
  3  4  1  0
  4  5  1  0
  5  6  1  0
  6  7  2  0
  6  8  1  0
  8  9  1  0
  9 10  1  0
 10 11  1  0
 11 12  1  0
 10 13  1  0
 13 14  1  0
 14 15  2  0
 14 16  1  0
 16 17  1  0
 17 18  1  0
 17 19  1  0
  1 20  1  0
  1 21  1  0
  1 22  1  0
  2 23  1  0
  2 24  1  0
  3 25  1  0
  3 26  1  0
  4 27  1  0
  4 28  1  0
  5 29  1  0
  9 30  1  0
  9 31  1  0
 10 32  1  0
 11 33  1  0
 11 34  1  0
 12 35  1  0
 12 36  1  0
 12 37  1  0
 13 38  1  0
 17 39  1  0
 18 40  1  0
 18 41  1  0
 18 42  1  0
 19 43  1  0
 19 44  1  0
 19 45  1  0
M  END
$$$$
