
     RDKit          3D

 47 50  0  0  0  0  0  0  0  0999 V2000
   -3.9940    2.7490    1.4398 C   0  0  0  0  0  0  0  0  0  0  0  0
   -3.9407    1.8879    0.1769 C   0  0  0  0  0  0  0  0  0  0  0  0
   -2.5068    1.5907   -0.2363 C   0  0  0  0  0  0  0  0  0  0  0  0
   -1.8401    0.5352    0.6182 C   0  0  0  0  0  0  0  0  0  0  0  0
   -1.0785    0.8687    1.5326 O   0  0  0  0  0  0  0  0  0  0  0  0
   -2.0327   -0.7984    0.2739 N   0  0  0  0  0  0  0  0  0  0  0  0
   -1.2524   -1.8079    0.9995 C   0  0  0  0  0  0  0  0  0  0  0  0
    0.1865   -1.9177    0.4790 C   0  0  0  0  0  0  0  0  0  0  0  0
    0.5342   -2.8773   -0.2051 O   0  0  0  0  0  0  0  0  0  0  0  0
    0.9790   -0.8469    0.8559 N   0  0  0  0  0  0  0  0  0  0  0  0
    2.3377   -0.6251    0.5614 C   0  0  0  0  0  0  0  0  0  0  0  0
    3.1452   -1.5314   -0.1305 C   0  0  0  0  0  0  0  0  0  0  0  0
    4.4881   -1.2327   -0.3882 C   0  0  0  0  0  0  0  0  0  0  0  0
    5.0295   -0.0260    0.0430 C   0  0  0  0  0  0  0  0  0  0  0  0
    4.2374    0.8726    0.7605 C   0  0  0  0  0  0  0  0  0  0  0  0
    2.8952    0.5810    1.0061 C   0  0  0  0  0  0  0  0  0  0  0  0
    4.7083    2.0658    1.2478 O   0  0  0  0  0  0  0  0  0  0  0  0
    6.1403    2.1001    1.2445 C   0  0  0  0  0  0  0  0  0  0  0  0
    6.6861    1.5862   -0.0775 C   0  0  0  0  0  0  0  0  0  0  0  0
    6.3448    0.2080   -0.2641 O   0  0  0  0  0  0  0  0  0  0  0  0
   -2.9923   -1.2470   -0.6877 C   0  0  0  0  0  0  0  0  0  0  0  0
   -2.6322   -2.2655   -1.5863 C   0  0  0  0  0  0  0  0  0  0  0  0
   -3.5292   -2.7237   -2.5540 C   0  0  0  0  0  0  0  0  0  0  0  0
   -4.8082   -2.1854   -2.6285 C   0  0  0  0  0  0  0  0  0  0  0  0
   -5.1956   -1.1954   -1.7272 C   0  0  0  0  0  0  0  0  0  0  0  0
   -4.2999   -0.7168   -0.7583 C   0  0  0  0  0  0  0  0  0  0  0  0
   -4.9750    0.4077    0.4604 S   0  0  0  0  0  0  0  0  0  0  0  0
   -5.0231    3.0363    1.6841 H   0  0  0  0  0  0  0  0  0  0  0  0
   -3.5670    2.2342    2.3077 H   0  0  0  0  0  0  0  0  0  0  0  0
   -3.4282    3.6762    1.2948 H   0  0  0  0  0  0  0  0  0  0  0  0
   -4.4137    2.4557   -0.6331 H   0  0  0  0  0  0  0  0  0  0  0  0
   -1.8979    2.5024   -0.1789 H   0  0  0  0  0  0  0  0  0  0  0  0
   -2.4536    1.2941   -1.2911 H   0  0  0  0  0  0  0  0  0  0  0  0
   -1.2189   -1.5447    2.0642 H   0  0  0  0  0  0  0  0  0  0  0  0
   -1.7346   -2.7907    0.9422 H   0  0  0  0  0  0  0  0  0  0  0  0
    0.5015   -0.0986    1.3640 H   0  0  0  0  0  0  0  0  0  0  0  0
    2.7617   -2.4825   -0.4860 H   0  0  0  0  0  0  0  0  0  0  0  0
    5.1043   -1.9416   -0.9345 H   0  0  0  0  0  0  0  0  0  0  0  0
    2.2953    1.3024    1.5550 H   0  0  0  0  0  0  0  0  0  0  0  0
    6.4473    3.1387    1.4026 H   0  0  0  0  0  0  0  0  0  0  0  0
    6.5054    1.5031    2.0894 H   0  0  0  0  0  0  0  0  0  0  0  0
    7.7778    1.6623   -0.0915 H   0  0  0  0  0  0  0  0  0  0  0  0
    6.2924    2.1607   -0.9252 H   0  0  0  0  0  0  0  0  0  0  0  0
   -1.6350   -2.6994   -1.5771 H   0  0  0  0  0  0  0  0  0  0  0  0
   -3.2236   -3.5026   -3.2490 H   0  0  0  0  0  0  0  0  0  0  0  0
   -5.5108   -2.5481   -3.3748 H   0  0  0  0  0  0  0  0  0  0  0  0
   -6.2138   -0.8137   -1.7733 H   0  0  0  0  0  0  0  0  0  0  0  0
  1  2  1  0
  2  3  1  0
  3  4  1  0
  4  5  2  0
  4  6  1  0
  6  7  1  0
  7  8  1  0
  8  9  2  0
  8 10  1  0
 10 11  1  0
 11 12  2  0
 12 13  1  0
 13 14  2  0
 14 15  1  0
 15 16  2  0
 15 17  1  0
 17 18  1  0
 18 19  1  0
 19 20  1  0
  6 21  1  0
 21 22  2  0
 22 23  1  0
 23 24  2  0
 24 25  1  0
 25 26  2  0
 26 27  1  0
 27  2  1  0
 16 11  1  0
 26 21  1  0
 20 14  1  0
  1 28  1  0
  1 29  1  0
  1 30  1  0
  2 31  1  0
  3 32  1  0
  3 33  1  0
  7 34  1  0
  7 35  1  0
 10 36  1  0
 12 37  1  0
 13 38  1  0
 16 39  1  0
 18 40  1  0
 18 41  1  0
 19 42  1  0
 19 43  1  0
 22 44  1  0
 23 45  1  0
 24 46  1  0
 25 47  1  0
M  END
$$$$
