
     RDKit          3D

 68 70  0  0  0  0  0  0  0  0999 V2000
   -7.1491    2.2392    1.6425 C   0  0  0  0  0  0  0  0  0  0  0  0
   -6.2820    2.5425    0.5576 O   0  0  0  0  0  0  0  0  0  0  0  0
   -5.1843    1.7422    0.4032 C   0  0  0  0  0  0  0  0  0  0  0  0
   -4.8819    0.6080    1.1545 C   0  0  0  0  0  0  0  0  0  0  0  0
   -3.7220   -0.1305    0.8862 C   0  0  0  0  0  0  0  0  0  0  0  0
   -2.8445    0.2532   -0.1395 C   0  0  0  0  0  0  0  0  0  0  0  0
   -1.5728   -0.5187   -0.4759 C   0  0  0  0  0  0  0  0  0  0  0  0
   -1.6391   -2.0304   -0.1050 C   0  0  0  0  0  0  0  0  0  0  0  0
   -1.0602   -2.5032    0.8727 O   0  0  0  0  0  0  0  0  0  0  0  0
   -2.4391   -2.7817   -0.9513 N   0  0  0  0  0  0  0  0  0  0  0  0
   -2.6684   -4.2289   -0.8398 C   0  0  0  0  0  0  0  0  0  0  0  0
   -3.5976   -4.6528   -1.9923 C   0  0  0  0  0  0  0  0  0  0  0  0
   -1.3498   -5.0067   -0.9709 C   0  0  0  0  0  0  0  0  0  0  0  0
   -3.3576   -4.5738    0.4894 C   0  0  0  0  0  0  0  0  0  0  0  0
   -0.3397    0.0959    0.0562 N   0  0  0  0  0  0  0  0  0  0  0  0
   -0.2573    0.3216    1.5057 C   0  0  0  0  0  0  0  0  0  0  0  0
   -0.2077    1.7743    1.8257 C   0  0  0  0  0  0  0  0  0  0  0  0
    0.7894    2.6183    2.2753 C   0  0  0  0  0  0  0  0  0  0  0  0
    0.1975    3.8968    2.4259 C   0  0  0  0  0  0  0  0  0  0  0  0
   -1.1227    3.7513    2.0717 C   0  0  0  0  0  0  0  0  0  0  0  0
   -1.3786    2.4676    1.7168 O   0  0  0  0  0  0  0  0  0  0  0  0
    0.7822    0.0170   -0.7636 C   0  0  0  0  0  0  0  0  0  0  0  0
    0.7226   -0.4536   -1.9027 O   0  0  0  0  0  0  0  0  0  0  0  0
    2.0953    0.5646   -0.2346 C   0  0  0  0  0  0  0  0  0  0  0  0
    3.2354    0.3276   -1.2226 C   0  0  0  0  0  0  0  0  0  0  0  0
    4.5445    0.8948   -0.7139 C   0  0  0  0  0  0  0  0  0  0  0  0
    4.6218    1.5372    0.3284 O   0  0  0  0  0  0  0  0  0  0  0  0
    5.5886    0.6037   -1.5611 N   0  0  0  0  0  0  0  0  0  0  0  0
    6.8899    1.0210   -1.3947 C   0  0  0  0  0  0  0  0  0  0  0  0
    7.4502    1.8388   -0.3889 C   0  0  0  0  0  0  0  0  0  0  0  0
    8.7742    1.9491   -0.7316 C   0  0  0  0  0  0  0  0  0  0  0  0
    9.9329    2.6473   -0.1495 C   0  0  0  0  0  0  0  0  0  0  0  0
    9.0024    1.2297   -1.8620 O   0  0  0  0  0  0  0  0  0  0  0  0
    7.8198    0.6490   -2.2822 N   0  0  0  0  0  0  0  0  0  0  0  0
   -3.1534    1.4046   -0.8807 C   0  0  0  0  0  0  0  0  0  0  0  0
   -4.3141    2.1345   -0.6143 C   0  0  0  0  0  0  0  0  0  0  0  0
   -7.6102    1.2544    1.5158 H   0  0  0  0  0  0  0  0  0  0  0  0
   -7.9509    2.9844    1.6479 H   0  0  0  0  0  0  0  0  0  0  0  0
   -6.6224    2.3096    2.6000 H   0  0  0  0  0  0  0  0  0  0  0  0
   -5.5257    0.2674    1.9589 H   0  0  0  0  0  0  0  0  0  0  0  0
   -3.5158   -1.0066    1.4993 H   0  0  0  0  0  0  0  0  0  0  0  0
   -1.5134   -0.5079   -1.5736 H   0  0  0  0  0  0  0  0  0  0  0  0
   -2.8673   -2.2999   -1.7341 H   0  0  0  0  0  0  0  0  0  0  0  0
   -3.8155   -5.7266   -1.9587 H   0  0  0  0  0  0  0  0  0  0  0  0
   -3.1436   -4.4314   -2.9650 H   0  0  0  0  0  0  0  0  0  0  0  0
   -4.5514   -4.1138   -1.9483 H   0  0  0  0  0  0  0  0  0  0  0  0
   -1.5280   -6.0875   -0.9770 H   0  0  0  0  0  0  0  0  0  0  0  0
   -0.6650   -4.7954   -0.1433 H   0  0  0  0  0  0  0  0  0  0  0  0
   -0.8294   -4.7446   -1.8998 H   0  0  0  0  0  0  0  0  0  0  0  0
   -3.6153   -5.6380    0.5372 H   0  0  0  0  0  0  0  0  0  0  0  0
   -2.7192   -4.3555    1.3524 H   0  0  0  0  0  0  0  0  0  0  0  0
   -4.2815   -3.9960    0.6124 H   0  0  0  0  0  0  0  0  0  0  0  0
   -1.1158   -0.1289    2.0131 H   0  0  0  0  0  0  0  0  0  0  0  0
    0.6272   -0.1866    1.9021 H   0  0  0  0  0  0  0  0  0  0  0  0
    1.8190    2.3461    2.4677 H   0  0  0  0  0  0  0  0  0  0  0  0
    0.6732    4.8102    2.7545 H   0  0  0  0  0  0  0  0  0  0  0  0
   -1.9678    4.4247    2.0242 H   0  0  0  0  0  0  0  0  0  0  0  0
    2.3482    0.0812    0.7136 H   0  0  0  0  0  0  0  0  0  0  0  0
    1.9780    1.6401   -0.0737 H   0  0  0  0  0  0  0  0  0  0  0  0
    3.0091    0.8058   -2.1842 H   0  0  0  0  0  0  0  0  0  0  0  0
    3.3618   -0.7475   -1.3973 H   0  0  0  0  0  0  0  0  0  0  0  0
    5.4419    0.0362   -2.3859 H   0  0  0  0  0  0  0  0  0  0  0  0
    6.9631    2.2932    0.4604 H   0  0  0  0  0  0  0  0  0  0  0  0
   10.6492    1.9288    0.2627 H   0  0  0  0  0  0  0  0  0  0  0  0
   10.4421    3.2488   -0.9083 H   0  0  0  0  0  0  0  0  0  0  0  0
    9.6198    3.3170    0.6581 H   0  0  0  0  0  0  0  0  0  0  0  0
   -2.4823    1.7461   -1.6668 H   0  0  0  0  0  0  0  0  0  0  0  0
   -4.5370    3.0231   -1.1994 H   0  0  0  0  0  0  0  0  0  0  0  0
  1  2  1  0
  2  3  1  0
  3  4  2  0
  4  5  1  0
  5  6  2  0
  6  7  1  0
  7  8  1  0
  8  9  2  0
  8 10  1  0
 10 11  1  0
 11 12  1  0
 11 13  1  0
 11 14  1  0
  7 15  1  0
 15 16  1  0
 16 17  1  0
 17 18  2  0
 18 19  1  0
 19 20  2  0
 20 21  1  0
 15 22  1  0
 22 23  2  0
 22 24  1  0
 24 25  1  0
 25 26  1  0
 26 27  2  0
 26 28  1  0
 28 29  1  0
 29 30  1  0
 30 31  2  0
 31 32  1  0
 31 33  1  0
 33 34  1  0
  6 35  1  0
 35 36  2  0
 36  3  1  0
 21 17  1  0
 34 29  2  0
  1 37  1  0
  1 38  1  0
  1 39  1  0
  4 40  1  0
  5 41  1  0
  7 42  1  0
 10 43  1  0
 12 44  1  0
 12 45  1  0
 12 46  1  0
 13 47  1  0
 13 48  1  0
 13 49  1  0
 14 50  1  0
 14 51  1  0
 14 52  1  0
 16 53  1  0
 16 54  1  0
 18 55  1  0
 19 56  1  0
 20 57  1  0
 24 58  1  0
 24 59  1  0
 25 60  1  0
 25 61  1  0
 28 62  1  0
 30 63  1  0
 32 64  1  0
 32 65  1  0
 32 66  1  0
 35 67  1  0
 36 68  1  0
M  END
$$$$
