
     RDKit          3D

 28 29  0  0  0  0  0  0  0  0999 V2000
    4.7119   -0.2201    1.8396 C   0  0  0  0  0  0  0  0  0  0  0  0
    4.0622   -1.3220    1.0239 C   0  0  0  0  0  0  0  0  0  0  0  0
    2.7732   -0.8981    0.5571 O   0  0  0  0  0  0  0  0  0  0  0  0
    2.7703   -0.2116   -0.6217 C   0  0  0  0  0  0  0  0  0  0  0  0
    3.7633    0.0608   -1.2817 O   0  0  0  0  0  0  0  0  0  0  0  0
    1.4144    0.1442   -0.9633 C   0  0  0  0  0  0  0  0  0  0  0  0
    0.9549    0.8410   -2.0683 C   0  0  0  0  0  0  0  0  0  0  0  0
   -0.4547    0.9462   -1.9678 C   0  0  0  0  0  0  0  0  0  0  0  0
   -0.8364    0.3127   -0.8032 C   0  0  0  0  0  0  0  0  0  0  0  0
   -2.1265    0.1235   -0.2202 C   0  0  0  0  0  0  0  0  0  0  0  0
   -3.3630    0.5311   -0.6733 C   0  0  0  0  0  0  0  0  0  0  0  0
   -4.2818    0.0736    0.2964 C   0  0  0  0  0  0  0  0  0  0  0  0
   -5.7524    0.2311    0.3199 C   0  0  0  0  0  0  0  0  0  0  0  0
   -3.6576   -0.5744    1.2849 N   0  0  0  0  0  0  0  0  0  0  0  0
   -2.3147   -0.5426    0.9618 O   0  0  0  0  0  0  0  0  0  0  0  0
    0.3043   -0.1664   -0.2080 N   0  0  0  0  0  0  0  0  0  0  0  0
    4.8865    0.6709    1.2283 H   0  0  0  0  0  0  0  0  0  0  0  0
    4.0592    0.0829    2.6649 H   0  0  0  0  0  0  0  0  0  0  0  0
    5.6686   -0.5545    2.2506 H   0  0  0  0  0  0  0  0  0  0  0  0
    4.7038   -1.6398    0.1940 H   0  0  0  0  0  0  0  0  0  0  0  0
    3.8991   -2.2003    1.6572 H   0  0  0  0  0  0  0  0  0  0  0  0
    1.5806    1.2309   -2.8628 H   0  0  0  0  0  0  0  0  0  0  0  0
   -1.1122    1.4346   -2.6754 H   0  0  0  0  0  0  0  0  0  0  0  0
   -3.5722    1.0818   -1.5776 H   0  0  0  0  0  0  0  0  0  0  0  0
   -6.2444   -0.7469    0.3237 H   0  0  0  0  0  0  0  0  0  0  0  0
   -6.1043    0.7828   -0.5577 H   0  0  0  0  0  0  0  0  0  0  0  0
   -6.0666    0.7808    1.2129 H   0  0  0  0  0  0  0  0  0  0  0  0
    0.3346   -0.6780    0.6655 H   0  0  0  0  0  0  0  0  0  0  0  0
  1  2  1  0
  2  3  1  0
  3  4  1  0
  4  5  2  0
  4  6  1  0
  6  7  2  0
  7  8  1  0
  8  9  2  0
  9 10  1  0
 10 11  2  0
 11 12  1  0
 12 13  1  0
 12 14  2  0
 14 15  1  0
  9 16  1  0
 16  6  1  0
 15 10  1  0
  1 17  1  0
  1 18  1  0
  1 19  1  0
  2 20  1  0
  2 21  1  0
  7 22  1  0
  8 23  1  0
 11 24  1  0
 13 25  1  0
 13 26  1  0
 13 27  1  0
 16 28  1  0
M  END
$$$$
