
     RDKit          3D

 42 45  0  0  0  0  0  0  0  0999 V2000
    2.9143   -2.2225    0.4510 C   0  0  0  0  0  0  0  0  0  0  0  0
    3.2965   -0.8917   -0.0871 C   0  0  0  0  0  0  0  0  0  0  0  0
    2.5327    0.2177   -0.4332 C   0  0  0  0  0  0  0  0  0  0  0  0
    1.0938    0.4525   -0.2974 C   0  0  0  0  0  0  0  0  0  0  0  0
    0.4778    1.1443   -1.1033 O   0  0  0  0  0  0  0  0  0  0  0  0
    0.5320   -0.1378    0.8375 N   0  0  0  0  0  0  0  0  0  0  0  0
   -0.7601    0.0349    1.2757 N   0  0  0  0  0  0  0  0  0  0  0  0
   -1.6989    0.1512    0.3825 C   0  0  0  0  0  0  0  0  0  0  0  0
   -3.1158    0.3842    0.7683 C   0  0  0  0  0  0  0  0  0  0  0  0
   -3.5097    0.1764    2.1022 C   0  0  0  0  0  0  0  0  0  0  0  0
   -2.6449   -0.1871    3.1010 O   0  0  0  0  0  0  0  0  0  0  0  0
   -4.8359    0.3226    2.4820 C   0  0  0  0  0  0  0  0  0  0  0  0
   -5.7882    0.6852    1.5346 C   0  0  0  0  0  0  0  0  0  0  0  0
   -5.4271    0.9202    0.1996 C   0  0  0  0  0  0  0  0  0  0  0  0
   -6.4149    1.2986   -0.7246 C   0  0  0  0  0  0  0  0  0  0  0  0
   -6.0950    1.5593   -2.0545 C   0  0  0  0  0  0  0  0  0  0  0  0
   -4.7787    1.4516   -2.4768 C   0  0  0  0  0  0  0  0  0  0  0  0
   -3.7836    1.0730   -1.5711 C   0  0  0  0  0  0  0  0  0  0  0  0
   -4.0741    0.7828   -0.2116 C   0  0  0  0  0  0  0  0  0  0  0  0
    3.3483    1.1553   -1.0059 N   0  0  0  0  0  0  0  0  0  0  0  0
    4.5891    0.7042   -0.9849 N   0  0  0  0  0  0  0  0  0  0  0  0
    4.6077   -0.5279   -0.4088 N   0  0  0  0  0  0  0  0  0  0  0  0
    5.8215   -1.2280   -0.1940 C   0  0  0  0  0  0  0  0  0  0  0  0
    5.8410   -2.3881    0.4648 N   0  0  0  0  0  0  0  0  0  0  0  0
    7.1912   -2.7373    0.4931 O   0  0  0  0  0  0  0  0  0  0  0  0
    7.9744   -1.7792   -0.1408 N   0  0  0  0  0  0  0  0  0  0  0  0
    7.1235   -0.8485   -0.5708 C   0  0  0  0  0  0  0  0  0  0  0  0
    7.4833    0.2555   -1.2513 N   0  0  0  0  0  0  0  0  0  0  0  0
    3.3736   -3.0311   -0.1262 H   0  0  0  0  0  0  0  0  0  0  0  0
    3.2090   -2.3150    1.5008 H   0  0  0  0  0  0  0  0  0  0  0  0
    1.8344   -2.3854    0.3906 H   0  0  0  0  0  0  0  0  0  0  0  0
    1.1752   -0.4018    1.5777 H   0  0  0  0  0  0  0  0  0  0  0  0
   -1.4868    0.0319   -0.6893 H   0  0  0  0  0  0  0  0  0  0  0  0
   -1.7393   -0.1616    2.7240 H   0  0  0  0  0  0  0  0  0  0  0  0
   -5.1284    0.1523    3.5146 H   0  0  0  0  0  0  0  0  0  0  0  0
   -6.8233    0.7921    1.8542 H   0  0  0  0  0  0  0  0  0  0  0  0
   -7.4525    1.3998   -0.4112 H   0  0  0  0  0  0  0  0  0  0  0  0
   -6.8717    1.8551   -2.7548 H   0  0  0  0  0  0  0  0  0  0  0  0
   -4.5176    1.6683   -3.5099 H   0  0  0  0  0  0  0  0  0  0  0  0
   -2.7670    1.0311   -1.9552 H   0  0  0  0  0  0  0  0  0  0  0  0
    6.8316    1.0256   -1.3979 H   0  0  0  0  0  0  0  0  0  0  0  0
    8.4626    0.5173   -1.2937 H   0  0  0  0  0  0  0  0  0  0  0  0
  1  2  1  0
  2  3  2  0
  3  4  1  0
  4  5  2  0
  4  6  1  0
  6  7  1  0
  7  8  2  3
  8  9  1  0
  9 10  2  0
 10 11  1  0
 10 12  1  0
 12 13  2  0
 13 14  1  0
 14 15  2  0
 15 16  1  0
 16 17  2  0
 17 18  1  0
 18 19  2  0
  3 20  1  0
 20 21  2  0
 21 22  1  0
 22 23  1  0
 23 24  2  0
 24 25  1  0
 25 26  1  0
 26 27  2  0
 27 28  1  0
 22  2  1  0
 27 23  1  0
 19  9  1  0
 19 14  1  0
  1 29  1  0
  1 30  1  0
  1 31  1  0
  6 32  1  0
  8 33  1  0
 11 34  1  0
 12 35  1  0
 13 36  1  0
 15 37  1  0
 16 38  1  0
 17 39  1  0
 18 40  1  0
 28 41  1  0
 28 42  1  0
M  END
$$$$
