
     RDKit          3D

 38 39  0  0  0  0  0  0  0  0999 V2000
   -0.1171   -2.4968   -0.3746 C   0  0  0  0  0  0  0  0  0  0  0  0
   -0.7769   -1.3130   -0.9138 N   0  0  0  0  0  0  0  0  0  0  0  0
   -2.1722   -1.4639   -1.3520 C   0  0  0  0  0  0  0  0  0  0  0  0
   -3.1886   -1.5400   -0.2063 C   0  0  0  0  0  0  0  0  0  0  0  0
   -3.5388   -0.1978    0.3815 C   0  0  0  0  0  0  0  0  0  0  0  0
   -2.7066    0.4131    1.3173 C   0  0  0  0  0  0  0  0  0  0  0  0
   -3.0705    1.6532    1.8339 C   0  0  0  0  0  0  0  0  0  0  0  0
   -4.2496    2.2491    1.4052 C   0  0  0  0  0  0  0  0  0  0  0  0
   -5.0217    1.5735    0.4756 C   0  0  0  0  0  0  0  0  0  0  0  0
   -4.6989    0.3657   -0.0378 N   0  0  0  0  0  0  0  0  0  0  0  0
   -0.1445   -0.0872   -1.1296 C   0  0  0  0  0  0  0  0  0  0  0  0
   -0.7205    0.9244   -1.5178 O   0  0  0  0  0  0  0  0  0  0  0  0
    1.3081    0.0271   -0.8805 C   0  0  0  0  0  0  0  0  0  0  0  0
    2.2214   -0.7327   -1.6136 C   0  0  0  0  0  0  0  0  0  0  0  0
    3.5887   -0.5828   -1.3723 C   0  0  0  0  0  0  0  0  0  0  0  0
    4.0533    0.3324   -0.4186 C   0  0  0  0  0  0  0  0  0  0  0  0
    5.4125    0.3701   -0.2934 O   0  0  0  0  0  0  0  0  0  0  0  0
    5.9671    1.2745    0.6471 C   0  0  0  0  0  0  0  0  0  0  0  0
    7.3133    1.1593    0.6176 F   0  0  0  0  0  0  0  0  0  0  0  0
    5.5499    0.9889    1.8997 F   0  0  0  0  0  0  0  0  0  0  0  0
    5.6483    2.5510    0.3461 F   0  0  0  0  0  0  0  0  0  0  0  0
    3.1320    1.1074    0.2911 C   0  0  0  0  0  0  0  0  0  0  0  0
    1.7605    0.9604    0.0549 C   0  0  0  0  0  0  0  0  0  0  0  0
   -0.8124   -3.0604    0.2525 H   0  0  0  0  0  0  0  0  0  0  0  0
    0.2017   -3.1257   -1.2111 H   0  0  0  0  0  0  0  0  0  0  0  0
    0.7482   -2.2326    0.2366 H   0  0  0  0  0  0  0  0  0  0  0  0
   -2.2137   -2.3941   -1.9335 H   0  0  0  0  0  0  0  0  0  0  0  0
   -2.4418   -0.6542   -2.0411 H   0  0  0  0  0  0  0  0  0  0  0  0
   -2.8529   -2.2088    0.5936 H   0  0  0  0  0  0  0  0  0  0  0  0
   -4.1117   -1.9829   -0.6013 H   0  0  0  0  0  0  0  0  0  0  0  0
   -1.7840   -0.0614    1.6333 H   0  0  0  0  0  0  0  0  0  0  0  0
   -2.4342    2.1529    2.5575 H   0  0  0  0  0  0  0  0  0  0  0  0
   -4.5574    3.2184    1.7809 H   0  0  0  0  0  0  0  0  0  0  0  0
   -5.9499    1.9982    0.1056 H   0  0  0  0  0  0  0  0  0  0  0  0
    1.8769   -1.4276   -2.3741 H   0  0  0  0  0  0  0  0  0  0  0  0
    4.2992   -1.1788   -1.9404 H   0  0  0  0  0  0  0  0  0  0  0  0
    3.4375    1.8429    1.0303 H   0  0  0  0  0  0  0  0  0  0  0  0
    1.0453    1.5785    0.5942 H   0  0  0  0  0  0  0  0  0  0  0  0
  1  2  1  0
  2  3  1  0
  3  4  1  0
  4  5  1  0
  5  6  2  0
  6  7  1  0
  7  8  2  0
  8  9  1  0
  9 10  2  0
  2 11  1  0
 11 12  2  0
 11 13  1  0
 13 14  2  0
 14 15  1  0
 15 16  2  0
 16 17  1  0
 17 18  1  0
 18 19  1  0
 18 20  1  0
 18 21  1  0
 16 22  1  0
 22 23  2  0
 10  5  1  0
 23 13  1  0
  1 24  1  0
  1 25  1  0
  1 26  1  0
  3 27  1  0
  3 28  1  0
  4 29  1  0
  4 30  1  0
  6 31  1  0
  7 32  1  0
  8 33  1  0
  9 34  1  0
 14 35  1  0
 15 36  1  0
 22 37  1  0
 23 38  1  0
M  END
$$$$
