
     RDKit          3D

 54 57  0  0  0  0  0  0  0  0999 V2000
   -3.8135   -5.9587    1.1508 C   0  0  0  0  0  0  0  0  0  0  0  0
   -2.8958   -5.4388    0.1966 O   0  0  0  0  0  0  0  0  0  0  0  0
   -2.5739   -4.1140    0.3029 C   0  0  0  0  0  0  0  0  0  0  0  0
   -1.6951   -3.6489   -0.6812 C   0  0  0  0  0  0  0  0  0  0  0  0
   -1.2804   -2.3163   -0.6932 C   0  0  0  0  0  0  0  0  0  0  0  0
   -1.7266   -1.4488    0.3047 C   0  0  0  0  0  0  0  0  0  0  0  0
   -1.3018   -0.0294    0.2692 C   0  0  0  0  0  0  0  0  0  0  0  0
   -1.6717    0.6631   -0.7615 N   0  0  0  0  0  0  0  0  0  0  0  0
   -1.3025    2.0088   -0.8351 C   0  0  0  0  0  0  0  0  0  0  0  0
   -1.6382    2.7388   -1.9780 C   0  0  0  0  0  0  0  0  0  0  0  0
   -1.2950    4.0892   -2.0878 C   0  0  0  0  0  0  0  0  0  0  0  0
   -0.6131    4.7228   -1.0497 C   0  0  0  0  0  0  0  0  0  0  0  0
   -0.2756    4.0046    0.0964 C   0  0  0  0  0  0  0  0  0  0  0  0
   -0.6237    2.6517    0.1936 C   0  0  0  0  0  0  0  0  0  0  0  0
   -0.2657    1.8568    1.3788 C   0  0  0  0  0  0  0  0  0  0  0  0
    0.2327    2.4238    2.3493 O   0  0  0  0  0  0  0  0  0  0  0  0
   -0.5451    0.4890    1.3203 N   0  0  0  0  0  0  0  0  0  0  0  0
    0.0552   -0.3434    2.3780 C   0  0  0  0  0  0  0  0  0  0  0  0
    1.2559   -1.1827    1.9039 C   0  0  0  0  0  0  0  0  0  0  0  0
    2.4565   -0.4162    1.7622 O   0  0  0  0  0  0  0  0  0  0  0  0
    2.6069    0.3225    0.6187 C   0  0  0  0  0  0  0  0  0  0  0  0
    2.1889   -0.1036   -0.6454 C   0  0  0  0  0  0  0  0  0  0  0  0
    2.3478    0.7195   -1.7690 C   0  0  0  0  0  0  0  0  0  0  0  0
    1.8287    0.2852   -3.1076 C   0  0  0  0  0  0  0  0  0  0  0  0
    2.9408    1.9749   -1.6149 C   0  0  0  0  0  0  0  0  0  0  0  0
    3.4026    2.3866   -0.3648 C   0  0  0  0  0  0  0  0  0  0  0  0
    3.2505    1.5627    0.7587 C   0  0  0  0  0  0  0  0  0  0  0  0
    3.7489    2.0254    2.0991 C   0  0  0  0  0  0  0  0  0  0  0  0
   -2.6318   -1.8938    1.2716 C   0  0  0  0  0  0  0  0  0  0  0  0
   -3.0465   -3.2299    1.2758 C   0  0  0  0  0  0  0  0  0  0  0  0
   -4.7825   -5.4530    1.0839 H   0  0  0  0  0  0  0  0  0  0  0  0
   -3.9732   -7.0162    0.9193 H   0  0  0  0  0  0  0  0  0  0  0  0
   -3.4030   -5.8980    2.1640 H   0  0  0  0  0  0  0  0  0  0  0  0
   -1.3412   -4.3306   -1.4517 H   0  0  0  0  0  0  0  0  0  0  0  0
   -0.6193   -1.9594   -1.4787 H   0  0  0  0  0  0  0  0  0  0  0  0
   -2.1722    2.2468   -2.7867 H   0  0  0  0  0  0  0  0  0  0  0  0
   -1.5620    4.6443   -2.9835 H   0  0  0  0  0  0  0  0  0  0  0  0
   -0.3437    5.7726   -1.1330 H   0  0  0  0  0  0  0  0  0  0  0  0
    0.2626    4.4907    0.9066 H   0  0  0  0  0  0  0  0  0  0  0  0
   -0.7109   -1.0127    2.7755 H   0  0  0  0  0  0  0  0  0  0  0  0
    0.3785    0.2868    3.2136 H   0  0  0  0  0  0  0  0  0  0  0  0
    1.4753   -1.9054    2.6995 H   0  0  0  0  0  0  0  0  0  0  0  0
    1.0371   -1.7888    1.0227 H   0  0  0  0  0  0  0  0  0  0  0  0
    1.7446   -1.0821   -0.7847 H   0  0  0  0  0  0  0  0  0  0  0  0
    1.8590   -0.8055   -3.2047 H   0  0  0  0  0  0  0  0  0  0  0  0
    2.4397    0.7001   -3.9165 H   0  0  0  0  0  0  0  0  0  0  0  0
    0.7951    0.6218   -3.2354 H   0  0  0  0  0  0  0  0  0  0  0  0
    3.0538    2.6390   -2.4687 H   0  0  0  0  0  0  0  0  0  0  0  0
    3.8754    3.3614   -0.2704 H   0  0  0  0  0  0  0  0  0  0  0  0
    4.4922    1.3223    2.4888 H   0  0  0  0  0  0  0  0  0  0  0  0
    4.2270    3.0084    2.0323 H   0  0  0  0  0  0  0  0  0  0  0  0
    2.9209    2.1067    2.8098 H   0  0  0  0  0  0  0  0  0  0  0  0
   -3.0268   -1.2049    2.0142 H   0  0  0  0  0  0  0  0  0  0  0  0
   -3.7460   -3.5452    2.0433 H   0  0  0  0  0  0  0  0  0  0  0  0
  1  2  1  0
  2  3  1  0
  3  4  2  0
  4  5  1  0
  5  6  2  0
  6  7  1  0
  7  8  2  0
  8  9  1  0
  9 10  2  0
 10 11  1  0
 11 12  2  0
 12 13  1  0
 13 14  2  0
 14 15  1  0
 15 16  2  0
 15 17  1  0
 17 18  1  0
 18 19  1  0
 19 20  1  0
 20 21  1  0
 21 22  2  0
 22 23  1  0
 23 24  1  0
 23 25  2  0
 25 26  1  0
 26 27  2  0
 27 28  1  0
  6 29  1  0
 29 30  2  0
 30  3  1  0
 17  7  1  0
 27 21  1  0
 14  9  1  0
  1 31  1  0
  1 32  1  0
  1 33  1  0
  4 34  1  0
  5 35  1  0
 10 36  1  0
 11 37  1  0
 12 38  1  0
 13 39  1  0
 18 40  1  0
 18 41  1  0
 19 42  1  0
 19 43  1  0
 22 44  1  0
 24 45  1  0
 24 46  1  0
 24 47  1  0
 25 48  1  0
 26 49  1  0
 28 50  1  0
 28 51  1  0
 28 52  1  0
 29 53  1  0
 30 54  1  0
M  END
$$$$
