
     RDKit          3D

 35 37  0  0  0  0  0  0  0  0999 V2000
   -1.3819   -1.2095    1.9892 C   0  0  0  0  0  0  0  0  0  0  0  0
   -1.4772   -0.2812    0.7809 C   0  0  0  0  0  0  0  0  0  0  0  0
   -2.5383   -0.7239   -0.0638 O   0  0  0  0  0  0  0  0  0  0  0  0
   -3.7570   -0.1171    0.0367 C   0  0  0  0  0  0  0  0  0  0  0  0
   -4.2221    0.6199    1.1264 C   0  0  0  0  0  0  0  0  0  0  0  0
   -5.5060    1.1766    1.1010 C   0  0  0  0  0  0  0  0  0  0  0  0
   -6.3249    0.9882   -0.0109 C   0  0  0  0  0  0  0  0  0  0  0  0
   -8.0578    1.7415   -0.0394 Br  0  0  0  0  0  0  0  0  0  0  0  0
   -5.8752    0.2433   -1.0968 C   0  0  0  0  0  0  0  0  0  0  0  0
   -4.5937   -0.3108   -1.0666 C   0  0  0  0  0  0  0  0  0  0  0  0
   -0.1469   -0.3278   -0.0088 C   0  0  0  0  0  0  0  0  0  0  0  0
   -0.0636   -0.8483   -1.1169 O   0  0  0  0  0  0  0  0  0  0  0  0
    0.8871    0.2843    0.6752 N   0  0  0  0  0  0  0  0  0  0  0  0
    2.1908    0.4097    0.2637 C   0  0  0  0  0  0  0  0  0  0  0  0
    3.0875    1.0340    0.9969 N   0  0  0  0  0  0  0  0  0  0  0  0
    4.3334    1.0424    0.3989 N   0  0  0  0  0  0  0  0  0  0  0  0
    4.3146    0.4137   -0.7552 C   0  0  0  0  0  0  0  0  0  0  0  0
    5.5834    0.2777   -1.6512 C   0  0  0  0  0  0  0  0  0  0  0  0
    6.2390   -1.0715   -1.8029 C   0  0  0  0  0  0  0  0  0  0  0  0
    6.9162    0.0020   -1.0023 C   0  0  0  0  0  0  0  0  0  0  0  0
    2.7916   -0.2163   -1.2021 S   0  0  0  0  0  0  0  0  0  0  0  0
   -2.3305   -1.2529    2.5331 H   0  0  0  0  0  0  0  0  0  0  0  0
   -1.1542   -2.2337    1.6715 H   0  0  0  0  0  0  0  0  0  0  0  0
   -0.6004   -0.8915    2.6860 H   0  0  0  0  0  0  0  0  0  0  0  0
   -1.6147    0.7632    1.0880 H   0  0  0  0  0  0  0  0  0  0  0  0
   -3.6238    0.7671    2.0186 H   0  0  0  0  0  0  0  0  0  0  0  0
   -5.8589    1.7485    1.9554 H   0  0  0  0  0  0  0  0  0  0  0  0
   -6.5070    0.0855   -1.9664 H   0  0  0  0  0  0  0  0  0  0  0  0
   -4.2395   -0.8953   -1.9134 H   0  0  0  0  0  0  0  0  0  0  0  0
    0.7168    0.7196    1.5712 H   0  0  0  0  0  0  0  0  0  0  0  0
    5.5848    0.9358   -2.5135 H   0  0  0  0  0  0  0  0  0  0  0  0
    5.8276   -1.9179   -1.2643 H   0  0  0  0  0  0  0  0  0  0  0  0
    6.6560   -1.3244   -2.7710 H   0  0  0  0  0  0  0  0  0  0  0  0
    6.9530   -0.1117    0.0758 H   0  0  0  0  0  0  0  0  0  0  0  0
    7.7917    0.4808   -1.4251 H   0  0  0  0  0  0  0  0  0  0  0  0
  1  2  1  0
  2  3  1  0
  3  4  1  0
  4  5  2  0
  5  6  1  0
  6  7  2  0
  7  8  1  0
  7  9  1  0
  9 10  2  0
  2 11  1  0
 11 12  2  0
 11 13  1  0
 13 14  1  0
 14 15  2  0
 15 16  1  0
 16 17  2  0
 17 18  1  0
 18 19  1  0
 19 20  1  0
 17 21  1  0
 10  4  1  0
 21 14  1  0
 20 18  1  0
  1 22  1  0
  1 23  1  0
  1 24  1  0
  2 25  1  0
  5 26  1  0
  6 27  1  0
  9 28  1  0
 10 29  1  0
 13 30  1  0
 18 31  1  0
 19 32  1  0
 19 33  1  0
 20 34  1  0
 20 35  1  0
M  END
$$$$
