
     RDKit          3D

 51 55  0  0  0  0  0  0  0  0999 V2000
    2.2283   -1.2562   -2.6986 O   0  0  0  0  0  0  0  0  0  0  0  0
    1.3123   -1.1013   -1.8932 C   0  0  0  0  0  0  0  0  0  0  0  0
   -0.1445   -1.2561   -2.3598 C   0  0  0  0  0  0  0  0  0  0  0  0
   -1.1862   -0.7533   -1.4460 N   0  0  0  0  0  0  0  0  0  0  0  0
   -1.7230   -1.6381   -0.5134 C   0  0  0  0  0  0  0  0  0  0  0  0
   -1.3626   -2.8132   -0.4324 O   0  0  0  0  0  0  0  0  0  0  0  0
   -2.6983   -1.0815    0.4946 C   0  0  0  0  0  0  0  0  0  0  0  0
   -4.1215   -1.1278   -0.0335 C   0  0  0  0  0  0  0  0  0  0  0  0
   -5.0866   -0.4992    0.9216 C   0  0  0  0  0  0  0  0  0  0  0  0
   -6.3194   -0.8894    1.4079 C   0  0  0  0  0  0  0  0  0  0  0  0
   -6.7508    0.1386    2.2790 C   0  0  0  0  0  0  0  0  0  0  0  0
   -5.7577    1.0889    2.2726 C   0  0  0  0  0  0  0  0  0  0  0  0
   -4.7437    0.7119    1.4531 O   0  0  0  0  0  0  0  0  0  0  0  0
   -4.3509   -0.4012   -1.7007 S   0  0  0  0  0  0  0  0  0  0  0  0
   -3.0767    0.8576   -1.7060 C   0  0  0  0  0  0  0  0  0  0  0  0
   -3.5092    2.1763   -1.9166 C   0  0  0  0  0  0  0  0  0  0  0  0
   -2.5894    3.2067   -2.1039 C   0  0  0  0  0  0  0  0  0  0  0  0
   -1.2287    2.9239   -2.1097 C   0  0  0  0  0  0  0  0  0  0  0  0
   -0.7841    1.6143   -1.9101 C   0  0  0  0  0  0  0  0  0  0  0  0
   -1.6936    0.5673   -1.6799 C   0  0  0  0  0  0  0  0  0  0  0  0
    1.4570   -0.8334   -0.5448 N   0  0  0  0  0  0  0  0  0  0  0  0
    2.6486   -0.6163    0.1751 C   0  0  0  0  0  0  0  0  0  0  0  0
    2.5231   -0.3753    1.5521 C   0  0  0  0  0  0  0  0  0  0  0  0
    3.6514   -0.1351    2.3419 C   0  0  0  0  0  0  0  0  0  0  0  0
    4.9149   -0.1331    1.7602 C   0  0  0  0  0  0  0  0  0  0  0  0
    5.0511   -0.3976    0.3947 C   0  0  0  0  0  0  0  0  0  0  0  0
    3.9223   -0.6238   -0.3978 C   0  0  0  0  0  0  0  0  0  0  0  0
    6.2675   -0.4343   -0.2403 O   0  0  0  0  0  0  0  0  0  0  0  0
    7.3374   -0.5694    0.7007 C   0  0  0  0  0  0  0  0  0  0  0  0
    7.1653    0.4184    1.8425 C   0  0  0  0  0  0  0  0  0  0  0  0
    5.9753    0.1297    2.5889 O   0  0  0  0  0  0  0  0  0  0  0  0
   -0.3082   -2.3255   -2.5377 H   0  0  0  0  0  0  0  0  0  0  0  0
   -0.2474   -0.7511   -3.3284 H   0  0  0  0  0  0  0  0  0  0  0  0
   -2.3805   -0.0798    0.8103 H   0  0  0  0  0  0  0  0  0  0  0  0
   -2.6214   -1.6929    1.4051 H   0  0  0  0  0  0  0  0  0  0  0  0
   -4.4054   -2.1820   -0.1480 H   0  0  0  0  0  0  0  0  0  0  0  0
   -6.8448   -1.8006    1.1531 H   0  0  0  0  0  0  0  0  0  0  0  0
   -7.6733    0.1903    2.8387 H   0  0  0  0  0  0  0  0  0  0  0  0
   -5.6297    2.0416    2.7673 H   0  0  0  0  0  0  0  0  0  0  0  0
   -4.5723    2.4076   -1.9545 H   0  0  0  0  0  0  0  0  0  0  0  0
   -2.9380    4.2249   -2.2655 H   0  0  0  0  0  0  0  0  0  0  0  0
   -0.5082    3.7236   -2.2690 H   0  0  0  0  0  0  0  0  0  0  0  0
    0.2897    1.4458   -1.9059 H   0  0  0  0  0  0  0  0  0  0  0  0
    0.5995   -0.8051   -0.0082 H   0  0  0  0  0  0  0  0  0  0  0  0
    1.5463   -0.3653    2.0299 H   0  0  0  0  0  0  0  0  0  0  0  0
    3.5430    0.0618    3.4046 H   0  0  0  0  0  0  0  0  0  0  0  0
    4.0753   -0.8117   -1.4554 H   0  0  0  0  0  0  0  0  0  0  0  0
    7.3570   -1.6054    1.0627 H   0  0  0  0  0  0  0  0  0  0  0  0
    8.2765   -0.3780    0.1695 H   0  0  0  0  0  0  0  0  0  0  0  0
    7.1017    1.4514    1.4767 H   0  0  0  0  0  0  0  0  0  0  0  0
    8.0127    0.3519    2.5318 H   0  0  0  0  0  0  0  0  0  0  0  0
  1  2  2  0
  2  3  1  0
  3  4  1  0
  4  5  1  0
  5  6  2  0
  5  7  1  0
  7  8  1  0
  8  9  1  0
  9 10  2  0
 10 11  1  0
 11 12  2  0
 12 13  1  0
  8 14  1  0
 14 15  1  0
 15 16  2  0
 16 17  1  0
 17 18  2  0
 18 19  1  0
 19 20  2  0
  2 21  1  0
 21 22  1  0
 22 23  2  0
 23 24  1  0
 24 25  2  0
 25 26  1  0
 26 27  2  0
 26 28  1  0
 28 29  1  0
 29 30  1  0
 30 31  1  0
 20  4  1  0
 27 22  1  0
 13  9  1  0
 20 15  1  0
 31 25  1  0
  3 32  1  0
  3 33  1  0
  7 34  1  0
  7 35  1  0
  8 36  1  0
 10 37  1  0
 11 38  1  0
 12 39  1  0
 16 40  1  0
 17 41  1  0
 18 42  1  0
 19 43  1  0
 21 44  1  0
 23 45  1  0
 24 46  1  0
 27 47  1  0
 29 48  1  0
 29 49  1  0
 30 50  1  0
 30 51  1  0
M  END
$$$$
