
     RDKit          3D

 32 32  0  0  0  0  0  0  0  0999 V2000
   -2.8657    1.8634   -5.4307 C   0  0  0  0  0  0  0  0  0  0  0  0
   -2.0902    1.6110   -4.5486 C   0  0  0  0  0  0  0  0  0  0  0  0
   -1.1359    1.2994   -3.4709 C   0  0  0  0  0  0  0  0  0  0  0  0
   -1.8226    0.9528   -2.2217 N   0  0  0  0  0  0  0  0  0  0  0  0
   -2.4605    2.1141   -1.6025 C   0  0  0  0  0  0  0  0  0  0  0  0
   -0.9538    0.2290   -1.2787 C   0  0  0  0  0  0  0  0  0  0  0  0
    0.2833    0.9873   -0.7715 C   0  0  0  0  0  0  0  0  0  0  0  0
    1.1328    0.1212    0.1584 C   0  0  0  0  0  0  0  0  0  0  0  0
    0.3736   -0.1804    1.3358 O   0  0  0  0  0  0  0  0  0  0  0  0
    1.0455   -1.0790    2.1237 C   0  0  0  0  0  0  0  0  0  0  0  0
    1.9604   -0.5889    3.0578 C   0  0  0  0  0  0  0  0  0  0  0  0
    2.6261   -1.4804    3.8967 C   0  0  0  0  0  0  0  0  0  0  0  0
    3.7658   -0.8866    5.0402 Cl  0  0  0  0  0  0  0  0  0  0  0  0
    2.3745   -2.8508    3.8193 C   0  0  0  0  0  0  0  0  0  0  0  0
    1.4416   -3.3360    2.8986 C   0  0  0  0  0  0  0  0  0  0  0  0
    0.7698   -2.4496    2.0542 C   0  0  0  0  0  0  0  0  0  0  0  0
   -0.3836   -3.0814    0.9387 Cl  0  0  0  0  0  0  0  0  0  0  0  0
   -3.5609    2.0812   -6.2080 H   0  0  0  0  0  0  0  0  0  0  0  0
   -0.5318    0.4479   -3.8095 H   0  0  0  0  0  0  0  0  0  0  0  0
   -0.4473    2.1412   -3.3293 H   0  0  0  0  0  0  0  0  0  0  0  0
   -3.2459    2.5226   -2.2474 H   0  0  0  0  0  0  0  0  0  0  0  0
   -1.7492    2.9184   -1.3859 H   0  0  0  0  0  0  0  0  0  0  0  0
   -2.9545    1.8306   -0.6662 H   0  0  0  0  0  0  0  0  0  0  0  0
   -0.6294   -0.7044   -1.7574 H   0  0  0  0  0  0  0  0  0  0  0  0
   -1.5650   -0.0893   -0.4244 H   0  0  0  0  0  0  0  0  0  0  0  0
    0.9083    1.3060   -1.6125 H   0  0  0  0  0  0  0  0  0  0  0  0
   -0.0320    1.8840   -0.2262 H   0  0  0  0  0  0  0  0  0  0  0  0
    2.0338    0.6809    0.4384 H   0  0  0  0  0  0  0  0  0  0  0  0
    1.4361   -0.7967   -0.3613 H   0  0  0  0  0  0  0  0  0  0  0  0
    2.1431    0.4792    3.1305 H   0  0  0  0  0  0  0  0  0  0  0  0
    2.8936   -3.5440    4.4768 H   0  0  0  0  0  0  0  0  0  0  0  0
    1.2397   -4.4032    2.8489 H   0  0  0  0  0  0  0  0  0  0  0  0
  1  2  3  0
  2  3  1  0
  3  4  1  0
  4  5  1  0
  4  6  1  0
  6  7  1  0
  7  8  1  0
  8  9  1  0
  9 10  1  0
 10 11  2  0
 11 12  1  0
 12 13  1  0
 12 14  2  0
 14 15  1  0
 15 16  2  0
 16 17  1  0
 16 10  1  0
  1 18  1  0
  3 19  1  0
  3 20  1  0
  5 21  1  0
  5 22  1  0
  5 23  1  0
  6 24  1  0
  6 25  1  0
  7 26  1  0
  7 27  1  0
  8 28  1  0
  8 29  1  0
 11 30  1  0
 14 31  1  0
 15 32  1  0
M  END
$$$$
