
     RDKit          3D

 60 65  0  0  0  0  0  0  0  0999 V2000
    1.9027    1.8088    3.4183 O   0  0  0  0  0  0  0  0  0  0  0  0
    2.2692    0.9675    2.6062 C   0  0  0  0  0  0  0  0  0  0  0  0
    1.3793    0.1718    1.8956 N   0  0  0  0  0  0  0  0  0  0  0  0
    1.7596   -0.7872    0.9573 C   0  0  0  0  0  0  0  0  0  0  0  0
    0.6283   -1.5440    0.2723 C   0  0  0  0  0  0  0  0  0  0  0  0
   -0.2194   -0.5526   -0.5479 C   0  0  0  0  0  0  0  0  0  0  0  0
   -1.6435   -1.0140   -0.8089 C   0  0  0  0  0  0  0  0  0  0  0  0
   -2.2701   -1.5639    0.4142 N   0  0  0  0  0  0  0  0  0  0  0  0
   -2.7362   -0.4765    1.6488 S   0  0  0  0  0  6  0  0  0  0  0  0
   -1.5625    0.3055    1.9942 O   0  0  0  0  0  0  0  0  0  0  0  0
   -3.4469   -1.2258    2.6606 O   0  0  0  0  0  0  0  0  0  0  0  0
   -3.9082    0.5764    0.8418 C   0  0  0  0  0  0  0  0  0  0  0  0
   -3.6532    1.9457    0.7141 C   0  0  0  0  0  0  0  0  0  0  0  0
   -4.5912    2.7597    0.0773 C   0  0  0  0  0  0  0  0  0  0  0  0
   -5.7714    2.2052   -0.4186 C   0  0  0  0  0  0  0  0  0  0  0  0
   -6.0079    0.8295   -0.3057 C   0  0  0  0  0  0  0  0  0  0  0  0
   -5.0855    0.0124    0.3413 C   0  0  0  0  0  0  0  0  0  0  0  0
   -7.1301    0.2172   -0.8010 O   0  0  0  0  0  0  0  0  0  0  0  0
   -7.8389    1.0703   -1.7077 C   0  0  0  0  0  0  0  0  0  0  0  0
   -7.9520    2.4782   -1.1466 C   0  0  0  0  0  0  0  0  0  0  0  0
   -6.6547    3.0709   -1.0110 O   0  0  0  0  0  0  0  0  0  0  0  0
   -1.5344   -2.7634    0.8800 C   0  0  0  0  0  0  0  0  0  0  0  0
   -0.1293   -2.3838    1.3169 C   0  0  0  0  0  0  0  0  0  0  0  0
    2.9972   -1.0586    0.6435 N   0  0  0  0  0  0  0  0  0  0  0  0
    3.8862   -0.2927    1.3236 C   0  0  0  0  0  0  0  0  0  0  0  0
    3.6361    0.6792    2.2627 C   0  0  0  0  0  0  0  0  0  0  0  0
    4.8008    1.2185    2.7163 N   0  0  0  0  0  0  0  0  0  0  0  0
    5.7972    0.6053    2.0771 N   0  0  0  0  0  0  0  0  0  0  0  0
    5.2479   -0.2948    1.2246 N   0  0  0  0  0  0  0  0  0  0  0  0
    6.0833   -1.1377    0.3963 C   0  0  0  0  0  0  0  0  0  0  0  0
    6.2386   -0.5677   -0.9931 C   0  0  0  0  0  0  0  0  0  0  0  0
    5.4333   -1.0310   -2.0468 C   0  0  0  0  0  0  0  0  0  0  0  0
    5.5696   -0.4939   -3.3276 C   0  0  0  0  0  0  0  0  0  0  0  0
    6.5046    0.5088   -3.5552 C   0  0  0  0  0  0  0  0  0  0  0  0
    6.6322    1.0235   -4.7851 F   0  0  0  0  0  0  0  0  0  0  0  0
    7.3049    0.9880   -2.5252 C   0  0  0  0  0  0  0  0  0  0  0  0
    7.1717    0.4526   -1.2434 C   0  0  0  0  0  0  0  0  0  0  0  0
    0.3955    0.3442    2.0990 H   0  0  0  0  0  0  0  0  0  0  0  0
    1.0761   -2.2493   -0.4417 H   0  0  0  0  0  0  0  0  0  0  0  0
   -0.2480    0.4376   -0.0817 H   0  0  0  0  0  0  0  0  0  0  0  0
    0.2784   -0.3773   -1.5108 H   0  0  0  0  0  0  0  0  0  0  0  0
   -2.2443   -0.1977   -1.2215 H   0  0  0  0  0  0  0  0  0  0  0  0
   -1.6437   -1.7965   -1.5785 H   0  0  0  0  0  0  0  0  0  0  0  0
   -2.7425    2.3875    1.1123 H   0  0  0  0  0  0  0  0  0  0  0  0
   -4.4123    3.8279   -0.0186 H   0  0  0  0  0  0  0  0  0  0  0  0
   -5.2798   -1.0523    0.4458 H   0  0  0  0  0  0  0  0  0  0  0  0
   -7.3152    1.0637   -2.6715 H   0  0  0  0  0  0  0  0  0  0  0  0
   -8.8343    0.6408   -1.8573 H   0  0  0  0  0  0  0  0  0  0  0  0
   -8.4428    2.4826   -0.1655 H   0  0  0  0  0  0  0  0  0  0  0  0
   -8.5359    3.1102   -1.8229 H   0  0  0  0  0  0  0  0  0  0  0  0
   -2.0779   -3.2542    1.6944 H   0  0  0  0  0  0  0  0  0  0  0  0
   -1.4926   -3.4945    0.0631 H   0  0  0  0  0  0  0  0  0  0  0  0
    0.4428   -3.2982    1.5214 H   0  0  0  0  0  0  0  0  0  0  0  0
   -0.1818   -1.8697    2.2831 H   0  0  0  0  0  0  0  0  0  0  0  0
    5.6333   -2.1366    0.3681 H   0  0  0  0  0  0  0  0  0  0  0  0
    7.0602   -1.2413    0.8829 H   0  0  0  0  0  0  0  0  0  0  0  0
    4.6900   -1.8072   -1.8729 H   0  0  0  0  0  0  0  0  0  0  0  0
    4.9520   -0.8470   -4.1471 H   0  0  0  0  0  0  0  0  0  0  0  0
    8.0227    1.7777   -2.7244 H   0  0  0  0  0  0  0  0  0  0  0  0
    7.7929    0.8421   -0.4376 H   0  0  0  0  0  0  0  0  0  0  0  0
  1  2  2  0
  2  3  1  0
  3  4  1  0
  4  5  1  0
  5  6  1  0
  6  7  1  0
  7  8  1  0
  8  9  1  0
  9 10  2  0
  9 11  2  0
  9 12  1  0
 12 13  2  0
 13 14  1  0
 14 15  2  0
 15 16  1  0
 16 17  2  0
 16 18  1  0
 18 19  1  0
 19 20  1  0
 20 21  1  0
  8 22  1  0
 22 23  1  0
  4 24  2  0
 24 25  1  0
 25 26  2  0
 26 27  1  0
 27 28  2  0
 28 29  1  0
 29 30  1  0
 30 31  1  0
 31 32  2  0
 32 33  1  0
 33 34  2  0
 34 35  1  0
 34 36  1  0
 36 37  2  0
 26  2  1  0
 37 31  1  0
 23  5  1  0
 29 25  1  0
 17 12  1  0
 21 15  1  0
  3 38  1  0
  5 39  1  0
  6 40  1  0
  6 41  1  0
  7 42  1  0
  7 43  1  0
 13 44  1  0
 14 45  1  0
 17 46  1  0
 19 47  1  0
 19 48  1  0
 20 49  1  0
 20 50  1  0
 22 51  1  0
 22 52  1  0
 23 53  1  0
 23 54  1  0
 30 55  1  0
 30 56  1  0
 32 57  1  0
 33 58  1  0
 36 59  1  0
 37 60  1  0
M  END
$$$$
