
     RDKit          3D

 38 39  0  0  0  0  0  0  0  0999 V2000
   -0.5995    1.6852    0.9029 C   0  0  0  0  0  0  0  0  0  0  0  0
   -0.7320    1.5614   -0.5442 N   0  0  0  0  0  0  0  0  0  0  0  0
   -2.0079    1.9870   -1.1307 C   0  0  0  0  0  0  0  0  0  0  0  0
   -2.9081    0.8281   -1.5719 C   0  0  0  0  0  0  0  0  0  0  0  0
   -3.3640   -0.0285   -0.4193 C   0  0  0  0  0  0  0  0  0  0  0  0
   -2.9747   -1.3636   -0.3351 C   0  0  0  0  0  0  0  0  0  0  0  0
   -3.4161   -2.1265    0.7421 C   0  0  0  0  0  0  0  0  0  0  0  0
   -4.2340   -1.5418    1.7006 C   0  0  0  0  0  0  0  0  0  0  0  0
   -4.5778   -0.2106    1.5412 C   0  0  0  0  0  0  0  0  0  0  0  0
   -4.1611    0.5560    0.5095 N   0  0  0  0  0  0  0  0  0  0  0  0
    0.2305    1.0220   -1.3937 C   0  0  0  0  0  0  0  0  0  0  0  0
    0.1336    1.0347   -2.6192 O   0  0  0  0  0  0  0  0  0  0  0  0
    1.4274    0.3742   -0.8150 C   0  0  0  0  0  0  0  0  0  0  0  0
    1.3041   -0.7084    0.0587 C   0  0  0  0  0  0  0  0  0  0  0  0
    2.4541   -1.3209    0.5612 C   0  0  0  0  0  0  0  0  0  0  0  0
    3.7275   -0.8735    0.1862 C   0  0  0  0  0  0  0  0  0  0  0  0
    4.7561   -1.5669    0.7570 O   0  0  0  0  0  0  0  0  0  0  0  0
    6.0793   -1.1713    0.4378 C   0  0  0  0  0  0  0  0  0  0  0  0
    6.3092    0.1056    0.8116 F   0  0  0  0  0  0  0  0  0  0  0  0
    6.3237   -1.3070   -0.8828 F   0  0  0  0  0  0  0  0  0  0  0  0
    6.9420   -1.9664    1.1086 F   0  0  0  0  0  0  0  0  0  0  0  0
    3.8409    0.1933   -0.7089 C   0  0  0  0  0  0  0  0  0  0  0  0
    2.6921    0.8116   -1.2153 C   0  0  0  0  0  0  0  0  0  0  0  0
    0.4444    1.6373    1.2192 H   0  0  0  0  0  0  0  0  0  0  0  0
   -1.1640    0.8823    1.3834 H   0  0  0  0  0  0  0  0  0  0  0  0
   -0.9980    2.6534    1.2206 H   0  0  0  0  0  0  0  0  0  0  0  0
   -1.7777    2.5992   -2.0116 H   0  0  0  0  0  0  0  0  0  0  0  0
   -2.5298    2.6412   -0.4224 H   0  0  0  0  0  0  0  0  0  0  0  0
   -3.8005    1.2359   -2.0627 H   0  0  0  0  0  0  0  0  0  0  0  0
   -2.3991    0.2126   -2.3226 H   0  0  0  0  0  0  0  0  0  0  0  0
   -2.3387   -1.8065   -1.0953 H   0  0  0  0  0  0  0  0  0  0  0  0
   -3.1287   -3.1705    0.8280 H   0  0  0  0  0  0  0  0  0  0  0  0
   -4.5994   -2.1102    2.5482 H   0  0  0  0  0  0  0  0  0  0  0  0
   -5.2188    0.2914    2.2602 H   0  0  0  0  0  0  0  0  0  0  0  0
    0.3236   -1.0813    0.3419 H   0  0  0  0  0  0  0  0  0  0  0  0
    2.3557   -2.1608    1.2461 H   0  0  0  0  0  0  0  0  0  0  0  0
    4.8023    0.5709   -1.0457 H   0  0  0  0  0  0  0  0  0  0  0  0
    2.7832    1.6310   -1.9256 H   0  0  0  0  0  0  0  0  0  0  0  0
  1  2  1  0
  2  3  1  0
  3  4  1  0
  4  5  1  0
  5  6  2  0
  6  7  1  0
  7  8  2  0
  8  9  1  0
  9 10  2  0
  2 11  1  0
 11 12  2  0
 11 13  1  0
 13 14  2  0
 14 15  1  0
 15 16  2  0
 16 17  1  0
 17 18  1  0
 18 19  1  0
 18 20  1  0
 18 21  1  0
 16 22  1  0
 22 23  2  0
 10  5  1  0
 23 13  1  0
  1 24  1  0
  1 25  1  0
  1 26  1  0
  3 27  1  0
  3 28  1  0
  4 29  1  0
  4 30  1  0
  6 31  1  0
  7 32  1  0
  8 33  1  0
  9 34  1  0
 14 35  1  0
 15 36  1  0
 22 37  1  0
 23 38  1  0
M  END
$$$$
