
     RDKit          3D

 38 40  0  0  0  0  0  0  0  0999 V2000
    1.2700    1.9995   -1.0837 O   0  0  0  0  0  0  0  0  0  0  0  0
    0.6082    1.3347   -0.2913 C   0  0  0  0  0  0  0  0  0  0  0  0
    1.0624    1.0258    0.9661 N   0  0  0  0  0  0  0  0  0  0  0  0
    2.3799    1.4423    1.3977 C   0  0  0  0  0  0  0  0  0  0  0  0
    3.3972    0.3483    1.1832 C   0  0  0  0  0  0  0  0  0  0  0  0
    3.9899    0.1705   -0.0761 C   0  0  0  0  0  0  0  0  0  0  0  0
    4.9144   -0.8546   -0.2876 C   0  0  0  0  0  0  0  0  0  0  0  0
    5.2475   -1.7111    0.7586 C   0  0  0  0  0  0  0  0  0  0  0  0
    6.3855   -2.9757    0.5005 Cl  0  0  0  0  0  0  0  0  0  0  0  0
    4.6622   -1.5531    2.0134 C   0  0  0  0  0  0  0  0  0  0  0  0
    3.7364   -0.5282    2.2247 C   0  0  0  0  0  0  0  0  0  0  0  0
   -0.6569    0.8393   -0.5867 N   0  0  0  0  0  0  0  0  0  0  0  0
   -1.2016    1.1718   -1.9000 C   0  0  0  0  0  0  0  0  0  0  0  0
   -2.1563    0.0914   -2.3989 C   0  0  0  0  0  0  0  0  0  0  0  0
   -3.2078   -0.2325   -1.3714 C   0  0  0  0  0  0  0  0  0  0  0  0
   -4.4231   -0.8083   -1.7658 C   0  0  0  0  0  0  0  0  0  0  0  0
   -5.3900   -1.1339   -0.8158 C   0  0  0  0  0  0  0  0  0  0  0  0
   -5.1474   -0.8953    0.5342 C   0  0  0  0  0  0  0  0  0  0  0  0
   -3.9344   -0.3358    0.9366 C   0  0  0  0  0  0  0  0  0  0  0  0
   -2.9497   -0.0069   -0.0085 C   0  0  0  0  0  0  0  0  0  0  0  0
   -1.6469    0.5975    0.4648 C   0  0  0  0  0  0  0  0  0  0  0  0
    0.7837    0.1143    1.2926 H   0  0  0  0  0  0  0  0  0  0  0  0
    2.3049    1.6790    2.4650 H   0  0  0  0  0  0  0  0  0  0  0  0
    2.6899    2.3607    0.8863 H   0  0  0  0  0  0  0  0  0  0  0  0
    3.7262    0.8314   -0.9016 H   0  0  0  0  0  0  0  0  0  0  0  0
    5.3648   -0.9784   -1.2687 H   0  0  0  0  0  0  0  0  0  0  0  0
    4.9210   -2.2236    2.8284 H   0  0  0  0  0  0  0  0  0  0  0  0
    3.2846   -0.4174    3.2081 H   0  0  0  0  0  0  0  0  0  0  0  0
   -1.7123    2.1392   -1.8096 H   0  0  0  0  0  0  0  0  0  0  0  0
   -0.3947    1.2965   -2.6308 H   0  0  0  0  0  0  0  0  0  0  0  0
   -2.6246    0.4314   -3.3298 H   0  0  0  0  0  0  0  0  0  0  0  0
   -1.5972   -0.8270   -2.6164 H   0  0  0  0  0  0  0  0  0  0  0  0
   -4.6221   -1.0051   -2.8169 H   0  0  0  0  0  0  0  0  0  0  0  0
   -6.3323   -1.5756   -1.1294 H   0  0  0  0  0  0  0  0  0  0  0  0
   -5.9021   -1.1482    1.2744 H   0  0  0  0  0  0  0  0  0  0  0  0
   -3.7595   -0.1587    1.9956 H   0  0  0  0  0  0  0  0  0  0  0  0
   -1.2157   -0.0687    1.2186 H   0  0  0  0  0  0  0  0  0  0  0  0
   -1.8542    1.5644    0.9401 H   0  0  0  0  0  0  0  0  0  0  0  0
  1  2  2  0
  2  3  1  0
  3  4  1  0
  4  5  1  0
  5  6  2  0
  6  7  1  0
  7  8  2  0
  8  9  1  0
  8 10  1  0
 10 11  2  0
  2 12  1  0
 12 13  1  0
 13 14  1  0
 14 15  1  0
 15 16  2  0
 16 17  1  0
 17 18  2  0
 18 19  1  0
 19 20  2  0
 20 21  1  0
 11  5  1  0
 21 12  1  0
 20 15  1  0
  3 22  1  0
  4 23  1  0
  4 24  1  0
  6 25  1  0
  7 26  1  0
 10 27  1  0
 11 28  1  0
 13 29  1  0
 13 30  1  0
 14 31  1  0
 14 32  1  0
 16 33  1  0
 17 34  1  0
 18 35  1  0
 19 36  1  0
 21 37  1  0
 21 38  1  0
M  END
$$$$
