
     RDKit          3D

 24 25  0  0  0  0  0  0  0  0999 V2000
    4.4598   -1.3184    0.9726 C   0  0  0  0  0  0  0  0  0  0  0  0
    2.6690   -1.0717    0.9655 S   0  0  0  0  0  0  0  0  0  0  0  0
    2.4701   -0.1138   -0.4651 C   0  0  0  0  0  0  0  0  0  0  0  0
    3.4685    0.2356   -1.2481 N   0  0  0  0  0  0  0  0  0  0  0  0
    2.9148    0.8726   -2.3166 N   0  0  0  0  0  0  0  0  0  0  0  0
    1.5982    0.9192   -2.2113 N   0  0  0  0  0  0  0  0  0  0  0  0
    1.2748    0.3358   -1.0211 N   0  0  0  0  0  0  0  0  0  0  0  0
   -0.0900    0.3035   -0.6057 C   0  0  0  0  0  0  0  0  0  0  0  0
   -0.4899   -0.0709    0.6796 C   0  0  0  0  0  0  0  0  0  0  0  0
   -1.8476   -0.0812    1.0289 C   0  0  0  0  0  0  0  0  0  0  0  0
   -2.8373    0.2869    0.1086 C   0  0  0  0  0  0  0  0  0  0  0  0
   -4.2818    0.2631    0.5216 C   0  0  0  0  0  0  0  0  0  0  0  0
   -2.4373    0.6763   -1.1747 C   0  0  0  0  0  0  0  0  0  0  0  0
   -3.5885    1.1544   -2.3713 Cl  0  0  0  0  0  0  0  0  0  0  0  0
   -1.0824    0.6887   -1.5271 C   0  0  0  0  0  0  0  0  0  0  0  0
    4.7803   -1.8504    0.0724 H   0  0  0  0  0  0  0  0  0  0  0  0
    4.7350   -1.9189    1.8439 H   0  0  0  0  0  0  0  0  0  0  0  0
    4.9818   -0.3596    1.0361 H   0  0  0  0  0  0  0  0  0  0  0  0
    0.2072   -0.3361    1.4648 H   0  0  0  0  0  0  0  0  0  0  0  0
   -2.1247   -0.3763    2.0404 H   0  0  0  0  0  0  0  0  0  0  0  0
   -4.3976   -0.0791    1.5557 H   0  0  0  0  0  0  0  0  0  0  0  0
   -4.8502   -0.4228   -0.1148 H   0  0  0  0  0  0  0  0  0  0  0  0
   -4.7136    1.2670    0.4579 H   0  0  0  0  0  0  0  0  0  0  0  0
   -0.8184    0.9959   -2.5386 H   0  0  0  0  0  0  0  0  0  0  0  0
  1  2  1  0
  2  3  1  0
  3  4  2  0
  4  5  1  0
  5  6  2  0
  6  7  1  0
  7  8  1  0
  8  9  2  0
  9 10  1  0
 10 11  2  0
 11 12  1  0
 11 13  1  0
 13 14  1  0
 13 15  2  0
  7  3  1  0
 15  8  1  0
  1 16  1  0
  1 17  1  0
  1 18  1  0
  9 19  1  0
 10 20  1  0
 12 21  1  0
 12 22  1  0
 12 23  1  0
 15 24  1  0
M  END
$$$$
