
     RDKit          3D

 43 45  0  0  0  0  0  0  0  0999 V2000
    7.3391   -2.7636   -0.6002 O   0  0  0  0  0  0  0  0  0  0  0  0
    7.9620   -1.7226   -0.4783 C   0  0  0  0  0  0  0  0  0  0  0  0
    9.3073   -1.7567   -0.3533 O   0  0  0  0  0  0  0  0  0  0  0  0
    7.4367   -0.3077   -0.4832 C   0  0  0  0  0  0  0  0  0  0  0  0
    5.9355   -0.2080   -0.3574 C   0  0  0  0  0  0  0  0  0  0  0  0
    5.1086   -0.4552   -1.4587 C   0  0  0  0  0  0  0  0  0  0  0  0
    3.7183   -0.3695   -1.3345 C   0  0  0  0  0  0  0  0  0  0  0  0
    3.1273   -0.0331   -0.1109 C   0  0  0  0  0  0  0  0  0  0  0  0
    1.7185    0.0240   -0.0685 N   0  0  0  0  0  0  0  0  0  0  0  0
    0.9270    0.4179    0.9951 C   0  0  0  0  0  0  0  0  0  0  0  0
    1.3037    0.8661    2.0706 O   0  0  0  0  0  0  0  0  0  0  0  0
   -0.5387    0.3081    0.7516 C   0  0  0  0  0  0  0  0  0  0  0  0
   -1.3833    1.2900    1.2769 C   0  0  0  0  0  0  0  0  0  0  0  0
   -2.7661    1.2201    1.0681 C   0  0  0  0  0  0  0  0  0  0  0  0
   -3.3202    0.1621    0.3450 C   0  0  0  0  0  0  0  0  0  0  0  0
   -4.6958    0.0154    0.0924 N   0  0  0  0  0  0  0  0  0  0  0  0
   -5.7343    0.8515    0.4647 C   0  0  0  0  0  0  0  0  0  0  0  0
   -5.6169    1.8994    1.0906 O   0  0  0  0  0  0  0  0  0  0  0  0
   -7.0284    0.3580    0.0253 C   0  0  0  0  0  0  0  0  0  0  0  0
   -8.3011    0.8730    0.1849 C   0  0  0  0  0  0  0  0  0  0  0  0
   -9.1893   -0.0281   -0.4490 C   0  0  0  0  0  0  0  0  0  0  0  0
   -8.4098   -1.0390   -0.9586 C   0  0  0  0  0  0  0  0  0  0  0  0
   -7.0989   -0.8186   -0.6796 O   0  0  0  0  0  0  0  0  0  0  0  0
   -2.4705   -0.8314   -0.1613 C   0  0  0  0  0  0  0  0  0  0  0  0
   -1.0874   -0.7642    0.0409 C   0  0  0  0  0  0  0  0  0  0  0  0
    3.9508    0.2065    0.9886 C   0  0  0  0  0  0  0  0  0  0  0  0
    5.3428    0.1180    0.8680 C   0  0  0  0  0  0  0  0  0  0  0  0
    9.5173   -2.7145   -0.3698 H   0  0  0  0  0  0  0  0  0  0  0  0
    7.9069    0.2368    0.3446 H   0  0  0  0  0  0  0  0  0  0  0  0
    7.7534    0.1749   -1.4153 H   0  0  0  0  0  0  0  0  0  0  0  0
    5.5393   -0.7261   -2.4203 H   0  0  0  0  0  0  0  0  0  0  0  0
    3.1084   -0.5718   -2.2108 H   0  0  0  0  0  0  0  0  0  0  0  0
    1.2476   -0.1835   -0.9388 H   0  0  0  0  0  0  0  0  0  0  0  0
   -0.9694    2.1168    1.8516 H   0  0  0  0  0  0  0  0  0  0  0  0
   -3.3798    2.0085    1.4933 H   0  0  0  0  0  0  0  0  0  0  0  0
   -4.9877   -0.8040   -0.4299 H   0  0  0  0  0  0  0  0  0  0  0  0
   -8.5439    1.7922    0.7017 H   0  0  0  0  0  0  0  0  0  0  0  0
  -10.2650    0.0496   -0.5248 H   0  0  0  0  0  0  0  0  0  0  0  0
   -8.6255   -1.9404   -1.5159 H   0  0  0  0  0  0  0  0  0  0  0  0
   -2.8748   -1.6776   -0.7121 H   0  0  0  0  0  0  0  0  0  0  0  0
   -0.4598   -1.5688   -0.3328 H   0  0  0  0  0  0  0  0  0  0  0  0
    3.5414    0.4575    1.9623 H   0  0  0  0  0  0  0  0  0  0  0  0
    5.9547    0.3067    1.7478 H   0  0  0  0  0  0  0  0  0  0  0  0
  1  2  2  0
  2  3  1  0
  2  4  1  0
  4  5  1  0
  5  6  2  0
  6  7  1  0
  7  8  2  0
  8  9  1  0
  9 10  1  0
 10 11  2  0
 10 12  1  0
 12 13  2  0
 13 14  1  0
 14 15  2  0
 15 16  1  0
 16 17  1  0
 17 18  2  0
 17 19  1  0
 19 20  2  0
 20 21  1  0
 21 22  2  0
 22 23  1  0
 15 24  1  0
 24 25  2  0
  8 26  1  0
 26 27  2  0
 27  5  1  0
 25 12  1  0
 23 19  1  0
  3 28  1  0
  4 29  1  0
  4 30  1  0
  6 31  1  0
  7 32  1  0
  9 33  1  0
 13 34  1  0
 14 35  1  0
 16 36  1  0
 20 37  1  0
 21 38  1  0
 22 39  1  0
 24 40  1  0
 25 41  1  0
 26 42  1  0
 27 43  1  0
M  END
$$$$
