
     RDKit          3D

 42 44  0  0  0  0  0  0  0  0999 V2000
    3.7410    0.9997    6.4074 C   0  0  0  0  0  0  0  0  0  0  0  0
    4.2639    0.8633    5.0922 O   0  0  0  0  0  0  0  0  0  0  0  0
    3.3688    0.6875    4.0739 C   0  0  0  0  0  0  0  0  0  0  0  0
    3.9475    0.5610    2.8138 C   0  0  0  0  0  0  0  0  0  0  0  0
    3.1493    0.3766    1.6853 C   0  0  0  0  0  0  0  0  0  0  0  0
    1.7503    0.3150    1.7961 C   0  0  0  0  0  0  0  0  0  0  0  0
    0.9941    0.1136    0.5140 C   0  0  0  0  0  0  0  0  0  0  0  0
    1.5987    0.0126   -0.5537 O   0  0  0  0  0  0  0  0  0  0  0  0
   -0.3912    0.0476    0.5843 N   0  0  0  0  0  0  0  0  0  0  0  0
   -1.3318   -0.1293   -0.4235 C   0  0  0  0  0  0  0  0  0  0  0  0
   -2.9255   -0.1532    0.0738 S   0  0  0  0  0  0  0  0  0  0  0  0
   -0.7923   -0.2578   -1.6822 N   0  0  0  0  0  0  0  0  0  0  0  0
   -1.3347   -0.4486   -2.9725 C   0  0  0  0  0  0  0  0  0  0  0  0
   -0.3792   -0.5289   -4.0264 C   0  0  0  0  0  0  0  0  0  0  0  0
   -0.7514   -0.7165   -5.3647 C   0  0  0  0  0  0  0  0  0  0  0  0
   -2.0942   -0.8202   -5.6137 C   0  0  0  0  0  0  0  0  0  0  0  0
   -2.7684   -1.0069   -6.8144 N   0  0  0  0  0  0  0  0  0  0  0  0
   -4.1461   -1.0488   -6.5549 C   0  0  0  0  0  0  0  0  0  0  0  0
   -5.0352   -1.1992   -7.3733 O   0  0  0  0  0  0  0  0  0  0  0  0
   -4.2983   -0.8838   -5.1709 N   0  0  0  0  0  0  0  0  0  0  0  0
   -3.0388   -0.7437   -4.5953 C   0  0  0  0  0  0  0  0  0  0  0  0
   -2.6954   -0.5596   -3.2726 C   0  0  0  0  0  0  0  0  0  0  0  0
    1.1580    0.4425    3.0709 C   0  0  0  0  0  0  0  0  0  0  0  0
   -0.2122    0.3771    3.1391 O   0  0  0  0  0  0  0  0  0  0  0  0
   -0.8335    0.5033    4.4152 C   0  0  0  0  0  0  0  0  0  0  0  0
    1.9781    0.6281    4.1991 C   0  0  0  0  0  0  0  0  0  0  0  0
    3.2018    0.0970    6.7128 H   0  0  0  0  0  0  0  0  0  0  0  0
    3.1051    1.8874    6.4887 H   0  0  0  0  0  0  0  0  0  0  0  0
    4.5852    1.1309    7.0912 H   0  0  0  0  0  0  0  0  0  0  0  0
    5.0293    0.6061    2.7072 H   0  0  0  0  0  0  0  0  0  0  0  0
    3.6327    0.2812    0.7141 H   0  0  0  0  0  0  0  0  0  0  0  0
   -0.8019    0.1410    1.5075 H   0  0  0  0  0  0  0  0  0  0  0  0
    0.2284   -0.2006   -1.6657 H   0  0  0  0  0  0  0  0  0  0  0  0
    0.6836   -0.4432   -3.8005 H   0  0  0  0  0  0  0  0  0  0  0  0
   -0.0109   -0.7751   -6.1523 H   0  0  0  0  0  0  0  0  0  0  0  0
   -2.3687   -1.1003   -7.7333 H   0  0  0  0  0  0  0  0  0  0  0  0
   -5.1878   -0.8728   -4.6994 H   0  0  0  0  0  0  0  0  0  0  0  0
   -3.4798   -0.5097   -2.5356 H   0  0  0  0  0  0  0  0  0  0  0  0
   -1.9149    0.4263    4.2666 H   0  0  0  0  0  0  0  0  0  0  0  0
   -0.6273    1.4830    4.8581 H   0  0  0  0  0  0  0  0  0  0  0  0
   -0.5305   -0.3099    5.0826 H   0  0  0  0  0  0  0  0  0  0  0  0
    1.5341    0.7270    5.1813 H   0  0  0  0  0  0  0  0  0  0  0  0
  1  2  1  0
  2  3  1  0
  3  4  2  0
  4  5  1  0
  5  6  2  0
  6  7  1  0
  7  8  2  0
  7  9  1  0
  9 10  1  0
 10 11  2  0
 10 12  1  0
 12 13  1  0
 13 14  2  0
 14 15  1  0
 15 16  2  0
 16 17  1  0
 17 18  1  0
 18 19  2  0
 18 20  1  0
 20 21  1  0
 21 22  2  0
  6 23  1  0
 23 24  1  0
 24 25  1  0
 23 26  2  0
 26  3  1  0
 22 13  1  0
 21 16  1  0
  1 27  1  0
  1 28  1  0
  1 29  1  0
  4 30  1  0
  5 31  1  0
  9 32  1  0
 12 33  1  0
 14 34  1  0
 15 35  1  0
 17 36  1  0
 20 37  1  0
 22 38  1  0
 25 39  1  0
 25 40  1  0
 25 41  1  0
 26 42  1  0
M  END
$$$$
