
     RDKit          3D

 67 72  0  0  0  0  0  0  0  0999 V2000
   -5.4661   -3.3436   -2.5927 C   0  0  0  0  0  0  0  0  0  0  0  0
   -4.4146   -2.9795   -1.5864 C   0  0  0  0  0  0  0  0  0  0  0  0
   -4.3541   -3.6022   -0.3252 C   0  0  0  0  0  0  0  0  0  0  0  0
   -5.4853   -4.8358    0.1248 Cl  0  0  0  0  0  0  0  0  0  0  0  0
   -3.3777   -3.2470    0.6288 C   0  0  0  0  0  0  0  0  0  0  0  0
   -2.4312   -2.2591    0.3516 C   0  0  0  0  0  0  0  0  0  0  0  0
   -2.4712   -1.6422   -0.8911 C   0  0  0  0  0  0  0  0  0  0  0  0
   -3.4610   -1.9947   -1.8264 C   0  0  0  0  0  0  0  0  0  0  0  0
   -3.3354   -1.1993   -2.9640 N   0  0  0  0  0  0  0  0  0  0  0  0
   -2.2971   -0.2737   -2.8427 C   0  0  0  0  0  0  0  0  0  0  0  0
   -2.0205    0.5625   -3.6917 O   0  0  0  0  0  0  0  0  0  0  0  0
   -1.6062   -0.5485   -1.4742 C   0  0  1  0  0  0  0  0  0  0  0  0
   -1.6292    0.6163   -0.5664 C   0  0  0  0  0  0  0  0  0  0  0  0
   -0.3408    1.0682   -0.2873 C   0  0  0  0  0  0  0  0  0  0  0  0
   -0.4221    2.1472    0.5567 C   0  0  0  0  0  0  0  0  0  0  0  0
    0.5400    2.9260    1.0459 O   0  0  0  0  0  0  0  0  0  0  0  0
   -1.7914    2.3950    0.7829 N   0  0  0  0  0  0  0  0  0  0  0  0
   -2.3460    3.4955    1.5100 C   0  0  0  0  0  0  0  0  0  0  0  0
   -1.6625    4.0546    2.5956 C   0  0  0  0  0  0  0  0  0  0  0  0
   -2.2240    5.1164    3.3123 C   0  0  0  0  0  0  0  0  0  0  0  0
   -3.4663    5.6315    2.9476 C   0  0  0  0  0  0  0  0  0  0  0  0
   -4.1435    5.0966    1.8550 C   0  0  0  0  0  0  0  0  0  0  0  0
   -3.5852    4.0372    1.1332 C   0  0  0  0  0  0  0  0  0  0  0  0
   -2.5245    1.3759    0.1409 C   0  0  0  0  0  0  0  0  0  0  0  0
   -3.8370    1.1801    0.2719 O   0  0  0  0  0  0  0  0  0  0  0  0
    0.6786    0.2580   -0.9902 C   0  0  1  0  0  0  0  0  0  0  0  0
    1.7691   -0.3074   -0.0581 C   0  0  0  0  0  0  0  0  0  0  0  0
    2.5786   -1.3326   -0.7240 N   0  0  0  0  0  0  0  0  0  0  0  0
    3.9456   -1.4516   -0.5774 C   0  0  0  0  0  0  0  0  0  0  0  0
    4.6133   -2.2847   -1.1763 O   0  0  0  0  0  0  0  0  0  0  0  0
    4.4477   -0.5450    0.2994 O   0  0  0  0  0  0  0  0  0  0  0  0
    5.8757   -0.4557    0.5485 C   0  0  0  0  0  0  0  0  0  0  0  0
    6.0241    0.6920    1.5614 C   0  0  0  0  0  0  0  0  0  0  0  0
    6.6389   -0.0767   -0.7284 C   0  0  0  0  0  0  0  0  0  0  0  0
    6.4135   -1.7446    1.1825 C   0  0  0  0  0  0  0  0  0  0  0  0
    1.8829   -2.2414   -1.6354 C   0  0  0  0  0  0  0  0  0  0  0  0
    0.3499   -2.1557   -1.4941 C   0  0  0  0  0  0  0  0  0  0  0  0
   -0.1424   -0.7917   -1.6914 N   0  0  0  0  0  0  0  0  0  0  0  0
   -5.4529   -4.4220   -2.7868 H   0  0  0  0  0  0  0  0  0  0  0  0
   -6.4558   -3.0536   -2.2244 H   0  0  0  0  0  0  0  0  0  0  0  0
   -5.3133   -2.8463   -3.5560 H   0  0  0  0  0  0  0  0  0  0  0  0
   -3.3626   -3.7417    1.5987 H   0  0  0  0  0  0  0  0  0  0  0  0
   -1.6927   -1.9771    1.0975 H   0  0  0  0  0  0  0  0  0  0  0  0
   -3.9408   -1.2043   -3.7709 H   0  0  0  0  0  0  0  0  0  0  0  0
    1.3859    2.6523    0.6556 H   0  0  0  0  0  0  0  0  0  0  0  0
   -0.7057    3.6611    2.9277 H   0  0  0  0  0  0  0  0  0  0  0  0
   -1.6921    5.5382    4.1617 H   0  0  0  0  0  0  0  0  0  0  0  0
   -3.9017    6.4539    3.5120 H   0  0  0  0  0  0  0  0  0  0  0  0
   -5.1010    5.5136    1.5518 H   0  0  0  0  0  0  0  0  0  0  0  0
   -4.1138    3.6865    0.2487 H   0  0  0  0  0  0  0  0  0  0  0  0
   -4.1421    1.6326    1.0789 H   0  0  0  0  0  0  0  0  0  0  0  0
    1.1555    0.8620   -1.7717 H   0  0  0  0  0  0  0  0  0  0  0  0
    2.3959    0.5079    0.3202 H   0  0  0  0  0  0  0  0  0  0  0  0
    1.3196   -0.7882    0.8209 H   0  0  0  0  0  0  0  0  0  0  0  0
    5.6391    1.6312    1.1434 H   0  0  0  0  0  0  0  0  0  0  0  0
    5.4401    0.4969    2.4715 H   0  0  0  0  0  0  0  0  0  0  0  0
    7.0681    0.8485    1.8508 H   0  0  0  0  0  0  0  0  0  0  0  0
    7.6935    0.1386   -0.5209 H   0  0  0  0  0  0  0  0  0  0  0  0
    6.6101   -0.8774   -1.4757 H   0  0  0  0  0  0  0  0  0  0  0  0
    6.1903    0.8072   -1.1965 H   0  0  0  0  0  0  0  0  0  0  0  0
    5.7617   -2.0891    1.9949 H   0  0  0  0  0  0  0  0  0  0  0  0
    6.4653   -2.5581    0.4505 H   0  0  0  0  0  0  0  0  0  0  0  0
    7.4257   -1.6012    1.5780 H   0  0  0  0  0  0  0  0  0  0  0  0
    2.2199   -3.2684   -1.4287 H   0  0  0  0  0  0  0  0  0  0  0  0
    2.1946   -1.9898   -2.6597 H   0  0  0  0  0  0  0  0  0  0  0  0
    0.0984   -2.5246   -0.4935 H   0  0  0  0  0  0  0  0  0  0  0  0
   -0.1118   -2.8295   -2.2257 H   0  0  0  0  0  0  0  0  0  0  0  0
  1  2  1  0
  2  3  2  0
  3  4  1  0
  3  5  1  0
  5  6  2  0
  6  7  1  0
  7  8  2  0
  8  9  1  0
  9 10  1  0
 10 11  2  0
 10 12  1  0
 12 13  1  0
 13 14  1  0
 14 15  2  0
 15 16  1  0
 15 17  1  0
 17 18  1  0
 18 19  2  0
 19 20  1  0
 20 21  2  0
 21 22  1  0
 22 23  2  0
 17 24  1  0
 24 25  1  0
 14 26  1  0
 26 27  1  0
 27 28  1  0
 28 29  1  0
 29 30  2  0
 29 31  1  0
 31 32  1  0
 32 33  1  0
 32 34  1  0
 32 35  1  0
 28 36  1  0
 36 37  1  0
 37 38  1  0
  8  2  1  0
 12 38  1  6
 12  7  1  0
 24 13  2  0
 38 26  1  0
 23 18  1  0
  1 39  1  0
  1 40  1  0
  1 41  1  0
  5 42  1  0
  6 43  1  0
  9 44  1  0
 16 45  1  0
 19 46  1  0
 20 47  1  0
 21 48  1  0
 22 49  1  0
 23 50  1  0
 25 51  1  0
 26 52  1  6
 27 53  1  0
 27 54  1  0
 33 55  1  0
 33 56  1  0
 33 57  1  0
 34 58  1  0
 34 59  1  0
 34 60  1  0
 35 61  1  0
 35 62  1  0
 35 63  1  0
 36 64  1  0
 36 65  1  0
 37 66  1  0
 37 67  1  0
M  END
$$$$
