
     RDKit          3D

 53 52  0  0  0  0  0  0  0  0999 V2000
   -6.9594    1.9773    1.1159 C   0  0  0  0  0  0  0  0  0  0  0  0
   -6.2487    2.9441    0.1697 C   0  0  0  0  0  0  0  0  0  0  0  0
   -7.2310    3.5077   -0.8584 C   0  0  0  0  0  0  0  0  0  0  0  0
   -5.0110    2.3118   -0.4883 C   0  0  0  0  0  0  0  0  0  0  0  0
   -5.2925    1.1121   -1.3939 C   0  0  0  0  0  0  0  0  0  0  0  0
   -4.0691    0.5972   -1.9779 N   0  0  0  0  0  0  0  0  0  0  0  0
   -3.2353   -0.2566   -1.2868 C   0  0  0  0  0  0  0  0  0  0  0  0
   -3.4778   -0.6744   -0.1602 O   0  0  0  0  0  0  0  0  0  0  0  0
   -1.9788   -0.6068   -2.0562 C   0  0  0  0  0  0  0  0  0  0  0  0
   -1.1220   -1.5912   -1.2723 C   0  0  0  0  0  0  0  0  0  0  0  0
    0.4268   -1.9863   -2.1571 S   0  0  0  0  0  0  0  0  0  0  0  0
    1.4433   -0.5275   -1.7179 C   0  0  0  0  0  0  0  0  0  0  0  0
    1.9967   -0.5990   -0.2997 C   0  0  0  0  0  0  0  0  0  0  0  0
    3.2219   -1.4855   -0.1839 C   0  0  0  0  0  0  0  0  0  0  0  0
    3.9888   -1.7009   -1.1147 O   0  0  0  0  0  0  0  0  0  0  0  0
    3.4289   -1.9533    1.0962 N   0  0  0  0  0  0  0  0  0  0  0  0
    4.5704   -2.7708    1.4554 C   0  0  0  0  0  0  0  0  0  0  0  0
    5.5747   -2.0005    2.3147 C   0  0  0  0  0  0  0  0  0  0  0  0
    6.2838   -0.8357    1.5978 C   0  0  0  0  0  0  0  0  0  0  0  0
    7.2038   -1.3230    0.4776 C   0  0  0  0  0  0  0  0  0  0  0  0
    7.0930   -0.0224    2.6125 C   0  0  0  0  0  0  0  0  0  0  0  0
   -7.4446    1.1586    0.5739 H   0  0  0  0  0  0  0  0  0  0  0  0
   -6.2555    1.5459    1.8355 H   0  0  0  0  0  0  0  0  0  0  0  0
   -7.7331    2.5035    1.6840 H   0  0  0  0  0  0  0  0  0  0  0  0
   -5.8886    3.7874    0.7727 H   0  0  0  0  0  0  0  0  0  0  0  0
   -8.0176    4.0821   -0.3600 H   0  0  0  0  0  0  0  0  0  0  0  0
   -7.7170    2.7138   -1.4337 H   0  0  0  0  0  0  0  0  0  0  0  0
   -6.7230    4.1773   -1.5605 H   0  0  0  0  0  0  0  0  0  0  0  0
   -4.3082    2.0132    0.3011 H   0  0  0  0  0  0  0  0  0  0  0  0
   -4.4904    3.0824   -1.0721 H   0  0  0  0  0  0  0  0  0  0  0  0
   -5.9423    1.3935   -2.2281 H   0  0  0  0  0  0  0  0  0  0  0  0
   -5.7754    0.3035   -0.8365 H   0  0  0  0  0  0  0  0  0  0  0  0
   -3.7705    0.9652   -2.8725 H   0  0  0  0  0  0  0  0  0  0  0  0
   -1.4360    0.3256   -2.2458 H   0  0  0  0  0  0  0  0  0  0  0  0
   -2.2743   -1.0404   -3.0185 H   0  0  0  0  0  0  0  0  0  0  0  0
   -1.6694   -2.5311   -1.1404 H   0  0  0  0  0  0  0  0  0  0  0  0
   -0.8954   -1.2176   -0.2700 H   0  0  0  0  0  0  0  0  0  0  0  0
    2.2506   -0.4552   -2.4535 H   0  0  0  0  0  0  0  0  0  0  0  0
    0.8317    0.3724   -1.8338 H   0  0  0  0  0  0  0  0  0  0  0  0
    1.2319   -0.9077    0.4204 H   0  0  0  0  0  0  0  0  0  0  0  0
    2.3262    0.4052   -0.0038 H   0  0  0  0  0  0  0  0  0  0  0  0
    2.7501   -1.7434    1.8181 H   0  0  0  0  0  0  0  0  0  0  0  0
    5.0413   -3.1894    0.5618 H   0  0  0  0  0  0  0  0  0  0  0  0
    4.1751   -3.6100    2.0392 H   0  0  0  0  0  0  0  0  0  0  0  0
    6.3261   -2.7063    2.6897 H   0  0  0  0  0  0  0  0  0  0  0  0
    5.0494   -1.6092    3.1954 H   0  0  0  0  0  0  0  0  0  0  0  0
    5.5333   -0.1660    1.1615 H   0  0  0  0  0  0  0  0  0  0  0  0
    7.7067   -0.4792   -0.0102 H   0  0  0  0  0  0  0  0  0  0  0  0
    6.6449   -1.8555   -0.2968 H   0  0  0  0  0  0  0  0  0  0  0  0
    7.9751   -1.9992    0.8633 H   0  0  0  0  0  0  0  0  0  0  0  0
    6.4425    0.3712    3.4004 H   0  0  0  0  0  0  0  0  0  0  0  0
    7.5830    0.8292    2.1261 H   0  0  0  0  0  0  0  0  0  0  0  0
    7.8667   -0.6358    3.0886 H   0  0  0  0  0  0  0  0  0  0  0  0
  1  2  1  0
  2  3  1  0
  2  4  1  0
  4  5  1  0
  5  6  1  0
  6  7  1  0
  7  8  2  0
  7  9  1  0
  9 10  1  0
 10 11  1  0
 11 12  1  0
 12 13  1  0
 13 14  1  0
 14 15  2  0
 14 16  1  0
 16 17  1  0
 17 18  1  0
 18 19  1  0
 19 20  1  0
 19 21  1  0
  1 22  1  0
  1 23  1  0
  1 24  1  0
  2 25  1  0
  3 26  1  0
  3 27  1  0
  3 28  1  0
  4 29  1  0
  4 30  1  0
  5 31  1  0
  5 32  1  0
  6 33  1  0
  9 34  1  0
  9 35  1  0
 10 36  1  0
 10 37  1  0
 12 38  1  0
 12 39  1  0
 13 40  1  0
 13 41  1  0
 16 42  1  0
 17 43  1  0
 17 44  1  0
 18 45  1  0
 18 46  1  0
 19 47  1  0
 20 48  1  0
 20 49  1  0
 20 50  1  0
 21 51  1  0
 21 52  1  0
 21 53  1  0
M  END
$$$$
