
     RDKit          3D

 37 39  0  0  0  0  0  0  0  0999 V2000
   -5.9616    4.7918    0.8384 C   0  0  0  0  0  0  0  0  0  0  0  0
   -6.3939    3.4476    0.6611 O   0  0  0  0  0  0  0  0  0  0  0  0
   -5.4280    2.5158    0.4035 C   0  0  0  0  0  0  0  0  0  0  0  0
   -5.9027    1.2166    0.2181 C   0  0  0  0  0  0  0  0  0  0  0  0
   -5.0245    0.1610   -0.0596 C   0  0  0  0  0  0  0  0  0  0  0  0
   -3.6434    0.3839   -0.1580 C   0  0  0  0  0  0  0  0  0  0  0  0
   -2.6664   -0.6770   -0.4520 C   0  0  0  0  0  0  0  0  0  0  0  0
   -1.3526   -0.5275   -0.4538 N   0  0  0  0  0  0  0  0  0  0  0  0
   -0.7547   -1.7347   -0.7849 C   0  0  0  0  0  0  0  0  0  0  0  0
    0.6154   -1.7026   -0.8177 N   0  0  0  0  0  0  0  0  0  0  0  0
    1.4335   -2.7715   -1.1082 C   0  0  0  0  0  0  0  0  0  0  0  0
    1.0791   -3.9142   -1.3824 O   0  0  0  0  0  0  0  0  0  0  0  0
    2.9055   -2.4037   -1.0660 C   0  0  0  0  0  0  0  0  0  0  0  0
    3.4838   -2.4455    0.6539 S   0  0  0  0  0  0  0  0  0  0  0  0
    5.1342   -1.9205    0.4326 C   0  0  0  0  0  0  0  0  0  0  0  0
    5.5557   -1.3537   -0.6765 N   0  0  0  0  0  0  0  0  0  0  0  0
    6.8894   -1.0031   -0.6076 N   0  0  0  0  0  0  0  0  0  0  0  0
    7.4221   -1.3136    0.5557 C   0  0  0  0  0  0  0  0  0  0  0  0
    8.8328   -1.0600    0.9394 C   0  0  0  0  0  0  0  0  0  0  0  0
    6.3312   -2.0660    1.6496 S   0  0  0  0  0  0  0  0  0  0  0  0
   -1.5260   -2.7865   -1.0403 N   0  0  0  0  0  0  0  0  0  0  0  0
   -3.1014   -2.2909   -0.8619 S   0  0  0  0  0  0  0  0  0  0  0  0
   -3.1797    1.6970    0.0380 C   0  0  0  0  0  0  0  0  0  0  0  0
   -4.0592    2.7532    0.3151 C   0  0  0  0  0  0  0  0  0  0  0  0
   -5.4684    5.1710   -0.0636 H   0  0  0  0  0  0  0  0  0  0  0  0
   -5.3102    4.8835    1.7144 H   0  0  0  0  0  0  0  0  0  0  0  0
   -6.8490    5.4079    1.0152 H   0  0  0  0  0  0  0  0  0  0  0  0
   -6.9709    1.0214    0.2895 H   0  0  0  0  0  0  0  0  0  0  0  0
   -5.4552   -0.8286   -0.1913 H   0  0  0  0  0  0  0  0  0  0  0  0
    1.0028   -0.8052   -0.5667 H   0  0  0  0  0  0  0  0  0  0  0  0
    3.0405   -1.4071   -1.4997 H   0  0  0  0  0  0  0  0  0  0  0  0
    3.4657   -3.1207   -1.6751 H   0  0  0  0  0  0  0  0  0  0  0  0
    8.8963   -0.5811    1.9218 H   0  0  0  0  0  0  0  0  0  0  0  0
    9.3131   -0.3962    0.2118 H   0  0  0  0  0  0  0  0  0  0  0  0
    9.3986   -1.9977    0.9685 H   0  0  0  0  0  0  0  0  0  0  0  0
   -2.1135    1.9127   -0.0272 H   0  0  0  0  0  0  0  0  0  0  0  0
   -3.6381    3.7440    0.4540 H   0  0  0  0  0  0  0  0  0  0  0  0
  1  2  1  0
  2  3  1  0
  3  4  2  0
  4  5  1  0
  5  6  2  0
  6  7  1  0
  7  8  2  0
  8  9  1  0
  9 10  1  0
 10 11  1  0
 11 12  2  0
 11 13  1  0
 13 14  1  0
 14 15  1  0
 15 16  2  0
 16 17  1  0
 17 18  2  0
 18 19  1  0
 18 20  1  0
  9 21  2  0
 21 22  1  0
  6 23  1  0
 23 24  2  0
 24  3  1  0
 22  7  1  0
 20 15  1  0
  1 25  1  0
  1 26  1  0
  1 27  1  0
  4 28  1  0
  5 29  1  0
 10 30  1  0
 13 31  1  0
 13 32  1  0
 19 33  1  0
 19 34  1  0
 19 35  1  0
 23 36  1  0
 24 37  1  0
M  END
$$$$
