
     RDKit          3D

 50 54  0  0  0  0  0  0  0  0999 V2000
   -5.0207    0.8119   -0.9088 C   0  0  0  0  0  0  0  0  0  0  0  0
   -4.6799   -0.6439   -0.8522 C   0  0  0  0  0  0  0  0  0  0  0  0
   -5.5214   -1.6144   -1.2417 C   0  0  0  0  0  0  0  0  0  0  0  0
   -5.1442   -2.9986   -1.1651 C   0  0  0  0  0  0  0  0  0  0  0  0
   -3.9372   -3.3348   -0.6990 C   0  0  0  0  0  0  0  0  0  0  0  0
   -3.0211   -2.3774   -0.2798 N   0  0  0  0  0  0  0  0  0  0  0  0
   -1.7855   -2.7885    0.1900 C   0  0  0  0  0  0  0  0  0  0  0  0
   -1.4275   -3.9660    0.2584 O   0  0  0  0  0  0  0  0  0  0  0  0
   -0.8569   -1.7083    0.6252 C   0  0  0  0  0  0  0  0  0  0  0  0
    0.4531   -2.0563    1.1531 C   0  0  0  0  0  0  0  0  0  0  0  0
    1.3600   -1.1247    1.4907 C   0  0  0  0  0  0  0  0  0  0  0  0
    2.8888   -1.6113    2.1319 S   0  0  0  0  0  6  0  0  0  0  0  0
    3.0491   -1.0996    3.4826 O   0  0  0  0  0  0  0  0  0  0  0  0
    3.0842   -3.0367    1.9027 O   0  0  0  0  0  0  0  0  0  0  0  0
    4.1024   -0.8176    1.0904 C   0  0  0  0  0  0  0  0  0  0  0  0
    4.2898   -1.2882   -0.2165 C   0  0  0  0  0  0  0  0  0  0  0  0
    5.2572   -0.6920   -1.0261 C   0  0  0  0  0  0  0  0  0  0  0  0
    6.0284    0.3519   -0.5216 C   0  0  0  0  0  0  0  0  0  0  0  0
    6.9549    0.9213   -1.3036 F   0  0  0  0  0  0  0  0  0  0  0  0
    5.8577    0.8098    0.7816 C   0  0  0  0  0  0  0  0  0  0  0  0
    4.8940    0.2187    1.5993 C   0  0  0  0  0  0  0  0  0  0  0  0
    0.9562    0.3030    1.3243 C   0  0  0  0  0  0  0  0  0  0  0  0
    1.8744    1.1966    1.5275 N   0  0  0  0  0  0  0  0  0  0  0  0
   -0.3631    0.6004    0.9449 N   0  0  0  0  0  0  0  0  0  0  0  0
   -0.8431    1.9935    0.9618 C   0  0  0  0  0  0  0  0  0  0  0  0
   -0.4396    2.8007   -0.2246 C   0  0  0  0  0  0  0  0  0  0  0  0
   -0.8934    2.8688   -1.5252 C   0  0  0  0  0  0  0  0  0  0  0  0
   -0.0771    3.8208   -2.1813 C   0  0  0  0  0  0  0  0  0  0  0  0
    0.8220    4.2690   -1.2421 C   0  0  0  0  0  0  0  0  0  0  0  0
    0.6096    3.6558   -0.0492 O   0  0  0  0  0  0  0  0  0  0  0  0
   -1.2584   -0.4207    0.5340 C   0  0  0  0  0  0  0  0  0  0  0  0
   -2.5033   -0.0948    0.0492 N   0  0  0  0  0  0  0  0  0  0  0  0
   -3.3213   -1.0264   -0.3279 C   0  0  0  0  0  0  0  0  0  0  0  0
   -4.9759    1.2573    0.0905 H   0  0  0  0  0  0  0  0  0  0  0  0
   -4.3228    1.3455   -1.5622 H   0  0  0  0  0  0  0  0  0  0  0  0
   -6.0306    0.9779   -1.2989 H   0  0  0  0  0  0  0  0  0  0  0  0
   -6.5114   -1.3843   -1.6251 H   0  0  0  0  0  0  0  0  0  0  0  0
   -5.8523   -3.7547   -1.4894 H   0  0  0  0  0  0  0  0  0  0  0  0
   -3.6324   -4.3768   -0.6327 H   0  0  0  0  0  0  0  0  0  0  0  0
    0.6703   -3.1173    1.2675 H   0  0  0  0  0  0  0  0  0  0  0  0
    3.7002   -2.1166   -0.6017 H   0  0  0  0  0  0  0  0  0  0  0  0
    5.4210   -1.0364   -2.0423 H   0  0  0  0  0  0  0  0  0  0  0  0
    6.4732    1.6235    1.1518 H   0  0  0  0  0  0  0  0  0  0  0  0
    4.7520    0.5785    2.6161 H   0  0  0  0  0  0  0  0  0  0  0  0
    1.5446    2.1459    1.3290 H   0  0  0  0  0  0  0  0  0  0  0  0
   -0.4865    2.4843    1.8776 H   0  0  0  0  0  0  0  0  0  0  0  0
   -1.9356    2.0394    1.0578 H   0  0  0  0  0  0  0  0  0  0  0  0
   -1.7063    2.2916   -1.9442 H   0  0  0  0  0  0  0  0  0  0  0  0
   -0.1304    4.1378   -3.2134 H   0  0  0  0  0  0  0  0  0  0  0  0
    1.6348    4.9821   -1.2633 H   0  0  0  0  0  0  0  0  0  0  0  0
  1  2  1  0
  2  3  2  0
  3  4  1  0
  4  5  2  0
  5  6  1  0
  6  7  1  0
  7  8  2  0
  7  9  1  0
  9 10  1  0
 10 11  2  0
 11 12  1  0
 12 13  2  0
 12 14  2  0
 12 15  1  0
 15 16  2  0
 16 17  1  0
 17 18  2  0
 18 19  1  0
 18 20  1  0
 20 21  2  0
 11 22  1  0
 22 23  2  3
 22 24  1  0
 24 25  1  0
 25 26  1  0
 26 27  2  0
 27 28  1  0
 28 29  2  0
 29 30  1  0
 24 31  1  0
 31 32  1  0
 32 33  2  0
 33  2  1  0
 33  6  1  0
 31  9  2  0
 21 15  1  0
 30 26  1  0
  1 34  1  0
  1 35  1  0
  1 36  1  0
  3 37  1  0
  4 38  1  0
  5 39  1  0
 10 40  1  0
 16 41  1  0
 17 42  1  0
 20 43  1  0
 21 44  1  0
 23 45  1  0
 25 46  1  0
 25 47  1  0
 27 48  1  0
 28 49  1  0
 29 50  1  0
M  END
$$$$
