
     RDKit          3D

 47 49  0  0  0  0  0  0  0  0999 V2000
    6.4801    2.5494    0.7437 C   0  0  0  0  0  0  0  0  0  0  0  0
    6.9950    1.1220    0.6395 C   0  0  0  0  0  0  0  0  0  0  0  0
    5.8700    0.1323    0.4718 C   0  0  0  0  0  0  0  0  0  0  0  0
    5.2577   -0.4440    1.5921 C   0  0  0  0  0  0  0  0  0  0  0  0
    4.2077   -1.3517    1.4347 C   0  0  0  0  0  0  0  0  0  0  0  0
    3.7447   -1.6831    0.1600 C   0  0  0  0  0  0  0  0  0  0  0  0
    2.6813   -2.5809    0.0059 N   0  0  0  0  0  0  0  0  0  0  0  0
    1.4800   -2.1188   -0.0426 C   0  0  0  0  0  0  0  0  0  0  0  0
    1.0866   -0.8223    0.0407 N   0  0  0  0  0  0  0  0  0  0  0  0
   -0.2503   -0.5527   -0.0276 C   0  0  0  0  0  0  0  0  0  0  0  0
   -0.7146    0.5717    0.0600 O   0  0  0  0  0  0  0  0  0  0  0  0
   -1.0164   -1.8223   -0.2053 C   0  0  0  0  0  0  0  0  0  0  0  0
   -2.3382   -1.9944   -0.3531 C   0  0  0  0  0  0  0  0  0  0  0  0
   -3.3775   -0.9566   -0.3715 C   0  0  0  0  0  0  0  0  0  0  0  0
   -3.5707   -0.0928    0.7152 C   0  0  0  0  0  0  0  0  0  0  0  0
   -4.5881    0.8596    0.6806 C   0  0  0  0  0  0  0  0  0  0  0  0
   -4.8686    1.7714    1.6684 O   0  0  0  0  0  0  0  0  0  0  0  0
   -3.8833    1.9216    2.6850 C   0  0  0  0  0  0  0  0  0  0  0  0
   -5.4342    0.9145   -0.4361 C   0  0  0  0  0  0  0  0  0  0  0  0
   -6.4450    1.8467   -0.4514 O   0  0  0  0  0  0  0  0  0  0  0  0
   -5.2709    0.0522   -1.5256 C   0  0  0  0  0  0  0  0  0  0  0  0
   -6.1591    0.1995   -2.5573 O   0  0  0  0  0  0  0  0  0  0  0  0
   -5.9770   -0.6179   -3.7037 C   0  0  0  0  0  0  0  0  0  0  0  0
   -4.2359   -0.8856   -1.4817 C   0  0  0  0  0  0  0  0  0  0  0  0
    0.0944   -3.1585   -0.2326 S   0  0  0  0  0  0  0  0  0  0  0  0
    4.3622   -1.1214   -0.9590 C   0  0  0  0  0  0  0  0  0  0  0  0
    5.4124   -0.2132   -0.8062 C   0  0  0  0  0  0  0  0  0  0  0  0
    5.9253    2.8382   -0.1554 H   0  0  0  0  0  0  0  0  0  0  0  0
    5.8120    2.6690    1.6033 H   0  0  0  0  0  0  0  0  0  0  0  0
    7.3162    3.2454    0.8646 H   0  0  0  0  0  0  0  0  0  0  0  0
    7.5768    0.8713    1.5349 H   0  0  0  0  0  0  0  0  0  0  0  0
    7.6889    1.0388   -0.2058 H   0  0  0  0  0  0  0  0  0  0  0  0
    5.6003   -0.1960    2.5944 H   0  0  0  0  0  0  0  0  0  0  0  0
    3.7511   -1.8060    2.3100 H   0  0  0  0  0  0  0  0  0  0  0  0
    1.7440   -0.0680    0.1589 H   0  0  0  0  0  0  0  0  0  0  0  0
   -2.7283   -3.0005   -0.5042 H   0  0  0  0  0  0  0  0  0  0  0  0
   -2.9153   -0.1774    1.5755 H   0  0  0  0  0  0  0  0  0  0  0  0
   -2.9029    2.1610    2.2595 H   0  0  0  0  0  0  0  0  0  0  0  0
   -4.1847    2.7605    3.3196 H   0  0  0  0  0  0  0  0  0  0  0  0
   -3.8346    1.0283    3.3161 H   0  0  0  0  0  0  0  0  0  0  0  0
   -6.3590    2.3280    0.3926 H   0  0  0  0  0  0  0  0  0  0  0  0
   -6.1101   -1.6765   -3.4580 H   0  0  0  0  0  0  0  0  0  0  0  0
   -6.7461   -0.3474   -4.4337 H   0  0  0  0  0  0  0  0  0  0  0  0
   -5.0012   -0.4388   -4.1673 H   0  0  0  0  0  0  0  0  0  0  0  0
   -4.0776   -1.5760   -2.3041 H   0  0  0  0  0  0  0  0  0  0  0  0
    4.0264   -1.3953   -1.9557 H   0  0  0  0  0  0  0  0  0  0  0  0
    5.8764    0.2167   -1.6913 H   0  0  0  0  0  0  0  0  0  0  0  0
  1  2  1  0
  2  3  1  0
  3  4  2  0
  4  5  1  0
  5  6  2  0
  6  7  1  0
  7  8  2  3
  8  9  1  0
  9 10  1  0
 10 11  2  0
 10 12  1  0
 12 13  2  3
 13 14  1  0
 14 15  2  0
 15 16  1  0
 16 17  1  0
 17 18  1  0
 16 19  2  0
 19 20  1  0
 19 21  1  0
 21 22  1  0
 22 23  1  0
 21 24  2  0
 12 25  1  0
  6 26  1  0
 26 27  2  0
 27  3  1  0
 25  8  1  0
 24 14  1  0
  1 28  1  0
  1 29  1  0
  1 30  1  0
  2 31  1  0
  2 32  1  0
  4 33  1  0
  5 34  1  0
  9 35  1  0
 13 36  1  0
 15 37  1  0
 18 38  1  0
 18 39  1  0
 18 40  1  0
 20 41  1  0
 23 42  1  0
 23 43  1  0
 23 44  1  0
 24 45  1  0
 26 46  1  0
 27 47  1  0
M  END
$$$$
