
     RDKit          3D

 62 65  0  0  0  0  0  0  0  0999 V2000
   -2.0540    0.2838   -2.6934 C   0  0  0  0  0  0  0  0  0  0  0  0
   -2.5303   -0.6662   -1.6036 C   0  0  0  0  0  0  0  0  0  0  0  0
   -3.0380    0.0719   -0.4558 N   0  0  0  0  0  0  0  0  0  0  0  0
   -2.4432    0.3086    0.7932 C   0  0  0  0  0  0  0  0  0  0  0  0
   -1.1641    0.2243    1.2144 C   0  0  0  0  0  0  0  0  0  0  0  0
    0.0268   -0.0612    0.4423 C   0  0  0  0  0  0  0  0  0  0  0  0
    1.2270   -0.2370    1.0131 C   0  0  0  0  0  0  0  0  0  0  0  0
    2.5036   -0.4899    0.2921 C   0  0  0  0  0  0  0  0  0  0  0  0
    3.6357   -0.7408    0.8907 N   0  0  0  0  0  4  0  0  0  0  0  0
    3.9386   -0.9019    2.3292 C   0  0  0  0  0  0  0  0  0  0  0  0
    4.3565    0.4310    2.9216 C   0  0  0  0  0  0  0  0  0  0  0  0
    4.7114   -0.8875   -0.1049 C   0  0  0  0  0  0  0  0  0  0  0  0
    6.0601   -1.1266    0.0993 C   0  0  0  0  0  0  0  0  0  0  0  0
    6.8813   -1.2136   -1.0278 C   0  0  0  0  0  0  0  0  0  0  0  0
    6.3460   -1.0588   -2.3161 C   0  0  0  0  0  0  0  0  0  0  0  0
    4.9836   -0.8131   -2.4988 C   0  0  0  0  0  0  0  0  0  0  0  0
    4.1751   -0.7285   -1.3748 C   0  0  0  0  0  0  0  0  0  0  0  0
    2.6914   -0.4701   -1.2606 C   0  0  0  0  0  0  0  0  0  0  0  0
    2.3632    0.9001   -1.8622 C   0  0  0  0  0  0  0  0  0  0  0  0
    1.9305   -1.6081   -1.9504 C   0  0  0  0  0  0  0  0  0  0  0  0
   -3.5676    0.7787    1.7872 C   0  0  0  0  0  0  0  0  0  0  0  0
   -3.2957    2.1858    2.3415 C   0  0  0  0  0  0  0  0  0  0  0  0
   -3.7735   -0.2319    2.9254 C   0  0  0  0  0  0  0  0  0  0  0  0
   -4.7839    0.8008    0.8812 C   0  0  0  0  0  0  0  0  0  0  0  0
   -6.0926    1.1574    1.1853 C   0  0  0  0  0  0  0  0  0  0  0  0
   -7.0502    1.0848    0.1756 C   0  0  0  0  0  0  0  0  0  0  0  0
   -6.6916    0.6610   -1.1102 C   0  0  0  0  0  0  0  0  0  0  0  0
   -5.3704    0.3028   -1.4030 C   0  0  0  0  0  0  0  0  0  0  0  0
   -4.4122    0.3711   -0.4024 C   0  0  0  0  0  0  0  0  0  0  0  0
   -2.8799    0.8840   -3.0886 H   0  0  0  0  0  0  0  0  0  0  0  0
   -1.6206   -0.2817   -3.5242 H   0  0  0  0  0  0  0  0  0  0  0  0
   -1.2957    0.9782   -2.3195 H   0  0  0  0  0  0  0  0  0  0  0  0
   -1.7135   -1.3312   -1.3052 H   0  0  0  0  0  0  0  0  0  0  0  0
   -3.2890   -1.3452   -2.0124 H   0  0  0  0  0  0  0  0  0  0  0  0
   -0.9818    0.4429    2.2668 H   0  0  0  0  0  0  0  0  0  0  0  0
   -0.1009   -0.0815   -0.6276 H   0  0  0  0  0  0  0  0  0  0  0  0
    1.2845   -0.1808    2.0976 H   0  0  0  0  0  0  0  0  0  0  0  0
    3.0462   -1.2863    2.8328 H   0  0  0  0  0  0  0  0  0  0  0  0
    4.7167   -1.6617    2.4522 H   0  0  0  0  0  0  0  0  0  0  0  0
    4.5628    0.3184    3.9909 H   0  0  0  0  0  0  0  0  0  0  0  0
    5.2623    0.8207    2.4449 H   0  0  0  0  0  0  0  0  0  0  0  0
    3.5700    1.1853    2.8088 H   0  0  0  0  0  0  0  0  0  0  0  0
    6.5019   -1.2430    1.0829 H   0  0  0  0  0  0  0  0  0  0  0  0
    7.9488   -1.4009   -0.9129 H   0  0  0  0  0  0  0  0  0  0  0  0
    7.0036   -1.1291   -3.1827 H   0  0  0  0  0  0  0  0  0  0  0  0
    4.5833   -0.6922   -3.5028 H   0  0  0  0  0  0  0  0  0  0  0  0
    1.2951    1.1272   -1.8183 H   0  0  0  0  0  0  0  0  0  0  0  0
    2.6586    0.9581   -2.9163 H   0  0  0  0  0  0  0  0  0  0  0  0
    2.8847    1.7044   -1.3290 H   0  0  0  0  0  0  0  0  0  0  0  0
    2.1137   -2.5689   -1.4539 H   0  0  0  0  0  0  0  0  0  0  0  0
    0.8501   -1.4478   -1.9498 H   0  0  0  0  0  0  0  0  0  0  0  0
    2.2322   -1.7166   -2.9989 H   0  0  0  0  0  0  0  0  0  0  0  0
   -4.1381    2.5487    2.9418 H   0  0  0  0  0  0  0  0  0  0  0  0
   -2.4100    2.2022    2.9859 H   0  0  0  0  0  0  0  0  0  0  0  0
   -3.1339    2.9113    1.5351 H   0  0  0  0  0  0  0  0  0  0  0  0
   -4.6273    0.0445    3.5549 H   0  0  0  0  0  0  0  0  0  0  0  0
   -2.8943   -0.2887    3.5767 H   0  0  0  0  0  0  0  0  0  0  0  0
   -3.9664   -1.2402    2.5394 H   0  0  0  0  0  0  0  0  0  0  0  0
   -6.3716    1.4839    2.1818 H   0  0  0  0  0  0  0  0  0  0  0  0
   -8.0816    1.3589    0.3852 H   0  0  0  0  0  0  0  0  0  0  0  0
   -7.4488    0.6122   -1.8895 H   0  0  0  0  0  0  0  0  0  0  0  0
   -5.1247   -0.0116   -2.4105 H   0  0  0  0  0  0  0  0  0  0  0  0
  1  2  1  0
  2  3  1  0
  3  4  1  0
  4  5  2  3
  5  6  1  0
  6  7  2  3
  7  8  1  0
  8  9  2  0
  9 10  1  0
 10 11  1  0
  9 12  1  0
 12 13  2  0
 13 14  1  0
 14 15  2  0
 15 16  1  0
 16 17  2  0
 17 18  1  0
 18 19  1  0
 18 20  1  0
  4 21  1  0
 21 22  1  0
 21 23  1  0
 21 24  1  0
 24 25  2  0
 25 26  1  0
 26 27  2  0
 27 28  1  0
 28 29  2  0
 29  3  1  0
 18  8  1  0
 29 24  1  0
 17 12  1  0
  1 30  1  0
  1 31  1  0
  1 32  1  0
  2 33  1  0
  2 34  1  0
  5 35  1  0
  6 36  1  0
  7 37  1  0
 10 38  1  0
 10 39  1  0
 11 40  1  0
 11 41  1  0
 11 42  1  0
 13 43  1  0
 14 44  1  0
 15 45  1  0
 16 46  1  0
 19 47  1  0
 19 48  1  0
 19 49  1  0
 20 50  1  0
 20 51  1  0
 20 52  1  0
 22 53  1  0
 22 54  1  0
 22 55  1  0
 23 56  1  0
 23 57  1  0
 23 58  1  0
 25 59  1  0
 26 60  1  0
 27 61  1  0
 28 62  1  0
M  CHG  1   9   1
M  END
$$$$
