
     RDKit          3D

 36 38  0  0  0  0  0  0  0  0999 V2000
   -4.5470   -1.1960   -1.5611 C   0  0  0  0  0  0  0  0  0  0  0  0
   -3.4928   -0.6355   -0.7434 N   0  0  0  0  0  0  0  0  0  0  0  0
   -2.1544   -0.7126   -1.0332 C   0  0  0  0  0  0  0  0  0  0  0  0
   -1.4614   -0.0689   -0.0304 C   0  0  0  0  0  0  0  0  0  0  0  0
   -0.0408    0.0796    0.0599 C   0  0  0  0  0  0  0  0  0  0  0  0
    0.8571   -0.3200   -0.8573 C   0  0  0  0  0  0  0  0  0  0  0  0
    2.3047   -0.1341   -0.7089 C   0  0  0  0  0  0  0  0  0  0  0  0
    3.0550    0.2773   -1.8086 C   0  0  0  0  0  0  0  0  0  0  0  0
    4.4308    0.4370   -1.6845 C   0  0  0  0  0  0  0  0  0  0  0  0
    5.0492    0.1893   -0.5085 N   0  0  0  0  0  4  0  0  0  0  0  0
    6.5087    0.3554   -0.4005 C   0  0  0  0  0  0  0  0  0  0  0  0
    4.3459   -0.2354    0.5649 C   0  0  0  0  0  0  0  0  0  0  0  0
    2.9683   -0.4062    0.4867 C   0  0  0  0  0  0  0  0  0  0  0  0
   -2.4244    0.4187    0.9094 C   0  0  0  0  0  0  0  0  0  0  0  0
   -2.3434    1.1413    2.1189 C   0  0  0  0  0  0  0  0  0  0  0  0
   -3.5169    1.4602    2.8004 C   0  0  0  0  0  0  0  0  0  0  0  0
   -3.4349    2.1460    3.9487 F   0  0  0  0  0  0  0  0  0  0  0  0
   -4.7626    1.0861    2.3203 C   0  0  0  0  0  0  0  0  0  0  0  0
   -4.8732    0.3711    1.1257 C   0  0  0  0  0  0  0  0  0  0  0  0
   -3.6902    0.0489    0.4375 C   0  0  0  0  0  0  0  0  0  0  0  0
   -4.1116   -1.6791   -2.4395 H   0  0  0  0  0  0  0  0  0  0  0  0
   -5.0912   -1.9330   -0.9653 H   0  0  0  0  0  0  0  0  0  0  0  0
   -5.2086   -0.3848   -1.8753 H   0  0  0  0  0  0  0  0  0  0  0  0
   -1.8177   -1.2220   -1.9261 H   0  0  0  0  0  0  0  0  0  0  0  0
    0.3175    0.5780    0.9581 H   0  0  0  0  0  0  0  0  0  0  0  0
    0.5292   -0.7896   -1.7818 H   0  0  0  0  0  0  0  0  0  0  0  0
    2.5743    0.4854   -2.7631 H   0  0  0  0  0  0  0  0  0  0  0  0
    5.0443    0.7601   -2.5210 H   0  0  0  0  0  0  0  0  0  0  0  0
    6.8413    1.1054   -1.1229 H   0  0  0  0  0  0  0  0  0  0  0  0
    6.9650   -0.6156   -0.6100 H   0  0  0  0  0  0  0  0  0  0  0  0
    6.7537    0.6931    0.6100 H   0  0  0  0  0  0  0  0  0  0  0  0
    4.8949   -0.4412    1.4796 H   0  0  0  0  0  0  0  0  0  0  0  0
    2.4241   -0.7628    1.3594 H   0  0  0  0  0  0  0  0  0  0  0  0
   -1.3915    1.4558    2.5305 H   0  0  0  0  0  0  0  0  0  0  0  0
   -5.6526    1.3548    2.8822 H   0  0  0  0  0  0  0  0  0  0  0  0
   -5.8486    0.0783    0.7491 H   0  0  0  0  0  0  0  0  0  0  0  0
  1  2  1  0
  2  3  1  0
  3  4  2  0
  4  5  1  0
  5  6  2  3
  6  7  1  0
  7  8  2  0
  8  9  1  0
  9 10  2  0
 10 11  1  0
 10 12  1  0
 12 13  2  0
  4 14  1  0
 14 15  2  0
 15 16  1  0
 16 17  1  0
 16 18  2  0
 18 19  1  0
 19 20  2  0
 20  2  1  0
 13  7  1  0
 20 14  1  0
  1 21  1  0
  1 22  1  0
  1 23  1  0
  3 24  1  0
  5 25  1  0
  6 26  1  0
  8 27  1  0
  9 28  1  0
 11 29  1  0
 11 30  1  0
 11 31  1  0
 12 32  1  0
 13 33  1  0
 15 34  1  0
 18 35  1  0
 19 36  1  0
M  CHG  1  10   1
M  END
$$$$
