
     RDKit          3D

 59 61  0  0  0  0  0  0  0  0999 V2000
   -5.8644   -1.4929   -0.0293 C   0  0  0  0  0  0  0  0  0  0  0  0
   -4.7920   -0.4526    0.2226 C   0  0  0  0  0  0  0  0  0  0  0  0
   -3.6520   -0.8029   -0.5570 O   0  0  0  0  0  0  0  0  0  0  0  0
   -2.6086    0.0886   -0.5966 C   0  0  0  0  0  0  0  0  0  0  0  0
   -2.4299    1.1328    0.3197 C   0  0  0  0  0  0  0  0  0  0  0  0
   -1.2999    1.9460    0.2301 C   0  0  0  0  0  0  0  0  0  0  0  0
   -1.1041    2.9686    1.1538 N   0  0  0  0  0  0  0  0  0  0  0  0
    0.0040    3.7716    1.1926 C   0  0  0  0  0  0  0  0  0  0  0  0
   -0.0051    4.9506    2.3889 S   0  0  0  0  0  0  0  0  0  0  0  0
    0.9920    3.5276    0.2354 N   0  0  0  0  0  0  0  0  0  0  0  0
    2.2673    4.2700    0.2307 C   0  0  0  0  0  0  0  0  0  0  0  0
    3.5215    3.3883    0.2766 C   0  0  0  0  0  0  0  0  0  0  0  0
    3.4792    2.3946    1.4162 C   0  0  0  0  0  0  0  0  0  0  0  0
    2.9529    2.6377    2.4950 O   0  0  0  0  0  0  0  0  0  0  0  0
    4.1226    1.2109    1.1340 N   0  0  0  0  0  0  0  0  0  0  0  0
    4.0502    0.0807    2.0315 C   0  0  0  0  0  0  0  0  0  0  0  0
    3.0480   -0.9275    1.5301 C   0  0  0  0  0  0  0  0  0  0  0  0
    1.6742   -0.7336    1.7417 C   0  0  0  0  0  0  0  0  0  0  0  0
    0.7386   -1.6618    1.2719 C   0  0  0  0  0  0  0  0  0  0  0  0
    1.1627   -2.7930    0.5753 C   0  0  0  0  0  0  0  0  0  0  0  0
    0.3605   -3.7807    0.0689 O   0  0  0  0  0  0  0  0  0  0  0  0
   -1.0421   -3.6322    0.2605 C   0  0  0  0  0  0  0  0  0  0  0  0
    2.5274   -2.9816    0.3501 C   0  0  0  0  0  0  0  0  0  0  0  0
    3.4656   -2.0579    0.8195 C   0  0  0  0  0  0  0  0  0  0  0  0
    0.8157    2.6198   -0.8212 C   0  0  0  0  0  0  0  0  0  0  0  0
    1.5852    2.5116   -1.7751 O   0  0  0  0  0  0  0  0  0  0  0  0
   -0.3654    1.7435   -0.7709 C   0  0  0  0  0  0  0  0  0  0  0  0
   -0.5361    0.7140   -1.7006 C   0  0  0  0  0  0  0  0  0  0  0  0
   -1.6490   -0.1264   -1.6095 C   0  0  0  0  0  0  0  0  0  0  0  0
   -1.8953   -1.1743   -2.4608 O   0  0  0  0  0  0  0  0  0  0  0  0
   -0.8310   -1.5834   -3.3180 C   0  0  0  0  0  0  0  0  0  0  0  0
   -1.2514   -2.8771   -3.9919 C   0  0  0  0  0  0  0  0  0  0  0  0
   -6.1081   -1.5399   -1.0935 H   0  0  0  0  0  0  0  0  0  0  0  0
   -6.7735   -1.2635    0.5354 H   0  0  0  0  0  0  0  0  0  0  0  0
   -5.5116   -2.4864    0.2599 H   0  0  0  0  0  0  0  0  0  0  0  0
   -5.1682    0.5320   -0.0728 H   0  0  0  0  0  0  0  0  0  0  0  0
   -4.5412   -0.4565    1.2873 H   0  0  0  0  0  0  0  0  0  0  0  0
   -3.1415    1.3072    1.1188 H   0  0  0  0  0  0  0  0  0  0  0  0
   -1.7951    3.1367    1.8775 H   0  0  0  0  0  0  0  0  0  0  0  0
    2.3207    4.9790    1.0589 H   0  0  0  0  0  0  0  0  0  0  0  0
    2.2896    4.8652   -0.6911 H   0  0  0  0  0  0  0  0  0  0  0  0
    3.6658    2.8604   -0.6729 H   0  0  0  0  0  0  0  0  0  0  0  0
    4.4078    4.0227    0.4190 H   0  0  0  0  0  0  0  0  0  0  0  0
    4.3816    1.0214    0.1746 H   0  0  0  0  0  0  0  0  0  0  0  0
    5.0498   -0.3598    2.0744 H   0  0  0  0  0  0  0  0  0  0  0  0
    3.7910    0.3983    3.0472 H   0  0  0  0  0  0  0  0  0  0  0  0
    1.3271    0.1449    2.2830 H   0  0  0  0  0  0  0  0  0  0  0  0
   -0.3104   -1.4741    1.4681 H   0  0  0  0  0  0  0  0  0  0  0  0
   -1.4096   -2.7231   -0.2232 H   0  0  0  0  0  0  0  0  0  0  0  0
   -1.3024   -3.6461    1.3288 H   0  0  0  0  0  0  0  0  0  0  0  0
   -1.5392   -4.4820   -0.2209 H   0  0  0  0  0  0  0  0  0  0  0  0
    2.8625   -3.8622   -0.1953 H   0  0  0  0  0  0  0  0  0  0  0  0
    4.5221   -2.2385    0.6287 H   0  0  0  0  0  0  0  0  0  0  0  0
    0.2138    0.5851   -2.4745 H   0  0  0  0  0  0  0  0  0  0  0  0
    0.0856   -1.7613   -2.7402 H   0  0  0  0  0  0  0  0  0  0  0  0
   -0.6527   -0.8195   -4.0824 H   0  0  0  0  0  0  0  0  0  0  0  0
   -0.4767   -3.2281   -4.6770 H   0  0  0  0  0  0  0  0  0  0  0  0
   -2.1817   -2.7343   -4.5531 H   0  0  0  0  0  0  0  0  0  0  0  0
   -1.4466   -3.6567   -3.2459 H   0  0  0  0  0  0  0  0  0  0  0  0
  1  2  1  0
  2  3  1  0
  3  4  1  0
  4  5  2  0
  5  6  1  0
  6  7  1  0
  7  8  1  0
  8  9  2  0
  8 10  1  0
 10 11  1  0
 11 12  1  0
 12 13  1  0
 13 14  2  0
 13 15  1  0
 15 16  1  0
 16 17  1  0
 17 18  2  0
 18 19  1  0
 19 20  2  0
 20 21  1  0
 21 22  1  0
 20 23  1  0
 23 24  2  0
 10 25  1  0
 25 26  2  0
 25 27  1  0
 27 28  1  0
 28 29  2  0
 29 30  1  0
 30 31  1  0
 31 32  1  0
 29  4  1  0
 27  6  2  0
 24 17  1  0
  1 33  1  0
  1 34  1  0
  1 35  1  0
  2 36  1  0
  2 37  1  0
  5 38  1  0
  7 39  1  0
 11 40  1  0
 11 41  1  0
 12 42  1  0
 12 43  1  0
 15 44  1  0
 16 45  1  0
 16 46  1  0
 18 47  1  0
 19 48  1  0
 22 49  1  0
 22 50  1  0
 22 51  1  0
 23 52  1  0
 24 53  1  0
 28 54  1  0
 31 55  1  0
 31 56  1  0
 32 57  1  0
 32 58  1  0
 32 59  1  0
M  END
$$$$
