
     RDKit          3D

 43 45  0  0  0  0  0  0  0  0999 V2000
   -4.6609    3.4087   -0.6647 C   0  0  0  0  0  0  0  0  0  0  0  0
   -4.6430    2.4253    0.3682 O   0  0  0  0  0  0  0  0  0  0  0  0
   -3.9510    1.2753    0.1167 C   0  0  0  0  0  0  0  0  0  0  0  0
   -4.0516    0.3009    1.1112 C   0  0  0  0  0  0  0  0  0  0  0  0
   -3.3923   -0.9278    0.9878 C   0  0  0  0  0  0  0  0  0  0  0  0
   -2.6072   -1.2031   -0.1354 C   0  0  0  0  0  0  0  0  0  0  0  0
   -1.9365   -2.3817   -0.3371 O   0  0  0  0  0  0  0  0  0  0  0  0
   -1.9390   -3.3307    0.7316 C   0  0  0  0  0  0  0  0  0  0  0  0
   -2.4992   -0.2124   -1.1221 C   0  0  0  0  0  0  0  0  0  0  0  0
   -1.4778   -0.4550   -2.5552 S   0  0  0  0  0  6  0  0  0  0  0  0
   -2.0634   -1.5329   -3.3278 O   0  0  0  0  0  0  0  0  0  0  0  0
   -1.2485    0.8449   -3.1603 O   0  0  0  0  0  0  0  0  0  0  0  0
   -0.0067   -1.0194   -1.9548 N   0  0  0  0  0  0  0  0  0  0  0  0
    0.7366   -0.3423   -0.9337 C   0  0  0  0  0  0  0  0  0  0  0  0
    0.6841    1.0306   -0.7005 C   0  0  0  0  0  0  0  0  0  0  0  0
    1.4847    1.6079    0.2861 C   0  0  0  0  0  0  0  0  0  0  0  0
    2.3849    0.8269    1.0031 C   0  0  0  0  0  0  0  0  0  0  0  0
    3.1266    1.4799    1.9402 O   0  0  0  0  0  0  0  0  0  0  0  0
    2.5002   -0.5446    0.7455 C   0  0  0  0  0  0  0  0  0  0  0  0
    3.6434   -1.6194    1.6024 S   0  0  0  0  0  0  0  0  0  0  0  0
    5.1575   -0.9145    1.1133 C   0  0  0  0  0  0  0  0  0  0  0  0
    5.7099    0.1370    1.7933 N   0  0  0  0  0  0  0  0  0  0  0  0
    6.7899    0.3968    1.0939 C   0  0  0  0  0  0  0  0  0  0  0  0
    6.8466   -0.4345    0.0189 N   0  0  0  0  0  0  0  0  0  0  0  0
    5.8235   -1.3023    0.0259 N   0  0  0  0  0  0  0  0  0  0  0  0
    1.6688   -1.1165   -0.2243 C   0  0  0  0  0  0  0  0  0  0  0  0
   -3.1720    1.0149   -1.0058 C   0  0  0  0  0  0  0  0  0  0  0  0
   -5.2749    4.2439   -0.3223 H   0  0  0  0  0  0  0  0  0  0  0  0
   -5.1150    3.0089   -1.5776 H   0  0  0  0  0  0  0  0  0  0  0  0
   -3.6529    3.7962   -0.8567 H   0  0  0  0  0  0  0  0  0  0  0  0
   -4.6557    0.5009    1.9938 H   0  0  0  0  0  0  0  0  0  0  0  0
   -3.5204   -1.6462    1.7950 H   0  0  0  0  0  0  0  0  0  0  0  0
   -1.3186   -4.1780    0.4211 H   0  0  0  0  0  0  0  0  0  0  0  0
   -1.4966   -2.9060    1.6382 H   0  0  0  0  0  0  0  0  0  0  0  0
   -2.9468   -3.7091    0.9235 H   0  0  0  0  0  0  0  0  0  0  0  0
   -0.0396   -2.0375   -1.8811 H   0  0  0  0  0  0  0  0  0  0  0  0
    0.0297    1.6887   -1.2668 H   0  0  0  0  0  0  0  0  0  0  0  0
    1.4194    2.6712    0.4876 H   0  0  0  0  0  0  0  0  0  0  0  0
    3.8847    0.9168    2.2052 H   0  0  0  0  0  0  0  0  0  0  0  0
    7.5359    1.1485    1.3076 H   0  0  0  0  0  0  0  0  0  0  0  0
    7.5495   -0.4829   -0.7147 H   0  0  0  0  0  0  0  0  0  0  0  0
    1.7579   -2.1778   -0.4403 H   0  0  0  0  0  0  0  0  0  0  0  0
   -3.0642    1.7506   -1.7944 H   0  0  0  0  0  0  0  0  0  0  0  0
  1  2  1  0
  2  3  1  0
  3  4  2  0
  4  5  1  0
  5  6  2  0
  6  7  1  0
  7  8  1  0
  6  9  1  0
  9 10  1  0
 10 11  2  0
 10 12  2  0
 10 13  1  0
 13 14  1  0
 14 15  2  0
 15 16  1  0
 16 17  2  0
 17 18  1  0
 17 19  1  0
 19 20  1  0
 20 21  1  0
 21 22  1  0
 22 23  2  0
 23 24  1  0
 24 25  1  0
 19 26  2  0
  9 27  2  0
 27  3  1  0
 26 14  1  0
 25 21  2  0
  1 28  1  0
  1 29  1  0
  1 30  1  0
  4 31  1  0
  5 32  1  0
  8 33  1  0
  8 34  1  0
  8 35  1  0
 13 36  1  0
 15 37  1  0
 16 38  1  0
 18 39  1  0
 23 40  1  0
 24 41  1  0
 26 42  1  0
 27 43  1  0
M  END
$$$$
