
     RDKit          3D

 29 30  0  0  0  0  0  0  0  0999 V2000
    4.3113    2.6099    1.7641 O   0  0  0  0  0  0  0  0  0  0  0  0
    4.5082    1.8793    0.8013 C   0  0  0  0  0  0  0  0  0  0  0  0
    3.5111    0.8856    0.3581 C   0  0  0  0  0  0  0  0  0  0  0  0
    3.7657    0.1211   -0.7851 C   0  0  0  0  0  0  0  0  0  0  0  0
    2.8292   -0.8252   -1.2063 C   0  0  0  0  0  0  0  0  0  0  0  0
    1.6417   -0.9992   -0.4930 C   0  0  0  0  0  0  0  0  0  0  0  0
    1.3876   -0.2150    0.6355 C   0  0  0  0  0  0  0  0  0  0  0  0
    0.2475   -0.3809    1.3878 O   0  0  0  0  0  0  0  0  0  0  0  0
   -0.9486   -0.1868    0.7355 C   0  0  0  0  0  0  0  0  0  0  0  0
   -1.2054    0.9987    0.0351 C   0  0  0  0  0  0  0  0  0  0  0  0
   -2.4567    1.2121   -0.5555 C   0  0  0  0  0  0  0  0  0  0  0  0
   -3.4645    0.2425   -0.4302 C   0  0  0  0  0  0  0  0  0  0  0  0
   -4.7756    0.4725   -1.0521 N   0  0  0  0  0  4  0  0  0  0  0  0
   -5.6132   -0.4358   -0.9716 O   0  0  0  0  0  0  0  0  0  0  0  0
   -4.9594    1.5561   -1.6221 O   0  0  0  0  0  1  0  0  0  0  0  0
   -3.2332   -0.9399    0.2822 C   0  0  0  0  0  0  0  0  0  0  0  0
   -1.9707   -1.1334    0.8575 C   0  0  0  0  0  0  0  0  0  0  0  0
   -1.7316   -2.3663    1.5797 N   0  0  0  0  0  4  0  0  0  0  0  0
   -0.8204   -3.0960    1.1684 O   0  0  0  0  0  0  0  0  0  0  0  0
   -2.4928   -2.6169    2.5226 O   0  0  0  0  0  1  0  0  0  0  0  0
    2.3264    0.7146    1.0783 C   0  0  0  0  0  0  0  0  0  0  0  0
    5.4417    1.9381    0.2168 H   0  0  0  0  0  0  0  0  0  0  0  0
    4.6877    0.2449   -1.3479 H   0  0  0  0  0  0  0  0  0  0  0  0
    3.0283   -1.4367   -2.0836 H   0  0  0  0  0  0  0  0  0  0  0  0
    0.9326   -1.7599   -0.8100 H   0  0  0  0  0  0  0  0  0  0  0  0
   -0.4429    1.7716   -0.0436 H   0  0  0  0  0  0  0  0  0  0  0  0
   -2.6314    2.1407   -1.0981 H   0  0  0  0  0  0  0  0  0  0  0  0
   -4.0087   -1.6963    0.3930 H   0  0  0  0  0  0  0  0  0  0  0  0
    2.1362    1.3006    1.9745 H   0  0  0  0  0  0  0  0  0  0  0  0
  1  2  2  0
  2  3  1  0
  3  4  2  0
  4  5  1  0
  5  6  2  0
  6  7  1  0
  7  8  1  0
  8  9  1  0
  9 10  2  0
 10 11  1  0
 11 12  2  0
 12 13  1  0
 13 14  2  0
 13 15  1  0
 12 16  1  0
 16 17  2  0
 17 18  1  0
 18 19  2  0
 18 20  1  0
  7 21  2  0
 21  3  1  0
 17  9  1  0
  2 22  1  0
  4 23  1  0
  5 24  1  0
  6 25  1  0
 10 26  1  0
 11 27  1  0
 16 28  1  0
 21 29  1  0
M  CHG  4  13   1  15  -1  18   1  20  -1
M  END
$$$$
