
     RDKit          3D

 50 53  0  0  0  0  0  0  0  0999 V2000
   -5.3516   -0.9882    5.3117 C   0  0  0  0  0  0  0  0  0  0  0  0
   -4.5143   -0.8967    4.0709 C   0  0  0  0  0  0  0  0  0  0  0  0
   -5.0729   -1.1687    2.8169 C   0  0  0  0  0  0  0  0  0  0  0  0
   -4.3066   -1.0548    1.6499 C   0  0  0  0  0  0  0  0  0  0  0  0
   -2.9646   -0.6663    1.7182 C   0  0  0  0  0  0  0  0  0  0  0  0
   -2.1446   -0.5275    0.5550 N   0  0  0  0  0  0  0  0  0  0  0  0
   -0.9997    0.2053    0.6494 N   0  0  0  0  0  0  0  0  0  0  0  0
   -0.5721    0.3413   -0.6070 C   0  0  0  0  0  0  0  0  0  0  0  0
    0.5869    1.1064   -1.0440 C   0  0  0  0  0  0  0  0  0  0  0  0
    1.3349    1.7205   -0.2838 O   0  0  0  0  0  0  0  0  0  0  0  0
    0.7909    1.0434   -2.4348 N   0  0  0  0  0  0  0  0  0  0  0  0
    1.8983    1.7926   -3.0208 C   0  0  0  0  0  0  0  0  0  0  0  0
    3.2185    1.0359   -2.8803 C   0  0  0  0  0  0  0  0  0  0  0  0
    3.8156    0.5718   -3.8511 O   0  0  0  0  0  0  0  0  0  0  0  0
    3.6958    0.9596   -1.5900 N   0  0  0  0  0  0  0  0  0  0  0  0
    4.9356    0.3062   -1.2490 C   0  0  0  0  0  0  0  0  0  0  0  0
    5.7760    1.2709   -0.4702 C   0  0  0  0  0  0  0  0  0  0  0  0
    5.6198    1.6811    0.8418 C   0  0  0  0  0  0  0  0  0  0  0  0
    6.6205    2.6165    1.2428 C   0  0  0  0  0  0  0  0  0  0  0  0
    7.5082    2.8882    0.2256 C   0  0  0  0  0  0  0  0  0  0  0  0
    7.1329    2.0234   -1.2026 S   0  0  0  0  0  0  0  0  0  0  0  0
   -0.0019    0.3143   -3.3296 N   0  0  0  0  0  0  0  0  0  0  0  0
   -1.0279   -0.3754   -2.9166 C   0  0  0  0  0  0  0  0  0  0  0  0
   -1.8293   -1.1406   -3.9318 C   0  0  0  0  0  0  0  0  0  0  0  0
   -1.3542   -0.3834   -1.5106 C   0  0  0  0  0  0  0  0  0  0  0  0
   -2.3093   -1.0292   -0.7433 C   0  0  0  0  0  0  0  0  0  0  0  0
   -3.2840   -2.0851   -1.1236 C   0  0  0  0  0  0  0  0  0  0  0  0
   -2.4190   -0.3524    2.9753 C   0  0  0  0  0  0  0  0  0  0  0  0
   -3.1862   -0.4691    4.1388 C   0  0  0  0  0  0  0  0  0  0  0  0
   -5.9126   -0.0589    5.4559 H   0  0  0  0  0  0  0  0  0  0  0  0
   -6.0575   -1.8234    5.2431 H   0  0  0  0  0  0  0  0  0  0  0  0
   -4.7274   -1.1635    6.1938 H   0  0  0  0  0  0  0  0  0  0  0  0
   -6.1191   -1.4598    2.7386 H   0  0  0  0  0  0  0  0  0  0  0  0
   -4.8158   -1.2262    0.7082 H   0  0  0  0  0  0  0  0  0  0  0  0
    1.6977    1.9718   -4.0826 H   0  0  0  0  0  0  0  0  0  0  0  0
    1.9911    2.7651   -2.5249 H   0  0  0  0  0  0  0  0  0  0  0  0
    3.1511    1.3806   -0.8391 H   0  0  0  0  0  0  0  0  0  0  0  0
    5.4462   -0.0665   -2.1421 H   0  0  0  0  0  0  0  0  0  0  0  0
    4.6833   -0.5585   -0.6242 H   0  0  0  0  0  0  0  0  0  0  0  0
    4.8192    1.3303    1.4841 H   0  0  0  0  0  0  0  0  0  0  0  0
    6.6833    3.0667    2.2271 H   0  0  0  0  0  0  0  0  0  0  0  0
    8.3600    3.5562    0.2478 H   0  0  0  0  0  0  0  0  0  0  0  0
   -1.5507   -0.8338   -4.9443 H   0  0  0  0  0  0  0  0  0  0  0  0
   -1.6261   -2.2101   -3.8238 H   0  0  0  0  0  0  0  0  0  0  0  0
   -2.8981   -0.9510   -3.7949 H   0  0  0  0  0  0  0  0  0  0  0  0
   -3.4604   -2.7903   -0.3062 H   0  0  0  0  0  0  0  0  0  0  0  0
   -2.9050   -2.6907   -1.9513 H   0  0  0  0  0  0  0  0  0  0  0  0
   -4.2326   -1.6419   -1.4400 H   0  0  0  0  0  0  0  0  0  0  0  0
   -1.3877   -0.0171    3.0703 H   0  0  0  0  0  0  0  0  0  0  0  0
   -2.7349   -0.2186    5.0974 H   0  0  0  0  0  0  0  0  0  0  0  0
  1  2  1  0
  2  3  2  0
  3  4  1  0
  4  5  2  0
  5  6  1  0
  6  7  1  0
  7  8  2  0
  8  9  1  0
  9 10  2  0
  9 11  1  0
 11 12  1  0
 12 13  1  0
 13 14  2  0
 13 15  1  0
 15 16  1  0
 16 17  1  0
 17 18  2  0
 18 19  1  0
 19 20  2  0
 20 21  1  0
 11 22  1  0
 22 23  2  0
 23 24  1  0
 23 25  1  0
 25 26  2  0
 26 27  1  0
  5 28  1  0
 28 29  2  0
 29  2  1  0
 26  6  1  0
 25  8  1  0
 21 17  1  0
  1 30  1  0
  1 31  1  0
  1 32  1  0
  3 33  1  0
  4 34  1  0
 12 35  1  0
 12 36  1  0
 15 37  1  0
 16 38  1  0
 16 39  1  0
 18 40  1  0
 19 41  1  0
 20 42  1  0
 24 43  1  0
 24 44  1  0
 24 45  1  0
 27 46  1  0
 27 47  1  0
 27 48  1  0
 28 49  1  0
 29 50  1  0
M  END
$$$$
