
     RDKit          3D

 79 84  0  0  0  0  0  0  0  0999 V2000
    6.5779   -0.8518   -3.9147 C   0  0  0  0  0  0  0  0  0  0  0  0
    5.8087   -1.5092   -3.0301 C   0  0  0  0  0  0  0  0  0  0  0  0
    5.2352   -2.8601   -3.3559 C   0  0  0  0  0  0  0  0  0  0  0  0
    5.5586   -0.9597   -1.6396 C   0  0  0  0  0  0  0  0  0  0  0  0
    4.2746   -0.1268   -1.4452 C   0  0  1  0  0  0  0  0  0  0  0  0
    4.3078    1.0293   -2.2904 O   0  0  0  0  0  0  0  0  0  0  0  0
    2.9821   -0.9214   -1.6860 C   0  0  0  0  0  0  0  0  0  0  0  0
    1.8930   -0.3661   -0.9375 O   0  0  0  0  0  0  0  0  0  0  0  0
    1.1469    0.6675   -1.4272 C   0  0  0  0  0  0  0  0  0  0  0  0
    1.2231    1.1174   -2.7531 C   0  0  0  0  0  0  0  0  0  0  0  0
    0.4529    2.1965   -3.1269 C   0  0  0  0  0  0  0  0  0  0  0  0
   -0.3679    2.8386   -2.2396 C   0  0  0  0  0  0  0  0  0  0  0  0
   -0.4729    2.4299   -0.9296 C   0  0  0  0  0  0  0  0  0  0  0  0
    0.2655    1.2994   -0.4959 C   0  0  0  0  0  0  0  0  0  0  0  0
    0.1846    0.8719    0.9997 C   0  0  0  0  0  0  0  0  0  0  0  0
   -1.1599    1.2388    1.7159 C   0  0  0  0  0  0  0  0  0  0  0  0
   -1.1730    1.9900    2.9137 C   0  0  0  0  0  0  0  0  0  0  0  0
   -2.3812    2.2621    3.5186 C   0  0  0  0  0  0  0  0  0  0  0  0
   -3.5661    1.8141    2.9986 C   0  0  0  0  0  0  0  0  0  0  0  0
   -3.6166    1.0666    1.8437 C   0  0  0  0  0  0  0  0  0  0  0  0
   -2.4105    0.7702    1.1945 C   0  0  0  0  0  0  0  0  0  0  0  0
   -2.3341    0.0539    0.0302 O   0  0  0  0  0  0  0  0  0  0  0  0
   -3.4701   -0.6727   -0.4500 C   0  0  0  0  0  0  0  0  0  0  0  0
   -3.6296   -2.0107    0.2928 C   0  0  2  0  0  0  0  0  0  0  0  0
   -2.5311   -2.8619   -0.0561 O   0  0  0  0  0  0  0  0  0  0  0  0
   -4.9525   -2.6894   -0.1127 C   0  0  0  0  0  0  0  0  0  0  0  0
   -5.4185   -3.8978    0.6871 C   0  0  0  0  0  0  0  0  0  0  0  0
   -4.7049   -4.5121    1.6438 C   0  0  0  0  0  0  0  0  0  0  0  0
   -6.7903   -4.3981    0.3192 C   0  0  0  0  0  0  0  0  0  0  0  0
   -4.6377    2.1913    3.7465 O   0  0  0  0  0  0  0  0  0  0  0  0
   -3.9867    2.9305    4.8004 C   0  0  0  0  0  0  0  0  0  0  0  0
   -2.5514    2.9766    4.6628 O   0  0  0  0  0  0  0  0  0  0  0  0
    0.3936   -0.6891    1.2549 C   0  0  0  0  0  0  0  0  0  0  0  0
   -0.2872   -1.6343    0.8776 O   0  0  0  0  0  0  0  0  0  0  0  0
    1.5171   -0.8444    2.0678 N   0  0  0  0  0  0  0  0  0  0  0  0
    2.1453    0.3624    2.3106 C   0  0  0  0  0  0  0  0  0  0  0  0
    3.3216    0.5546    3.0028 C   0  0  0  0  0  0  0  0  0  0  0  0
    3.8019    1.8579    3.0791 C   0  0  0  0  0  0  0  0  0  0  0  0
    4.9472    2.0944    3.7331 F   0  0  0  0  0  0  0  0  0  0  0  0
    3.1259    2.9295    2.4801 C   0  0  0  0  0  0  0  0  0  0  0  0
    1.9347    2.7108    1.7832 C   0  0  0  0  0  0  0  0  0  0  0  0
    1.4423    1.4112    1.7136 C   0  0  0  0  0  0  0  0  0  0  0  0
   -1.0218    3.8906   -2.7993 O   0  0  0  0  0  0  0  0  0  0  0  0
   -0.5315    3.8216   -4.1543 C   0  0  0  0  0  0  0  0  0  0  0  0
    0.4199    2.7590   -4.3655 O   0  0  0  0  0  0  0  0  0  0  0  0
    6.7810   -1.2543   -4.9029 H   0  0  0  0  0  0  0  0  0  0  0  0
    7.0193    0.1121   -3.6816 H   0  0  0  0  0  0  0  0  0  0  0  0
    5.5293   -3.5914   -2.5960 H   0  0  0  0  0  0  0  0  0  0  0  0
    4.1439   -2.8242   -3.4014 H   0  0  0  0  0  0  0  0  0  0  0  0
    5.5915   -3.2321   -4.3228 H   0  0  0  0  0  0  0  0  0  0  0  0
    6.4128   -0.3242   -1.3662 H   0  0  0  0  0  0  0  0  0  0  0  0
    5.5698   -1.7875   -0.9196 H   0  0  0  0  0  0  0  0  0  0  0  0
    4.2680    0.2496   -0.4149 H   0  0  0  0  0  0  0  0  0  0  0  0
    5.1604    1.4737   -2.1509 H   0  0  0  0  0  0  0  0  0  0  0  0
    3.1081   -1.9318   -1.2801 H   0  0  0  0  0  0  0  0  0  0  0  0
    2.7346   -1.0397   -2.7445 H   0  0  0  0  0  0  0  0  0  0  0  0
    1.8753    0.6729   -3.4932 H   0  0  0  0  0  0  0  0  0  0  0  0
   -1.1243    2.9844   -0.2620 H   0  0  0  0  0  0  0  0  0  0  0  0
   -0.2713    2.3578    3.3888 H   0  0  0  0  0  0  0  0  0  0  0  0
   -4.5836    0.7444    1.4826 H   0  0  0  0  0  0  0  0  0  0  0  0
   -3.2602   -0.8778   -1.5066 H   0  0  0  0  0  0  0  0  0  0  0  0
   -4.3746   -0.0567   -0.4353 H   0  0  0  0  0  0  0  0  0  0  0  0
   -3.5930   -1.8533    1.3756 H   0  0  0  0  0  0  0  0  0  0  0  0
   -1.7113   -2.3902    0.2241 H   0  0  0  0  0  0  0  0  0  0  0  0
   -5.7519   -1.9396   -0.0463 H   0  0  0  0  0  0  0  0  0  0  0  0
   -4.8820   -2.9990   -1.1638 H   0  0  0  0  0  0  0  0  0  0  0  0
   -5.0925   -5.3768    2.1748 H   0  0  0  0  0  0  0  0  0  0  0  0
   -3.7027   -4.1946    1.9137 H   0  0  0  0  0  0  0  0  0  0  0  0
   -6.8208   -4.6779   -0.7383 H   0  0  0  0  0  0  0  0  0  0  0  0
   -7.0819   -5.2760    0.9046 H   0  0  0  0  0  0  0  0  0  0  0  0
   -7.5386   -3.6185    0.4954 H   0  0  0  0  0  0  0  0  0  0  0  0
   -4.2326    2.4643    5.7610 H   0  0  0  0  0  0  0  0  0  0  0  0
   -4.3722    3.9564    4.7993 H   0  0  0  0  0  0  0  0  0  0  0  0
    1.8473   -1.7547    2.3496 H   0  0  0  0  0  0  0  0  0  0  0  0
    3.8667   -0.2595    3.4622 H   0  0  0  0  0  0  0  0  0  0  0  0
    3.5410    3.9304    2.5589 H   0  0  0  0  0  0  0  0  0  0  0  0
    1.4156    3.5374    1.3061 H   0  0  0  0  0  0  0  0  0  0  0  0
   -0.0524    4.7759   -4.4032 H   0  0  0  0  0  0  0  0  0  0  0  0
   -1.3839    3.6698   -4.8274 H   0  0  0  0  0  0  0  0  0  0  0  0
  1  2  2  0
  2  3  1  0
  2  4  1  0
  4  5  1  0
  5  6  1  0
  5  7  1  0
  7  8  1  0
  8  9  1  0
  9 10  2  0
 10 11  1  0
 11 12  2  0
 12 13  1  0
 13 14  2  0
 14 15  1  0
 15 16  1  0
 16 17  2  0
 17 18  1  0
 18 19  2  0
 19 20  1  0
 20 21  2  0
 21 22  1  0
 22 23  1  0
 23 24  1  0
 24 25  1  0
 24 26  1  0
 26 27  1  0
 27 28  2  0
 27 29  1  0
 19 30  1  0
 30 31  1  0
 31 32  1  0
 15 33  1  0
 33 34  2  0
 33 35  1  0
 35 36  1  0
 36 37  2  0
 37 38  1  0
 38 39  1  0
 38 40  2  0
 40 41  1  0
 41 42  2  0
 12 43  1  0
 43 44  1  0
 44 45  1  0
 14  9  1  0
 42 15  1  0
 45 11  1  0
 21 16  1  0
 42 36  1  0
 32 18  1  0
  1 46  1  0
  1 47  1  0
  3 48  1  0
  3 49  1  0
  3 50  1  0
  4 51  1  0
  4 52  1  0
  5 53  1  1
  6 54  1  0
  7 55  1  0
  7 56  1  0
 10 57  1  0
 13 58  1  0
 17 59  1  0
 20 60  1  0
 23 61  1  0
 23 62  1  0
 24 63  1  1
 25 64  1  0
 26 65  1  0
 26 66  1  0
 28 67  1  0
 28 68  1  0
 29 69  1  0
 29 70  1  0
 29 71  1  0
 31 72  1  0
 31 73  1  0
 35 74  1  0
 37 75  1  0
 40 76  1  0
 41 77  1  0
 44 78  1  0
 44 79  1  0
M  END
$$$$
