
     RDKit          3D

 64 67  0  0  0  0  0  0  0  0999 V2000
    8.2812    1.7389    2.9102 C   0  0  0  0  0  0  0  0  0  0  0  0
    8.0536    0.4614    2.3262 O   0  0  0  0  0  0  0  0  0  0  0  0
    7.0513    0.3786    1.3999 C   0  0  0  0  0  0  0  0  0  0  0  0
    6.1378    1.3837    1.0881 C   0  0  0  0  0  0  0  0  0  0  0  0
    5.1586    1.1634    0.1105 C   0  0  0  0  0  0  0  0  0  0  0  0
    5.0802   -0.0585   -0.5688 C   0  0  0  0  0  0  0  0  0  0  0  0
    4.0770   -0.1843   -1.5466 N   0  0  0  0  0  0  0  0  0  0  0  0
    3.7821   -1.2856   -2.3355 C   0  0  0  0  0  0  0  0  0  0  0  0
    4.3190   -2.3896   -2.2956 O   0  0  0  0  0  0  0  0  0  0  0  0
    2.6269   -1.0097   -3.3044 C   0  0  0  0  0  0  0  0  0  0  0  0
    1.3329   -1.0834   -2.6237 N   0  0  0  0  0  0  0  0  0  0  0  0
    0.7771   -2.4190   -2.4389 C   0  0  0  0  0  0  0  0  0  0  0  0
    0.9213    0.0473   -1.9335 C   0  0  0  0  0  0  0  0  0  0  0  0
    1.5647    1.0979   -1.9650 O   0  0  0  0  0  0  0  0  0  0  0  0
   -0.3199   -0.0509   -1.1257 C   0  0  0  0  0  0  0  0  0  0  0  0
   -0.9421    1.0643   -0.7078 C   0  0  0  0  0  0  0  0  0  0  0  0
   -2.1417    1.0953    0.0653 C   0  0  0  0  0  0  0  0  0  0  0  0
   -2.4268    2.0834    0.9793 C   0  0  0  0  0  0  0  0  0  0  0  0
   -3.6403    1.7695    1.5490 N   0  0  0  0  0  0  0  0  0  0  0  0
   -4.3490    2.4872    2.5551 C   0  0  0  0  0  0  0  0  0  0  0  0
   -5.6072    2.0227    2.9748 C   0  0  0  0  0  0  0  0  0  0  0  0
   -6.3235    2.7137    3.9547 C   0  0  0  0  0  0  0  0  0  0  0  0
   -5.7911    3.8687    4.5245 C   0  0  0  0  0  0  0  0  0  0  0  0
   -4.5415    4.3345    4.1166 C   0  0  0  0  0  0  0  0  0  0  0  0
   -3.8189    3.6497    3.1341 C   0  0  0  0  0  0  0  0  0  0  0  0
   -4.1474    0.6242    1.0299 N   0  0  0  0  0  0  0  0  0  0  0  0
   -3.2636    0.2199    0.1064 C   0  0  0  0  0  0  0  0  0  0  0  0
   -3.5349   -0.9740   -0.6914 C   0  0  0  0  0  0  0  0  0  0  0  0
   -3.4637   -0.9329   -2.0894 C   0  0  0  0  0  0  0  0  0  0  0  0
   -3.6950   -2.0869   -2.8433 C   0  0  0  0  0  0  0  0  0  0  0  0
   -3.9993   -3.2981   -2.2111 C   0  0  0  0  0  0  0  0  0  0  0  0
   -4.2804   -4.5279   -3.0239 C   0  0  0  0  0  0  0  0  0  0  0  0
   -4.1043   -3.3307   -0.8153 C   0  0  0  0  0  0  0  0  0  0  0  0
   -3.8722   -2.1772   -0.0611 C   0  0  0  0  0  0  0  0  0  0  0  0
    5.9914   -1.0633   -0.2495 C   0  0  0  0  0  0  0  0  0  0  0  0
    6.9657   -0.8440    0.7325 C   0  0  0  0  0  0  0  0  0  0  0  0
    7.4324    2.0435    3.5340 H   0  0  0  0  0  0  0  0  0  0  0  0
    8.5008    2.4922    2.1459 H   0  0  0  0  0  0  0  0  0  0  0  0
    9.1591    1.6605    3.5583 H   0  0  0  0  0  0  0  0  0  0  0  0
    6.1544    2.3478    1.5857 H   0  0  0  0  0  0  0  0  0  0  0  0
    4.4586    1.9656   -0.1139 H   0  0  0  0  0  0  0  0  0  0  0  0
    3.4537    0.6182   -1.6607 H   0  0  0  0  0  0  0  0  0  0  0  0
    2.7637   -0.0193   -3.7543 H   0  0  0  0  0  0  0  0  0  0  0  0
    2.6563   -1.7351   -4.1248 H   0  0  0  0  0  0  0  0  0  0  0  0
    1.0903   -3.0749   -3.2559 H   0  0  0  0  0  0  0  0  0  0  0  0
    1.1319   -2.8209   -1.4854 H   0  0  0  0  0  0  0  0  0  0  0  0
   -0.3149   -2.3844   -2.4399 H   0  0  0  0  0  0  0  0  0  0  0  0
   -0.6956   -1.0272   -0.8591 H   0  0  0  0  0  0  0  0  0  0  0  0
   -0.4981    2.0296   -0.9516 H   0  0  0  0  0  0  0  0  0  0  0  0
   -1.8649    2.9572    1.2705 H   0  0  0  0  0  0  0  0  0  0  0  0
   -6.0453    1.1238    2.5419 H   0  0  0  0  0  0  0  0  0  0  0  0
   -7.2992    2.3495    4.2689 H   0  0  0  0  0  0  0  0  0  0  0  0
   -6.3499    4.4059    5.2867 H   0  0  0  0  0  0  0  0  0  0  0  0
   -4.1277    5.2354    4.5651 H   0  0  0  0  0  0  0  0  0  0  0  0
   -2.8492    4.0488    2.8524 H   0  0  0  0  0  0  0  0  0  0  0  0
   -3.2380   -0.0012   -2.6027 H   0  0  0  0  0  0  0  0  0  0  0  0
   -3.6420   -2.0315   -3.9287 H   0  0  0  0  0  0  0  0  0  0  0  0
   -5.3426   -4.5686   -3.2851 H   0  0  0  0  0  0  0  0  0  0  0  0
   -3.6871   -4.5299   -3.9446 H   0  0  0  0  0  0  0  0  0  0  0  0
   -4.0164   -5.4339   -2.4670 H   0  0  0  0  0  0  0  0  0  0  0  0
   -4.3726   -4.2526   -0.3038 H   0  0  0  0  0  0  0  0  0  0  0  0
   -3.9588   -2.2178    1.0231 H   0  0  0  0  0  0  0  0  0  0  0  0
    5.9747   -2.0296   -0.7435 H   0  0  0  0  0  0  0  0  0  0  0  0
    7.6688   -1.6389    0.9723 H   0  0  0  0  0  0  0  0  0  0  0  0
  1  2  1  0
  2  3  1  0
  3  4  2  0
  4  5  1  0
  5  6  2  0
  6  7  1  0
  7  8  1  0
  8  9  2  0
  8 10  1  0
 10 11  1  0
 11 12  1  0
 11 13  1  0
 13 14  2  0
 13 15  1  0
 15 16  2  3
 16 17  1  0
 17 18  2  0
 18 19  1  0
 19 20  1  0
 20 21  2  0
 21 22  1  0
 22 23  2  0
 23 24  1  0
 24 25  2  0
 19 26  1  0
 26 27  2  0
 27 28  1  0
 28 29  2  0
 29 30  1  0
 30 31  2  0
 31 32  1  0
 31 33  1  0
 33 34  2  0
  6 35  1  0
 35 36  2  0
 36  3  1  0
 27 17  1  0
 34 28  1  0
 25 20  1  0
  1 37  1  0
  1 38  1  0
  1 39  1  0
  4 40  1  0
  5 41  1  0
  7 42  1  0
 10 43  1  0
 10 44  1  0
 12 45  1  0
 12 46  1  0
 12 47  1  0
 15 48  1  0
 16 49  1  0
 18 50  1  0
 21 51  1  0
 22 52  1  0
 23 53  1  0
 24 54  1  0
 25 55  1  0
 29 56  1  0
 30 57  1  0
 32 58  1  0
 32 59  1  0
 32 60  1  0
 33 61  1  0
 34 62  1  0
 35 63  1  0
 36 64  1  0
M  END
$$$$
