
     RDKit          3D

 32 34  0  0  0  0  0  0  0  0999 V2000
   -4.7265    1.5252   -0.1595 O   0  0  0  0  0  0  0  0  0  0  0  0
   -5.0853    0.4406    0.2650 C   0  0  0  0  0  0  0  0  0  0  0  0
   -6.3329    0.2194    0.7807 N   0  0  0  0  0  0  0  0  0  0  0  0
   -6.6197   -1.0089    1.2848 C   0  0  0  0  0  0  0  0  0  0  0  0
   -8.0745   -1.4079    1.9644 S   0  0  0  0  0  0  0  0  0  0  0  0
   -5.2361   -2.0548    1.0982 S   0  0  0  0  0  0  0  0  0  0  0  0
   -4.2765   -0.8128    0.3334 C   0  0  0  0  0  0  0  0  0  0  0  0
   -3.0184   -1.0585   -0.0558 C   0  0  0  0  0  0  0  0  0  0  0  0
   -2.1304   -0.1523   -0.6940 C   0  0  0  0  0  0  0  0  0  0  0  0
   -2.3275    0.8191   -1.6663 C   0  0  0  0  0  0  0  0  0  0  0  0
   -1.0725    1.4019   -1.9651 C   0  0  0  0  0  0  0  0  0  0  0  0
   -0.1449    0.7537   -1.1845 C   0  0  0  0  0  0  0  0  0  0  0  0
    1.5740    1.0280   -1.1195 S   0  0  0  0  0  0  0  0  0  0  0  0
    2.0536   -0.1509    0.1757 C   0  0  0  0  0  0  0  0  0  0  0  0
    3.5373   -0.1066    0.4450 C   0  0  0  0  0  0  0  0  0  0  0  0
    4.0622    0.7744    1.4022 C   0  0  0  0  0  0  0  0  0  0  0  0
    5.4362    0.8213    1.6438 C   0  0  0  0  0  0  0  0  0  0  0  0
    6.2996   -0.0064    0.9287 C   0  0  0  0  0  0  0  0  0  0  0  0
    5.7912   -0.8793   -0.0313 C   0  0  0  0  0  0  0  0  0  0  0  0
    4.4176   -0.9281   -0.2748 C   0  0  0  0  0  0  0  0  0  0  0  0
   -0.7769   -0.1906   -0.4341 O   0  0  0  0  0  0  0  0  0  0  0  0
   -7.0003    0.9752    0.8177 H   0  0  0  0  0  0  0  0  0  0  0  0
   -2.5875   -2.0359    0.1524 H   0  0  0  0  0  0  0  0  0  0  0  0
   -3.2733    1.0839   -2.1189 H   0  0  0  0  0  0  0  0  0  0  0  0
   -0.8695    2.1955   -2.6705 H   0  0  0  0  0  0  0  0  0  0  0  0
    1.7668   -1.1654   -0.1249 H   0  0  0  0  0  0  0  0  0  0  0  0
    1.5075    0.0743    1.0994 H   0  0  0  0  0  0  0  0  0  0  0  0
    3.4020    1.4333    1.9622 H   0  0  0  0  0  0  0  0  0  0  0  0
    5.8331    1.5076    2.3873 H   0  0  0  0  0  0  0  0  0  0  0  0
    7.3694    0.0330    1.1155 H   0  0  0  0  0  0  0  0  0  0  0  0
    6.4652   -1.5195   -0.5944 H   0  0  0  0  0  0  0  0  0  0  0  0
    4.0370   -1.6083   -1.0338 H   0  0  0  0  0  0  0  0  0  0  0  0
  1  2  2  0
  2  3  1  0
  3  4  1  0
  4  5  2  0
  4  6  1  0
  6  7  1  0
  7  8  2  3
  8  9  1  0
  9 10  2  0
 10 11  1  0
 11 12  2  0
 12 13  1  0
 13 14  1  0
 14 15  1  0
 15 16  2  0
 16 17  1  0
 17 18  2  0
 18 19  1  0
 19 20  2  0
 12 21  1  0
  7  2  1  0
 21  9  1  0
 20 15  1  0
  3 22  1  0
  8 23  1  0
 10 24  1  0
 11 25  1  0
 14 26  1  0
 14 27  1  0
 16 28  1  0
 17 29  1  0
 18 30  1  0
 19 31  1  0
 20 32  1  0
M  END
$$$$
