
     RDKit          3D

 58 60  0  0  0  0  0  0  0  0999 V2000
    8.2959    3.6764   -0.9608 C   0  0  0  0  0  0  0  0  0  0  0  0
    7.0808    3.4162   -0.1713 C   0  0  0  0  0  0  0  0  0  0  0  0
    5.9362    2.6886   -0.3818 C   0  0  0  0  0  0  0  0  0  0  0  0
    5.1813    2.8642    0.7977 C   0  0  0  0  0  0  0  0  0  0  0  0
    3.9503    2.3498    1.1380 N   0  0  0  0  0  0  0  0  0  0  0  0
    3.1920    1.5124    0.3528 C   0  0  0  0  0  0  0  0  0  0  0  0
    3.4803    1.1255   -0.7743 O   0  0  0  0  0  0  0  0  0  0  0  0
    1.9105    1.0979    1.0476 C   0  0  0  0  0  0  0  0  0  0  0  0
    1.1061    0.1094    0.2084 C   0  0  0  0  0  0  0  0  0  0  0  0
   -0.0873   -0.4234    0.9757 C   0  0  0  0  0  0  0  0  0  0  0  0
   -0.4498    0.1022    2.0319 O   0  0  0  0  0  0  0  0  0  0  0  0
   -0.7609   -1.5117    0.4396 N   0  0  0  0  0  0  0  0  0  0  0  0
   -1.8674   -2.0808    1.2227 C   0  0  0  0  0  0  0  0  0  0  0  0
   -3.2033   -1.4066    0.9047 C   0  0  0  0  0  0  0  0  0  0  0  0
   -4.1515   -2.0238    0.4268 O   0  0  0  0  0  0  0  0  0  0  0  0
   -3.2477   -0.0668    1.2278 N   0  0  0  0  0  0  0  0  0  0  0  0
   -4.4543    0.7145    1.0947 C   0  0  0  0  0  0  0  0  0  0  0  0
   -4.3218    2.1031    1.7071 C   0  0  0  0  0  0  0  0  0  0  0  0
   -5.4908    2.8540    1.0902 C   0  0  0  0  0  0  0  0  0  0  0  0
   -5.5558    2.3492   -0.3482 C   0  0  0  0  0  0  0  0  0  0  0  0
   -4.8287    1.0036   -0.3624 C   0  0  0  0  0  0  0  0  0  0  0  0
   -0.6912   -1.8958   -0.9749 C   0  0  0  0  0  0  0  0  0  0  0  0
   -0.4264   -3.3701   -1.1723 C   0  0  0  0  0  0  0  0  0  0  0  0
   -1.4270   -4.2081   -1.6918 C   0  0  0  0  0  0  0  0  0  0  0  0
   -1.1841   -5.5704   -1.8702 C   0  0  0  0  0  0  0  0  0  0  0  0
    0.0560   -6.0960   -1.5289 C   0  0  0  0  0  0  0  0  0  0  0  0
    0.2878   -7.4040   -1.6989 F   0  0  0  0  0  0  0  0  0  0  0  0
    1.0587   -5.2855   -1.0104 C   0  0  0  0  0  0  0  0  0  0  0  0
    0.8192   -3.9220   -0.8320 C   0  0  0  0  0  0  0  0  0  0  0  0
    5.8281    3.6493    1.6671 N   0  0  0  0  0  0  0  0  0  0  0  0
    7.0190    3.9960    1.0563 O   0  0  0  0  0  0  0  0  0  0  0  0
    9.1291    3.0723   -0.5878 H   0  0  0  0  0  0  0  0  0  0  0  0
    8.5808    4.7309   -0.8998 H   0  0  0  0  0  0  0  0  0  0  0  0
    8.1398    3.4296   -2.0138 H   0  0  0  0  0  0  0  0  0  0  0  0
    5.6897    2.1140   -1.2603 H   0  0  0  0  0  0  0  0  0  0  0  0
    3.6342    2.6241    2.0576 H   0  0  0  0  0  0  0  0  0  0  0  0
    2.1736    0.6469    2.0119 H   0  0  0  0  0  0  0  0  0  0  0  0
    1.3156    1.9971    1.2449 H   0  0  0  0  0  0  0  0  0  0  0  0
    1.7447   -0.7337   -0.0787 H   0  0  0  0  0  0  0  0  0  0  0  0
    0.7482    0.6090   -0.6986 H   0  0  0  0  0  0  0  0  0  0  0  0
   -1.6719   -1.9628    2.2953 H   0  0  0  0  0  0  0  0  0  0  0  0
   -1.9488   -3.1540    1.0308 H   0  0  0  0  0  0  0  0  0  0  0  0
   -2.4509    0.3174    1.7370 H   0  0  0  0  0  0  0  0  0  0  0  0
   -5.2725    0.1683    1.5816 H   0  0  0  0  0  0  0  0  0  0  0  0
   -4.3689    2.0821    2.8009 H   0  0  0  0  0  0  0  0  0  0  0  0
   -3.3727    2.5731    1.4195 H   0  0  0  0  0  0  0  0  0  0  0  0
   -6.4195    2.5975    1.6149 H   0  0  0  0  0  0  0  0  0  0  0  0
   -5.3644    3.9385    1.1430 H   0  0  0  0  0  0  0  0  0  0  0  0
   -5.0562    3.0496   -1.0260 H   0  0  0  0  0  0  0  0  0  0  0  0
   -6.5929    2.2534   -0.6840 H   0  0  0  0  0  0  0  0  0  0  0  0
   -5.4592    0.2115   -0.7808 H   0  0  0  0  0  0  0  0  0  0  0  0
   -3.9358    1.0739   -0.9971 H   0  0  0  0  0  0  0  0  0  0  0  0
   -1.6399   -1.6045   -1.4412 H   0  0  0  0  0  0  0  0  0  0  0  0
    0.0801   -1.3375   -1.5116 H   0  0  0  0  0  0  0  0  0  0  0  0
   -2.4064   -3.8067   -1.9519 H   0  0  0  0  0  0  0  0  0  0  0  0
   -1.9538   -6.2233   -2.2703 H   0  0  0  0  0  0  0  0  0  0  0  0
    2.0168   -5.7205   -0.7489 H   0  0  0  0  0  0  0  0  0  0  0  0
    1.6069   -3.2935   -0.4234 H   0  0  0  0  0  0  0  0  0  0  0  0
  1  2  1  0
  2  3  2  0
  3  4  1  0
  4  5  1  0
  5  6  1  0
  6  7  2  0
  6  8  1  0
  8  9  1  0
  9 10  1  0
 10 11  2  0
 10 12  1  0
 12 13  1  0
 13 14  1  0
 14 15  2  0
 14 16  1  0
 16 17  1  0
 17 18  1  0
 18 19  1  0
 19 20  1  0
 20 21  1  0
 12 22  1  0
 22 23  1  0
 23 24  2  0
 24 25  1  0
 25 26  2  0
 26 27  1  0
 26 28  1  0
 28 29  2  0
  4 30  2  0
 30 31  1  0
 31  2  1  0
 21 17  1  0
 29 23  1  0
  1 32  1  0
  1 33  1  0
  1 34  1  0
  3 35  1  0
  5 36  1  0
  8 37  1  0
  8 38  1  0
  9 39  1  0
  9 40  1  0
 13 41  1  0
 13 42  1  0
 16 43  1  0
 17 44  1  0
 18 45  1  0
 18 46  1  0
 19 47  1  0
 19 48  1  0
 20 49  1  0
 20 50  1  0
 21 51  1  0
 21 52  1  0
 22 53  1  0
 22 54  1  0
 24 55  1  0
 25 56  1  0
 28 57  1  0
 29 58  1  0
M  END
$$$$
