
     RDKit          3D

 44 47  0  0  0  0  0  0  0  0999 V2000
   -5.8740   -3.4420   -0.0952 C   0  0  0  0  0  0  0  0  0  0  0  0
   -4.5106   -3.0449    0.4418 C   0  0  0  0  0  0  0  0  0  0  0  0
   -4.4800   -1.6248    0.5541 O   0  0  0  0  0  0  0  0  0  0  0  0
   -3.2861   -1.0395    0.8969 C   0  0  0  0  0  0  0  0  0  0  0  0
   -2.1699   -1.7414    1.3617 C   0  0  0  0  0  0  0  0  0  0  0  0
   -0.9956   -1.0618    1.6958 C   0  0  0  0  0  0  0  0  0  0  0  0
   -0.9188    0.3247    1.5551 C   0  0  0  0  0  0  0  0  0  0  0  0
    0.2929    1.0657    1.9203 C   0  0  0  0  0  0  0  0  0  0  0  0
    1.5036    0.9537    1.3525 C   0  0  0  0  0  0  0  0  0  0  0  0
    2.8632    1.9377    1.9049 S   0  0  0  0  0  0  0  0  0  0  0  0
    3.8644    1.2135    0.7195 C   0  0  0  0  0  0  0  0  0  0  0  0
    5.1121    1.3296    0.3684 N   0  0  0  0  0  0  0  0  0  0  0  0
    5.1905    0.4096   -0.6690 C   0  0  0  0  0  0  0  0  0  0  0  0
    6.5191    0.1581   -1.4541 C   0  0  0  0  0  0  0  0  0  0  0  0
    7.7210    0.7975   -1.2170 C   0  0  0  0  0  0  0  0  0  0  0  0
    8.6520    0.2739   -2.1468 C   0  0  0  0  0  0  0  0  0  0  0  0
    7.9632   -0.6517   -2.8937 C   0  0  0  0  0  0  0  0  0  0  0  0
    6.6720   -0.7297   -2.4828 O   0  0  0  0  0  0  0  0  0  0  0  0
    4.0441   -0.2450   -0.9436 N   0  0  0  0  0  0  0  0  0  0  0  0
    3.2207    0.3012   -0.0338 N   0  0  0  0  0  0  0  0  0  0  0  0
    1.8861    0.0534    0.2127 C   0  0  0  0  0  0  0  0  0  0  0  0
    1.2299   -0.7553   -0.4146 O   0  0  0  0  0  0  0  0  0  0  0  0
   -2.0415    1.0335    1.1066 C   0  0  0  0  0  0  0  0  0  0  0  0
   -3.2274    0.3639    0.7818 C   0  0  0  0  0  0  0  0  0  0  0  0
   -4.3669    0.9737    0.3211 O   0  0  0  0  0  0  0  0  0  0  0  0
   -4.4871    2.3910    0.3942 C   0  0  0  0  0  0  0  0  0  0  0  0
   -4.0193    3.0348   -0.8992 C   0  0  0  0  0  0  0  0  0  0  0  0
   -6.0527   -2.9806   -1.0721 H   0  0  0  0  0  0  0  0  0  0  0  0
   -5.9515   -4.5280   -0.1980 H   0  0  0  0  0  0  0  0  0  0  0  0
   -6.6684   -3.0923    0.5725 H   0  0  0  0  0  0  0  0  0  0  0  0
   -3.7376   -3.3935   -0.2531 H   0  0  0  0  0  0  0  0  0  0  0  0
   -4.3679   -3.5042    1.4264 H   0  0  0  0  0  0  0  0  0  0  0  0
   -2.1807   -2.8197    1.4784 H   0  0  0  0  0  0  0  0  0  0  0  0
   -0.1435   -1.6345    2.0545 H   0  0  0  0  0  0  0  0  0  0  0  0
    0.1377    1.7813    2.7270 H   0  0  0  0  0  0  0  0  0  0  0  0
    7.8949    1.5508   -0.4608 H   0  0  0  0  0  0  0  0  0  0  0  0
    9.6942    0.5377   -2.2592 H   0  0  0  0  0  0  0  0  0  0  0  0
    8.2317   -1.3057   -3.7119 H   0  0  0  0  0  0  0  0  0  0  0  0
   -1.9636    2.1101    1.0010 H   0  0  0  0  0  0  0  0  0  0  0  0
   -3.9923    2.8138    1.2755 H   0  0  0  0  0  0  0  0  0  0  0  0
   -5.5546    2.6056    0.5195 H   0  0  0  0  0  0  0  0  0  0  0  0
   -4.5725    2.6264   -1.7515 H   0  0  0  0  0  0  0  0  0  0  0  0
   -2.9600    2.8358   -1.0861 H   0  0  0  0  0  0  0  0  0  0  0  0
   -4.1708    4.1176   -0.8690 H   0  0  0  0  0  0  0  0  0  0  0  0
  1  2  1  0
  2  3  1  0
  3  4  1  0
  4  5  2  0
  5  6  1  0
  6  7  2  0
  7  8  1  0
  8  9  2  3
  9 10  1  0
 10 11  1  0
 11 12  2  0
 12 13  1  0
 13 14  1  0
 14 15  2  0
 15 16  1  0
 16 17  2  0
 17 18  1  0
 13 19  2  0
 19 20  1  0
 20 21  1  0
 21 22  2  0
  7 23  1  0
 23 24  2  0
 24 25  1  0
 25 26  1  0
 26 27  1  0
 24  4  1  0
 21  9  1  0
 20 11  1  0
 18 14  1  0
  1 28  1  0
  1 29  1  0
  1 30  1  0
  2 31  1  0
  2 32  1  0
  5 33  1  0
  6 34  1  0
  8 35  1  0
 15 36  1  0
 16 37  1  0
 17 38  1  0
 23 39  1  0
 26 40  1  0
 26 41  1  0
 27 42  1  0
 27 43  1  0
 27 44  1  0
M  END
$$$$
