
     RDKit          3D

 61 65  0  0  0  0  0  0  0  0999 V2000
   -8.5656   -0.1841    1.2763 C   0  0  0  0  0  0  0  0  0  0  0  0
   -7.5152    0.7714    1.2762 O   0  0  0  0  0  0  0  0  0  0  0  0
   -6.2400    0.3175    1.0487 C   0  0  0  0  0  0  0  0  0  0  0  0
   -5.9041   -1.0227    0.8369 C   0  0  0  0  0  0  0  0  0  0  0  0
   -4.5735   -1.3922    0.6129 C   0  0  0  0  0  0  0  0  0  0  0  0
   -3.5552   -0.4318    0.6009 C   0  0  0  0  0  0  0  0  0  0  0  0
   -2.1579   -0.7901    0.3746 C   0  0  0  0  0  0  0  0  0  0  0  0
   -1.0830   -0.0260    0.4270 N   0  0  0  0  0  0  0  0  0  0  0  0
   -0.0423   -0.8709    0.0959 C   0  0  0  0  0  0  0  0  0  0  0  0
    1.3533   -0.3679    0.0305 C   0  0  0  0  0  0  0  0  0  0  0  0
    1.6765    0.0834   -1.3128 N   0  0  0  0  0  0  0  0  0  0  0  0
    2.4850   -0.5300   -2.2359 C   0  0  0  0  0  0  0  0  0  0  0  0
    3.2726   -2.0502   -1.9759 S   0  0  0  0  0  0  0  0  0  0  0  0
    4.9827   -1.4632   -1.7528 C   0  0  0  0  0  0  0  0  0  0  0  0
    5.1552   -0.7119   -0.4539 C   0  0  0  0  0  0  0  0  0  0  0  0
    5.1344    0.6897   -0.4362 C   0  0  0  0  0  0  0  0  0  0  0  0
    5.2391    1.3866    0.7691 C   0  0  0  0  0  0  0  0  0  0  0  0
    5.3810    0.6964    1.9775 C   0  0  0  0  0  0  0  0  0  0  0  0
    5.4625    1.4457    3.2746 C   0  0  0  0  0  0  0  0  0  0  0  0
    5.3931   -0.7027    1.9643 C   0  0  0  0  0  0  0  0  0  0  0  0
    5.2858   -1.4012    0.7595 C   0  0  0  0  0  0  0  0  0  0  0  0
    2.6421    0.1925   -3.3199 N   0  0  0  0  0  0  0  0  0  0  0  0
    1.8967    1.3243   -3.1072 C   0  0  0  0  0  0  0  0  0  0  0  0
    1.7064    2.4279   -3.9379 C   0  0  0  0  0  0  0  0  0  0  0  0
    0.9010    3.4323   -3.4274 C   0  0  0  0  0  0  0  0  0  0  0  0
    0.3072    3.4066   -2.2112 N   0  0  0  0  0  0  0  0  0  0  0  0
    0.4842    2.3296   -1.4091 C   0  0  0  0  0  0  0  0  0  0  0  0
    1.2859    1.2900   -1.8589 C   0  0  0  0  0  0  0  0  0  0  0  0
   -0.5392   -2.1393   -0.1224 C   0  0  0  0  0  0  0  0  0  0  0  0
    0.0429   -3.4411   -0.4918 C   0  0  0  0  0  0  0  0  0  0  0  0
   -1.8937   -2.0955    0.0535 O   0  0  0  0  0  0  0  0  0  0  0  0
   -3.8972    0.9132    0.8140 C   0  0  0  0  0  0  0  0  0  0  0  0
   -5.2268    1.2962    1.0319 C   0  0  0  0  0  0  0  0  0  0  0  0
   -5.6336    2.5906    1.2465 O   0  0  0  0  0  0  0  0  0  0  0  0
   -4.6673    3.6193    1.0811 C   0  0  0  0  0  0  0  0  0  0  0  0
   -9.5029    0.3493    1.4620 H   0  0  0  0  0  0  0  0  0  0  0  0
   -8.6517   -0.6774    0.3026 H   0  0  0  0  0  0  0  0  0  0  0  0
   -8.4348   -0.9149    2.0811 H   0  0  0  0  0  0  0  0  0  0  0  0
   -6.6530   -1.8075    0.8392 H   0  0  0  0  0  0  0  0  0  0  0  0
   -4.3426   -2.4432    0.4503 H   0  0  0  0  0  0  0  0  0  0  0  0
    1.4891    0.4867    0.7035 H   0  0  0  0  0  0  0  0  0  0  0  0
    2.0626   -1.1344    0.3505 H   0  0  0  0  0  0  0  0  0  0  0  0
    5.2821   -0.8442   -2.6064 H   0  0  0  0  0  0  0  0  0  0  0  0
    5.6481   -2.3341   -1.7567 H   0  0  0  0  0  0  0  0  0  0  0  0
    5.0220    1.2499   -1.3637 H   0  0  0  0  0  0  0  0  0  0  0  0
    5.2107    2.4744    0.7568 H   0  0  0  0  0  0  0  0  0  0  0  0
    6.0547    0.8908    4.0098 H   0  0  0  0  0  0  0  0  0  0  0  0
    5.9472    2.4176    3.1345 H   0  0  0  0  0  0  0  0  0  0  0  0
    4.4576    1.6058    3.6774 H   0  0  0  0  0  0  0  0  0  0  0  0
    5.4889   -1.2587    2.8946 H   0  0  0  0  0  0  0  0  0  0  0  0
    5.2973   -2.4893    0.7749 H   0  0  0  0  0  0  0  0  0  0  0  0
    2.1620    2.4917   -4.9161 H   0  0  0  0  0  0  0  0  0  0  0  0
    0.7025    4.3274   -4.0115 H   0  0  0  0  0  0  0  0  0  0  0  0
   -0.0185    2.3389   -0.4498 H   0  0  0  0  0  0  0  0  0  0  0  0
    0.1931   -3.4973   -1.5739 H   0  0  0  0  0  0  0  0  0  0  0  0
    1.0074   -3.5901    0.0026 H   0  0  0  0  0  0  0  0  0  0  0  0
   -0.6145   -4.2647   -0.1959 H   0  0  0  0  0  0  0  0  0  0  0  0
   -3.0985    1.6497    0.8049 H   0  0  0  0  0  0  0  0  0  0  0  0
   -3.8874    3.5517    1.8465 H   0  0  0  0  0  0  0  0  0  0  0  0
   -4.2379    3.6042    0.0738 H   0  0  0  0  0  0  0  0  0  0  0  0
   -5.1762    4.5794    1.2105 H   0  0  0  0  0  0  0  0  0  0  0  0
  1  2  1  0
  2  3  1  0
  3  4  2  0
  4  5  1  0
  5  6  2  0
  6  7  1  0
  7  8  2  0
  8  9  1  0
  9 10  1  0
 10 11  1  0
 11 12  1  0
 12 13  1  0
 13 14  1  0
 14 15  1  0
 15 16  2  0
 16 17  1  0
 17 18  2  0
 18 19  1  0
 18 20  1  0
 20 21  2  0
 12 22  2  0
 22 23  1  0
 23 24  2  0
 24 25  1  0
 25 26  2  0
 26 27  1  0
 27 28  2  0
  9 29  2  0
 29 30  1  0
 29 31  1  0
  6 32  1  0
 32 33  2  0
 33 34  1  0
 34 35  1  0
 33  3  1  0
 31  7  1  0
 28 11  1  0
 21 15  1  0
 28 23  1  0
  1 36  1  0
  1 37  1  0
  1 38  1  0
  4 39  1  0
  5 40  1  0
 10 41  1  0
 10 42  1  0
 14 43  1  0
 14 44  1  0
 16 45  1  0
 17 46  1  0
 19 47  1  0
 19 48  1  0
 19 49  1  0
 20 50  1  0
 21 51  1  0
 24 52  1  0
 25 53  1  0
 27 54  1  0
 30 55  1  0
 30 56  1  0
 30 57  1  0
 32 58  1  0
 35 59  1  0
 35 60  1  0
 35 61  1  0
M  END
$$$$
