
     RDKit          3D

 25 27  0  0  0  0  0  0  0  0999 V2000
    3.3416    3.5580    1.4780 O   0  0  0  0  0  0  0  0  0  0  0  0
    3.1005    2.5014    0.9201 C   0  0  0  0  0  0  0  0  0  0  0  0
    4.0214    1.5892    0.5123 N   0  0  0  0  0  0  0  0  0  0  0  0
    3.5868    0.4433   -0.1023 C   0  0  0  0  0  0  0  0  0  0  0  0
    4.6856   -0.6994   -0.6190 S   0  0  0  0  0  0  0  0  0  0  0  0
    2.0952    0.4592   -0.1854 C   0  0  0  0  0  0  0  0  0  0  0  0
    1.3577   -0.5069   -0.7558 C   0  0  0  0  0  0  0  0  0  0  0  0
   -0.0633   -0.5507   -0.8761 C   0  0  0  0  0  0  0  0  0  0  0  0
   -0.7149   -0.6167   -2.0873 C   0  0  0  0  0  0  0  0  0  0  0  0
   -2.0612   -0.6510   -1.8346 N   0  0  0  0  0  0  0  0  0  0  0  0
   -2.2932   -0.6473   -0.4775 C   0  0  0  0  0  0  0  0  0  0  0  0
   -3.5019   -0.6935    0.2281 C   0  0  0  0  0  0  0  0  0  0  0  0
   -3.4388   -0.6911    1.6242 C   0  0  0  0  0  0  0  0  0  0  0  0
   -2.2148   -0.6483    2.2864 C   0  0  0  0  0  0  0  0  0  0  0  0
   -1.0155   -0.6020    1.5662 C   0  0  0  0  0  0  0  0  0  0  0  0
   -1.0489   -0.5920    0.1554 C   0  0  0  0  0  0  0  0  0  0  0  0
    1.5006    1.9273    0.5224 S   0  0  0  0  0  0  0  0  0  0  0  0
    5.0015    1.7710    0.6668 H   0  0  0  0  0  0  0  0  0  0  0  0
    1.8678   -1.3530   -1.2121 H   0  0  0  0  0  0  0  0  0  0  0  0
   -0.3464   -0.6276   -3.1045 H   0  0  0  0  0  0  0  0  0  0  0  0
   -2.7859   -0.6891   -2.5377 H   0  0  0  0  0  0  0  0  0  0  0  0
   -4.4577   -0.7323   -0.2840 H   0  0  0  0  0  0  0  0  0  0  0  0
   -4.3601   -0.7258    2.2012 H   0  0  0  0  0  0  0  0  0  0  0  0
   -2.1877   -0.6502    3.3732 H   0  0  0  0  0  0  0  0  0  0  0  0
   -0.0686   -0.5725    2.0962 H   0  0  0  0  0  0  0  0  0  0  0  0
  1  2  2  0
  2  3  1  0
  3  4  1  0
  4  5  2  0
  4  6  1  0
  6  7  2  3
  7  8  1  0
  8  9  2  0
  9 10  1  0
 10 11  1  0
 11 12  2  0
 12 13  1  0
 13 14  2  0
 14 15  1  0
 15 16  2  0
  6 17  1  0
 17  2  1  0
 16  8  1  0
 16 11  1  0
  3 18  1  0
  7 19  1  0
  9 20  1  0
 10 21  1  0
 12 22  1  0
 13 23  1  0
 14 24  1  0
 15 25  1  0
M  END
$$$$
