
     RDKit          3D

 46 49  0  0  0  0  0  0  0  0999 V2000
    3.7140    1.2870    1.6507 O   0  0  0  0  0  0  0  0  0  0  0  0
    3.0675    1.6656    0.6768 C   0  0  0  0  0  0  0  0  0  0  0  0
    2.7875    3.1462    0.4657 C   0  0  0  0  0  0  0  0  0  0  0  0
    1.1443    3.5920    1.1118 S   0  0  0  0  0  0  0  0  0  0  0  0
    0.1381    2.8382   -0.0710 C   0  0  0  0  0  0  0  0  0  0  0  0
    0.5009    2.5813   -1.3054 N   0  0  0  0  0  0  0  0  0  0  0  0
   -0.4967    1.8536   -1.8910 N   0  0  0  0  0  0  0  0  0  0  0  0
   -1.4611    1.6736   -1.0024 C   0  0  0  0  0  0  0  0  0  0  0  0
   -2.7000    0.8721   -1.2223 C   0  0  0  0  0  0  0  0  0  0  0  0
   -2.3990   -0.5803   -1.4619 C   0  0  0  0  0  0  0  0  0  0  0  0
   -2.0495   -1.5492   -0.5415 C   0  0  0  0  0  0  0  0  0  0  0  0
   -1.8636   -2.8252   -1.1410 C   0  0  0  0  0  0  0  0  0  0  0  0
   -2.0431   -2.7870   -2.5059 C   0  0  0  0  0  0  0  0  0  0  0  0
   -2.4626   -1.2256   -3.0519 S   0  0  0  0  0  0  0  0  0  0  0  0
   -1.1175    2.3385    0.1592 N   0  0  0  0  0  0  0  0  0  0  0  0
   -1.9296    2.5084    1.3504 C   0  0  0  0  0  0  0  0  0  0  0  0
   -1.9582    1.2853    2.1924 C   0  0  0  0  0  0  0  0  0  0  0  0
   -2.9865    0.5569    2.7586 C   0  0  0  0  0  0  0  0  0  0  0  0
   -2.3789   -0.5067    3.4710 C   0  0  0  0  0  0  0  0  0  0  0  0
   -1.0210   -0.3592    3.3001 C   0  0  0  0  0  0  0  0  0  0  0  0
   -0.7589    0.7289    2.5313 O   0  0  0  0  0  0  0  0  0  0  0  0
    2.5333    0.8569   -0.3127 N   0  0  0  0  0  0  0  0  0  0  0  0
    2.6009   -0.5487   -0.4121 C   0  0  0  0  0  0  0  0  0  0  0  0
    3.4082   -1.3496    0.4011 C   0  0  0  0  0  0  0  0  0  0  0  0
    3.4336   -2.7395    0.2266 C   0  0  0  0  0  0  0  0  0  0  0  0
    2.6586   -3.3285   -0.7717 C   0  0  0  0  0  0  0  0  0  0  0  0
    2.6857   -5.2053   -1.0017 Br  0  0  0  0  0  0  0  0  0  0  0  0
    1.8594   -2.5369   -1.5994 C   0  0  0  0  0  0  0  0  0  0  0  0
    1.8305   -1.1522   -1.4168 C   0  0  0  0  0  0  0  0  0  0  0  0
    2.8868    3.4158   -0.5902 H   0  0  0  0  0  0  0  0  0  0  0  0
    3.5421    3.7160    1.0156 H   0  0  0  0  0  0  0  0  0  0  0  0
   -3.2488    1.2965   -2.0733 H   0  0  0  0  0  0  0  0  0  0  0  0
   -3.3803    0.9493   -0.3718 H   0  0  0  0  0  0  0  0  0  0  0  0
   -1.9319   -1.3577    0.5183 H   0  0  0  0  0  0  0  0  0  0  0  0
   -1.5970   -3.7231   -0.6005 H   0  0  0  0  0  0  0  0  0  0  0  0
   -1.9532   -3.6032   -3.2095 H   0  0  0  0  0  0  0  0  0  0  0  0
   -1.5526    3.3571    1.9289 H   0  0  0  0  0  0  0  0  0  0  0  0
   -2.9385    2.7779    1.0195 H   0  0  0  0  0  0  0  0  0  0  0  0
   -4.0456    0.7627    2.6695 H   0  0  0  0  0  0  0  0  0  0  0  0
   -2.8690   -1.2821    4.0376 H   0  0  0  0  0  0  0  0  0  0  0  0
   -0.1584   -0.9146    3.6395 H   0  0  0  0  0  0  0  0  0  0  0  0
    1.9273    1.3155   -0.9960 H   0  0  0  0  0  0  0  0  0  0  0  0
    4.0431   -0.9232    1.1726 H   0  0  0  0  0  0  0  0  0  0  0  0
    4.0819   -3.3392    0.8630 H   0  0  0  0  0  0  0  0  0  0  0  0
    1.2631   -2.9837   -2.3925 H   0  0  0  0  0  0  0  0  0  0  0  0
    1.1950   -0.5549   -2.0663 H   0  0  0  0  0  0  0  0  0  0  0  0
  1  2  2  0
  2  3  1  0
  3  4  1  0
  4  5  1  0
  5  6  2  0
  6  7  1  0
  7  8  2  0
  8  9  1  0
  9 10  1  0
 10 11  2  0
 11 12  1  0
 12 13  2  0
 13 14  1  0
  8 15  1  0
 15 16  1  0
 16 17  1  0
 17 18  2  0
 18 19  1  0
 19 20  2  0
 20 21  1  0
  2 22  1  0
 22 23  1  0
 23 24  2  0
 24 25  1  0
 25 26  2  0
 26 27  1  0
 26 28  1  0
 28 29  2  0
 15  5  1  0
 21 17  1  0
 29 23  1  0
 14 10  1  0
  3 30  1  0
  3 31  1  0
  9 32  1  0
  9 33  1  0
 11 34  1  0
 12 35  1  0
 13 36  1  0
 16 37  1  0
 16 38  1  0
 18 39  1  0
 19 40  1  0
 20 41  1  0
 22 42  1  0
 24 43  1  0
 25 44  1  0
 28 45  1  0
 29 46  1  0
M  END
$$$$
