
     RDKit          3D

 54 57  0  0  0  0  0  0  0  0999 V2000
    5.9763    0.4607    4.2361 C   0  0  0  0  0  0  0  0  0  0  0  0
    4.8178   -0.1581    3.4705 C   0  0  0  0  0  0  0  0  0  0  0  0
    4.3411    0.7246    2.3271 C   0  0  0  0  0  0  0  0  0  0  0  0
    4.7869    1.8594    2.1588 O   0  0  0  0  0  0  0  0  0  0  0  0
    3.3769    0.1864    1.4875 N   0  0  0  0  0  0  0  0  0  0  0  0
    2.9350    0.9711    0.3277 C   0  0  0  0  0  0  0  0  0  0  0  0
    2.4894    0.0750   -0.8389 C   0  0  0  0  0  0  0  0  0  0  0  0
    1.3682   -0.8067   -0.4320 N   0  0  0  0  0  0  0  0  0  0  0  0
    1.1179   -1.8592   -1.3486 C   0  0  0  0  0  0  0  0  0  0  0  0
    2.0696   -2.8462   -1.6401 C   0  0  0  0  0  0  0  0  0  0  0  0
    1.7691   -3.8728   -2.5367 C   0  0  0  0  0  0  0  0  0  0  0  0
    0.5149   -3.9208   -3.1432 C   0  0  0  0  0  0  0  0  0  0  0  0
    0.1612   -5.1925   -4.2496 Cl  0  0  0  0  0  0  0  0  0  0  0  0
   -0.4512   -2.9558   -2.8637 C   0  0  0  0  0  0  0  0  0  0  0  0
   -0.1566   -1.9286   -1.9671 C   0  0  0  0  0  0  0  0  0  0  0  0
   -1.0580   -0.9015   -1.6153 N   0  0  0  0  0  0  0  0  0  0  0  0
   -2.3734   -0.7514   -1.9919 C   0  0  0  0  0  0  0  0  0  0  0  0
   -3.0288   -1.5275   -2.6767 O   0  0  0  0  0  0  0  0  0  0  0  0
   -3.0417    0.4707   -1.4610 C   0  0  0  0  0  0  0  0  0  0  0  0
   -2.3454    1.6760   -1.2834 C   0  0  0  0  0  0  0  0  0  0  0  0
   -3.0103    2.8003   -0.7871 C   0  0  0  0  0  0  0  0  0  0  0  0
   -4.3675    2.7258   -0.4793 C   0  0  0  0  0  0  0  0  0  0  0  0
   -5.0609    1.5221   -0.6448 C   0  0  0  0  0  0  0  0  0  0  0  0
   -4.4067    0.4023   -1.1540 C   0  0  0  0  0  0  0  0  0  0  0  0
   -6.3884    1.3724   -0.3346 O   0  0  0  0  0  0  0  0  0  0  0  0
   -6.8636    2.4539    0.4747 C   0  0  0  0  0  0  0  0  0  0  0  0
   -6.3854    3.7871   -0.0762 C   0  0  0  0  0  0  0  0  0  0  0  0
   -4.9564    3.8745   -0.0166 O   0  0  0  0  0  0  0  0  0  0  0  0
    1.3932   -1.2666    0.9796 C   0  0  0  0  0  0  0  0  0  0  0  0
    2.7833   -1.1503    1.6319 C   0  0  0  0  0  0  0  0  0  0  0  0
    5.6874    1.4188    4.6805 H   0  0  0  0  0  0  0  0  0  0  0  0
    6.8318    0.6404    3.5766 H   0  0  0  0  0  0  0  0  0  0  0  0
    6.2992   -0.2058    5.0420 H   0  0  0  0  0  0  0  0  0  0  0  0
    5.1359   -1.1252    3.0662 H   0  0  0  0  0  0  0  0  0  0  0  0
    3.9833   -0.3160    4.1621 H   0  0  0  0  0  0  0  0  0  0  0  0
    2.1001    1.5959    0.6671 H   0  0  0  0  0  0  0  0  0  0  0  0
    3.7376    1.6380   -0.0045 H   0  0  0  0  0  0  0  0  0  0  0  0
    3.3563   -0.5062   -1.1770 H   0  0  0  0  0  0  0  0  0  0  0  0
    2.1615    0.7039   -1.6748 H   0  0  0  0  0  0  0  0  0  0  0  0
    3.0492   -2.8297   -1.1722 H   0  0  0  0  0  0  0  0  0  0  0  0
    2.5148   -4.6318   -2.7582 H   0  0  0  0  0  0  0  0  0  0  0  0
   -1.4173   -3.0199   -3.3525 H   0  0  0  0  0  0  0  0  0  0  0  0
   -0.6499   -0.2549   -0.9458 H   0  0  0  0  0  0  0  0  0  0  0  0
   -1.2972    1.7653   -1.5559 H   0  0  0  0  0  0  0  0  0  0  0  0
   -2.4772    3.7389   -0.6598 H   0  0  0  0  0  0  0  0  0  0  0  0
   -4.9557   -0.5258   -1.2981 H   0  0  0  0  0  0  0  0  0  0  0  0
   -7.9574    2.4137    0.4731 H   0  0  0  0  0  0  0  0  0  0  0  0
   -6.5170    2.2973    1.5037 H   0  0  0  0  0  0  0  0  0  0  0  0
   -6.7929    4.6107    0.5184 H   0  0  0  0  0  0  0  0  0  0  0  0
   -6.7005    3.9282   -1.1176 H   0  0  0  0  0  0  0  0  0  0  0  0
    1.0182   -2.2926    1.0882 H   0  0  0  0  0  0  0  0  0  0  0  0
    0.6960   -0.6244    1.5327 H   0  0  0  0  0  0  0  0  0  0  0  0
    2.7073   -1.4149    2.6902 H   0  0  0  0  0  0  0  0  0  0  0  0
    3.4802   -1.8548    1.1628 H   0  0  0  0  0  0  0  0  0  0  0  0
  1  2  1  0
  2  3  1  0
  3  4  2  0
  3  5  1  0
  5  6  1  0
  6  7  1  0
  7  8  1  0
  8  9  1  0
  9 10  2  0
 10 11  1  0
 11 12  2  0
 12 13  1  0
 12 14  1  0
 14 15  2  0
 15 16  1  0
 16 17  1  0
 17 18  2  0
 17 19  1  0
 19 20  2  0
 20 21  1  0
 21 22  2  0
 22 23  1  0
 23 24  2  0
 23 25  1  0
 25 26  1  0
 26 27  1  0
 27 28  1  0
  8 29  1  0
 29 30  1  0
 30  5  1  0
 15  9  1  0
 24 19  1  0
 28 22  1  0
  1 31  1  0
  1 32  1  0
  1 33  1  0
  2 34  1  0
  2 35  1  0
  6 36  1  0
  6 37  1  0
  7 38  1  0
  7 39  1  0
 10 40  1  0
 11 41  1  0
 14 42  1  0
 16 43  1  0
 20 44  1  0
 21 45  1  0
 24 46  1  0
 26 47  1  0
 26 48  1  0
 27 49  1  0
 27 50  1  0
 29 51  1  0
 29 52  1  0
 30 53  1  0
 30 54  1  0
M  END
$$$$
