
     RDKit          3D

 37 39  0  0  0  0  0  0  0  0999 V2000
   -3.5129   -1.4478    2.1500 C   0  0  0  0  0  0  0  0  0  0  0  0
   -3.1833   -0.0107    1.7878 C   0  0  0  0  0  0  0  0  0  0  0  0
   -3.6859    0.3534    0.4740 N   0  0  0  0  0  0  0  0  0  0  0  0
   -4.8783    0.9863    0.3891 N   0  0  0  0  0  0  0  0  0  0  0  0
   -5.0977    1.0748   -0.9254 C   0  0  0  0  0  0  0  0  0  0  0  0
   -4.0442    0.5269   -1.6647 C   0  0  0  0  0  0  0  0  0  0  0  0
   -3.9713    0.4699   -3.5315 Br  0  0  0  0  0  0  0  0  0  0  0  0
   -3.1151    0.0893   -0.7492 C   0  0  0  0  0  0  0  0  0  0  0  0
   -1.8537   -0.5702   -0.9725 C   0  0  0  0  0  0  0  0  0  0  0  0
   -1.7998   -1.6648   -1.5152 O   0  0  0  0  0  0  0  0  0  0  0  0
   -0.7914    0.1859   -0.5218 N   0  0  0  0  0  0  0  0  0  0  0  0
    0.5556   -0.1469   -0.5188 C   0  0  0  0  0  0  0  0  0  0  0  0
    1.1003   -1.6723   -1.0722 S   0  0  0  0  0  0  0  0  0  0  0  0
    2.6772   -1.2700   -0.7203 C   0  0  0  0  0  0  0  0  0  0  0  0
    2.8338   -0.0168   -0.1956 C   0  0  0  0  0  0  0  0  0  0  0  0
    1.5944    0.6793   -0.0723 C   0  0  0  0  0  0  0  0  0  0  0  0
    1.3399    2.0219    0.4443 C   0  0  0  0  0  0  0  0  0  0  0  0
    2.4209    2.8390    0.5991 N   0  0  0  0  0  0  0  0  0  0  0  0
    0.2107    2.4331    0.7020 O   0  0  0  0  0  0  0  0  0  0  0  0
    4.2672    0.2373    0.1124 C   0  0  0  0  0  0  0  0  0  0  0  0
    4.8953   -1.1877    0.0173 C   0  0  0  0  0  0  0  0  0  0  0  0
    3.9335   -2.0415   -0.8598 C   0  0  0  0  0  0  0  0  0  0  0  0
   -3.1390   -1.6821    3.1514 H   0  0  0  0  0  0  0  0  0  0  0  0
   -3.0577   -2.1501    1.4439 H   0  0  0  0  0  0  0  0  0  0  0  0
   -4.5946   -1.6186    2.1399 H   0  0  0  0  0  0  0  0  0  0  0  0
   -2.1031    0.1574    1.8030 H   0  0  0  0  0  0  0  0  0  0  0  0
   -3.6288    0.6767    2.5161 H   0  0  0  0  0  0  0  0  0  0  0  0
   -6.0125    1.5342   -1.2766 H   0  0  0  0  0  0  0  0  0  0  0  0
   -0.9935    1.1183   -0.1617 H   0  0  0  0  0  0  0  0  0  0  0  0
    3.2995    2.6394    0.1474 H   0  0  0  0  0  0  0  0  0  0  0  0
    2.2195    3.8042    0.8243 H   0  0  0  0  0  0  0  0  0  0  0  0
    4.7091    0.8971   -0.6417 H   0  0  0  0  0  0  0  0  0  0  0  0
    4.4193    0.6649    1.1072 H   0  0  0  0  0  0  0  0  0  0  0  0
    4.9423   -1.6238    1.0241 H   0  0  0  0  0  0  0  0  0  0  0  0
    5.9149   -1.1676   -0.3797 H   0  0  0  0  0  0  0  0  0  0  0  0
    4.2699   -2.0523   -1.9016 H   0  0  0  0  0  0  0  0  0  0  0  0
    3.8595   -3.0661   -0.4857 H   0  0  0  0  0  0  0  0  0  0  0  0
  1  2  1  0
  2  3  1  0
  3  4  1  0
  4  5  2  0
  5  6  1  0
  6  7  1  0
  6  8  2  0
  8  9  1  0
  9 10  2  0
  9 11  1  0
 11 12  1  0
 12 13  1  0
 13 14  1  0
 14 15  2  0
 15 16  1  0
 16 17  1  0
 17 18  1  0
 17 19  2  0
 15 20  1  0
 20 21  1  0
 21 22  1  0
  8  3  1  0
 16 12  2  0
 22 14  1  0
  1 23  1  0
  1 24  1  0
  1 25  1  0
  2 26  1  0
  2 27  1  0
  5 28  1  0
 11 29  1  0
 18 30  1  0
 18 31  1  0
 20 32  1  0
 20 33  1  0
 21 34  1  0
 21 35  1  0
 22 36  1  0
 22 37  1  0
M  END
$$$$
