
     RDKit          3D

 35 36  0  0  0  0  0  0  0  0999 V2000
    3.9741   -2.4526    0.0676 C   0  0  0  0  0  0  0  0  0  0  0  0
    3.6151   -1.0091    0.2541 C   0  0  0  0  0  0  0  0  0  0  0  0
    4.5811   -0.0239    0.0929 C   0  0  0  0  0  0  0  0  0  0  0  0
    4.2112    1.3024    0.2758 C   0  0  0  0  0  0  0  0  0  0  0  0
    2.8945    1.6067    0.6124 C   0  0  0  0  0  0  0  0  0  0  0  0
    1.9866    0.5687    0.7541 C   0  0  0  0  0  0  0  0  0  0  0  0
    0.6464    0.7424    1.0883 N   0  0  0  0  0  0  0  0  0  0  0  0
   -0.0483    1.9096    1.2958 C   0  0  0  0  0  0  0  0  0  0  0  0
    0.4050    3.0495    1.2331 O   0  0  0  0  0  0  0  0  0  0  0  0
   -1.5127    1.6698    1.6811 C   0  0  0  0  0  0  0  0  0  0  0  0
   -2.0493    0.4221    1.2641 O   0  0  0  0  0  0  0  0  0  0  0  0
   -2.4684    0.2910   -0.0349 C   0  0  0  0  0  0  0  0  0  0  0  0
   -2.3213    1.2625   -1.0299 C   0  0  0  0  0  0  0  0  0  0  0  0
   -2.7745    1.0178   -2.3288 C   0  0  0  0  0  0  0  0  0  0  0  0
   -3.3750   -0.1969   -2.6438 C   0  0  0  0  0  0  0  0  0  0  0  0
   -3.5220   -1.1730   -1.6608 C   0  0  0  0  0  0  0  0  0  0  0  0
   -3.0702   -0.9410   -0.3529 C   0  0  0  0  0  0  0  0  0  0  0  0
   -3.2371   -2.0101    0.6920 C   0  0  0  0  0  0  0  0  0  0  0  0
    2.3316   -0.7262    0.5824 N   0  0  0  0  0  0  0  0  0  0  0  0
    4.7437   -2.7466    0.7879 H   0  0  0  0  0  0  0  0  0  0  0  0
    4.3469   -2.6219   -0.9473 H   0  0  0  0  0  0  0  0  0  0  0  0
    3.1004   -3.0944    0.2211 H   0  0  0  0  0  0  0  0  0  0  0  0
    5.6023   -0.2794   -0.1700 H   0  0  0  0  0  0  0  0  0  0  0  0
    4.9405    2.0987    0.1574 H   0  0  0  0  0  0  0  0  0  0  0  0
    2.6149    2.6432    0.7544 H   0  0  0  0  0  0  0  0  0  0  0  0
    0.1310   -0.1302    1.1214 H   0  0  0  0  0  0  0  0  0  0  0  0
   -1.5449    1.6757    2.7770 H   0  0  0  0  0  0  0  0  0  0  0  0
   -2.1360    2.5077    1.3485 H   0  0  0  0  0  0  0  0  0  0  0  0
   -1.8529    2.2228   -0.8402 H   0  0  0  0  0  0  0  0  0  0  0  0
   -2.6543    1.7783   -3.0964 H   0  0  0  0  0  0  0  0  0  0  0  0
   -3.7260   -0.3854   -3.6550 H   0  0  0  0  0  0  0  0  0  0  0  0
   -3.9906   -2.1194   -1.9213 H   0  0  0  0  0  0  0  0  0  0  0  0
   -3.8701   -1.6466    1.5080 H   0  0  0  0  0  0  0  0  0  0  0  0
   -3.7104   -2.9066    0.2781 H   0  0  0  0  0  0  0  0  0  0  0  0
   -2.2613   -2.3055    1.0912 H   0  0  0  0  0  0  0  0  0  0  0  0
  1  2  1  0
  2  3  2  0
  3  4  1  0
  4  5  2  0
  5  6  1  0
  6  7  1  0
  7  8  1  0
  8  9  2  0
  8 10  1  0
 10 11  1  0
 11 12  1  0
 12 13  2  0
 13 14  1  0
 14 15  2  0
 15 16  1  0
 16 17  2  0
 17 18  1  0
  6 19  2  0
 19  2  1  0
 17 12  1  0
  1 20  1  0
  1 21  1  0
  1 22  1  0
  3 23  1  0
  4 24  1  0
  5 25  1  0
  7 26  1  0
 10 27  1  0
 10 28  1  0
 13 29  1  0
 14 30  1  0
 15 31  1  0
 16 32  1  0
 18 33  1  0
 18 34  1  0
 18 35  1  0
M  END
$$$$
