
     RDKit          3D

 55 58  0  0  0  0  0  0  0  0999 V2000
    2.4982    4.2436   -0.9848 C   0  0  0  0  0  0  0  0  0  0  0  0
    3.1117    3.3231   -2.0232 C   0  0  0  0  0  0  0  0  0  0  0  0
    3.8547    2.2734   -1.3840 O   0  0  0  0  0  0  0  0  0  0  0  0
    3.1406    1.1854   -1.0035 C   0  0  0  0  0  0  0  0  0  0  0  0
    1.9338    1.0412   -1.1505 O   0  0  0  0  0  0  0  0  0  0  0  0
    4.0144    0.1580   -0.3545 C   0  0  0  0  0  0  0  0  0  0  0  0
    5.3913    0.4036   -0.1981 C   0  0  0  0  0  0  0  0  0  0  0  0
    6.2123   -0.5331    0.4272 C   0  0  0  0  0  0  0  0  0  0  0  0
    5.6671   -1.7198    0.9025 C   0  0  0  0  0  0  0  0  0  0  0  0
    4.3014   -1.9783    0.7534 C   0  0  0  0  0  0  0  0  0  0  0  0
    3.4572   -1.0545    0.1247 C   0  0  0  0  0  0  0  0  0  0  0  0
    2.0704   -1.2986   -0.0436 N   0  0  0  0  0  0  0  0  0  0  0  0
    1.3169   -2.3620    0.4085 C   0  0  0  0  0  0  0  0  0  0  0  0
    1.7204   -3.3437    1.0191 O   0  0  0  0  0  0  0  0  0  0  0  0
   -0.1361   -2.2350    0.0581 C   0  0  0  0  0  0  0  0  0  0  0  0
   -0.7559   -1.0981    0.4136 C   0  0  0  0  0  0  0  0  0  0  0  0
   -2.1053   -0.8310    0.1890 N   0  0  0  0  0  0  0  0  0  0  0  0
   -2.6627    0.4559    0.5520 C   0  0  0  0  0  0  0  0  0  0  0  0
   -4.0026    0.6022    0.9383 C   0  0  0  0  0  0  0  0  0  0  0  0
   -4.5321    1.8509    1.3005 C   0  0  0  0  0  0  0  0  0  0  0  0
   -3.7292    2.9871    1.2822 C   0  0  0  0  0  0  0  0  0  0  0  0
   -4.1170    4.2568    1.6068 O   0  0  0  0  0  0  0  0  0  0  0  0
   -5.4782    4.4346    1.9792 C   0  0  0  0  0  0  0  0  0  0  0  0
   -2.3952    2.8609    0.9010 C   0  0  0  0  0  0  0  0  0  0  0  0
   -1.8669    1.6145    0.5415 C   0  0  0  0  0  0  0  0  0  0  0  0
   -2.9286   -1.8090   -0.4209 C   0  0  0  0  0  0  0  0  0  0  0  0
   -4.1152   -1.6702   -0.7146 O   0  0  0  0  0  0  0  0  0  0  0  0
   -2.2882   -3.1066   -0.7845 C   0  0  0  0  0  0  0  0  0  0  0  0
   -3.0696   -4.1134   -1.3760 C   0  0  0  0  0  0  0  0  0  0  0  0
   -2.4919   -5.3253   -1.7475 C   0  0  0  0  0  0  0  0  0  0  0  0
   -1.1336   -5.5347   -1.5331 C   0  0  0  0  0  0  0  0  0  0  0  0
   -0.3531   -4.5346   -0.9458 C   0  0  0  0  0  0  0  0  0  0  0  0
   -0.9207   -3.3098   -0.5594 C   0  0  0  0  0  0  0  0  0  0  0  0
    1.9788    5.0767   -1.4664 H   0  0  0  0  0  0  0  0  0  0  0  0
    1.7834    3.7053   -0.3541 H   0  0  0  0  0  0  0  0  0  0  0  0
    3.2710    4.6451   -0.3217 H   0  0  0  0  0  0  0  0  0  0  0  0
    2.3503    2.9146   -2.6985 H   0  0  0  0  0  0  0  0  0  0  0  0
    3.8204    3.8854   -2.6402 H   0  0  0  0  0  0  0  0  0  0  0  0
    5.8424    1.3268   -0.5551 H   0  0  0  0  0  0  0  0  0  0  0  0
    7.2752   -0.3359    0.5455 H   0  0  0  0  0  0  0  0  0  0  0  0
    6.3026   -2.4542    1.3929 H   0  0  0  0  0  0  0  0  0  0  0  0
    3.9290   -2.9232    1.1384 H   0  0  0  0  0  0  0  0  0  0  0  0
    1.5746   -0.5727   -0.5656 H   0  0  0  0  0  0  0  0  0  0  0  0
   -0.2026   -0.3318    0.9498 H   0  0  0  0  0  0  0  0  0  0  0  0
   -4.6664   -0.2561    0.9983 H   0  0  0  0  0  0  0  0  0  0  0  0
   -5.5764    1.8902    1.5912 H   0  0  0  0  0  0  0  0  0  0  0  0
   -5.7152    3.8724    2.8888 H   0  0  0  0  0  0  0  0  0  0  0  0
   -5.6289    5.4966    2.1963 H   0  0  0  0  0  0  0  0  0  0  0  0
   -6.1510    4.1640    1.1587 H   0  0  0  0  0  0  0  0  0  0  0  0
   -1.7593    3.7428    0.8694 H   0  0  0  0  0  0  0  0  0  0  0  0
   -0.8330    1.5910    0.2075 H   0  0  0  0  0  0  0  0  0  0  0  0
   -4.1316   -3.9523   -1.5520 H   0  0  0  0  0  0  0  0  0  0  0  0
   -3.1006   -6.1016   -2.2045 H   0  0  0  0  0  0  0  0  0  0  0  0
   -0.6764   -6.4788   -1.8202 H   0  0  0  0  0  0  0  0  0  0  0  0
    0.7051   -4.7380   -0.7905 H   0  0  0  0  0  0  0  0  0  0  0  0
  1  2  1  0
  2  3  1  0
  3  4  1  0
  4  5  2  0
  4  6  1  0
  6  7  2  0
  7  8  1  0
  8  9  2  0
  9 10  1  0
 10 11  2  0
 11 12  1  0
 12 13  1  0
 13 14  2  0
 13 15  1  0
 15 16  2  0
 16 17  1  0
 17 18  1  0
 18 19  2  0
 19 20  1  0
 20 21  2  0
 21 22  1  0
 22 23  1  0
 21 24  1  0
 24 25  2  0
 17 26  1  0
 26 27  2  0
 26 28  1  0
 28 29  2  0
 29 30  1  0
 30 31  2  0
 31 32  1  0
 32 33  2  0
 11  6  1  0
 33 15  1  0
 25 18  1  0
 33 28  1  0
  1 34  1  0
  1 35  1  0
  1 36  1  0
  2 37  1  0
  2 38  1  0
  7 39  1  0
  8 40  1  0
  9 41  1  0
 10 42  1  0
 12 43  1  0
 16 44  1  0
 19 45  1  0
 20 46  1  0
 23 47  1  0
 23 48  1  0
 23 49  1  0
 24 50  1  0
 25 51  1  0
 29 52  1  0
 30 53  1  0
 31 54  1  0
 32 55  1  0
M  END
$$$$
