
     RDKit          3D

 53 54  0  0  0  0  0  0  0  0999 V2000
   -6.9335   -0.4159   -2.1920 C   0  0  0  0  0  0  0  0  0  0  0  0
   -5.4913   -0.3730   -1.7164 C   0  0  0  0  0  0  0  0  0  0  0  0
   -5.3829   -1.0358   -0.4060 N   0  0  0  0  0  0  0  0  0  0  0  0
   -4.9651   -2.4491   -0.3900 C   0  0  0  0  0  0  0  0  0  0  0  0
   -3.5029   -2.6399   -0.7520 C   0  0  0  0  0  0  0  0  0  0  0  0
   -5.3718   -0.1128    1.0052 S   0  0  0  0  0  6  0  0  0  0  0  0
   -5.6980   -0.9770    2.1195 O   0  0  0  0  0  0  0  0  0  0  0  0
   -6.1134    1.1071    0.7643 O   0  0  0  0  0  0  0  0  0  0  0  0
   -3.6605    0.3545    1.1838 C   0  0  0  0  0  0  0  0  0  0  0  0
   -2.8451   -0.3297    2.0907 C   0  0  0  0  0  0  0  0  0  0  0  0
   -1.5132    0.0606    2.2525 C   0  0  0  0  0  0  0  0  0  0  0  0
   -0.9980    1.1448    1.5259 C   0  0  0  0  0  0  0  0  0  0  0  0
    0.4285    1.5136    1.7345 C   0  0  0  0  0  0  0  0  0  0  0  0
    1.1906    0.8906    2.4587 O   0  0  0  0  0  0  0  0  0  0  0  0
    0.7562    2.6076    1.0078 O   0  0  0  0  0  0  0  0  0  0  0  0
    2.1008    3.0657    1.1602 C   0  0  0  0  0  0  0  0  0  0  0  0
    3.1176    2.2980    0.3116 C   0  0  0  0  0  0  0  0  0  0  0  0
    3.6920    2.8094   -0.6462 O   0  0  0  0  0  0  0  0  0  0  0  0
    3.3509    1.0063    0.7251 N   0  0  0  0  0  0  0  0  0  0  0  0
    4.3004    0.1353    0.0597 C   0  0  0  0  0  0  0  0  0  0  0  0
    5.7523    0.4301    0.4520 C   0  0  0  0  0  0  0  0  0  0  0  0
    6.6779   -0.5386   -0.1085 N   0  0  0  0  0  0  0  0  0  0  0  0
    7.2859   -0.3927   -1.3306 C   0  0  0  0  0  0  0  0  0  0  0  0
    7.0507    0.7363   -2.0524 O   0  0  0  0  0  0  0  0  0  0  0  0
    8.0628   -1.4201   -1.6916 C   0  0  0  0  0  0  0  0  0  0  0  0
    8.0556   -2.6693   -0.4821 S   0  0  0  0  0  0  0  0  0  0  0  0
    6.9326   -1.7406    0.5307 C   0  0  0  0  0  0  0  0  0  0  0  0
    6.4795   -2.1453    1.5885 O   0  0  0  0  0  0  0  0  0  0  0  0
   -1.8327    1.8424    0.6397 C   0  0  0  0  0  0  0  0  0  0  0  0
   -3.1657    1.4537    0.4750 C   0  0  0  0  0  0  0  0  0  0  0  0
   -7.5995    0.0914   -1.4866 H   0  0  0  0  0  0  0  0  0  0  0  0
   -7.2830   -1.4482   -2.2974 H   0  0  0  0  0  0  0  0  0  0  0  0
   -7.0279    0.0765   -3.1649 H   0  0  0  0  0  0  0  0  0  0  0  0
   -5.1525    0.6654   -1.6610 H   0  0  0  0  0  0  0  0  0  0  0  0
   -4.8502   -0.8608   -2.4565 H   0  0  0  0  0  0  0  0  0  0  0  0
   -5.5918   -3.0060   -1.0967 H   0  0  0  0  0  0  0  0  0  0  0  0
   -5.1597   -2.8952    0.5906 H   0  0  0  0  0  0  0  0  0  0  0  0
   -3.2738   -2.2550   -1.7498 H   0  0  0  0  0  0  0  0  0  0  0  0
   -3.2534   -3.7060   -0.7437 H   0  0  0  0  0  0  0  0  0  0  0  0
   -2.8397   -2.1407   -0.0436 H   0  0  0  0  0  0  0  0  0  0  0  0
   -3.2349   -1.1641    2.6710 H   0  0  0  0  0  0  0  0  0  0  0  0
   -0.8812   -0.4816    2.9545 H   0  0  0  0  0  0  0  0  0  0  0  0
    2.4112    3.0541    2.2123 H   0  0  0  0  0  0  0  0  0  0  0  0
    2.1222    4.1135    0.8416 H   0  0  0  0  0  0  0  0  0  0  0  0
    2.8618    0.6633    1.5529 H   0  0  0  0  0  0  0  0  0  0  0  0
    4.1729    0.2391   -1.0242 H   0  0  0  0  0  0  0  0  0  0  0  0
    4.0291   -0.8922    0.3271 H   0  0  0  0  0  0  0  0  0  0  0  0
    5.8407    0.3919    1.5456 H   0  0  0  0  0  0  0  0  0  0  0  0
    6.0477    1.4430    0.1542 H   0  0  0  0  0  0  0  0  0  0  0  0
    7.5484    0.6858   -2.8858 H   0  0  0  0  0  0  0  0  0  0  0  0
    8.6262   -1.5050   -2.6091 H   0  0  0  0  0  0  0  0  0  0  0  0
   -1.4626    2.6962    0.0757 H   0  0  0  0  0  0  0  0  0  0  0  0
   -3.8105    2.0183   -0.1950 H   0  0  0  0  0  0  0  0  0  0  0  0
  1  2  1  0
  2  3  1  0
  3  4  1  0
  4  5  1  0
  3  6  1  0
  6  7  2  0
  6  8  2  0
  6  9  1  0
  9 10  2  0
 10 11  1  0
 11 12  2  0
 12 13  1  0
 13 14  2  0
 13 15  1  0
 15 16  1  0
 16 17  1  0
 17 18  2  0
 17 19  1  0
 19 20  1  0
 20 21  1  0
 21 22  1  0
 22 23  1  0
 23 24  1  0
 23 25  2  0
 25 26  1  0
 26 27  1  0
 27 28  2  0
 12 29  1  0
 29 30  2  0
 30  9  1  0
 27 22  1  0
  1 31  1  0
  1 32  1  0
  1 33  1  0
  2 34  1  0
  2 35  1  0
  4 36  1  0
  4 37  1  0
  5 38  1  0
  5 39  1  0
  5 40  1  0
 10 41  1  0
 11 42  1  0
 16 43  1  0
 16 44  1  0
 19 45  1  0
 20 46  1  0
 20 47  1  0
 21 48  1  0
 21 49  1  0
 24 50  1  0
 25 51  1  0
 29 52  1  0
 30 53  1  0
M  END
$$$$
