
     RDKit          3D

 47 48  0  0  0  0  0  0  0  0999 V2000
   -5.2778    0.0607    0.5604 C   0  0  0  0  0  0  0  0  0  0  0  0
   -4.4940    1.1870    1.2168 C   0  0  0  0  0  0  0  0  0  0  0  0
   -3.3467    0.6646    1.9745 N   0  0  0  0  0  0  0  0  0  0  0  0
   -3.6227    0.2467    3.3586 C   0  0  0  0  0  0  0  0  0  0  0  0
   -3.4895   -1.2612    3.5250 C   0  0  0  0  0  0  0  0  0  0  0  0
   -2.0633    0.6543    1.4374 C   0  0  0  0  0  0  0  0  0  0  0  0
   -0.9191    0.5541    2.2422 C   0  0  0  0  0  0  0  0  0  0  0  0
    0.3752    0.5340    1.7069 C   0  0  0  0  0  0  0  0  0  0  0  0
    0.5774    0.6059    0.3278 C   0  0  0  0  0  0  0  0  0  0  0  0
    1.9684    0.5866   -0.1564 C   0  0  0  0  0  0  0  0  0  0  0  0
    2.3807   -0.2468   -1.1247 C   0  0  0  0  0  0  0  0  0  0  0  0
    3.7576   -0.2762   -1.6216 C   0  0  0  0  0  0  0  0  0  0  0  0
    4.3551    0.8883   -2.1236 C   0  0  0  0  0  0  0  0  0  0  0  0
    5.6489    0.8497   -2.6264 C   0  0  0  0  0  0  0  0  0  0  0  0
    6.3341   -0.3540   -2.6304 C   0  0  0  0  0  0  0  0  0  0  0  0
    5.7144   -1.4926   -2.1317 C   0  0  0  0  0  0  0  0  0  0  0  0
    4.4533   -1.4473   -1.6389 N   0  0  0  0  0  4  0  0  0  0  0  0
    3.8576   -2.6867   -1.0996 C   0  0  0  0  0  0  0  0  0  0  0  0
   -0.5415    0.7332   -0.5115 C   0  0  0  0  0  0  0  0  0  0  0  0
   -0.2911    0.8308   -1.8603 O   0  0  0  0  0  0  0  0  0  0  0  0
   -1.3626    1.2724   -2.6880 C   0  0  0  0  0  0  0  0  0  0  0  0
   -1.8314    0.7393    0.0504 C   0  0  0  0  0  0  0  0  0  0  0  0
   -4.6477   -0.5365   -0.1056 H   0  0  0  0  0  0  0  0  0  0  0  0
   -6.1050    0.4697   -0.0281 H   0  0  0  0  0  0  0  0  0  0  0  0
   -5.7020   -0.6134    1.3113 H   0  0  0  0  0  0  0  0  0  0  0  0
   -4.1862    1.9267    0.4686 H   0  0  0  0  0  0  0  0  0  0  0  0
   -5.1627    1.7382    1.8900 H   0  0  0  0  0  0  0  0  0  0  0  0
   -4.6477    0.5209    3.6383 H   0  0  0  0  0  0  0  0  0  0  0  0
   -2.9826    0.7795    4.0702 H   0  0  0  0  0  0  0  0  0  0  0  0
   -4.1554   -1.7944    2.8391 H   0  0  0  0  0  0  0  0  0  0  0  0
   -2.4696   -1.6065    3.3326 H   0  0  0  0  0  0  0  0  0  0  0  0
   -3.7533   -1.5512    4.5471 H   0  0  0  0  0  0  0  0  0  0  0  0
   -1.0022    0.5022    3.3239 H   0  0  0  0  0  0  0  0  0  0  0  0
    1.2168    0.4593    2.3918 H   0  0  0  0  0  0  0  0  0  0  0  0
    2.6434    1.2803    0.3405 H   0  0  0  0  0  0  0  0  0  0  0  0
    1.6815   -0.9364   -1.5919 H   0  0  0  0  0  0  0  0  0  0  0  0
    3.8055    1.8290   -2.1344 H   0  0  0  0  0  0  0  0  0  0  0  0
    6.1144    1.7531   -3.0177 H   0  0  0  0  0  0  0  0  0  0  0  0
    7.3477   -0.4065   -3.0226 H   0  0  0  0  0  0  0  0  0  0  0  0
    6.2280   -2.4503   -2.1234 H   0  0  0  0  0  0  0  0  0  0  0  0
    3.5293   -2.4972   -0.0743 H   0  0  0  0  0  0  0  0  0  0  0  0
    3.0241   -2.9713   -1.7468 H   0  0  0  0  0  0  0  0  0  0  0  0
    4.6021   -3.4869   -1.0919 H   0  0  0  0  0  0  0  0  0  0  0  0
   -2.1296    0.4967   -2.7781 H   0  0  0  0  0  0  0  0  0  0  0  0
   -0.9565    1.4539   -3.6878 H   0  0  0  0  0  0  0  0  0  0  0  0
   -1.7880    2.2144   -2.3259 H   0  0  0  0  0  0  0  0  0  0  0  0
   -2.6873    0.7840   -0.6116 H   0  0  0  0  0  0  0  0  0  0  0  0
  1  2  1  0
  2  3  1  0
  3  4  1  0
  4  5  1  0
  3  6  1  0
  6  7  2  0
  7  8  1  0
  8  9  2  0
  9 10  1  0
 10 11  2  3
 11 12  1  0
 12 13  2  0
 13 14  1  0
 14 15  2  0
 15 16  1  0
 16 17  2  0
 17 18  1  0
  9 19  1  0
 19 20  1  0
 20 21  1  0
 19 22  2  0
 22  6  1  0
 17 12  1  0
  1 23  1  0
  1 24  1  0
  1 25  1  0
  2 26  1  0
  2 27  1  0
  4 28  1  0
  4 29  1  0
  5 30  1  0
  5 31  1  0
  5 32  1  0
  7 33  1  0
  8 34  1  0
 10 35  1  0
 11 36  1  0
 13 37  1  0
 14 38  1  0
 15 39  1  0
 16 40  1  0
 18 41  1  0
 18 42  1  0
 18 43  1  0
 21 44  1  0
 21 45  1  0
 21 46  1  0
 22 47  1  0
M  CHG  1  17   1
M  END
$$$$
