
     RDKit          3D

 26 28  0  0  0  0  0  0  0  0999 V2000
   -4.0359    0.9008   -0.2676 C   0  0  0  0  0  0  0  0  0  0  0  0
   -2.6049    0.5533   -0.1365 C   0  0  0  0  0  0  0  0  0  0  0  0
   -1.7208    1.5521   -0.4089 O   0  0  0  0  0  0  0  0  0  0  0  0
   -0.4722    1.0440   -0.2371 C   0  0  0  0  0  0  0  0  0  0  0  0
    0.7135    1.7478   -0.4208 C   0  0  0  0  0  0  0  0  0  0  0  0
    1.8828    1.0214   -0.1882 C   0  0  0  0  0  0  0  0  0  0  0  0
    3.1011    1.7144   -0.3685 O   0  0  0  0  0  0  0  0  0  0  0  0
    4.3248    1.0927   -0.1657 C   0  0  0  0  0  0  0  0  0  0  0  0
    5.3923    1.6753   -0.3164 O   0  0  0  0  0  0  0  0  0  0  0  0
    4.2921   -0.3213    0.2456 C   0  0  0  0  0  0  0  0  0  0  0  0
    3.1498   -0.9922    0.4208 C   0  0  0  0  0  0  0  0  0  0  0  0
    1.8783   -0.3195    0.2023 C   0  0  0  0  0  0  0  0  0  0  0  0
    0.6586   -0.9913    0.3764 C   0  0  0  0  0  0  0  0  0  0  0  0
   -0.5443   -0.2892    0.1508 C   0  0  0  0  0  0  0  0  0  0  0  0
   -1.9369   -0.6066    0.2196 C   0  0  0  0  0  0  0  0  0  0  0  0
   -2.5355   -1.9127    0.5890 C   0  0  0  0  0  0  0  0  0  0  0  0
   -4.1675    1.8705   -0.7578 H   0  0  0  0  0  0  0  0  0  0  0  0
   -4.5610    0.1478   -0.8632 H   0  0  0  0  0  0  0  0  0  0  0  0
   -4.5060    0.9505    0.7193 H   0  0  0  0  0  0  0  0  0  0  0  0
    0.7205    2.7864   -0.7238 H   0  0  0  0  0  0  0  0  0  0  0  0
    5.2576   -0.7879    0.3987 H   0  0  0  0  0  0  0  0  0  0  0  0
    3.1532   -2.0334    0.7242 H   0  0  0  0  0  0  0  0  0  0  0  0
    0.6297   -2.0334    0.6795 H   0  0  0  0  0  0  0  0  0  0  0  0
   -2.0527   -2.3200    1.4832 H   0  0  0  0  0  0  0  0  0  0  0  0
   -2.4114   -2.6306   -0.2279 H   0  0  0  0  0  0  0  0  0  0  0  0
   -3.6052   -1.8189    0.8014 H   0  0  0  0  0  0  0  0  0  0  0  0
  1  2  1  0
  2  3  1  0
  3  4  1  0
  4  5  2  0
  5  6  1  0
  6  7  1  0
  7  8  1  0
  8  9  2  0
  8 10  1  0
 10 11  2  0
 11 12  1  0
 12 13  1  0
 13 14  2  0
 14 15  1  0
 15 16  1  0
 15  2  2  0
 14  4  1  0
 12  6  2  0
  1 17  1  0
  1 18  1  0
  1 19  1  0
  5 20  1  0
 10 21  1  0
 11 22  1  0
 13 23  1  0
 16 24  1  0
 16 25  1  0
 16 26  1  0
M  END
$$$$
