
     RDKit          3D

 50 53  0  0  0  0  0  0  0  0999 V2000
    6.2840    1.5860    2.2690 C   0  0  0  0  0  0  0  0  0  0  0  0
    5.1362    0.8958    1.5929 C   0  0  0  0  0  0  0  0  0  0  0  0
    4.8120   -0.4211    1.9145 C   0  0  0  0  0  0  0  0  0  0  0  0
    3.7625   -1.0756    1.2619 C   0  0  0  0  0  0  0  0  0  0  0  0
    3.0179   -0.4324    0.2678 C   0  0  0  0  0  0  0  0  0  0  0  0
    1.9453   -1.0642   -0.4082 N   0  0  0  0  0  0  0  0  0  0  0  0
    1.4246   -2.3298   -0.1785 C   0  0  0  0  0  0  0  0  0  0  0  0
    1.7955   -3.1409    0.6631 O   0  0  0  0  0  0  0  0  0  0  0  0
    0.2371   -2.6588   -1.0877 C   0  0  0  0  0  0  0  0  0  0  0  0
   -0.8853   -1.7255   -0.8877 N   0  0  0  0  0  4  0  0  0  0  0  0
   -1.3786   -1.2642    0.3392 C   0  0  0  0  0  0  0  0  0  0  0  0
   -2.4534   -0.4156    0.1021 C   0  0  0  0  0  0  0  0  0  0  0  0
   -3.2727    0.3743    1.1845 C   0  0  0  0  0  0  0  0  0  0  0  0
   -2.9795    0.2009    2.5434 C   0  0  0  0  0  0  0  0  0  0  0  0
   -3.7013    0.9015    3.5128 C   0  0  0  0  0  0  0  0  0  0  0  0
   -4.7124    1.7795    3.1320 C   0  0  0  0  0  0  0  0  0  0  0  0
   -5.0024    1.9601    1.7818 C   0  0  0  0  0  0  0  0  0  0  0  0
   -4.2845    1.2600    0.8082 C   0  0  0  0  0  0  0  0  0  0  0  0
   -2.5933   -0.4596   -1.2750 N   0  0  0  0  0  0  0  0  0  0  0  0
   -1.6754   -1.2383   -1.8366 C   0  0  0  0  0  0  0  0  0  0  0  0
   -1.8065   -1.3311   -3.3085 C   0  0  0  0  0  0  0  0  0  0  0  0
   -3.1996   -0.7146   -3.5474 C   0  0  0  0  0  0  0  0  0  0  0  0
   -3.5131    0.0960   -2.2587 C   0  0  0  0  0  0  0  0  0  0  0  0
    3.3507    0.8959   -0.0794 C   0  0  0  0  0  0  0  0  0  0  0  0
    2.6193    1.6663   -1.1465 C   0  0  0  0  0  0  0  0  0  0  0  0
    4.4108    1.5404    0.5870 C   0  0  0  0  0  0  0  0  0  0  0  0
    6.0973    2.6622    2.3508 H   0  0  0  0  0  0  0  0  0  0  0  0
    6.4269    1.2037    3.2854 H   0  0  0  0  0  0  0  0  0  0  0  0
    7.2048    1.4273    1.6987 H   0  0  0  0  0  0  0  0  0  0  0  0
    5.3762   -0.9559    2.6764 H   0  0  0  0  0  0  0  0  0  0  0  0
    3.5676   -2.1010    1.5589 H   0  0  0  0  0  0  0  0  0  0  0  0
    1.4871   -0.5031   -1.1126 H   0  0  0  0  0  0  0  0  0  0  0  0
    0.5658   -2.6152   -2.1310 H   0  0  0  0  0  0  0  0  0  0  0  0
   -0.1222   -3.6703   -0.8735 H   0  0  0  0  0  0  0  0  0  0  0  0
   -0.8830   -1.5878    1.2407 H   0  0  0  0  0  0  0  0  0  0  0  0
   -2.2015   -0.4749    2.8870 H   0  0  0  0  0  0  0  0  0  0  0  0
   -3.4775    0.7622    4.5691 H   0  0  0  0  0  0  0  0  0  0  0  0
   -5.2734    2.3249    3.8884 H   0  0  0  0  0  0  0  0  0  0  0  0
   -5.7905    2.6512    1.4893 H   0  0  0  0  0  0  0  0  0  0  0  0
   -4.5358    1.4440   -0.2279 H   0  0  0  0  0  0  0  0  0  0  0  0
   -1.0008   -0.7278   -3.7322 H   0  0  0  0  0  0  0  0  0  0  0  0
   -1.7369   -2.3778   -3.6067 H   0  0  0  0  0  0  0  0  0  0  0  0
   -3.2445   -0.1033   -4.4531 H   0  0  0  0  0  0  0  0  0  0  0  0
   -3.9362   -1.5206   -3.6487 H   0  0  0  0  0  0  0  0  0  0  0  0
   -3.2852    1.1573   -2.3941 H   0  0  0  0  0  0  0  0  0  0  0  0
   -4.5515   -0.0458   -1.9507 H   0  0  0  0  0  0  0  0  0  0  0  0
    1.5597    1.7608   -0.8874 H   0  0  0  0  0  0  0  0  0  0  0  0
    2.7187    1.1631   -2.1137 H   0  0  0  0  0  0  0  0  0  0  0  0
    3.0179    2.6798   -1.2618 H   0  0  0  0  0  0  0  0  0  0  0  0
    4.6791    2.5621    0.3194 H   0  0  0  0  0  0  0  0  0  0  0  0
  1  2  1  0
  2  3  2  0
  3  4  1  0
  4  5  2  0
  5  6  1  0
  6  7  1  0
  7  8  2  0
  7  9  1  0
  9 10  1  0
 10 11  1  0
 11 12  2  0
 12 13  1  0
 13 14  2  0
 14 15  1  0
 15 16  2  0
 16 17  1  0
 17 18  2  0
 12 19  1  0
 19 20  1  0
 20 21  1  0
 21 22  1  0
 22 23  1  0
  5 24  1  0
 24 25  1  0
 24 26  2  0
 26  2  1  0
 20 10  2  0
 18 13  1  0
 23 19  1  0
  1 27  1  0
  1 28  1  0
  1 29  1  0
  3 30  1  0
  4 31  1  0
  6 32  1  0
  9 33  1  0
  9 34  1  0
 11 35  1  0
 14 36  1  0
 15 37  1  0
 16 38  1  0
 17 39  1  0
 18 40  1  0
 21 41  1  0
 21 42  1  0
 22 43  1  0
 22 44  1  0
 23 45  1  0
 23 46  1  0
 25 47  1  0
 25 48  1  0
 25 49  1  0
 26 50  1  0
M  CHG  1  10   1
M  END
$$$$
