
     RDKit          3D

 33 33  0  0  0  0  0  0  0  0999 V2000
   -4.2883    0.9926    1.3662 C   0  0  0  0  0  0  0  0  0  0  0  0
   -4.0436    0.0167    0.2138 C   0  0  0  0  0  0  0  0  0  0  0  0
   -5.1687   -1.0190    0.1648 C   0  0  0  0  0  0  0  0  0  0  0  0
   -2.7755   -0.7068    0.3524 N   0  0  0  0  0  0  0  0  0  0  0  0
   -1.6015    0.1179    0.0782 C   0  0  0  0  0  0  0  0  0  0  0  0
   -0.3398   -0.7374    0.1762 C   0  0  0  0  0  0  0  0  0  0  0  0
    0.9086    0.0816   -0.1416 C   0  0  0  0  0  0  0  0  0  0  0  0
    2.0422   -0.7730    0.0038 O   0  0  0  0  0  0  0  0  0  0  0  0
    3.2834   -0.2446   -0.2294 C   0  0  0  0  0  0  0  0  0  0  0  0
    3.5209    1.0770   -0.6226 C   0  0  0  0  0  0  0  0  0  0  0  0
    4.8278    1.5281   -0.8390 C   0  0  0  0  0  0  0  0  0  0  0  0
    5.9030    0.6607   -0.6637 C   0  0  0  0  0  0  0  0  0  0  0  0
    7.5060    1.2243   -0.9316 Cl  0  0  0  0  0  0  0  0  0  0  0  0
    5.6883   -0.6566   -0.2736 C   0  0  0  0  0  0  0  0  0  0  0  0
    4.3819   -1.1050   -0.0581 C   0  0  0  0  0  0  0  0  0  0  0  0
    4.1492   -2.9158    0.4751 Br  0  0  0  0  0  0  0  0  0  0  0  0
   -3.5476    1.7983    1.3764 H   0  0  0  0  0  0  0  0  0  0  0  0
   -4.2520    0.4850    2.3366 H   0  0  0  0  0  0  0  0  0  0  0  0
   -5.2746    1.4602    1.2713 H   0  0  0  0  0  0  0  0  0  0  0  0
   -4.0576    0.5663   -0.7354 H   0  0  0  0  0  0  0  0  0  0  0  0
   -5.0251   -1.7156   -0.6689 H   0  0  0  0  0  0  0  0  0  0  0  0
   -5.2206   -1.6040    1.0903 H   0  0  0  0  0  0  0  0  0  0  0  0
   -6.1384   -0.5297    0.0222 H   0  0  0  0  0  0  0  0  0  0  0  0
   -2.7074   -1.1221    1.2816 H   0  0  0  0  0  0  0  0  0  0  0  0
   -1.6716    0.5443   -0.9293 H   0  0  0  0  0  0  0  0  0  0  0  0
   -1.5297    0.9446    0.7930 H   0  0  0  0  0  0  0  0  0  0  0  0
   -0.3965   -1.5899   -0.5132 H   0  0  0  0  0  0  0  0  0  0  0  0
   -0.2440   -1.1687    1.1812 H   0  0  0  0  0  0  0  0  0  0  0  0
    0.9824    0.9225    0.5584 H   0  0  0  0  0  0  0  0  0  0  0  0
    0.8478    0.4536   -1.1713 H   0  0  0  0  0  0  0  0  0  0  0  0
    2.7123    1.7852   -0.7720 H   0  0  0  0  0  0  0  0  0  0  0  0
    4.9975    2.5577   -1.1447 H   0  0  0  0  0  0  0  0  0  0  0  0
    6.5313   -1.3286   -0.1388 H   0  0  0  0  0  0  0  0  0  0  0  0
  1  2  1  0
  2  3  1  0
  2  4  1  0
  4  5  1  0
  5  6  1  0
  6  7  1  0
  7  8  1  0
  8  9  1  0
  9 10  2  0
 10 11  1  0
 11 12  2  0
 12 13  1  0
 12 14  1  0
 14 15  2  0
 15 16  1  0
 15  9  1  0
  1 17  1  0
  1 18  1  0
  1 19  1  0
  2 20  1  0
  3 21  1  0
  3 22  1  0
  3 23  1  0
  4 24  1  0
  5 25  1  0
  5 26  1  0
  6 27  1  0
  6 28  1  0
  7 29  1  0
  7 30  1  0
 10 31  1  0
 11 32  1  0
 14 33  1  0
M  END
$$$$
