
     RDKit          3D

 54 57  0  0  0  0  0  0  0  0999 V2000
   -4.3510    4.6722   -0.5477 C   0  0  0  0  0  0  0  0  0  0  0  0
   -3.6892    3.3279   -0.4956 C   0  0  0  0  0  0  0  0  0  0  0  0
   -2.8473    2.9876    0.5619 C   0  0  0  0  0  0  0  0  0  0  0  0
   -2.2365    1.7227    0.6265 C   0  0  0  0  0  0  0  0  0  0  0  0
   -1.3081    1.4490    1.7824 C   0  0  0  0  0  0  0  0  0  0  0  0
   -2.4767    0.7690   -0.3932 C   0  0  0  0  0  0  0  0  0  0  0  0
   -1.8213   -0.4817   -0.2798 N   0  0  0  0  0  0  0  0  0  0  0  0
   -1.2791   -1.2242   -1.3175 C   0  0  0  0  0  0  0  0  0  0  0  0
   -1.2164   -0.8976   -2.4993 O   0  0  0  0  0  0  0  0  0  0  0  0
   -0.6435   -2.5289   -0.8342 C   0  0  0  0  0  0  0  0  0  0  0  0
    0.7314   -2.3127   -0.3786 N   0  0  0  0  0  0  0  0  0  0  0  0
    0.8987   -1.9465    0.9518 C   0  0  0  0  0  0  0  0  0  0  0  0
   -0.0862   -1.7285    1.6645 O   0  0  0  0  0  0  0  0  0  0  0  0
    2.1955   -1.8441    1.4216 N   0  0  0  0  0  0  0  0  0  0  0  0
    2.3909   -1.5059    2.8254 C   0  0  0  0  0  0  0  0  0  0  0  0
    2.5900   -0.0360    2.9724 C   0  0  0  0  0  0  0  0  0  0  0  0
    3.6417    0.8111    2.6841 C   0  0  0  0  0  0  0  0  0  0  0  0
    3.2294    2.1087    3.0692 C   0  0  0  0  0  0  0  0  0  0  0  0
    1.9587    1.9718    3.5748 C   0  0  0  0  0  0  0  0  0  0  0  0
    1.5612    0.6741    3.5206 O   0  0  0  0  0  0  0  0  0  0  0  0
    3.3311   -2.0554    0.6540 C   0  0  0  0  0  0  0  0  0  0  0  0
    4.4750   -2.0345    1.1037 O   0  0  0  0  0  0  0  0  0  0  0  0
    3.1256   -2.3113   -0.7796 C   0  0  0  0  0  0  0  0  0  0  0  0
    4.2410   -2.4334   -1.6229 C   0  0  0  0  0  0  0  0  0  0  0  0
    4.0638   -2.6634   -2.9832 C   0  0  0  0  0  0  0  0  0  0  0  0
    2.7763   -2.7658   -3.4969 C   0  0  0  0  0  0  0  0  0  0  0  0
    1.6670   -2.6476   -2.6512 C   0  0  0  0  0  0  0  0  0  0  0  0
    1.8272   -2.4267   -1.2747 C   0  0  0  0  0  0  0  0  0  0  0  0
   -3.3914    1.0783   -1.4219 C   0  0  0  0  0  0  0  0  0  0  0  0
   -3.8605    0.1031   -2.4678 C   0  0  0  0  0  0  0  0  0  0  0  0
   -3.9620    2.3666   -1.4707 C   0  0  0  0  0  0  0  0  0  0  0  0
   -3.7613    5.4236   -0.0115 H   0  0  0  0  0  0  0  0  0  0  0  0
   -4.4505    5.0157   -1.5828 H   0  0  0  0  0  0  0  0  0  0  0  0
   -5.3455    4.6171   -0.0942 H   0  0  0  0  0  0  0  0  0  0  0  0
   -2.6525    3.7203    1.3427 H   0  0  0  0  0  0  0  0  0  0  0  0
   -1.6999    0.6362    2.4019 H   0  0  0  0  0  0  0  0  0  0  0  0
   -0.3118    1.1891    1.4107 H   0  0  0  0  0  0  0  0  0  0  0  0
   -1.1945    2.3264    2.4276 H   0  0  0  0  0  0  0  0  0  0  0  0
   -1.4230   -0.7002    0.6340 H   0  0  0  0  0  0  0  0  0  0  0  0
   -1.2500   -2.9334   -0.0133 H   0  0  0  0  0  0  0  0  0  0  0  0
   -0.6963   -3.2878   -1.6209 H   0  0  0  0  0  0  0  0  0  0  0  0
    3.2691   -2.0329    3.2171 H   0  0  0  0  0  0  0  0  0  0  0  0
    1.5325   -1.8349    3.4225 H   0  0  0  0  0  0  0  0  0  0  0  0
    4.5894    0.5199    2.2498 H   0  0  0  0  0  0  0  0  0  0  0  0
    3.7904    3.0295    2.9916 H   0  0  0  0  0  0  0  0  0  0  0  0
    1.2393    2.6633    3.9908 H   0  0  0  0  0  0  0  0  0  0  0  0
    5.2483   -2.3438   -1.2208 H   0  0  0  0  0  0  0  0  0  0  0  0
    4.9253   -2.7526   -3.6403 H   0  0  0  0  0  0  0  0  0  0  0  0
    2.6275   -2.9286   -4.5625 H   0  0  0  0  0  0  0  0  0  0  0  0
    0.6880   -2.7066   -3.1182 H   0  0  0  0  0  0  0  0  0  0  0  0
   -3.8430   -0.9274   -2.1015 H   0  0  0  0  0  0  0  0  0  0  0  0
   -3.2581    0.1942   -3.3758 H   0  0  0  0  0  0  0  0  0  0  0  0
   -4.9045    0.3024   -2.7367 H   0  0  0  0  0  0  0  0  0  0  0  0
   -4.6538    2.6124   -2.2750 H   0  0  0  0  0  0  0  0  0  0  0  0
  1  2  1  0
  2  3  2  0
  3  4  1  0
  4  5  1  0
  4  6  2  0
  6  7  1  0
  7  8  1  0
  8  9  2  0
  8 10  1  0
 10 11  1  0
 11 12  1  0
 12 13  2  0
 12 14  1  0
 14 15  1  0
 15 16  1  0
 16 17  2  0
 17 18  1  0
 18 19  2  0
 19 20  1  0
 14 21  1  0
 21 22  2  0
 21 23  1  0
 23 24  2  0
 24 25  1  0
 25 26  2  0
 26 27  1  0
 27 28  2  0
  6 29  1  0
 29 30  1  0
 29 31  2  0
 31  2  1  0
 28 11  1  0
 20 16  1  0
 28 23  1  0
  1 32  1  0
  1 33  1  0
  1 34  1  0
  3 35  1  0
  5 36  1  0
  5 37  1  0
  5 38  1  0
  7 39  1  0
 10 40  1  0
 10 41  1  0
 15 42  1  0
 15 43  1  0
 17 44  1  0
 18 45  1  0
 19 46  1  0
 24 47  1  0
 25 48  1  0
 26 49  1  0
 27 50  1  0
 30 51  1  0
 30 52  1  0
 30 53  1  0
 31 54  1  0
M  END
$$$$
