
     RDKit          3D

 61 67  0  0  0  0  0  0  0  0999 V2000
    4.0149   -2.4592   -0.6677 O   0  0  0  0  0  0  0  0  0  0  0  0
    3.4488   -1.3921   -0.4441 C   0  0  0  0  0  0  0  0  0  0  0  0
    4.2910   -0.2268   -0.0922 C   0  0  0  0  0  0  0  0  0  0  0  0
    4.1809    0.9753   -0.8262 C   0  0  0  0  0  0  0  0  0  0  0  0
    4.9835    2.0726   -0.5015 C   0  0  0  0  0  0  0  0  0  0  0  0
    5.8768    1.9244    0.5407 C   0  0  0  0  0  0  0  0  0  0  0  0
    5.9947    0.7433    1.2410 C   0  0  0  0  0  0  0  0  0  0  0  0
    5.2247   -0.3593    0.9436 C   0  0  0  0  0  0  0  0  0  0  0  0
    6.9310    0.8154    2.2253 O   0  0  0  0  0  0  0  0  0  0  0  0
    7.3838    2.1769    2.0718 C   0  0  0  0  0  0  0  0  0  0  0  0
    6.7266    2.8831    0.9968 O   0  0  0  0  0  0  0  0  0  0  0  0
    2.0590   -1.2175   -0.5219 N   0  0  0  0  0  0  0  0  0  0  0  0
    1.3654   -0.2884    0.3679 C   0  0  0  0  0  0  0  0  0  0  0  0
   -0.0117    0.0975   -0.1685 C   0  0  0  0  0  0  0  0  0  0  0  0
   -0.8934   -1.1422   -0.4698 C   0  0  0  0  0  0  0  0  0  0  0  0
   -0.0831   -2.0260   -1.4578 C   0  0  0  0  0  0  0  0  0  0  0  0
    1.2918   -2.3951   -0.9073 C   0  0  0  0  0  0  0  0  0  0  0  0
   -1.0574   -1.8211    0.7992 O   0  0  0  0  0  0  0  0  0  0  0  0
   -1.9595   -2.8474    0.8127 C   0  0  0  0  0  0  0  0  0  0  0  0
   -1.8323   -3.7618    1.8590 C   0  0  0  0  0  0  0  0  0  0  0  0
   -2.6990   -4.8525    1.9370 C   0  0  0  0  0  0  0  0  0  0  0  0
   -3.6893   -5.0161    0.9724 C   0  0  0  0  0  0  0  0  0  0  0  0
   -4.5152   -6.0670    1.0505 F   0  0  0  0  0  0  0  0  0  0  0  0
   -3.8381   -4.1048   -0.0654 C   0  0  0  0  0  0  0  0  0  0  0  0
   -2.9709   -3.0118   -0.1353 C   0  0  0  0  0  0  0  0  0  0  0  0
   -3.1220   -2.0035   -1.2024 C   0  0  0  0  0  0  0  0  0  0  0  0
   -3.9259   -2.1971   -2.1079 O   0  0  0  0  0  0  0  0  0  0  0  0
   -2.2835   -0.7401   -1.0414 C   0  0  0  0  0  0  0  0  0  0  0  0
   -3.0915    0.2372   -0.1936 C   0  0  0  0  0  0  0  0  0  0  0  0
   -2.8727    1.4785   -0.9865 C   0  0  0  0  0  0  0  0  0  0  0  0
   -3.2428    2.8172   -0.4721 C   0  0  0  0  0  0  0  0  0  0  0  0
   -2.9033    3.9498   -1.2267 C   0  0  0  0  0  0  0  0  0  0  0  0
   -3.2243    5.2282   -0.7626 C   0  0  0  0  0  0  0  0  0  0  0  0
   -3.8887    5.3752    0.4535 C   0  0  0  0  0  0  0  0  0  0  0  0
   -4.2802    6.9462    1.0300 Cl  0  0  0  0  0  0  0  0  0  0  0  0
   -4.2379    4.2557    1.2070 C   0  0  0  0  0  0  0  0  0  0  0  0
   -3.9192    2.9736    0.7444 C   0  0  0  0  0  0  0  0  0  0  0  0
   -2.3303    1.2927   -2.1466 N   0  0  0  0  0  0  0  0  0  0  0  0
   -2.1418   -0.0972   -2.3120 O   0  0  0  0  0  0  0  0  0  0  0  0
    3.4722    1.0479   -1.6502 H   0  0  0  0  0  0  0  0  0  0  0  0
    4.9129    3.0063   -1.0496 H   0  0  0  0  0  0  0  0  0  0  0  0
    5.3359   -1.2896    1.4907 H   0  0  0  0  0  0  0  0  0  0  0  0
    8.4637    2.1697    1.8811 H   0  0  0  0  0  0  0  0  0  0  0  0
    7.1939    2.7148    3.0082 H   0  0  0  0  0  0  0  0  0  0  0  0
    1.2826   -0.7753    1.3476 H   0  0  0  0  0  0  0  0  0  0  0  0
    1.9492    0.6206    0.5286 H   0  0  0  0  0  0  0  0  0  0  0  0
   -0.4841    0.7374    0.5850 H   0  0  0  0  0  0  0  0  0  0  0  0
    0.1244    0.6956   -1.0778 H   0  0  0  0  0  0  0  0  0  0  0  0
    0.0486   -1.4916   -2.4073 H   0  0  0  0  0  0  0  0  0  0  0  0
   -0.6083   -2.9586   -1.6898 H   0  0  0  0  0  0  0  0  0  0  0  0
    1.8417   -2.9576   -1.6711 H   0  0  0  0  0  0  0  0  0  0  0  0
    1.2065   -3.0454   -0.0275 H   0  0  0  0  0  0  0  0  0  0  0  0
   -1.0505   -3.6352    2.6046 H   0  0  0  0  0  0  0  0  0  0  0  0
   -2.6056   -5.5783    2.7393 H   0  0  0  0  0  0  0  0  0  0  0  0
   -4.6249   -4.2510   -0.8010 H   0  0  0  0  0  0  0  0  0  0  0  0
   -2.7311    0.3255    0.8343 H   0  0  0  0  0  0  0  0  0  0  0  0
   -4.1650    0.0130   -0.1782 H   0  0  0  0  0  0  0  0  0  0  0  0
   -2.3863    3.8457   -2.1802 H   0  0  0  0  0  0  0  0  0  0  0  0
   -2.9554    6.0981   -1.3544 H   0  0  0  0  0  0  0  0  0  0  0  0
   -4.7622    4.3733    2.1534 H   0  0  0  0  0  0  0  0  0  0  0  0
   -4.2168    2.1191    1.3463 H   0  0  0  0  0  0  0  0  0  0  0  0
  1  2  2  0
  2  3  1  0
  3  4  2  0
  4  5  1  0
  5  6  2  0
  6  7  1  0
  7  8  2  0
  7  9  1  0
  9 10  1  0
 10 11  1  0
  2 12  1  0
 12 13  1  0
 13 14  1  0
 14 15  1  0
 15 16  1  0
 16 17  1  0
 15 18  1  0
 18 19  1  0
 19 20  2  0
 20 21  1  0
 21 22  2  0
 22 23  1  0
 22 24  1  0
 24 25  2  0
 25 26  1  0
 26 27  2  0
 26 28  1  0
 28 29  1  0
 29 30  1  0
 30 31  1  0
 31 32  2  0
 32 33  1  0
 33 34  2  0
 34 35  1  0
 34 36  1  0
 36 37  2  0
 30 38  2  0
 38 39  1  0
  8  3  1  0
 17 12  1  0
 25 19  1  0
 39 28  1  0
 11  6  1  0
 28 15  1  0
 37 31  1  0
  4 40  1  0
  5 41  1  0
  8 42  1  0
 10 43  1  0
 10 44  1  0
 13 45  1  0
 13 46  1  0
 14 47  1  0
 14 48  1  0
 16 49  1  0
 16 50  1  0
 17 51  1  0
 17 52  1  0
 20 53  1  0
 21 54  1  0
 24 55  1  0
 29 56  1  0
 29 57  1  0
 32 58  1  0
 33 59  1  0
 36 60  1  0
 37 61  1  0
M  END
$$$$
