
     RDKit          3D

 36 35  0  0  0  0  0  0  0  0999 V2000
    0.7722   -1.7887   -2.7242 C   0  0  0  0  0  0  0  0  0  0  0  0
    1.9505   -2.0855   -1.8089 C   0  0  0  0  0  0  0  0  0  0  0  0
    1.7976   -1.4701   -0.4770 N   0  0  0  0  0  0  0  0  0  0  0  0
    2.3518   -0.1095   -0.3694 C   0  0  0  0  0  0  0  0  0  0  0  0
    3.8297   -0.1132   -0.0065 C   0  0  0  0  0  0  0  0  0  0  0  0
    1.2173   -2.1700    0.6035 C   0  0  0  0  0  0  0  0  0  0  0  0
    0.5223   -3.7076    0.4977 S   0  0  0  0  0  0  0  0  0  0  0  0
    1.3156   -1.4046    2.2039 S   0  0  0  0  0  0  0  0  0  0  0  0
   -0.6380   -0.8393    2.5787 S   0  0  0  0  0  0  0  0  0  0  0  0
   -0.7115    0.8416    2.0003 C   0  0  0  0  0  0  0  0  0  0  0  0
    0.2786    2.0052    2.7290 S   0  0  0  0  0  0  0  0  0  0  0  0
   -1.6541    1.1182    0.9846 N   0  0  0  0  0  0  0  0  0  0  0  0
   -1.7246    2.4394    0.3331 C   0  0  0  0  0  0  0  0  0  0  0  0
   -2.7089    3.3773    1.0190 C   0  0  0  0  0  0  0  0  0  0  0  0
   -2.6862    0.1622    0.5413 C   0  0  0  0  0  0  0  0  0  0  0  0
   -2.2614   -0.6077   -0.6971 C   0  0  0  0  0  0  0  0  0  0  0  0
    0.9518   -2.2089   -3.7186 H   0  0  0  0  0  0  0  0  0  0  0  0
    0.6147   -0.7109   -2.8327 H   0  0  0  0  0  0  0  0  0  0  0  0
   -0.1536   -2.2242   -2.3384 H   0  0  0  0  0  0  0  0  0  0  0  0
    2.0867   -3.1671   -1.7197 H   0  0  0  0  0  0  0  0  0  0  0  0
    2.8724   -1.7053   -2.2640 H   0  0  0  0  0  0  0  0  0  0  0  0
    1.7905    0.4741    0.3605 H   0  0  0  0  0  0  0  0  0  0  0  0
    2.2088    0.4000   -1.3296 H   0  0  0  0  0  0  0  0  0  0  0  0
    4.0104   -0.6116    0.9503 H   0  0  0  0  0  0  0  0  0  0  0  0
    4.2025    0.9131    0.0683 H   0  0  0  0  0  0  0  0  0  0  0  0
    4.4217   -0.6339   -0.7658 H   0  0  0  0  0  0  0  0  0  0  0  0
   -0.7329    2.9005    0.3025 H   0  0  0  0  0  0  0  0  0  0  0  0
   -2.0206    2.2954   -0.7122 H   0  0  0  0  0  0  0  0  0  0  0  0
   -3.7250    2.9713    0.9972 H   0  0  0  0  0  0  0  0  0  0  0  0
   -2.4443    3.5458    2.0669 H   0  0  0  0  0  0  0  0  0  0  0  0
   -2.7221    4.3466    0.5110 H   0  0  0  0  0  0  0  0  0  0  0  0
   -3.6056    0.7189    0.3269 H   0  0  0  0  0  0  0  0  0  0  0  0
   -2.9442   -0.5326    1.3445 H   0  0  0  0  0  0  0  0  0  0  0  0
   -2.0739    0.0645   -1.5402 H   0  0  0  0  0  0  0  0  0  0  0  0
   -3.0433   -1.3136   -0.9934 H   0  0  0  0  0  0  0  0  0  0  0  0
   -1.3448   -1.1698   -0.5141 H   0  0  0  0  0  0  0  0  0  0  0  0
  1  2  1  0
  2  3  1  0
  3  4  1  0
  4  5  1  0
  3  6  1  0
  6  7  2  0
  6  8  1  0
  8  9  1  0
  9 10  1  0
 10 11  2  0
 10 12  1  0
 12 13  1  0
 13 14  1  0
 12 15  1  0
 15 16  1  0
  1 17  1  0
  1 18  1  0
  1 19  1  0
  2 20  1  0
  2 21  1  0
  4 22  1  0
  4 23  1  0
  5 24  1  0
  5 25  1  0
  5 26  1  0
 13 27  1  0
 13 28  1  0
 14 29  1  0
 14 30  1  0
 14 31  1  0
 15 32  1  0
 15 33  1  0
 16 34  1  0
 16 35  1  0
 16 36  1  0
M  END
$$$$
