
     RDKit          3D

 60 63  0  0  0  0  0  0  0  0999 V2000
   -7.4701   -1.8757    0.0014 C   0  0  0  0  0  0  0  0  0  0  0  0
   -6.4808   -0.8050   -0.3422 C   0  0  0  0  0  0  0  0  0  0  0  0
   -5.9149   -0.0345    0.6565 C   0  0  0  0  0  0  0  0  0  0  0  0
   -5.0014    0.9191    0.2615 C   0  0  0  0  0  0  0  0  0  0  0  0
   -4.3309    1.7951    1.2767 C   0  0  0  0  0  0  0  0  0  0  0  0
   -4.6725    1.1074   -1.0296 N   0  0  0  0  0  0  0  0  0  0  0  0
   -5.2584    0.2956   -1.9220 C   0  0  0  0  0  0  0  0  0  0  0  0
   -4.7343    0.4726   -3.6022 S   0  0  0  0  0  0  0  0  0  0  0  0
   -3.8489   -1.0971   -3.7553 C   0  0  0  0  0  0  0  0  0  0  0  0
   -2.7889   -1.3177   -2.7291 C   0  0  0  0  0  0  0  0  0  0  0  0
   -2.8511   -2.2313   -1.7777 N   0  0  0  0  0  0  0  0  0  0  0  0
   -1.6757   -2.2099   -1.0759 N   0  0  0  0  0  0  0  0  0  0  0  0
   -0.9122   -1.2915   -1.6108 C   0  0  0  0  0  0  0  0  0  0  0  0
    0.7121   -0.9540   -1.1344 S   0  0  0  0  0  0  0  0  0  0  0  0
    0.6128   -1.3743    0.6360 C   0  0  0  0  0  0  0  0  0  0  0  0
    1.8586   -0.9161    1.3845 C   0  0  0  0  0  0  0  0  0  0  0  0
    1.7564   -0.3763    2.4835 O   0  0  0  0  0  0  0  0  0  0  0  0
    3.0441   -1.2305    0.7385 N   0  0  0  0  0  0  0  0  0  0  0  0
    4.3607   -0.9345    1.1401 C   0  0  0  0  0  0  0  0  0  0  0  0
    5.3859   -1.2713    0.2537 C   0  0  0  0  0  0  0  0  0  0  0  0
    6.7188   -0.9887    0.5634 C   0  0  0  0  0  0  0  0  0  0  0  0
    7.0564   -0.3642    1.7703 C   0  0  0  0  0  0  0  0  0  0  0  0
    8.5004   -0.0698    2.0713 C   0  0  0  0  0  0  0  0  0  0  0  0
    6.0324   -0.0349    2.6775 C   0  0  0  0  0  0  0  0  0  0  0  0
    6.3364    0.6361    3.9900 C   0  0  0  0  0  0  0  0  0  0  0  0
    4.6931   -0.3229    2.3493 C   0  0  0  0  0  0  0  0  0  0  0  0
   -1.5760   -0.6647   -2.6344 N   0  0  0  0  0  0  0  0  0  0  0  0
   -1.0741    0.3978   -3.4897 C   0  0  0  0  0  0  0  0  0  0  0  0
   -0.9309    1.6835   -2.7566 C   0  0  0  0  0  0  0  0  0  0  0  0
   -1.8164    2.6439   -2.3131 C   0  0  0  0  0  0  0  0  0  0  0  0
   -1.0452    3.6306   -1.6521 C   0  0  0  0  0  0  0  0  0  0  0  0
    0.2621    3.2189   -1.7404 C   0  0  0  0  0  0  0  0  0  0  0  0
    0.3448    2.0535   -2.4292 O   0  0  0  0  0  0  0  0  0  0  0  0
   -6.1652   -0.6495   -1.6421 N   0  0  0  0  0  0  0  0  0  0  0  0
   -6.9916   -2.6476    0.6136 H   0  0  0  0  0  0  0  0  0  0  0  0
   -7.8624   -2.3510   -0.9037 H   0  0  0  0  0  0  0  0  0  0  0  0
   -8.3147   -1.4496    0.5522 H   0  0  0  0  0  0  0  0  0  0  0  0
   -6.1701   -0.1773    1.6980 H   0  0  0  0  0  0  0  0  0  0  0  0
   -3.5898    2.4450    0.8040 H   0  0  0  0  0  0  0  0  0  0  0  0
   -3.8157    1.1842    2.0249 H   0  0  0  0  0  0  0  0  0  0  0  0
   -5.0701    2.4285    1.7771 H   0  0  0  0  0  0  0  0  0  0  0  0
   -3.4037   -1.1432   -4.7551 H   0  0  0  0  0  0  0  0  0  0  0  0
   -4.5773   -1.9148   -3.7074 H   0  0  0  0  0  0  0  0  0  0  0  0
   -0.2517   -0.8658    1.0754 H   0  0  0  0  0  0  0  0  0  0  0  0
    0.5007   -2.4557    0.7695 H   0  0  0  0  0  0  0  0  0  0  0  0
    2.9399   -1.6412   -0.1821 H   0  0  0  0  0  0  0  0  0  0  0  0
    5.1670   -1.7512   -0.6963 H   0  0  0  0  0  0  0  0  0  0  0  0
    7.4928   -1.2560   -0.1517 H   0  0  0  0  0  0  0  0  0  0  0  0
    9.1491   -0.3247    1.2247 H   0  0  0  0  0  0  0  0  0  0  0  0
    8.8337   -0.6558    2.9337 H   0  0  0  0  0  0  0  0  0  0  0  0
    8.6385    0.9963    2.2771 H   0  0  0  0  0  0  0  0  0  0  0  0
    5.4338    0.7671    4.5959 H   0  0  0  0  0  0  0  0  0  0  0  0
    6.7653    1.6296    3.8143 H   0  0  0  0  0  0  0  0  0  0  0  0
    7.0377    0.0322    4.5748 H   0  0  0  0  0  0  0  0  0  0  0  0
    3.9204   -0.0527    3.0625 H   0  0  0  0  0  0  0  0  0  0  0  0
   -0.1150    0.0599   -3.8996 H   0  0  0  0  0  0  0  0  0  0  0  0
   -1.7499    0.5228   -4.3403 H   0  0  0  0  0  0  0  0  0  0  0  0
   -2.8934    2.6351   -2.4290 H   0  0  0  0  0  0  0  0  0  0  0  0
   -1.4017    4.5246   -1.1597 H   0  0  0  0  0  0  0  0  0  0  0  0
    1.2010    3.6219   -1.3856 H   0  0  0  0  0  0  0  0  0  0  0  0
  1  2  1  0
  2  3  2  0
  3  4  1  0
  4  5  1  0
  4  6  2  0
  6  7  1  0
  7  8  1  0
  8  9  1  0
  9 10  1  0
 10 11  2  0
 11 12  1  0
 12 13  2  0
 13 14  1  0
 14 15  1  0
 15 16  1  0
 16 17  2  0
 16 18  1  0
 18 19  1  0
 19 20  2  0
 20 21  1  0
 21 22  2  0
 22 23  1  0
 22 24  1  0
 24 25  1  0
 24 26  2  0
 13 27  1  0
 27 28  1  0
 28 29  1  0
 29 30  2  0
 30 31  1  0
 31 32  2  0
 32 33  1  0
  7 34  2  0
 34  2  1  0
 27 10  1  0
 33 29  1  0
 26 19  1  0
  1 35  1  0
  1 36  1  0
  1 37  1  0
  3 38  1  0
  5 39  1  0
  5 40  1  0
  5 41  1  0
  9 42  1  0
  9 43  1  0
 15 44  1  0
 15 45  1  0
 18 46  1  0
 20 47  1  0
 21 48  1  0
 23 49  1  0
 23 50  1  0
 23 51  1  0
 25 52  1  0
 25 53  1  0
 25 54  1  0
 26 55  1  0
 28 56  1  0
 28 57  1  0
 30 58  1  0
 31 59  1  0
 32 60  1  0
M  END
$$$$
