
     RDKit          3D

 42 41  0  0  0  0  0  0  0  0999 V2000
   -4.9922    0.8786    2.2505 C   0  0  0  0  0  0  0  0  0  0  0  0
   -5.1648    0.4548    0.8183 C   0  0  0  0  0  0  0  0  0  0  0  0
   -6.5999    0.2741    0.3955 C   0  0  0  0  0  0  0  0  0  0  0  0
   -4.1601    0.2295   -0.0509 C   0  0  0  0  0  0  0  0  0  0  0  0
   -2.6814    0.3815    0.1900 C   0  0  0  0  0  0  0  0  0  0  0  0
   -2.0016   -0.9831    0.3525 C   0  0  0  0  0  0  0  0  0  0  0  0
   -0.5048   -0.8661    0.5746 C   0  0  0  0  0  0  0  0  0  0  0  0
   -0.0917   -0.5465    1.9862 C   0  0  0  0  0  0  0  0  0  0  0  0
    0.3508   -1.0635   -0.4489 C   0  0  0  0  0  0  0  0  0  0  0  0
    1.8550   -1.0426   -0.4019 C   0  0  0  0  0  0  0  0  0  0  0  0
    2.4152    0.3144   -0.8429 C   0  0  0  0  0  0  0  0  0  0  0  0
    3.9326    0.3248   -0.9293 C   0  0  0  0  0  0  0  0  0  0  0  0
    4.6532    0.1788    0.3845 C   0  0  0  0  0  0  0  0  0  0  0  0
    4.5427    0.4887   -2.1205 C   0  0  0  0  0  0  0  0  0  0  0  0
    6.0076    0.5127   -2.4164 C   0  0  0  0  0  0  0  0  0  0  0  0
    6.2636   -0.4396   -3.4396 O   0  0  0  0  0  0  0  0  0  0  0  0
   -5.5131    0.1805    2.9138 H   0  0  0  0  0  0  0  0  0  0  0  0
   -3.9493    0.9047    2.5742 H   0  0  0  0  0  0  0  0  0  0  0  0
   -5.4151    1.8775    2.4006 H   0  0  0  0  0  0  0  0  0  0  0  0
   -7.0880   -0.4791    1.0233 H   0  0  0  0  0  0  0  0  0  0  0  0
   -6.6894   -0.0540   -0.6459 H   0  0  0  0  0  0  0  0  0  0  0  0
   -7.1458    1.2183    0.4957 H   0  0  0  0  0  0  0  0  0  0  0  0
   -4.4118   -0.0892   -1.0625 H   0  0  0  0  0  0  0  0  0  0  0  0
   -2.2524    0.9074   -0.6732 H   0  0  0  0  0  0  0  0  0  0  0  0
   -2.4795    1.0225    1.0539 H   0  0  0  0  0  0  0  0  0  0  0  0
   -2.4459   -1.5313    1.1938 H   0  0  0  0  0  0  0  0  0  0  0  0
   -2.2015   -1.5964   -0.5373 H   0  0  0  0  0  0  0  0  0  0  0  0
    0.9790   -0.3508    2.0874 H   0  0  0  0  0  0  0  0  0  0  0  0
   -0.6097    0.3478    2.3463 H   0  0  0  0  0  0  0  0  0  0  0  0
   -0.3463   -1.3809    2.6489 H   0  0  0  0  0  0  0  0  0  0  0  0
   -0.0602   -1.2806   -1.4357 H   0  0  0  0  0  0  0  0  0  0  0  0
    2.2183   -1.3075    0.5967 H   0  0  0  0  0  0  0  0  0  0  0  0
    2.2257   -1.8340   -1.0668 H   0  0  0  0  0  0  0  0  0  0  0  0
    1.9780    0.5861   -1.8134 H   0  0  0  0  0  0  0  0  0  0  0  0
    2.0954    1.0974   -0.1429 H   0  0  0  0  0  0  0  0  0  0  0  0
    5.7002    0.4866    0.3354 H   0  0  0  0  0  0  0  0  0  0  0  0
    4.6210   -0.8612    0.7243 H   0  0  0  0  0  0  0  0  0  0  0  0
    4.1802    0.8054    1.1490 H   0  0  0  0  0  0  0  0  0  0  0  0
    3.9224    0.6214   -3.0078 H   0  0  0  0  0  0  0  0  0  0  0  0
    6.2997    1.5007   -2.7859 H   0  0  0  0  0  0  0  0  0  0  0  0
    6.6383    0.2636   -1.5602 H   0  0  0  0  0  0  0  0  0  0  0  0
    5.9259   -1.2918   -3.1135 H   0  0  0  0  0  0  0  0  0  0  0  0
  1  2  1  0
  2  3  1  0
  2  4  2  3
  4  5  1  0
  5  6  1  0
  6  7  1  0
  7  8  1  0
  7  9  2  3
  9 10  1  0
 10 11  1  0
 11 12  1  0
 12 13  1  0
 12 14  2  3
 14 15  1  0
 15 16  1  0
  1 17  1  0
  1 18  1  0
  1 19  1  0
  3 20  1  0
  3 21  1  0
  3 22  1  0
  4 23  1  0
  5 24  1  0
  5 25  1  0
  6 26  1  0
  6 27  1  0
  8 28  1  0
  8 29  1  0
  8 30  1  0
  9 31  1  0
 10 32  1  0
 10 33  1  0
 11 34  1  0
 11 35  1  0
 13 36  1  0
 13 37  1  0
 13 38  1  0
 14 39  1  0
 15 40  1  0
 15 41  1  0
 16 42  1  0
M  END
$$$$
