
     RDKit          3D

 39 41  0  0  0  0  0  0  0  0999 V2000
   -4.1032    2.3240   -0.3030 C   0  0  0  0  0  0  0  0  0  0  0  0
   -3.1029    1.3107   -0.3234 O   0  0  0  0  0  0  0  0  0  0  0  0
   -3.5206    0.0066   -0.2783 C   0  0  0  0  0  0  0  0  0  0  0  0
   -4.8494   -0.3796   -0.0449 C   0  0  0  0  0  0  0  0  0  0  0  0
   -5.2258   -1.7331   -0.0414 C   0  0  0  0  0  0  0  0  0  0  0  0
   -6.6519   -2.1110    0.2246 C   0  0  0  0  0  0  0  0  0  0  0  0
   -4.2560   -2.7106   -0.2688 C   0  0  0  0  0  0  0  0  0  0  0  0
   -2.9338   -2.3387   -0.5027 C   0  0  0  0  0  0  0  0  0  0  0  0
   -2.5567   -0.9919   -0.4902 C   0  0  0  0  0  0  0  0  0  0  0  0
   -1.2256   -0.7971   -0.7527 O   0  0  0  0  0  0  0  0  0  0  0  0
   -0.5941    0.2515   -0.0271 C   0  0  0  0  0  0  0  0  0  0  0  0
    0.8905   -0.0771    0.1826 C   0  0  0  0  0  0  0  0  0  0  0  0
    1.2986   -1.2325    0.2460 O   0  0  0  0  0  0  0  0  0  0  0  0
    1.6581    1.0645    0.3086 N   0  0  0  0  0  0  0  0  0  0  0  0
    3.0169    1.1310    0.4942 C   0  0  0  0  0  0  0  0  0  0  0  0
    3.6468    2.2809    0.6004 N   0  0  0  0  0  0  0  0  0  0  0  0
    5.0075    2.1146    0.7789 N   0  0  0  0  0  0  0  0  0  0  0  0
    5.3375    0.8442    0.7760 C   0  0  0  0  0  0  0  0  0  0  0  0
    6.8112    0.3643    0.9455 C   0  0  0  0  0  0  0  0  0  0  0  0
    7.9182    1.1207    0.2575 C   0  0  0  0  0  0  0  0  0  0  0  0
    7.5263   -0.2419   -0.2370 C   0  0  0  0  0  0  0  0  0  0  0  0
    4.0286   -0.2365    0.5979 S   0  0  0  0  0  0  0  0  0  0  0  0
   -4.6278    2.3423    0.6582 H   0  0  0  0  0  0  0  0  0  0  0  0
   -4.8029    2.2050   -1.1355 H   0  0  0  0  0  0  0  0  0  0  0  0
   -3.6001    3.2886   -0.4233 H   0  0  0  0  0  0  0  0  0  0  0  0
   -5.6235    0.3572    0.1400 H   0  0  0  0  0  0  0  0  0  0  0  0
   -7.3195   -1.5636   -0.4494 H   0  0  0  0  0  0  0  0  0  0  0  0
   -6.8250   -3.1793    0.0596 H   0  0  0  0  0  0  0  0  0  0  0  0
   -6.9149   -1.8777    1.2599 H   0  0  0  0  0  0  0  0  0  0  0  0
   -4.5201   -3.7634   -0.2749 H   0  0  0  0  0  0  0  0  0  0  0  0
   -2.1838   -3.1042   -0.6868 H   0  0  0  0  0  0  0  0  0  0  0  0
   -0.6685    1.1789   -0.6089 H   0  0  0  0  0  0  0  0  0  0  0  0
   -1.0262    0.3861    0.9733 H   0  0  0  0  0  0  0  0  0  0  0  0
    1.2204    1.9745    0.2561 H   0  0  0  0  0  0  0  0  0  0  0  0
    7.0318   -0.0396    1.9266 H   0  0  0  0  0  0  0  0  0  0  0  0
    7.6573    1.9802   -0.3486 H   0  0  0  0  0  0  0  0  0  0  0  0
    8.8641    1.2149    0.7761 H   0  0  0  0  0  0  0  0  0  0  0  0
    8.2075   -1.0633   -0.0471 H   0  0  0  0  0  0  0  0  0  0  0  0
    7.0113   -0.2997   -1.1903 H   0  0  0  0  0  0  0  0  0  0  0  0
  1  2  1  0
  2  3  1  0
  3  4  2  0
  4  5  1  0
  5  6  1  0
  5  7  2  0
  7  8  1  0
  8  9  2  0
  9 10  1  0
 10 11  1  0
 11 12  1  0
 12 13  2  0
 12 14  1  0
 14 15  1  0
 15 16  2  0
 16 17  1  0
 17 18  2  0
 18 19  1  0
 19 20  1  0
 20 21  1  0
 18 22  1  0
  9  3  1  0
 22 15  1  0
 21 19  1  0
  1 23  1  0
  1 24  1  0
  1 25  1  0
  4 26  1  0
  6 27  1  0
  6 28  1  0
  6 29  1  0
  7 30  1  0
  8 31  1  0
 11 32  1  0
 11 33  1  0
 14 34  1  0
 19 35  1  0
 20 36  1  0
 20 37  1  0
 21 38  1  0
 21 39  1  0
M  END
$$$$
