
     RDKit          3D

 50 53  0  0  0  0  0  0  0  0999 V2000
   -5.9317   -3.8932    0.9502 C   0  0  0  0  0  0  0  0  0  0  0  0
   -5.0107   -2.7108    1.1921 C   0  0  0  0  0  0  0  0  0  0  0  0
   -4.4835   -2.2991   -0.0677 O   0  0  0  0  0  0  0  0  0  0  0  0
   -3.6238   -1.2356   -0.0647 C   0  0  0  0  0  0  0  0  0  0  0  0
   -3.2063   -0.5190    1.0567 C   0  0  0  0  0  0  0  0  0  0  0  0
   -2.3180    0.5541    0.9165 C   0  0  0  0  0  0  0  0  0  0  0  0
   -1.8444    0.9221   -0.3473 C   0  0  0  0  0  0  0  0  0  0  0  0
   -0.9155    2.0347   -0.4906 C   0  0  0  0  0  0  0  0  0  0  0  0
    0.4721    2.0497   -0.4380 C   0  0  0  0  0  0  0  0  0  0  0  0
    1.3912    0.9359   -0.2060 C   0  0  0  0  0  0  0  0  0  0  0  0
    1.0000   -0.1997    0.0424 O   0  0  0  0  0  0  0  0  0  0  0  0
    2.7237    1.3348   -0.2840 N   0  0  0  0  0  0  0  0  0  0  0  0
    3.8279    0.5850    0.0343 N   0  0  0  0  0  0  0  0  0  0  0  0
    3.7870   -0.6953   -0.1609 C   0  0  0  0  0  0  0  0  0  0  0  0
    4.9235   -1.5684    0.2021 C   0  0  0  0  0  0  0  0  0  0  0  0
    6.0912   -1.0370    0.7612 C   0  0  0  0  0  0  0  0  0  0  0  0
    7.1525   -1.8825    1.0929 C   0  0  0  0  0  0  0  0  0  0  0  0
    7.0339   -3.2505    0.8627 C   0  0  0  0  0  0  0  0  0  0  0  0
    8.0447   -4.1117    1.1707 O   0  0  0  0  0  0  0  0  0  0  0  0
    5.8753   -3.7861    0.3091 C   0  0  0  0  0  0  0  0  0  0  0  0
    4.8130   -2.9439   -0.0240 C   0  0  0  0  0  0  0  0  0  0  0  0
    0.9197    3.3291   -0.6428 N   0  0  0  0  0  0  0  0  0  0  0  0
   -0.1278    4.1140   -0.8133 N   0  0  0  0  0  0  0  0  0  0  0  0
   -1.2694    3.3674   -0.7192 N   0  0  0  0  0  0  0  0  0  0  0  0
   -2.5509    3.9586   -0.8600 C   0  0  0  0  0  0  0  0  0  0  0  0
   -3.6633    3.2257   -0.8072 N   0  0  0  0  0  0  0  0  0  0  0  0
   -4.6896    4.1480   -0.9985 O   0  0  0  0  0  0  0  0  0  0  0  0
   -4.1873    5.4340   -1.1665 N   0  0  0  0  0  0  0  0  0  0  0  0
   -2.8637    5.3147   -1.0722 C   0  0  0  0  0  0  0  0  0  0  0  0
   -2.0016    6.3446   -1.1670 N   0  0  0  0  0  0  0  0  0  0  0  0
   -2.2561    0.1978   -1.4696 C   0  0  0  0  0  0  0  0  0  0  0  0
   -3.1429   -0.8721   -1.3248 C   0  0  0  0  0  0  0  0  0  0  0  0
   -6.7432   -3.6168    0.2688 H   0  0  0  0  0  0  0  0  0  0  0  0
   -5.3858   -4.7167    0.4778 H   0  0  0  0  0  0  0  0  0  0  0  0
   -6.3644   -4.2491    1.8893 H   0  0  0  0  0  0  0  0  0  0  0  0
   -5.5862   -1.8968    1.6478 H   0  0  0  0  0  0  0  0  0  0  0  0
   -4.1999   -3.0204    1.8619 H   0  0  0  0  0  0  0  0  0  0  0  0
   -3.5477   -0.7690    2.0554 H   0  0  0  0  0  0  0  0  0  0  0  0
   -1.9995    1.0934    1.8053 H   0  0  0  0  0  0  0  0  0  0  0  0
    2.8967    2.3379   -0.3077 H   0  0  0  0  0  0  0  0  0  0  0  0
    2.9301   -1.2047   -0.6321 H   0  0  0  0  0  0  0  0  0  0  0  0
    6.1790    0.0321    0.9396 H   0  0  0  0  0  0  0  0  0  0  0  0
    8.0532   -1.4585    1.5253 H   0  0  0  0  0  0  0  0  0  0  0  0
    8.7823   -3.6046    1.5476 H   0  0  0  0  0  0  0  0  0  0  0  0
    5.8000   -4.8567    0.1386 H   0  0  0  0  0  0  0  0  0  0  0  0
    3.9095   -3.3696   -0.4525 H   0  0  0  0  0  0  0  0  0  0  0  0
   -2.3355    7.2380   -1.5136 H   0  0  0  0  0  0  0  0  0  0  0  0
   -1.0009    6.1922   -1.2786 H   0  0  0  0  0  0  0  0  0  0  0  0
   -1.8958    0.4536   -2.4625 H   0  0  0  0  0  0  0  0  0  0  0  0
   -3.4610   -1.4299   -2.2021 H   0  0  0  0  0  0  0  0  0  0  0  0
  1  2  1  0
  2  3  1  0
  3  4  1  0
  4  5  2  0
  5  6  1  0
  6  7  2  0
  7  8  1  0
  8  9  2  0
  9 10  1  0
 10 11  2  0
 10 12  1  0
 12 13  1  0
 13 14  2  3
 14 15  1  0
 15 16  2  0
 16 17  1  0
 17 18  2  0
 18 19  1  0
 18 20  1  0
 20 21  2  0
  9 22  1  0
 22 23  2  0
 23 24  1  0
 24 25  1  0
 25 26  2  0
 26 27  1  0
 27 28  1  0
 28 29  2  0
 29 30  1  0
  7 31  1  0
 31 32  2  0
 32  4  1  0
 24  8  1  0
 29 25  1  0
 21 15  1  0
  1 33  1  0
  1 34  1  0
  1 35  1  0
  2 36  1  0
  2 37  1  0
  5 38  1  0
  6 39  1  0
 12 40  1  0
 14 41  1  0
 16 42  1  0
 17 43  1  0
 19 44  1  0
 20 45  1  0
 21 46  1  0
 30 47  1  0
 30 48  1  0
 31 49  1  0
 32 50  1  0
M  END
$$$$
