
     RDKit          3D

 35 36  0  0  0  0  0  0  0  0999 V2000
    3.1566    1.3750   -0.8047 C   0  0  0  0  0  0  0  0  0  0  0  0
    1.9813    0.5432   -1.0534 N   0  0  0  0  0  0  0  0  0  0  0  0
    1.2030    0.2706    0.1643 C   0  0  0  0  0  0  0  0  0  0  0  0
    0.4201    1.5009    0.6435 C   0  0  0  0  0  0  0  0  0  0  0  0
   -0.3790    1.2076    1.9154 C   0  0  0  0  0  0  0  0  0  0  0  0
   -1.2113    0.0568    1.7904 O   0  0  0  0  0  0  0  0  0  0  0  0
   -2.3861    0.1362    1.0936 C   0  0  0  0  0  0  0  0  0  0  0  0
   -2.9957    1.3274    0.6897 C   0  0  0  0  0  0  0  0  0  0  0  0
   -4.2058    1.2996   -0.0128 C   0  0  0  0  0  0  0  0  0  0  0  0
   -4.8131    0.0821   -0.3112 C   0  0  0  0  0  0  0  0  0  0  0  0
   -6.3007    0.0595   -1.1742 Cl  0  0  0  0  0  0  0  0  0  0  0  0
   -4.2245   -1.1133    0.0850 C   0  0  0  0  0  0  0  0  0  0  0  0
   -3.0166   -1.0834    0.7857 C   0  0  0  0  0  0  0  0  0  0  0  0
   -2.3141   -2.5969    1.2474 Cl  0  0  0  0  0  0  0  0  0  0  0  0
    2.3204   -0.6900   -1.7845 C   0  0  0  0  0  0  0  0  0  0  0  0
    3.1565   -1.6725   -1.0230 C   0  0  0  0  0  0  0  0  0  0  0  0
    2.5415   -2.8315   -0.2793 C   0  0  0  0  0  0  0  0  0  0  0  0
    3.1421   -3.0013   -1.5698 O   0  0  0  0  0  0  0  0  0  0  0  0
    3.8271    0.9415   -0.0551 H   0  0  0  0  0  0  0  0  0  0  0  0
    3.7269    1.5280   -1.7281 H   0  0  0  0  0  0  0  0  0  0  0  0
    2.8671    2.3737   -0.4634 H   0  0  0  0  0  0  0  0  0  0  0  0
    0.4737   -0.5197   -0.0522 H   0  0  0  0  0  0  0  0  0  0  0  0
    1.8494   -0.1021    0.9689 H   0  0  0  0  0  0  0  0  0  0  0  0
    1.0922    2.3395    0.8533 H   0  0  0  0  0  0  0  0  0  0  0  0
   -0.2564    1.8210   -0.1574 H   0  0  0  0  0  0  0  0  0  0  0  0
    0.3287    0.9826    2.7226 H   0  0  0  0  0  0  0  0  0  0  0  0
   -0.9407    2.0829    2.2590 H   0  0  0  0  0  0  0  0  0  0  0  0
   -2.5621    2.2982    0.9043 H   0  0  0  0  0  0  0  0  0  0  0  0
   -4.6686    2.2338   -0.3226 H   0  0  0  0  0  0  0  0  0  0  0  0
   -4.6989   -2.0620   -0.1495 H   0  0  0  0  0  0  0  0  0  0  0  0
    1.3875   -1.1645   -2.1168 H   0  0  0  0  0  0  0  0  0  0  0  0
    2.8467   -0.4252   -2.7104 H   0  0  0  0  0  0  0  0  0  0  0  0
    4.1183   -1.2894   -0.7142 H   0  0  0  0  0  0  0  0  0  0  0  0
    1.4629   -2.9056   -0.2165 H   0  0  0  0  0  0  0  0  0  0  0  0
    3.0717   -3.2305    0.5761 H   0  0  0  0  0  0  0  0  0  0  0  0
  1  2  1  0
  2  3  1  0
  3  4  1  0
  4  5  1  0
  5  6  1  0
  6  7  1  0
  7  8  2  0
  8  9  1  0
  9 10  2  0
 10 11  1  0
 10 12  1  0
 12 13  2  0
 13 14  1  0
  2 15  1  0
 15 16  1  0
 16 17  1  0
 17 18  1  0
 13  7  1  0
 18 16  1  0
  1 19  1  0
  1 20  1  0
  1 21  1  0
  3 22  1  0
  3 23  1  0
  4 24  1  0
  4 25  1  0
  5 26  1  0
  5 27  1  0
  8 28  1  0
  9 29  1  0
 12 30  1  0
 15 31  1  0
 15 32  1  0
 16 33  1  0
 17 34  1  0
 17 35  1  0
M  END
$$$$
