
     RDKit          3D

 50 53  0  0  0  0  0  0  0  0999 V2000
    7.8017    2.4685    0.4570 C   0  0  0  0  0  0  0  0  0  0  0  0
    6.4576    2.9089    0.3090 O   0  0  0  0  0  0  0  0  0  0  0  0
    5.4932    1.9414    0.2672 C   0  0  0  0  0  0  0  0  0  0  0  0
    4.1917    2.4182    0.1184 C   0  0  0  0  0  0  0  0  0  0  0  0
    3.1055    1.5358    0.0597 C   0  0  0  0  0  0  0  0  0  0  0  0
    3.2891    0.1456    0.1526 C   0  0  0  0  0  0  0  0  0  0  0  0
    2.1613   -0.8106    0.0953 C   0  0  0  0  0  0  0  0  0  0  0  0
    0.8769   -0.4954    0.5044 C   0  0  0  0  0  0  0  0  0  0  0  0
   -0.1136   -1.4753    0.4043 C   0  0  0  0  0  0  0  0  0  0  0  0
   -1.4814   -1.1069    0.8358 C   0  0  0  0  0  0  0  0  0  0  0  0
   -1.9752   -1.7040    1.7814 O   0  0  0  0  0  0  0  0  0  0  0  0
   -2.0420   -0.0965    0.0780 N   0  0  0  0  0  0  0  0  0  0  0  0
   -3.3149    0.4899    0.2421 C   0  0  0  0  0  0  0  0  0  0  0  0
   -4.2055    0.1422    1.2526 C   0  0  0  0  0  0  0  0  0  0  0  0
   -5.4617    0.7505    1.3222 C   0  0  0  0  0  0  0  0  0  0  0  0
   -5.8438    1.7312    0.3941 C   0  0  0  0  0  0  0  0  0  0  0  0
   -7.2206    2.3282    0.4890 C   0  0  0  0  0  0  0  0  0  0  0  0
   -4.9242    2.1436   -0.5838 C   0  0  0  0  0  0  0  0  0  0  0  0
   -5.2862    3.0448   -1.5982 N   0  0  0  0  0  0  0  0  0  0  0  0
   -3.6914    1.4784   -0.6780 C   0  0  0  0  0  0  0  0  0  0  0  0
    0.1765   -2.7659   -0.0802 C   0  0  0  0  0  0  0  0  0  0  0  0
   -0.7662   -3.8172   -0.2074 C   0  0  0  0  0  0  0  0  0  0  0  0
   -0.3895   -5.0620   -0.7068 C   0  0  0  0  0  0  0  0  0  0  0  0
    0.9278   -5.2737   -1.0866 C   0  0  0  0  0  0  0  0  0  0  0  0
    1.8581   -4.2389   -0.9632 C   0  0  0  0  0  0  0  0  0  0  0  0
    1.5083   -2.9895   -0.4677 C   0  0  0  0  0  0  0  0  0  0  0  0
    2.4607   -2.0434   -0.3855 N   0  0  0  0  0  0  0  0  0  0  0  0
    4.6123   -0.3130    0.2946 C   0  0  0  0  0  0  0  0  0  0  0  0
    5.7011    0.5685    0.3540 C   0  0  0  0  0  0  0  0  0  0  0  0
    7.9419    1.9419    1.4070 H   0  0  0  0  0  0  0  0  0  0  0  0
    8.4438    3.3545    0.4694 H   0  0  0  0  0  0  0  0  0  0  0  0
    8.1093    1.8466   -0.3903 H   0  0  0  0  0  0  0  0  0  0  0  0
    4.0191    3.4892    0.0419 H   0  0  0  0  0  0  0  0  0  0  0  0
    2.1154    1.9627   -0.0772 H   0  0  0  0  0  0  0  0  0  0  0  0
    0.6411    0.4755    0.9269 H   0  0  0  0  0  0  0  0  0  0  0  0
   -1.5046    0.2354   -0.7136 H   0  0  0  0  0  0  0  0  0  0  0  0
   -3.9648   -0.6124    1.9947 H   0  0  0  0  0  0  0  0  0  0  0  0
   -6.1484    0.4375    2.1062 H   0  0  0  0  0  0  0  0  0  0  0  0
   -7.7467    2.2321   -0.4661 H   0  0  0  0  0  0  0  0  0  0  0  0
   -7.1550    3.3850    0.7656 H   0  0  0  0  0  0  0  0  0  0  0  0
   -7.8285    1.8214    1.2459 H   0  0  0  0  0  0  0  0  0  0  0  0
   -4.4994    3.5090   -2.0394 H   0  0  0  0  0  0  0  0  0  0  0  0
   -6.0113    3.7015   -1.3279 H   0  0  0  0  0  0  0  0  0  0  0  0
   -3.0190    1.7441   -1.4892 H   0  0  0  0  0  0  0  0  0  0  0  0
   -1.8030   -3.6734    0.0940 H   0  0  0  0  0  0  0  0  0  0  0  0
   -1.1221   -5.8605   -0.7929 H   0  0  0  0  0  0  0  0  0  0  0  0
    1.2381   -6.2399   -1.4762 H   0  0  0  0  0  0  0  0  0  0  0  0
    2.8892   -4.4134   -1.2632 H   0  0  0  0  0  0  0  0  0  0  0  0
    4.8070   -1.3832    0.3641 H   0  0  0  0  0  0  0  0  0  0  0  0
    6.6924    0.1426    0.4661 H   0  0  0  0  0  0  0  0  0  0  0  0
  1  2  1  0
  2  3  1  0
  3  4  2  0
  4  5  1  0
  5  6  2  0
  6  7  1  0
  7  8  2  0
  8  9  1  0
  9 10  1  0
 10 11  2  0
 10 12  1  0
 12 13  1  0
 13 14  2  0
 14 15  1  0
 15 16  2  0
 16 17  1  0
 16 18  1  0
 18 19  1  0
 18 20  2  0
  9 21  2  0
 21 22  1  0
 22 23  2  0
 23 24  1  0
 24 25  2  0
 25 26  1  0
 26 27  2  0
  6 28  1  0
 28 29  2  0
 29  3  1  0
 27  7  1  0
 20 13  1  0
 26 21  1  0
  1 30  1  0
  1 31  1  0
  1 32  1  0
  4 33  1  0
  5 34  1  0
  8 35  1  0
 12 36  1  0
 14 37  1  0
 15 38  1  0
 17 39  1  0
 17 40  1  0
 17 41  1  0
 19 42  1  0
 19 43  1  0
 20 44  1  0
 22 45  1  0
 23 46  1  0
 24 47  1  0
 25 48  1  0
 28 49  1  0
 29 50  1  0
M  END
$$$$
