
     RDKit          3D

 47 49  0  0  0  0  0  0  0  0999 V2000
   -3.3646   -1.9203   -0.5297 O   0  0  0  0  0  0  0  0  0  0  0  0
   -3.2799   -1.4249    0.5882 C   0  0  0  0  0  0  0  0  0  0  0  0
   -4.5061   -1.2249    1.4968 C   0  0  0  0  0  0  0  0  0  0  0  0
   -5.7576   -1.6403    0.9786 O   0  0  0  0  0  0  0  0  0  0  0  0
   -6.4407   -0.7689    0.1776 C   0  0  0  0  0  0  0  0  0  0  0  0
   -5.9160    0.3692   -0.4369 C   0  0  0  0  0  0  0  0  0  0  0  0
   -6.7324    1.1746   -1.2391 C   0  0  0  0  0  0  0  0  0  0  0  0
   -8.0709    0.8377   -1.4300 C   0  0  0  0  0  0  0  0  0  0  0  0
   -9.1694    1.9290   -2.5135 Br  0  0  0  0  0  0  0  0  0  0  0  0
   -8.6009   -0.3016   -0.8320 C   0  0  0  0  0  0  0  0  0  0  0  0
   -7.7821   -1.1033   -0.0336 C   0  0  0  0  0  0  0  0  0  0  0  0
   -2.1142   -0.9671    1.1942 N   0  0  0  0  0  0  0  0  0  0  0  0
   -0.8089   -0.9749    0.6594 C   0  0  0  0  0  0  0  0  0  0  0  0
    0.2131   -0.4542    1.4650 C   0  0  0  0  0  0  0  0  0  0  0  0
    1.5381   -0.4181    1.0133 C   0  0  0  0  0  0  0  0  0  0  0  0
    1.8568   -0.8987   -0.2612 C   0  0  0  0  0  0  0  0  0  0  0  0
    3.2526   -0.8893   -0.7929 C   0  0  0  0  0  0  0  0  0  0  0  0
    3.5786   -1.7688   -1.5810 O   0  0  0  0  0  0  0  0  0  0  0  0
    4.0415    0.1550   -0.3509 N   0  0  0  0  0  0  0  0  0  0  0  0
    5.4046    0.4188   -0.6475 C   0  0  0  0  0  0  0  0  0  0  0  0
    6.1757   -0.4444   -1.4361 C   0  0  0  0  0  0  0  0  0  0  0  0
    7.5168   -0.1624   -1.7156 C   0  0  0  0  0  0  0  0  0  0  0  0
    8.1128    0.9868   -1.2097 C   0  0  0  0  0  0  0  0  0  0  0  0
    7.3681    1.8585   -0.4182 C   0  0  0  0  0  0  0  0  0  0  0  0
    6.0187    1.5850   -0.1301 C   0  0  0  0  0  0  0  0  0  0  0  0
    5.2466    2.5266    0.7279 C   0  0  0  0  0  0  0  0  0  0  0  0
    4.0913    2.3723    1.0895 O   0  0  0  0  0  0  0  0  0  0  0  0
    5.9452    3.6161    1.0936 O   0  0  0  0  0  0  0  0  0  0  0  0
    0.8418   -1.4357   -1.0599 C   0  0  0  0  0  0  0  0  0  0  0  0
   -0.4824   -1.4681   -0.6045 C   0  0  0  0  0  0  0  0  0  0  0  0
   -4.3293   -1.8404    2.3877 H   0  0  0  0  0  0  0  0  0  0  0  0
   -4.5471   -0.1853    1.8467 H   0  0  0  0  0  0  0  0  0  0  0  0
   -4.8729    0.6482   -0.3370 H   0  0  0  0  0  0  0  0  0  0  0  0
   -6.3100    2.0542   -1.7180 H   0  0  0  0  0  0  0  0  0  0  0  0
   -9.6407   -0.5783   -0.9819 H   0  0  0  0  0  0  0  0  0  0  0  0
   -8.1928   -1.9980    0.4286 H   0  0  0  0  0  0  0  0  0  0  0  0
   -2.2026   -0.5914    2.1302 H   0  0  0  0  0  0  0  0  0  0  0  0
   -0.0013   -0.0733    2.4606 H   0  0  0  0  0  0  0  0  0  0  0  0
    2.3054   -0.0334    1.6802 H   0  0  0  0  0  0  0  0  0  0  0  0
    3.5867    0.8699    0.2166 H   0  0  0  0  0  0  0  0  0  0  0  0
    5.7622   -1.3574   -1.8542 H   0  0  0  0  0  0  0  0  0  0  0  0
    8.0920   -0.8491   -2.3329 H   0  0  0  0  0  0  0  0  0  0  0  0
    9.1554    1.2027   -1.4297 H   0  0  0  0  0  0  0  0  0  0  0  0
    7.8524    2.7509   -0.0281 H   0  0  0  0  0  0  0  0  0  0  0  0
    5.3224    4.1423    1.6373 H   0  0  0  0  0  0  0  0  0  0  0  0
    1.0746   -1.8323   -2.0470 H   0  0  0  0  0  0  0  0  0  0  0  0
   -1.2304   -1.8927   -1.2674 H   0  0  0  0  0  0  0  0  0  0  0  0
  1  2  2  0
  2  3  1  0
  3  4  1  0
  4  5  1  0
  5  6  2  0
  6  7  1  0
  7  8  2  0
  8  9  1  0
  8 10  1  0
 10 11  2  0
  2 12  1  0
 12 13  1  0
 13 14  2  0
 14 15  1  0
 15 16  2  0
 16 17  1  0
 17 18  2  0
 17 19  1  0
 19 20  1  0
 20 21  2  0
 21 22  1  0
 22 23  2  0
 23 24  1  0
 24 25  2  0
 25 26  1  0
 26 27  2  0
 26 28  1  0
 16 29  1  0
 29 30  2  0
 11  5  1  0
 30 13  1  0
 25 20  1  0
  3 31  1  0
  3 32  1  0
  6 33  1  0
  7 34  1  0
 10 35  1  0
 11 36  1  0
 12 37  1  0
 14 38  1  0
 15 39  1  0
 19 40  1  0
 21 41  1  0
 22 42  1  0
 23 43  1  0
 24 44  1  0
 28 45  1  0
 29 46  1  0
 30 47  1  0
M  END
$$$$
