
     RDKit          3D

 21 21  0  0  0  0  0  0  0  0999 V2000
    3.0721   -0.2921   -0.4174 C   0  0  0  0  0  0  0  0  0  0  0  0
    1.6025   -0.0176   -0.2493 C   0  0  0  0  0  0  0  0  0  0  0  0
    1.1227    1.2697   -0.5061 C   0  0  0  0  0  0  0  0  0  0  0  0
   -0.2309    1.5346   -0.3704 C   0  0  0  0  0  0  0  0  0  0  0  0
   -0.6547    2.8264   -0.5383 O   0  0  0  0  0  0  0  0  0  0  0  0
   -1.1631    0.5390   -0.0361 C   0  0  0  0  0  0  0  0  0  0  0  0
   -2.5247    0.9147    0.0686 N   0  0  0  0  0  0  0  0  0  0  0  0
   -0.6869   -0.7286    0.3479 C   0  0  0  0  0  0  0  0  0  0  0  0
   -1.6360   -1.7901    0.8450 C   0  0  0  0  0  0  0  0  0  0  0  0
    0.6951   -1.0080    0.1871 C   0  0  0  0  0  0  0  0  0  0  0  0
    1.3022   -2.6057    0.5169 Cl  0  0  0  0  0  0  0  0  0  0  0  0
    3.5207   -0.5710    0.5415 H   0  0  0  0  0  0  0  0  0  0  0  0
    3.2319   -1.0921   -1.1473 H   0  0  0  0  0  0  0  0  0  0  0  0
    3.6058    0.5915   -0.7842 H   0  0  0  0  0  0  0  0  0  0  0  0
    1.7948    2.0730   -0.7956 H   0  0  0  0  0  0  0  0  0  0  0  0
   -1.4575    2.8885    0.0140 H   0  0  0  0  0  0  0  0  0  0  0  0
   -3.1539    0.1167    0.0597 H   0  0  0  0  0  0  0  0  0  0  0  0
   -2.7826    1.5456   -0.6903 H   0  0  0  0  0  0  0  0  0  0  0  0
   -1.1661   -2.4455    1.5844 H   0  0  0  0  0  0  0  0  0  0  0  0
   -1.9955   -2.3934    0.0058 H   0  0  0  0  0  0  0  0  0  0  0  0
   -2.4960   -1.3558    1.3641 H   0  0  0  0  0  0  0  0  0  0  0  0
  1  2  1  0
  2  3  2  0
  3  4  1  0
  4  5  1  0
  4  6  2  0
  6  7  1  0
  6  8  1  0
  8  9  1  0
  8 10  2  0
 10 11  1  0
 10  2  1  0
  1 12  1  0
  1 13  1  0
  1 14  1  0
  3 15  1  0
  5 16  1  0
  7 17  1  0
  7 18  1  0
  9 19  1  0
  9 20  1  0
  9 21  1  0
M  END
$$$$
