
     RDKit          3D

 19 19  0  0  0  0  0  0  0  0999 V2000
   -2.9838    0.6466   -0.7992 C   0  0  0  0  0  0  0  0  0  0  0  0
   -2.1228   -0.4957   -0.2769 C   0  0  0  0  0  0  0  0  0  0  0  0
   -1.2527   -1.1561   -1.3483 C   0  0  0  0  0  0  0  0  0  0  0  0
    0.0081   -0.0555   -2.0636 S   0  0  0  0  0  0  0  0  0  0  0  0
    1.2025   -0.0073   -0.7868 C   0  0  0  0  0  0  0  0  0  0  0  0
    1.1475   -0.7718    0.2810 N   0  0  0  0  0  0  0  0  0  0  0  0
    2.2096   -0.5433    1.1348 N   0  0  0  0  0  0  0  0  0  0  0  0
    3.0281    0.3785    0.6802 C   0  0  0  0  0  0  0  0  0  0  0  0
    4.1380    0.7967    1.3191 N   0  0  0  0  0  0  0  0  0  0  0  0
    2.5520    1.0474   -0.8285 S   0  0  0  0  0  0  0  0  0  0  0  0
   -3.6524    1.0026   -0.0086 H   0  0  0  0  0  0  0  0  0  0  0  0
   -3.6020    0.3190   -1.6411 H   0  0  0  0  0  0  0  0  0  0  0  0
   -2.3765    1.4961   -1.1249 H   0  0  0  0  0  0  0  0  0  0  0  0
   -2.7901   -1.2619    0.1369 H   0  0  0  0  0  0  0  0  0  0  0  0
   -1.5109   -0.1381    0.5588 H   0  0  0  0  0  0  0  0  0  0  0  0
   -1.8912   -1.4942   -2.1721 H   0  0  0  0  0  0  0  0  0  0  0  0
   -0.7709   -2.0526   -0.9434 H   0  0  0  0  0  0  0  0  0  0  0  0
    4.1844    0.5655    2.3062 H   0  0  0  0  0  0  0  0  0  0  0  0
    4.4830    1.7241    1.1017 H   0  0  0  0  0  0  0  0  0  0  0  0
  1  2  1  0
  2  3  1  0
  3  4  1  0
  4  5  1  0
  5  6  2  0
  6  7  1  0
  7  8  2  0
  8  9  1  0
  8 10  1  0
 10  5  1  0
  1 11  1  0
  1 12  1  0
  1 13  1  0
  2 14  1  0
  2 15  1  0
  3 16  1  0
  3 17  1  0
  9 18  1  0
  9 19  1  0
M  END
$$$$
