
     RDKit          3D

 55 58  0  0  0  0  0  0  0  0999 V2000
    7.0685   -2.0806    0.6543 O   0  0  0  0  0  0  0  0  0  0  0  0
    6.1784   -2.6626   -0.2960 C   0  0  0  0  0  0  0  0  0  0  0  0
    5.2657   -1.5764   -0.8880 C   0  0  0  0  0  0  0  0  0  0  0  0
    4.6575   -0.7384    0.1696 N   0  0  0  0  0  0  0  0  0  0  0  0
    4.0717    0.4953   -0.4024 C   0  0  0  0  0  0  0  0  0  0  0  0
    2.7684    0.2822   -1.2071 C   0  0  0  0  0  0  0  0  0  0  0  0
    1.7282   -0.4138   -0.4238 N   0  0  0  0  0  0  0  0  0  0  0  0
    0.5277   -0.6401   -1.2500 C   0  0  0  0  0  0  0  0  0  0  0  0
   -0.7130   -1.1297   -0.4765 C   0  0  0  0  0  0  0  0  0  0  0  0
   -1.1253   -0.1978    0.6364 C   0  0  0  0  0  0  0  0  0  0  0  0
   -2.2495    0.5413    0.7782 C   0  0  0  0  0  0  0  0  0  0  0  0
   -2.4627    1.2124    2.0921 C   0  0  0  0  0  0  0  0  0  0  0  0
   -1.4533    1.9605    2.7195 C   0  0  0  0  0  0  0  0  0  0  0  0
   -1.6880    2.5772    3.9499 C   0  0  0  0  0  0  0  0  0  0  0  0
   -2.9335    2.4609    4.5623 C   0  0  0  0  0  0  0  0  0  0  0  0
   -3.9521    1.7371    3.9407 C   0  0  0  0  0  0  0  0  0  0  0  0
   -3.7292    1.1211    2.7024 C   0  0  0  0  0  0  0  0  0  0  0  0
   -5.0852    0.2245    1.9418 S   0  0  0  0  0  0  0  0  0  0  0  0
   -4.6711    0.4047    0.2068 C   0  0  0  0  0  0  0  0  0  0  0  0
   -5.7166    0.4214   -0.7248 C   0  0  0  0  0  0  0  0  0  0  0  0
   -5.4531    0.6234   -2.0813 C   0  0  0  0  0  0  0  0  0  0  0  0
   -4.1399    0.8223   -2.5269 C   0  0  0  0  0  0  0  0  0  0  0  0
   -3.8510    1.0919   -3.9829 C   0  0  0  0  0  0  0  0  0  0  0  0
   -3.8609    2.4208   -4.2767 F   0  0  0  0  0  0  0  0  0  0  0  0
   -2.6301    0.6300   -4.3760 F   0  0  0  0  0  0  0  0  0  0  0  0
   -4.7534    0.5139   -4.8239 F   0  0  0  0  0  0  0  0  0  0  0  0
   -3.0952    0.8073   -1.5876 C   0  0  0  0  0  0  0  0  0  0  0  0
   -3.3415    0.5560   -0.2289 C   0  0  0  0  0  0  0  0  0  0  0  0
    2.2715   -1.6647    0.1389 C   0  0  0  0  0  0  0  0  0  0  0  0
    3.5917   -1.4422    0.9186 C   0  0  0  0  0  0  0  0  0  0  0  0
    6.5533   -1.3533    1.0619 H   0  0  0  0  0  0  0  0  0  0  0  0
    6.7761   -3.1311   -1.0836 H   0  0  0  0  0  0  0  0  0  0  0  0
    5.6038   -3.4467    0.2052 H   0  0  0  0  0  0  0  0  0  0  0  0
    4.5263   -2.0288   -1.5569 H   0  0  0  0  0  0  0  0  0  0  0  0
    5.9087   -0.9332   -1.5027 H   0  0  0  0  0  0  0  0  0  0  0  0
    4.8107    1.0100   -1.0288 H   0  0  0  0  0  0  0  0  0  0  0  0
    3.8630    1.1858    0.4261 H   0  0  0  0  0  0  0  0  0  0  0  0
    2.3947    1.2686   -1.5079 H   0  0  0  0  0  0  0  0  0  0  0  0
    2.9933   -0.2726   -2.1271 H   0  0  0  0  0  0  0  0  0  0  0  0
    0.2550    0.3037   -1.7401 H   0  0  0  0  0  0  0  0  0  0  0  0
    0.7484   -1.3549   -2.0536 H   0  0  0  0  0  0  0  0  0  0  0  0
   -0.5166   -2.1156   -0.0383 H   0  0  0  0  0  0  0  0  0  0  0  0
   -1.5262   -1.2994   -1.1883 H   0  0  0  0  0  0  0  0  0  0  0  0
   -0.4025   -0.2062    1.4537 H   0  0  0  0  0  0  0  0  0  0  0  0
   -0.4783    2.0743    2.2507 H   0  0  0  0  0  0  0  0  0  0  0  0
   -0.8977    3.1503    4.4284 H   0  0  0  0  0  0  0  0  0  0  0  0
   -3.1155    2.9395    5.5213 H   0  0  0  0  0  0  0  0  0  0  0  0
   -4.9224    1.6630    4.4261 H   0  0  0  0  0  0  0  0  0  0  0  0
   -6.7465    0.2937   -0.3972 H   0  0  0  0  0  0  0  0  0  0  0  0
   -6.2823    0.6410   -2.7877 H   0  0  0  0  0  0  0  0  0  0  0  0
   -2.0784    1.0042   -1.9233 H   0  0  0  0  0  0  0  0  0  0  0  0
    1.5520   -2.0996    0.8412 H   0  0  0  0  0  0  0  0  0  0  0  0
    2.4363   -2.4043   -0.6545 H   0  0  0  0  0  0  0  0  0  0  0  0
    3.3663   -0.8452    1.8131 H   0  0  0  0  0  0  0  0  0  0  0  0
    3.9538   -2.4017    1.3034 H   0  0  0  0  0  0  0  0  0  0  0  0
  1  2  1  0
  2  3  1  0
  3  4  1  0
  4  5  1  0
  5  6  1  0
  6  7  1  0
  7  8  1  0
  8  9  1  0
  9 10  1  0
 10 11  2  3
 11 12  1  0
 12 13  2  0
 13 14  1  0
 14 15  2  0
 15 16  1  0
 16 17  2  0
 17 18  1  0
 18 19  1  0
 19 20  2  0
 20 21  1  0
 21 22  2  0
 22 23  1  0
 23 24  1  0
 23 25  1  0
 23 26  1  0
 22 27  1  0
 27 28  2  0
  7 29  1  0
 29 30  1  0
 30  4  1  0
 28 11  1  0
 17 12  1  0
 28 19  1  0
  1 31  1  0
  2 32  1  0
  2 33  1  0
  3 34  1  0
  3 35  1  0
  5 36  1  0
  5 37  1  0
  6 38  1  0
  6 39  1  0
  8 40  1  0
  8 41  1  0
  9 42  1  0
  9 43  1  0
 10 44  1  0
 13 45  1  0
 14 46  1  0
 15 47  1  0
 16 48  1  0
 20 49  1  0
 21 50  1  0
 27 51  1  0
 29 52  1  0
 29 53  1  0
 30 54  1  0
 30 55  1  0
M  END
$$$$
