
     RDKit          3D

 58 60  0  0  0  0  0  0  0  0999 V2000
    7.9380    1.1994   -0.6143 C   0  0  0  0  0  0  0  0  0  0  0  0
    6.5318    1.6351   -0.5631 C   0  0  0  0  0  0  0  0  0  0  0  0
    5.4910    1.4170    0.3049 C   0  0  0  0  0  0  0  0  0  0  0  0
    4.4040    2.1251   -0.2602 C   0  0  0  0  0  0  0  0  0  0  0  0
    3.1115    2.2503    0.1972 N   0  0  0  0  0  0  0  0  0  0  0  0
    2.6052    1.6465    1.3230 C   0  0  0  0  0  0  0  0  0  0  0  0
    3.2143    0.8802    2.0700 O   0  0  0  0  0  0  0  0  0  0  0  0
    1.1594    2.0147    1.6045 C   0  0  0  0  0  0  0  0  0  0  0  0
    0.2868    0.7627    1.6254 C   0  0  0  0  0  0  0  0  0  0  0  0
    0.0646    0.2184    0.2231 C   0  0  0  0  0  0  0  0  0  0  0  0
    0.5223    0.8071   -0.7576 O   0  0  0  0  0  0  0  0  0  0  0  0
   -0.6953   -0.9359    0.0974 N   0  0  0  0  0  0  0  0  0  0  0  0
   -1.3657   -1.6147    1.2203 C   0  0  0  0  0  0  0  0  0  0  0  0
   -2.7939   -1.1106    1.4844 C   0  0  0  0  0  0  0  0  0  0  0  0
   -3.4644   -1.5381    2.4216 O   0  0  0  0  0  0  0  0  0  0  0  0
   -3.2599   -0.1687    0.5915 N   0  0  0  0  0  0  0  0  0  0  0  0
   -4.5307    0.4963    0.7743 C   0  0  0  0  0  0  0  0  0  0  0  0
   -4.4664    1.6122    1.8190 C   0  0  0  0  0  0  0  0  0  0  0  0
   -5.5636    2.6029    1.4275 C   0  0  0  0  0  0  0  0  0  0  0  0
   -6.0621    2.1695    0.0507 C   0  0  0  0  0  0  0  0  0  0  0  0
   -4.9903    1.2299   -0.4791 C   0  0  0  0  0  0  0  0  0  0  0  0
   -0.8491   -1.5421   -1.2269 C   0  0  0  0  0  0  0  0  0  0  0  0
    0.0713   -2.7240   -1.4248 C   0  0  0  0  0  0  0  0  0  0  0  0
   -0.4452   -4.0271   -1.5061 C   0  0  0  0  0  0  0  0  0  0  0  0
    0.4094   -5.1136   -1.6982 C   0  0  0  0  0  0  0  0  0  0  0  0
    1.7769   -4.8991   -1.8119 C   0  0  0  0  0  0  0  0  0  0  0  0
    2.5937   -5.9425   -2.0076 F   0  0  0  0  0  0  0  0  0  0  0  0
    2.3099   -3.6198   -1.7293 C   0  0  0  0  0  0  0  0  0  0  0  0
    1.4585   -2.5319   -1.5357 C   0  0  0  0  0  0  0  0  0  0  0  0
    4.7692    2.7408   -1.3914 N   0  0  0  0  0  0  0  0  0  0  0  0
    6.1039    2.4318   -1.5797 O   0  0  0  0  0  0  0  0  0  0  0  0
    8.0583    0.3970   -1.3497 H   0  0  0  0  0  0  0  0  0  0  0  0
    8.5974    2.0287   -0.8997 H   0  0  0  0  0  0  0  0  0  0  0  0
    8.2677    0.8229    0.3623 H   0  0  0  0  0  0  0  0  0  0  0  0
    5.5156    0.8253    1.2097 H   0  0  0  0  0  0  0  0  0  0  0  0
    2.5073    2.7709   -0.4251 H   0  0  0  0  0  0  0  0  0  0  0  0
    1.1389    2.4992    2.5875 H   0  0  0  0  0  0  0  0  0  0  0  0
    0.7874    2.7477    0.8815 H   0  0  0  0  0  0  0  0  0  0  0  0
    0.7567   -0.0101    2.2428 H   0  0  0  0  0  0  0  0  0  0  0  0
   -0.6889    1.0199    2.0529 H   0  0  0  0  0  0  0  0  0  0  0  0
   -1.4174   -2.6885    1.0134 H   0  0  0  0  0  0  0  0  0  0  0  0
   -0.7948   -1.4769    2.1413 H   0  0  0  0  0  0  0  0  0  0  0  0
   -2.5884    0.2347   -0.0507 H   0  0  0  0  0  0  0  0  0  0  0  0
   -5.2807   -0.2463    1.0752 H   0  0  0  0  0  0  0  0  0  0  0  0
   -3.4924    2.1182    1.7897 H   0  0  0  0  0  0  0  0  0  0  0  0
   -4.6005    1.2313    2.8381 H   0  0  0  0  0  0  0  0  0  0  0  0
   -6.3821    2.6024    2.1545 H   0  0  0  0  0  0  0  0  0  0  0  0
   -5.1575    3.6200    1.3925 H   0  0  0  0  0  0  0  0  0  0  0  0
   -7.0110    1.6302    0.1544 H   0  0  0  0  0  0  0  0  0  0  0  0
   -6.2330    3.0224   -0.6156 H   0  0  0  0  0  0  0  0  0  0  0  0
   -5.3697    0.5539   -1.2480 H   0  0  0  0  0  0  0  0  0  0  0  0
   -4.1696    1.8079   -0.9184 H   0  0  0  0  0  0  0  0  0  0  0  0
   -0.6495   -0.8098   -2.0174 H   0  0  0  0  0  0  0  0  0  0  0  0
   -1.8962   -1.8417   -1.3476 H   0  0  0  0  0  0  0  0  0  0  0  0
   -1.5147   -4.2052   -1.4265 H   0  0  0  0  0  0  0  0  0  0  0  0
    0.0176   -6.1222   -1.7671 H   0  0  0  0  0  0  0  0  0  0  0  0
    3.3816   -3.4734   -1.8246 H   0  0  0  0  0  0  0  0  0  0  0  0
    1.8827   -1.5302   -1.4803 H   0  0  0  0  0  0  0  0  0  0  0  0
  1  2  1  0
  2  3  2  0
  3  4  1  0
  4  5  1  0
  5  6  1  0
  6  7  2  0
  6  8  1  0
  8  9  1  0
  9 10  1  0
 10 11  2  0
 10 12  1  0
 12 13  1  0
 13 14  1  0
 14 15  2  0
 14 16  1  0
 16 17  1  0
 17 18  1  0
 18 19  1  0
 19 20  1  0
 20 21  1  0
 12 22  1  0
 22 23  1  0
 23 24  2  0
 24 25  1  0
 25 26  2  0
 26 27  1  0
 26 28  1  0
 28 29  2  0
  4 30  2  0
 30 31  1  0
 31  2  1  0
 21 17  1  0
 29 23  1  0
  1 32  1  0
  1 33  1  0
  1 34  1  0
  3 35  1  0
  5 36  1  0
  8 37  1  0
  8 38  1  0
  9 39  1  0
  9 40  1  0
 13 41  1  0
 13 42  1  0
 16 43  1  0
 17 44  1  0
 18 45  1  0
 18 46  1  0
 19 47  1  0
 19 48  1  0
 20 49  1  0
 20 50  1  0
 21 51  1  0
 21 52  1  0
 22 53  1  0
 22 54  1  0
 24 55  1  0
 25 56  1  0
 28 57  1  0
 29 58  1  0
M  END
$$$$
