
     RDKit          3D

 46 47  0  0  0  0  0  0  0  0999 V2000
    8.6832    0.5741   -0.3423 C   0  0  0  0  0  0  0  0  0  0  0  0
    7.7290    0.6625   -1.3927 O   0  0  0  0  0  0  0  0  0  0  0  0
    6.4669    0.2117   -1.1199 C   0  0  0  0  0  0  0  0  0  0  0  0
    5.5730    0.2952   -2.1894 C   0  0  0  0  0  0  0  0  0  0  0  0
    4.2499   -0.1299   -2.0493 C   0  0  0  0  0  0  0  0  0  0  0  0
    3.8015   -0.6496   -0.8305 C   0  0  0  0  0  0  0  0  0  0  0  0
    2.3672   -1.0865   -0.6651 C   0  0  0  0  0  0  0  0  0  0  0  0
    1.4777    0.0784   -0.2412 C   0  0  0  0  0  0  0  0  0  0  0  0
    0.0393   -0.3542   -0.0636 C   0  0  0  0  0  0  0  0  0  0  0  0
   -0.3564   -1.5071   -0.2094 O   0  0  0  0  0  0  0  0  0  0  0  0
   -0.7941    0.6956    0.2783 N   0  0  0  0  0  0  0  0  0  0  0  0
   -2.0979    0.3811    0.6853 N   0  0  0  0  0  0  0  0  0  0  0  0
   -2.6389    1.0863    1.7411 C   0  0  0  0  0  0  0  0  0  0  0  0
   -2.0652    2.0596    2.2373 O   0  0  0  0  0  0  0  0  0  0  0  0
   -3.9337    0.5493    2.3020 C   0  0  0  0  0  0  0  0  0  0  0  0
   -4.8415    0.1016    1.2634 N   0  0  0  0  0  0  0  0  0  0  0  0
   -4.6419   -1.1189    0.7229 N   0  0  0  0  0  0  0  0  0  0  0  0
   -5.6091   -1.2361   -0.1935 C   0  0  0  0  0  0  0  0  0  0  0  0
   -5.7228   -2.4694   -1.0076 C   0  0  0  0  0  0  0  0  0  0  0  0
   -6.4191   -0.0809   -0.2409 C   0  0  0  0  0  0  0  0  0  0  0  0
   -5.8982    0.7748    0.7068 C   0  0  0  0  0  0  0  0  0  0  0  0
   -6.3143    2.1415    1.1036 C   0  0  0  0  0  0  0  0  0  0  0  0
    4.6979   -0.7281    0.2423 C   0  0  0  0  0  0  0  0  0  0  0  0
    6.0233   -0.3021    0.0983 C   0  0  0  0  0  0  0  0  0  0  0  0
    9.6342    0.9606   -0.7212 H   0  0  0  0  0  0  0  0  0  0  0  0
    8.8434   -0.4662   -0.0404 H   0  0  0  0  0  0  0  0  0  0  0  0
    8.3889    1.1935    0.5113 H   0  0  0  0  0  0  0  0  0  0  0  0
    5.9114    0.6947   -3.1424 H   0  0  0  0  0  0  0  0  0  0  0  0
    3.5757   -0.0536   -2.8992 H   0  0  0  0  0  0  0  0  0  0  0  0
    2.0070   -1.5208   -1.6068 H   0  0  0  0  0  0  0  0  0  0  0  0
    2.3140   -1.8975    0.0729 H   0  0  0  0  0  0  0  0  0  0  0  0
    1.8290    0.4991    0.7089 H   0  0  0  0  0  0  0  0  0  0  0  0
    1.5080    0.8754   -0.9942 H   0  0  0  0  0  0  0  0  0  0  0  0
   -0.4116    1.5541    0.6747 H   0  0  0  0  0  0  0  0  0  0  0  0
   -2.4721   -0.5347    0.4064 H   0  0  0  0  0  0  0  0  0  0  0  0
   -4.4321    1.3290    2.8848 H   0  0  0  0  0  0  0  0  0  0  0  0
   -3.7225   -0.2984    2.9620 H   0  0  0  0  0  0  0  0  0  0  0  0
   -5.9713   -3.3255   -0.3722 H   0  0  0  0  0  0  0  0  0  0  0  0
   -4.7793   -2.6805   -1.5214 H   0  0  0  0  0  0  0  0  0  0  0  0
   -6.5058   -2.3705   -1.7662 H   0  0  0  0  0  0  0  0  0  0  0  0
   -7.2670    0.1047   -0.8858 H   0  0  0  0  0  0  0  0  0  0  0  0
   -7.1213    2.5060    0.4598 H   0  0  0  0  0  0  0  0  0  0  0  0
   -5.4778    2.8427    1.0209 H   0  0  0  0  0  0  0  0  0  0  0  0
   -6.6782    2.1495    2.1358 H   0  0  0  0  0  0  0  0  0  0  0  0
    4.3713   -1.1251    1.2013 H   0  0  0  0  0  0  0  0  0  0  0  0
    6.6804   -0.3854    0.9572 H   0  0  0  0  0  0  0  0  0  0  0  0
  1  2  1  0
  2  3  1  0
  3  4  2  0
  4  5  1  0
  5  6  2  0
  6  7  1  0
  7  8  1  0
  8  9  1  0
  9 10  2  0
  9 11  1  0
 11 12  1  0
 12 13  1  0
 13 14  2  0
 13 15  1  0
 15 16  1  0
 16 17  1  0
 17 18  2  0
 18 19  1  0
 18 20  1  0
 20 21  2  0
 21 22  1  0
  6 23  1  0
 23 24  2  0
 24  3  1  0
 21 16  1  0
  1 25  1  0
  1 26  1  0
  1 27  1  0
  4 28  1  0
  5 29  1  0
  7 30  1  0
  7 31  1  0
  8 32  1  0
  8 33  1  0
 11 34  1  0
 12 35  1  0
 15 36  1  0
 15 37  1  0
 19 38  1  0
 19 39  1  0
 19 40  1  0
 20 41  1  0
 22 42  1  0
 22 43  1  0
 22 44  1  0
 23 45  1  0
 24 46  1  0
M  END
$$$$
