
     RDKit          3D

 57 61  0  0  0  0  0  0  0  0999 V2000
   -4.5802   -3.0056   -1.0055 C   0  0  0  0  0  0  0  0  0  0  0  0
   -4.8470   -1.5088   -0.8546 C   0  0  0  0  0  0  0  0  0  0  0  0
   -6.3369   -1.2670   -0.6054 C   0  0  0  0  0  0  0  0  0  0  0  0
   -4.0117   -0.9500    0.3002 C   0  0  0  0  0  0  0  0  0  0  0  0
   -4.4792   -0.8941    1.4397 O   0  0  0  0  0  0  0  0  0  0  0  0
   -2.7019   -0.5580    0.0316 N   0  0  0  0  0  0  0  0  0  0  0  0
   -2.0977   -0.5413   -1.3007 C   0  0  0  0  0  0  0  0  0  0  0  0
   -0.5758   -0.4660   -1.2330 C   0  0  0  0  0  0  0  0  0  0  0  0
   -0.1088    0.8260   -0.5112 C   0  0  0  0  0  0  0  0  0  0  0  0
   -1.0519    1.1698    0.6747 C   0  0  0  0  0  0  0  0  0  0  0  0
   -1.9067   -0.0098    1.1268 C   0  0  0  0  0  0  0  0  0  0  0  0
   -0.3030    1.8489   -1.5313 O   0  0  0  0  0  0  0  0  0  0  0  0
    0.3767    3.0219   -1.3974 C   0  0  0  0  0  0  0  0  0  0  0  0
   -0.0398    4.0679   -2.2235 C   0  0  0  0  0  0  0  0  0  0  0  0
    0.5840    5.3140   -2.1423 C   0  0  0  0  0  0  0  0  0  0  0  0
    1.6228    5.5043   -1.2370 C   0  0  0  0  0  0  0  0  0  0  0  0
    2.2159    6.7021   -1.1586 F   0  0  0  0  0  0  0  0  0  0  0  0
    2.0556    4.4707   -0.4174 C   0  0  0  0  0  0  0  0  0  0  0  0
    1.4310    3.2241   -0.5131 C   0  0  0  0  0  0  0  0  0  0  0  0
    1.8771    2.1021    0.3214 C   0  0  0  0  0  0  0  0  0  0  0  0
    2.5944    2.3183    1.2950 O   0  0  0  0  0  0  0  0  0  0  0  0
    1.3856    0.7186   -0.0931 C   0  0  0  0  0  0  0  0  0  0  0  0
    1.6868   -0.3104    0.9882 C   0  0  0  0  0  0  0  0  0  0  0  0
    2.9657   -0.8509    0.4443 C   0  0  0  0  0  0  0  0  0  0  0  0
    3.8546   -1.7251    1.2457 C   0  0  0  0  0  0  0  0  0  0  0  0
    5.0678   -2.1497    0.6892 C   0  0  0  0  0  0  0  0  0  0  0  0
    5.9248   -2.9783    1.4160 C   0  0  0  0  0  0  0  0  0  0  0  0
    5.5740   -3.3874    2.7011 C   0  0  0  0  0  0  0  0  0  0  0  0
    4.3673   -2.9695    3.2606 C   0  0  0  0  0  0  0  0  0  0  0  0
    3.5065   -2.1402    2.5362 C   0  0  0  0  0  0  0  0  0  0  0  0
    3.2119   -0.5280   -0.7857 N   0  0  0  0  0  0  0  0  0  0  0  0
    2.1685    0.3123   -1.2279 O   0  0  0  0  0  0  0  0  0  0  0  0
   -4.8923   -3.5532   -0.1088 H   0  0  0  0  0  0  0  0  0  0  0  0
   -3.5179   -3.2188   -1.1553 H   0  0  0  0  0  0  0  0  0  0  0  0
   -5.1304   -3.4133   -1.8600 H   0  0  0  0  0  0  0  0  0  0  0  0
   -4.5888   -0.9879   -1.7819 H   0  0  0  0  0  0  0  0  0  0  0  0
   -6.6896   -1.7945    0.2879 H   0  0  0  0  0  0  0  0  0  0  0  0
   -6.5363   -0.1996   -0.4603 H   0  0  0  0  0  0  0  0  0  0  0  0
   -6.9333   -1.6103   -1.4573 H   0  0  0  0  0  0  0  0  0  0  0  0
   -2.3868   -1.4381   -1.8530 H   0  0  0  0  0  0  0  0  0  0  0  0
   -2.5103    0.3212   -1.8371 H   0  0  0  0  0  0  0  0  0  0  0  0
   -0.1822   -0.4925   -2.2571 H   0  0  0  0  0  0  0  0  0  0  0  0
   -0.2105   -1.3660   -0.7276 H   0  0  0  0  0  0  0  0  0  0  0  0
   -1.7268    1.9880    0.3882 H   0  0  0  0  0  0  0  0  0  0  0  0
   -0.4840    1.5403    1.5359 H   0  0  0  0  0  0  0  0  0  0  0  0
   -1.2810   -0.8228    1.5102 H   0  0  0  0  0  0  0  0  0  0  0  0
   -2.5499    0.3113    1.9529 H   0  0  0  0  0  0  0  0  0  0  0  0
   -0.8550    3.9155   -2.9268 H   0  0  0  0  0  0  0  0  0  0  0  0
    0.2665    6.1361   -2.7766 H   0  0  0  0  0  0  0  0  0  0  0  0
    2.8753    4.6394    0.2749 H   0  0  0  0  0  0  0  0  0  0  0  0
    0.9697   -1.1330    1.0287 H   0  0  0  0  0  0  0  0  0  0  0  0
    1.7973    0.1119    1.9895 H   0  0  0  0  0  0  0  0  0  0  0  0
    5.3555   -1.8365   -0.3127 H   0  0  0  0  0  0  0  0  0  0  0  0
    6.8658   -3.3019    0.9783 H   0  0  0  0  0  0  0  0  0  0  0  0
    6.2427   -4.0314    3.2672 H   0  0  0  0  0  0  0  0  0  0  0  0
    4.0973   -3.2897    4.2642 H   0  0  0  0  0  0  0  0  0  0  0  0
    2.5746   -1.8353    3.0016 H   0  0  0  0  0  0  0  0  0  0  0  0
  1  2  1  0
  2  3  1  0
  2  4  1  0
  4  5  2  0
  4  6  1  0
  6  7  1  0
  7  8  1  0
  8  9  1  0
  9 10  1  0
 10 11  1  0
  9 12  1  0
 12 13  1  0
 13 14  2  0
 14 15  1  0
 15 16  2  0
 16 17  1  0
 16 18  1  0
 18 19  2  0
 19 20  1  0
 20 21  2  0
 20 22  1  0
 22 23  1  0
 23 24  1  0
 24 25  1  0
 25 26  2  0
 26 27  1  0
 27 28  2  0
 28 29  1  0
 29 30  2  0
 24 31  2  0
 31 32  1  0
 11  6  1  0
 19 13  1  0
 32 22  1  0
 22  9  1  0
 30 25  1  0
  1 33  1  0
  1 34  1  0
  1 35  1  0
  2 36  1  0
  3 37  1  0
  3 38  1  0
  3 39  1  0
  7 40  1  0
  7 41  1  0
  8 42  1  0
  8 43  1  0
 10 44  1  0
 10 45  1  0
 11 46  1  0
 11 47  1  0
 14 48  1  0
 15 49  1  0
 18 50  1  0
 23 51  1  0
 23 52  1  0
 26 53  1  0
 27 54  1  0
 28 55  1  0
 29 56  1  0
 30 57  1  0
M  END
$$$$
