
     RDKit          3D

 62 67  0  0  0  0  0  0  0  0999 V2000
   -3.9770   -3.8805   -0.4889 C   0  0  0  0  0  0  0  0  0  0  0  0
   -3.6900   -2.6091    0.0747 O   0  0  0  0  0  0  0  0  0  0  0  0
   -2.9976   -2.5814    1.2598 C   0  0  0  0  0  0  0  0  0  0  0  0
   -2.4500   -3.7102    1.8813 C   0  0  0  0  0  0  0  0  0  0  0  0
   -1.7395   -3.5871    3.0792 C   0  0  0  0  0  0  0  0  0  0  0  0
   -1.5662   -2.3378    3.6671 C   0  0  0  0  0  0  0  0  0  0  0  0
   -2.1058   -1.2061    3.0588 C   0  0  0  0  0  0  0  0  0  0  0  0
   -2.8257   -1.3157    1.8577 C   0  0  0  0  0  0  0  0  0  0  0  0
   -3.3659   -0.0930    1.2482 C   0  0  0  0  0  0  0  0  0  0  0  0
   -4.9924    0.3207    1.5660 S   0  0  0  0  0  0  0  0  0  0  0  0
   -4.9073    1.7547    0.6199 C   0  0  0  0  0  0  0  0  0  0  0  0
   -5.9560    2.6754    0.4014 C   0  0  0  0  0  0  0  0  0  0  0  0
   -5.6669    3.7629   -0.3966 C   0  0  0  0  0  0  0  0  0  0  0  0
   -4.4326    3.9527   -0.9546 C   0  0  0  0  0  0  0  0  0  0  0  0
   -3.3930    3.0660   -0.7541 C   0  0  0  0  0  0  0  0  0  0  0  0
   -3.6296    1.9250    0.0624 C   0  0  0  0  0  0  0  0  0  0  0  0
   -2.7451    0.8440    0.4399 C   0  0  0  0  0  0  0  0  0  0  0  0
   -1.3472    0.7078    0.0485 C   0  0  0  0  0  0  0  0  0  0  0  0
   -0.9662   -0.2541   -0.8926 C   0  0  0  0  0  0  0  0  0  0  0  0
    0.3746   -0.3801   -1.2726 C   0  0  0  0  0  0  0  0  0  0  0  0
    1.3421    0.4572   -0.7164 C   0  0  0  0  0  0  0  0  0  0  0  0
    2.6796    0.4406   -0.9982 O   0  0  0  0  0  0  0  0  0  0  0  0
    3.1342   -0.5225   -1.9522 C   0  0  0  0  0  0  0  0  0  0  0  0
    4.6614   -0.3963   -2.1226 C   0  0  0  0  0  0  0  0  0  0  0  0
    5.4528   -1.1211   -1.1077 N   0  0  0  0  0  0  0  0  0  0  0  0
    5.1868   -0.6261    0.2626 C   0  0  0  0  0  0  0  0  0  0  0  0
    6.3398   -0.9575    1.2225 C   0  0  0  0  0  0  0  0  0  0  0  0
    7.5699   -0.3140    0.8589 O   0  0  0  0  0  0  0  0  0  0  0  0
    7.6711   -0.0542   -0.5473 C   0  0  0  0  0  0  0  0  0  0  0  0
    6.9018   -1.0717   -1.4043 C   0  0  0  0  0  0  0  0  0  0  0  0
    0.9574    1.4204    0.2205 C   0  0  0  0  0  0  0  0  0  0  0  0
   -0.3798    1.5497    0.6028 C   0  0  0  0  0  0  0  0  0  0  0  0
   -4.3674    5.0862   -1.7044 O   0  0  0  0  0  0  0  0  0  0  0  0
   -5.7111    5.5877   -1.5543 C   0  0  0  0  0  0  0  0  0  0  0  0
   -6.5422    4.7534   -0.7219 O   0  0  0  0  0  0  0  0  0  0  0  0
   -3.0582   -4.3926   -0.7919 H   0  0  0  0  0  0  0  0  0  0  0  0
   -4.5667   -4.4963    0.1983 H   0  0  0  0  0  0  0  0  0  0  0  0
   -4.5779   -3.7185   -1.3890 H   0  0  0  0  0  0  0  0  0  0  0  0
   -2.5514   -4.7030    1.4560 H   0  0  0  0  0  0  0  0  0  0  0  0
   -1.3169   -4.4708    3.5512 H   0  0  0  0  0  0  0  0  0  0  0  0
   -1.0100   -2.2429    4.5960 H   0  0  0  0  0  0  0  0  0  0  0  0
   -1.9633   -0.2324    3.5223 H   0  0  0  0  0  0  0  0  0  0  0  0
   -6.9379    2.5337    0.8372 H   0  0  0  0  0  0  0  0  0  0  0  0
   -2.4246    3.2374   -1.2127 H   0  0  0  0  0  0  0  0  0  0  0  0
   -1.7115   -0.9135   -1.3328 H   0  0  0  0  0  0  0  0  0  0  0  0
    0.6246   -1.1424   -2.0024 H   0  0  0  0  0  0  0  0  0  0  0  0
    2.6649   -0.3119   -2.9212 H   0  0  0  0  0  0  0  0  0  0  0  0
    2.8765   -1.5411   -1.6369 H   0  0  0  0  0  0  0  0  0  0  0  0
    4.9491    0.6625   -2.1461 H   0  0  0  0  0  0  0  0  0  0  0  0
    4.9031   -0.8303   -3.1009 H   0  0  0  0  0  0  0  0  0  0  0  0
    5.0580    0.4641    0.2574 H   0  0  0  0  0  0  0  0  0  0  0  0
    4.2648   -1.0810    0.6398 H   0  0  0  0  0  0  0  0  0  0  0  0
    6.5174   -2.0387    1.2614 H   0  0  0  0  0  0  0  0  0  0  0  0
    6.0893   -0.6330    2.2375 H   0  0  0  0  0  0  0  0  0  0  0  0
    8.7345   -0.0740   -0.8064 H   0  0  0  0  0  0  0  0  0  0  0  0
    7.3103    0.9637   -0.7348 H   0  0  0  0  0  0  0  0  0  0  0  0
    7.3018   -2.0710   -1.1909 H   0  0  0  0  0  0  0  0  0  0  0  0
    7.0929   -0.8864   -2.4679 H   0  0  0  0  0  0  0  0  0  0  0  0
    1.7065    2.0763    0.6572 H   0  0  0  0  0  0  0  0  0  0  0  0
   -0.6571    2.3044    1.3345 H   0  0  0  0  0  0  0  0  0  0  0  0
   -5.6645    6.5895   -1.1118 H   0  0  0  0  0  0  0  0  0  0  0  0
   -6.1706    5.6624   -2.5466 H   0  0  0  0  0  0  0  0  0  0  0  0
  1  2  1  0
  2  3  1  0
  3  4  2  0
  4  5  1  0
  5  6  2  0
  6  7  1  0
  7  8  2  0
  8  9  1  0
  9 10  1  0
 10 11  1  0
 11 12  2  0
 12 13  1  0
 13 14  2  0
 14 15  1  0
 15 16  2  0
 16 17  1  0
 17 18  1  0
 18 19  2  0
 19 20  1  0
 20 21  2  0
 21 22  1  0
 22 23  1  0
 23 24  1  0
 24 25  1  0
 25 26  1  0
 26 27  1  0
 27 28  1  0
 28 29  1  0
 29 30  1  0
 21 31  1  0
 31 32  2  0
 14 33  1  0
 33 34  1  0
 34 35  1  0
  8  3  1  0
 17  9  2  0
 32 18  1  0
 16 11  1  0
 30 25  1  0
 35 13  1  0
  1 36  1  0
  1 37  1  0
  1 38  1  0
  4 39  1  0
  5 40  1  0
  6 41  1  0
  7 42  1  0
 12 43  1  0
 15 44  1  0
 19 45  1  0
 20 46  1  0
 23 47  1  0
 23 48  1  0
 24 49  1  0
 24 50  1  0
 26 51  1  0
 26 52  1  0
 27 53  1  0
 27 54  1  0
 29 55  1  0
 29 56  1  0
 30 57  1  0
 30 58  1  0
 31 59  1  0
 32 60  1  0
 34 61  1  0
 34 62  1  0
M  END
$$$$
