
     RDKit          3D

 46 48  0  0  0  0  0  0  0  0999 V2000
    9.0216   -1.0420    1.6247 C   0  0  0  0  0  0  0  0  0  0  0  0
    7.5823   -0.9061    2.0825 C   0  0  0  0  0  0  0  0  0  0  0  0
    6.7793   -0.5665    0.9452 O   0  0  0  0  0  0  0  0  0  0  0  0
    5.4545   -0.4609    1.2146 C   0  0  0  0  0  0  0  0  0  0  0  0
    4.9273   -0.6477    2.3007 O   0  0  0  0  0  0  0  0  0  0  0  0
    4.6947   -0.0877   -0.0088 C   0  0  0  0  0  0  0  0  0  0  0  0
    5.3236    0.2371   -1.2141 C   0  0  0  0  0  0  0  0  0  0  0  0
    4.5550    0.5897   -2.3234 C   0  0  0  0  0  0  0  0  0  0  0  0
    3.1594    0.6207   -2.2341 C   0  0  0  0  0  0  0  0  0  0  0  0
    2.5169    0.3051   -1.0356 C   0  0  0  0  0  0  0  0  0  0  0  0
    1.1162    0.3151   -0.8644 N   0  0  0  0  0  0  0  0  0  0  0  0
    0.1622    0.7139   -1.7833 C   0  0  0  0  0  0  0  0  0  0  0  0
    0.3615    1.1897   -2.8950 O   0  0  0  0  0  0  0  0  0  0  0  0
   -1.2465    0.5764   -1.3196 C   0  0  0  0  0  0  0  0  0  0  0  0
   -2.1761    1.5499   -1.6998 C   0  0  0  0  0  0  0  0  0  0  0  0
   -3.5078    1.4480   -1.2860 C   0  0  0  0  0  0  0  0  0  0  0  0
   -3.9313    0.3673   -0.5014 C   0  0  0  0  0  0  0  0  0  0  0  0
   -5.2890    0.3364   -0.1365 N   0  0  0  0  0  0  0  0  0  0  0  0
   -5.9659   -0.6310    0.5868 C   0  0  0  0  0  0  0  0  0  0  0  0
   -5.4664   -1.6488    1.0565 O   0  0  0  0  0  0  0  0  0  0  0  0
   -7.3782   -0.3235    0.7389 C   0  0  0  0  0  0  0  0  0  0  0  0
   -8.4073   -1.0286    1.3360 C   0  0  0  0  0  0  0  0  0  0  0  0
   -9.5782   -0.2456    1.1901 C   0  0  0  0  0  0  0  0  0  0  0  0
   -9.2000    0.8862    0.5054 C   0  0  0  0  0  0  0  0  0  0  0  0
   -7.8717    0.8502    0.2223 O   0  0  0  0  0  0  0  0  0  0  0  0
   -3.0009   -0.6100   -0.1374 C   0  0  0  0  0  0  0  0  0  0  0  0
   -1.6644   -0.5113   -0.5458 C   0  0  0  0  0  0  0  0  0  0  0  0
    3.2935   -0.0505    0.0738 C   0  0  0  0  0  0  0  0  0  0  0  0
    9.6762   -1.2779    2.4695 H   0  0  0  0  0  0  0  0  0  0  0  0
    9.1140   -1.8389    0.8763 H   0  0  0  0  0  0  0  0  0  0  0  0
    9.3679   -0.1164    1.1526 H   0  0  0  0  0  0  0  0  0  0  0  0
    7.2413   -1.8562    2.5124 H   0  0  0  0  0  0  0  0  0  0  0  0
    7.5064   -0.1123    2.8362 H   0  0  0  0  0  0  0  0  0  0  0  0
    6.4070    0.2278   -1.3054 H   0  0  0  0  0  0  0  0  0  0  0  0
    5.0391    0.8506   -3.2622 H   0  0  0  0  0  0  0  0  0  0  0  0
    2.6017    0.8998   -3.1248 H   0  0  0  0  0  0  0  0  0  0  0  0
    0.7862    0.0739    0.0624 H   0  0  0  0  0  0  0  0  0  0  0  0
   -1.8662    2.3890   -2.3200 H   0  0  0  0  0  0  0  0  0  0  0  0
   -4.2081    2.2222   -1.5943 H   0  0  0  0  0  0  0  0  0  0  0  0
   -5.8739    1.0987   -0.4625 H   0  0  0  0  0  0  0  0  0  0  0  0
   -8.3079   -1.9918    1.8216 H   0  0  0  0  0  0  0  0  0  0  0  0
  -10.5757   -0.4781    1.5383 H   0  0  0  0  0  0  0  0  0  0  0  0
   -9.7288    1.7668    0.1654 H   0  0  0  0  0  0  0  0  0  0  0  0
   -3.2835   -1.4719    0.4587 H   0  0  0  0  0  0  0  0  0  0  0  0
   -0.9757   -1.3098   -0.2779 H   0  0  0  0  0  0  0  0  0  0  0  0
    2.8155   -0.3008    1.0202 H   0  0  0  0  0  0  0  0  0  0  0  0
  1  2  1  0
  2  3  1  0
  3  4  1  0
  4  5  2  0
  4  6  1  0
  6  7  2  0
  7  8  1  0
  8  9  2  0
  9 10  1  0
 10 11  1  0
 11 12  1  0
 12 13  2  0
 12 14  1  0
 14 15  2  0
 15 16  1  0
 16 17  2  0
 17 18  1  0
 18 19  1  0
 19 20  2  0
 19 21  1  0
 21 22  2  0
 22 23  1  0
 23 24  2  0
 24 25  1  0
 17 26  1  0
 26 27  2  0
 10 28  2  0
 28  6  1  0
 27 14  1  0
 25 21  1  0
  1 29  1  0
  1 30  1  0
  1 31  1  0
  2 32  1  0
  2 33  1  0
  7 34  1  0
  8 35  1  0
  9 36  1  0
 11 37  1  0
 15 38  1  0
 16 39  1  0
 18 40  1  0
 22 41  1  0
 23 42  1  0
 24 43  1  0
 26 44  1  0
 27 45  1  0
 28 46  1  0
M  END
$$$$
