
     RDKit          3D

 35 36  0  0  0  0  0  0  0  0999 V2000
   -5.5863   -0.3172   -1.2242 C   0  0  0  0  0  0  0  0  0  0  0  0
   -4.9205    0.0201    0.0841 C   0  0  0  0  0  0  0  0  0  0  0  0
   -5.5585    0.0514    1.1343 O   0  0  0  0  0  0  0  0  0  0  0  0
   -3.4567    0.3134    0.0970 C   0  0  0  0  0  0  0  0  0  0  0  0
   -2.8710    0.7432    1.2929 C   0  0  0  0  0  0  0  0  0  0  0  0
   -1.5034    1.0320    1.3481 C   0  0  0  0  0  0  0  0  0  0  0  0
   -0.7042    0.9175    0.2075 C   0  0  0  0  0  0  0  0  0  0  0  0
    0.6929    1.1443    0.3666 N   0  0  0  0  0  0  0  0  0  0  0  0
    1.7039    1.6569   -0.8683 S   0  0  0  0  0  6  0  0  0  0  0  0
    0.9214    2.2529   -1.9305 O   0  0  0  0  0  0  0  0  0  0  0  0
    2.7506    2.4213   -0.2187 O   0  0  0  0  0  0  0  0  0  0  0  0
    2.4244    0.1243   -1.4797 C   0  0  0  0  0  0  0  0  0  0  0  0
    2.9875   -0.7020   -0.3506 C   0  0  0  0  0  0  0  0  0  0  0  0
    4.2465   -0.4063    0.1941 C   0  0  0  0  0  0  0  0  0  0  0  0
    4.7637   -1.1708    1.2424 C   0  0  0  0  0  0  0  0  0  0  0  0
    4.0272   -2.2375    1.7510 C   0  0  0  0  0  0  0  0  0  0  0  0
    4.6631   -3.1779    3.0434 Cl  0  0  0  0  0  0  0  0  0  0  0  0
    2.7770   -2.5461    1.2204 C   0  0  0  0  0  0  0  0  0  0  0  0
    2.2588   -1.7819    0.1722 C   0  0  0  0  0  0  0  0  0  0  0  0
   -1.2807    0.4464   -0.9732 C   0  0  0  0  0  0  0  0  0  0  0  0
   -2.6519    0.1601   -1.0358 C   0  0  0  0  0  0  0  0  0  0  0  0
   -5.2280   -1.2824   -1.5910 H   0  0  0  0  0  0  0  0  0  0  0  0
   -5.4054    0.4716   -1.9591 H   0  0  0  0  0  0  0  0  0  0  0  0
   -6.6675   -0.3874   -1.0690 H   0  0  0  0  0  0  0  0  0  0  0  0
   -3.4760    0.8549    2.1916 H   0  0  0  0  0  0  0  0  0  0  0  0
   -1.0782    1.3542    2.2955 H   0  0  0  0  0  0  0  0  0  0  0  0
    1.0162    1.4889    1.2717 H   0  0  0  0  0  0  0  0  0  0  0  0
    3.2096    0.3946   -2.1936 H   0  0  0  0  0  0  0  0  0  0  0  0
    1.6480   -0.4188   -2.0270 H   0  0  0  0  0  0  0  0  0  0  0  0
    4.8323    0.4299   -0.1866 H   0  0  0  0  0  0  0  0  0  0  0  0
    5.7382   -0.9265    1.6574 H   0  0  0  0  0  0  0  0  0  0  0  0
    2.2013   -3.3778    1.6182 H   0  0  0  0  0  0  0  0  0  0  0  0
    1.2779   -2.0346   -0.2265 H   0  0  0  0  0  0  0  0  0  0  0  0
   -0.6919    0.3016   -1.8734 H   0  0  0  0  0  0  0  0  0  0  0  0
   -3.0600   -0.1859   -1.9813 H   0  0  0  0  0  0  0  0  0  0  0  0
  1  2  1  0
  2  3  2  0
  2  4  1  0
  4  5  2  0
  5  6  1  0
  6  7  2  0
  7  8  1  0
  8  9  1  0
  9 10  2  0
  9 11  2  0
  9 12  1  0
 12 13  1  0
 13 14  2  0
 14 15  1  0
 15 16  2  0
 16 17  1  0
 16 18  1  0
 18 19  2  0
  7 20  1  0
 20 21  2  0
 21  4  1  0
 19 13  1  0
  1 22  1  0
  1 23  1  0
  1 24  1  0
  5 25  1  0
  6 26  1  0
  8 27  1  0
 12 28  1  0
 12 29  1  0
 14 30  1  0
 15 31  1  0
 18 32  1  0
 19 33  1  0
 20 34  1  0
 21 35  1  0
M  END
$$$$
