
     RDKit          3D

 41 43  0  0  0  0  0  0  0  0999 V2000
   -3.2162    2.2967    0.9050 C   0  0  0  0  0  0  0  0  0  0  0  0
   -2.5314    1.5773   -0.1389 N   0  0  0  0  0  0  0  0  0  0  0  0
   -1.5653    2.0566   -0.9774 C   0  0  0  0  0  0  0  0  0  0  0  0
   -0.8377    3.6168   -0.8450 S   0  0  0  0  0  0  0  0  0  0  0  0
    0.6156    3.3948   -1.9154 C   0  0  0  0  0  0  0  0  0  0  0  0
    1.6583    2.5316   -1.2256 C   0  0  0  0  0  0  0  0  0  0  0  0
    2.4698    3.0123   -0.4343 O   0  0  0  0  0  0  0  0  0  0  0  0
    1.5933    1.1850   -1.5863 N   0  0  0  0  0  0  0  0  0  0  0  0
    2.3439    0.1998   -0.9835 N   0  0  0  0  0  0  0  0  0  0  0  0
    3.5887    0.4582   -0.7254 C   0  0  0  0  0  0  0  0  0  0  0  0
    4.4032   -0.5280   -0.0543 C   0  0  0  0  0  0  0  0  0  0  0  0
    4.0497   -1.7873    0.3936 C   0  0  0  0  0  0  0  0  0  0  0  0
    5.1380   -2.4638    1.0236 C   0  0  0  0  0  0  0  0  0  0  0  0
    6.2761   -1.6874    1.0269 C   0  0  0  0  0  0  0  0  0  0  0  0
    7.5564   -2.0439    1.5822 N   0  0  0  0  0  4  0  0  0  0  0  0
    7.6143   -3.1310    2.1744 O   0  0  0  0  0  0  0  0  0  0  0  0
    8.5012   -1.2593    1.4316 O   0  0  0  0  0  1  0  0  0  0  0  0
    6.0440   -0.1767    0.2827 S   0  0  0  0  0  0  0  0  0  0  0  0
   -1.2551    1.1473   -1.8692 N   0  0  0  0  0  0  0  0  0  0  0  0
   -2.0008    0.0317   -1.5972 N   0  0  0  0  0  0  0  0  0  0  0  0
   -2.7444    0.2707   -0.5301 C   0  0  0  0  0  0  0  0  0  0  0  0
   -3.6575   -0.6864    0.0881 C   0  0  0  0  0  0  0  0  0  0  0  0
   -3.6355   -0.9393    1.4666 C   0  0  0  0  0  0  0  0  0  0  0  0
   -4.5154   -1.8688    2.0311 C   0  0  0  0  0  0  0  0  0  0  0  0
   -5.4148   -2.5558    1.2177 C   0  0  0  0  0  0  0  0  0  0  0  0
   -6.4985   -3.6959    1.9140 Cl  0  0  0  0  0  0  0  0  0  0  0  0
   -5.4363   -2.3286   -0.1558 C   0  0  0  0  0  0  0  0  0  0  0  0
   -4.5548   -1.4013   -0.7189 C   0  0  0  0  0  0  0  0  0  0  0  0
   -3.3384    3.3438    0.6160 H   0  0  0  0  0  0  0  0  0  0  0  0
   -4.2108    1.8717    1.0578 H   0  0  0  0  0  0  0  0  0  0  0  0
   -2.6243    2.2192    1.8197 H   0  0  0  0  0  0  0  0  0  0  0  0
    1.0649    4.3753   -2.1065 H   0  0  0  0  0  0  0  0  0  0  0  0
    0.3381    2.9778   -2.8890 H   0  0  0  0  0  0  0  0  0  0  0  0
    0.6782    0.8462   -1.9048 H   0  0  0  0  0  0  0  0  0  0  0  0
    4.0749    1.4030   -1.0251 H   0  0  0  0  0  0  0  0  0  0  0  0
    3.0516   -2.1984    0.2796 H   0  0  0  0  0  0  0  0  0  0  0  0
    5.0792   -3.4595    1.4494 H   0  0  0  0  0  0  0  0  0  0  0  0
   -2.9198   -0.4358    2.1128 H   0  0  0  0  0  0  0  0  0  0  0  0
   -4.4864   -2.0594    3.1003 H   0  0  0  0  0  0  0  0  0  0  0  0
   -6.1280   -2.8707   -0.7958 H   0  0  0  0  0  0  0  0  0  0  0  0
   -4.5680   -1.2385   -1.7964 H   0  0  0  0  0  0  0  0  0  0  0  0
  1  2  1  0
  2  3  1  0
  3  4  1  0
  4  5  1  0
  5  6  1  0
  6  7  2  0
  6  8  1  0
  8  9  1  0
  9 10  2  3
 10 11  1  0
 11 12  2  0
 12 13  1  0
 13 14  2  0
 14 15  1  0
 15 16  2  0
 15 17  1  0
 14 18  1  0
  3 19  2  0
 19 20  1  0
 20 21  2  0
 21 22  1  0
 22 23  2  0
 23 24  1  0
 24 25  2  0
 25 26  1  0
 25 27  1  0
 27 28  2  0
 21  2  1  0
 28 22  1  0
 18 11  1  0
  1 29  1  0
  1 30  1  0
  1 31  1  0
  5 32  1  0
  5 33  1  0
  8 34  1  0
 10 35  1  0
 12 36  1  0
 13 37  1  0
 23 38  1  0
 24 39  1  0
 27 40  1  0
 28 41  1  0
M  CHG  2  15   1  17  -1
M  END
$$$$
