
     RDKit          3D

 48 51  0  0  0  0  0  0  0  0999 V2000
    6.5082   -0.3513   -3.2755 C   0  0  0  0  0  0  0  0  0  0  0  0
    5.8250   -0.3259   -1.9707 C   0  0  0  0  0  0  0  0  0  0  0  0
    4.5609    0.0057   -1.5520 C   0  0  0  0  0  0  0  0  0  0  0  0
    4.5794   -0.1949   -0.1422 C   0  0  0  0  0  0  0  0  0  0  0  0
    3.5036    0.0035    0.8388 C   0  0  0  0  0  0  0  0  0  0  0  0
    3.6884    0.0104    2.0531 O   0  0  0  0  0  0  0  0  0  0  0  0
    2.2409    0.1720    0.2974 N   0  0  0  0  0  0  0  0  0  0  0  0
    1.0732    0.2487    1.1518 C   0  0  0  0  0  0  0  0  0  0  0  0
    0.6518   -1.1609    1.6334 C   0  0  0  0  0  0  0  0  0  0  0  0
   -0.8204   -1.2438    2.1333 C   0  0  0  0  0  0  0  0  0  0  0  0
   -1.0195   -0.3601    3.3816 C   0  0  0  0  0  0  0  0  0  0  0  0
   -1.1281   -2.7007    2.5294 C   0  0  0  0  0  0  0  0  0  0  0  0
   -1.8049   -0.8162    0.9989 C   0  0  0  0  0  0  0  0  0  0  0  0
   -1.3167    0.4018    0.2851 C   0  0  0  0  0  0  0  0  0  0  0  0
   -0.0237    0.8881    0.3711 C   0  0  0  0  0  0  0  0  0  0  0  0
   -0.0542    2.1002   -0.3258 C   0  0  0  0  0  0  0  0  0  0  0  0
   -1.2471    2.3470   -0.8590 N   0  0  0  0  0  0  0  0  0  0  0  0
   -2.0292    1.2783   -0.5246 N   0  0  0  0  0  0  0  0  0  0  0  0
   -3.3674    1.2221   -1.0279 C   0  0  0  0  0  0  0  0  0  0  0  0
   -3.9054    2.3713   -1.6431 C   0  0  0  0  0  0  0  0  0  0  0  0
   -5.2075    2.3693   -2.1500 C   0  0  0  0  0  0  0  0  0  0  0  0
   -5.9740    1.2177   -2.0560 C   0  0  0  0  0  0  0  0  0  0  0  0
   -7.2211    1.2097   -2.5436 F   0  0  0  0  0  0  0  0  0  0  0  0
   -5.4592    0.0679   -1.4717 C   0  0  0  0  0  0  0  0  0  0  0  0
   -4.1556    0.0656   -0.9602 C   0  0  0  0  0  0  0  0  0  0  0  0
    5.7951   -0.6181    0.2453 N   0  0  0  0  0  0  0  0  0  0  0  0
    6.5637   -0.7026   -0.8969 O   0  0  0  0  0  0  0  0  0  0  0  0
    6.7982   -1.3747   -3.5350 H   0  0  0  0  0  0  0  0  0  0  0  0
    5.8556    0.0287   -4.0687 H   0  0  0  0  0  0  0  0  0  0  0  0
    7.4109    0.2679   -3.2496 H   0  0  0  0  0  0  0  0  0  0  0  0
    3.7514    0.3559   -2.1737 H   0  0  0  0  0  0  0  0  0  0  0  0
    2.0910   -0.0502   -0.6755 H   0  0  0  0  0  0  0  0  0  0  0  0
    1.3095    0.8761    2.0200 H   0  0  0  0  0  0  0  0  0  0  0  0
    0.7763   -1.8752    0.8058 H   0  0  0  0  0  0  0  0  0  0  0  0
    1.3408   -1.4961    2.4197 H   0  0  0  0  0  0  0  0  0  0  0  0
   -0.3197   -0.6428    4.1764 H   0  0  0  0  0  0  0  0  0  0  0  0
   -2.0345   -0.4692    3.7807 H   0  0  0  0  0  0  0  0  0  0  0  0
   -0.8675    0.7028    3.1702 H   0  0  0  0  0  0  0  0  0  0  0  0
   -2.1636   -2.8065    2.8719 H   0  0  0  0  0  0  0  0  0  0  0  0
   -0.4711   -3.0378    3.3390 H   0  0  0  0  0  0  0  0  0  0  0  0
   -0.9867   -3.3811    1.6821 H   0  0  0  0  0  0  0  0  0  0  0  0
   -2.7968   -0.6452    1.4319 H   0  0  0  0  0  0  0  0  0  0  0  0
   -1.8820   -1.6305    0.2674 H   0  0  0  0  0  0  0  0  0  0  0  0
    0.7409    2.8228   -0.4622 H   0  0  0  0  0  0  0  0  0  0  0  0
   -3.3216    3.2874   -1.7254 H   0  0  0  0  0  0  0  0  0  0  0  0
   -5.6214    3.2581   -2.6152 H   0  0  0  0  0  0  0  0  0  0  0  0
   -6.0730   -0.8264   -1.4256 H   0  0  0  0  0  0  0  0  0  0  0  0
   -3.7927   -0.8688   -0.5541 H   0  0  0  0  0  0  0  0  0  0  0  0
  1  2  1  0
  2  3  2  0
  3  4  1  0
  4  5  1  0
  5  6  2  0
  5  7  1  0
  7  8  1  0
  8  9  1  0
  9 10  1  0
 10 11  1  0
 10 12  1  0
 10 13  1  0
 13 14  1  0
 14 15  2  0
 15 16  1  0
 16 17  2  0
 17 18  1  0
 18 19  1  0
 19 20  2  0
 20 21  1  0
 21 22  2  0
 22 23  1  0
 22 24  1  0
 24 25  2  0
  4 26  2  0
 26 27  1  0
 27  2  1  0
 15  8  1  0
 25 19  1  0
 18 14  1  0
  1 28  1  0
  1 29  1  0
  1 30  1  0
  3 31  1  0
  7 32  1  0
  8 33  1  0
  9 34  1  0
  9 35  1  0
 11 36  1  0
 11 37  1  0
 11 38  1  0
 12 39  1  0
 12 40  1  0
 12 41  1  0
 13 42  1  0
 13 43  1  0
 16 44  1  0
 20 45  1  0
 21 46  1  0
 24 47  1  0
 25 48  1  0
M  END
$$$$
