
     RDKit          3D

 59 64  0  0  0  0  0  0  0  0999 V2000
   -6.5835    0.8280    1.2604 C   0  0  0  0  0  0  0  0  0  0  0  0
   -5.6049    1.4981    0.4586 O   0  0  0  0  0  0  0  0  0  0  0  0
   -5.3278    0.7345   -0.6564 C   0  0  0  0  0  0  0  0  0  0  0  0
   -6.1068    0.9923   -1.7940 C   0  0  0  0  0  0  0  0  0  0  0  0
   -5.8993    0.2603   -2.9563 C   0  0  0  0  0  0  0  0  0  0  0  0
   -4.9085   -0.7132   -2.9785 C   0  0  0  0  0  0  0  0  0  0  0  0
   -4.1193   -0.9526   -1.8408 C   0  0  0  0  0  0  0  0  0  0  0  0
   -4.2905   -0.2332   -0.6458 C   0  0  0  0  0  0  0  0  0  0  0  0
   -3.4938   -0.4515    0.4994 N   0  0  0  0  0  0  0  0  0  0  0  0
   -2.8377    0.7933    0.9910 C   0  0  0  0  0  0  0  0  0  0  0  0
   -1.5525    0.5144    1.8015 C   0  0  0  0  0  0  0  0  0  0  0  0
   -0.5662   -0.3250    1.0720 N   0  0  0  0  0  0  0  0  0  0  0  0
    0.5337    0.3000    0.5445 C   0  0  0  0  0  0  0  0  0  0  0  0
    0.5935    1.4492   -0.2165 C   0  0  0  0  0  0  0  0  0  0  0  0
    1.9275    1.6325   -0.6360 C   0  0  0  0  0  0  0  0  0  0  0  0
    2.6695    0.5895   -0.1253 C   0  0  0  0  0  0  0  0  0  0  0  0
    4.0702    0.2511   -0.2504 C   0  0  0  0  0  0  0  0  0  0  0  0
    4.9582    1.0172   -1.1600 C   0  0  0  0  0  0  0  0  0  0  0  0
    6.1756    1.5033   -0.6648 C   0  0  0  0  0  0  0  0  0  0  0  0
    7.0324    2.2169   -1.5042 C   0  0  0  0  0  0  0  0  0  0  0  0
    6.6798    2.4338   -2.8402 C   0  0  0  0  0  0  0  0  0  0  0  0
    5.4777    1.9286   -3.3405 C   0  0  0  0  0  0  0  0  0  0  0  0
    4.6171    1.2144   -2.5026 C   0  0  0  0  0  0  0  0  0  0  0  0
    4.5836   -0.7221    0.4374 N   0  0  0  0  0  0  0  0  0  0  0  0
    3.7565   -1.4662    1.3005 C   0  0  0  0  0  0  0  0  0  0  0  0
    4.3541   -2.4932    2.0388 C   0  0  0  0  0  0  0  0  0  0  0  0
    3.6065   -3.2643    2.9282 C   0  0  0  0  0  0  0  0  0  0  0  0
    2.2485   -3.0055    3.0933 C   0  0  0  0  0  0  0  0  0  0  0  0
    1.6319   -1.9844    2.3634 C   0  0  0  0  0  0  0  0  0  0  0  0
    2.3796   -1.2289    1.4561 C   0  0  0  0  0  0  0  0  0  0  0  0
    1.8373   -0.1773    0.6761 N   0  0  0  0  0  0  0  0  0  0  0  0
   -1.1894   -1.3503    0.1843 C   0  0  0  0  0  0  0  0  0  0  0  0
   -2.6433   -1.6575    0.5914 C   0  0  0  0  0  0  0  0  0  0  0  0
   -7.5915    1.0638    0.8870 H   0  0  0  0  0  0  0  0  0  0  0  0
   -6.4966    1.2169    2.2805 H   0  0  0  0  0  0  0  0  0  0  0  0
   -6.4423   -0.2624    1.2983 H   0  0  0  0  0  0  0  0  0  0  0  0
   -6.8757    1.7646   -1.7623 H   0  0  0  0  0  0  0  0  0  0  0  0
   -6.5060    0.4516   -3.8393 H   0  0  0  0  0  0  0  0  0  0  0  0
   -4.7344   -1.2851   -3.8862 H   0  0  0  0  0  0  0  0  0  0  0  0
   -3.3458   -1.6982   -1.9385 H   0  0  0  0  0  0  0  0  0  0  0  0
   -3.5254    1.3361    1.6469 H   0  0  0  0  0  0  0  0  0  0  0  0
   -2.5782    1.4436    0.1484 H   0  0  0  0  0  0  0  0  0  0  0  0
   -1.8214   -0.0220    2.7204 H   0  0  0  0  0  0  0  0  0  0  0  0
   -1.1050    1.4617    2.1281 H   0  0  0  0  0  0  0  0  0  0  0  0
   -0.2483    2.0685   -0.4847 H   0  0  0  0  0  0  0  0  0  0  0  0
    2.2953    2.4346   -1.2615 H   0  0  0  0  0  0  0  0  0  0  0  0
    6.4550    1.3272    0.3736 H   0  0  0  0  0  0  0  0  0  0  0  0
    7.9764    2.5985   -1.1182 H   0  0  0  0  0  0  0  0  0  0  0  0
    7.3497    2.9882   -3.4946 H   0  0  0  0  0  0  0  0  0  0  0  0
    5.2165    2.0839   -4.3861 H   0  0  0  0  0  0  0  0  0  0  0  0
    3.6959    0.8017   -2.9062 H   0  0  0  0  0  0  0  0  0  0  0  0
    5.4163   -2.6871    1.9163 H   0  0  0  0  0  0  0  0  0  0  0  0
    4.0869   -4.0586    3.4961 H   0  0  0  0  0  0  0  0  0  0  0  0
    1.6677   -3.5940    3.7972 H   0  0  0  0  0  0  0  0  0  0  0  0
    0.5804   -1.7946    2.5391 H   0  0  0  0  0  0  0  0  0  0  0  0
   -1.1744   -1.0051   -0.8553 H   0  0  0  0  0  0  0  0  0  0  0  0
   -0.6014   -2.2707    0.2357 H   0  0  0  0  0  0  0  0  0  0  0  0
   -3.0462   -2.5011    0.0196 H   0  0  0  0  0  0  0  0  0  0  0  0
   -2.6570   -1.9945    1.6344 H   0  0  0  0  0  0  0  0  0  0  0  0
  1  2  1  0
  2  3  1  0
  3  4  2  0
  4  5  1  0
  5  6  2  0
  6  7  1  0
  7  8  2  0
  8  9  1  0
  9 10  1  0
 10 11  1  0
 11 12  1  0
 12 13  1  0
 13 14  2  0
 14 15  1  0
 15 16  2  0
 16 17  1  0
 17 18  1  0
 18 19  2  0
 19 20  1  0
 20 21  2  0
 21 22  1  0
 22 23  2  0
 17 24  2  0
 24 25  1  0
 25 26  2  0
 26 27  1  0
 27 28  2  0
 28 29  1  0
 29 30  2  0
 30 31  1  0
 12 32  1  0
 32 33  1  0
  8  3  1  0
 33  9  1  0
 31 13  1  0
 31 16  1  0
 23 18  1  0
 30 25  1  0
  1 34  1  0
  1 35  1  0
  1 36  1  0
  4 37  1  0
  5 38  1  0
  6 39  1  0
  7 40  1  0
 10 41  1  0
 10 42  1  0
 11 43  1  0
 11 44  1  0
 14 45  1  0
 15 46  1  0
 19 47  1  0
 20 48  1  0
 21 49  1  0
 22 50  1  0
 23 51  1  0
 26 52  1  0
 27 53  1  0
 28 54  1  0
 29 55  1  0
 32 56  1  0
 32 57  1  0
 33 58  1  0
 33 59  1  0
M  END
$$$$
