
     RDKit          3D

 39 40  0  0  0  0  0  0  0  0999 V2000
    6.1578   -2.5345    0.9564 C   0  0  0  0  0  0  0  0  0  0  0  0
    4.8811   -1.7559    1.0605 C   0  0  0  0  0  0  0  0  0  0  0  0
    4.3485   -1.4495    2.3180 C   0  0  0  0  0  0  0  0  0  0  0  0
    3.1534   -0.7322    2.4226 C   0  0  0  0  0  0  0  0  0  0  0  0
    2.4776   -0.3128    1.2708 C   0  0  0  0  0  0  0  0  0  0  0  0
    1.2179    0.4596    1.4316 C   0  0  0  0  0  0  0  0  0  0  0  0
    0.6185    0.5718    2.4898 O   0  0  0  0  0  0  0  0  0  0  0  0
    0.8698    1.0454    0.2594 O   0  0  0  0  0  0  0  0  0  0  0  0
   -0.3392    1.7953    0.3186 C   0  0  0  0  0  0  0  0  0  0  0  0
   -1.5980    0.9253    0.2952 C   0  0  0  0  0  0  0  0  0  0  0  0
   -1.5854   -0.2908    0.1033 O   0  0  0  0  0  0  0  0  0  0  0  0
   -2.7688    1.6399    0.4658 N   0  0  0  0  0  0  0  0  0  0  0  0
   -4.0683    0.9948    0.3749 C   0  0  0  0  0  0  0  0  0  0  0  0
   -4.7073    1.0801   -1.0226 C   0  0  0  0  0  0  0  0  0  0  0  0
   -3.8117    0.7926   -2.1315 N   0  0  0  0  0  0  0  0  0  0  0  0
   -3.2641   -0.4398   -2.3836 C   0  0  0  0  0  0  0  0  0  0  0  0
   -3.4625   -1.4632   -1.5083 O   0  0  0  0  0  0  0  0  0  0  0  0
   -2.4774   -0.5023   -3.4607 C   0  0  0  0  0  0  0  0  0  0  0  0
   -2.3590    1.0440   -4.2375 S   0  0  0  0  0  0  0  0  0  0  0  0
   -3.4129    1.7832   -3.0135 C   0  0  0  0  0  0  0  0  0  0  0  0
   -3.6793    2.9735   -2.9861 O   0  0  0  0  0  0  0  0  0  0  0  0
    2.9983   -0.6338    0.0125 C   0  0  0  0  0  0  0  0  0  0  0  0
    4.1922   -1.3521   -0.0903 C   0  0  0  0  0  0  0  0  0  0  0  0
    6.9321   -2.0763    1.5784 H   0  0  0  0  0  0  0  0  0  0  0  0
    6.5329   -2.5520   -0.0718 H   0  0  0  0  0  0  0  0  0  0  0  0
    5.9952   -3.5647    1.2849 H   0  0  0  0  0  0  0  0  0  0  0  0
    4.8621   -1.7686    3.2236 H   0  0  0  0  0  0  0  0  0  0  0  0
    2.7554   -0.5011    3.4087 H   0  0  0  0  0  0  0  0  0  0  0  0
   -0.3504    2.4555    1.1940 H   0  0  0  0  0  0  0  0  0  0  0  0
   -0.3646    2.4324   -0.5718 H   0  0  0  0  0  0  0  0  0  0  0  0
   -2.7365    2.6526    0.4967 H   0  0  0  0  0  0  0  0  0  0  0  0
   -3.9671   -0.0530    0.6793 H   0  0  0  0  0  0  0  0  0  0  0  0
   -4.7223    1.4798    1.1098 H   0  0  0  0  0  0  0  0  0  0  0  0
   -5.1048    2.0944   -1.1542 H   0  0  0  0  0  0  0  0  0  0  0  0
   -5.5651    0.3992   -1.0827 H   0  0  0  0  0  0  0  0  0  0  0  0
   -2.7790   -1.3211   -0.8117 H   0  0  0  0  0  0  0  0  0  0  0  0
   -1.9305   -1.3766   -3.7891 H   0  0  0  0  0  0  0  0  0  0  0  0
    2.4813   -0.3456   -0.8976 H   0  0  0  0  0  0  0  0  0  0  0  0
    4.5802   -1.5934   -1.0778 H   0  0  0  0  0  0  0  0  0  0  0  0
  1  2  1  0
  2  3  2  0
  3  4  1  0
  4  5  2  0
  5  6  1  0
  6  7  2  0
  6  8  1  0
  8  9  1  0
  9 10  1  0
 10 11  2  0
 10 12  1  0
 12 13  1  0
 13 14  1  0
 14 15  1  0
 15 16  1  0
 16 17  1  0
 16 18  2  0
 18 19  1  0
 19 20  1  0
 20 21  2  0
  5 22  1  0
 22 23  2  0
 23  2  1  0
 20 15  1  0
  1 24  1  0
  1 25  1  0
  1 26  1  0
  3 27  1  0
  4 28  1  0
  9 29  1  0
  9 30  1  0
 12 31  1  0
 13 32  1  0
 13 33  1  0
 14 34  1  0
 14 35  1  0
 17 36  1  0
 18 37  1  0
 22 38  1  0
 23 39  1  0
M  END
$$$$
