
     RDKit          3D

 33 34  0  0  0  0  0  0  0  0999 V2000
   -2.8140   -0.4037   -1.8594 N   0  0  0  0  0  0  0  0  0  0  0  0
   -2.5081   -0.4265   -0.5942 C   0  0  0  0  0  0  0  0  0  0  0  0
   -1.2782   -0.8820   -0.1773 N   0  0  0  0  0  0  0  0  0  0  0  0
   -0.2728   -0.7362   -1.1525 O   0  0  0  0  0  0  0  0  0  0  0  0
    0.9646   -0.5295   -0.5860 C   0  0  0  0  0  0  0  0  0  0  0  0
    1.1519   -0.4622    0.6223 O   0  0  0  0  0  0  0  0  0  0  0  0
    1.9946   -0.4006   -1.6842 C   0  0  0  0  0  0  0  0  0  0  0  0
    3.3988   -0.1585   -1.1868 C   0  0  0  0  0  0  0  0  0  0  0  0
    3.8608    1.1472   -0.9692 C   0  0  0  0  0  0  0  0  0  0  0  0
    5.1560    1.3695   -0.4990 C   0  0  0  0  0  0  0  0  0  0  0  0
    5.9989    0.2912   -0.2371 C   0  0  0  0  0  0  0  0  0  0  0  0
    5.5468   -1.0108   -0.4416 C   0  0  0  0  0  0  0  0  0  0  0  0
    4.2520   -1.2365   -0.9116 C   0  0  0  0  0  0  0  0  0  0  0  0
   -3.5519    0.0070    0.3927 C   0  0  0  0  0  0  0  0  0  0  0  0
   -4.8958   -0.1518    0.0066 C   0  0  0  0  0  0  0  0  0  0  0  0
   -5.9389    0.2040    0.8642 C   0  0  0  0  0  0  0  0  0  0  0  0
   -5.6545    0.7288    2.1202 C   0  0  0  0  0  0  0  0  0  0  0  0
   -4.3277    0.9037    2.5134 C   0  0  0  0  0  0  0  0  0  0  0  0
   -3.2760    0.5491    1.6560 C   0  0  0  0  0  0  0  0  0  0  0  0
   -1.6783    0.8659    2.2326 Cl  0  0  0  0  0  0  0  0  0  0  0  0
   -1.9946   -0.7602   -2.3639 H   0  0  0  0  0  0  0  0  0  0  0  0
   -0.9652   -0.6012    0.7588 H   0  0  0  0  0  0  0  0  0  0  0  0
    1.6983    0.4262   -2.3410 H   0  0  0  0  0  0  0  0  0  0  0  0
    1.9774   -1.3189   -2.2836 H   0  0  0  0  0  0  0  0  0  0  0  0
    3.2152    2.0019   -1.1591 H   0  0  0  0  0  0  0  0  0  0  0  0
    5.5060    2.3848   -0.3314 H   0  0  0  0  0  0  0  0  0  0  0  0
    7.0058    0.4655    0.1327 H   0  0  0  0  0  0  0  0  0  0  0  0
    6.2016   -1.8519   -0.2293 H   0  0  0  0  0  0  0  0  0  0  0  0
    3.9150   -2.2605   -1.0563 H   0  0  0  0  0  0  0  0  0  0  0  0
   -5.1358   -0.5623   -0.9734 H   0  0  0  0  0  0  0  0  0  0  0  0
   -6.9704    0.0710    0.5464 H   0  0  0  0  0  0  0  0  0  0  0  0
   -6.4637    1.0092    2.7902 H   0  0  0  0  0  0  0  0  0  0  0  0
   -4.1180    1.3281    3.4931 H   0  0  0  0  0  0  0  0  0  0  0  0
  1  2  2  3
  2  3  1  0
  3  4  1  0
  4  5  1  0
  5  6  2  0
  5  7  1  0
  7  8  1  0
  8  9  2  0
  9 10  1  0
 10 11  2  0
 11 12  1  0
 12 13  2  0
  2 14  1  0
 14 15  2  0
 15 16  1  0
 16 17  2  0
 17 18  1  0
 18 19  2  0
 19 20  1  0
 13  8  1  0
 19 14  1  0
  1 21  1  0
  3 22  1  0
  7 23  1  0
  7 24  1  0
  9 25  1  0
 10 26  1  0
 11 27  1  0
 12 28  1  0
 13 29  1  0
 15 30  1  0
 16 31  1  0
 17 32  1  0
 18 33  1  0
M  END
$$$$
