
     RDKit          3D

 57 59  0  0  0  0  0  0  0  0999 V2000
   11.3726    0.5686    0.9073 C   0  0  0  0  0  0  0  0  0  0  0  0
   10.2557   -0.3123    0.8687 O   0  0  0  0  0  0  0  0  0  0  0  0
    9.0868    0.1973    0.3750 C   0  0  0  0  0  0  0  0  0  0  0  0
    7.9965   -0.6750    0.4342 C   0  0  0  0  0  0  0  0  0  0  0  0
    6.7348   -0.2835   -0.0295 C   0  0  0  0  0  0  0  0  0  0  0  0
    6.5527    0.9925   -0.5587 C   0  0  0  0  0  0  0  0  0  0  0  0
    5.3856    1.5059   -1.0508 O   0  0  0  0  0  0  0  0  0  0  0  0
    4.1630    0.8243   -0.7451 C   0  0  0  0  0  0  0  0  0  0  0  0
    3.8026   -0.1475   -1.8683 C   0  0  0  0  0  0  0  0  0  0  0  0
    2.4432   -1.2672   -1.4066 S   0  0  0  0  0  0  0  0  0  0  0  0
    1.0783   -0.2113   -1.4992 C   0  0  0  0  0  0  0  0  0  0  0  0
    1.0823    1.0413   -1.8881 N   0  0  0  0  0  0  0  0  0  0  0  0
   -0.2046    1.5112   -1.7983 N   0  0  0  0  0  0  0  0  0  0  0  0
   -0.9714    0.5312   -1.3620 C   0  0  0  0  0  0  0  0  0  0  0  0
   -2.4353    0.6226   -1.1146 C   0  0  0  0  0  0  0  0  0  0  0  0
   -2.7231    0.9673    0.3472 C   0  0  0  0  0  0  0  0  0  0  0  0
   -4.1345    0.8751    0.6710 N   0  0  0  0  0  0  0  0  0  0  0  0
   -4.7418   -0.3508    0.8491 C   0  0  0  0  0  0  0  0  0  0  0  0
   -4.1382   -1.4137    0.7435 O   0  0  0  0  0  0  0  0  0  0  0  0
   -6.2027   -0.3366    1.1346 C   0  0  0  0  0  0  0  0  0  0  0  0
   -6.9647   -1.4495    0.7589 C   0  0  0  0  0  0  0  0  0  0  0  0
   -8.3432   -1.4816    1.0013 C   0  0  0  0  0  0  0  0  0  0  0  0
   -8.9682   -0.4045    1.6303 C   0  0  0  0  0  0  0  0  0  0  0  0
  -10.3000   -0.3060    1.9227 O   0  0  0  0  0  0  0  0  0  0  0  0
  -11.1158   -1.4217    1.5873 C   0  0  0  0  0  0  0  0  0  0  0  0
   -8.2025    0.6984    2.0203 C   0  0  0  0  0  0  0  0  0  0  0  0
   -6.8254    0.7357    1.7807 C   0  0  0  0  0  0  0  0  0  0  0  0
   -0.1934   -0.5857   -1.1580 N   0  0  0  0  0  0  0  0  0  0  0  0
   -0.6127   -1.8761   -0.6725 C   0  0  0  0  0  0  0  0  0  0  0  0
    7.6473    1.8577   -0.6346 C   0  0  0  0  0  0  0  0  0  0  0  0
    8.9082    1.4678   -0.1675 C   0  0  0  0  0  0  0  0  0  0  0  0
   11.1625    1.4469    1.5277 H   0  0  0  0  0  0  0  0  0  0  0  0
   12.2070    0.0292    1.3662 H   0  0  0  0  0  0  0  0  0  0  0  0
   11.6795    0.8592   -0.1029 H   0  0  0  0  0  0  0  0  0  0  0  0
    8.1306   -1.6723    0.8467 H   0  0  0  0  0  0  0  0  0  0  0  0
    5.9279   -1.0051    0.0300 H   0  0  0  0  0  0  0  0  0  0  0  0
    3.3956    1.6031   -0.6710 H   0  0  0  0  0  0  0  0  0  0  0  0
    4.2020    0.3493    0.2430 H   0  0  0  0  0  0  0  0  0  0  0  0
    3.5628    0.3983   -2.7883 H   0  0  0  0  0  0  0  0  0  0  0  0
    4.6668   -0.7732   -2.1161 H   0  0  0  0  0  0  0  0  0  0  0  0
   -2.8625    1.4024   -1.7578 H   0  0  0  0  0  0  0  0  0  0  0  0
   -2.9319   -0.3064   -1.4142 H   0  0  0  0  0  0  0  0  0  0  0  0
   -2.1781    0.2958    1.0215 H   0  0  0  0  0  0  0  0  0  0  0  0
   -2.4032    1.9907    0.5716 H   0  0  0  0  0  0  0  0  0  0  0  0
   -4.6951    1.7148    0.6013 H   0  0  0  0  0  0  0  0  0  0  0  0
   -6.4866   -2.2976    0.2713 H   0  0  0  0  0  0  0  0  0  0  0  0
   -8.8955   -2.3609    0.6864 H   0  0  0  0  0  0  0  0  0  0  0  0
  -10.7997   -2.3187    2.1291 H   0  0  0  0  0  0  0  0  0  0  0  0
  -12.1400   -1.1910    1.8945 H   0  0  0  0  0  0  0  0  0  0  0  0
  -11.1233   -1.5939    0.5056 H   0  0  0  0  0  0  0  0  0  0  0  0
   -8.6848    1.5330    2.5246 H   0  0  0  0  0  0  0  0  0  0  0  0
   -6.2583    1.5940    2.1301 H   0  0  0  0  0  0  0  0  0  0  0  0
   -1.6924   -1.9008   -0.5236 H   0  0  0  0  0  0  0  0  0  0  0  0
   -0.1136   -2.0682    0.2814 H   0  0  0  0  0  0  0  0  0  0  0  0
   -0.3402   -2.6341   -1.4116 H   0  0  0  0  0  0  0  0  0  0  0  0
    7.5161    2.8516   -1.0571 H   0  0  0  0  0  0  0  0  0  0  0  0
    9.7227    2.1797   -0.2459 H   0  0  0  0  0  0  0  0  0  0  0  0
  1  2  1  0
  2  3  1  0
  3  4  2  0
  4  5  1  0
  5  6  2  0
  6  7  1  0
  7  8  1  0
  8  9  1  0
  9 10  1  0
 10 11  1  0
 11 12  2  0
 12 13  1  0
 13 14  2  0
 14 15  1  0
 15 16  1  0
 16 17  1  0
 17 18  1  0
 18 19  2  0
 18 20  1  0
 20 21  2  0
 21 22  1  0
 22 23  2  0
 23 24  1  0
 24 25  1  0
 23 26  1  0
 26 27  2  0
 14 28  1  0
 28 29  1  0
  6 30  1  0
 30 31  2  0
 31  3  1  0
 28 11  1  0
 27 20  1  0
  1 32  1  0
  1 33  1  0
  1 34  1  0
  4 35  1  0
  5 36  1  0
  8 37  1  0
  8 38  1  0
  9 39  1  0
  9 40  1  0
 15 41  1  0
 15 42  1  0
 16 43  1  0
 16 44  1  0
 17 45  1  0
 21 46  1  0
 22 47  1  0
 25 48  1  0
 25 49  1  0
 25 50  1  0
 26 51  1  0
 27 52  1  0
 29 53  1  0
 29 54  1  0
 29 55  1  0
 30 56  1  0
 31 57  1  0
M  END
$$$$
