
     RDKit          3D

 32 34  0  0  0  0  0  0  0  0999 V2000
   -0.4009    0.1426    2.5785 O   0  0  0  0  0  0  0  0  0  0  0  0
   -0.7965    0.8056    1.6251 C   0  0  0  0  0  0  0  0  0  0  0  0
   -2.1902    1.4412    1.6467 C   0  0  0  0  0  0  0  0  0  0  0  0
   -2.7839    1.5757    0.3625 O   0  0  0  0  0  0  0  0  0  0  0  0
   -3.3606    0.4723   -0.2073 C   0  0  0  0  0  0  0  0  0  0  0  0
   -3.3748   -0.8166    0.3300 C   0  0  0  0  0  0  0  0  0  0  0  0
   -3.9947   -1.8605   -0.3691 C   0  0  0  0  0  0  0  0  0  0  0  0
   -4.5978   -1.6180   -1.6034 C   0  0  0  0  0  0  0  0  0  0  0  0
   -5.4302   -3.0350   -2.5357 Br  0  0  0  0  0  0  0  0  0  0  0  0
   -4.5881   -0.3414   -2.1518 C   0  0  0  0  0  0  0  0  0  0  0  0
   -3.9697    0.6888   -1.4502 C   0  0  0  0  0  0  0  0  0  0  0  0
   -3.9591    1.9161   -1.9928 F   0  0  0  0  0  0  0  0  0  0  0  0
   -0.1072    1.1032    0.4714 N   0  0  0  0  0  0  0  0  0  0  0  0
    1.1596    0.7039    0.1338 C   0  0  0  0  0  0  0  0  0  0  0  0
    1.7035    1.0080   -1.0248 N   0  0  0  0  0  0  0  0  0  0  0  0
    2.9846    0.5036   -1.1467 N   0  0  0  0  0  0  0  0  0  0  0  0
    3.3468   -0.1495   -0.0655 C   0  0  0  0  0  0  0  0  0  0  0  0
    4.7432   -0.8306    0.0676 C   0  0  0  0  0  0  0  0  0  0  0  0
    5.9617   -0.1191   -0.4637 C   0  0  0  0  0  0  0  0  0  0  0  0
    5.7605   -0.2509    1.0175 C   0  0  0  0  0  0  0  0  0  0  0  0
    2.1624   -0.2129    1.1632 S   0  0  0  0  0  0  0  0  0  0  0  0
   -2.8473    0.9060    2.3415 H   0  0  0  0  0  0  0  0  0  0  0  0
   -2.0660    2.4527    2.0508 H   0  0  0  0  0  0  0  0  0  0  0  0
   -2.9152   -1.0567    1.2841 H   0  0  0  0  0  0  0  0  0  0  0  0
   -3.9989   -2.8606    0.0597 H   0  0  0  0  0  0  0  0  0  0  0  0
   -5.0479   -0.1302   -3.1115 H   0  0  0  0  0  0  0  0  0  0  0  0
   -0.5849    1.6264   -0.2544 H   0  0  0  0  0  0  0  0  0  0  0  0
    4.7182   -1.9092   -0.0443 H   0  0  0  0  0  0  0  0  0  0  0  0
    6.7328   -0.7201   -0.9314 H   0  0  0  0  0  0  0  0  0  0  0  0
    5.8342    0.8607   -0.9114 H   0  0  0  0  0  0  0  0  0  0  0  0
    6.3978   -0.9410    1.5582 H   0  0  0  0  0  0  0  0  0  0  0  0
    5.5085    0.6458    1.5726 H   0  0  0  0  0  0  0  0  0  0  0  0
  1  2  2  0
  2  3  1  0
  3  4  1  0
  4  5  1  0
  5  6  2  0
  6  7  1  0
  7  8  2  0
  8  9  1  0
  8 10  1  0
 10 11  2  0
 11 12  1  0
  2 13  1  0
 13 14  1  0
 14 15  2  0
 15 16  1  0
 16 17  2  0
 17 18  1  0
 18 19  1  0
 19 20  1  0
 17 21  1  0
 11  5  1  0
 21 14  1  0
 20 18  1  0
  3 22  1  0
  3 23  1  0
  6 24  1  0
  7 25  1  0
 10 26  1  0
 13 27  1  0
 18 28  1  0
 19 29  1  0
 19 30  1  0
 20 31  1  0
 20 32  1  0
M  END
$$$$
