
     RDKit          3D

 35 37  0  0  0  0  0  0  0  0999 V2000
    6.4327   -0.9298    1.6548 C   0  0  0  0  0  0  0  0  0  0  0  0
    5.1089   -0.3960    1.1891 C   0  0  0  0  0  0  0  0  0  0  0  0
    4.9912    0.9406    0.7780 C   0  0  0  0  0  0  0  0  0  0  0  0
    3.7799    1.4644    0.3074 C   0  0  0  0  0  0  0  0  0  0  0  0
    2.6968    0.5866    0.2593 C   0  0  0  0  0  0  0  0  0  0  0  0
    1.3949    0.7439   -0.1410 N   0  0  0  0  0  0  0  0  0  0  0  0
    0.7344   -0.4561    0.0232 C   0  0  0  0  0  0  0  0  0  0  0  0
   -0.6375   -0.5702   -0.3443 C   0  0  0  0  0  0  0  0  0  0  0  0
   -1.0489   -1.7392   -1.0596 C   0  0  0  0  0  0  0  0  0  0  0  0
   -1.4160   -2.6432   -1.6900 N   0  0  0  0  0  0  0  0  0  0  0  0
   -1.5100    0.3904    0.0316 C   0  0  0  0  0  0  0  0  0  0  0  0
   -2.9587    0.4327   -0.2377 C   0  0  0  0  0  0  0  0  0  0  0  0
   -3.8262    0.7273    0.8283 C   0  0  0  0  0  0  0  0  0  0  0  0
   -5.2048    0.8216    0.6219 C   0  0  0  0  0  0  0  0  0  0  0  0
   -5.7123    0.6242   -0.6518 C   0  0  0  0  0  0  0  0  0  0  0  0
   -7.0590    0.7133   -0.8541 O   0  0  0  0  0  0  0  0  0  0  0  0
   -4.8653    0.3366   -1.7176 C   0  0  0  0  0  0  0  0  0  0  0  0
   -5.4346    0.1438   -2.9465 O   0  0  0  0  0  0  0  0  0  0  0  0
   -3.4892    0.2536   -1.5248 C   0  0  0  0  0  0  0  0  0  0  0  0
    1.5662   -1.3723    0.4793 N   0  0  0  0  0  0  0  0  0  0  0  0
    2.7765   -0.7447    0.6425 C   0  0  0  0  0  0  0  0  0  0  0  0
    3.9971   -1.2533    1.1094 C   0  0  0  0  0  0  0  0  0  0  0  0
    6.2947   -1.7443    2.3737 H   0  0  0  0  0  0  0  0  0  0  0  0
    7.0132   -0.1488    2.1571 H   0  0  0  0  0  0  0  0  0  0  0  0
    7.0058   -1.3042    0.8012 H   0  0  0  0  0  0  0  0  0  0  0  0
    5.8603    1.5959    0.8222 H   0  0  0  0  0  0  0  0  0  0  0  0
    3.7004    2.4999   -0.0049 H   0  0  0  0  0  0  0  0  0  0  0  0
    0.9979    1.5951   -0.5103 H   0  0  0  0  0  0  0  0  0  0  0  0
   -1.1707    1.2239    0.6459 H   0  0  0  0  0  0  0  0  0  0  0  0
   -3.4391    0.8787    1.8342 H   0  0  0  0  0  0  0  0  0  0  0  0
   -5.8749    1.0428    1.4472 H   0  0  0  0  0  0  0  0  0  0  0  0
   -7.1770    0.5297   -1.8076 H   0  0  0  0  0  0  0  0  0  0  0  0
   -4.7523   -0.2052   -3.5466 H   0  0  0  0  0  0  0  0  0  0  0  0
   -2.8374    0.0566   -2.3703 H   0  0  0  0  0  0  0  0  0  0  0  0
    4.0630   -2.2963    1.4009 H   0  0  0  0  0  0  0  0  0  0  0  0
  1  2  1  0
  2  3  2  0
  3  4  1  0
  4  5  2  0
  5  6  1  0
  6  7  1  0
  7  8  1  0
  8  9  1  0
  9 10  3  0
  8 11  2  3
 11 12  1  0
 12 13  2  0
 13 14  1  0
 14 15  2  0
 15 16  1  0
 15 17  1  0
 17 18  1  0
 17 19  2  0
  7 20  2  0
 20 21  1  0
 21 22  2  0
 22  2  1  0
 21  5  1  0
 19 12  1  0
  1 23  1  0
  1 24  1  0
  1 25  1  0
  3 26  1  0
  4 27  1  0
  6 28  1  0
 11 29  1  0
 13 30  1  0
 14 31  1  0
 16 32  1  0
 18 33  1  0
 19 34  1  0
 22 35  1  0
M  END
$$$$
