
     RDKit          3D

 33 35  0  0  0  0  0  0  0  0999 V2000
   -0.0697    1.9875   -1.3679 O   0  0  0  0  0  0  0  0  0  0  0  0
   -0.0339    1.0142   -0.6168 C   0  0  0  0  0  0  0  0  0  0  0  0
   -1.3016    0.4033   -0.0837 C   0  0  0  0  0  0  0  0  0  0  0  0
   -2.4379    0.8615   -0.6477 C   0  0  0  0  0  0  0  0  0  0  0  0
   -3.7542    0.4624   -0.2849 C   0  0  0  0  0  0  0  0  0  0  0  0
   -4.3305    0.2074    0.9562 C   0  0  0  0  0  0  0  0  0  0  0  0
   -5.6903   -0.1265    0.7505 C   0  0  0  0  0  0  0  0  0  0  0  0
   -5.8930   -0.0429   -0.6019 C   0  0  0  0  0  0  0  0  0  0  0  0
   -4.7490    0.3196   -1.2285 O   0  0  0  0  0  0  0  0  0  0  0  0
   -1.2064   -0.6617    0.9691 C   0  0  0  0  0  0  0  0  0  0  0  0
    0.0372   -1.5193    0.8080 C   0  0  0  0  0  0  0  0  0  0  0  0
    1.2816   -0.6498    0.8661 C   0  0  0  0  0  0  0  0  0  0  0  0
    1.2793    0.4157   -0.1906 C   0  0  0  0  0  0  0  0  0  0  0  0
    2.3607    0.8845   -0.8463 C   0  0  0  0  0  0  0  0  0  0  0  0
    3.7062    0.4980   -0.5937 C   0  0  0  0  0  0  0  0  0  0  0  0
    4.3854    0.2490    0.5954 C   0  0  0  0  0  0  0  0  0  0  0  0
    5.7268   -0.0720    0.2779 C   0  0  0  0  0  0  0  0  0  0  0  0
    5.8161    0.0130   -1.0866 C   0  0  0  0  0  0  0  0  0  0  0  0
    4.6209    0.3643   -1.6164 O   0  0  0  0  0  0  0  0  0  0  0  0
   -2.3938    1.5818   -1.4633 H   0  0  0  0  0  0  0  0  0  0  0  0
   -3.8242    0.2709    1.9092 H   0  0  0  0  0  0  0  0  0  0  0  0
   -6.4304   -0.3818    1.4953 H   0  0  0  0  0  0  0  0  0  0  0  0
   -6.7495   -0.1940   -1.2439 H   0  0  0  0  0  0  0  0  0  0  0  0
   -1.2010   -0.1861    1.9577 H   0  0  0  0  0  0  0  0  0  0  0  0
   -2.0688   -1.3357    0.9358 H   0  0  0  0  0  0  0  0  0  0  0  0
    0.0739   -2.2661    1.6098 H   0  0  0  0  0  0  0  0  0  0  0  0
    0.0005   -2.0697   -0.1411 H   0  0  0  0  0  0  0  0  0  0  0  0
    1.3534   -0.1739    1.8520 H   0  0  0  0  0  0  0  0  0  0  0  0
    2.1446   -1.3156    0.7614 H   0  0  0  0  0  0  0  0  0  0  0  0
    2.2424    1.6040   -1.6553 H   0  0  0  0  0  0  0  0  0  0  0  0
    3.9591    0.3080    1.5870 H   0  0  0  0  0  0  0  0  0  0  0  0
    6.5283   -0.3200    0.9589 H   0  0  0  0  0  0  0  0  0  0  0  0
    6.6180   -0.1302   -1.7973 H   0  0  0  0  0  0  0  0  0  0  0  0
  1  2  2  0
  2  3  1  0
  3  4  2  3
  4  5  1  0
  5  6  2  0
  6  7  1  0
  7  8  2  0
  8  9  1  0
  3 10  1  0
 10 11  1  0
 11 12  1  0
 12 13  1  0
 13 14  2  3
 14 15  1  0
 15 16  2  0
 16 17  1  0
 17 18  2  0
 18 19  1  0
 13  2  1  0
 19 15  1  0
  9  5  1  0
  4 20  1  0
  6 21  1  0
  7 22  1  0
  8 23  1  0
 10 24  1  0
 10 25  1  0
 11 26  1  0
 11 27  1  0
 12 28  1  0
 12 29  1  0
 14 30  1  0
 16 31  1  0
 17 32  1  0
 18 33  1  0
M  END
$$$$
