
     RDKit          3D

 36 36  0  0  0  0  0  0  0  0999 V2000
   -0.1516   -6.1313    2.3589 C   0  0  0  0  0  0  0  0  0  0  0  0
    0.6546   -4.9781    2.9290 C   0  0  0  0  0  0  0  0  0  0  0  0
    0.4812   -3.7904    2.1591 O   0  0  0  0  0  0  0  0  0  0  0  0
    1.2899   -3.7497    0.9877 C   0  0  0  0  0  0  0  0  0  0  0  0
    1.0246   -2.4519    0.2320 C   0  0  0  0  0  0  0  0  0  0  0  0
    1.3011   -1.2207    1.0918 C   0  0  0  0  0  0  0  0  0  0  0  0
    1.2667    0.0016    0.3036 N   0  0  0  0  0  0  0  0  0  0  0  0
    0.0805    0.6337   -0.0022 C   0  0  0  0  0  0  0  0  0  0  0  0
   -1.0075    0.2112    0.3794 O   0  0  0  0  0  0  0  0  0  0  0  0
    0.1837    1.8759   -0.8414 C   0  0  0  0  0  0  0  0  0  0  0  0
    1.4504    2.2773   -1.3357 C   0  0  0  0  0  0  0  0  0  0  0  0
    2.5029    2.5695   -1.7284 N   0  0  0  0  0  0  0  0  0  0  0  0
   -0.9627    2.5504   -1.0543 C   0  0  0  0  0  0  0  0  0  0  0  0
   -1.1176    3.7508   -1.8088 C   0  0  0  0  0  0  0  0  0  0  0  0
   -0.3780    4.3219   -2.8461 C   0  0  0  0  0  0  0  0  0  0  0  0
   -1.0078    5.5327   -3.2369 C   0  0  0  0  0  0  0  0  0  0  0  0
   -2.1082    5.6345   -2.4297 C   0  0  0  0  0  0  0  0  0  0  0  0
   -3.1381    6.6203   -2.3423 N   0  0  0  0  0  4  0  0  0  0  0  0
   -4.0283    6.4562   -1.4989 O   0  0  0  0  0  0  0  0  0  0  0  0
   -3.0517    7.5719   -3.1307 O   0  0  0  0  0  1  0  0  0  0  0  0
   -2.1992    4.5832   -1.5801 O   0  0  0  0  0  0  0  0  0  0  0  0
   -0.1022   -7.0003    3.0215 H   0  0  0  0  0  0  0  0  0  0  0  0
   -1.1999   -5.8427    2.2309 H   0  0  0  0  0  0  0  0  0  0  0  0
    0.2215   -6.4307    1.3751 H   0  0  0  0  0  0  0  0  0  0  0  0
    0.2910   -4.7581    3.9382 H   0  0  0  0  0  0  0  0  0  0  0  0
    1.7165   -5.2353    3.0126 H   0  0  0  0  0  0  0  0  0  0  0  0
    1.0543   -4.5969    0.3357 H   0  0  0  0  0  0  0  0  0  0  0  0
    2.3472   -3.8087    1.2706 H   0  0  0  0  0  0  0  0  0  0  0  0
    1.6467   -2.4287   -0.6708 H   0  0  0  0  0  0  0  0  0  0  0  0
   -0.0213   -2.4285   -0.0976 H   0  0  0  0  0  0  0  0  0  0  0  0
    2.3003   -1.2784    1.5365 H   0  0  0  0  0  0  0  0  0  0  0  0
    0.5700   -1.1393    1.9037 H   0  0  0  0  0  0  0  0  0  0  0  0
    2.1562    0.3450   -0.0376 H   0  0  0  0  0  0  0  0  0  0  0  0
   -1.8823    2.1912   -0.5916 H   0  0  0  0  0  0  0  0  0  0  0  0
    0.5185    3.9155   -3.2963 H   0  0  0  0  0  0  0  0  0  0  0  0
   -0.7014    6.2268   -4.0078 H   0  0  0  0  0  0  0  0  0  0  0  0
  1  2  1  0
  2  3  1  0
  3  4  1  0
  4  5  1  0
  5  6  1  0
  6  7  1  0
  7  8  1  0
  8  9  2  0
  8 10  1  0
 10 11  1  0
 11 12  3  0
 10 13  2  3
 13 14  1  0
 14 15  2  0
 15 16  1  0
 16 17  2  0
 17 18  1  0
 18 19  2  0
 18 20  1  0
 17 21  1  0
 21 14  1  0
  1 22  1  0
  1 23  1  0
  1 24  1  0
  2 25  1  0
  2 26  1  0
  4 27  1  0
  4 28  1  0
  5 29  1  0
  5 30  1  0
  6 31  1  0
  6 32  1  0
  7 33  1  0
 13 34  1  0
 15 35  1  0
 16 36  1  0
M  CHG  2  18   1  20  -1
M  END
$$$$
