
     RDKit          3D

 34 35  0  0  0  0  0  0  0  0999 V2000
    4.7179    0.7842    1.8694 C   0  0  0  0  0  0  0  0  0  0  0  0
    3.6792   -0.1865    1.8349 O   0  0  0  0  0  0  0  0  0  0  0  0
    3.0451   -0.3713    0.6377 C   0  0  0  0  0  0  0  0  0  0  0  0
    2.0875   -1.3888    0.6355 C   0  0  0  0  0  0  0  0  0  0  0  0
    1.3641   -1.6812   -0.5230 C   0  0  0  0  0  0  0  0  0  0  0  0
    1.5769   -0.9443   -1.6890 C   0  0  0  0  0  0  0  0  0  0  0  0
    0.8548   -1.2265   -2.8528 N   0  0  0  0  0  0  0  0  0  0  0  0
   -0.3492   -0.7556   -2.9931 C   0  0  0  0  0  0  0  0  0  0  0  0
   -1.1021    0.1380   -2.0404 C   0  0  0  0  0  0  0  0  0  0  0  0
   -2.2286   -0.5860   -1.3426 C   0  0  0  0  0  0  0  0  0  0  0  0
   -2.7077   -1.6265   -1.7896 O   0  0  0  0  0  0  0  0  0  0  0  0
   -2.7947   -0.0067   -0.0873 C   0  0  0  0  0  0  0  0  0  0  0  0
   -3.6474   -0.8069    0.6882 C   0  0  0  0  0  0  0  0  0  0  0  0
   -4.2033   -0.3119    1.8712 C   0  0  0  0  0  0  0  0  0  0  0  0
   -3.9113    0.9865    2.2806 C   0  0  0  0  0  0  0  0  0  0  0  0
   -4.5936    1.5999    3.7350 Cl  0  0  0  0  0  0  0  0  0  0  0  0
   -3.0711    1.7940    1.5154 C   0  0  0  0  0  0  0  0  0  0  0  0
   -2.5135    1.3007    0.3302 C   0  0  0  0  0  0  0  0  0  0  0  0
    2.5472    0.0589   -1.6927 C   0  0  0  0  0  0  0  0  0  0  0  0
    3.2762    0.3507   -0.5338 C   0  0  0  0  0  0  0  0  0  0  0  0
    5.1392    0.7872    2.8793 H   0  0  0  0  0  0  0  0  0  0  0  0
    4.3263    1.7869    1.6691 H   0  0  0  0  0  0  0  0  0  0  0  0
    5.5232    0.5272    1.1732 H   0  0  0  0  0  0  0  0  0  0  0  0
    1.9110   -1.9661    1.5397 H   0  0  0  0  0  0  0  0  0  0  0  0
    0.6354   -2.4875   -0.5183 H   0  0  0  0  0  0  0  0  0  0  0  0
   -0.8935   -1.0475   -3.9085 H   0  0  0  0  0  0  0  0  0  0  0  0
   -0.4207    0.5713   -1.3065 H   0  0  0  0  0  0  0  0  0  0  0  0
   -1.5388    0.9487   -2.6337 H   0  0  0  0  0  0  0  0  0  0  0  0
   -3.8825   -1.8235    0.3755 H   0  0  0  0  0  0  0  0  0  0  0  0
   -4.8604   -0.9439    2.4633 H   0  0  0  0  0  0  0  0  0  0  0  0
   -2.8479    2.8093    1.8349 H   0  0  0  0  0  0  0  0  0  0  0  0
   -1.8734    1.9616   -0.2470 H   0  0  0  0  0  0  0  0  0  0  0  0
    2.7386    0.6139   -2.6071 H   0  0  0  0  0  0  0  0  0  0  0  0
    4.0170    1.1412   -0.5842 H   0  0  0  0  0  0  0  0  0  0  0  0
  1  2  1  0
  2  3  1  0
  3  4  2  0
  4  5  1  0
  5  6  2  0
  6  7  1  0
  7  8  2  3
  8  9  1  0
  9 10  1  0
 10 11  2  0
 10 12  1  0
 12 13  2  0
 13 14  1  0
 14 15  2  0
 15 16  1  0
 15 17  1  0
 17 18  2  0
  6 19  1  0
 19 20  2  0
 20  3  1  0
 18 12  1  0
  1 21  1  0
  1 22  1  0
  1 23  1  0
  4 24  1  0
  5 25  1  0
  8 26  1  0
  9 27  1  0
  9 28  1  0
 13 29  1  0
 14 30  1  0
 17 31  1  0
 18 32  1  0
 19 33  1  0
 20 34  1  0
M  END
$$$$
