
     RDKit          3D

 52 55  0  0  0  0  0  0  0  0999 V2000
   -5.8857    3.7761    1.4823 C   0  0  0  0  0  0  0  0  0  0  0  0
   -4.9602    3.3560    0.3544 C   0  0  0  0  0  0  0  0  0  0  0  0
   -4.1628    2.1047    0.7101 C   0  0  0  0  0  0  0  0  0  0  0  0
   -3.3269    1.7882   -0.4033 O   0  0  0  0  0  0  0  0  0  0  0  0
   -2.5279    0.6849   -0.2913 C   0  0  0  0  0  0  0  0  0  0  0  0
   -2.4362   -0.1544    0.8186 C   0  0  0  0  0  0  0  0  0  0  0  0
   -1.5697   -1.2534    0.8003 C   0  0  0  0  0  0  0  0  0  0  0  0
   -0.7922   -1.5252   -0.3319 C   0  0  0  0  0  0  0  0  0  0  0  0
    0.1434   -2.6424   -0.3335 C   0  0  0  0  0  0  0  0  0  0  0  0
    1.5313   -2.6662   -0.2068 C   0  0  0  0  0  0  0  0  0  0  0  0
    2.5088   -1.5855   -0.0162 C   0  0  0  0  0  0  0  0  0  0  0  0
    3.7066   -1.7891   -0.2030 O   0  0  0  0  0  0  0  0  0  0  0  0
    1.9826   -0.3642    0.4060 N   0  0  0  0  0  0  0  0  0  0  0  0
    2.7075    0.7439    0.7762 N   0  0  0  0  0  0  0  0  0  0  0  0
    3.8169    0.9948    0.1548 C   0  0  0  0  0  0  0  0  0  0  0  0
    4.6708    2.1422    0.5276 C   0  0  0  0  0  0  0  0  0  0  0  0
    4.2901    3.0241    1.5440 C   0  0  0  0  0  0  0  0  0  0  0  0
    5.1154    4.1005    1.8728 C   0  0  0  0  0  0  0  0  0  0  0  0
    6.3170    4.2934    1.1895 C   0  0  0  0  0  0  0  0  0  0  0  0
    6.6972    3.4116    0.1766 C   0  0  0  0  0  0  0  0  0  0  0  0
    5.8748    2.3340   -0.1571 C   0  0  0  0  0  0  0  0  0  0  0  0
    1.9607   -3.9654   -0.3098 N   0  0  0  0  0  0  0  0  0  0  0  0
    0.9134   -4.7483   -0.4797 N   0  0  0  0  0  0  0  0  0  0  0  0
   -0.2115   -3.9846   -0.5302 N   0  0  0  0  0  0  0  0  0  0  0  0
   -1.4821   -4.5672   -0.7742 C   0  0  0  0  0  0  0  0  0  0  0  0
   -2.5792   -3.8188   -0.8923 N   0  0  0  0  0  0  0  0  0  0  0  0
   -3.5945   -4.7391   -1.1444 O   0  0  0  0  0  0  0  0  0  0  0  0
   -3.1008   -6.0388   -1.1768 N   0  0  0  0  0  0  0  0  0  0  0  0
   -1.7939   -5.9301   -0.9418 C   0  0  0  0  0  0  0  0  0  0  0  0
   -0.9444   -6.9732   -0.8786 N   0  0  0  0  0  0  0  0  0  0  0  0
   -0.8823   -0.6815   -1.4423 C   0  0  0  0  0  0  0  0  0  0  0  0
   -1.7471    0.4150   -1.4177 C   0  0  0  0  0  0  0  0  0  0  0  0
   -6.4427    4.6754    1.2010 H   0  0  0  0  0  0  0  0  0  0  0  0
   -5.3193    3.9980    2.3924 H   0  0  0  0  0  0  0  0  0  0  0  0
   -6.6087    2.9866    1.7110 H   0  0  0  0  0  0  0  0  0  0  0  0
   -4.2711    4.1746    0.1137 H   0  0  0  0  0  0  0  0  0  0  0  0
   -5.5426    3.1742   -0.5571 H   0  0  0  0  0  0  0  0  0  0  0  0
   -3.5486    2.3033    1.5968 H   0  0  0  0  0  0  0  0  0  0  0  0
   -4.8532    1.2762    0.9097 H   0  0  0  0  0  0  0  0  0  0  0  0
   -3.0255    0.0157    1.7139 H   0  0  0  0  0  0  0  0  0  0  0  0
   -1.5167   -1.8941    1.6784 H   0  0  0  0  0  0  0  0  0  0  0  0
    1.0438   -0.3537    0.7874 H   0  0  0  0  0  0  0  0  0  0  0  0
    4.1732    0.3956   -0.7001 H   0  0  0  0  0  0  0  0  0  0  0  0
    3.3555    2.8786    2.0810 H   0  0  0  0  0  0  0  0  0  0  0  0
    4.8216    4.7875    2.6628 H   0  0  0  0  0  0  0  0  0  0  0  0
    6.9595    5.1316    1.4487 H   0  0  0  0  0  0  0  0  0  0  0  0
    7.6359    3.5629   -0.3507 H   0  0  0  0  0  0  0  0  0  0  0  0
    6.1834    1.6503   -0.9441 H   0  0  0  0  0  0  0  0  0  0  0  0
    0.0651   -6.8325   -0.8995 H   0  0  0  0  0  0  0  0  0  0  0  0
   -1.2480   -7.8772   -1.2260 H   0  0  0  0  0  0  0  0  0  0  0  0
   -0.2864   -0.8624   -2.3343 H   0  0  0  0  0  0  0  0  0  0  0  0
   -1.8143    1.0672   -2.2858 H   0  0  0  0  0  0  0  0  0  0  0  0
  1  2  1  0
  2  3  1  0
  3  4  1  0
  4  5  1  0
  5  6  2  0
  6  7  1  0
  7  8  2  0
  8  9  1  0
  9 10  2  0
 10 11  1  0
 11 12  2  0
 11 13  1  0
 13 14  1  0
 14 15  2  3
 15 16  1  0
 16 17  2  0
 17 18  1  0
 18 19  2  0
 19 20  1  0
 20 21  2  0
 10 22  1  0
 22 23  2  0
 23 24  1  0
 24 25  1  0
 25 26  2  0
 26 27  1  0
 27 28  1  0
 28 29  2  0
 29 30  1  0
  8 31  1  0
 31 32  2  0
 32  5  1  0
 24  9  1  0
 29 25  1  0
 21 16  1  0
  1 33  1  0
  1 34  1  0
  1 35  1  0
  2 36  1  0
  2 37  1  0
  3 38  1  0
  3 39  1  0
  6 40  1  0
  7 41  1  0
 13 42  1  0
 15 43  1  0
 17 44  1  0
 18 45  1  0
 19 46  1  0
 20 47  1  0
 21 48  1  0
 30 49  1  0
 30 50  1  0
 31 51  1  0
 32 52  1  0
M  END
$$$$
