
     RDKit          3D

 57 62  0  0  0  0  0  0  0  0999 V2000
    8.1845   -2.9845   -0.5376 C   0  0  0  0  0  0  0  0  0  0  0  0
    6.9288   -3.4850   -0.0931 O   0  0  0  0  0  0  0  0  0  0  0  0
    5.8914   -2.5999   -0.0297 C   0  0  0  0  0  0  0  0  0  0  0  0
    4.6790   -3.1503    0.3881 C   0  0  0  0  0  0  0  0  0  0  0  0
    3.5310   -2.3590    0.4975 C   0  0  0  0  0  0  0  0  0  0  0  0
    3.5899   -0.9961    0.1903 C   0  0  0  0  0  0  0  0  0  0  0  0
    2.3005   -0.1060    0.3132 C   0  0  0  0  0  0  0  0  0  0  0  0
    1.0172   -0.5455    0.6211 C   0  0  0  0  0  0  0  0  0  0  0  0
    0.1492    0.5474    0.6098 N   0  0  0  0  0  4  0  0  0  0  0  0
   -1.2983    0.5322    0.8821 C   0  0  0  0  0  0  0  0  0  0  0  0
   -2.1244    0.9194   -0.3590 C   0  0  0  0  0  0  0  0  0  0  0  0
   -1.6539    1.6539   -1.2296 O   0  0  0  0  0  0  0  0  0  0  0  0
   -3.4402    0.4446   -0.3136 N   0  0  0  0  0  0  0  0  0  0  0  0
   -3.6820   -0.9753   -0.3681 C   0  0  0  0  0  0  0  0  0  0  0  0
   -2.6715   -1.8272   -0.8737 C   0  0  0  0  0  0  0  0  0  0  0  0
   -2.8482   -3.2115   -0.9518 C   0  0  0  0  0  0  0  0  0  0  0  0
   -4.0428   -3.7778   -0.5320 C   0  0  0  0  0  0  0  0  0  0  0  0
   -5.0600   -2.9569   -0.0504 C   0  0  0  0  0  0  0  0  0  0  0  0
   -4.8935   -1.5631    0.0215 C   0  0  0  0  0  0  0  0  0  0  0  0
   -6.2502   -0.6281    0.6629 S   0  0  0  0  0  0  0  0  0  0  0  0
   -5.8616    0.9739    0.0060 C   0  0  0  0  0  0  0  0  0  0  0  0
   -6.9226    1.8968   -0.0397 C   0  0  0  0  0  0  0  0  0  0  0  0
   -6.7111    3.2097   -0.4489 C   0  0  0  0  0  0  0  0  0  0  0  0
   -5.4334    3.6137   -0.8031 C   0  0  0  0  0  0  0  0  0  0  0  0
   -4.3717    2.7026   -0.7519 C   0  0  0  0  0  0  0  0  0  0  0  0
   -4.5590    1.3568   -0.3661 C   0  0  0  0  0  0  0  0  0  0  0  0
    0.8684    1.6250    0.3015 C   0  0  0  0  0  0  0  0  0  0  0  0
    2.1400    1.2591    0.1582 N   0  0  0  0  0  0  0  0  0  0  0  0
    3.0049    2.4018   -0.1042 C   0  0  0  0  0  0  0  0  0  0  0  0
    2.1093    3.6194    0.2483 C   0  0  0  0  0  0  0  0  0  0  0  0
    0.6665    3.0868    0.1488 C   0  0  0  0  0  0  0  0  0  0  0  0
    4.8008   -0.4435   -0.2321 C   0  0  0  0  0  0  0  0  0  0  0  0
    5.9475   -1.2424   -0.3402 C   0  0  0  0  0  0  0  0  0  0  0  0
    8.5643   -2.2155    0.1439 H   0  0  0  0  0  0  0  0  0  0  0  0
    8.8962   -3.8168   -0.5365 H   0  0  0  0  0  0  0  0  0  0  0  0
    8.1160   -2.6033   -1.5638 H   0  0  0  0  0  0  0  0  0  0  0  0
    4.6312   -4.2105    0.6331 H   0  0  0  0  0  0  0  0  0  0  0  0
    2.6172   -2.8405    0.8344 H   0  0  0  0  0  0  0  0  0  0  0  0
    0.6041   -1.5167    0.8433 H   0  0  0  0  0  0  0  0  0  0  0  0
   -1.4988    1.2724    1.6648 H   0  0  0  0  0  0  0  0  0  0  0  0
   -1.5721   -0.4513    1.2715 H   0  0  0  0  0  0  0  0  0  0  0  0
   -1.7420   -1.4300   -1.2769 H   0  0  0  0  0  0  0  0  0  0  0  0
   -2.0655   -3.8456   -1.3638 H   0  0  0  0  0  0  0  0  0  0  0  0
   -4.1953   -4.8532   -0.5960 H   0  0  0  0  0  0  0  0  0  0  0  0
   -5.9977   -3.4159    0.2619 H   0  0  0  0  0  0  0  0  0  0  0  0
   -7.9282    1.5977    0.2553 H   0  0  0  0  0  0  0  0  0  0  0  0
   -7.5413    3.9110   -0.4886 H   0  0  0  0  0  0  0  0  0  0  0  0
   -5.2575    4.6356   -1.1337 H   0  0  0  0  0  0  0  0  0  0  0  0
   -3.4055    3.0854   -1.0672 H   0  0  0  0  0  0  0  0  0  0  0  0
    3.8950    2.3749    0.5283 H   0  0  0  0  0  0  0  0  0  0  0  0
    3.2763    2.4023   -1.1638 H   0  0  0  0  0  0  0  0  0  0  0  0
    2.3096    3.9209    1.2831 H   0  0  0  0  0  0  0  0  0  0  0  0
    2.2928    4.4829   -0.3964 H   0  0  0  0  0  0  0  0  0  0  0  0
    0.2441    3.2543   -0.8426 H   0  0  0  0  0  0  0  0  0  0  0  0
    0.0112    3.4440    0.9444 H   0  0  0  0  0  0  0  0  0  0  0  0
    4.8923    0.6011   -0.5044 H   0  0  0  0  0  0  0  0  0  0  0  0
    6.8690   -0.7743   -0.6733 H   0  0  0  0  0  0  0  0  0  0  0  0
  1  2  1  0
  2  3  1  0
  3  4  2  0
  4  5  1  0
  5  6  2  0
  6  7  1  0
  7  8  2  0
  8  9  1  0
  9 10  1  0
 10 11  1  0
 11 12  2  0
 11 13  1  0
 13 14  1  0
 14 15  2  0
 15 16  1  0
 16 17  2  0
 17 18  1  0
 18 19  2  0
 19 20  1  0
 20 21  1  0
 21 22  2  0
 22 23  1  0
 23 24  2  0
 24 25  1  0
 25 26  2  0
  9 27  2  0
 27 28  1  0
 28 29  1  0
 29 30  1  0
 30 31  1  0
  6 32  1  0
 32 33  2  0
 33  3  1  0
 28  7  1  0
 26 13  1  0
 31 27  1  0
 19 14  1  0
 26 21  1  0
  1 34  1  0
  1 35  1  0
  1 36  1  0
  4 37  1  0
  5 38  1  0
  8 39  1  0
 10 40  1  0
 10 41  1  0
 15 42  1  0
 16 43  1  0
 17 44  1  0
 18 45  1  0
 22 46  1  0
 23 47  1  0
 24 48  1  0
 25 49  1  0
 29 50  1  0
 29 51  1  0
 30 52  1  0
 30 53  1  0
 31 54  1  0
 31 55  1  0
 32 56  1  0
 33 57  1  0
M  CHG  1   9   1
M  END
$$$$
