
     RDKit          3D

 37 39  0  0  0  0  0  0  0  0999 V2000
    6.0205    0.7497   -0.7484 C   0  0  0  0  0  0  0  0  0  0  0  0
    4.6441    0.7017   -1.1085 O   0  0  0  0  0  0  0  0  0  0  0  0
    3.7699    0.2315   -0.1659 C   0  0  0  0  0  0  0  0  0  0  0  0
    4.1056   -0.1707    1.1339 C   0  0  0  0  0  0  0  0  0  0  0  0
    3.1179   -0.6264    2.0119 C   0  0  0  0  0  0  0  0  0  0  0  0
    1.8045   -0.6729    1.5702 C   0  0  0  0  0  0  0  0  0  0  0  0
    1.4450   -0.2830    0.2652 C   0  0  0  0  0  0  0  0  0  0  0  0
    2.4364    0.1764   -0.5972 C   0  0  0  0  0  0  0  0  0  0  0  0
    0.0464   -0.3833   -0.0216 N   0  0  0  0  0  0  0  0  0  0  0  0
   -0.2131   -0.8701   -1.3807 C   0  0  0  0  0  0  0  0  0  0  0  0
   -0.6381   -0.8476    1.1131 C   0  0  0  0  0  0  0  0  0  0  0  0
   -1.9652   -0.9219    1.3225 C   0  0  0  0  0  0  0  0  0  0  0  0
   -3.0030   -0.4622    0.4014 C   0  0  0  0  0  0  0  0  0  0  0  0
   -3.8917   -1.4034   -0.1350 C   0  0  0  0  0  0  0  0  0  0  0  0
   -4.8760   -1.0033   -1.0289 C   0  0  0  0  0  0  0  0  0  0  0  0
   -4.9667    0.3344   -1.3768 C   0  0  0  0  0  0  0  0  0  0  0  0
   -4.0828    1.2466   -0.8152 C   0  0  0  0  0  0  0  0  0  0  0  0
   -3.1323    0.8533    0.0672 N   0  0  0  0  0  4  0  0  0  0  0  0
   -2.2602    1.8949    0.6546 C   0  0  0  0  0  0  0  0  0  0  0  0
    0.4008   -1.2380    2.5097 S   0  0  0  0  0  0  0  0  0  0  0  0
    6.1852    1.4406    0.0849 H   0  0  0  0  0  0  0  0  0  0  0  0
    6.5781    1.1282   -1.6105 H   0  0  0  0  0  0  0  0  0  0  0  0
    6.4027   -0.2499   -0.5165 H   0  0  0  0  0  0  0  0  0  0  0  0
    5.1299   -0.1396    1.4937 H   0  0  0  0  0  0  0  0  0  0  0  0
    3.3812   -0.9404    3.0177 H   0  0  0  0  0  0  0  0  0  0  0  0
    2.2052    0.5116   -1.6027 H   0  0  0  0  0  0  0  0  0  0  0  0
    0.2791   -1.8338   -1.5579 H   0  0  0  0  0  0  0  0  0  0  0  0
   -1.2809   -1.0122   -1.5635 H   0  0  0  0  0  0  0  0  0  0  0  0
    0.1263   -0.1487   -2.1315 H   0  0  0  0  0  0  0  0  0  0  0  0
   -2.3494   -1.3115    2.2644 H   0  0  0  0  0  0  0  0  0  0  0  0
   -3.8100   -2.4561    0.1332 H   0  0  0  0  0  0  0  0  0  0  0  0
   -5.5644   -1.7328   -1.4536 H   0  0  0  0  0  0  0  0  0  0  0  0
   -5.7280    0.6681   -2.0794 H   0  0  0  0  0  0  0  0  0  0  0  0
   -4.1332    2.3034   -1.0647 H   0  0  0  0  0  0  0  0  0  0  0  0
   -1.3507    1.9518    0.0539 H   0  0  0  0  0  0  0  0  0  0  0  0
   -2.0508    1.6595    1.7000 H   0  0  0  0  0  0  0  0  0  0  0  0
   -2.7825    2.8558    0.6245 H   0  0  0  0  0  0  0  0  0  0  0  0
  1  2  1  0
  2  3  1  0
  3  4  2  0
  4  5  1  0
  5  6  2  0
  6  7  1  0
  7  8  2  0
  7  9  1  0
  9 10  1  0
  9 11  1  0
 11 12  2  3
 12 13  1  0
 13 14  2  0
 14 15  1  0
 15 16  2  0
 16 17  1  0
 17 18  2  0
 18 19  1  0
 11 20  1  0
  8  3  1  0
 18 13  1  0
 20  6  1  0
  1 21  1  0
  1 22  1  0
  1 23  1  0
  4 24  1  0
  5 25  1  0
  8 26  1  0
 10 27  1  0
 10 28  1  0
 10 29  1  0
 12 30  1  0
 14 31  1  0
 15 32  1  0
 16 33  1  0
 17 34  1  0
 19 35  1  0
 19 36  1  0
 19 37  1  0
M  CHG  1  18   1
M  END
$$$$
