
     RDKit          3D

 58 62  0  0  0  0  0  0  0  0999 V2000
    5.1141    0.1262    6.2896 C   0  0  0  0  0  0  0  0  0  0  0  0
    5.5479    0.4592    4.9788 O   0  0  0  0  0  0  0  0  0  0  0  0
    4.5899    0.5844    4.0040 C   0  0  0  0  0  0  0  0  0  0  0  0
    3.2178    0.4360    4.2214 C   0  0  0  0  0  0  0  0  0  0  0  0
    2.3163    0.5835    3.1630 C   0  0  0  0  0  0  0  0  0  0  0  0
    2.7651    0.8804    1.8697 C   0  0  0  0  0  0  0  0  0  0  0  0
    1.7931    1.0275    0.7892 C   0  0  0  0  0  0  0  0  0  0  0  0
    0.4771    0.9520    0.8361 N   0  0  0  0  0  0  0  0  0  0  0  0
    0.0691    1.1512   -0.4687 C   0  0  0  0  0  0  0  0  0  0  0  0
   -1.3805    1.1378   -0.8015 C   0  0  0  0  0  0  0  0  0  0  0  0
   -1.6746    0.3429   -1.9830 N   0  0  0  0  0  0  0  0  0  0  0  0
   -1.7208   -1.0262   -2.0733 C   0  0  0  0  0  0  0  0  0  0  0  0
   -1.3844   -2.0813   -0.7431 S   0  0  0  0  0  0  0  0  0  0  0  0
   -2.6864   -3.3276   -0.9674 C   0  0  0  0  0  0  0  0  0  0  0  0
   -4.0507   -2.8080   -0.5819 C   0  0  0  0  0  0  0  0  0  0  0  0
   -4.9510   -2.3691   -1.5671 C   0  0  0  0  0  0  0  0  0  0  0  0
   -6.2059   -1.8654   -1.2144 C   0  0  0  0  0  0  0  0  0  0  0  0
   -6.5738   -1.7943    0.1273 C   0  0  0  0  0  0  0  0  0  0  0  0
   -5.6838   -2.2247    1.1044 C   0  0  0  0  0  0  0  0  0  0  0  0
   -6.0353   -2.1495    2.3951 F   0  0  0  0  0  0  0  0  0  0  0  0
   -4.4316   -2.7275    0.7653 C   0  0  0  0  0  0  0  0  0  0  0  0
   -2.0464   -1.4309   -3.2790 N   0  0  0  0  0  0  0  0  0  0  0  0
   -2.2421   -0.2840   -4.0038 C   0  0  0  0  0  0  0  0  0  0  0  0
   -2.6075   -0.1365   -5.3414 C   0  0  0  0  0  0  0  0  0  0  0  0
   -2.7351    1.1674   -5.7889 C   0  0  0  0  0  0  0  0  0  0  0  0
   -2.5352    2.2690   -5.0279 N   0  0  0  0  0  0  0  0  0  0  0  0
   -2.1849    2.1252   -3.7294 C   0  0  0  0  0  0  0  0  0  0  0  0
   -2.0316    0.8443   -3.2180 C   0  0  0  0  0  0  0  0  0  0  0  0
    1.1806    1.3713   -1.2592 C   0  0  0  0  0  0  0  0  0  0  0  0
    1.4163    1.6526   -2.6868 C   0  0  0  0  0  0  0  0  0  0  0  0
    2.2867    1.2895   -0.4608 O   0  0  0  0  0  0  0  0  0  0  0  0
    4.1446    1.0287    1.6551 C   0  0  0  0  0  0  0  0  0  0  0  0
    5.0581    0.8858    2.7089 C   0  0  0  0  0  0  0  0  0  0  0  0
    6.4192    1.0177    2.5778 O   0  0  0  0  0  0  0  0  0  0  0  0
    6.9328    1.3450    1.2940 C   0  0  0  0  0  0  0  0  0  0  0  0
    4.4743    0.9116    6.7047 H   0  0  0  0  0  0  0  0  0  0  0  0
    6.0009    0.0492    6.9262 H   0  0  0  0  0  0  0  0  0  0  0  0
    4.6091   -0.8456    6.3040 H   0  0  0  0  0  0  0  0  0  0  0  0
    2.8130    0.2055    5.2013 H   0  0  0  0  0  0  0  0  0  0  0  0
    1.2506    0.4625    3.3543 H   0  0  0  0  0  0  0  0  0  0  0  0
   -1.7291    2.1614   -0.9712 H   0  0  0  0  0  0  0  0  0  0  0  0
   -1.9765    0.7345    0.0249 H   0  0  0  0  0  0  0  0  0  0  0  0
   -2.6872   -3.7021   -1.9971 H   0  0  0  0  0  0  0  0  0  0  0  0
   -2.4438   -4.1900   -0.3361 H   0  0  0  0  0  0  0  0  0  0  0  0
   -4.6715   -2.4098   -2.6195 H   0  0  0  0  0  0  0  0  0  0  0  0
   -6.8918   -1.5273   -1.9869 H   0  0  0  0  0  0  0  0  0  0  0  0
   -7.5435   -1.4047    0.4182 H   0  0  0  0  0  0  0  0  0  0  0  0
   -3.7606   -3.0472    1.5580 H   0  0  0  0  0  0  0  0  0  0  0  0
   -2.7787   -0.9886   -5.9843 H   0  0  0  0  0  0  0  0  0  0  0  0
   -3.0157    1.3702   -6.8195 H   0  0  0  0  0  0  0  0  0  0  0  0
   -2.0345    3.0346   -3.1608 H   0  0  0  0  0  0  0  0  0  0  0  0
    1.1414    0.7895   -3.2998 H   0  0  0  0  0  0  0  0  0  0  0  0
    2.4702    1.8778   -2.8780 H   0  0  0  0  0  0  0  0  0  0  0  0
    0.8267    2.5148   -3.0109 H   0  0  0  0  0  0  0  0  0  0  0  0
    4.4895    1.2572    0.6516 H   0  0  0  0  0  0  0  0  0  0  0  0
    8.0208    1.4263    1.3790 H   0  0  0  0  0  0  0  0  0  0  0  0
    6.7152    0.5539    0.5689 H   0  0  0  0  0  0  0  0  0  0  0  0
    6.5543    2.3136    0.9511 H   0  0  0  0  0  0  0  0  0  0  0  0
  1  2  1  0
  2  3  1  0
  3  4  2  0
  4  5  1  0
  5  6  2  0
  6  7  1  0
  7  8  2  0
  8  9  1  0
  9 10  1  0
 10 11  1  0
 11 12  1  0
 12 13  1  0
 13 14  1  0
 14 15  1  0
 15 16  2  0
 16 17  1  0
 17 18  2  0
 18 19  1  0
 19 20  1  0
 19 21  2  0
 12 22  2  0
 22 23  1  0
 23 24  2  0
 24 25  1  0
 25 26  2  0
 26 27  1  0
 27 28  2  0
  9 29  2  0
 29 30  1  0
 29 31  1  0
  6 32  1  0
 32 33  2  0
 33 34  1  0
 34 35  1  0
 33  3  1  0
 31  7  1  0
 28 11  1  0
 21 15  1  0
 28 23  1  0
  1 36  1  0
  1 37  1  0
  1 38  1  0
  4 39  1  0
  5 40  1  0
 10 41  1  0
 10 42  1  0
 14 43  1  0
 14 44  1  0
 16 45  1  0
 17 46  1  0
 18 47  1  0
 21 48  1  0
 24 49  1  0
 25 50  1  0
 27 51  1  0
 30 52  1  0
 30 53  1  0
 30 54  1  0
 32 55  1  0
 35 56  1  0
 35 57  1  0
 35 58  1  0
M  END
$$$$
