
     RDKit          3D

 46 47  0  0  0  0  0  0  0  0999 V2000
    0.2311   -2.0628   -2.1665 C   0  0  0  0  0  0  0  0  0  0  0  0
    1.5371   -1.9190   -1.4326 C   0  0  0  0  0  0  0  0  0  0  0  0
    2.3158   -2.8644   -1.3597 O   0  0  0  0  0  0  0  0  0  0  0  0
    1.6938   -0.6768   -0.8499 N   0  0  0  0  0  0  0  0  0  0  0  0
    2.8397   -0.1847   -0.1852 C   0  0  0  0  0  0  0  0  0  0  0  0
    4.0407   -0.8896   -0.0847 C   0  0  0  0  0  0  0  0  0  0  0  0
    5.1636   -0.2999    0.5047 C   0  0  0  0  0  0  0  0  0  0  0  0
    5.1016    1.0048    0.9848 C   0  0  0  0  0  0  0  0  0  0  0  0
    3.9086    1.7147    0.9021 C   0  0  0  0  0  0  0  0  0  0  0  0
    2.7714    1.1057    0.3646 C   0  0  0  0  0  0  0  0  0  0  0  0
    1.5880    1.8053    0.3165 O   0  0  0  0  0  0  0  0  0  0  0  0
    0.8910    1.7662    1.5759 C   0  0  0  0  0  0  0  0  0  0  0  0
    1.2939    2.9345    2.4741 C   0  0  0  0  0  0  0  0  0  0  0  0
   -0.6117    1.8673    1.2589 C   0  0  0  0  0  0  0  0  0  0  0  0
   -1.2777    2.8801    1.4635 O   0  0  0  0  0  0  0  0  0  0  0  0
   -1.1699    0.7151    0.7342 N   0  0  0  0  0  0  0  0  0  0  0  0
   -2.6133    0.6187    0.5669 C   0  0  0  0  0  0  0  0  0  0  0  0
   -3.2940    0.3392    1.9118 C   0  0  0  0  0  0  0  0  0  0  0  0
   -2.9456   -0.3846   -0.5257 C   0  0  0  0  0  0  0  0  0  0  0  0
   -2.9429    0.0525   -1.8642 C   0  0  0  0  0  0  0  0  0  0  0  0
   -3.2596   -0.8237   -2.9041 C   0  0  0  0  0  0  0  0  0  0  0  0
   -3.5747   -2.1437   -2.6123 C   0  0  0  0  0  0  0  0  0  0  0  0
   -3.8733   -2.9879   -3.6081 F   0  0  0  0  0  0  0  0  0  0  0  0
   -3.5712   -2.6051   -1.3029 C   0  0  0  0  0  0  0  0  0  0  0  0
   -3.2483   -1.7315   -0.2616 C   0  0  0  0  0  0  0  0  0  0  0  0
   -0.1198   -1.1010   -2.5509 H   0  0  0  0  0  0  0  0  0  0  0  0
   -0.5102   -2.4854   -1.4830 H   0  0  0  0  0  0  0  0  0  0  0  0
    0.3688   -2.7353   -3.0157 H   0  0  0  0  0  0  0  0  0  0  0  0
    0.9558    0.0095   -0.9742 H   0  0  0  0  0  0  0  0  0  0  0  0
    4.1516   -1.8933   -0.4820 H   0  0  0  0  0  0  0  0  0  0  0  0
    6.0962   -0.8572    0.5620 H   0  0  0  0  0  0  0  0  0  0  0  0
    5.9850    1.4690    1.4132 H   0  0  0  0  0  0  0  0  0  0  0  0
    3.8750    2.7418    1.2501 H   0  0  0  0  0  0  0  0  0  0  0  0
    1.0518    0.8141    2.1023 H   0  0  0  0  0  0  0  0  0  0  0  0
    0.6077    3.0375    3.3227 H   0  0  0  0  0  0  0  0  0  0  0  0
    1.3084    3.8786    1.9201 H   0  0  0  0  0  0  0  0  0  0  0  0
    2.2946    2.7861    2.8883 H   0  0  0  0  0  0  0  0  0  0  0  0
   -0.6480   -0.1495    0.8080 H   0  0  0  0  0  0  0  0  0  0  0  0
   -2.9829    1.5982    0.2359 H   0  0  0  0  0  0  0  0  0  0  0  0
   -2.8937   -0.5616    2.3897 H   0  0  0  0  0  0  0  0  0  0  0  0
   -4.3754    0.2123    1.7873 H   0  0  0  0  0  0  0  0  0  0  0  0
   -3.1345    1.1677    2.6106 H   0  0  0  0  0  0  0  0  0  0  0  0
   -2.7014    1.0881   -2.1006 H   0  0  0  0  0  0  0  0  0  0  0  0
   -3.2598   -0.4855   -3.9348 H   0  0  0  0  0  0  0  0  0  0  0  0
   -3.8142   -3.6436   -1.1008 H   0  0  0  0  0  0  0  0  0  0  0  0
   -3.2487   -2.1206    0.7527 H   0  0  0  0  0  0  0  0  0  0  0  0
  1  2  1  0
  2  3  2  0
  2  4  1  0
  4  5  1  0
  5  6  2  0
  6  7  1  0
  7  8  2  0
  8  9  1  0
  9 10  2  0
 10 11  1  0
 11 12  1  0
 12 13  1  0
 12 14  1  0
 14 15  2  0
 14 16  1  0
 16 17  1  0
 17 18  1  0
 17 19  1  0
 19 20  2  0
 20 21  1  0
 21 22  2  0
 22 23  1  0
 22 24  1  0
 24 25  2  0
 10  5  1  0
 25 19  1  0
  1 26  1  0
  1 27  1  0
  1 28  1  0
  4 29  1  0
  6 30  1  0
  7 31  1  0
  8 32  1  0
  9 33  1  0
 12 34  1  0
 13 35  1  0
 13 36  1  0
 13 37  1  0
 16 38  1  0
 17 39  1  0
 18 40  1  0
 18 41  1  0
 18 42  1  0
 20 43  1  0
 21 44  1  0
 24 45  1  0
 25 46  1  0
M  END
$$$$
