
     RDKit          3D

 46 48  0  0  0  0  0  0  0  0999 V2000
    2.3522    1.7558   -0.2472 C   0  0  0  0  0  0  0  0  0  0  0  0
    1.1849    2.5674   -0.7671 C   0  0  0  0  0  0  0  0  0  0  0  0
    1.4202    3.5301   -1.8803 C   0  0  0  0  0  0  0  0  0  0  0  0
    2.0820    3.2705   -3.0198 C   0  0  0  0  0  0  0  0  0  0  0  0
    2.6422    1.9784   -3.4251 C   0  0  0  0  0  0  0  0  0  0  0  0
    1.8185    0.8535   -3.5727 C   0  0  0  0  0  0  0  0  0  0  0  0
    2.3623   -0.3714   -3.9620 C   0  0  0  0  0  0  0  0  0  0  0  0
    3.7299   -0.4794   -4.2139 C   0  0  0  0  0  0  0  0  0  0  0  0
    4.5541    0.6402   -4.0863 C   0  0  0  0  0  0  0  0  0  0  0  0
    4.0110    1.8668   -3.6987 C   0  0  0  0  0  0  0  0  0  0  0  0
   -0.0210    2.5168   -0.2755 N   0  0  0  0  0  0  0  0  0  0  0  0
   -0.2893    1.6184    0.7137 N   0  0  0  0  0  0  0  0  0  0  0  0
   -1.5317    1.5965    1.3215 C   0  0  0  0  0  0  0  0  0  0  0  0
   -2.4539    2.3735    1.1128 O   0  0  0  0  0  0  0  0  0  0  0  0
   -1.6693    0.4874    2.3102 C   0  0  0  0  0  0  0  0  0  0  0  0
   -2.8246    0.4244    3.2699 C   0  0  0  0  0  0  0  0  0  0  0  0
   -2.7445   -0.5910    2.1440 C   0  0  0  0  0  0  0  0  0  0  0  0
   -3.7671   -0.4710    1.0338 C   0  0  0  0  0  0  0  0  0  0  0  0
   -2.3077   -2.0219    2.4396 C   0  0  0  0  0  0  0  0  0  0  0  0
   -1.3946   -2.6859    1.5999 C   0  0  0  0  0  0  0  0  0  0  0  0
   -0.9859   -3.9989    1.8550 C   0  0  0  0  0  0  0  0  0  0  0  0
   -1.4899   -4.6806    2.9584 C   0  0  0  0  0  0  0  0  0  0  0  0
   -2.4037   -4.0517    3.7999 C   0  0  0  0  0  0  0  0  0  0  0  0
   -2.8111   -2.7392    3.5376 C   0  0  0  0  0  0  0  0  0  0  0  0
    2.2065    0.7006   -0.4933 H   0  0  0  0  0  0  0  0  0  0  0  0
    2.4199    1.8652    0.8398 H   0  0  0  0  0  0  0  0  0  0  0  0
    3.3011    2.0957   -0.6668 H   0  0  0  0  0  0  0  0  0  0  0  0
    0.9504    4.4986   -1.7352 H   0  0  0  0  0  0  0  0  0  0  0  0
    2.1860    4.0648   -3.7577 H   0  0  0  0  0  0  0  0  0  0  0  0
    0.7472    0.9243   -3.3896 H   0  0  0  0  0  0  0  0  0  0  0  0
    1.7163   -1.2360   -4.0739 H   0  0  0  0  0  0  0  0  0  0  0  0
    4.1549   -1.4332   -4.5177 H   0  0  0  0  0  0  0  0  0  0  0  0
    5.6180    0.5550   -4.2906 H   0  0  0  0  0  0  0  0  0  0  0  0
    4.6650    2.7301   -3.6020 H   0  0  0  0  0  0  0  0  0  0  0  0
    0.4013    0.9209    0.9548 H   0  0  0  0  0  0  0  0  0  0  0  0
   -0.7205    0.1652    2.7367 H   0  0  0  0  0  0  0  0  0  0  0  0
   -2.6108    0.1112    4.2868 H   0  0  0  0  0  0  0  0  0  0  0  0
   -3.5819    1.2050    3.2162 H   0  0  0  0  0  0  0  0  0  0  0  0
   -4.2691    0.5028    1.0298 H   0  0  0  0  0  0  0  0  0  0  0  0
   -3.2884   -0.6108    0.0566 H   0  0  0  0  0  0  0  0  0  0  0  0
   -4.5471   -1.2315    1.1412 H   0  0  0  0  0  0  0  0  0  0  0  0
   -1.0033   -2.1736    0.7237 H   0  0  0  0  0  0  0  0  0  0  0  0
   -0.2854   -4.4906    1.1862 H   0  0  0  0  0  0  0  0  0  0  0  0
   -1.1799   -5.7024    3.1571 H   0  0  0  0  0  0  0  0  0  0  0  0
   -2.8068   -4.5809    4.6592 H   0  0  0  0  0  0  0  0  0  0  0  0
   -3.5363   -2.2690    4.2005 H   0  0  0  0  0  0  0  0  0  0  0  0
  1  2  1  0
  2  3  1  0
  3  4  2  3
  4  5  1  0
  5  6  2  0
  6  7  1  0
  7  8  2  0
  8  9  1  0
  9 10  2  0
  2 11  2  3
 11 12  1  0
 12 13  1  0
 13 14  2  0
 13 15  1  0
 15 16  1  0
 16 17  1  0
 17 18  1  0
 17 19  1  0
 19 20  2  0
 20 21  1  0
 21 22  2  0
 22 23  1  0
 23 24  2  0
 10  5  1  0
 17 15  1  0
 24 19  1  0
  1 25  1  0
  1 26  1  0
  1 27  1  0
  3 28  1  0
  4 29  1  0
  6 30  1  0
  7 31  1  0
  8 32  1  0
  9 33  1  0
 10 34  1  0
 12 35  1  0
 15 36  1  0
 16 37  1  0
 16 38  1  0
 18 39  1  0
 18 40  1  0
 18 41  1  0
 20 42  1  0
 21 43  1  0
 22 44  1  0
 23 45  1  0
 24 46  1  0
M  END
$$$$
