
     RDKit          3D

 43 45  0  0  0  0  0  0  0  0999 V2000
    8.5615    0.3113    0.6973 C   0  0  0  0  0  0  0  0  0  0  0  0
    7.1615    0.5899    0.7452 O   0  0  0  0  0  0  0  0  0  0  0  0
    6.3799   -0.4458    0.3506 C   0  0  0  0  0  0  0  0  0  0  0  0
    6.7761   -1.5390   -0.0225 O   0  0  0  0  0  0  0  0  0  0  0  0
    4.9395   -0.0794    0.4291 C   0  0  0  0  0  0  0  0  0  0  0  0
    3.9901   -1.0415    0.0587 C   0  0  0  0  0  0  0  0  0  0  0  0
    2.6211   -0.7514    0.1127 C   0  0  0  0  0  0  0  0  0  0  0  0
    2.1894    0.5048    0.5379 C   0  0  0  0  0  0  0  0  0  0  0  0
    0.8920    0.9208    0.6371 O   0  0  0  0  0  0  0  0  0  0  0  0
   -0.1244   -0.0135    0.2889 C   0  0  0  0  0  0  0  0  0  0  0  0
   -1.5281    0.5947    0.4788 C   0  0  0  0  0  0  0  0  0  0  0  0
   -1.6628    1.6044    1.1728 O   0  0  0  0  0  0  0  0  0  0  0  0
   -2.5865   -0.0806   -0.1711 N   0  0  0  0  0  0  0  0  0  0  0  0
   -2.3980   -1.4411   -0.6924 C   0  0  0  0  0  0  0  0  0  0  0  0
   -3.6352   -2.3065   -0.5481 C   0  0  0  0  0  0  0  0  0  0  0  0
   -4.7693   -1.6819   -1.3297 C   0  0  0  0  0  0  0  0  0  0  0  0
   -4.9307   -0.2287   -0.9735 C   0  0  0  0  0  0  0  0  0  0  0  0
   -6.1753    0.3694   -1.2530 C   0  0  0  0  0  0  0  0  0  0  0  0
   -6.3979    1.7123   -0.9753 C   0  0  0  0  0  0  0  0  0  0  0  0
   -5.3738    2.4715   -0.4298 C   0  0  0  0  0  0  0  0  0  0  0  0
   -4.1291    1.8890   -0.1613 C   0  0  0  0  0  0  0  0  0  0  0  0
   -3.8757    0.5321   -0.4177 C   0  0  0  0  0  0  0  0  0  0  0  0
    3.1358    1.4645    0.9073 C   0  0  0  0  0  0  0  0  0  0  0  0
    4.5038    1.1797    0.8554 C   0  0  0  0  0  0  0  0  0  0  0  0
    8.8112   -0.5153    1.3700 H   0  0  0  0  0  0  0  0  0  0  0  0
    9.0961    1.2042    1.0330 H   0  0  0  0  0  0  0  0  0  0  0  0
    8.8728    0.0859   -0.3275 H   0  0  0  0  0  0  0  0  0  0  0  0
    4.3136   -2.0263   -0.2749 H   0  0  0  0  0  0  0  0  0  0  0  0
    1.9264   -1.5296   -0.1839 H   0  0  0  0  0  0  0  0  0  0  0  0
   -0.0551   -0.8855    0.9491 H   0  0  0  0  0  0  0  0  0  0  0  0
   -0.0062   -0.2909   -0.7645 H   0  0  0  0  0  0  0  0  0  0  0  0
   -2.0941   -1.3532   -1.7429 H   0  0  0  0  0  0  0  0  0  0  0  0
   -1.5871   -1.9437   -0.1588 H   0  0  0  0  0  0  0  0  0  0  0  0
   -3.4382   -3.3190   -0.9173 H   0  0  0  0  0  0  0  0  0  0  0  0
   -3.9075   -2.3914    0.5118 H   0  0  0  0  0  0  0  0  0  0  0  0
   -5.6929   -2.2330   -1.1163 H   0  0  0  0  0  0  0  0  0  0  0  0
   -4.5750   -1.7588   -2.4066 H   0  0  0  0  0  0  0  0  0  0  0  0
   -6.9799   -0.2187   -1.6898 H   0  0  0  0  0  0  0  0  0  0  0  0
   -7.3620    2.1653   -1.1883 H   0  0  0  0  0  0  0  0  0  0  0  0
   -5.5302    3.5257   -0.2145 H   0  0  0  0  0  0  0  0  0  0  0  0
   -3.3696    2.5534    0.2367 H   0  0  0  0  0  0  0  0  0  0  0  0
    2.8024    2.4454    1.2408 H   0  0  0  0  0  0  0  0  0  0  0  0
    5.2113    1.9502    1.1508 H   0  0  0  0  0  0  0  0  0  0  0  0
  1  2  1  0
  2  3  1  0
  3  4  2  0
  3  5  1  0
  5  6  2  0
  6  7  1  0
  7  8  2  0
  8  9  1  0
  9 10  1  0
 10 11  1  0
 11 12  2  0
 11 13  1  0
 13 14  1  0
 14 15  1  0
 15 16  1  0
 16 17  1  0
 17 18  2  0
 18 19  1  0
 19 20  2  0
 20 21  1  0
 21 22  2  0
  8 23  1  0
 23 24  2  0
 24  5  1  0
 22 13  1  0
 22 17  1  0
  1 25  1  0
  1 26  1  0
  1 27  1  0
  6 28  1  0
  7 29  1  0
 10 30  1  0
 10 31  1  0
 14 32  1  0
 14 33  1  0
 15 34  1  0
 15 35  1  0
 16 36  1  0
 16 37  1  0
 18 38  1  0
 19 39  1  0
 20 40  1  0
 21 41  1  0
 23 42  1  0
 24 43  1  0
M  END
$$$$
