
     RDKit          3D

 58 61  0  0  0  0  0  0  0  0999 V2000
   -3.8503    6.4680    1.0075 C   0  0  0  0  0  0  0  0  0  0  0  0
   -2.9593    5.3667    0.8843 O   0  0  0  0  0  0  0  0  0  0  0  0
   -3.5051    4.1148    0.9690 C   0  0  0  0  0  0  0  0  0  0  0  0
   -4.8484    3.8205    1.1573 C   0  0  0  0  0  0  0  0  0  0  0  0
   -5.2839    2.4924    1.2299 C   0  0  0  0  0  0  0  0  0  0  0  0
   -4.3440    1.4508    1.1071 C   0  0  0  0  0  0  0  0  0  0  0  0
   -4.6618   -0.2350    1.1717 S   0  0  0  0  0  0  0  0  0  0  0  0
   -3.0170   -0.6447    0.9393 C   0  0  0  0  0  0  0  0  0  0  0  0
   -2.6553   -2.0700    0.8907 C   0  0  0  0  0  0  0  0  0  0  0  0
   -2.6883   -2.8223    2.0779 C   0  0  0  0  0  0  0  0  0  0  0  0
   -2.3281   -4.1695    2.0777 C   0  0  0  0  0  0  0  0  0  0  0  0
   -1.9346   -4.7803    0.8910 C   0  0  0  0  0  0  0  0  0  0  0  0
   -1.8958   -4.0463   -0.2970 C   0  0  0  0  0  0  0  0  0  0  0  0
   -2.2422   -2.6894   -0.3053 C   0  0  0  0  0  0  0  0  0  0  0  0
   -2.2529   -1.9244   -1.4457 O   0  0  0  0  0  0  0  0  0  0  0  0
   -1.3104   -2.2921   -2.4461 C   0  0  0  0  0  0  0  0  0  0  0  0
   -2.2228    0.4850    0.8118 C   0  0  0  0  0  0  0  0  0  0  0  0
   -0.7829    0.3929    0.5869 C   0  0  0  0  0  0  0  0  0  0  0  0
    0.0648   -0.1110    1.5767 C   0  0  0  0  0  0  0  0  0  0  0  0
    1.4391   -0.1972    1.3411 C   0  0  0  0  0  0  0  0  0  0  0  0
    1.9827    0.2206    0.1233 C   0  0  0  0  0  0  0  0  0  0  0  0
    3.3389    0.0771    0.0261 O   0  0  0  0  0  0  0  0  0  0  0  0
    3.9494    0.4656   -1.2077 C   0  0  0  0  0  0  0  0  0  0  0  0
    5.4659    0.2016   -1.1338 C   0  0  0  0  0  0  0  0  0  0  0  0
    5.8761   -1.1712   -1.5072 N   0  0  0  0  0  0  0  0  0  0  0  0
    5.3177   -2.1742   -0.5969 C   0  0  0  0  0  0  0  0  0  0  0  0
    7.3383   -1.2678   -1.5127 C   0  0  0  0  0  0  0  0  0  0  0  0
    1.1383    0.7329   -0.8616 C   0  0  0  0  0  0  0  0  0  0  0  0
   -0.2390    0.8192   -0.6299 C   0  0  0  0  0  0  0  0  0  0  0  0
   -2.9874    1.7101    0.9111 C   0  0  0  0  0  0  0  0  0  0  0  0
   -2.5815    3.0696    0.8485 C   0  0  0  0  0  0  0  0  0  0  0  0
   -4.5892    6.4702    0.1994 H   0  0  0  0  0  0  0  0  0  0  0  0
   -4.3363    6.4750    1.9888 H   0  0  0  0  0  0  0  0  0  0  0  0
   -3.2609    7.3860    0.9217 H   0  0  0  0  0  0  0  0  0  0  0  0
   -5.5964    4.6006    1.2545 H   0  0  0  0  0  0  0  0  0  0  0  0
   -6.3367    2.2689    1.3793 H   0  0  0  0  0  0  0  0  0  0  0  0
   -2.9928   -2.3550    3.0119 H   0  0  0  0  0  0  0  0  0  0  0  0
   -2.3593   -4.7407    3.0018 H   0  0  0  0  0  0  0  0  0  0  0  0
   -1.6634   -5.8331    0.8862 H   0  0  0  0  0  0  0  0  0  0  0  0
   -1.6083   -4.5615   -1.2076 H   0  0  0  0  0  0  0  0  0  0  0  0
   -0.3155   -2.4688   -2.0226 H   0  0  0  0  0  0  0  0  0  0  0  0
   -1.2291   -1.4581   -3.1499 H   0  0  0  0  0  0  0  0  0  0  0  0
   -1.6609   -3.1651   -3.0054 H   0  0  0  0  0  0  0  0  0  0  0  0
   -0.3346   -0.4407    2.5322 H   0  0  0  0  0  0  0  0  0  0  0  0
    2.0917   -0.5952    2.1141 H   0  0  0  0  0  0  0  0  0  0  0  0
    3.5139   -0.0805   -2.0536 H   0  0  0  0  0  0  0  0  0  0  0  0
    3.7978    1.5423   -1.3538 H   0  0  0  0  0  0  0  0  0  0  0  0
    5.8383    0.4531   -0.1322 H   0  0  0  0  0  0  0  0  0  0  0  0
    5.9384    0.8892   -1.8469 H   0  0  0  0  0  0  0  0  0  0  0  0
    5.5734   -1.9724    0.4495 H   0  0  0  0  0  0  0  0  0  0  0  0
    5.6888   -3.1737   -0.8520 H   0  0  0  0  0  0  0  0  0  0  0  0
    4.2288   -2.2295   -0.6912 H   0  0  0  0  0  0  0  0  0  0  0  0
    7.7696   -0.5549   -2.2244 H   0  0  0  0  0  0  0  0  0  0  0  0
    7.6574   -2.2641   -1.8391 H   0  0  0  0  0  0  0  0  0  0  0  0
    7.7698   -1.0736   -0.5240 H   0  0  0  0  0  0  0  0  0  0  0  0
    1.5138    1.0717   -1.8210 H   0  0  0  0  0  0  0  0  0  0  0  0
   -0.8886    1.2095   -1.4105 H   0  0  0  0  0  0  0  0  0  0  0  0
   -1.5297    3.3083    0.7068 H   0  0  0  0  0  0  0  0  0  0  0  0
  1  2  1  0
  2  3  1  0
  3  4  2  0
  4  5  1  0
  5  6  2  0
  6  7  1  0
  7  8  1  0
  8  9  1  0
  9 10  2  0
 10 11  1  0
 11 12  2  0
 12 13  1  0
 13 14  2  0
 14 15  1  0
 15 16  1  0
  8 17  2  0
 17 18  1  0
 18 19  2  0
 19 20  1  0
 20 21  2  0
 21 22  1  0
 22 23  1  0
 23 24  1  0
 24 25  1  0
 25 26  1  0
 25 27  1  0
 21 28  1  0
 28 29  2  0
 17 30  1  0
 30 31  2  0
 31  3  1  0
 30  6  1  0
 14  9  1  0
 29 18  1  0
  1 32  1  0
  1 33  1  0
  1 34  1  0
  4 35  1  0
  5 36  1  0
 10 37  1  0
 11 38  1  0
 12 39  1  0
 13 40  1  0
 16 41  1  0
 16 42  1  0
 16 43  1  0
 19 44  1  0
 20 45  1  0
 23 46  1  0
 23 47  1  0
 24 48  1  0
 24 49  1  0
 26 50  1  0
 26 51  1  0
 26 52  1  0
 27 53  1  0
 27 54  1  0
 27 55  1  0
 28 56  1  0
 29 57  1  0
 31 58  1  0
M  END
$$$$
