
     RDKit          3D

 59 62  0  0  0  0  0  0  0  0999 V2000
    4.8439   -0.2555    5.1585 C   0  0  0  0  0  0  0  0  0  0  0  0
    4.2659    0.4040    3.9191 C   0  0  0  0  0  0  0  0  0  0  0  0
    4.2260   -0.5720    2.8798 O   0  0  0  0  0  0  0  0  0  0  0  0
    3.7672   -0.1695    1.6568 C   0  0  0  0  0  0  0  0  0  0  0  0
    3.2637    1.0937    1.3456 C   0  0  0  0  0  0  0  0  0  0  0  0
    2.8184    1.3841    0.0480 C   0  0  0  0  0  0  0  0  0  0  0  0
    2.8736    0.4123   -0.9500 C   0  0  0  0  0  0  0  0  0  0  0  0
    2.4633    0.5697   -2.2495 O   0  0  0  0  0  0  0  0  0  0  0  0
    2.0565    1.8638   -2.6944 C   0  0  0  0  0  0  0  0  0  0  0  0
    0.5692    2.0713   -2.4703 C   0  0  0  0  0  0  0  0  0  0  0  0
    3.3707   -0.8630   -0.6270 C   0  0  0  0  0  0  0  0  0  0  0  0
    3.3772   -1.8768   -1.6414 N   0  0  0  0  0  0  0  0  0  0  0  0
    2.3208   -3.1871   -1.4613 S   0  0  0  0  0  6  0  0  0  0  0  0
    2.2612   -3.8467   -2.7492 O   0  0  0  0  0  0  0  0  0  0  0  0
    2.6659   -3.9229   -0.2633 O   0  0  0  0  0  0  0  0  0  0  0  0
    0.7423   -2.4085   -1.1882 C   0  0  0  0  0  0  0  0  0  0  0  0
   -0.0151   -1.9846   -2.2930 C   0  0  0  0  0  0  0  0  0  0  0  0
   -1.2494   -1.3559   -2.0972 C   0  0  0  0  0  0  0  0  0  0  0  0
   -1.7055   -1.1729   -0.8012 C   0  0  0  0  0  0  0  0  0  0  0  0
   -0.9565   -1.6216    0.2898 C   0  0  0  0  0  0  0  0  0  0  0  0
    0.2692   -2.2469    0.1181 C   0  0  0  0  0  0  0  0  0  0  0  0
   -1.6272   -1.2955    1.5842 C   0  0  0  0  0  0  0  0  0  0  0  0
   -2.9647   -0.7146    1.1107 C   0  0  0  0  0  0  0  0  0  0  0  0
   -2.8945   -0.5676   -0.3528 N   0  0  0  0  0  0  0  0  0  0  0  0
   -3.8598    0.0369   -1.1528 C   0  0  0  0  0  0  0  0  0  0  0  0
   -3.7443    0.1484   -2.3791 O   0  0  0  0  0  0  0  0  0  0  0  0
   -5.1122    0.5837   -0.3956 C   0  0  0  0  0  0  0  0  0  0  0  0
   -6.2958    1.1228   -1.2487 C   0  0  0  0  0  0  0  0  0  0  0  0
   -5.7144    2.5356   -1.0687 C   0  0  0  0  0  0  0  0  0  0  0  0
   -5.0069    2.0171    0.1953 C   0  0  0  0  0  0  0  0  0  0  0  0
    3.8171   -1.1481    0.6634 C   0  0  0  0  0  0  0  0  0  0  0  0
    4.8947    0.4534    5.9894 H   0  0  0  0  0  0  0  0  0  0  0  0
    5.8499   -0.6380    4.9578 H   0  0  0  0  0  0  0  0  0  0  0  0
    4.2317   -1.1117    5.4608 H   0  0  0  0  0  0  0  0  0  0  0  0
    4.9068    1.2448    3.6287 H   0  0  0  0  0  0  0  0  0  0  0  0
    3.2539    0.7611    4.1432 H   0  0  0  0  0  0  0  0  0  0  0  0
    3.2000    1.8801    2.0909 H   0  0  0  0  0  0  0  0  0  0  0  0
    2.4256    2.3777   -0.1382 H   0  0  0  0  0  0  0  0  0  0  0  0
    2.2505    1.8948   -3.7726 H   0  0  0  0  0  0  0  0  0  0  0  0
    2.6618    2.6668   -2.2603 H   0  0  0  0  0  0  0  0  0  0  0  0
    0.2577    3.0546   -2.8340 H   0  0  0  0  0  0  0  0  0  0  0  0
    0.3052    1.9892   -1.4119 H   0  0  0  0  0  0  0  0  0  0  0  0
   -0.0057    1.3066   -3.0017 H   0  0  0  0  0  0  0  0  0  0  0  0
    3.3052   -1.4979   -2.5882 H   0  0  0  0  0  0  0  0  0  0  0  0
    0.3524   -2.1335   -3.3060 H   0  0  0  0  0  0  0  0  0  0  0  0
   -1.8215   -1.0274   -2.9584 H   0  0  0  0  0  0  0  0  0  0  0  0
    0.8491   -2.5833    0.9732 H   0  0  0  0  0  0  0  0  0  0  0  0
   -1.0497   -0.5465    2.1359 H   0  0  0  0  0  0  0  0  0  0  0  0
   -1.7744   -2.1818    2.2082 H   0  0  0  0  0  0  0  0  0  0  0  0
   -3.1712    0.2537    1.5779 H   0  0  0  0  0  0  0  0  0  0  0  0
   -3.7920   -1.3937    1.3480 H   0  0  0  0  0  0  0  0  0  0  0  0
   -5.4802   -0.1491    0.3343 H   0  0  0  0  0  0  0  0  0  0  0  0
   -7.2744    0.9848   -0.7728 H   0  0  0  0  0  0  0  0  0  0  0  0
   -6.3593    0.7684   -2.2811 H   0  0  0  0  0  0  0  0  0  0  0  0
   -5.0268    2.8343   -1.8684 H   0  0  0  0  0  0  0  0  0  0  0  0
   -6.4443    3.3333   -0.9114 H   0  0  0  0  0  0  0  0  0  0  0  0
   -3.9966    2.4054    0.3519 H   0  0  0  0  0  0  0  0  0  0  0  0
   -5.5847    2.1533    1.1167 H   0  0  0  0  0  0  0  0  0  0  0  0
    4.2107   -2.1334    0.9023 H   0  0  0  0  0  0  0  0  0  0  0  0
  1  2  1  0
  2  3  1  0
  3  4  1  0
  4  5  2  0
  5  6  1  0
  6  7  2  0
  7  8  1  0
  8  9  1  0
  9 10  1  0
  7 11  1  0
 11 12  1  0
 12 13  1  0
 13 14  2  0
 13 15  2  0
 13 16  1  0
 16 17  2  0
 17 18  1  0
 18 19  2  0
 19 20  1  0
 20 21  2  0
 20 22  1  0
 22 23  1  0
 23 24  1  0
 24 25  1  0
 25 26  2  0
 25 27  1  0
 27 28  1  0
 28 29  1  0
 29 30  1  0
 11 31  2  0
 31  4  1  0
 21 16  1  0
 30 27  1  0
 24 19  1  0
  1 32  1  0
  1 33  1  0
  1 34  1  0
  2 35  1  0
  2 36  1  0
  5 37  1  0
  6 38  1  0
  9 39  1  0
  9 40  1  0
 10 41  1  0
 10 42  1  0
 10 43  1  0
 12 44  1  0
 17 45  1  0
 18 46  1  0
 21 47  1  0
 22 48  1  0
 22 49  1  0
 23 50  1  0
 23 51  1  0
 27 52  1  0
 28 53  1  0
 28 54  1  0
 29 55  1  0
 29 56  1  0
 30 57  1  0
 30 58  1  0
 31 59  1  0
M  END
$$$$
