
     RDKit          3D

 30 32  0  0  0  0  0  0  0  0999 V2000
   -0.3844    1.2725   -1.5074 C   0  0  0  0  0  0  0  0  0  0  0  0
   -0.7108    0.4018   -0.3972 N   0  0  0  0  0  0  0  0  0  0  0  0
    0.1962   -0.3143    0.3620 C   0  0  0  0  0  0  0  0  0  0  0  0
    1.6542   -0.2775    0.2005 C   0  0  0  0  0  0  0  0  0  0  0  0
    2.3321   -1.4694   -0.0951 C   0  0  0  0  0  0  0  0  0  0  0  0
    3.7215   -1.4847   -0.2392 C   0  0  0  0  0  0  0  0  0  0  0  0
    4.4516   -0.3082   -0.0836 C   0  0  0  0  0  0  0  0  0  0  0  0
    3.7956    0.8852    0.2184 C   0  0  0  0  0  0  0  0  0  0  0  0
    2.4060    0.8970    0.3616 C   0  0  0  0  0  0  0  0  0  0  0  0
    1.7753    2.0741    0.6658 O   0  0  0  0  0  0  0  0  0  0  0  0
   -0.5461   -1.0668    1.2569 C   0  0  0  0  0  0  0  0  0  0  0  0
   -1.9212   -0.7765    1.0667 C   0  0  0  0  0  0  0  0  0  0  0  0
   -3.1050   -1.2206    1.6883 C   0  0  0  0  0  0  0  0  0  0  0  0
   -4.3380   -0.7199    1.2586 C   0  0  0  0  0  0  0  0  0  0  0  0
   -4.4013    0.2112    0.2265 C   0  0  0  0  0  0  0  0  0  0  0  0
   -3.2392    0.6651   -0.4053 C   0  0  0  0  0  0  0  0  0  0  0  0
   -2.0047    0.1539    0.0307 C   0  0  0  0  0  0  0  0  0  0  0  0
    0.5784    0.9905   -1.9382 H   0  0  0  0  0  0  0  0  0  0  0  0
   -1.1478    1.1666   -2.2826 H   0  0  0  0  0  0  0  0  0  0  0  0
   -0.3580    2.3006   -1.1387 H   0  0  0  0  0  0  0  0  0  0  0  0
    1.7750   -2.3955   -0.2196 H   0  0  0  0  0  0  0  0  0  0  0  0
    4.2310   -2.4164   -0.4717 H   0  0  0  0  0  0  0  0  0  0  0  0
    5.5327   -0.3219   -0.1963 H   0  0  0  0  0  0  0  0  0  0  0  0
    4.3794    1.7930    0.3350 H   0  0  0  0  0  0  0  0  0  0  0  0
    2.4417    2.7213    0.9461 H   0  0  0  0  0  0  0  0  0  0  0  0
   -0.1329   -1.7445    1.9922 H   0  0  0  0  0  0  0  0  0  0  0  0
   -3.0609   -1.9437    2.4970 H   0  0  0  0  0  0  0  0  0  0  0  0
   -5.2521   -1.0601    1.7381 H   0  0  0  0  0  0  0  0  0  0  0  0
   -5.3675    0.5934   -0.0940 H   0  0  0  0  0  0  0  0  0  0  0  0
   -3.3008    1.3939   -1.2065 H   0  0  0  0  0  0  0  0  0  0  0  0
  1  2  1  0
  2  3  1  0
  3  4  1  0
  4  5  2  0
  5  6  1  0
  6  7  2  0
  7  8  1  0
  8  9  2  0
  9 10  1  0
  3 11  2  0
 11 12  1  0
 12 13  2  0
 13 14  1  0
 14 15  2  0
 15 16  1  0
 16 17  2  0
 17  2  1  0
  9  4  1  0
 17 12  1  0
  1 18  1  0
  1 19  1  0
  1 20  1  0
  5 21  1  0
  6 22  1  0
  7 23  1  0
  8 24  1  0
 10 25  1  0
 11 26  1  0
 13 27  1  0
 14 28  1  0
 15 29  1  0
 16 30  1  0
M  END
$$$$
