
     RDKit          3D

 36 38  0  0  0  0  0  0  0  0999 V2000
    5.9672   -0.6614   -0.3003 C   0  0  0  0  0  0  0  0  0  0  0  0
    5.5035    0.3158    0.7612 C   0  0  0  0  0  0  0  0  0  0  0  0
    4.0445    0.5359    0.6229 N   0  0  0  0  0  4  0  0  0  0  0  0
    3.1798   -0.2561    1.2978 C   0  0  0  0  0  0  0  0  0  0  0  0
    1.8074   -0.0663    1.1844 C   0  0  0  0  0  0  0  0  0  0  0  0
    1.3151    0.9457    0.3618 C   0  0  0  0  0  0  0  0  0  0  0  0
   -0.1211    1.2098    0.2251 C   0  0  0  0  0  0  0  0  0  0  0  0
   -1.0426    0.2450    0.0602 C   0  0  0  0  0  0  0  0  0  0  0  0
   -2.4525    0.4439   -0.0820 C   0  0  0  0  0  0  0  0  0  0  0  0
   -3.1217    1.6457    0.0127 C   0  0  0  0  0  0  0  0  0  0  0  0
   -4.4578    1.4034   -0.1789 N   0  0  0  0  0  0  0  0  0  0  0  0
   -4.6734    0.0625   -0.3959 C   0  0  0  0  0  0  0  0  0  0  0  0
   -5.8683   -0.6274   -0.6339 C   0  0  0  0  0  0  0  0  0  0  0  0
   -5.7931   -2.0096   -0.8236 C   0  0  0  0  0  0  0  0  0  0  0  0
   -4.5706   -2.6733   -0.7771 C   0  0  0  0  0  0  0  0  0  0  0  0
   -3.3848   -1.9683   -0.5378 C   0  0  0  0  0  0  0  0  0  0  0  0
   -3.4298   -0.5703   -0.3415 C   0  0  0  0  0  0  0  0  0  0  0  0
    2.2242    1.7606   -0.3092 C   0  0  0  0  0  0  0  0  0  0  0  0
    3.5885    1.5335   -0.1690 C   0  0  0  0  0  0  0  0  0  0  0  0
    7.0438   -0.8356   -0.2129 H   0  0  0  0  0  0  0  0  0  0  0  0
    5.7623   -0.2782   -1.3051 H   0  0  0  0  0  0  0  0  0  0  0  0
    5.4549   -1.6237   -0.2007 H   0  0  0  0  0  0  0  0  0  0  0  0
    6.0054    1.2842    0.6625 H   0  0  0  0  0  0  0  0  0  0  0  0
    5.6970   -0.0647    1.7697 H   0  0  0  0  0  0  0  0  0  0  0  0
    3.5962   -1.0382    1.9266 H   0  0  0  0  0  0  0  0  0  0  0  0
    1.1311   -0.7054    1.7493 H   0  0  0  0  0  0  0  0  0  0  0  0
   -0.4164    2.2564    0.2406 H   0  0  0  0  0  0  0  0  0  0  0  0
   -0.7135   -0.7907    0.0128 H   0  0  0  0  0  0  0  0  0  0  0  0
   -2.7823    2.6546    0.2014 H   0  0  0  0  0  0  0  0  0  0  0  0
   -5.1875    2.1030   -0.1625 H   0  0  0  0  0  0  0  0  0  0  0  0
   -6.8241   -0.1142   -0.6716 H   0  0  0  0  0  0  0  0  0  0  0  0
   -6.7045   -2.5737   -1.0109 H   0  0  0  0  0  0  0  0  0  0  0  0
   -4.5363   -3.7495   -0.9289 H   0  0  0  0  0  0  0  0  0  0  0  0
   -2.4414   -2.5035   -0.5073 H   0  0  0  0  0  0  0  0  0  0  0  0
    1.8774    2.5675   -0.9528 H   0  0  0  0  0  0  0  0  0  0  0  0
    4.3235    2.1427   -0.6879 H   0  0  0  0  0  0  0  0  0  0  0  0
  1  2  1  0
  2  3  1  0
  3  4  2  0
  4  5  1  0
  5  6  2  0
  6  7  1  0
  7  8  2  3
  8  9  1  0
  9 10  2  0
 10 11  1  0
 11 12  1  0
 12 13  2  0
 13 14  1  0
 14 15  2  0
 15 16  1  0
 16 17  2  0
  6 18  1  0
 18 19  2  0
 19  3  1  0
 17  9  1  0
 17 12  1  0
  1 20  1  0
  1 21  1  0
  1 22  1  0
  2 23  1  0
  2 24  1  0
  4 25  1  0
  5 26  1  0
  7 27  1  0
  8 28  1  0
 10 29  1  0
 11 30  1  0
 13 31  1  0
 14 32  1  0
 15 33  1  0
 16 34  1  0
 18 35  1  0
 19 36  1  0
M  CHG  1   3   1
M  END
$$$$
