
     RDKit          3D

 69 71  0  0  0  0  0  0  0  0999 V2000
   -2.6354    1.0872   -5.3505 C   0  0  0  0  0  0  0  0  0  0  0  0
   -1.7838    0.8758   -4.2328 O   0  0  0  0  0  0  0  0  0  0  0  0
   -2.3289    0.2729   -3.1295 C   0  0  0  0  0  0  0  0  0  0  0  0
   -3.5970   -0.3104   -3.0884 C   0  0  0  0  0  0  0  0  0  0  0  0
   -4.0750   -0.8782   -1.9050 C   0  0  0  0  0  0  0  0  0  0  0  0
   -3.2944   -0.8655   -0.7486 C   0  0  0  0  0  0  0  0  0  0  0  0
   -2.0127   -0.2902   -0.7576 C   0  0  0  0  0  0  0  0  0  0  0  0
   -1.1355   -0.2536    0.4893 C   0  0  0  0  0  0  0  0  0  0  0  0
   -1.9567   -0.1738    1.8116 C   0  0  0  0  0  0  0  0  0  0  0  0
   -2.1012   -1.1250    2.5774 O   0  0  0  0  0  0  0  0  0  0  0  0
   -2.5551    1.0604    2.0228 N   0  0  0  0  0  0  0  0  0  0  0  0
   -3.3736    1.4167    3.1906 C   0  0  0  0  0  0  0  0  0  0  0  0
   -4.6114    0.5118    3.2939 C   0  0  0  0  0  0  0  0  0  0  0  0
   -3.8532    2.8686    3.0085 C   0  0  0  0  0  0  0  0  0  0  0  0
   -2.5474    1.3358    4.4831 C   0  0  0  0  0  0  0  0  0  0  0  0
   -0.1031   -1.3180    0.5651 N   0  0  0  0  0  0  0  0  0  0  0  0
    1.0834   -0.9303    1.2036 C   0  0  0  0  0  0  0  0  0  0  0  0
    1.3239    0.2441    1.4975 O   0  0  0  0  0  0  0  0  0  0  0  0
    2.0730   -2.0234    1.5796 C   0  0  0  0  0  0  0  0  0  0  0  0
    3.4050   -1.4170    2.0198 C   0  0  0  0  0  0  0  0  0  0  0  0
    4.1307   -0.8092    0.8289 C   0  0  0  0  0  0  0  0  0  0  0  0
    4.0796   -1.3270   -0.2841 O   0  0  0  0  0  0  0  0  0  0  0  0
    4.8608    0.3073    1.1606 N   0  0  0  0  0  0  0  0  0  0  0  0
    5.5931    1.0658    0.2739 C   0  0  0  0  0  0  0  0  0  0  0  0
    5.7993    0.8785   -1.1100 C   0  0  0  0  0  0  0  0  0  0  0  0
    6.5915    1.9326   -1.4888 C   0  0  0  0  0  0  0  0  0  0  0  0
    7.1706    2.3759   -2.7685 C   0  0  0  0  0  0  0  0  0  0  0  0
    6.8584    2.7010   -0.4006 O   0  0  0  0  0  0  0  0  0  0  0  0
    6.2328    2.1591    0.7069 N   0  0  0  0  0  0  0  0  0  0  0  0
   -0.5130   -2.7087    0.4933 C   0  0  0  0  0  0  0  0  0  0  0  0
    0.2308   -3.7099   -0.3656 C   0  0  0  0  0  0  0  0  0  0  0  0
   -1.1685   -3.3390   -0.7124 C   0  0  0  0  0  0  0  0  0  0  0  0
   -1.5357    0.2546   -1.9671 C   0  0  0  0  0  0  0  0  0  0  0  0
   -0.2955    0.8511   -1.9526 O   0  0  0  0  0  0  0  0  0  0  0  0
    0.6672    0.0579   -2.6487 C   0  0  0  0  0  0  0  0  0  0  0  0
   -2.9214    0.1354   -5.8094 H   0  0  0  0  0  0  0  0  0  0  0  0
   -3.5172    1.6759   -5.0750 H   0  0  0  0  0  0  0  0  0  0  0  0
   -2.0733    1.6588   -6.0963 H   0  0  0  0  0  0  0  0  0  0  0  0
   -4.2401   -0.3411   -3.9616 H   0  0  0  0  0  0  0  0  0  0  0  0
   -5.0633   -1.3318   -1.8844 H   0  0  0  0  0  0  0  0  0  0  0  0
   -3.6944   -1.3226    0.1561 H   0  0  0  0  0  0  0  0  0  0  0  0
   -0.6139    0.7129    0.4524 H   0  0  0  0  0  0  0  0  0  0  0  0
   -2.3106    1.8048    1.3789 H   0  0  0  0  0  0  0  0  0  0  0  0
   -5.1786    0.5155    2.3552 H   0  0  0  0  0  0  0  0  0  0  0  0
   -5.2821    0.8467    4.0942 H   0  0  0  0  0  0  0  0  0  0  0  0
   -4.3449   -0.5283    3.5106 H   0  0  0  0  0  0  0  0  0  0  0  0
   -4.4476    2.9775    2.0934 H   0  0  0  0  0  0  0  0  0  0  0  0
   -3.0039    3.5579    2.9288 H   0  0  0  0  0  0  0  0  0  0  0  0
   -4.4732    3.1939    3.8510 H   0  0  0  0  0  0  0  0  0  0  0  0
   -2.2098    0.3148    4.6909 H   0  0  0  0  0  0  0  0  0  0  0  0
   -3.1325    1.6669    5.3483 H   0  0  0  0  0  0  0  0  0  0  0  0
   -1.6533    1.9679    4.4191 H   0  0  0  0  0  0  0  0  0  0  0  0
    1.6431   -2.5987    2.4072 H   0  0  0  0  0  0  0  0  0  0  0  0
    2.2467   -2.6926    0.7369 H   0  0  0  0  0  0  0  0  0  0  0  0
    4.0522   -2.2038    2.4247 H   0  0  0  0  0  0  0  0  0  0  0  0
    3.2573   -0.6728    2.8106 H   0  0  0  0  0  0  0  0  0  0  0  0
    4.8185    0.6939    2.0929 H   0  0  0  0  0  0  0  0  0  0  0  0
    5.4178    0.0964   -1.7481 H   0  0  0  0  0  0  0  0  0  0  0  0
    6.7608    3.3496   -3.0553 H   0  0  0  0  0  0  0  0  0  0  0  0
    8.2585    2.4669   -2.6892 H   0  0  0  0  0  0  0  0  0  0  0  0
    6.9461    1.6634   -3.5687 H   0  0  0  0  0  0  0  0  0  0  0  0
   -0.8621   -3.0740    1.4591 H   0  0  0  0  0  0  0  0  0  0  0  0
    1.0074   -3.3610   -1.0368 H   0  0  0  0  0  0  0  0  0  0  0  0
    0.4107   -4.6947    0.0494 H   0  0  0  0  0  0  0  0  0  0  0  0
   -1.2998   -2.7795   -1.6305 H   0  0  0  0  0  0  0  0  0  0  0  0
   -1.9488   -4.0702   -0.5310 H   0  0  0  0  0  0  0  0  0  0  0  0
    0.4923   -1.0170   -2.5306 H   0  0  0  0  0  0  0  0  0  0  0  0
    0.6838    0.3255   -3.7087 H   0  0  0  0  0  0  0  0  0  0  0  0
    1.6525    0.2854   -2.2299 H   0  0  0  0  0  0  0  0  0  0  0  0
  1  2  1  0
  2  3  1  0
  3  4  2  0
  4  5  1  0
  5  6  2  0
  6  7  1  0
  7  8  1  0
  8  9  1  0
  9 10  2  0
  9 11  1  0
 11 12  1  0
 12 13  1  0
 12 14  1  0
 12 15  1  0
  8 16  1  0
 16 17  1  0
 17 18  2  0
 17 19  1  0
 19 20  1  0
 20 21  1  0
 21 22  2  0
 21 23  1  0
 23 24  1  0
 24 25  1  0
 25 26  2  0
 26 27  1  0
 26 28  1  0
 28 29  1  0
 16 30  1  0
 30 31  1  0
 31 32  1  0
  7 33  2  0
 33 34  1  0
 34 35  1  0
 33  3  1  0
 29 24  2  0
 32 30  1  0
  1 36  1  0
  1 37  1  0
  1 38  1  0
  4 39  1  0
  5 40  1  0
  6 41  1  0
  8 42  1  0
 11 43  1  0
 13 44  1  0
 13 45  1  0
 13 46  1  0
 14 47  1  0
 14 48  1  0
 14 49  1  0
 15 50  1  0
 15 51  1  0
 15 52  1  0
 19 53  1  0
 19 54  1  0
 20 55  1  0
 20 56  1  0
 23 57  1  0
 25 58  1  0
 27 59  1  0
 27 60  1  0
 27 61  1  0
 30 62  1  0
 31 63  1  0
 31 64  1  0
 32 65  1  0
 32 66  1  0
 35 67  1  0
 35 68  1  0
 35 69  1  0
M  END
$$$$
