
     RDKit          3D

 59 64  0  0  0  0  0  0  0  0999 V2000
    2.3818    3.1180   -3.2207 C   0  0  0  0  0  0  0  0  0  0  0  0
    2.1212    1.9169   -2.5036 O   0  0  0  0  0  0  0  0  0  0  0  0
    3.2129    1.1562   -2.1352 C   0  0  0  0  0  0  0  0  0  0  0  0
    4.5464    1.5772   -2.2631 C   0  0  0  0  0  0  0  0  0  0  0  0
    5.5750    0.7070   -1.8521 C   0  0  0  0  0  0  0  0  0  0  0  0
    5.2268   -0.5335   -1.3324 C   0  0  0  0  0  0  0  0  0  0  0  0
    3.9162   -0.9873   -1.1871 C   0  0  0  0  0  0  0  0  0  0  0  0
    2.9008   -0.1162   -1.5973 C   0  0  0  0  0  0  0  0  0  0  0  0
    1.5262   -0.4370   -1.5083 N   0  0  0  0  0  0  0  0  0  0  0  0
    0.9419   -1.6134   -1.0761 C   0  0  0  0  0  0  0  0  0  0  0  0
    1.5350   -2.6127   -0.6795 O   0  0  0  0  0  0  0  0  0  0  0  0
   -0.5764   -1.5701   -1.1276 C   0  0  0  0  0  0  0  0  0  0  0  0
   -1.2040   -0.9598    0.4651 S   0  0  0  0  0  0  0  0  0  0  0  0
   -2.8967   -0.8974    0.1245 C   0  0  0  0  0  0  0  0  0  0  0  0
   -3.4418   -1.0271   -1.0609 N   0  0  0  0  0  0  0  0  0  0  0  0
   -4.8000   -0.9110   -0.9107 N   0  0  0  0  0  0  0  0  0  0  0  0
   -5.0627   -0.7217    0.3688 C   0  0  0  0  0  0  0  0  0  0  0  0
   -6.4290   -0.5369    0.9447 C   0  0  0  0  0  0  0  0  0  0  0  0
   -6.9444   -1.7403    1.6839 C   0  0  0  0  0  0  0  0  0  0  0  0
   -7.2231   -1.8679    3.0335 C   0  0  0  0  0  0  0  0  0  0  0  0
   -7.7020   -3.1665    3.3688 C   0  0  0  0  0  0  0  0  0  0  0  0
   -7.7975   -3.9817    2.2627 C   0  0  0  0  0  0  0  0  0  0  0  0
   -7.3087   -3.1864    0.8347 S   0  0  0  0  0  0  0  0  0  0  0  0
   -3.8697   -0.6922    1.0654 N   0  0  0  0  0  0  0  0  0  0  0  0
   -3.6938   -0.5221    2.4945 C   0  0  0  0  0  0  0  0  0  0  0  0
   -3.7128    0.9132    2.8708 C   0  0  0  0  0  0  0  0  0  0  0  0
   -4.6342    1.7182    3.5114 C   0  0  0  0  0  0  0  0  0  0  0  0
   -4.0586    3.0102    3.5760 C   0  0  0  0  0  0  0  0  0  0  0  0
   -2.8201    2.9097    2.9860 C   0  0  0  0  0  0  0  0  0  0  0  0
   -2.6005    1.6409    2.5593 O   0  0  0  0  0  0  0  0  0  0  0  0
    6.3422   -1.2353   -0.9859 O   0  0  0  0  0  0  0  0  0  0  0  0
    7.4155   -0.4533   -1.2831 C   0  0  0  0  0  0  0  0  0  0  0  0
    8.7489   -0.8057   -1.0816 C   0  0  0  0  0  0  0  0  0  0  0  0
    9.7089    0.1398   -1.4555 C   0  0  0  0  0  0  0  0  0  0  0  0
    9.3355    1.3708   -2.0016 C   0  0  0  0  0  0  0  0  0  0  0  0
    7.9836    1.6970   -2.1926 C   0  0  0  0  0  0  0  0  0  0  0  0
    7.0008    0.7594   -1.8229 C   0  0  0  0  0  0  0  0  0  0  0  0
    2.8799    3.8563   -2.5840 H   0  0  0  0  0  0  0  0  0  0  0  0
    1.4191    3.5378   -3.5252 H   0  0  0  0  0  0  0  0  0  0  0  0
    2.9584    2.9211   -4.1285 H   0  0  0  0  0  0  0  0  0  0  0  0
    4.8150    2.5467   -2.6622 H   0  0  0  0  0  0  0  0  0  0  0  0
    3.7320   -1.9673   -0.7686 H   0  0  0  0  0  0  0  0  0  0  0  0
    0.9147    0.3177   -1.8094 H   0  0  0  0  0  0  0  0  0  0  0  0
   -0.9016   -0.9191   -1.9475 H   0  0  0  0  0  0  0  0  0  0  0  0
   -0.9490   -2.5817   -1.3284 H   0  0  0  0  0  0  0  0  0  0  0  0
   -6.4372    0.3359    1.6048 H   0  0  0  0  0  0  0  0  0  0  0  0
   -7.1273   -0.2972    0.1321 H   0  0  0  0  0  0  0  0  0  0  0  0
   -7.0843   -1.0715    3.7567 H   0  0  0  0  0  0  0  0  0  0  0  0
   -7.9691   -3.4904    4.3691 H   0  0  0  0  0  0  0  0  0  0  0  0
   -8.1330   -5.0095    2.2249 H   0  0  0  0  0  0  0  0  0  0  0  0
   -2.7571   -0.9926    2.8053 H   0  0  0  0  0  0  0  0  0  0  0  0
   -4.4915   -1.0678    3.0031 H   0  0  0  0  0  0  0  0  0  0  0  0
   -5.6036    1.4159    3.8843 H   0  0  0  0  0  0  0  0  0  0  0  0
   -4.4877    3.9055    4.0037 H   0  0  0  0  0  0  0  0  0  0  0  0
   -2.0165    3.6106    2.8016 H   0  0  0  0  0  0  0  0  0  0  0  0
    9.0198   -1.7645   -0.6555 H   0  0  0  0  0  0  0  0  0  0  0  0
   10.7648   -0.0887   -1.3173 H   0  0  0  0  0  0  0  0  0  0  0  0
   10.1041    2.0876   -2.2832 H   0  0  0  0  0  0  0  0  0  0  0  0
    7.7069    2.6563   -2.6195 H   0  0  0  0  0  0  0  0  0  0  0  0
  1  2  1  0
  2  3  1  0
  3  4  2  0
  4  5  1  0
  5  6  2  0
  6  7  1  0
  7  8  2  0
  8  9  1  0
  9 10  1  0
 10 11  2  0
 10 12  1  0
 12 13  1  0
 13 14  1  0
 14 15  2  0
 15 16  1  0
 16 17  2  0
 17 18  1  0
 18 19  1  0
 19 20  2  0
 20 21  1  0
 21 22  2  0
 22 23  1  0
 17 24  1  0
 24 25  1  0
 25 26  1  0
 26 27  2  0
 27 28  1  0
 28 29  2  0
 29 30  1  0
  6 31  1  0
 31 32  1  0
 32 33  2  0
 33 34  1  0
 34 35  2  0
 35 36  1  0
 36 37  2  0
  8  3  1  0
 24 14  1  0
 30 26  1  0
 37 32  1  0
 37  5  1  0
 23 19  1  0
  1 38  1  0
  1 39  1  0
  1 40  1  0
  4 41  1  0
  7 42  1  0
  9 43  1  0
 12 44  1  0
 12 45  1  0
 18 46  1  0
 18 47  1  0
 20 48  1  0
 21 49  1  0
 22 50  1  0
 25 51  1  0
 25 52  1  0
 27 53  1  0
 28 54  1  0
 29 55  1  0
 33 56  1  0
 34 57  1  0
 35 58  1  0
 36 59  1  0
M  END
$$$$
