
     RDKit          3D

 68 71  0  0  0  0  0  0  0  0999 V2000
    7.7057   -2.5752    5.4511 C   0  0  0  0  0  0  0  0  0  0  0  0
    6.2780   -2.3977    5.1331 C   0  0  0  0  0  0  0  0  0  0  0  0
    5.5898   -1.7475    4.1391 C   0  0  0  0  0  0  0  0  0  0  0  0
    4.2312   -2.0112    4.4171 C   0  0  0  0  0  0  0  0  0  0  0  0
    3.1029   -1.6220    3.7287 N   0  0  0  0  0  0  0  0  0  0  0  0
    3.0882   -0.7978    2.6275 C   0  0  0  0  0  0  0  0  0  0  0  0
    4.0691   -0.2768    2.1055 O   0  0  0  0  0  0  0  0  0  0  0  0
    1.6870   -0.5999    2.0858 C   0  0  0  0  0  0  0  0  0  0  0  0
    1.6353    0.5313    1.0593 C   0  0  0  0  0  0  0  0  0  0  0  0
    0.2483    0.6748    0.4586 C   0  0  0  0  0  0  0  0  0  0  0  0
   -0.6531   -0.0928    0.8058 O   0  0  0  0  0  0  0  0  0  0  0  0
    0.0403    1.6888   -0.4673 N   0  0  0  0  0  0  0  0  0  0  0  0
    1.0924    2.6032   -0.9267 C   0  0  0  0  0  0  0  0  0  0  0  0
    1.5286    2.2375   -2.2988 C   0  0  0  0  0  0  0  0  0  0  0  0
    2.2973    1.2166   -2.8201 C   0  0  0  0  0  0  0  0  0  0  0  0
    2.2960    1.3961   -4.2231 C   0  0  0  0  0  0  0  0  0  0  0  0
    1.5464    2.5223   -4.4669 C   0  0  0  0  0  0  0  0  0  0  0  0
    1.0904    3.0501   -3.3041 O   0  0  0  0  0  0  0  0  0  0  0  0
   -1.2952    1.8560   -1.1155 C   0  0  0  0  0  0  0  0  0  0  0  0
   -1.6132    0.6245   -2.0139 C   0  0  0  0  0  0  0  0  0  0  0  0
   -1.4139    0.6349   -3.2302 O   0  0  0  0  0  0  0  0  0  0  0  0
   -2.0911   -0.4954   -1.3532 N   0  0  0  0  0  0  0  0  0  0  0  0
   -2.2059   -1.7646   -2.0323 C   0  0  0  0  0  0  0  0  0  0  0  0
   -2.5022   -2.9117   -1.0708 C   0  0  0  0  0  0  0  0  0  0  0  0
   -2.9643   -4.0231   -1.9993 C   0  0  0  0  0  0  0  0  0  0  0  0
   -3.7407   -3.3157   -3.1084 C   0  0  0  0  0  0  0  0  0  0  0  0
   -3.3830   -1.8312   -3.0071 C   0  0  0  0  0  0  0  0  0  0  0  0
   -2.4478    2.3288   -0.2093 C   0  0  0  0  0  0  0  0  0  0  0  0
   -2.2242    2.6414    1.1474 C   0  0  0  0  0  0  0  0  0  0  0  0
   -3.2530    3.0870    1.9795 C   0  0  0  0  0  0  0  0  0  0  0  0
   -4.5344    3.2475    1.4751 C   0  0  0  0  0  0  0  0  0  0  0  0
   -4.7807    2.9846    0.1323 C   0  0  0  0  0  0  0  0  0  0  0  0
   -3.7513    2.5561   -0.7271 C   0  0  0  0  0  0  0  0  0  0  0  0
   -4.1106    2.3452   -2.1762 C   0  0  0  0  0  0  0  0  0  0  0  0
    4.1051   -2.7594    5.5204 N   0  0  0  0  0  0  0  0  0  0  0  0
    5.3903   -2.9965    5.9713 O   0  0  0  0  0  0  0  0  0  0  0  0
    7.9137   -2.2716    6.4816 H   0  0  0  0  0  0  0  0  0  0  0  0
    7.9945   -3.6246    5.3365 H   0  0  0  0  0  0  0  0  0  0  0  0
    8.3322   -1.9748    4.7863 H   0  0  0  0  0  0  0  0  0  0  0  0
    6.0146   -1.1879    3.3172 H   0  0  0  0  0  0  0  0  0  0  0  0
    2.2398   -1.9662    4.1307 H   0  0  0  0  0  0  0  0  0  0  0  0
    1.3650   -1.5468    1.6322 H   0  0  0  0  0  0  0  0  0  0  0  0
    1.0072   -0.3777    2.9188 H   0  0  0  0  0  0  0  0  0  0  0  0
    1.9082    1.4683    1.5587 H   0  0  0  0  0  0  0  0  0  0  0  0
    2.3466    0.3321    0.2512 H   0  0  0  0  0  0  0  0  0  0  0  0
    0.6922    3.6229   -0.8938 H   0  0  0  0  0  0  0  0  0  0  0  0
    1.9576    2.5914   -0.2621 H   0  0  0  0  0  0  0  0  0  0  0  0
    2.7818    0.4274   -2.2591 H   0  0  0  0  0  0  0  0  0  0  0  0
    2.7736    0.7771   -4.9683 H   0  0  0  0  0  0  0  0  0  0  0  0
    1.2529    3.0480   -5.3645 H   0  0  0  0  0  0  0  0  0  0  0  0
   -1.1816    2.6904   -1.8228 H   0  0  0  0  0  0  0  0  0  0  0  0
   -1.8674   -0.5128   -0.3556 H   0  0  0  0  0  0  0  0  0  0  0  0
   -1.2677   -1.9591   -2.5707 H   0  0  0  0  0  0  0  0  0  0  0  0
   -1.6285   -3.1998   -0.4791 H   0  0  0  0  0  0  0  0  0  0  0  0
   -3.3046   -2.6411   -0.3723 H   0  0  0  0  0  0  0  0  0  0  0  0
   -3.5706   -4.7724   -1.4791 H   0  0  0  0  0  0  0  0  0  0  0  0
   -2.0946   -4.5354   -2.4309 H   0  0  0  0  0  0  0  0  0  0  0  0
   -4.8206   -3.4546   -2.9787 H   0  0  0  0  0  0  0  0  0  0  0  0
   -3.4719   -3.7256   -4.0884 H   0  0  0  0  0  0  0  0  0  0  0  0
   -4.2453   -1.2731   -2.6235 H   0  0  0  0  0  0  0  0  0  0  0  0
   -3.1330   -1.4071   -3.9846 H   0  0  0  0  0  0  0  0  0  0  0  0
   -1.2373    2.5435    1.5907 H   0  0  0  0  0  0  0  0  0  0  0  0
   -3.0506    3.3041    3.0236 H   0  0  0  0  0  0  0  0  0  0  0  0
   -5.3391    3.5905    2.1191 H   0  0  0  0  0  0  0  0  0  0  0  0
   -5.7893    3.1278   -0.2512 H   0  0  0  0  0  0  0  0  0  0  0  0
   -4.2558    1.2812   -2.3812 H   0  0  0  0  0  0  0  0  0  0  0  0
   -5.0402    2.8636   -2.4323 H   0  0  0  0  0  0  0  0  0  0  0  0
   -3.3393    2.7541   -2.8360 H   0  0  0  0  0  0  0  0  0  0  0  0
  1  2  1  0
  2  3  2  0
  3  4  1  0
  4  5  1  0
  5  6  1  0
  6  7  2  0
  6  8  1  0
  8  9  1  0
  9 10  1  0
 10 11  2  0
 10 12  1  0
 12 13  1  0
 13 14  1  0
 14 15  2  0
 15 16  1  0
 16 17  2  0
 17 18  1  0
 12 19  1  0
 19 20  1  0
 20 21  2  0
 20 22  1  0
 22 23  1  0
 23 24  1  0
 24 25  1  0
 25 26  1  0
 26 27  1  0
 19 28  1  0
 28 29  2  0
 29 30  1  0
 30 31  2  0
 31 32  1  0
 32 33  2  0
 33 34  1  0
  4 35  2  0
 35 36  1  0
 36  2  1  0
 18 14  1  0
 27 23  1  0
 33 28  1  0
  1 37  1  0
  1 38  1  0
  1 39  1  0
  3 40  1  0
  5 41  1  0
  8 42  1  0
  8 43  1  0
  9 44  1  0
  9 45  1  0
 13 46  1  0
 13 47  1  0
 15 48  1  0
 16 49  1  0
 17 50  1  0
 19 51  1  0
 22 52  1  0
 23 53  1  0
 24 54  1  0
 24 55  1  0
 25 56  1  0
 25 57  1  0
 26 58  1  0
 26 59  1  0
 27 60  1  0
 27 61  1  0
 29 62  1  0
 30 63  1  0
 31 64  1  0
 32 65  1  0
 34 66  1  0
 34 67  1  0
 34 68  1  0
M  END
$$$$
