
     RDKit          3D

 39 41  0  0  0  0  0  0  0  0999 V2000
    4.7209    0.4888    1.0554 C   0  0  0  0  0  0  0  0  0  0  0  0
    3.7392   -0.5087    0.6201 N   0  0  0  0  0  0  0  0  0  0  0  0
    4.3916   -1.5017   -0.2353 C   0  0  0  0  0  0  0  0  0  0  0  0
    2.6139    0.1585   -0.0622 C   0  0  0  0  0  0  0  0  0  0  0  0
    1.4118   -0.7740   -0.3140 C   0  0  0  0  0  0  0  0  0  0  0  0
    0.2571   -0.0199   -0.9319 C   0  0  0  0  0  0  0  0  0  0  0  0
   -1.0337    0.0498   -0.5320 C   0  0  0  0  0  0  0  0  0  0  0  0
   -1.9123    1.0394   -1.2188 C   0  0  0  0  0  0  0  0  0  0  0  0
   -1.9685    1.1440   -2.6179 C   0  0  0  0  0  0  0  0  0  0  0  0
   -2.8043    2.0823   -3.2265 C   0  0  0  0  0  0  0  0  0  0  0  0
   -3.5985    2.9193   -2.4463 C   0  0  0  0  0  0  0  0  0  0  0  0
   -3.5687    2.8120   -1.0553 C   0  0  0  0  0  0  0  0  0  0  0  0
   -2.7397    1.8684   -0.4353 C   0  0  0  0  0  0  0  0  0  0  0  0
   -2.7666    1.7597    1.3557 S   0  0  0  0  0  0  0  0  0  0  0  0
   -2.3434    0.0330    1.5894 C   0  0  0  0  0  0  0  0  0  0  0  0
   -2.8469   -0.6248    2.7196 C   0  0  0  0  0  0  0  0  0  0  0  0
   -2.5977   -1.9846    2.9122 C   0  0  0  0  0  0  0  0  0  0  0  0
   -1.8570   -2.6904    1.9680 C   0  0  0  0  0  0  0  0  0  0  0  0
   -1.5795   -4.3745    2.1874 Cl  0  0  0  0  0  0  0  0  0  0  0  0
   -1.3438   -2.0461    0.8431 C   0  0  0  0  0  0  0  0  0  0  0  0
   -1.5491   -0.6702    0.6614 C   0  0  0  0  0  0  0  0  0  0  0  0
    4.2631    1.2052    1.7466 H   0  0  0  0  0  0  0  0  0  0  0  0
    5.5405    0.0100    1.6031 H   0  0  0  0  0  0  0  0  0  0  0  0
    5.1467    1.0448    0.2122 H   0  0  0  0  0  0  0  0  0  0  0  0
    5.2419   -1.9576    0.2850 H   0  0  0  0  0  0  0  0  0  0  0  0
    4.7583   -1.0644   -1.1710 H   0  0  0  0  0  0  0  0  0  0  0  0
    3.7125   -2.3247   -0.4777 H   0  0  0  0  0  0  0  0  0  0  0  0
    2.9488    0.6071   -1.0073 H   0  0  0  0  0  0  0  0  0  0  0  0
    2.2587    0.9843    0.5696 H   0  0  0  0  0  0  0  0  0  0  0  0
    1.1396   -1.2382    0.6374 H   0  0  0  0  0  0  0  0  0  0  0  0
    1.6881   -1.5763   -1.0066 H   0  0  0  0  0  0  0  0  0  0  0  0
    0.5667    0.5816   -1.7874 H   0  0  0  0  0  0  0  0  0  0  0  0
   -1.3695    0.4885   -3.2455 H   0  0  0  0  0  0  0  0  0  0  0  0
   -2.8378    2.1568   -4.3107 H   0  0  0  0  0  0  0  0  0  0  0  0
   -4.2485    3.6506   -2.9202 H   0  0  0  0  0  0  0  0  0  0  0  0
   -4.2027    3.4643   -0.4592 H   0  0  0  0  0  0  0  0  0  0  0  0
   -3.4482   -0.0865    3.4489 H   0  0  0  0  0  0  0  0  0  0  0  0
   -2.9966   -2.4874    3.7892 H   0  0  0  0  0  0  0  0  0  0  0  0
   -0.7868   -2.6185    0.1058 H   0  0  0  0  0  0  0  0  0  0  0  0
  1  2  1  0
  2  3  1  0
  2  4  1  0
  4  5  1  0
  5  6  1  0
  6  7  2  3
  7  8  1  0
  8  9  2  0
  9 10  1  0
 10 11  2  0
 11 12  1  0
 12 13  2  0
 13 14  1  0
 14 15  1  0
 15 16  2  0
 16 17  1  0
 17 18  2  0
 18 19  1  0
 18 20  1  0
 20 21  2  0
 21  7  1  0
 13  8  1  0
 21 15  1  0
  1 22  1  0
  1 23  1  0
  1 24  1  0
  3 25  1  0
  3 26  1  0
  3 27  1  0
  4 28  1  0
  4 29  1  0
  5 30  1  0
  5 31  1  0
  6 32  1  0
  9 33  1  0
 10 34  1  0
 11 35  1  0
 12 36  1  0
 16 37  1  0
 17 38  1  0
 20 39  1  0
M  END
$$$$
