
     RDKit          3D

 59 64  0  0  0  0  0  0  0  0999 V2000
   -4.7056   -3.0465    0.6284 C   0  0  0  0  0  0  0  0  0  0  0  0
   -4.2754   -1.7186    0.3685 O   0  0  0  0  0  0  0  0  0  0  0  0
   -5.2103   -0.7149    0.4336 C   0  0  0  0  0  0  0  0  0  0  0  0
   -6.5734   -0.9386    0.6770 C   0  0  0  0  0  0  0  0  0  0  0  0
   -7.4751    0.1275    0.7287 C   0  0  0  0  0  0  0  0  0  0  0  0
   -7.0268    1.4287    0.5371 C   0  0  0  0  0  0  0  0  0  0  0  0
   -5.6749    1.6634    0.2927 C   0  0  0  0  0  0  0  0  0  0  0  0
   -4.7465    0.6085    0.2355 C   0  0  0  0  0  0  0  0  0  0  0  0
   -3.4061    0.9812   -0.0200 N   0  0  0  0  0  0  0  0  0  0  0  0
   -2.8949    0.4562   -1.3102 C   0  0  0  0  0  0  0  0  0  0  0  0
   -1.4919    1.0408   -1.5988 C   0  0  0  0  0  0  0  0  0  0  0  0
   -0.5513    0.7224   -0.4895 N   0  0  0  0  0  0  0  0  0  0  0  0
    0.7737    0.9939   -0.7109 C   0  0  0  0  0  0  0  0  0  0  0  0
    1.3457    2.1321   -1.2461 C   0  0  0  0  0  0  0  0  0  0  0  0
    2.7466    1.9957   -1.1687 C   0  0  0  0  0  0  0  0  0  0  0  0
    3.0175    0.7523   -0.6302 C   0  0  0  0  0  0  0  0  0  0  0  0
    4.2633    0.0912   -0.3031 C   0  0  0  0  0  0  0  0  0  0  0  0
    5.5673    0.7442   -0.5832 C   0  0  0  0  0  0  0  0  0  0  0  0
    6.5225    0.8083    0.4379 C   0  0  0  0  0  0  0  0  0  0  0  0
    7.7611    1.4035    0.1953 C   0  0  0  0  0  0  0  0  0  0  0  0
    8.0504    1.9208   -1.0683 C   0  0  0  0  0  0  0  0  0  0  0  0
    7.1074    1.8365   -2.0943 C   0  0  0  0  0  0  0  0  0  0  0  0
    5.8668    1.2423   -1.8561 C   0  0  0  0  0  0  0  0  0  0  0  0
    4.2707   -1.0798    0.2609 N   0  0  0  0  0  0  0  0  0  0  0  0
    3.0479   -1.7382    0.4947 C   0  0  0  0  0  0  0  0  0  0  0  0
    3.1023   -3.0211    1.0487 C   0  0  0  0  0  0  0  0  0  0  0  0
    1.9355   -3.7504    1.2804 C   0  0  0  0  0  0  0  0  0  0  0  0
    0.6989   -3.2021    0.9493 C   0  0  0  0  0  0  0  0  0  0  0  0
    0.6240   -1.9218    0.3958 C   0  0  0  0  0  0  0  0  0  0  0  0
    1.7935   -1.1850    0.1816 C   0  0  0  0  0  0  0  0  0  0  0  0
    1.8086    0.1245   -0.3641 N   0  0  0  0  0  0  0  0  0  0  0  0
   -1.0777    1.2263    0.8160 C   0  0  0  0  0  0  0  0  0  0  0  0
   -2.4897    0.6625    1.1022 C   0  0  0  0  0  0  0  0  0  0  0  0
   -5.1175   -3.1388    1.6385 H   0  0  0  0  0  0  0  0  0  0  0  0
   -3.8287   -3.6988    0.5671 H   0  0  0  0  0  0  0  0  0  0  0  0
   -5.4226   -3.3831   -0.1267 H   0  0  0  0  0  0  0  0  0  0  0  0
   -6.9701   -1.9363    0.8299 H   0  0  0  0  0  0  0  0  0  0  0  0
   -8.5287   -0.0611    0.9182 H   0  0  0  0  0  0  0  0  0  0  0  0
   -7.7236    2.2612    0.5765 H   0  0  0  0  0  0  0  0  0  0  0  0
   -5.3279    2.6835    0.1432 H   0  0  0  0  0  0  0  0  0  0  0  0
   -2.8213   -0.6374   -1.2969 H   0  0  0  0  0  0  0  0  0  0  0  0
   -3.5688    0.7436   -2.1266 H   0  0  0  0  0  0  0  0  0  0  0  0
   -1.1188    0.6116   -2.5371 H   0  0  0  0  0  0  0  0  0  0  0  0
   -1.5690    2.1286   -1.7270 H   0  0  0  0  0  0  0  0  0  0  0  0
    0.8040    2.9974   -1.6034 H   0  0  0  0  0  0  0  0  0  0  0  0
    3.4733    2.7414   -1.4631 H   0  0  0  0  0  0  0  0  0  0  0  0
    6.3015    0.3950    1.4195 H   0  0  0  0  0  0  0  0  0  0  0  0
    8.5018    1.4578    0.9894 H   0  0  0  0  0  0  0  0  0  0  0  0
    9.0176    2.3806   -1.2567 H   0  0  0  0  0  0  0  0  0  0  0  0
    7.3434    2.2248   -3.0820 H   0  0  0  0  0  0  0  0  0  0  0  0
    5.1499    1.1547   -2.6685 H   0  0  0  0  0  0  0  0  0  0  0  0
    4.0694   -3.4538    1.2921 H   0  0  0  0  0  0  0  0  0  0  0  0
    1.9951   -4.7476    1.7078 H   0  0  0  0  0  0  0  0  0  0  0  0
   -0.2116   -3.7729    1.1144 H   0  0  0  0  0  0  0  0  0  0  0  0
   -0.3541   -1.5414    0.1271 H   0  0  0  0  0  0  0  0  0  0  0  0
   -0.4091    0.9295    1.6337 H   0  0  0  0  0  0  0  0  0  0  0  0
   -1.1174    2.3238    0.7950 H   0  0  0  0  0  0  0  0  0  0  0  0
   -2.4063   -0.4191    1.2575 H   0  0  0  0  0  0  0  0  0  0  0  0
   -2.8646    1.1109    2.0307 H   0  0  0  0  0  0  0  0  0  0  0  0
  1  2  1  0
  2  3  1  0
  3  4  2  0
  4  5  1  0
  5  6  2  0
  6  7  1  0
  7  8  2  0
  8  9  1  0
  9 10  1  0
 10 11  1  0
 11 12  1  0
 12 13  1  0
 13 14  2  0
 14 15  1  0
 15 16  2  0
 16 17  1  0
 17 18  1  0
 18 19  2  0
 19 20  1  0
 20 21  2  0
 21 22  1  0
 22 23  2  0
 17 24  2  0
 24 25  1  0
 25 26  2  0
 26 27  1  0
 27 28  2  0
 28 29  1  0
 29 30  2  0
 30 31  1  0
 12 32  1  0
 32 33  1  0
  8  3  1  0
 33  9  1  0
 31 13  1  0
 31 16  1  0
 23 18  1  0
 30 25  1  0
  1 34  1  0
  1 35  1  0
  1 36  1  0
  4 37  1  0
  5 38  1  0
  6 39  1  0
  7 40  1  0
 10 41  1  0
 10 42  1  0
 11 43  1  0
 11 44  1  0
 14 45  1  0
 15 46  1  0
 19 47  1  0
 20 48  1  0
 21 49  1  0
 22 50  1  0
 23 51  1  0
 26 52  1  0
 27 53  1  0
 28 54  1  0
 29 55  1  0
 32 56  1  0
 32 57  1  0
 33 58  1  0
 33 59  1  0
M  END
$$$$
