
     RDKit          3D

 32 34  0  0  0  0  0  0  0  0999 V2000
    0.3003    1.1937   -2.4108 O   0  0  0  0  0  0  0  0  0  0  0  0
   -0.2515    0.6801   -1.4418 C   0  0  0  0  0  0  0  0  0  0  0  0
   -1.7584    0.8584   -1.2291 C   0  0  0  0  0  0  0  0  0  0  0  0
   -2.1973    0.1798   -0.0544 O   0  0  0  0  0  0  0  0  0  0  0  0
   -3.5299    0.2535    0.2427 C   0  0  0  0  0  0  0  0  0  0  0  0
   -3.9088   -0.4414    1.3958 C   0  0  0  0  0  0  0  0  0  0  0  0
   -5.2406   -0.4512    1.8166 C   0  0  0  0  0  0  0  0  0  0  0  0
   -6.1984    0.2381    1.0789 C   0  0  0  0  0  0  0  0  0  0  0  0
   -8.0028    0.2296    1.6399 Br  0  0  0  0  0  0  0  0  0  0  0  0
   -5.8334    0.9348   -0.0715 C   0  0  0  0  0  0  0  0  0  0  0  0
   -4.4981    0.9425   -0.4904 C   0  0  0  0  0  0  0  0  0  0  0  0
    0.3382   -0.0810   -0.4603 N   0  0  0  0  0  0  0  0  0  0  0  0
    1.6568   -0.4356   -0.3539 C   0  0  0  0  0  0  0  0  0  0  0  0
    2.1053   -1.1749    0.6378 N   0  0  0  0  0  0  0  0  0  0  0  0
    3.4640   -1.4098    0.5389 N   0  0  0  0  0  0  0  0  0  0  0  0
    3.9740   -0.8270   -0.5227 C   0  0  0  0  0  0  0  0  0  0  0  0
    5.4867   -0.9336   -0.8857 C   0  0  0  0  0  0  0  0  0  0  0  0
    6.5146   -0.8479    0.2140 C   0  0  0  0  0  0  0  0  0  0  0  0
    6.3651    0.2854   -0.7584 C   0  0  0  0  0  0  0  0  0  0  0  0
    2.8486    0.0299   -1.4798 S   0  0  0  0  0  0  0  0  0  0  0  0
   -2.2576    0.4451   -2.1132 H   0  0  0  0  0  0  0  0  0  0  0  0
   -1.9435    1.9347   -1.1344 H   0  0  0  0  0  0  0  0  0  0  0  0
   -3.1629   -0.9820    1.9741 H   0  0  0  0  0  0  0  0  0  0  0  0
   -5.5159   -0.9975    2.7148 H   0  0  0  0  0  0  0  0  0  0  0  0
   -6.5790    1.4750   -0.6499 H   0  0  0  0  0  0  0  0  0  0  0  0
   -4.2547    1.4969   -1.3912 H   0  0  0  0  0  0  0  0  0  0  0  0
   -0.2564   -0.4357    0.2810 H   0  0  0  0  0  0  0  0  0  0  0  0
    5.6958   -1.6201   -1.6991 H   0  0  0  0  0  0  0  0  0  0  0  0
    7.3927   -1.4781    0.1345 H   0  0  0  0  0  0  0  0  0  0  0  0
    6.1712   -0.6966    1.2319 H   0  0  0  0  0  0  0  0  0  0  0  0
    5.9322    1.2087   -0.3902 H   0  0  0  0  0  0  0  0  0  0  0  0
    7.1437    0.4263   -1.4994 H   0  0  0  0  0  0  0  0  0  0  0  0
  1  2  2  0
  2  3  1  0
  3  4  1  0
  4  5  1  0
  5  6  2  0
  6  7  1  0
  7  8  2  0
  8  9  1  0
  8 10  1  0
 10 11  2  0
  2 12  1  0
 12 13  1  0
 13 14  2  0
 14 15  1  0
 15 16  2  0
 16 17  1  0
 17 18  1  0
 18 19  1  0
 16 20  1  0
 11  5  1  0
 20 13  1  0
 19 17  1  0
  3 21  1  0
  3 22  1  0
  6 23  1  0
  7 24  1  0
 10 25  1  0
 11 26  1  0
 12 27  1  0
 17 28  1  0
 18 29  1  0
 18 30  1  0
 19 31  1  0
 19 32  1  0
M  END
$$$$
