
     RDKit          3D

 49 52  0  0  0  0  0  0  0  0999 V2000
   -6.2522   -5.7721   -1.5698 C   0  0  0  0  0  0  0  0  0  0  0  0
   -5.5144   -4.5731   -1.3279 O   0  0  0  0  0  0  0  0  0  0  0  0
   -5.2251   -4.3513   -0.0116 C   0  0  0  0  0  0  0  0  0  0  0  0
   -5.5732   -5.1058    0.8899 O   0  0  0  0  0  0  0  0  0  0  0  0
   -4.4683   -3.1277    0.1374 C   0  0  0  0  0  0  0  0  0  0  0  0
   -3.9533   -2.6522    1.7080 S   0  0  0  0  0  0  0  0  0  0  0  0
   -3.2056   -1.2734    1.0597 C   0  0  0  0  0  0  0  0  0  0  0  0
   -2.5418   -0.3471    1.8219 N   0  0  0  0  0  0  0  0  0  0  0  0
   -2.2978   -0.4013    3.1757 C   0  0  0  0  0  0  0  0  0  0  0  0
   -2.6096   -1.3072    3.9444 O   0  0  0  0  0  0  0  0  0  0  0  0
   -1.5969    0.8360    3.7142 C   0  0  0  0  0  0  0  0  0  0  0  0
    0.1949    0.7518    3.4319 S   0  0  0  0  0  0  0  0  0  0  0  0
    0.3099    1.4410    1.8546 C   0  0  0  0  0  0  0  0  0  0  0  0
   -0.7033    1.7076    1.0662 N   0  0  0  0  0  0  0  0  0  0  0  0
   -0.2014    2.2196   -0.0980 N   0  0  0  0  0  0  0  0  0  0  0  0
    1.1172    2.2584   -0.0050 C   0  0  0  0  0  0  0  0  0  0  0  0
    2.0200    2.7869   -1.0679 C   0  0  0  0  0  0  0  0  0  0  0  0
    3.1822    1.9575   -1.3320 N   0  0  0  0  0  0  0  0  0  0  0  0
    3.0577    0.6246   -1.4946 N   0  0  0  0  0  0  0  0  0  0  0  0
    4.2704    0.1302   -1.7043 N   0  0  0  0  0  0  0  0  0  0  0  0
    5.1615    1.1679   -1.6941 C   0  0  0  0  0  0  0  0  0  0  0  0
    6.5511    1.1796   -1.8755 C   0  0  0  0  0  0  0  0  0  0  0  0
    7.2238    2.4066   -1.8140 C   0  0  0  0  0  0  0  0  0  0  0  0
    6.5266    3.5935   -1.5762 C   0  0  0  0  0  0  0  0  0  0  0  0
    5.1390    3.5998   -1.3902 C   0  0  0  0  0  0  0  0  0  0  0  0
    4.4884    2.3618   -1.4562 C   0  0  0  0  0  0  0  0  0  0  0  0
    1.4815    1.7975    1.2448 N   0  0  0  0  0  0  0  0  0  0  0  0
    2.8102    1.7264    1.7979 C   0  0  0  0  0  0  0  0  0  0  0  0
   -3.3222   -1.1250   -0.2370 N   0  0  0  0  0  0  0  0  0  0  0  0
   -4.0348   -2.1839   -0.7838 C   0  0  0  0  0  0  0  0  0  0  0  0
   -4.2390   -2.1749   -2.2574 C   0  0  0  0  0  0  0  0  0  0  0  0
   -7.2270   -5.7310   -1.0712 H   0  0  0  0  0  0  0  0  0  0  0  0
   -6.4184   -5.8542   -2.6475 H   0  0  0  0  0  0  0  0  0  0  0  0
   -5.6828   -6.6468   -1.2408 H   0  0  0  0  0  0  0  0  0  0  0  0
   -2.1408    0.4106    1.2714 H   0  0  0  0  0  0  0  0  0  0  0  0
   -2.0416    1.7453    3.2959 H   0  0  0  0  0  0  0  0  0  0  0  0
   -1.7685    0.8747    4.7956 H   0  0  0  0  0  0  0  0  0  0  0  0
    2.3630    3.7872   -0.7845 H   0  0  0  0  0  0  0  0  0  0  0  0
    1.4815    2.8708   -2.0192 H   0  0  0  0  0  0  0  0  0  0  0  0
    7.0867    0.2552   -2.0645 H   0  0  0  0  0  0  0  0  0  0  0  0
    8.3018    2.4330   -1.9591 H   0  0  0  0  0  0  0  0  0  0  0  0
    7.0749    4.5337   -1.5388 H   0  0  0  0  0  0  0  0  0  0  0  0
    4.6084    4.5293   -1.2129 H   0  0  0  0  0  0  0  0  0  0  0  0
    3.4134    2.5459    1.4015 H   0  0  0  0  0  0  0  0  0  0  0  0
    2.7731    1.8382    2.8831 H   0  0  0  0  0  0  0  0  0  0  0  0
    3.2482    0.7601    1.5340 H   0  0  0  0  0  0  0  0  0  0  0  0
   -3.7910   -1.2824   -2.7073 H   0  0  0  0  0  0  0  0  0  0  0  0
   -3.7705   -3.0510   -2.7160 H   0  0  0  0  0  0  0  0  0  0  0  0
   -5.3058   -2.1703   -2.5012 H   0  0  0  0  0  0  0  0  0  0  0  0
  1  2  1  0
  2  3  1  0
  3  4  2  0
  3  5  1  0
  5  6  1  0
  6  7  1  0
  7  8  1  0
  8  9  1  0
  9 10  2  0
  9 11  1  0
 11 12  1  0
 12 13  1  0
 13 14  2  0
 14 15  1  0
 15 16  2  0
 16 17  1  0
 17 18  1  0
 18 19  1  0
 19 20  2  0
 20 21  1  0
 21 22  2  0
 22 23  1  0
 23 24  2  0
 24 25  1  0
 25 26  2  0
 16 27  1  0
 27 28  1  0
  7 29  2  0
 29 30  1  0
 30 31  1  0
 30  5  2  0
 27 13  1  0
 26 18  1  0
 26 21  1  0
  1 32  1  0
  1 33  1  0
  1 34  1  0
  8 35  1  0
 11 36  1  0
 11 37  1  0
 17 38  1  0
 17 39  1  0
 22 40  1  0
 23 41  1  0
 24 42  1  0
 25 43  1  0
 28 44  1  0
 28 45  1  0
 28 46  1  0
 31 47  1  0
 31 48  1  0
 31 49  1  0
M  END
$$$$
