
     RDKit          3D

 41 42  0  0  0  0  0  0  0  0999 V2000
   -5.0619   -1.4560   -0.8943 C   0  0  0  0  0  0  0  0  0  0  0  0
   -4.5925   -1.1391    0.5174 C   0  0  0  0  0  0  0  0  0  0  0  0
   -3.6833    0.0152    0.5348 N   0  0  0  0  0  0  0  0  0  0  0  0
   -4.3112    1.3409    0.6308 C   0  0  0  0  0  0  0  0  0  0  0  0
   -4.2050    2.1128   -0.6778 C   0  0  0  0  0  0  0  0  0  0  0  0
   -2.3023   -0.1474    0.4874 C   0  0  0  0  0  0  0  0  0  0  0  0
   -1.4125    0.8895    0.8134 C   0  0  0  0  0  0  0  0  0  0  0  0
   -0.0176    0.7315    0.7678 C   0  0  0  0  0  0  0  0  0  0  0  0
    0.5509   -0.4794    0.3766 C   0  0  0  0  0  0  0  0  0  0  0  0
    2.0139   -0.6127    0.3657 C   0  0  0  0  0  0  0  0  0  0  0  0
    2.6872   -1.3520   -0.5294 C   0  0  0  0  0  0  0  0  0  0  0  0
    4.1637   -1.5192   -0.5308 C   0  0  0  0  0  0  0  0  0  0  0  0
    4.6479   -2.5792   -0.9159 O   0  0  0  0  0  0  0  0  0  0  0  0
    5.0500   -0.4253   -0.0875 C   0  0  0  0  0  0  0  0  0  0  0  0
    4.7827    0.9235   -0.3324 C   0  0  0  0  0  0  0  0  0  0  0  0
    5.6880    1.8880    0.1067 C   0  0  0  0  0  0  0  0  0  0  0  0
    6.8331    1.4671    0.7656 C   0  0  0  0  0  0  0  0  0  0  0  0
    7.1288    0.1704    1.0014 N   0  0  0  0  0  0  0  0  0  0  0  0
    6.2364   -0.7497    0.5574 C   0  0  0  0  0  0  0  0  0  0  0  0
   -0.3070   -1.5316    0.0629 C   0  0  0  0  0  0  0  0  0  0  0  0
   -1.7005   -1.3609    0.1145 C   0  0  0  0  0  0  0  0  0  0  0  0
   -5.6997   -2.3455   -0.8885 H   0  0  0  0  0  0  0  0  0  0  0  0
   -4.2218   -1.6432   -1.5697 H   0  0  0  0  0  0  0  0  0  0  0  0
   -5.6465   -0.6292   -1.3095 H   0  0  0  0  0  0  0  0  0  0  0  0
   -5.4709   -0.9285    1.1405 H   0  0  0  0  0  0  0  0  0  0  0  0
   -4.1362   -2.0226    0.9786 H   0  0  0  0  0  0  0  0  0  0  0  0
   -3.8922    1.9191    1.4617 H   0  0  0  0  0  0  0  0  0  0  0  0
   -5.3771    1.2366    0.8694 H   0  0  0  0  0  0  0  0  0  0  0  0
   -4.7214    3.0740   -0.5893 H   0  0  0  0  0  0  0  0  0  0  0  0
   -4.6622    1.5586   -1.5032 H   0  0  0  0  0  0  0  0  0  0  0  0
   -3.1656    2.3164   -0.9512 H   0  0  0  0  0  0  0  0  0  0  0  0
   -1.7808    1.8600    1.1305 H   0  0  0  0  0  0  0  0  0  0  0  0
    0.6099    1.5770    1.0399 H   0  0  0  0  0  0  0  0  0  0  0  0
    2.5320   -0.0631    1.1478 H   0  0  0  0  0  0  0  0  0  0  0  0
    2.1813   -1.9443   -1.2856 H   0  0  0  0  0  0  0  0  0  0  0  0
    3.8936    1.2333   -0.8741 H   0  0  0  0  0  0  0  0  0  0  0  0
    5.5101    2.9436   -0.0683 H   0  0  0  0  0  0  0  0  0  0  0  0
    7.5680    2.1821    1.1256 H   0  0  0  0  0  0  0  0  0  0  0  0
    6.5119   -1.7847    0.7463 H   0  0  0  0  0  0  0  0  0  0  0  0
    0.0826   -2.5067   -0.2189 H   0  0  0  0  0  0  0  0  0  0  0  0
   -2.3036   -2.2194   -0.1649 H   0  0  0  0  0  0  0  0  0  0  0  0
  1  2  1  0
  2  3  1  0
  3  4  1  0
  4  5  1  0
  3  6  1  0
  6  7  2  0
  7  8  1  0
  8  9  2  0
  9 10  1  0
 10 11  2  3
 11 12  1  0
 12 13  2  0
 12 14  1  0
 14 15  2  0
 15 16  1  0
 16 17  2  0
 17 18  1  0
 18 19  2  0
  9 20  1  0
 20 21  2  0
 21  6  1  0
 19 14  1  0
  1 22  1  0
  1 23  1  0
  1 24  1  0
  2 25  1  0
  2 26  1  0
  4 27  1  0
  4 28  1  0
  5 29  1  0
  5 30  1  0
  5 31  1  0
  7 32  1  0
  8 33  1  0
 10 34  1  0
 11 35  1  0
 15 36  1  0
 16 37  1  0
 17 38  1  0
 19 39  1  0
 20 40  1  0
 21 41  1  0
M  END
$$$$
