
     RDKit          3D

 27 27  0  0  0  0  0  0  0  0999 V2000
    0.1839   -0.1284   -2.2142 C   0  0  0  0  0  0  0  0  0  0  0  0
   -0.9377   -0.5378   -1.2509 C   0  0  0  0  0  0  0  0  0  0  0  0
   -2.1165    0.4439   -1.3116 C   0  0  0  0  0  0  0  0  0  0  0  0
   -1.4699   -1.9153   -1.7132 C   0  0  0  0  0  0  0  0  0  0  0  0
   -0.3262   -0.7469    0.4428 S   0  0  0  0  0  6  0  0  0  0  0  0
    0.6776   -1.7942    0.4214 O   0  0  0  0  0  0  0  0  0  0  0  0
   -1.4546   -0.7692    1.3503 O   0  0  0  0  0  0  0  0  0  0  0  0
    0.5817    0.6373    0.9879 C   0  0  0  0  0  0  0  0  0  0  0  0
    0.5462    1.9543    0.4353 C   0  0  0  0  0  0  0  0  0  0  0  0
    1.4118    2.8151    1.0725 C   0  0  0  0  0  0  0  0  0  0  0  0
    2.2468    2.0541    2.3460 S   0  0  0  0  0  0  0  0  0  0  0  0
    1.4373    0.5614    2.0815 C   0  0  0  0  0  0  0  0  0  0  0  0
    1.6645   -0.5537    2.9766 C   0  0  0  0  0  0  0  0  0  0  0  0
    0.8802   -1.4297    3.3065 O   0  0  0  0  0  0  0  0  0  0  0  0
    2.9193   -0.5679    3.4830 O   0  0  0  0  0  0  0  0  0  0  0  0
   -0.1684   -0.1412   -3.2522 H   0  0  0  0  0  0  0  0  0  0  0  0
    1.0371   -0.8124   -2.1470 H   0  0  0  0  0  0  0  0  0  0  0  0
    0.5584    0.8784   -2.0224 H   0  0  0  0  0  0  0  0  0  0  0  0
   -2.9549    0.0974   -0.6965 H   0  0  0  0  0  0  0  0  0  0  0  0
   -1.8586    1.4424   -0.9591 H   0  0  0  0  0  0  0  0  0  0  0  0
   -2.4863    0.5477   -2.3383 H   0  0  0  0  0  0  0  0  0  0  0  0
   -1.8940   -1.8594   -2.7223 H   0  0  0  0  0  0  0  0  0  0  0  0
   -2.2532   -2.2846   -1.0414 H   0  0  0  0  0  0  0  0  0  0  0  0
   -0.6737   -2.6680   -1.7309 H   0  0  0  0  0  0  0  0  0  0  0  0
   -0.0575    2.2920   -0.3933 H   0  0  0  0  0  0  0  0  0  0  0  0
    1.5923    3.8588    0.8509 H   0  0  0  0  0  0  0  0  0  0  0  0
    2.9143   -1.3743    4.0386 H   0  0  0  0  0  0  0  0  0  0  0  0
  1  2  1  0
  2  3  1  0
  2  4  1  0
  2  5  1  0
  5  6  2  0
  5  7  2  0
  5  8  1  0
  8  9  1  0
  9 10  2  0
 10 11  1  0
 11 12  1  0
 12 13  1  0
 13 14  2  0
 13 15  1  0
 12  8  2  0
  1 16  1  0
  1 17  1  0
  1 18  1  0
  3 19  1  0
  3 20  1  0
  3 21  1  0
  4 22  1  0
  4 23  1  0
  4 24  1  0
  9 25  1  0
 10 26  1  0
 15 27  1  0
M  END
$$$$
