
     RDKit          3D

 32 32  0  0  0  0  0  0  0  0999 V2000
   -1.3586    4.2649   -4.6244 C   0  0  0  0  0  0  0  0  0  0  0  0
   -1.0105    3.4847   -3.7797 C   0  0  0  0  0  0  0  0  0  0  0  0
   -0.5788    2.5321   -2.7426 C   0  0  0  0  0  0  0  0  0  0  0  0
   -1.7018    1.7225   -2.2511 N   0  0  0  0  0  0  0  0  0  0  0  0
   -2.1501    0.7501   -3.2481 C   0  0  0  0  0  0  0  0  0  0  0  0
   -1.4146    1.0962   -0.9526 C   0  0  0  0  0  0  0  0  0  0  0  0
   -0.2554    0.0952   -0.9148 C   0  0  0  0  0  0  0  0  0  0  0  0
   -0.0671   -0.4697    0.4913 C   0  0  0  0  0  0  0  0  0  0  0  0
    1.0315   -1.3910    0.4486 O   0  0  0  0  0  0  0  0  0  0  0  0
    1.3857   -1.7746    1.7163 C   0  0  0  0  0  0  0  0  0  0  0  0
    0.7104   -2.8472    2.3018 C   0  0  0  0  0  0  0  0  0  0  0  0
    1.0821   -3.2772    3.5741 C   0  0  0  0  0  0  0  0  0  0  0  0
    0.2465   -4.5890    4.3091 Cl  0  0  0  0  0  0  0  0  0  0  0  0
    2.1284   -2.6550    4.2565 C   0  0  0  0  0  0  0  0  0  0  0  0
    2.8167   -1.5957    3.6585 C   0  0  0  0  0  0  0  0  0  0  0  0
    2.4510   -1.1587    2.3836 C   0  0  0  0  0  0  0  0  0  0  0  0
    3.3274    0.1443    1.6702 Cl  0  0  0  0  0  0  0  0  0  0  0  0
   -1.6750    4.9565   -5.3703 H   0  0  0  0  0  0  0  0  0  0  0  0
    0.2313    1.9014   -3.1286 H   0  0  0  0  0  0  0  0  0  0  0  0
   -0.1581    3.1207   -1.9173 H   0  0  0  0  0  0  0  0  0  0  0  0
   -2.9748    0.1455   -2.8539 H   0  0  0  0  0  0  0  0  0  0  0  0
   -2.5419    1.2522   -4.1393 H   0  0  0  0  0  0  0  0  0  0  0  0
   -1.3496    0.0736   -3.5660 H   0  0  0  0  0  0  0  0  0  0  0  0
   -2.3280    0.6007   -0.5977 H   0  0  0  0  0  0  0  0  0  0  0  0
   -1.2244    1.8924   -0.2207 H   0  0  0  0  0  0  0  0  0  0  0  0
   -0.4296   -0.7359   -1.6080 H   0  0  0  0  0  0  0  0  0  0  0  0
    0.6817    0.5670   -1.2331 H   0  0  0  0  0  0  0  0  0  0  0  0
   -0.9764   -0.9955    0.8076 H   0  0  0  0  0  0  0  0  0  0  0  0
    0.1384    0.3474    1.1946 H   0  0  0  0  0  0  0  0  0  0  0  0
   -0.0919   -3.3435    1.7637 H   0  0  0  0  0  0  0  0  0  0  0  0
    2.4175   -2.9941    5.2483 H   0  0  0  0  0  0  0  0  0  0  0  0
    3.6382   -1.1203    4.1887 H   0  0  0  0  0  0  0  0  0  0  0  0
  1  2  3  0
  2  3  1  0
  3  4  1  0
  4  5  1  0
  4  6  1  0
  6  7  1  0
  7  8  1  0
  8  9  1  0
  9 10  1  0
 10 11  2  0
 11 12  1  0
 12 13  1  0
 12 14  2  0
 14 15  1  0
 15 16  2  0
 16 17  1  0
 16 10  1  0
  1 18  1  0
  3 19  1  0
  3 20  1  0
  5 21  1  0
  5 22  1  0
  5 23  1  0
  6 24  1  0
  6 25  1  0
  7 26  1  0
  7 27  1  0
  8 28  1  0
  8 29  1  0
 11 30  1  0
 14 31  1  0
 15 32  1  0
M  END
$$$$
