
     RDKit          3D

 54 57  0  0  0  0  0  0  0  0999 V2000
    5.7170    1.4300    3.8311 C   0  0  0  0  0  0  0  0  0  0  0  0
    4.9470    1.0123    2.5887 C   0  0  0  0  0  0  0  0  0  0  0  0
    3.5148    0.6077    2.9016 C   0  0  0  0  0  0  0  0  0  0  0  0
    3.0365    0.7477    4.0269 O   0  0  0  0  0  0  0  0  0  0  0  0
    2.7750    0.0792    1.8537 N   0  0  0  0  0  0  0  0  0  0  0  0
    3.2666   -0.1046    0.4813 C   0  0  0  0  0  0  0  0  0  0  0  0
    2.1396   -0.1161   -0.5679 C   0  0  0  0  0  0  0  0  0  0  0  0
    1.0439   -1.0623   -0.2448 N   0  0  0  0  0  0  0  0  0  0  0  0
    0.9339   -2.1392   -1.1611 C   0  0  0  0  0  0  0  0  0  0  0  0
    1.9338   -3.1110   -1.3026 C   0  0  0  0  0  0  0  0  0  0  0  0
    1.7779   -4.1538   -2.2173 C   0  0  0  0  0  0  0  0  0  0  0  0
    0.6229   -4.2293   -2.9948 C   0  0  0  0  0  0  0  0  0  0  0  0
    0.4447   -5.5235   -4.1170 Cl  0  0  0  0  0  0  0  0  0  0  0  0
   -0.3842   -3.2729   -2.8741 C   0  0  0  0  0  0  0  0  0  0  0  0
   -0.2315   -2.2272   -1.9642 C   0  0  0  0  0  0  0  0  0  0  0  0
   -1.1821   -1.2039   -1.7642 N   0  0  0  0  0  0  0  0  0  0  0  0
   -2.3667   -0.9911   -2.4322 C   0  0  0  0  0  0  0  0  0  0  0  0
   -2.7988   -1.6451   -3.3741 O   0  0  0  0  0  0  0  0  0  0  0  0
   -3.1543    0.1845   -1.9597 C   0  0  0  0  0  0  0  0  0  0  0  0
   -3.9439    0.8760   -2.8906 C   0  0  0  0  0  0  0  0  0  0  0  0
   -4.6927    1.9861   -2.4928 C   0  0  0  0  0  0  0  0  0  0  0  0
   -4.6631    2.4009   -1.1638 C   0  0  0  0  0  0  0  0  0  0  0  0
   -3.8696    1.7195   -0.2340 C   0  0  0  0  0  0  0  0  0  0  0  0
   -3.1319    0.6016   -0.6224 C   0  0  0  0  0  0  0  0  0  0  0  0
   -3.7745    2.0865    1.0846 O   0  0  0  0  0  0  0  0  0  0  0  0
   -4.2782    3.4111    1.2952 C   0  0  0  0  0  0  0  0  0  0  0  0
   -5.6042    3.6034    0.5776 C   0  0  0  0  0  0  0  0  0  0  0  0
   -5.4343    3.4871   -0.8396 O   0  0  0  0  0  0  0  0  0  0  0  0
    0.9807   -1.5119    1.1677 C   0  0  0  0  0  0  0  0  0  0  0  0
    1.4081   -0.3858    2.1221 C   0  0  0  0  0  0  0  0  0  0  0  0
    6.7414    1.7113    3.5669 H   0  0  0  0  0  0  0  0  0  0  0  0
    5.2428    2.2880    4.3191 H   0  0  0  0  0  0  0  0  0  0  0  0
    5.7630    0.6122    4.5582 H   0  0  0  0  0  0  0  0  0  0  0  0
    4.9254    1.8544    1.8887 H   0  0  0  0  0  0  0  0  0  0  0  0
    5.4634    0.1684    2.1186 H   0  0  0  0  0  0  0  0  0  0  0  0
    3.9831    0.6823    0.2295 H   0  0  0  0  0  0  0  0  0  0  0  0
    3.8057   -1.0591    0.4673 H   0  0  0  0  0  0  0  0  0  0  0  0
    1.6902    0.8844   -0.6023 H   0  0  0  0  0  0  0  0  0  0  0  0
    2.5620   -0.2961   -1.5649 H   0  0  0  0  0  0  0  0  0  0  0  0
    2.8373   -3.0695   -0.7019 H   0  0  0  0  0  0  0  0  0  0  0  0
    2.5571   -4.9051   -2.3180 H   0  0  0  0  0  0  0  0  0  0  0  0
   -1.2718   -3.3604   -3.4916 H   0  0  0  0  0  0  0  0  0  0  0  0
   -0.8659   -0.5296   -1.0728 H   0  0  0  0  0  0  0  0  0  0  0  0
   -3.9762    0.5496   -3.9289 H   0  0  0  0  0  0  0  0  0  0  0  0
   -5.3046    2.5183   -3.2169 H   0  0  0  0  0  0  0  0  0  0  0  0
   -2.5620    0.0643    0.1296 H   0  0  0  0  0  0  0  0  0  0  0  0
   -4.4067    3.5491    2.3732 H   0  0  0  0  0  0  0  0  0  0  0  0
   -3.5252    4.1293    0.9465 H   0  0  0  0  0  0  0  0  0  0  0  0
   -6.0039    4.6014    0.7826 H   0  0  0  0  0  0  0  0  0  0  0  0
   -6.3478    2.8638    0.9008 H   0  0  0  0  0  0  0  0  0  0  0  0
    1.6328   -2.3782    1.3383 H   0  0  0  0  0  0  0  0  0  0  0  0
   -0.0470   -1.8138    1.4015 H   0  0  0  0  0  0  0  0  0  0  0  0
    0.7481    0.4826    2.0041 H   0  0  0  0  0  0  0  0  0  0  0  0
    1.3261   -0.7295    3.1591 H   0  0  0  0  0  0  0  0  0  0  0  0
  1  2  1  0
  2  3  1  0
  3  4  2  0
  3  5  1  0
  5  6  1  0
  6  7  1  0
  7  8  1  0
  8  9  1  0
  9 10  2  0
 10 11  1  0
 11 12  2  0
 12 13  1  0
 12 14  1  0
 14 15  2  0
 15 16  1  0
 16 17  1  0
 17 18  2  0
 17 19  1  0
 19 20  2  0
 20 21  1  0
 21 22  2  0
 22 23  1  0
 23 24  2  0
 23 25  1  0
 25 26  1  0
 26 27  1  0
 27 28  1  0
  8 29  1  0
 29 30  1  0
 30  5  1  0
 15  9  1  0
 24 19  1  0
 28 22  1  0
  1 31  1  0
  1 32  1  0
  1 33  1  0
  2 34  1  0
  2 35  1  0
  6 36  1  0
  6 37  1  0
  7 38  1  0
  7 39  1  0
 10 40  1  0
 11 41  1  0
 14 42  1  0
 16 43  1  0
 20 44  1  0
 21 45  1  0
 24 46  1  0
 26 47  1  0
 26 48  1  0
 27 49  1  0
 27 50  1  0
 29 51  1  0
 29 52  1  0
 30 53  1  0
 30 54  1  0
M  END
$$$$
