
     RDKit          3D

 25 27  0  0  0  0  0  0  0  0999 V2000
    5.2826    0.2046   -2.1324 O   0  0  0  0  0  0  0  0  0  0  0  0
    4.4037    0.4010   -1.3110 C   0  0  0  0  0  0  0  0  0  0  0  0
    4.4765    1.2513   -0.2544 N   0  0  0  0  0  0  0  0  0  0  0  0
    3.3970    1.3537    0.5844 C   0  0  0  0  0  0  0  0  0  0  0  0
    3.4509    2.3891    1.8910 S   0  0  0  0  0  0  0  0  0  0  0  0
    2.3099    0.4398    0.1133 C   0  0  0  0  0  0  0  0  0  0  0  0
    1.1108    0.3332    0.7095 C   0  0  0  0  0  0  0  0  0  0  0  0
   -0.0047   -0.4882    0.3524 C   0  0  0  0  0  0  0  0  0  0  0  0
    0.0437   -1.7968   -0.0747 C   0  0  0  0  0  0  0  0  0  0  0  0
   -1.2426   -2.2211   -0.2846 N   0  0  0  0  0  0  0  0  0  0  0  0
   -2.1330   -1.2207    0.0301 C   0  0  0  0  0  0  0  0  0  0  0  0
   -3.5324   -1.2132   -0.0158 C   0  0  0  0  0  0  0  0  0  0  0  0
   -4.1876   -0.0405    0.3704 C   0  0  0  0  0  0  0  0  0  0  0  0
   -3.4702    1.0786    0.7847 C   0  0  0  0  0  0  0  0  0  0  0  0
   -2.0711    1.0548    0.8239 C   0  0  0  0  0  0  0  0  0  0  0  0
   -1.3831   -0.1168    0.4408 C   0  0  0  0  0  0  0  0  0  0  0  0
    2.8443   -0.3827   -1.3169 S   0  0  0  0  0  0  0  0  0  0  0  0
    5.3174    1.7882   -0.1064 H   0  0  0  0  0  0  0  0  0  0  0  0
    0.9179    0.9679    1.5729 H   0  0  0  0  0  0  0  0  0  0  0  0
    0.8702   -2.4733   -0.2461 H   0  0  0  0  0  0  0  0  0  0  0  0
   -1.5063   -3.1412   -0.6086 H   0  0  0  0  0  0  0  0  0  0  0  0
   -4.0951   -2.0831   -0.3383 H   0  0  0  0  0  0  0  0  0  0  0  0
   -5.2743   -0.0026    0.3459 H   0  0  0  0  0  0  0  0  0  0  0  0
   -3.9997    1.9813    1.0794 H   0  0  0  0  0  0  0  0  0  0  0  0
   -1.5246    1.9366    1.1448 H   0  0  0  0  0  0  0  0  0  0  0  0
  1  2  2  0
  2  3  1  0
  3  4  1  0
  4  5  2  0
  4  6  1  0
  6  7  2  3
  7  8  1  0
  8  9  2  0
  9 10  1  0
 10 11  1  0
 11 12  2  0
 12 13  1  0
 13 14  2  0
 14 15  1  0
 15 16  2  0
  6 17  1  0
 17  2  1  0
 16  8  1  0
 16 11  1  0
  3 18  1  0
  7 19  1  0
  9 20  1  0
 10 21  1  0
 12 22  1  0
 13 23  1  0
 14 24  1  0
 15 25  1  0
M  END
$$$$
