
     RDKit          3D

 39 40  0  0  0  0  0  0  0  0999 V2000
   -1.0301   -3.1291    1.1339 C   0  0  0  0  0  0  0  0  0  0  0  0
   -1.3666   -1.7975    0.4656 C   0  0  0  0  0  0  0  0  0  0  0  0
   -2.7021   -1.4657    0.8624 O   0  0  0  0  0  0  0  0  0  0  0  0
   -3.3500   -0.7047   -0.0751 C   0  0  0  0  0  0  0  0  0  0  0  0
   -3.4275    0.6713    0.1524 C   0  0  0  0  0  0  0  0  0  0  0  0
   -4.1140    1.4921   -0.7443 C   0  0  0  0  0  0  0  0  0  0  0  0
   -4.7404    0.9209   -1.8603 C   0  0  0  0  0  0  0  0  0  0  0  0
   -5.4625    1.7796   -2.8073 N   0  0  0  0  0  4  0  0  0  0  0  0
   -5.9604    1.2408   -3.8057 O   0  0  0  0  0  0  0  0  0  0  0  0
   -5.5258    2.9905   -2.5553 O   0  0  0  0  0  1  0  0  0  0  0  0
   -4.6915   -0.4626   -2.0801 C   0  0  0  0  0  0  0  0  0  0  0  0
   -4.0021   -1.2742   -1.1771 C   0  0  0  0  0  0  0  0  0  0  0  0
   -3.9888   -2.9781   -1.4529 Cl  0  0  0  0  0  0  0  0  0  0  0  0
   -0.3147   -0.7388    0.8812 C   0  0  0  0  0  0  0  0  0  0  0  0
   -0.5900    0.1886    1.6367 O   0  0  0  0  0  0  0  0  0  0  0  0
    0.9251   -0.9610    0.2909 N   0  0  0  0  0  0  0  0  0  0  0  0
    2.1044   -0.2048    0.4579 C   0  0  0  0  0  0  0  0  0  0  0  0
    3.2302   -0.6100   -0.2730 C   0  0  0  0  0  0  0  0  0  0  0  0
    4.4431    0.0823   -0.1690 C   0  0  0  0  0  0  0  0  0  0  0  0
    4.5424    1.1958    0.6702 C   0  0  0  0  0  0  0  0  0  0  0  0
    5.8069    1.9631    0.8232 C   0  0  0  0  0  0  0  0  0  0  0  0
    6.7099    1.9011   -0.2024 N   0  0  0  0  0  0  0  0  0  0  0  0
    6.0264    2.6543    1.8092 O   0  0  0  0  0  0  0  0  0  0  0  0
    3.4272    1.5925    1.4139 C   0  0  0  0  0  0  0  0  0  0  0  0
    2.2150    0.8994    1.3042 C   0  0  0  0  0  0  0  0  0  0  0  0
   -0.0414   -3.4965    0.8428 H   0  0  0  0  0  0  0  0  0  0  0  0
   -1.7733   -3.8900    0.8727 H   0  0  0  0  0  0  0  0  0  0  0  0
   -1.0469   -3.0294    2.2253 H   0  0  0  0  0  0  0  0  0  0  0  0
   -1.3002   -1.9292   -0.6232 H   0  0  0  0  0  0  0  0  0  0  0  0
   -2.9534    1.1053    1.0316 H   0  0  0  0  0  0  0  0  0  0  0  0
   -4.1552    2.5634   -0.5543 H   0  0  0  0  0  0  0  0  0  0  0  0
   -5.1905   -0.9123   -2.9360 H   0  0  0  0  0  0  0  0  0  0  0  0
    0.9969   -1.7485   -0.3412 H   0  0  0  0  0  0  0  0  0  0  0  0
    3.1856   -1.4754   -0.9298 H   0  0  0  0  0  0  0  0  0  0  0  0
    5.3027   -0.2779   -0.7265 H   0  0  0  0  0  0  0  0  0  0  0  0
    6.4430    1.6088   -1.1309 H   0  0  0  0  0  0  0  0  0  0  0  0
    7.4933    2.5386   -0.1281 H   0  0  0  0  0  0  0  0  0  0  0  0
    3.4937    2.4470    2.0858 H   0  0  0  0  0  0  0  0  0  0  0  0
    1.3814    1.2504    1.9048 H   0  0  0  0  0  0  0  0  0  0  0  0
  1  2  1  0
  2  3  1  0
  3  4  1  0
  4  5  2  0
  5  6  1  0
  6  7  2  0
  7  8  1  0
  8  9  2  0
  8 10  1  0
  7 11  1  0
 11 12  2  0
 12 13  1  0
  2 14  1  0
 14 15  2  0
 14 16  1  0
 16 17  1  0
 17 18  2  0
 18 19  1  0
 19 20  2  0
 20 21  1  0
 21 22  1  0
 21 23  2  0
 20 24  1  0
 24 25  2  0
 12  4  1  0
 25 17  1  0
  1 26  1  0
  1 27  1  0
  1 28  1  0
  2 29  1  0
  5 30  1  0
  6 31  1  0
 11 32  1  0
 16 33  1  0
 18 34  1  0
 19 35  1  0
 22 36  1  0
 22 37  1  0
 24 38  1  0
 25 39  1  0
M  CHG  2   8   1  10  -1
M  END
$$$$
