
     RDKit          3D

 40 42  0  0  0  0  0  0  0  0999 V2000
   -6.9057   -1.9522   -0.0198 C   0  0  0  0  0  0  0  0  0  0  0  0
   -6.2515   -0.5459    0.8502 S   0  0  0  0  0  6  0  0  0  0  0  0
   -7.3721    0.2343    1.3298 O   0  0  0  0  0  0  0  0  0  0  0  0
   -5.2035   -0.9992    1.7366 O   0  0  0  0  0  0  0  0  0  0  0  0
   -5.6010    0.3417   -0.4405 N   0  0  0  0  0  0  0  0  0  0  0  0
   -4.1835    0.4986   -0.4712 C   0  0  0  0  0  0  0  0  0  0  0  0
   -3.3647   -0.5741   -0.8281 C   0  0  0  0  0  0  0  0  0  0  0  0
   -1.9749   -0.4267   -0.8159 C   0  0  0  0  0  0  0  0  0  0  0  0
   -1.4065    0.7955   -0.4340 C   0  0  0  0  0  0  0  0  0  0  0  0
    0.0687    0.9925   -0.4072 C   0  0  0  0  0  0  0  0  0  0  0  0
    0.5129    2.0706   -0.7797 O   0  0  0  0  0  0  0  0  0  0  0  0
    0.7832   -0.0843    0.0843 N   0  0  0  0  0  0  0  0  0  0  0  0
    2.1853   -0.2055    0.1875 C   0  0  0  0  0  0  0  0  0  0  0  0
    2.6798   -1.3597    0.8129 C   0  0  0  0  0  0  0  0  0  0  0  0
    4.0556   -1.5677    0.9458 C   0  0  0  0  0  0  0  0  0  0  0  0
    4.9481   -0.6246    0.4483 C   0  0  0  0  0  0  0  0  0  0  0  0
    4.4648    0.5391   -0.1556 C   0  0  0  0  0  0  0  0  0  0  0  0
    3.0896    0.7410   -0.2998 C   0  0  0  0  0  0  0  0  0  0  0  0
    5.2869    1.5254   -0.6418 O   0  0  0  0  0  0  0  0  0  0  0  0
    6.6187    1.3913   -0.1346 C   0  0  0  0  0  0  0  0  0  0  0  0
    7.0849   -0.0513   -0.2349 C   0  0  0  0  0  0  0  0  0  0  0  0
    6.2829   -0.9021    0.5926 O   0  0  0  0  0  0  0  0  0  0  0  0
   -2.2326    1.8725   -0.0907 C   0  0  0  0  0  0  0  0  0  0  0  0
   -3.6211    1.7202   -0.0983 C   0  0  0  0  0  0  0  0  0  0  0  0
   -6.0836   -2.5001   -0.4831 H   0  0  0  0  0  0  0  0  0  0  0  0
   -7.4126   -2.5908    0.7070 H   0  0  0  0  0  0  0  0  0  0  0  0
   -7.6196   -1.6061   -0.7695 H   0  0  0  0  0  0  0  0  0  0  0  0
   -6.1295    1.2125   -0.5323 H   0  0  0  0  0  0  0  0  0  0  0  0
   -3.7984   -1.5244   -1.1244 H   0  0  0  0  0  0  0  0  0  0  0  0
   -1.3521   -1.2610   -1.1278 H   0  0  0  0  0  0  0  0  0  0  0  0
    0.2469   -0.8441    0.4834 H   0  0  0  0  0  0  0  0  0  0  0  0
    2.0034   -2.1144    1.2058 H   0  0  0  0  0  0  0  0  0  0  0  0
    4.4285   -2.4673    1.4270 H   0  0  0  0  0  0  0  0  0  0  0  0
    2.7570    1.6495   -0.7911 H   0  0  0  0  0  0  0  0  0  0  0  0
    7.2675    2.0412   -0.7299 H   0  0  0  0  0  0  0  0  0  0  0  0
    6.6356    1.7485    0.9026 H   0  0  0  0  0  0  0  0  0  0  0  0
    8.1212   -0.1388    0.1061 H   0  0  0  0  0  0  0  0  0  0  0  0
    7.0323   -0.4195   -1.2670 H   0  0  0  0  0  0  0  0  0  0  0  0
   -1.7936    2.8272    0.1937 H   0  0  0  0  0  0  0  0  0  0  0  0
   -4.2475    2.5582    0.1950 H   0  0  0  0  0  0  0  0  0  0  0  0
  1  2  1  0
  2  3  2  0
  2  4  2  0
  2  5  1  0
  5  6  1  0
  6  7  2  0
  7  8  1  0
  8  9  2  0
  9 10  1  0
 10 11  2  0
 10 12  1  0
 12 13  1  0
 13 14  2  0
 14 15  1  0
 15 16  2  0
 16 17  1  0
 17 18  2  0
 17 19  1  0
 19 20  1  0
 20 21  1  0
 21 22  1  0
  9 23  1  0
 23 24  2  0
 24  6  1  0
 18 13  1  0
 22 16  1  0
  1 25  1  0
  1 26  1  0
  1 27  1  0
  5 28  1  0
  7 29  1  0
  8 30  1  0
 12 31  1  0
 14 32  1  0
 15 33  1  0
 18 34  1  0
 20 35  1  0
 20 36  1  0
 21 37  1  0
 21 38  1  0
 23 39  1  0
 24 40  1  0
M  END
$$$$
