
     RDKit          3D

 58 63  0  0  0  0  0  0  0  0999 V2000
    7.8771   -2.3191   -0.7585 C   0  0  0  0  0  0  0  0  0  0  0  0
    6.5502   -1.9014   -0.2251 C   0  0  0  0  0  0  0  0  0  0  0  0
    5.4050   -2.6585   -0.0965 C   0  0  0  0  0  0  0  0  0  0  0  0
    4.3254   -1.9106    0.4561 C   0  0  0  0  0  0  0  0  0  0  0  0
    4.6719   -0.5979    0.7167 C   0  0  0  0  0  0  0  0  0  0  0  0
    3.8695    0.4713    1.2953 C   0  0  0  0  0  0  0  0  0  0  0  0
    4.3145    1.2370    2.1513 O   0  0  0  0  0  0  0  0  0  0  0  0
    2.5222    0.5643    0.8800 N   0  0  0  0  0  0  0  0  0  0  0  0
    1.7040    1.5450    1.5831 C   0  0  0  0  0  0  0  0  0  0  0  0
    0.2159    1.2244    1.4627 C   0  0  0  0  0  0  0  0  0  0  0  0
   -0.2315    1.0648   -0.0098 C   0  0  0  0  0  0  0  0  0  0  0  0
    0.6995    0.0325   -0.6994 C   0  0  0  0  0  0  0  0  0  0  0  0
    2.1755    0.3853   -0.5301 C   0  0  0  0  0  0  0  0  0  0  0  0
    0.0374    2.3037   -0.7178 O   0  0  0  0  0  0  0  0  0  0  0  0
   -0.8902    3.2984   -0.6429 C   0  0  0  0  0  0  0  0  0  0  0  0
   -0.4867    4.5475   -1.1150 C   0  0  0  0  0  0  0  0  0  0  0  0
   -1.3632    5.6342   -1.0618 C   0  0  0  0  0  0  0  0  0  0  0  0
   -2.6446    5.4676   -0.5370 C   0  0  0  0  0  0  0  0  0  0  0  0
   -3.7192    6.8089   -0.4688 Cl  0  0  0  0  0  0  0  0  0  0  0  0
   -3.0597    4.2231   -0.0721 C   0  0  0  0  0  0  0  0  0  0  0  0
   -2.1770    3.1401   -0.1405 C   0  0  0  0  0  0  0  0  0  0  0  0
   -2.5925    1.8094    0.3218 C   0  0  0  0  0  0  0  0  0  0  0  0
   -3.5818    1.6979    1.0403 O   0  0  0  0  0  0  0  0  0  0  0  0
   -1.7235    0.6432   -0.1340 C   0  0  0  0  0  0  0  0  0  0  0  0
   -2.1057   -0.6410    0.5894 C   0  0  0  0  0  0  0  0  0  0  0  0
   -2.9981   -1.2378   -0.4447 C   0  0  0  0  0  0  0  0  0  0  0  0
   -3.8535   -2.4152   -0.1618 C   0  0  0  0  0  0  0  0  0  0  0  0
   -3.8348   -3.0544    1.0832 C   0  0  0  0  0  0  0  0  0  0  0  0
   -4.6460   -4.1694    1.3097 C   0  0  0  0  0  0  0  0  0  0  0  0
   -5.4793   -4.6472    0.2988 C   0  0  0  0  0  0  0  0  0  0  0  0
   -5.5024   -4.0145   -0.9424 C   0  0  0  0  0  0  0  0  0  0  0  0
   -4.6913   -2.9019   -1.1735 C   0  0  0  0  0  0  0  0  0  0  0  0
   -2.9342   -0.6746   -1.6092 N   0  0  0  0  0  0  0  0  0  0  0  0
   -2.0351    0.4074   -1.5178 O   0  0  0  0  0  0  0  0  0  0  0  0
    6.3101   -0.2992    0.3239 S   0  0  0  0  0  0  0  0  0  0  0  0
    8.6973   -1.7668   -0.2869 H   0  0  0  0  0  0  0  0  0  0  0  0
    7.9196   -2.1471   -1.8392 H   0  0  0  0  0  0  0  0  0  0  0  0
    8.0487   -3.3855   -0.5760 H   0  0  0  0  0  0  0  0  0  0  0  0
    5.3447   -3.7031   -0.3772 H   0  0  0  0  0  0  0  0  0  0  0  0
    3.3421   -2.3168    0.6587 H   0  0  0  0  0  0  0  0  0  0  0  0
    1.9761    1.5590    2.6452 H   0  0  0  0  0  0  0  0  0  0  0  0
    1.9333    2.5375    1.1763 H   0  0  0  0  0  0  0  0  0  0  0  0
    0.0142    0.2999    2.0171 H   0  0  0  0  0  0  0  0  0  0  0  0
   -0.3425    2.0261    1.9590 H   0  0  0  0  0  0  0  0  0  0  0  0
    0.4881   -0.0126   -1.7747 H   0  0  0  0  0  0  0  0  0  0  0  0
    0.5412   -0.9709   -0.2913 H   0  0  0  0  0  0  0  0  0  0  0  0
    2.4208    1.3208   -1.0492 H   0  0  0  0  0  0  0  0  0  0  0  0
    2.7844   -0.3882   -1.0028 H   0  0  0  0  0  0  0  0  0  0  0  0
    0.5136    4.6796   -1.5210 H   0  0  0  0  0  0  0  0  0  0  0  0
   -1.0406    6.6053   -1.4295 H   0  0  0  0  0  0  0  0  0  0  0  0
   -4.0617    4.0906    0.3290 H   0  0  0  0  0  0  0  0  0  0  0  0
   -1.2693   -1.3263    0.7470 H   0  0  0  0  0  0  0  0  0  0  0  0
   -2.6142   -0.4823    1.5433 H   0  0  0  0  0  0  0  0  0  0  0  0
   -3.2004   -2.7077    1.8923 H   0  0  0  0  0  0  0  0  0  0  0  0
   -4.6332   -4.6638    2.2783 H   0  0  0  0  0  0  0  0  0  0  0  0
   -6.1160   -5.5104    0.4797 H   0  0  0  0  0  0  0  0  0  0  0  0
   -6.1538   -4.3834   -1.7313 H   0  0  0  0  0  0  0  0  0  0  0  0
   -4.7203   -2.4173   -2.1476 H   0  0  0  0  0  0  0  0  0  0  0  0
  1  2  1  0
  2  3  2  0
  3  4  1  0
  4  5  2  0
  5  6  1  0
  6  7  2  0
  6  8  1  0
  8  9  1  0
  9 10  1  0
 10 11  1  0
 11 12  1  0
 12 13  1  0
 11 14  1  0
 14 15  1  0
 15 16  2  0
 16 17  1  0
 17 18  2  0
 18 19  1  0
 18 20  1  0
 20 21  2  0
 21 22  1  0
 22 23  2  0
 22 24  1  0
 24 25  1  0
 25 26  1  0
 26 27  1  0
 27 28  2  0
 28 29  1  0
 29 30  2  0
 30 31  1  0
 31 32  2  0
 26 33  2  0
 33 34  1  0
  5 35  1  0
 35  2  1  0
 13  8  1  0
 21 15  1  0
 34 24  1  0
 24 11  1  0
 32 27  1  0
  1 36  1  0
  1 37  1  0
  1 38  1  0
  3 39  1  0
  4 40  1  0
  9 41  1  0
  9 42  1  0
 10 43  1  0
 10 44  1  0
 12 45  1  0
 12 46  1  0
 13 47  1  0
 13 48  1  0
 16 49  1  0
 17 50  1  0
 20 51  1  0
 25 52  1  0
 25 53  1  0
 28 54  1  0
 29 55  1  0
 30 56  1  0
 31 57  1  0
 32 58  1  0
M  END
$$$$
