
     RDKit          3D

 35 35  0  0  0  0  0  0  0  0999 V2000
   -4.5241    1.0506   -0.5898 C   0  0  0  0  0  0  0  0  0  0  0  0
   -3.1323    0.6614   -0.0687 C   0  0  0  0  0  0  0  0  0  0  0  0
   -3.2600    0.0016    1.3102 C   0  0  0  0  0  0  0  0  0  0  0  0
   -2.3787   -0.1153   -1.0790 N   0  0  0  0  0  0  0  0  0  0  0  0
   -2.9743   -1.4200   -1.3837 C   0  0  0  0  0  0  0  0  0  0  0  0
   -0.9506   -0.2984   -0.7460 C   0  0  0  0  0  0  0  0  0  0  0  0
   -0.1372    1.0022   -0.6313 C   0  0  0  0  0  0  0  0  0  0  0  0
    1.2714    0.7122   -0.5504 O   0  0  0  0  0  0  0  0  0  0  0  0
    1.7123    0.3456    0.6783 C   0  0  0  0  0  0  0  0  0  0  0  0
    1.0531    0.2558    1.6981 O   0  0  0  0  0  0  0  0  0  0  0  0
    3.1533    0.0532    0.5815 C   0  0  0  0  0  0  0  0  0  0  0  0
    4.0091    1.0702    0.1299 C   0  0  0  0  0  0  0  0  0  0  0  0
    5.3833    0.8438    0.0501 C   0  0  0  0  0  0  0  0  0  0  0  0
    5.9063   -0.3940    0.4207 C   0  0  0  0  0  0  0  0  0  0  0  0
    5.0570   -1.4090    0.8679 C   0  0  0  0  0  0  0  0  0  0  0  0
    3.6774   -1.1898    0.9504 C   0  0  0  0  0  0  0  0  0  0  0  0
    2.5927   -2.6412    1.5158 Br  0  0  0  0  0  0  0  0  0  0  0  0
   -4.4591    1.4993   -1.5872 H   0  0  0  0  0  0  0  0  0  0  0  0
   -4.9827    1.7934    0.0728 H   0  0  0  0  0  0  0  0  0  0  0  0
   -5.2045    0.1945   -0.6383 H   0  0  0  0  0  0  0  0  0  0  0  0
   -2.6154    1.6173    0.0748 H   0  0  0  0  0  0  0  0  0  0  0  0
   -3.8284   -0.9329    1.2669 H   0  0  0  0  0  0  0  0  0  0  0  0
   -2.2810   -0.2095    1.7507 H   0  0  0  0  0  0  0  0  0  0  0  0
   -3.7846    0.6701    2.0024 H   0  0  0  0  0  0  0  0  0  0  0  0
   -4.0084   -1.3245   -1.7272 H   0  0  0  0  0  0  0  0  0  0  0  0
   -2.9506   -2.1029   -0.5279 H   0  0  0  0  0  0  0  0  0  0  0  0
   -2.4343   -1.9000   -2.2085 H   0  0  0  0  0  0  0  0  0  0  0  0
   -0.4762   -0.8894   -1.5420 H   0  0  0  0  0  0  0  0  0  0  0  0
   -0.8287   -0.9003    0.1625 H   0  0  0  0  0  0  0  0  0  0  0  0
   -0.4396    1.6144    0.2255 H   0  0  0  0  0  0  0  0  0  0  0  0
   -0.2783    1.6109   -1.5313 H   0  0  0  0  0  0  0  0  0  0  0  0
    3.6071    2.0403   -0.1544 H   0  0  0  0  0  0  0  0  0  0  0  0
    6.0460    1.6327   -0.2985 H   0  0  0  0  0  0  0  0  0  0  0  0
    6.9778   -0.5715    0.3593 H   0  0  0  0  0  0  0  0  0  0  0  0
    5.4822   -2.3709    1.1462 H   0  0  0  0  0  0  0  0  0  0  0  0
  1  2  1  0
  2  3  1  0
  2  4  1  0
  4  5  1  0
  4  6  1  0
  6  7  1  0
  7  8  1  0
  8  9  1  0
  9 10  2  0
  9 11  1  0
 11 12  2  0
 12 13  1  0
 13 14  2  0
 14 15  1  0
 15 16  2  0
 16 17  1  0
 16 11  1  0
  1 18  1  0
  1 19  1  0
  1 20  1  0
  2 21  1  0
  3 22  1  0
  3 23  1  0
  3 24  1  0
  5 25  1  0
  5 26  1  0
  5 27  1  0
  6 28  1  0
  6 29  1  0
  7 30  1  0
  7 31  1  0
 12 32  1  0
 13 33  1  0
 14 34  1  0
 15 35  1  0
M  END
$$$$
