
     RDKit          3D

 33 34  0  0  0  0  0  0  0  0999 V2000
   -6.4146    1.6116    0.9211 N   0  0  0  0  0  0  0  0  0  0  0  0
   -5.1061    1.2319    0.6071 C   0  0  0  0  0  0  0  0  0  0  0  0
   -4.7877    0.8063   -0.6844 C   0  0  0  0  0  0  0  0  0  0  0  0
   -3.5133    0.3109   -0.9803 C   0  0  0  0  0  0  0  0  0  0  0  0
   -2.5493    0.1945    0.0277 C   0  0  0  0  0  0  0  0  0  0  0  0
   -1.2091   -0.3396   -0.3374 C   0  0  0  0  0  0  0  0  0  0  0  0
   -0.9050   -0.6811   -1.4693 O   0  0  0  0  0  0  0  0  0  0  0  0
   -0.3970   -0.3765    0.7486 O   0  0  0  0  0  0  0  0  0  0  0  0
    0.9255   -0.8907    0.5143 C   0  0  0  0  0  0  0  0  0  0  0  0
    1.8396    0.2094   -0.0225 C   0  0  0  0  0  0  0  0  0  0  0  0
    3.2510   -0.2778   -0.2204 C   0  0  0  0  0  0  0  0  0  0  0  0
    4.2132   -0.1058    0.7832 C   0  0  0  0  0  0  0  0  0  0  0  0
    5.5143   -0.5776    0.6018 C   0  0  0  0  0  0  0  0  0  0  0  0
    5.8633   -1.2277   -0.5807 C   0  0  0  0  0  0  0  0  0  0  0  0
    4.9118   -1.4078   -1.5828 C   0  0  0  0  0  0  0  0  0  0  0  0
    3.6105   -0.9369   -1.4037 C   0  0  0  0  0  0  0  0  0  0  0  0
   -2.8833    0.5637    1.3358 C   0  0  0  0  0  0  0  0  0  0  0  0
   -4.1610    1.0589    1.6214 C   0  0  0  0  0  0  0  0  0  0  0  0
   -6.9314    2.0013    0.1388 H   0  0  0  0  0  0  0  0  0  0  0  0
   -6.4916    2.1836    1.7563 H   0  0  0  0  0  0  0  0  0  0  0  0
   -5.5303    0.8563   -1.4767 H   0  0  0  0  0  0  0  0  0  0  0  0
   -3.2838    0.0038   -1.9989 H   0  0  0  0  0  0  0  0  0  0  0  0
    0.8904   -1.7617   -0.1522 H   0  0  0  0  0  0  0  0  0  0  0  0
    1.2969   -1.2533    1.4798 H   0  0  0  0  0  0  0  0  0  0  0  0
    1.4512    0.6062   -0.9687 H   0  0  0  0  0  0  0  0  0  0  0  0
    1.8275    1.0665    0.6633 H   0  0  0  0  0  0  0  0  0  0  0  0
    3.9563    0.3976    1.7124 H   0  0  0  0  0  0  0  0  0  0  0  0
    6.2563   -0.4380    1.3836 H   0  0  0  0  0  0  0  0  0  0  0  0
    6.8766   -1.5944   -0.7212 H   0  0  0  0  0  0  0  0  0  0  0  0
    5.1823   -1.9158   -2.5048 H   0  0  0  0  0  0  0  0  0  0  0  0
    2.8764   -1.0865   -2.1934 H   0  0  0  0  0  0  0  0  0  0  0  0
   -2.1685    0.4597    2.1478 H   0  0  0  0  0  0  0  0  0  0  0  0
   -4.4115    1.3088    2.6494 H   0  0  0  0  0  0  0  0  0  0  0  0
  1  2  1  0
  2  3  2  0
  3  4  1  0
  4  5  2  0
  5  6  1  0
  6  7  2  0
  6  8  1  0
  8  9  1  0
  9 10  1  0
 10 11  1  0
 11 12  2  0
 12 13  1  0
 13 14  2  0
 14 15  1  0
 15 16  2  0
  5 17  1  0
 17 18  2  0
 18  2  1  0
 16 11  1  0
  1 19  1  0
  1 20  1  0
  3 21  1  0
  4 22  1  0
  9 23  1  0
  9 24  1  0
 10 25  1  0
 10 26  1  0
 12 27  1  0
 13 28  1  0
 14 29  1  0
 15 30  1  0
 16 31  1  0
 17 32  1  0
 18 33  1  0
M  END
$$$$
