
     RDKit          3D

 58 59  0  0  0  0  0  0  0  0999 V2000
    9.3548    0.0279   -0.7539 C   0  0  0  0  0  0  0  0  0  0  0  0
    8.0839    0.5129   -1.4337 C   0  0  0  0  0  0  0  0  0  0  0  0
    7.1418   -0.6502   -1.7535 C   0  0  0  0  0  0  0  0  0  0  0  0
    5.8760   -0.1875   -2.4762 C   0  0  0  0  0  0  0  0  0  0  0  0
    5.1437    0.7655   -1.7077 O   0  0  0  0  0  0  0  0  0  0  0  0
    4.2239    0.3242   -0.8002 C   0  0  0  0  0  0  0  0  0  0  0  0
    3.9601   -1.0038   -0.4646 C   0  0  0  0  0  0  0  0  0  0  0  0
    2.9830   -1.3115    0.4921 C   0  0  0  0  0  0  0  0  0  0  0  0
    2.2588   -0.2890    1.1166 C   0  0  0  0  0  0  0  0  0  0  0  0
    1.2119   -0.5693    2.1388 C   0  0  0  0  0  0  0  0  0  0  0  0
    0.9246    0.2752    2.9783 O   0  0  0  0  0  0  0  0  0  0  0  0
    0.5817   -1.7940    2.0510 N   0  0  0  0  0  0  0  0  0  0  0  0
   -0.5961   -2.0684    2.8639 C   0  0  0  0  0  0  0  0  0  0  0  0
   -1.8688   -1.7238    2.1011 C   0  0  0  0  0  0  0  0  0  0  0  0
   -1.9256   -1.4644    0.9030 O   0  0  0  0  0  0  0  0  0  0  0  0
   -2.9543   -1.8207    2.9218 O   0  0  0  0  0  0  0  0  0  0  0  0
   -4.1928   -1.4941    2.2792 C   0  0  0  0  0  0  0  0  0  0  0  0
   -4.3021    0.0018    1.9723 C   0  0  0  0  0  0  0  0  0  0  0  0
   -3.6807    0.8290    2.6480 O   0  0  0  0  0  0  0  0  0  0  0  0
   -5.1209    0.4334    0.7899 C   0  0  0  0  0  0  0  0  0  0  0  0
   -4.8392    1.5853    0.1394 C   0  0  0  0  0  0  0  0  0  0  0  0
   -3.8537    2.4676    0.5685 N   0  0  0  0  0  0  0  0  0  0  0  0
   -5.5705    1.9207   -0.9973 N   0  0  0  0  0  0  0  0  0  0  0  0
   -5.3436    3.2220   -1.6266 C   0  0  0  0  0  0  0  0  0  0  0  0
   -6.5345    1.0965   -1.5702 C   0  0  0  0  0  0  0  0  0  0  0  0
   -7.1681    1.4152   -2.5782 O   0  0  0  0  0  0  0  0  0  0  0  0
   -6.7569   -0.1098   -0.9298 N   0  0  0  0  0  0  0  0  0  0  0  0
   -7.7935   -0.9724   -1.4662 C   0  0  0  0  0  0  0  0  0  0  0  0
   -6.2265   -0.4173    0.3005 C   0  0  0  0  0  0  0  0  0  0  0  0
   -6.6343   -1.3479    0.9956 O   0  0  0  0  0  0  0  0  0  0  0  0
    2.5381    1.0425    0.7961 C   0  0  0  0  0  0  0  0  0  0  0  0
    3.5124    1.3424   -0.1594 C   0  0  0  0  0  0  0  0  0  0  0  0
    9.1264   -0.4754    0.1909 H   0  0  0  0  0  0  0  0  0  0  0  0
   10.0151    0.8735   -0.5375 H   0  0  0  0  0  0  0  0  0  0  0  0
    9.8995   -0.6731   -1.3943 H   0  0  0  0  0  0  0  0  0  0  0  0
    7.5844    1.2354   -0.7783 H   0  0  0  0  0  0  0  0  0  0  0  0
    8.3496    1.0407   -2.3569 H   0  0  0  0  0  0  0  0  0  0  0  0
    7.6605   -1.3828   -2.3826 H   0  0  0  0  0  0  0  0  0  0  0  0
    6.8768   -1.1540   -0.8174 H   0  0  0  0  0  0  0  0  0  0  0  0
    5.2517   -1.0322   -2.7884 H   0  0  0  0  0  0  0  0  0  0  0  0
    6.1656    0.3205   -3.4039 H   0  0  0  0  0  0  0  0  0  0  0  0
    4.5047   -1.8269   -0.9143 H   0  0  0  0  0  0  0  0  0  0  0  0
    2.8228   -2.3530    0.7566 H   0  0  0  0  0  0  0  0  0  0  0  0
    0.6266   -2.2720    1.1598 H   0  0  0  0  0  0  0  0  0  0  0  0
   -0.5582   -1.4939    3.7938 H   0  0  0  0  0  0  0  0  0  0  0  0
   -0.5989   -3.1405    3.0793 H   0  0  0  0  0  0  0  0  0  0  0  0
   -4.9950   -1.7577    2.9754 H   0  0  0  0  0  0  0  0  0  0  0  0
   -4.2954   -2.1037    1.3754 H   0  0  0  0  0  0  0  0  0  0  0  0
   -3.3666    2.1407    1.4146 H   0  0  0  0  0  0  0  0  0  0  0  0
   -3.1734    2.6668   -0.1600 H   0  0  0  0  0  0  0  0  0  0  0  0
   -4.3372    3.2407   -2.0569 H   0  0  0  0  0  0  0  0  0  0  0  0
   -5.4487    4.0152   -0.8790 H   0  0  0  0  0  0  0  0  0  0  0  0
   -6.0575    3.4270   -2.4289 H   0  0  0  0  0  0  0  0  0  0  0  0
   -7.7707   -0.9665   -2.5604 H   0  0  0  0  0  0  0  0  0  0  0  0
   -8.7652   -0.5966   -1.1300 H   0  0  0  0  0  0  0  0  0  0  0  0
   -7.6691   -2.0021   -1.1181 H   0  0  0  0  0  0  0  0  0  0  0  0
    1.9987    1.8503    1.2864 H   0  0  0  0  0  0  0  0  0  0  0  0
    3.7207    2.3815   -0.4044 H   0  0  0  0  0  0  0  0  0  0  0  0
  1  2  1  0
  2  3  1  0
  3  4  1  0
  4  5  1  0
  5  6  1  0
  6  7  2  0
  7  8  1  0
  8  9  2  0
  9 10  1  0
 10 11  2  0
 10 12  1  0
 12 13  1  0
 13 14  1  0
 14 15  2  0
 14 16  1  0
 16 17  1  0
 17 18  1  0
 18 19  2  0
 18 20  1  0
 20 21  2  0
 21 22  1  0
 21 23  1  0
 23 24  1  0
 23 25  1  0
 25 26  2  0
 25 27  1  0
 27 28  1  0
 27 29  1  0
 29 30  2  0
  9 31  1  0
 31 32  2  0
 32  6  1  0
 29 20  1  0
  1 33  1  0
  1 34  1  0
  1 35  1  0
  2 36  1  0
  2 37  1  0
  3 38  1  0
  3 39  1  0
  4 40  1  0
  4 41  1  0
  7 42  1  0
  8 43  1  0
 12 44  1  0
 13 45  1  0
 13 46  1  0
 17 47  1  0
 17 48  1  0
 22 49  1  0
 22 50  1  0
 24 51  1  0
 24 52  1  0
 24 53  1  0
 28 54  1  0
 28 55  1  0
 28 56  1  0
 31 57  1  0
 32 58  1  0
M  END
$$$$
