
     RDKit          3D

 58 63  0  0  0  0  0  0  0  0999 V2000
    6.9292    3.5084   -0.1760 C   0  0  0  0  0  0  0  0  0  0  0  0
    5.9134    2.4578   -0.4660 C   0  0  0  0  0  0  0  0  0  0  0  0
    4.9749    2.4251   -1.4751 C   0  0  0  0  0  0  0  0  0  0  0  0
    4.1809    1.2422   -1.4333 C   0  0  0  0  0  0  0  0  0  0  0  0
    4.5206    0.4151   -0.3787 C   0  0  0  0  0  0  0  0  0  0  0  0
    3.9655   -0.8751    0.0075 C   0  0  0  0  0  0  0  0  0  0  0  0
    4.6799   -1.8302    0.3180 O   0  0  0  0  0  0  0  0  0  0  0  0
    2.5691   -1.0159   -0.0018 N   0  0  0  0  0  0  0  0  0  0  0  0
    2.0145   -2.3469    0.2124 C   0  0  0  0  0  0  0  0  0  0  0  0
    0.5994   -2.4467   -0.3461 C   0  0  0  0  0  0  0  0  0  0  0  0
   -0.3861   -1.4588    0.3567 C   0  0  0  0  0  0  0  0  0  0  0  0
    0.4134   -0.2361    0.8943 C   0  0  0  0  0  0  0  0  0  0  0  0
    1.6325    0.1062    0.0452 C   0  0  0  0  0  0  0  0  0  0  0  0
   -0.9212   -2.0865    1.5544 O   0  0  0  0  0  0  0  0  0  0  0  0
   -1.8606   -3.0609    1.3600 C   0  0  0  0  0  0  0  0  0  0  0  0
   -2.1080   -3.9016    2.4444 C   0  0  0  0  0  0  0  0  0  0  0  0
   -3.0334   -4.9414    2.3249 C   0  0  0  0  0  0  0  0  0  0  0  0
   -3.7123   -5.1343    1.1210 C   0  0  0  0  0  0  0  0  0  0  0  0
   -4.8493   -6.4165    0.9804 Cl  0  0  0  0  0  0  0  0  0  0  0  0
   -3.4820   -4.2913    0.0366 C   0  0  0  0  0  0  0  0  0  0  0  0
   -2.5600   -3.2484    0.1676 C   0  0  0  0  0  0  0  0  0  0  0  0
   -2.3283   -2.3098   -0.9468 C   0  0  0  0  0  0  0  0  0  0  0  0
   -2.7926   -2.5531   -2.0549 O   0  0  0  0  0  0  0  0  0  0  0  0
   -1.5570   -1.0453   -0.5838 C   0  0  0  0  0  0  0  0  0  0  0  0
   -2.5651   -0.0519   -0.0118 C   0  0  0  0  0  0  0  0  0  0  0  0
   -2.1616    1.1681   -0.7636 C   0  0  0  0  0  0  0  0  0  0  0  0
   -2.6978    2.5094   -0.4337 C   0  0  0  0  0  0  0  0  0  0  0  0
   -3.6726    2.6858    0.5558 C   0  0  0  0  0  0  0  0  0  0  0  0
   -4.1534    3.9677    0.8439 C   0  0  0  0  0  0  0  0  0  0  0  0
   -3.6630    5.0697    0.1445 C   0  0  0  0  0  0  0  0  0  0  0  0
   -4.2574    6.6425    0.5042 Cl  0  0  0  0  0  0  0  0  0  0  0  0
   -2.6960    4.9026   -0.8436 C   0  0  0  0  0  0  0  0  0  0  0  0
   -2.2138    3.6233   -1.1333 C   0  0  0  0  0  0  0  0  0  0  0  0
   -1.3064    0.9633   -1.7122 N   0  0  0  0  0  0  0  0  0  0  0  0
   -1.0531   -0.4251   -1.7696 O   0  0  0  0  0  0  0  0  0  0  0  0
    5.8298    1.0602    0.5174 S   0  0  0  0  0  0  0  0  0  0  0  0
    6.8597    4.3292   -0.8976 H   0  0  0  0  0  0  0  0  0  0  0  0
    6.7789    3.9281    0.8241 H   0  0  0  0  0  0  0  0  0  0  0  0
    7.9420    3.0968   -0.2337 H   0  0  0  0  0  0  0  0  0  0  0  0
    4.8686    3.2056   -2.2192 H   0  0  0  0  0  0  0  0  0  0  0  0
    3.4044    1.0068   -2.1510 H   0  0  0  0  0  0  0  0  0  0  0  0
    2.6566   -3.0906   -0.2732 H   0  0  0  0  0  0  0  0  0  0  0  0
    2.0297   -2.5536    1.2892 H   0  0  0  0  0  0  0  0  0  0  0  0
    0.2682   -3.4852   -0.2415 H   0  0  0  0  0  0  0  0  0  0  0  0
    0.6488   -2.2343   -1.4214 H   0  0  0  0  0  0  0  0  0  0  0  0
   -0.2177    0.6497    1.0049 H   0  0  0  0  0  0  0  0  0  0  0  0
    0.7585   -0.4522    1.9163 H   0  0  0  0  0  0  0  0  0  0  0  0
    1.3456    0.3414   -0.9835 H   0  0  0  0  0  0  0  0  0  0  0  0
    2.1228    0.9865    0.4720 H   0  0  0  0  0  0  0  0  0  0  0  0
   -1.5711   -3.7598    3.3800 H   0  0  0  0  0  0  0  0  0  0  0  0
   -3.2160   -5.6002    3.1711 H   0  0  0  0  0  0  0  0  0  0  0  0
   -4.0190   -4.4374   -0.8984 H   0  0  0  0  0  0  0  0  0  0  0  0
   -2.4822    0.0791    1.0698 H   0  0  0  0  0  0  0  0  0  0  0  0
   -3.6032   -0.2921   -0.2671 H   0  0  0  0  0  0  0  0  0  0  0  0
   -4.0797    1.8470    1.1123 H   0  0  0  0  0  0  0  0  0  0  0  0
   -4.9113    4.1003    1.6126 H   0  0  0  0  0  0  0  0  0  0  0  0
   -2.3143    5.7589   -1.3933 H   0  0  0  0  0  0  0  0  0  0  0  0
   -1.4613    3.5042   -1.9112 H   0  0  0  0  0  0  0  0  0  0  0  0
  1  2  1  0
  2  3  2  0
  3  4  1  0
  4  5  2  0
  5  6  1  0
  6  7  2  0
  6  8  1  0
  8  9  1  0
  9 10  1  0
 10 11  1  0
 11 12  1  0
 12 13  1  0
 11 14  1  0
 14 15  1  0
 15 16  2  0
 16 17  1  0
 17 18  2  0
 18 19  1  0
 18 20  1  0
 20 21  2  0
 21 22  1  0
 22 23  2  0
 22 24  1  0
 24 25  1  0
 25 26  1  0
 26 27  1  0
 27 28  2  0
 28 29  1  0
 29 30  2  0
 30 31  1  0
 30 32  1  0
 32 33  2  0
 26 34  2  0
 34 35  1  0
  5 36  1  0
 36  2  1  0
 13  8  1  0
 21 15  1  0
 35 24  1  0
 24 11  1  0
 33 27  1  0
  1 37  1  0
  1 38  1  0
  1 39  1  0
  3 40  1  0
  4 41  1  0
  9 42  1  0
  9 43  1  0
 10 44  1  0
 10 45  1  0
 12 46  1  0
 12 47  1  0
 13 48  1  0
 13 49  1  0
 16 50  1  0
 17 51  1  0
 20 52  1  0
 25 53  1  0
 25 54  1  0
 28 55  1  0
 29 56  1  0
 32 57  1  0
 33 58  1  0
M  END
$$$$
