
     RDKit          3D

 68 71  0  0  0  0  0  0  0  0999 V2000
    8.0365    5.2284    4.2324 C   0  0  0  0  0  0  0  0  0  0  0  0
    7.3272    4.5103    3.1598 C   0  0  0  0  0  0  0  0  0  0  0  0
    6.0615    3.9973    3.0233 C   0  0  0  0  0  0  0  0  0  0  0  0
    6.0417    3.4378    1.7270 C   0  0  0  0  0  0  0  0  0  0  0  0
    5.0180    2.7963    1.0653 N   0  0  0  0  0  0  0  0  0  0  0  0
    3.7752    2.5298    1.5941 C   0  0  0  0  0  0  0  0  0  0  0  0
    3.4040    2.8120    2.7291 O   0  0  0  0  0  0  0  0  0  0  0  0
    2.8715    1.8430    0.5906 C   0  0  0  0  0  0  0  0  0  0  0  0
    1.5616    1.3933    1.2297 C   0  0  0  0  0  0  0  0  0  0  0  0
    0.6633    0.6945    0.2239 C   0  0  0  0  0  0  0  0  0  0  0  0
    0.8916    0.7998   -0.9819 O   0  0  0  0  0  0  0  0  0  0  0  0
   -0.4037   -0.0383    0.7261 N   0  0  0  0  0  0  0  0  0  0  0  0
   -0.9006    0.1131    2.0939 C   0  0  0  0  0  0  0  0  0  0  0  0
   -0.6737   -1.1355    2.8707 C   0  0  0  0  0  0  0  0  0  0  0  0
   -1.5057   -1.9523    3.6095 C   0  0  0  0  0  0  0  0  0  0  0  0
   -0.6946   -2.9962    4.1176 C   0  0  0  0  0  0  0  0  0  0  0  0
    0.5784   -2.7493    3.6617 C   0  0  0  0  0  0  0  0  0  0  0  0
    0.6018   -1.6200    2.9090 O   0  0  0  0  0  0  0  0  0  0  0  0
   -1.2656   -0.7901   -0.2048 C   0  0  0  0  0  0  0  0  0  0  0  0
   -2.2031    0.1498   -1.0152 C   0  0  0  0  0  0  0  0  0  0  0  0
   -2.4212    1.3151   -0.6781 O   0  0  0  0  0  0  0  0  0  0  0  0
   -2.8968   -0.4507   -2.0525 N   0  0  0  0  0  0  0  0  0  0  0  0
   -3.9116    0.2544   -2.8248 C   0  0  0  0  0  0  0  0  0  0  0  0
   -4.0568   -0.3606   -4.2228 C   0  0  0  0  0  0  0  0  0  0  0  0
   -4.7507   -1.7232   -4.2077 C   0  0  0  0  0  0  0  0  0  0  0  0
   -6.0840   -1.6722   -3.4688 C   0  0  0  0  0  0  0  0  0  0  0  0
   -5.9276   -1.1026   -2.0624 C   0  0  0  0  0  0  0  0  0  0  0  0
   -5.2564    0.2703   -2.0844 C   0  0  0  0  0  0  0  0  0  0  0  0
   -0.5315   -1.8856   -0.9796 C   0  0  0  0  0  0  0  0  0  0  0  0
   -0.0210   -1.6865   -2.2727 C   0  0  0  0  0  0  0  0  0  0  0  0
    0.6353   -2.7148   -2.9525 C   0  0  0  0  0  0  0  0  0  0  0  0
    0.7993   -3.9580   -2.3474 C   0  0  0  0  0  0  0  0  0  0  0  0
    0.3181   -4.1703   -1.0584 C   0  0  0  0  0  0  0  0  0  0  0  0
   -0.3368   -3.1417   -0.3777 C   0  0  0  0  0  0  0  0  0  0  0  0
    7.2207    3.6049    1.1172 N   0  0  0  0  0  0  0  0  0  0  0  0
    8.0275    4.2731    2.0201 O   0  0  0  0  0  0  0  0  0  0  0  0
    8.4962    6.1437    3.8465 H   0  0  0  0  0  0  0  0  0  0  0  0
    8.8239    4.6000    4.6604 H   0  0  0  0  0  0  0  0  0  0  0  0
    7.3501    5.5089    5.0370 H   0  0  0  0  0  0  0  0  0  0  0  0
    5.2694    4.0292    3.7559 H   0  0  0  0  0  0  0  0  0  0  0  0
    5.2570    2.4917    0.1308 H   0  0  0  0  0  0  0  0  0  0  0  0
    3.3989    0.9770    0.1733 H   0  0  0  0  0  0  0  0  0  0  0  0
    2.6768    2.5475   -0.2266 H   0  0  0  0  0  0  0  0  0  0  0  0
    1.0264    2.2660    1.6214 H   0  0  0  0  0  0  0  0  0  0  0  0
    1.7854    0.7119    2.0572 H   0  0  0  0  0  0  0  0  0  0  0  0
   -0.4258    0.9483    2.6132 H   0  0  0  0  0  0  0  0  0  0  0  0
   -1.9702    0.3506    2.0467 H   0  0  0  0  0  0  0  0  0  0  0  0
   -2.5662   -1.8109    3.7652 H   0  0  0  0  0  0  0  0  0  0  0  0
   -0.9991   -3.8268    4.7400 H   0  0  0  0  0  0  0  0  0  0  0  0
    1.5278   -3.2526    3.7759 H   0  0  0  0  0  0  0  0  0  0  0  0
   -1.9908   -1.3370    0.4182 H   0  0  0  0  0  0  0  0  0  0  0  0
   -2.7541   -1.4396   -2.2209 H   0  0  0  0  0  0  0  0  0  0  0  0
   -3.5678    1.2898   -2.9375 H   0  0  0  0  0  0  0  0  0  0  0  0
   -3.0734   -0.4601   -4.6976 H   0  0  0  0  0  0  0  0  0  0  0  0
   -4.6438    0.3234   -4.8491 H   0  0  0  0  0  0  0  0  0  0  0  0
   -4.0983   -2.4674   -3.7347 H   0  0  0  0  0  0  0  0  0  0  0  0
   -4.9157   -2.0609   -5.2374 H   0  0  0  0  0  0  0  0  0  0  0  0
   -6.5156   -2.6778   -3.4145 H   0  0  0  0  0  0  0  0  0  0  0  0
   -6.7904   -1.0527   -4.0349 H   0  0  0  0  0  0  0  0  0  0  0  0
   -6.9122   -1.0211   -1.5880 H   0  0  0  0  0  0  0  0  0  0  0  0
   -5.3365   -1.7947   -1.4491 H   0  0  0  0  0  0  0  0  0  0  0  0
   -5.9276    0.9828   -2.5818 H   0  0  0  0  0  0  0  0  0  0  0  0
   -5.1269    0.6245   -1.0548 H   0  0  0  0  0  0  0  0  0  0  0  0
   -0.1116   -0.7152   -2.7585 H   0  0  0  0  0  0  0  0  0  0  0  0
    1.0307   -2.5371   -3.9493 H   0  0  0  0  0  0  0  0  0  0  0  0
    1.3166   -4.7554   -2.8748 H   0  0  0  0  0  0  0  0  0  0  0  0
    0.4626   -5.1344   -0.5773 H   0  0  0  0  0  0  0  0  0  0  0  0
   -0.6875   -3.3268    0.6358 H   0  0  0  0  0  0  0  0  0  0  0  0
  1  2  1  0
  2  3  2  0
  3  4  1  0
  4  5  1  0
  5  6  1  0
  6  7  2  0
  6  8  1  0
  8  9  1  0
  9 10  1  0
 10 11  2  0
 10 12  1  0
 12 13  1  0
 13 14  1  0
 14 15  2  0
 15 16  1  0
 16 17  2  0
 17 18  1  0
 12 19  1  0
 19 20  1  0
 20 21  2  0
 20 22  1  0
 22 23  1  0
 23 24  1  0
 24 25  1  0
 25 26  1  0
 26 27  1  0
 27 28  1  0
 19 29  1  0
 29 30  2  0
 30 31  1  0
 31 32  2  0
 32 33  1  0
 33 34  2  0
  4 35  2  0
 35 36  1  0
 36  2  1  0
 18 14  1  0
 28 23  1  0
 34 29  1  0
  1 37  1  0
  1 38  1  0
  1 39  1  0
  3 40  1  0
  5 41  1  0
  8 42  1  0
  8 43  1  0
  9 44  1  0
  9 45  1  0
 13 46  1  0
 13 47  1  0
 15 48  1  0
 16 49  1  0
 17 50  1  0
 19 51  1  0
 22 52  1  0
 23 53  1  0
 24 54  1  0
 24 55  1  0
 25 56  1  0
 25 57  1  0
 26 58  1  0
 26 59  1  0
 27 60  1  0
 27 61  1  0
 28 62  1  0
 28 63  1  0
 30 64  1  0
 31 65  1  0
 32 66  1  0
 33 67  1  0
 34 68  1  0
M  END
$$$$
