
     RDKit          3D

 45 49  0  0  0  0  0  0  0  0999 V2000
    7.3036    0.9507   -1.9086 Cl  0  0  0  0  0  0  0  0  0  0  0  0
    6.0762    1.0668   -0.7054 C   0  0  0  0  0  0  0  0  0  0  0  0
    6.3544    1.6982    0.5006 C   0  0  0  0  0  0  0  0  0  0  0  0
    5.3562    1.7859    1.4623 C   0  0  0  0  0  0  0  0  0  0  0  0
    4.0924    1.2374    1.2102 C   0  0  0  0  0  0  0  0  0  0  0  0
    3.7850    0.5844    0.0023 C   0  0  0  0  0  0  0  0  0  0  0  0
    2.5219    0.0561   -0.2261 N   0  0  0  0  0  0  0  0  0  0  0  0
    1.7212   -0.4546    0.9114 C   0  0  0  0  0  0  0  0  0  0  0  0
    0.8174   -1.6250    0.4784 C   0  0  0  0  0  0  0  0  0  0  0  0
   -0.1090   -1.2248   -0.6021 N   0  0  0  0  0  0  0  0  0  0  0  0
   -1.4093   -0.8573   -0.2471 C   0  0  0  0  0  0  0  0  0  0  0  0
   -1.6575   -0.5319    0.9975 N   0  0  0  0  0  0  0  0  0  0  0  0
   -2.9442   -0.1133    1.3891 C   0  0  0  0  0  0  0  0  0  0  0  0
   -3.1519    0.2279    2.7272 C   0  0  0  0  0  0  0  0  0  0  0  0
   -4.4067    0.6586    3.1675 C   0  0  0  0  0  0  0  0  0  0  0  0
   -5.4693    0.7555    2.2683 C   0  0  0  0  0  0  0  0  0  0  0  0
   -5.2837    0.4217    0.9260 C   0  0  0  0  0  0  0  0  0  0  0  0
   -4.0235   -0.0094    0.5009 C   0  0  0  0  0  0  0  0  0  0  0  0
   -3.7547   -0.3825   -0.8256 N   0  0  0  0  0  0  0  0  0  0  0  0
   -4.5959   -0.4131   -1.9125 C   0  0  0  0  0  0  0  0  0  0  0  0
   -3.8974   -0.9267   -2.9826 C   0  0  0  0  0  0  0  0  0  0  0  0
   -2.5837   -1.1975   -2.5336 C   0  0  0  0  0  0  0  0  0  0  0  0
   -2.5037   -0.8171   -1.2058 C   0  0  0  0  0  0  0  0  0  0  0  0
    0.5448   -0.4318   -1.6738 C   0  0  0  0  0  0  0  0  0  0  0  0
    2.0863   -0.3765   -1.5654 C   0  0  0  0  0  0  0  0  0  0  0  0
    4.8112    0.5218   -0.9529 C   0  0  0  0  0  0  0  0  0  0  0  0
    7.3358    2.1222    0.6926 H   0  0  0  0  0  0  0  0  0  0  0  0
    5.5509    2.2852    2.4079 H   0  0  0  0  0  0  0  0  0  0  0  0
    3.3308    1.3542    1.9779 H   0  0  0  0  0  0  0  0  0  0  0  0
    2.3734   -0.8235    1.7123 H   0  0  0  0  0  0  0  0  0  0  0  0
    1.1134    0.3649    1.3126 H   0  0  0  0  0  0  0  0  0  0  0  0
    0.2795   -2.0302    1.3433 H   0  0  0  0  0  0  0  0  0  0  0  0
    1.4374   -2.4507    0.1058 H   0  0  0  0  0  0  0  0  0  0  0  0
   -2.3258    0.1571    3.4299 H   0  0  0  0  0  0  0  0  0  0  0  0
   -4.5519    0.9197    4.2124 H   0  0  0  0  0  0  0  0  0  0  0  0
   -6.4439    1.0907    2.6155 H   0  0  0  0  0  0  0  0  0  0  0  0
   -6.1256    0.5022    0.2465 H   0  0  0  0  0  0  0  0  0  0  0  0
   -5.6245   -0.0918   -1.8465 H   0  0  0  0  0  0  0  0  0  0  0  0
   -4.2941   -1.0976   -3.9754 H   0  0  0  0  0  0  0  0  0  0  0  0
   -1.7858   -1.6319   -3.1192 H   0  0  0  0  0  0  0  0  0  0  0  0
    0.1640    0.5975   -1.6428 H   0  0  0  0  0  0  0  0  0  0  0  0
    0.2861   -0.8547   -2.6491 H   0  0  0  0  0  0  0  0  0  0  0  0
    2.4392    0.3218   -2.3338 H   0  0  0  0  0  0  0  0  0  0  0  0
    2.5105   -1.3638   -1.7861 H   0  0  0  0  0  0  0  0  0  0  0  0
    4.6504    0.0252   -1.9040 H   0  0  0  0  0  0  0  0  0  0  0  0
  1  2  1  0
  2  3  2  0
  3  4  1  0
  4  5  2  0
  5  6  1  0
  6  7  1  0
  7  8  1  0
  8  9  1  0
  9 10  1  0
 10 11  1  0
 11 12  2  0
 12 13  1  0
 13 14  2  0
 14 15  1  0
 15 16  2  0
 16 17  1  0
 17 18  2  0
 18 19  1  0
 19 20  1  0
 20 21  2  0
 21 22  1  0
 22 23  2  0
 10 24  1  0
 24 25  1  0
  6 26  2  0
 26  2  1  0
 25  7  1  0
 23 11  1  0
 18 13  1  0
 23 19  1  0
  3 27  1  0
  4 28  1  0
  5 29  1  0
  8 30  1  0
  8 31  1  0
  9 32  1  0
  9 33  1  0
 14 34  1  0
 15 35  1  0
 16 36  1  0
 17 37  1  0
 20 38  1  0
 21 39  1  0
 22 40  1  0
 24 41  1  0
 24 42  1  0
 25 43  1  0
 25 44  1  0
 26 45  1  0
M  END
$$$$
