
     RDKit          3D

 33 33  0  0  0  0  0  0  0  0999 V2000
   -4.6346   -0.7075    1.0028 C   0  0  0  0  0  0  0  0  0  0  0  0
   -3.4379   -1.4217    0.3731 C   0  0  0  0  0  0  0  0  0  0  0  0
   -3.6402   -1.6191   -1.1301 C   0  0  0  0  0  0  0  0  0  0  0  0
   -2.1522   -0.7858    0.6991 N   0  0  0  0  0  0  0  0  0  0  0  0
   -1.9835    0.5790    0.2012 C   0  0  0  0  0  0  0  0  0  0  0  0
   -0.6854    1.2121    0.7086 C   0  0  0  0  0  0  0  0  0  0  0  0
    0.5773    0.5375    0.1796 C   0  0  0  0  0  0  0  0  0  0  0  0
    1.6973    1.3147    0.6064 O   0  0  0  0  0  0  0  0  0  0  0  0
    2.9490    0.9023    0.2356 C   0  0  0  0  0  0  0  0  0  0  0  0
    3.2139   -0.2452   -0.5199 C   0  0  0  0  0  0  0  0  0  0  0  0
    4.5296   -0.5879   -0.8507 C   0  0  0  0  0  0  0  0  0  0  0  0
    5.5866    0.2143   -0.4279 C   0  0  0  0  0  0  0  0  0  0  0  0
    7.2007   -0.2147   -0.8397 Cl  0  0  0  0  0  0  0  0  0  0  0  0
    5.3446    1.3586    0.3241 C   0  0  0  0  0  0  0  0  0  0  0  0
    4.0294    1.6989    0.6534 C   0  0  0  0  0  0  0  0  0  0  0  0
    3.7590    3.2755    1.6823 Br  0  0  0  0  0  0  0  0  0  0  0  0
   -4.8340    0.2604    0.5318 H   0  0  0  0  0  0  0  0  0  0  0  0
   -5.5394   -1.3160    0.8949 H   0  0  0  0  0  0  0  0  0  0  0  0
   -4.4748   -0.5434    2.0741 H   0  0  0  0  0  0  0  0  0  0  0  0
   -3.3975   -2.4210    0.8250 H   0  0  0  0  0  0  0  0  0  0  0  0
   -2.7835   -2.1345   -1.5778 H   0  0  0  0  0  0  0  0  0  0  0  0
   -3.7806   -0.6680   -1.6539 H   0  0  0  0  0  0  0  0  0  0  0  0
   -4.5283   -2.2328   -1.3176 H   0  0  0  0  0  0  0  0  0  0  0  0
   -1.4028   -1.3797    0.3476 H   0  0  0  0  0  0  0  0  0  0  0  0
   -1.9846    0.5964   -0.8941 H   0  0  0  0  0  0  0  0  0  0  0  0
   -2.8059    1.2147    0.5449 H   0  0  0  0  0  0  0  0  0  0  0  0
   -0.6655    1.2160    1.8062 H   0  0  0  0  0  0  0  0  0  0  0  0
   -0.6707    2.2698    0.4147 H   0  0  0  0  0  0  0  0  0  0  0  0
    0.5428    0.5051   -0.9159 H   0  0  0  0  0  0  0  0  0  0  0  0
    0.6567   -0.4773    0.5852 H   0  0  0  0  0  0  0  0  0  0  0  0
    2.4203   -0.8984   -0.8679 H   0  0  0  0  0  0  0  0  0  0  0  0
    4.7208   -1.4828   -1.4379 H   0  0  0  0  0  0  0  0  0  0  0  0
    6.1734    1.9802    0.6512 H   0  0  0  0  0  0  0  0  0  0  0  0
  1  2  1  0
  2  3  1  0
  2  4  1  0
  4  5  1  0
  5  6  1  0
  6  7  1  0
  7  8  1  0
  8  9  1  0
  9 10  2  0
 10 11  1  0
 11 12  2  0
 12 13  1  0
 12 14  1  0
 14 15  2  0
 15 16  1  0
 15  9  1  0
  1 17  1  0
  1 18  1  0
  1 19  1  0
  2 20  1  0
  3 21  1  0
  3 22  1  0
  3 23  1  0
  4 24  1  0
  5 25  1  0
  5 26  1  0
  6 27  1  0
  6 28  1  0
  7 29  1  0
  7 30  1  0
 10 31  1  0
 11 32  1  0
 14 33  1  0
M  END
$$$$
