
     RDKit          3D

 46 48  0  0  0  0  0  0  0  0999 V2000
   -1.7722    1.4571   -1.5091 C   0  0  0  0  0  0  0  0  0  0  0  0
   -2.0237   -0.0388   -1.5476 C   0  0  0  0  0  0  0  0  0  0  0  0
   -2.5838   -0.4961   -0.2389 N   0  0  0  0  0  4  0  0  0  0  0  0
   -1.7323   -0.9560    0.7280 C   0  0  0  0  0  0  0  0  0  0  0  0
   -0.2832   -1.0121    0.5016 C   0  0  0  0  0  0  0  0  0  0  0  0
    0.5690   -0.1799    1.1214 C   0  0  0  0  0  0  0  0  0  0  0  0
    2.0198   -0.2002    0.8872 C   0  0  0  0  0  0  0  0  0  0  0  0
    2.7412   -1.3948    0.7987 C   0  0  0  0  0  0  0  0  0  0  0  0
    4.1223   -1.3772    0.5794 C   0  0  0  0  0  0  0  0  0  0  0  0
    4.8041   -0.1638    0.4582 C   0  0  0  0  0  0  0  0  0  0  0  0
    6.1526   -0.0488    0.2365 O   0  0  0  0  0  0  0  0  0  0  0  0
    6.9189   -1.2426    0.1623 C   0  0  0  0  0  0  0  0  0  0  0  0
    4.0906    1.0451    0.5734 C   0  0  0  0  0  0  0  0  0  0  0  0
    4.8283    2.1950    0.4407 O   0  0  0  0  0  0  0  0  0  0  0  0
    4.2199    3.4212    0.8186 C   0  0  0  0  0  0  0  0  0  0  0  0
    2.7064    1.0180    0.7885 C   0  0  0  0  0  0  0  0  0  0  0  0
   -2.2187   -1.3979    1.9584 C   0  0  0  0  0  0  0  0  0  0  0  0
   -3.5756   -1.3736    2.2173 C   0  0  0  0  0  0  0  0  0  0  0  0
   -4.4464   -0.8969    1.2460 C   0  0  0  0  0  0  0  0  0  0  0  0
   -5.8234   -0.8626    1.5117 C   0  0  0  0  0  0  0  0  0  0  0  0
   -6.7180   -0.3783    0.5622 C   0  0  0  0  0  0  0  0  0  0  0  0
   -6.2454    0.0797   -0.6596 C   0  0  0  0  0  0  0  0  0  0  0  0
   -4.8747    0.0498   -0.9394 C   0  0  0  0  0  0  0  0  0  0  0  0
   -3.9410   -0.4429   -0.0048 C   0  0  0  0  0  0  0  0  0  0  0  0
   -2.6934    2.0163   -1.3204 H   0  0  0  0  0  0  0  0  0  0  0  0
   -1.0611    1.7213   -0.7208 H   0  0  0  0  0  0  0  0  0  0  0  0
   -1.3603    1.7952   -2.4649 H   0  0  0  0  0  0  0  0  0  0  0  0
   -2.7114   -0.3231   -2.3484 H   0  0  0  0  0  0  0  0  0  0  0  0
   -1.1028   -0.5841   -1.7684 H   0  0  0  0  0  0  0  0  0  0  0  0
    0.0649   -1.7645   -0.2022 H   0  0  0  0  0  0  0  0  0  0  0  0
    0.2193    0.5849    1.8138 H   0  0  0  0  0  0  0  0  0  0  0  0
    2.2493   -2.3583    0.9087 H   0  0  0  0  0  0  0  0  0  0  0  0
    4.6396   -2.3290    0.5129 H   0  0  0  0  0  0  0  0  0  0  0  0
    7.9636   -0.9603    0.0000 H   0  0  0  0  0  0  0  0  0  0  0  0
    6.6055   -1.8599   -0.6860 H   0  0  0  0  0  0  0  0  0  0  0  0
    6.8677   -1.8040    1.1010 H   0  0  0  0  0  0  0  0  0  0  0  0
    3.8385    3.3787    1.8443 H   0  0  0  0  0  0  0  0  0  0  0  0
    4.9862    4.2014    0.7801 H   0  0  0  0  0  0  0  0  0  0  0  0
    3.4288    3.6973    0.1143 H   0  0  0  0  0  0  0  0  0  0  0  0
    2.1461    1.9442    0.8647 H   0  0  0  0  0  0  0  0  0  0  0  0
   -1.5378   -1.7707    2.7230 H   0  0  0  0  0  0  0  0  0  0  0  0
   -3.9418   -1.7248    3.1818 H   0  0  0  0  0  0  0  0  0  0  0  0
   -6.2192   -1.2110    2.4660 H   0  0  0  0  0  0  0  0  0  0  0  0
   -7.7851   -0.3548    0.7796 H   0  0  0  0  0  0  0  0  0  0  0  0
   -6.9476    0.4648   -1.3984 H   0  0  0  0  0  0  0  0  0  0  0  0
   -4.5838    0.4370   -1.9108 H   0  0  0  0  0  0  0  0  0  0  0  0
  1  2  1  0
  2  3  1  0
  3  4  2  0
  4  5  1  0
  5  6  2  3
  6  7  1  0
  7  8  2  0
  8  9  1  0
  9 10  2  0
 10 11  1  0
 11 12  1  0
 10 13  1  0
 13 14  1  0
 14 15  1  0
 13 16  2  0
  4 17  1  0
 17 18  2  0
 18 19  1  0
 19 20  2  0
 20 21  1  0
 21 22  2  0
 22 23  1  0
 23 24  2  0
 24  3  1  0
 16  7  1  0
 24 19  1  0
  1 25  1  0
  1 26  1  0
  1 27  1  0
  2 28  1  0
  2 29  1  0
  5 30  1  0
  6 31  1  0
  8 32  1  0
  9 33  1  0
 12 34  1  0
 12 35  1  0
 12 36  1  0
 15 37  1  0
 15 38  1  0
 15 39  1  0
 16 40  1  0
 17 41  1  0
 18 42  1  0
 20 43  1  0
 21 44  1  0
 22 45  1  0
 23 46  1  0
M  CHG  1   3   1
M  END
$$$$
