
     RDKit          3D

 57 59  0  0  0  0  0  0  0  0999 V2000
   10.7002    0.2715   -3.6060 C   0  0  0  0  0  0  0  0  0  0  0  0
   10.1546    0.0431   -2.3126 O   0  0  0  0  0  0  0  0  0  0  0  0
    8.7923   -0.0424   -2.2242 C   0  0  0  0  0  0  0  0  0  0  0  0
    7.8833    0.2041   -3.2554 C   0  0  0  0  0  0  0  0  0  0  0  0
    6.5028    0.0906   -3.0261 C   0  0  0  0  0  0  0  0  0  0  0  0
    6.0211   -0.2668   -1.7674 C   0  0  0  0  0  0  0  0  0  0  0  0
    4.7124   -0.4000   -1.4014 O   0  0  0  0  0  0  0  0  0  0  0  0
    3.6875   -0.1959   -2.3797 C   0  0  0  0  0  0  0  0  0  0  0  0
    3.3167    1.2839   -2.5186 C   0  0  0  0  0  0  0  0  0  0  0  0
    2.5428    1.9693   -1.0079 S   0  0  0  0  0  0  0  0  0  0  0  0
    0.9532    1.3007   -1.1208 C   0  0  0  0  0  0  0  0  0  0  0  0
    0.4718    0.5982   -2.1176 N   0  0  0  0  0  0  0  0  0  0  0  0
   -0.8206    0.2632   -1.8059 N   0  0  0  0  0  0  0  0  0  0  0  0
   -1.1128    0.7864   -0.6297 C   0  0  0  0  0  0  0  0  0  0  0  0
   -2.4241    0.6573    0.0689 C   0  0  0  0  0  0  0  0  0  0  0  0
   -2.4382   -0.5499    1.0092 C   0  0  0  0  0  0  0  0  0  0  0  0
   -3.6305   -0.5970    1.8400 N   0  0  0  0  0  0  0  0  0  0  0  0
   -4.8397   -1.0332    1.3361 C   0  0  0  0  0  0  0  0  0  0  0  0
   -4.9954   -1.3832    0.1725 O   0  0  0  0  0  0  0  0  0  0  0  0
   -5.9951   -1.0256    2.2740 C   0  0  0  0  0  0  0  0  0  0  0  0
   -7.2841   -0.8890    1.7423 C   0  0  0  0  0  0  0  0  0  0  0  0
   -8.4039   -0.8875    2.5846 C   0  0  0  0  0  0  0  0  0  0  0  0
   -8.2435   -1.0331    3.9632 C   0  0  0  0  0  0  0  0  0  0  0  0
   -9.2473   -1.0609    4.8964 O   0  0  0  0  0  0  0  0  0  0  0  0
  -10.5758   -0.9139    4.4074 C   0  0  0  0  0  0  0  0  0  0  0  0
   -6.9571   -1.1852    4.4901 C   0  0  0  0  0  0  0  0  0  0  0  0
   -5.8346   -1.1882    3.6550 C   0  0  0  0  0  0  0  0  0  0  0  0
   -0.0045    1.4514   -0.1557 N   0  0  0  0  0  0  0  0  0  0  0  0
    0.1377    2.1645    1.0886 C   0  0  0  0  0  0  0  0  0  0  0  0
    6.9340   -0.5085   -0.7389 C   0  0  0  0  0  0  0  0  0  0  0  0
    8.3083   -0.3964   -0.9646 C   0  0  0  0  0  0  0  0  0  0  0  0
   11.7913    0.2259   -3.5222 H   0  0  0  0  0  0  0  0  0  0  0  0
   10.3888   -0.5053   -4.3132 H   0  0  0  0  0  0  0  0  0  0  0  0
   10.4355    1.2681   -3.9706 H   0  0  0  0  0  0  0  0  0  0  0  0
    8.2113    0.5126   -4.2439 H   0  0  0  0  0  0  0  0  0  0  0  0
    5.8374    0.3075   -3.8548 H   0  0  0  0  0  0  0  0  0  0  0  0
    2.8209   -0.7802   -2.0522 H   0  0  0  0  0  0  0  0  0  0  0  0
    3.9704   -0.6251   -3.3491 H   0  0  0  0  0  0  0  0  0  0  0  0
    4.2129    1.8841   -2.7028 H   0  0  0  0  0  0  0  0  0  0  0  0
    2.6464    1.4324   -3.3735 H   0  0  0  0  0  0  0  0  0  0  0  0
   -3.2152    0.5496   -0.6802 H   0  0  0  0  0  0  0  0  0  0  0  0
   -2.6616    1.5741    0.6183 H   0  0  0  0  0  0  0  0  0  0  0  0
   -1.5837   -0.5224    1.6960 H   0  0  0  0  0  0  0  0  0  0  0  0
   -2.3730   -1.4821    0.4329 H   0  0  0  0  0  0  0  0  0  0  0  0
   -3.6006   -0.1619    2.7538 H   0  0  0  0  0  0  0  0  0  0  0  0
   -7.4213   -0.7875    0.6692 H   0  0  0  0  0  0  0  0  0  0  0  0
   -9.3833   -0.7806    2.1291 H   0  0  0  0  0  0  0  0  0  0  0  0
  -10.8456   -1.7338    3.7337 H   0  0  0  0  0  0  0  0  0  0  0  0
  -10.7107    0.0563    3.9206 H   0  0  0  0  0  0  0  0  0  0  0  0
  -11.2523   -0.9532    5.2653 H   0  0  0  0  0  0  0  0  0  0  0  0
   -6.8306   -1.3230    5.5638 H   0  0  0  0  0  0  0  0  0  0  0  0
   -4.8552   -1.3544    4.0975 H   0  0  0  0  0  0  0  0  0  0  0  0
    0.9499    1.7060    1.6629 H   0  0  0  0  0  0  0  0  0  0  0  0
   -0.7863    2.1084    1.6731 H   0  0  0  0  0  0  0  0  0  0  0  0
    0.3650    3.2139    0.8686 H   0  0  0  0  0  0  0  0  0  0  0  0
    6.5752   -0.7789    0.2490 H   0  0  0  0  0  0  0  0  0  0  0  0
    9.0031   -0.5778   -0.1468 H   0  0  0  0  0  0  0  0  0  0  0  0
  1  2  1  0
  2  3  1  0
  3  4  2  0
  4  5  1  0
  5  6  2  0
  6  7  1  0
  7  8  1  0
  8  9  1  0
  9 10  1  0
 10 11  1  0
 11 12  2  0
 12 13  1  0
 13 14  2  0
 14 15  1  0
 15 16  1  0
 16 17  1  0
 17 18  1  0
 18 19  2  0
 18 20  1  0
 20 21  2  0
 21 22  1  0
 22 23  2  0
 23 24  1  0
 24 25  1  0
 23 26  1  0
 26 27  2  0
 14 28  1  0
 28 29  1  0
  6 30  1  0
 30 31  2  0
 31  3  1  0
 28 11  1  0
 27 20  1  0
  1 32  1  0
  1 33  1  0
  1 34  1  0
  4 35  1  0
  5 36  1  0
  8 37  1  0
  8 38  1  0
  9 39  1  0
  9 40  1  0
 15 41  1  0
 15 42  1  0
 16 43  1  0
 16 44  1  0
 17 45  1  0
 21 46  1  0
 22 47  1  0
 25 48  1  0
 25 49  1  0
 25 50  1  0
 26 51  1  0
 27 52  1  0
 29 53  1  0
 29 54  1  0
 29 55  1  0
 30 56  1  0
 31 57  1  0
M  END
$$$$
