
     RDKit          3D

 60 63  0  0  0  0  0  0  0  0999 V2000
   -1.0669    3.8249    2.6388 C   0  0  0  0  0  0  0  0  0  0  0  0
   -2.3231    3.3743    2.1538 O   0  0  0  0  0  0  0  0  0  0  0  0
   -2.3229    2.4240    1.1608 C   0  0  0  0  0  0  0  0  0  0  0  0
   -1.1722    1.7869    0.6817 C   0  0  0  0  0  0  0  0  0  0  0  0
   -1.2664    0.8236   -0.3238 C   0  0  0  0  0  0  0  0  0  0  0  0
   -2.5190    0.4963   -0.8469 C   0  0  0  0  0  0  0  0  0  0  0  0
   -2.6177   -0.7336   -2.1211 S   0  0  0  0  0  6  0  0  0  0  0  0
   -1.5795   -0.4398   -3.0845 O   0  0  0  0  0  0  0  0  0  0  0  0
   -4.0002   -0.8724   -2.5290 O   0  0  0  0  0  0  0  0  0  0  0  0
   -2.1932   -2.1366   -1.2900 N   0  0  0  0  0  0  0  0  0  0  0  0
   -3.1228   -2.6341   -0.2676 C   0  0  0  0  0  0  0  0  0  0  0  0
   -2.6427   -4.0566   -0.0862 C   0  0  0  0  0  0  0  0  0  0  0  0
   -2.2209   -4.4796   -1.3868 O   0  0  0  0  0  0  0  0  0  0  0  0
   -1.9071   -3.2976   -2.1611 C   0  0  0  0  0  0  0  0  0  0  0  0
   -0.4198   -3.3430   -2.5713 C   0  0  0  0  0  0  0  0  0  0  0  0
    0.4783   -3.1288   -1.4480 N   0  0  0  0  0  0  0  0  0  0  0  0
    1.8094   -2.8365   -1.5895 C   0  0  0  0  0  0  0  0  0  0  0  0
    2.4231   -2.7211   -2.6408 O   0  0  0  0  0  0  0  0  0  0  0  0
    2.5277   -2.6285   -0.2399 C   0  0  0  0  0  0  0  0  0  0  0  0
    1.9308   -2.8382    0.8069 O   0  0  0  0  0  0  0  0  0  0  0  0
    3.8178   -2.1740   -0.3666 N   0  0  0  0  0  0  0  0  0  0  0  0
    4.5801   -1.7189    0.7620 C   0  0  0  0  0  0  0  0  0  0  0  0
    4.3285   -0.2554    1.0296 C   0  0  0  0  0  0  0  0  0  0  0  0
    3.2935    0.1387    1.9138 C   0  0  0  0  0  0  0  0  0  0  0  0
    3.0349    1.4924    2.1636 C   0  0  0  0  0  0  0  0  0  0  0  0
    3.8144    2.4262    1.5109 C   0  0  0  0  0  0  0  0  0  0  0  0
    4.8131    2.0544    0.6398 C   0  0  0  0  0  0  0  0  0  0  0  0
    5.0922    0.7285    0.3736 C   0  0  0  0  0  0  0  0  0  0  0  0
    5.4588    3.1279    0.0998 O   0  0  0  0  0  0  0  0  0  0  0  0
    4.7664    4.2144    0.7473 C   0  0  0  0  0  0  0  0  0  0  0  0
    3.7073    3.7806    1.6299 O   0  0  0  0  0  0  0  0  0  0  0  0
   -3.6782    1.1285   -0.3911 C   0  0  0  0  0  0  0  0  0  0  0  0
   -3.5854    2.0956    0.6159 C   0  0  0  0  0  0  0  0  0  0  0  0
   -4.6604    2.7647    1.1428 O   0  0  0  0  0  0  0  0  0  0  0  0
   -5.9131    2.6113    0.4836 C   0  0  0  0  0  0  0  0  0  0  0  0
   -1.2560    4.6096    3.3803 H   0  0  0  0  0  0  0  0  0  0  0  0
   -0.5243    3.0194    3.1425 H   0  0  0  0  0  0  0  0  0  0  0  0
   -0.4689    4.2633    1.8367 H   0  0  0  0  0  0  0  0  0  0  0  0
   -0.1855    2.0198    1.0721 H   0  0  0  0  0  0  0  0  0  0  0  0
   -0.3656    0.3355   -0.6915 H   0  0  0  0  0  0  0  0  0  0  0  0
   -4.1535   -2.6347   -0.6404 H   0  0  0  0  0  0  0  0  0  0  0  0
   -3.0660   -2.0651    0.6631 H   0  0  0  0  0  0  0  0  0  0  0  0
   -1.7761   -4.1060    0.5850 H   0  0  0  0  0  0  0  0  0  0  0  0
   -3.4214   -4.7263    0.2945 H   0  0  0  0  0  0  0  0  0  0  0  0
   -2.5526   -3.3240   -3.0457 H   0  0  0  0  0  0  0  0  0  0  0  0
   -0.1948   -2.5870   -3.3309 H   0  0  0  0  0  0  0  0  0  0  0  0
   -0.1713   -4.3246   -2.9900 H   0  0  0  0  0  0  0  0  0  0  0  0
    0.1305   -3.2434   -0.5017 H   0  0  0  0  0  0  0  0  0  0  0  0
    4.1223   -1.9460   -1.3091 H   0  0  0  0  0  0  0  0  0  0  0  0
    5.6407   -1.8864    0.5429 H   0  0  0  0  0  0  0  0  0  0  0  0
    4.3303   -2.3203    1.6439 H   0  0  0  0  0  0  0  0  0  0  0  0
    2.6845   -0.6208    2.4095 H   0  0  0  0  0  0  0  0  0  0  0  0
    2.2500    1.7971    2.8491 H   0  0  0  0  0  0  0  0  0  0  0  0
    5.8835    0.4668   -0.3228 H   0  0  0  0  0  0  0  0  0  0  0  0
    4.3374    4.8621   -0.0231 H   0  0  0  0  0  0  0  0  0  0  0  0
    5.4928    4.7916    1.3280 H   0  0  0  0  0  0  0  0  0  0  0  0
   -4.6319    0.8514   -0.8260 H   0  0  0  0  0  0  0  0  0  0  0  0
   -6.2903    1.5878    0.5927 H   0  0  0  0  0  0  0  0  0  0  0  0
   -5.8489    2.9004   -0.5721 H   0  0  0  0  0  0  0  0  0  0  0  0
   -6.6294    3.2809    0.9661 H   0  0  0  0  0  0  0  0  0  0  0  0
  1  2  1  0
  2  3  1  0
  3  4  2  0
  4  5  1  0
  5  6  2  0
  6  7  1  0
  7  8  2  0
  7  9  2  0
  7 10  1  0
 10 11  1  0
 11 12  1  0
 12 13  1  0
 13 14  1  0
 14 15  1  0
 15 16  1  0
 16 17  1  0
 17 18  2  0
 17 19  1  0
 19 20  2  0
 19 21  1  0
 21 22  1  0
 22 23  1  0
 23 24  2  0
 24 25  1  0
 25 26  2  0
 26 27  1  0
 27 28  2  0
 27 29  1  0
 29 30  1  0
 30 31  1  0
  6 32  1  0
 32 33  2  0
 33 34  1  0
 34 35  1  0
 33  3  1  0
 14 10  1  0
 28 23  1  0
 31 26  1  0
  1 36  1  0
  1 37  1  0
  1 38  1  0
  4 39  1  0
  5 40  1  0
 11 41  1  0
 11 42  1  0
 12 43  1  0
 12 44  1  0
 14 45  1  0
 15 46  1  0
 15 47  1  0
 16 48  1  0
 21 49  1  0
 22 50  1  0
 22 51  1  0
 24 52  1  0
 25 53  1  0
 28 54  1  0
 30 55  1  0
 30 56  1  0
 32 57  1  0
 35 58  1  0
 35 59  1  0
 35 60  1  0
M  END
$$$$
