
     RDKit          3D

 50 53  0  0  0  0  0  0  0  0999 V2000
    7.2535   -2.1480    0.8916 C   0  0  0  0  0  0  0  0  0  0  0  0
    6.0021   -1.3460    0.6872 C   0  0  0  0  0  0  0  0  0  0  0  0
    4.8512   -1.9444    0.1778 C   0  0  0  0  0  0  0  0  0  0  0  0
    3.6755   -1.2040    0.0159 C   0  0  0  0  0  0  0  0  0  0  0  0
    3.6190    0.1489    0.3681 C   0  0  0  0  0  0  0  0  0  0  0  0
    2.4439    0.9293    0.2163 N   0  0  0  0  0  0  0  0  0  0  0  0
    1.2216    0.5276   -0.3016 C   0  0  0  0  0  0  0  0  0  0  0  0
    0.9407   -0.5827   -0.7474 O   0  0  0  0  0  0  0  0  0  0  0  0
    0.1732    1.6517   -0.3092 C   0  0  0  0  0  0  0  0  0  0  0  0
   -1.1905    1.1150   -0.4133 N   0  0  0  0  0  4  0  0  0  0  0  0
   -2.1307    1.0039    0.6101 C   0  0  0  0  0  0  0  0  0  0  0  0
   -3.2665    0.3726    0.1156 C   0  0  0  0  0  0  0  0  0  0  0  0
   -4.5876    0.0726    0.9116 C   0  0  0  0  0  0  0  0  0  0  0  0
   -5.6921   -0.4944    0.2726 C   0  0  0  0  0  0  0  0  0  0  0  0
   -6.8628   -0.7531    0.9910 C   0  0  0  0  0  0  0  0  0  0  0  0
   -6.9358   -0.4446    2.3471 C   0  0  0  0  0  0  0  0  0  0  0  0
   -5.8393    0.1248    2.9888 C   0  0  0  0  0  0  0  0  0  0  0  0
   -4.6670    0.3857    2.2749 C   0  0  0  0  0  0  0  0  0  0  0  0
   -2.9300    0.0979   -1.1973 N   0  0  0  0  0  0  0  0  0  0  0  0
   -1.7090    0.5359   -1.4929 C   0  0  0  0  0  0  0  0  0  0  0  0
   -1.3178    0.2657   -2.8965 C   0  0  0  0  0  0  0  0  0  0  0  0
   -2.3813   -0.7604   -3.3329 C   0  0  0  0  0  0  0  0  0  0  0  0
   -3.5500   -0.5818   -2.3259 C   0  0  0  0  0  0  0  0  0  0  0  0
    4.7757    0.7601    0.9017 C   0  0  0  0  0  0  0  0  0  0  0  0
    4.8149    2.2065    1.3201 C   0  0  0  0  0  0  0  0  0  0  0  0
    5.9513    0.0004    1.0583 C   0  0  0  0  0  0  0  0  0  0  0  0
    8.1430   -1.5204    0.7726 H   0  0  0  0  0  0  0  0  0  0  0  0
    7.3254   -2.9552    0.1549 H   0  0  0  0  0  0  0  0  0  0  0  0
    7.2587   -2.5839    1.8955 H   0  0  0  0  0  0  0  0  0  0  0  0
    4.8571   -2.9967   -0.1001 H   0  0  0  0  0  0  0  0  0  0  0  0
    2.8197   -1.7336   -0.3884 H   0  0  0  0  0  0  0  0  0  0  0  0
    2.5323    1.8904    0.5196 H   0  0  0  0  0  0  0  0  0  0  0  0
    0.3563    2.3020   -1.1705 H   0  0  0  0  0  0  0  0  0  0  0  0
    0.2497    2.2429    0.6092 H   0  0  0  0  0  0  0  0  0  0  0  0
   -1.8729    1.4013    1.5769 H   0  0  0  0  0  0  0  0  0  0  0  0
   -5.6869   -0.7362   -0.7819 H   0  0  0  0  0  0  0  0  0  0  0  0
   -7.7237   -1.1944    0.4926 H   0  0  0  0  0  0  0  0  0  0  0  0
   -7.8484   -0.6477    2.9039 H   0  0  0  0  0  0  0  0  0  0  0  0
   -5.8999    0.3643    4.0487 H   0  0  0  0  0  0  0  0  0  0  0  0
   -3.8354    0.8259    2.8165 H   0  0  0  0  0  0  0  0  0  0  0  0
   -0.3013   -0.1225   -2.9357 H   0  0  0  0  0  0  0  0  0  0  0  0
   -1.4102    1.2143   -3.4302 H   0  0  0  0  0  0  0  0  0  0  0  0
   -1.9701   -1.7710   -3.2233 H   0  0  0  0  0  0  0  0  0  0  0  0
   -2.6942   -0.6354   -4.3729 H   0  0  0  0  0  0  0  0  0  0  0  0
   -4.3314    0.0629   -2.7387 H   0  0  0  0  0  0  0  0  0  0  0  0
   -3.9592   -1.5490   -2.0256 H   0  0  0  0  0  0  0  0  0  0  0  0
    4.5981    2.8549    0.4650 H   0  0  0  0  0  0  0  0  0  0  0  0
    4.0867    2.3907    2.1166 H   0  0  0  0  0  0  0  0  0  0  0  0
    5.7996    2.4925    1.7051 H   0  0  0  0  0  0  0  0  0  0  0  0
    6.8448    0.4646    1.4753 H   0  0  0  0  0  0  0  0  0  0  0  0
  1  2  1  0
  2  3  2  0
  3  4  1  0
  4  5  2  0
  5  6  1  0
  6  7  1  0
  7  8  2  0
  7  9  1  0
  9 10  1  0
 10 11  1  0
 11 12  2  0
 12 13  1  0
 13 14  2  0
 14 15  1  0
 15 16  2  0
 16 17  1  0
 17 18  2  0
 12 19  1  0
 19 20  1  0
 20 21  1  0
 21 22  1  0
 22 23  1  0
  5 24  1  0
 24 25  1  0
 24 26  2  0
 26  2  1  0
 20 10  2  0
 18 13  1  0
 23 19  1  0
  1 27  1  0
  1 28  1  0
  1 29  1  0
  3 30  1  0
  4 31  1  0
  6 32  1  0
  9 33  1  0
  9 34  1  0
 11 35  1  0
 14 36  1  0
 15 37  1  0
 16 38  1  0
 17 39  1  0
 18 40  1  0
 21 41  1  0
 21 42  1  0
 22 43  1  0
 22 44  1  0
 23 45  1  0
 23 46  1  0
 25 47  1  0
 25 48  1  0
 25 49  1  0
 26 50  1  0
M  CHG  1  10   1
M  END
$$$$
