
     RDKit          3D

 49 52  0  0  0  0  0  0  0  0999 V2000
    5.4533    2.2191    2.5109 C   0  0  0  0  0  0  0  0  0  0  0  0
    5.5614    0.8273    3.0757 C   0  0  0  0  0  0  0  0  0  0  0  0
    6.7012    0.5092    3.8400 C   0  0  0  0  0  0  0  0  0  0  0  0
    6.8549   -0.7615    4.3874 C   0  0  0  0  0  0  0  0  0  0  0  0
    8.2560   -1.1322    5.3124 Cl  0  0  0  0  0  0  0  0  0  0  0  0
    5.8824   -1.7310    4.1839 C   0  0  0  0  0  0  0  0  0  0  0  0
    4.7448   -1.4279    3.4276 C   0  0  0  0  0  0  0  0  0  0  0  0
    4.5662   -0.1563    2.8669 C   0  0  0  0  0  0  0  0  0  0  0  0
    3.4333    0.1780    2.0863 N   0  0  0  0  0  0  0  0  0  0  0  0
    2.3159   -0.6088    1.8129 C   0  0  0  0  0  0  0  0  0  0  0  0
    2.1088   -1.7322    2.2589 O   0  0  0  0  0  0  0  0  0  0  0  0
    1.3528    0.1217    0.8818 C   0  0  0  0  0  0  0  0  0  0  0  0
   -0.1125   -0.8650    0.4793 S   0  0  0  0  0  0  0  0  0  0  0  0
   -0.9336    0.2259   -0.5764 C   0  0  0  0  0  0  0  0  0  0  0  0
   -0.5618    1.4567   -0.8388 N   0  0  0  0  0  0  0  0  0  0  0  0
   -1.4654    1.9850   -1.7249 N   0  0  0  0  0  0  0  0  0  0  0  0
   -2.3742    1.0644   -1.9888 C   0  0  0  0  0  0  0  0  0  0  0  0
   -3.5235    1.2304   -2.9283 C   0  0  0  0  0  0  0  0  0  0  0  0
   -4.8279    1.4706   -2.2209 C   0  0  0  0  0  0  0  0  0  0  0  0
   -5.1257    2.4310   -1.2731 C   0  0  0  0  0  0  0  0  0  0  0  0
   -6.4786    2.3617   -0.8327 C   0  0  0  0  0  0  0  0  0  0  0  0
   -7.1774    1.3614   -1.4696 C   0  0  0  0  0  0  0  0  0  0  0  0
   -6.2025    0.5118   -2.5872 S   0  0  0  0  0  0  0  0  0  0  0  0
   -2.0806   -0.0720   -1.2607 N   0  0  0  0  0  0  0  0  0  0  0  0
   -2.8632   -1.2918   -1.1903 C   0  0  0  0  0  0  0  0  0  0  0  0
   -2.7128   -2.1180   -2.4143 C   0  0  0  0  0  0  0  0  0  0  0  0
   -3.6218   -2.7001   -3.2765 C   0  0  0  0  0  0  0  0  0  0  0  0
   -2.8613   -3.3751   -4.2618 C   0  0  0  0  0  0  0  0  0  0  0  0
   -1.5429   -3.1692   -3.9358 C   0  0  0  0  0  0  0  0  0  0  0  0
   -1.4432   -2.4109   -2.8144 O   0  0  0  0  0  0  0  0  0  0  0  0
    4.5483    2.7113    2.8856 H   0  0  0  0  0  0  0  0  0  0  0  0
    6.3068    2.8424    2.7999 H   0  0  0  0  0  0  0  0  0  0  0  0
    5.4269    2.1844    1.4162 H   0  0  0  0  0  0  0  0  0  0  0  0
    7.4728    1.2575    4.0083 H   0  0  0  0  0  0  0  0  0  0  0  0
    5.9957   -2.7268    4.6022 H   0  0  0  0  0  0  0  0  0  0  0  0
    4.0191   -2.2235    3.2882 H   0  0  0  0  0  0  0  0  0  0  0  0
    3.4261    1.1074    1.6874 H   0  0  0  0  0  0  0  0  0  0  0  0
    1.0399    1.0510    1.3732 H   0  0  0  0  0  0  0  0  0  0  0  0
    1.8889    0.3591   -0.0432 H   0  0  0  0  0  0  0  0  0  0  0  0
   -3.5824    0.3690   -3.6007 H   0  0  0  0  0  0  0  0  0  0  0  0
   -3.3240    2.0971   -3.5729 H   0  0  0  0  0  0  0  0  0  0  0  0
   -4.3998    3.1523   -0.9101 H   0  0  0  0  0  0  0  0  0  0  0  0
   -6.9183    3.0225   -0.0968 H   0  0  0  0  0  0  0  0  0  0  0  0
   -8.2166    1.0928   -1.3429 H   0  0  0  0  0  0  0  0  0  0  0  0
   -2.5679   -1.8694   -0.3098 H   0  0  0  0  0  0  0  0  0  0  0  0
   -3.9072   -1.0055   -1.0348 H   0  0  0  0  0  0  0  0  0  0  0  0
   -4.6997   -2.6475   -3.2024 H   0  0  0  0  0  0  0  0  0  0  0  0
   -3.2269   -3.9462   -5.1034 H   0  0  0  0  0  0  0  0  0  0  0  0
   -0.6036   -3.4826   -4.3736 H   0  0  0  0  0  0  0  0  0  0  0  0
  1  2  1  0
  2  3  2  0
  3  4  1  0
  4  5  1  0
  4  6  2  0
  6  7  1  0
  7  8  2  0
  8  9  1  0
  9 10  1  0
 10 11  2  0
 10 12  1  0
 12 13  1  0
 13 14  1  0
 14 15  2  0
 15 16  1  0
 16 17  2  0
 17 18  1  0
 18 19  1  0
 19 20  2  0
 20 21  1  0
 21 22  2  0
 22 23  1  0
 17 24  1  0
 24 25  1  0
 25 26  1  0
 26 27  2  0
 27 28  1  0
 28 29  2  0
 29 30  1  0
  8  2  1  0
 24 14  1  0
 30 26  1  0
 23 19  1  0
  1 31  1  0
  1 32  1  0
  1 33  1  0
  3 34  1  0
  6 35  1  0
  7 36  1  0
  9 37  1  0
 12 38  1  0
 12 39  1  0
 18 40  1  0
 18 41  1  0
 20 42  1  0
 21 43  1  0
 22 44  1  0
 25 45  1  0
 25 46  1  0
 27 47  1  0
 28 48  1  0
 29 49  1  0
M  END
$$$$
