
     RDKit          3D

 49 53  0  0  0  0  0  0  0  0999 V2000
    4.5384   -1.7946    3.9160 C   0  0  0  0  0  0  0  0  0  0  0  0
    3.6229   -0.7453    3.3709 C   0  0  0  0  0  0  0  0  0  0  0  0
    2.6085    0.1109    4.4412 S   0  0  0  0  0  0  0  0  0  0  0  0
    1.9369    1.0288    3.1827 C   0  0  0  0  0  0  0  0  0  0  0  0
    0.9952    1.9457    3.4638 N   0  0  0  0  0  0  0  0  0  0  0  0
    0.5657    2.5905    2.3823 C   0  0  0  0  0  0  0  0  0  0  0  0
    0.9610    2.4012    1.1196 N   0  0  0  0  0  0  0  0  0  0  0  0
    1.9015    1.4642    0.8775 C   0  0  0  0  0  0  0  0  0  0  0  0
    2.4214    1.2581   -0.8013 S   0  0  0  0  0  0  0  0  0  0  0  0
    0.8174    0.8588   -1.6322 C   0  0  0  0  0  0  0  0  0  0  0  0
    0.0037    2.1346   -1.8441 C   0  0  0  0  0  0  0  0  0  0  0  0
    0.0882   -0.2953   -0.8984 C   0  0  0  0  0  0  0  0  0  0  0  0
    0.6966   -1.1846   -0.2966 O   0  0  0  0  0  0  0  0  0  0  0  0
   -1.3063   -0.2893   -1.0312 N   0  0  0  0  0  0  0  0  0  0  0  0
   -2.1404   -0.1587    0.1374 C   0  0  0  0  0  0  0  0  0  0  0  0
   -1.5732   -0.2496    1.4261 C   0  0  0  0  0  0  0  0  0  0  0  0
   -2.3364   -0.1029    2.5888 C   0  0  0  0  0  0  0  0  0  0  0  0
   -3.6957    0.1454    2.4953 C   0  0  0  0  0  0  0  0  0  0  0  0
   -4.2820    0.2531    1.2383 C   0  0  0  0  0  0  0  0  0  0  0  0
   -3.5176    0.1070    0.0647 C   0  0  0  0  0  0  0  0  0  0  0  0
   -4.3790    0.3764   -1.4605 S   0  0  0  0  0  0  0  0  0  0  0  0
   -3.2505   -0.3638   -2.6031 C   0  0  0  0  0  0  0  0  0  0  0  0
   -3.7649   -0.6789   -3.8742 C   0  0  0  0  0  0  0  0  0  0  0  0
   -2.9587   -1.2510   -4.8540 C   0  0  0  0  0  0  0  0  0  0  0  0
   -1.6297   -1.5208   -4.5685 C   0  0  0  0  0  0  0  0  0  0  0  0
   -1.1109   -1.2050   -3.3095 C   0  0  0  0  0  0  0  0  0  0  0  0
   -1.9016   -0.6036   -2.3048 C   0  0  0  0  0  0  0  0  0  0  0  0
    2.4574    0.7159    1.9335 C   0  0  0  0  0  0  0  0  0  0  0  0
    3.4572   -0.3422    2.0507 C   0  0  0  0  0  0  0  0  0  0  0  0
    4.2127   -0.9405    0.9030 C   0  0  0  0  0  0  0  0  0  0  0  0
    5.5776   -1.5560    3.6664 H   0  0  0  0  0  0  0  0  0  0  0  0
    4.4713   -1.8861    5.0051 H   0  0  0  0  0  0  0  0  0  0  0  0
    4.2935   -2.7705    3.4838 H   0  0  0  0  0  0  0  0  0  0  0  0
   -0.1932    3.3502    2.5414 H   0  0  0  0  0  0  0  0  0  0  0  0
    1.1064    0.4778   -2.6174 H   0  0  0  0  0  0  0  0  0  0  0  0
   -0.7692    1.9751   -2.6037 H   0  0  0  0  0  0  0  0  0  0  0  0
    0.6260    2.9604   -2.2061 H   0  0  0  0  0  0  0  0  0  0  0  0
   -0.5158    2.4584   -0.9379 H   0  0  0  0  0  0  0  0  0  0  0  0
   -0.5180   -0.4633    1.5711 H   0  0  0  0  0  0  0  0  0  0  0  0
   -1.8582   -0.1876    3.5624 H   0  0  0  0  0  0  0  0  0  0  0  0
   -4.2965    0.2608    3.3934 H   0  0  0  0  0  0  0  0  0  0  0  0
   -5.3481    0.4653    1.1771 H   0  0  0  0  0  0  0  0  0  0  0  0
   -4.8094   -0.4799   -4.1086 H   0  0  0  0  0  0  0  0  0  0  0  0
   -3.3724   -1.4943   -5.8293 H   0  0  0  0  0  0  0  0  0  0  0  0
   -0.9949   -1.9898   -5.3167 H   0  0  0  0  0  0  0  0  0  0  0  0
   -0.0764   -1.4862   -3.1237 H   0  0  0  0  0  0  0  0  0  0  0  0
    3.5252   -1.3989    0.1861 H   0  0  0  0  0  0  0  0  0  0  0  0
    4.9032   -1.7240    1.2301 H   0  0  0  0  0  0  0  0  0  0  0  0
    4.8111   -0.1761    0.3980 H   0  0  0  0  0  0  0  0  0  0  0  0
  1  2  1  0
  2  3  1  0
  3  4  1  0
  4  5  2  0
  5  6  1  0
  6  7  2  0
  7  8  1  0
  8  9  1  0
  9 10  1  0
 10 11  1  0
 10 12  1  0
 12 13  2  0
 12 14  1  0
 14 15  1  0
 15 16  2  0
 16 17  1  0
 17 18  2  0
 18 19  1  0
 19 20  2  0
 20 21  1  0
 21 22  1  0
 22 23  2  0
 23 24  1  0
 24 25  2  0
 25 26  1  0
 26 27  2  0
  8 28  2  0
 28 29  1  0
 29 30  1  0
 29  2  2  0
 28  4  1  0
 27 14  1  0
 20 15  1  0
 27 22  1  0
  1 31  1  0
  1 32  1  0
  1 33  1  0
  6 34  1  0
 10 35  1  0
 11 36  1  0
 11 37  1  0
 11 38  1  0
 16 39  1  0
 17 40  1  0
 18 41  1  0
 19 42  1  0
 23 43  1  0
 24 44  1  0
 25 45  1  0
 26 46  1  0
 30 47  1  0
 30 48  1  0
 30 49  1  0
M  END
$$$$
