
     RDKit          3D

 54 57  0  0  0  0  0  0  0  0999 V2000
    1.1396   -2.6772   -0.1738 O   0  0  0  0  0  0  0  0  0  0  0  0
    0.1230   -2.0242   -0.3958 C   0  0  0  0  0  0  0  0  0  0  0  0
   -1.1824   -2.7208   -0.7993 C   0  0  0  0  0  0  0  0  0  0  0  0
   -2.3337   -1.8708   -0.8263 O   0  0  0  0  0  0  0  0  0  0  0  0
   -2.9672   -1.7370    0.3670 C   0  0  0  0  0  0  0  0  0  0  0  0
   -2.5953   -2.2143    1.4252 O   0  0  0  0  0  0  0  0  0  0  0  0
   -4.1781   -0.8848    0.2230 C   0  0  0  0  0  0  0  0  0  0  0  0
   -4.6474   -0.4501   -1.0268 C   0  0  0  0  0  0  0  0  0  0  0  0
   -5.7875    0.3554   -1.1081 C   0  0  0  0  0  0  0  0  0  0  0  0
   -6.4582    0.7294    0.0542 C   0  0  0  0  0  0  0  0  0  0  0  0
   -6.0108    0.2750    1.2995 C   0  0  0  0  0  0  0  0  0  0  0  0
   -4.8671   -0.5179    1.3869 C   0  0  0  0  0  0  0  0  0  0  0  0
   -6.6420    0.5764    2.4789 O   0  0  0  0  0  0  0  0  0  0  0  0
   -7.9616    1.0869    2.2525 C   0  0  0  0  0  0  0  0  0  0  0  0
   -7.9505    2.1275    1.1438 C   0  0  0  0  0  0  0  0  0  0  0  0
   -7.5548    1.5376   -0.1019 O   0  0  0  0  0  0  0  0  0  0  0  0
    0.0276   -0.6421   -0.4047 N   0  0  0  0  0  0  0  0  0  0  0  0
    1.0298    0.2890   -0.0727 C   0  0  0  0  0  0  0  0  0  0  0  0
    0.7574    1.6419   -0.3200 C   0  0  0  0  0  0  0  0  0  0  0  0
    1.7073    2.6278   -0.0360 C   0  0  0  0  0  0  0  0  0  0  0  0
    2.9433    2.2705    0.4969 C   0  0  0  0  0  0  0  0  0  0  0  0
    3.2166    0.9231    0.7456 C   0  0  0  0  0  0  0  0  0  0  0  0
    4.7769    0.4556    1.4655 S   0  0  0  0  0  6  0  0  0  0  0  0
    4.5358   -0.6622    2.3521 O   0  0  0  0  0  0  0  0  0  0  0  0
    5.4081    1.6659    1.9517 O   0  0  0  0  0  0  0  0  0  0  0  0
    5.6836   -0.0963    0.1433 N   0  0  0  0  0  0  0  0  0  0  0  0
    5.2552   -1.3770   -0.4919 C   0  0  0  0  0  0  0  0  0  0  0  0
    6.3652   -1.8739   -1.4261 C   0  0  0  0  0  0  0  0  0  0  0  0
    6.6803   -0.8884   -2.4249 O   0  0  0  0  0  0  0  0  0  0  0  0
    7.1382    0.3225   -1.8018 C   0  0  0  0  0  0  0  0  0  0  0  0
    6.0615    0.9138   -0.8838 C   0  0  0  0  0  0  0  0  0  0  0  0
    2.2570   -0.0636    0.4887 C   0  0  0  0  0  0  0  0  0  0  0  0
   -1.3453   -3.5875   -0.1476 H   0  0  0  0  0  0  0  0  0  0  0  0
   -1.0435   -3.0980   -1.8183 H   0  0  0  0  0  0  0  0  0  0  0  0
   -4.1425   -0.7307   -1.9479 H   0  0  0  0  0  0  0  0  0  0  0  0
   -6.1486    0.6961   -2.0761 H   0  0  0  0  0  0  0  0  0  0  0  0
   -4.5235   -0.8554    2.3637 H   0  0  0  0  0  0  0  0  0  0  0  0
   -8.3095    1.5344    3.1890 H   0  0  0  0  0  0  0  0  0  0  0  0
   -8.6235    0.2460    2.0085 H   0  0  0  0  0  0  0  0  0  0  0  0
   -7.2618    2.9516    1.3718 H   0  0  0  0  0  0  0  0  0  0  0  0
   -8.9520    2.5477    1.0083 H   0  0  0  0  0  0  0  0  0  0  0  0
   -0.8550   -0.2669   -0.7330 H   0  0  0  0  0  0  0  0  0  0  0  0
   -0.1976    1.9492   -0.7405 H   0  0  0  0  0  0  0  0  0  0  0  0
    1.4790    3.6741   -0.2272 H   0  0  0  0  0  0  0  0  0  0  0  0
    3.6766    3.0410    0.7258 H   0  0  0  0  0  0  0  0  0  0  0  0
    5.0601   -2.1399    0.2672 H   0  0  0  0  0  0  0  0  0  0  0  0
    4.3462   -1.2047   -1.0777 H   0  0  0  0  0  0  0  0  0  0  0  0
    7.2756   -2.1187   -0.8659 H   0  0  0  0  0  0  0  0  0  0  0  0
    6.0373   -2.7795   -1.9461 H   0  0  0  0  0  0  0  0  0  0  0  0
    7.3789    1.0337   -2.5981 H   0  0  0  0  0  0  0  0  0  0  0  0
    8.0616    0.1128   -1.2484 H   0  0  0  0  0  0  0  0  0  0  0  0
    5.1772    1.1724   -1.4762 H   0  0  0  0  0  0  0  0  0  0  0  0
    6.4554    1.8184   -0.4121 H   0  0  0  0  0  0  0  0  0  0  0  0
    2.4854   -1.0937    0.7458 H   0  0  0  0  0  0  0  0  0  0  0  0
  1  2  2  0
  2  3  1  0
  3  4  1  0
  4  5  1  0
  5  6  2  0
  5  7  1  0
  7  8  2  0
  8  9  1  0
  9 10  2  0
 10 11  1  0
 11 12  2  0
 11 13  1  0
 13 14  1  0
 14 15  1  0
 15 16  1  0
  2 17  1  0
 17 18  1  0
 18 19  2  0
 19 20  1  0
 20 21  2  0
 21 22  1  0
 22 23  1  0
 23 24  2  0
 23 25  2  0
 23 26  1  0
 26 27  1  0
 27 28  1  0
 28 29  1  0
 29 30  1  0
 30 31  1  0
 22 32  2  0
 12  7  1  0
 32 18  1  0
 16 10  1  0
 31 26  1  0
  3 33  1  0
  3 34  1  0
  8 35  1  0
  9 36  1  0
 12 37  1  0
 14 38  1  0
 14 39  1  0
 15 40  1  0
 15 41  1  0
 17 42  1  0
 19 43  1  0
 20 44  1  0
 21 45  1  0
 27 46  1  0
 27 47  1  0
 28 48  1  0
 28 49  1  0
 30 50  1  0
 30 51  1  0
 31 52  1  0
 31 53  1  0
 32 54  1  0
M  END
$$$$
