
     RDKit          3D

 57 62  0  0  0  0  0  0  0  0999 V2000
    8.8515   -1.1220   -0.9189 C   0  0  0  0  0  0  0  0  0  0  0  0
    8.0529    0.0524   -0.8425 O   0  0  0  0  0  0  0  0  0  0  0  0
    6.6970   -0.1123   -0.8541 C   0  0  0  0  0  0  0  0  0  0  0  0
    5.9667    1.0700   -0.7341 C   0  0  0  0  0  0  0  0  0  0  0  0
    4.5683    1.0529   -0.7320 C   0  0  0  0  0  0  0  0  0  0  0  0
    3.8836   -0.1609   -0.8479 C   0  0  0  0  0  0  0  0  0  0  0  0
    2.3127   -0.1752   -0.8457 C   0  0  0  0  0  0  0  0  0  0  0  0
    1.4768    0.9357   -0.8389 C   0  0  0  0  0  0  0  0  0  0  0  0
    0.1517    0.5056   -0.8713 N   0  0  0  0  0  4  0  0  0  0  0  0
   -1.0570    1.3463   -0.7986 C   0  0  0  0  0  0  0  0  0  0  0  0
   -1.6437    1.3024    0.6293 C   0  0  0  0  0  0  0  0  0  0  0  0
   -0.8555    1.2687    1.5776 O   0  0  0  0  0  0  0  0  0  0  0  0
   -3.0379    1.1434    0.7082 N   0  0  0  0  0  0  0  0  0  0  0  0
   -3.6546    0.4353    1.8053 C   0  0  0  0  0  0  0  0  0  0  0  0
   -3.0823    0.4348    3.0900 C   0  0  0  0  0  0  0  0  0  0  0  0
   -3.6657   -0.2622    4.1541 C   0  0  0  0  0  0  0  0  0  0  0  0
   -4.8361   -0.9846    3.9580 C   0  0  0  0  0  0  0  0  0  0  0  0
   -5.4232   -1.0050    2.6970 C   0  0  0  0  0  0  0  0  0  0  0  0
   -4.8434   -0.3013    1.6276 C   0  0  0  0  0  0  0  0  0  0  0  0
   -5.6205   -0.4693    0.0358 S   0  0  0  0  0  0  0  0  0  0  0  0
   -5.1233    1.0841   -0.6568 C   0  0  0  0  0  0  0  0  0  0  0  0
   -5.9478    1.6670   -1.6296 C   0  0  0  0  0  0  0  0  0  0  0  0
   -5.6099    2.8894   -2.2064 C   0  0  0  0  0  0  0  0  0  0  0  0
   -4.4510    3.5419   -1.8058 C   0  0  0  0  0  0  0  0  0  0  0  0
   -3.6201    2.9609   -0.8445 C   0  0  0  0  0  0  0  0  0  0  0  0
   -3.9250    1.7079   -0.2756 C   0  0  0  0  0  0  0  0  0  0  0  0
    0.1653   -0.8219   -0.8352 C   0  0  0  0  0  0  0  0  0  0  0  0
    1.4271   -1.2390   -0.8421 N   0  0  0  0  0  0  0  0  0  0  0  0
    1.5209   -2.6881   -0.7723 C   0  0  0  0  0  0  0  0  0  0  0  0
    0.0714   -3.1315   -0.4250 C   0  0  0  0  0  0  0  0  0  0  0  0
   -0.8189   -1.9252   -0.7831 C   0  0  0  0  0  0  0  0  0  0  0  0
    4.6109   -1.3459   -0.9725 C   0  0  0  0  0  0  0  0  0  0  0  0
    6.0135   -1.3206   -0.9754 C   0  0  0  0  0  0  0  0  0  0  0  0
    8.6747   -1.6619   -1.8567 H   0  0  0  0  0  0  0  0  0  0  0  0
    8.6799   -1.7688   -0.0519 H   0  0  0  0  0  0  0  0  0  0  0  0
    9.9016   -0.8143   -0.9041 H   0  0  0  0  0  0  0  0  0  0  0  0
    6.4982    2.0163   -0.6373 H   0  0  0  0  0  0  0  0  0  0  0  0
    4.0529    2.0034   -0.6265 H   0  0  0  0  0  0  0  0  0  0  0  0
    1.6603    1.9951   -0.8181 H   0  0  0  0  0  0  0  0  0  0  0  0
   -0.7850    2.3760   -1.0491 H   0  0  0  0  0  0  0  0  0  0  0  0
   -1.7523    0.9521   -1.5455 H   0  0  0  0  0  0  0  0  0  0  0  0
   -2.1943    1.0175    3.3237 H   0  0  0  0  0  0  0  0  0  0  0  0
   -3.2077   -0.2283    5.1414 H   0  0  0  0  0  0  0  0  0  0  0  0
   -5.2937   -1.5244    4.7841 H   0  0  0  0  0  0  0  0  0  0  0  0
   -6.3387   -1.5767    2.5539 H   0  0  0  0  0  0  0  0  0  0  0  0
   -6.8751    1.1801   -1.9321 H   0  0  0  0  0  0  0  0  0  0  0  0
   -6.2681    3.3430   -2.9450 H   0  0  0  0  0  0  0  0  0  0  0  0
   -4.2134    4.5201   -2.2165 H   0  0  0  0  0  0  0  0  0  0  0  0
   -2.7693    3.5462   -0.5022 H   0  0  0  0  0  0  0  0  0  0  0  0
    2.2239   -2.9992    0.0044 H   0  0  0  0  0  0  0  0  0  0  0  0
    1.8258   -3.0684   -1.7505 H   0  0  0  0  0  0  0  0  0  0  0  0
    0.0045   -3.3193    0.6534 H   0  0  0  0  0  0  0  0  0  0  0  0
   -0.2259   -4.0478   -0.9434 H   0  0  0  0  0  0  0  0  0  0  0  0
   -1.5695   -1.7017   -0.0258 H   0  0  0  0  0  0  0  0  0  0  0  0
   -1.2536   -2.0032   -1.7812 H   0  0  0  0  0  0  0  0  0  0  0  0
    4.1262   -2.3075   -1.0896 H   0  0  0  0  0  0  0  0  0  0  0  0
    6.5440   -2.2619   -1.0786 H   0  0  0  0  0  0  0  0  0  0  0  0
  1  2  1  0
  2  3  1  0
  3  4  2  0
  4  5  1  0
  5  6  2  0
  6  7  1  0
  7  8  2  0
  8  9  1  0
  9 10  1  0
 10 11  1  0
 11 12  2  0
 11 13  1  0
 13 14  1  0
 14 15  2  0
 15 16  1  0
 16 17  2  0
 17 18  1  0
 18 19  2  0
 19 20  1  0
 20 21  1  0
 21 22  2  0
 22 23  1  0
 23 24  2  0
 24 25  1  0
 25 26  2  0
  9 27  2  0
 27 28  1  0
 28 29  1  0
 29 30  1  0
 30 31  1  0
  6 32  1  0
 32 33  2  0
 33  3  1  0
 28  7  1  0
 26 13  1  0
 31 27  1  0
 19 14  1  0
 26 21  1  0
  1 34  1  0
  1 35  1  0
  1 36  1  0
  4 37  1  0
  5 38  1  0
  8 39  1  0
 10 40  1  0
 10 41  1  0
 15 42  1  0
 16 43  1  0
 17 44  1  0
 18 45  1  0
 22 46  1  0
 23 47  1  0
 24 48  1  0
 25 49  1  0
 29 50  1  0
 29 51  1  0
 30 52  1  0
 30 53  1  0
 31 54  1  0
 31 55  1  0
 32 56  1  0
 33 57  1  0
M  CHG  1   9   1
M  END
$$$$
