
     RDKit          3D

 51 54  0  0  0  0  0  0  0  0999 V2000
   -6.2214   -1.9931   -0.6871 C   0  0  0  0  0  0  0  0  0  0  0  0
   -6.5632   -0.5101   -0.6330 C   0  0  0  0  0  0  0  0  0  0  0  0
   -5.8002    0.1788    0.4200 N   0  0  0  0  0  0  0  0  0  0  0  0
   -6.4641    1.3351    1.0507 C   0  0  0  0  0  0  0  0  0  0  0  0
   -6.5803    2.5243    0.1031 C   0  0  0  0  0  0  0  0  0  0  0  0
   -4.4096    0.2908    0.3143 C   0  0  0  0  0  0  0  0  0  0  0  0
   -3.6344    0.3184    1.4869 C   0  0  0  0  0  0  0  0  0  0  0  0
   -2.2392    0.4384    1.4525 C   0  0  0  0  0  0  0  0  0  0  0  0
   -1.5859    0.5477    0.2299 C   0  0  0  0  0  0  0  0  0  0  0  0
   -0.1465    0.7054    0.1318 C   0  0  0  0  0  0  0  0  0  0  0  0
    0.4365    0.8854   -1.0621 C   0  0  0  0  0  0  0  0  0  0  0  0
    1.8479    1.0817   -1.1020 C   0  0  0  0  0  0  0  0  0  0  0  0
    2.7551    0.2972   -0.5408 N   0  0  0  0  0  0  0  0  0  0  0  0
    4.0333    0.8131   -0.7118 C   0  0  0  0  0  0  0  0  0  0  0  0
    5.2047    0.0954   -0.2155 C   0  0  0  0  0  0  0  0  0  0  0  0
    6.3994    0.7530    0.1041 C   0  0  0  0  0  0  0  0  0  0  0  0
    7.5083    0.0256    0.5559 C   0  0  0  0  0  0  0  0  0  0  0  0
    7.4462   -1.3620    0.6954 C   0  0  0  0  0  0  0  0  0  0  0  0
    8.6051   -1.9458    1.1278 O   0  0  0  0  0  0  0  0  0  0  0  0
    8.6133   -3.3628    1.2187 C   0  0  0  0  0  0  0  0  0  0  0  0
    6.2557   -2.0216    0.3958 C   0  0  0  0  0  0  0  0  0  0  0  0
    5.1434   -1.2959   -0.0525 C   0  0  0  0  0  0  0  0  0  0  0  0
    4.0840    2.0168   -1.3846 C   0  0  0  0  0  0  0  0  0  0  0  0
    2.5065    2.5259   -1.8143 S   0  0  0  0  0  0  0  0  0  0  0  0
   -0.3535    0.8643   -2.3193 C   0  0  0  0  0  0  0  0  0  0  0  0
    0.1543    0.9916   -3.4302 O   0  0  0  0  0  0  0  0  0  0  0  0
   -1.7293    0.6742   -2.1877 O   0  0  0  0  0  0  0  0  0  0  0  0
   -2.3434    0.5260   -0.9293 C   0  0  0  0  0  0  0  0  0  0  0  0
   -3.7330    0.3866   -0.9053 C   0  0  0  0  0  0  0  0  0  0  0  0
   -6.9043   -2.5150   -1.3676 H   0  0  0  0  0  0  0  0  0  0  0  0
   -6.3025   -2.4564    0.2982 H   0  0  0  0  0  0  0  0  0  0  0  0
   -5.2046   -2.1574   -1.0494 H   0  0  0  0  0  0  0  0  0  0  0  0
   -7.6334   -0.4341   -0.4059 H   0  0  0  0  0  0  0  0  0  0  0  0
   -6.4263   -0.0411   -1.6149 H   0  0  0  0  0  0  0  0  0  0  0  0
   -7.4661    1.0405    1.3839 H   0  0  0  0  0  0  0  0  0  0  0  0
   -5.9355    1.6461    1.9621 H   0  0  0  0  0  0  0  0  0  0  0  0
   -5.6008    2.8435   -0.2657 H   0  0  0  0  0  0  0  0  0  0  0  0
   -7.0407    3.3699    0.6232 H   0  0  0  0  0  0  0  0  0  0  0  0
   -7.2003    2.2832   -0.7682 H   0  0  0  0  0  0  0  0  0  0  0  0
   -4.1269    0.2243    2.4518 H   0  0  0  0  0  0  0  0  0  0  0  0
   -1.6869    0.4529    2.3854 H   0  0  0  0  0  0  0  0  0  0  0  0
    0.4345    0.6940    1.0491 H   0  0  0  0  0  0  0  0  0  0  0  0
    6.4917    1.8361    0.0134 H   0  0  0  0  0  0  0  0  0  0  0  0
    8.4315    0.5483    0.7964 H   0  0  0  0  0  0  0  0  0  0  0  0
    8.4104   -3.8199    0.2482 H   0  0  0  0  0  0  0  0  0  0  0  0
    7.9043   -3.7110    1.9774 H   0  0  0  0  0  0  0  0  0  0  0  0
    9.6158   -3.6726    1.5278 H   0  0  0  0  0  0  0  0  0  0  0  0
    6.1554   -3.0942    0.4913 H   0  0  0  0  0  0  0  0  0  0  0  0
    4.2250   -1.8295   -0.2884 H   0  0  0  0  0  0  0  0  0  0  0  0
    4.9424    2.6146   -1.6572 H   0  0  0  0  0  0  0  0  0  0  0  0
   -4.2724    0.3935   -1.8473 H   0  0  0  0  0  0  0  0  0  0  0  0
  1  2  1  0
  2  3  1  0
  3  4  1  0
  4  5  1  0
  3  6  1  0
  6  7  2  0
  7  8  1  0
  8  9  2  0
  9 10  1  0
 10 11  2  0
 11 12  1  0
 12 13  2  0
 13 14  1  0
 14 15  1  0
 15 16  2  0
 16 17  1  0
 17 18  2  0
 18 19  1  0
 19 20  1  0
 18 21  1  0
 21 22  2  0
 14 23  2  0
 23 24  1  0
 11 25  1  0
 25 26  2  0
 25 27  1  0
 27 28  1  0
 28 29  2  0
 29  6  1  0
 28  9  1  0
 24 12  1  0
 22 15  1  0
  1 30  1  0
  1 31  1  0
  1 32  1  0
  2 33  1  0
  2 34  1  0
  4 35  1  0
  4 36  1  0
  5 37  1  0
  5 38  1  0
  5 39  1  0
  7 40  1  0
  8 41  1  0
 10 42  1  0
 16 43  1  0
 17 44  1  0
 20 45  1  0
 20 46  1  0
 20 47  1  0
 21 48  1  0
 22 49  1  0
 23 50  1  0
 29 51  1  0
M  END
$$$$
