
     RDKit          3D

 45 47  0  0  0  0  0  0  0  0999 V2000
   -7.2017    1.9504    3.8696 C   0  0  0  0  0  0  0  0  0  0  0  0
   -7.0919    1.0337    2.7883 O   0  0  0  0  0  0  0  0  0  0  0  0
   -5.8535    0.8857    2.2271 C   0  0  0  0  0  0  0  0  0  0  0  0
   -5.7959   -0.0267    1.1717 C   0  0  0  0  0  0  0  0  0  0  0  0
   -4.5928   -0.2752    0.5072 C   0  0  0  0  0  0  0  0  0  0  0  0
   -3.4247    0.3931    0.8892 C   0  0  0  0  0  0  0  0  0  0  0  0
   -2.1203    0.1145    0.1875 C   0  0  0  0  0  0  0  0  0  0  0  0
   -1.3762   -1.0661    0.8095 C   0  0  0  0  0  0  0  0  0  0  0  0
   -0.1117   -1.3086    0.1456 N   0  0  0  0  0  0  0  0  0  0  0  0
    0.5630   -2.5049    0.2885 C   0  0  0  0  0  0  0  0  0  0  0  0
    0.0695   -3.4855    0.8372 O   0  0  0  0  0  0  0  0  0  0  0  0
    1.9070   -2.4830   -0.2502 C   0  0  0  0  0  0  0  0  0  0  0  0
    2.8978   -3.4443   -0.2701 C   0  0  0  0  0  0  0  0  0  0  0  0
    4.0168   -2.8621   -0.9142 C   0  0  0  0  0  0  0  0  0  0  0  0
    3.6541   -1.5716   -1.2449 C   0  0  0  0  0  0  0  0  0  0  0  0
    4.3236   -0.4768   -1.9395 C   0  0  0  0  0  0  0  0  0  0  0  0
    5.0967   -0.7876   -3.0748 C   0  0  0  0  0  0  0  0  0  0  0  0
    5.7595    0.2101   -3.7965 C   0  0  0  0  0  0  0  0  0  0  0  0
    5.6569    1.5413   -3.3818 C   0  0  0  0  0  0  0  0  0  0  0  0
    6.3494    2.5945   -4.1345 N   0  0  0  0  0  4  0  0  0  0  0  0
    7.0263    2.2507   -5.1134 O   0  0  0  0  0  0  0  0  0  0  0  0
    6.2153    3.7626   -3.7451 O   0  0  0  0  0  1  0  0  0  0  0  0
    4.9027    1.8771   -2.2526 C   0  0  0  0  0  0  0  0  0  0  0  0
    4.2417    0.8711   -1.5351 C   0  0  0  0  0  0  0  0  0  0  0  0
    3.3743    1.3765   -0.1222 Cl  0  0  0  0  0  0  0  0  0  0  0  0
    2.3655   -1.3454   -0.8615 O   0  0  0  0  0  0  0  0  0  0  0  0
   -3.4830    1.3033    1.9518 C   0  0  0  0  0  0  0  0  0  0  0  0
   -4.6904    1.5499    2.6156 C   0  0  0  0  0  0  0  0  0  0  0  0
   -8.2442    1.9516    4.2023 H   0  0  0  0  0  0  0  0  0  0  0  0
   -6.9530    2.9682    3.5511 H   0  0  0  0  0  0  0  0  0  0  0  0
   -6.5825    1.6379    4.7169 H   0  0  0  0  0  0  0  0  0  0  0  0
   -6.6977   -0.5511    0.8650 H   0  0  0  0  0  0  0  0  0  0  0  0
   -4.5775   -0.9944   -0.3089 H   0  0  0  0  0  0  0  0  0  0  0  0
   -1.4900    1.0131    0.2132 H   0  0  0  0  0  0  0  0  0  0  0  0
   -2.3094   -0.0781   -0.8767 H   0  0  0  0  0  0  0  0  0  0  0  0
   -1.1554   -0.8763    1.8666 H   0  0  0  0  0  0  0  0  0  0  0  0
   -1.9834   -1.9779    0.7629 H   0  0  0  0  0  0  0  0  0  0  0  0
    0.4570   -0.5205   -0.1471 H   0  0  0  0  0  0  0  0  0  0  0  0
    2.8103   -4.4420    0.1394 H   0  0  0  0  0  0  0  0  0  0  0  0
    4.9743   -3.3270   -1.1044 H   0  0  0  0  0  0  0  0  0  0  0  0
    5.1767   -1.8185   -3.4190 H   0  0  0  0  0  0  0  0  0  0  0  0
    6.3421   -0.0680   -4.6733 H   0  0  0  0  0  0  0  0  0  0  0  0
    4.8278    2.9109   -1.9197 H   0  0  0  0  0  0  0  0  0  0  0  0
   -2.5871    1.8304    2.2736 H   0  0  0  0  0  0  0  0  0  0  0  0
   -4.6858    2.2648    3.4314 H   0  0  0  0  0  0  0  0  0  0  0  0
  1  2  1  0
  2  3  1  0
  3  4  2  0
  4  5  1  0
  5  6  2  0
  6  7  1  0
  7  8  1  0
  8  9  1  0
  9 10  1  0
 10 11  2  0
 10 12  1  0
 12 13  2  0
 13 14  1  0
 14 15  2  0
 15 16  1  0
 16 17  2  0
 17 18  1  0
 18 19  2  0
 19 20  1  0
 20 21  2  0
 20 22  1  0
 19 23  1  0
 23 24  2  0
 24 25  1  0
 15 26  1  0
  6 27  1  0
 27 28  2  0
 28  3  1  0
 26 12  1  0
 24 16  1  0
  1 29  1  0
  1 30  1  0
  1 31  1  0
  4 32  1  0
  5 33  1  0
  7 34  1  0
  7 35  1  0
  8 36  1  0
  8 37  1  0
  9 38  1  0
 13 39  1  0
 14 40  1  0
 17 41  1  0
 18 42  1  0
 23 43  1  0
 27 44  1  0
 28 45  1  0
M  CHG  2  20   1  22  -1
M  END
$$$$
