
     RDKit          3D

 41 42  0  0  0  0  0  0  0  0999 V2000
   -3.2627   -0.7058   -2.1095 C   0  0  0  0  0  0  0  0  0  0  0  0
   -3.9214    0.2848   -1.1576 C   0  0  0  0  0  0  0  0  0  0  0  0
   -3.3093    0.2482    0.1791 N   0  0  0  0  0  0  0  0  0  0  0  0
   -4.1259   -0.3202    1.2578 C   0  0  0  0  0  0  0  0  0  0  0  0
   -3.9810   -1.8322    1.3272 C   0  0  0  0  0  0  0  0  0  0  0  0
   -2.0348    0.7542    0.4193 C   0  0  0  0  0  0  0  0  0  0  0  0
   -1.3201    0.4624    1.5945 C   0  0  0  0  0  0  0  0  0  0  0  0
   -0.0299    0.9617    1.8377 C   0  0  0  0  0  0  0  0  0  0  0  0
    0.5983    1.7789    0.9022 C   0  0  0  0  0  0  0  0  0  0  0  0
    1.9390    2.3003    1.1776 C   0  0  0  0  0  0  0  0  0  0  0  0
    3.0646    1.9789    0.5209 C   0  0  0  0  0  0  0  0  0  0  0  0
    3.1129    1.0531   -0.6384 C   0  0  0  0  0  0  0  0  0  0  0  0
    2.5573    1.3274   -1.6969 O   0  0  0  0  0  0  0  0  0  0  0  0
    3.9322   -0.1739   -0.5034 C   0  0  0  0  0  0  0  0  0  0  0  0
    4.4484   -0.6354    0.7112 C   0  0  0  0  0  0  0  0  0  0  0  0
    5.2299   -1.7920    0.7287 C   0  0  0  0  0  0  0  0  0  0  0  0
    5.4583   -2.4544   -0.4672 C   0  0  0  0  0  0  0  0  0  0  0  0
    4.9629   -2.0451   -1.6549 N   0  0  0  0  0  0  0  0  0  0  0  0
    4.2043   -0.9186   -1.6457 C   0  0  0  0  0  0  0  0  0  0  0  0
   -0.0875    2.0988   -0.2646 C   0  0  0  0  0  0  0  0  0  0  0  0
   -1.3748    1.5901   -0.4970 C   0  0  0  0  0  0  0  0  0  0  0  0
   -3.7852   -0.7062   -3.0724 H   0  0  0  0  0  0  0  0  0  0  0  0
   -2.2151   -0.4559   -2.3001 H   0  0  0  0  0  0  0  0  0  0  0  0
   -3.2919   -1.7238   -1.7073 H   0  0  0  0  0  0  0  0  0  0  0  0
   -3.9066    1.2983   -1.5738 H   0  0  0  0  0  0  0  0  0  0  0  0
   -4.9850    0.0226   -1.0917 H   0  0  0  0  0  0  0  0  0  0  0  0
   -3.8921    0.1327    2.2281 H   0  0  0  0  0  0  0  0  0  0  0  0
   -5.1820   -0.0761    1.0880 H   0  0  0  0  0  0  0  0  0  0  0  0
   -2.9402   -2.1360    1.4792 H   0  0  0  0  0  0  0  0  0  0  0  0
   -4.3377   -2.3043    0.4068 H   0  0  0  0  0  0  0  0  0  0  0  0
   -4.5726   -2.2286    2.1585 H   0  0  0  0  0  0  0  0  0  0  0  0
   -1.7429   -0.1881    2.3541 H   0  0  0  0  0  0  0  0  0  0  0  0
    0.4706    0.6930    2.7644 H   0  0  0  0  0  0  0  0  0  0  0  0
    1.9959    2.9773    2.0264 H   0  0  0  0  0  0  0  0  0  0  0  0
    4.0200    2.3858    0.8348 H   0  0  0  0  0  0  0  0  0  0  0  0
    4.2539   -0.1209    1.6477 H   0  0  0  0  0  0  0  0  0  0  0  0
    5.6476   -2.1724    1.6557 H   0  0  0  0  0  0  0  0  0  0  0  0
    6.0618   -3.3585   -0.5030 H   0  0  0  0  0  0  0  0  0  0  0  0
    3.8199   -0.6215   -2.6197 H   0  0  0  0  0  0  0  0  0  0  0  0
    0.3685    2.7392   -1.0159 H   0  0  0  0  0  0  0  0  0  0  0  0
   -1.8475    1.8821   -1.4292 H   0  0  0  0  0  0  0  0  0  0  0  0
  1  2  1  0
  2  3  1  0
  3  4  1  0
  4  5  1  0
  3  6  1  0
  6  7  2  0
  7  8  1  0
  8  9  2  0
  9 10  1  0
 10 11  2  3
 11 12  1  0
 12 13  2  0
 12 14  1  0
 14 15  2  0
 15 16  1  0
 16 17  2  0
 17 18  1  0
 18 19  2  0
  9 20  1  0
 20 21  2  0
 21  6  1  0
 19 14  1  0
  1 22  1  0
  1 23  1  0
  1 24  1  0
  2 25  1  0
  2 26  1  0
  4 27  1  0
  4 28  1  0
  5 29  1  0
  5 30  1  0
  5 31  1  0
  7 32  1  0
  8 33  1  0
 10 34  1  0
 11 35  1  0
 15 36  1  0
 16 37  1  0
 17 38  1  0
 19 39  1  0
 20 40  1  0
 21 41  1  0
M  END
$$$$
