
     RDKit          3D

 35 36  0  0  0  0  0  0  0  0999 V2000
    5.4954   -1.9151    1.2535 C   0  0  0  0  0  0  0  0  0  0  0  0
    4.3645   -0.9718    0.9628 C   0  0  0  0  0  0  0  0  0  0  0  0
    4.0840   -0.5904   -0.3567 C   0  0  0  0  0  0  0  0  0  0  0  0
    3.0573    0.3147   -0.6294 C   0  0  0  0  0  0  0  0  0  0  0  0
    2.3075    0.8388    0.4252 C   0  0  0  0  0  0  0  0  0  0  0  0
    0.9945    1.9938    0.0961 S   0  0  0  0  0  6  0  0  0  0  0  0
    1.0683    3.0043    1.1356 O   0  0  0  0  0  0  0  0  0  0  0  0
    1.0816    2.3687   -1.3026 O   0  0  0  0  0  0  0  0  0  0  0  0
   -0.4928    1.0489    0.3472 C   0  0  0  0  0  0  0  0  0  0  0  0
   -0.6526   -0.0392   -0.6982 C   0  0  0  0  0  0  0  0  0  0  0  0
   -2.0841   -1.1100   -0.3391 S   0  0  0  0  0  0  0  0  0  0  0  0
   -3.3961   -0.0999   -0.8446 C   0  0  0  0  0  0  0  0  0  0  0  0
   -3.2835    1.1394   -1.2622 N   0  0  0  0  0  0  0  0  0  0  0  0
   -4.5615    1.5426   -1.5497 C   0  0  0  0  0  0  0  0  0  0  0  0
   -5.4600    0.5320   -1.2990 C   0  0  0  0  0  0  0  0  0  0  0  0
   -4.7009   -0.5160   -0.8476 N   0  0  0  0  0  0  0  0  0  0  0  0
   -5.2118   -1.8074   -0.4589 C   0  0  0  0  0  0  0  0  0  0  0  0
    2.5956    0.4945    1.7479 C   0  0  0  0  0  0  0  0  0  0  0  0
    3.6243   -0.4106    2.0125 C   0  0  0  0  0  0  0  0  0  0  0  0
    5.6292   -2.6283    0.4334 H   0  0  0  0  0  0  0  0  0  0  0  0
    6.4247   -1.3538    1.3904 H   0  0  0  0  0  0  0  0  0  0  0  0
    5.2954   -2.4965    2.1597 H   0  0  0  0  0  0  0  0  0  0  0  0
    4.6711   -0.9922   -1.1804 H   0  0  0  0  0  0  0  0  0  0  0  0
    2.8584    0.6062   -1.6586 H   0  0  0  0  0  0  0  0  0  0  0  0
   -0.4481    0.6421    1.3632 H   0  0  0  0  0  0  0  0  0  0  0  0
   -1.3132    1.7722    0.3101 H   0  0  0  0  0  0  0  0  0  0  0  0
    0.2235   -0.6943   -0.7052 H   0  0  0  0  0  0  0  0  0  0  0  0
   -0.7382    0.3775   -1.7074 H   0  0  0  0  0  0  0  0  0  0  0  0
   -4.7673    2.5383   -1.9216 H   0  0  0  0  0  0  0  0  0  0  0  0
   -6.5346    0.4766   -1.4029 H   0  0  0  0  0  0  0  0  0  0  0  0
   -6.2983   -1.8208   -0.5802 H   0  0  0  0  0  0  0  0  0  0  0  0
   -4.9607   -1.9830    0.5902 H   0  0  0  0  0  0  0  0  0  0  0  0
   -4.7647   -2.5701   -1.1014 H   0  0  0  0  0  0  0  0  0  0  0  0
    2.0399    0.9337    2.5735 H   0  0  0  0  0  0  0  0  0  0  0  0
    3.8531   -0.6701    3.0444 H   0  0  0  0  0  0  0  0  0  0  0  0
  1  2  1  0
  2  3  2  0
  3  4  1  0
  4  5  2  0
  5  6  1  0
  6  7  2  0
  6  8  2  0
  6  9  1  0
  9 10  1  0
 10 11  1  0
 11 12  1  0
 12 13  2  0
 13 14  1  0
 14 15  2  0
 15 16  1  0
 16 17  1  0
  5 18  1  0
 18 19  2  0
 19  2  1  0
 16 12  1  0
  1 20  1  0
  1 21  1  0
  1 22  1  0
  3 23  1  0
  4 24  1  0
  9 25  1  0
  9 26  1  0
 10 27  1  0
 10 28  1  0
 14 29  1  0
 15 30  1  0
 17 31  1  0
 17 32  1  0
 17 33  1  0
 18 34  1  0
 19 35  1  0
M  END
$$$$
