
     RDKit          3D

 42 44  0  0  0  0  0  0  0  0999 V2000
   -0.7612   -3.1913   -0.6755 C   0  0  0  0  0  0  0  0  0  0  0  0
   -0.8871   -1.7433   -0.3264 C   0  0  0  0  0  0  0  0  0  0  0  0
    0.0802   -0.8793    0.0247 C   0  0  0  0  0  0  0  0  0  0  0  0
    1.4456   -0.9406    0.1197 N   0  0  0  0  0  0  0  0  0  0  0  0
    2.3056   -1.8401   -0.4757 C   0  0  0  0  0  0  0  0  0  0  0  0
    1.9816   -2.7291   -1.2591 O   0  0  0  0  0  0  0  0  0  0  0  0
    3.7535   -1.6521   -0.0856 C   0  0  0  0  0  0  0  0  0  0  0  0
    4.2737   -0.4055   -0.6092 N   0  0  0  0  0  0  0  0  0  0  0  0
    4.9589   -0.2214   -1.7765 C   0  0  0  0  0  0  0  0  0  0  0  0
    5.2469    1.1231   -1.8445 C   0  0  0  0  0  0  0  0  0  0  0  0
    4.6952    1.6681   -0.6631 C   0  0  0  0  0  0  0  0  0  0  0  0
    4.7184    3.0491   -0.2124 N   0  0  0  0  0  4  0  0  0  0  0  0
    4.2573    3.3163    0.9060 O   0  0  0  0  0  0  0  0  0  0  0  0
    5.2226    3.8686   -0.9961 O   0  0  0  0  0  1  0  0  0  0  0  0
    4.0879    0.7326    0.0919 N   0  0  0  0  0  0  0  0  0  0  0  0
   -0.6274    0.3858    0.4059 C   0  0  0  0  0  0  0  0  0  0  0  0
   -0.0254    1.3596    0.8340 O   0  0  0  0  0  0  0  0  0  0  0  0
   -1.9920    0.1527    0.2242 N   0  0  0  0  0  0  0  0  0  0  0  0
   -3.0435    0.8508    0.8729 C   0  0  0  0  0  0  0  0  0  0  0  0
   -4.2727    0.2289    1.1427 C   0  0  0  0  0  0  0  0  0  0  0  0
   -5.3083    0.9198    1.7803 C   0  0  0  0  0  0  0  0  0  0  0  0
   -5.1300    2.2460    2.1612 C   0  0  0  0  0  0  0  0  0  0  0  0
   -3.9161    2.8779    1.9093 C   0  0  0  0  0  0  0  0  0  0  0  0
   -2.8811    2.1844    1.2726 C   0  0  0  0  0  0  0  0  0  0  0  0
   -2.1728   -1.1661   -0.2858 N   0  0  0  0  0  0  0  0  0  0  0  0
   -2.9639   -1.2055   -1.5312 C   0  0  0  0  0  0  0  0  0  0  0  0
    0.0481   -3.6734   -0.1204 H   0  0  0  0  0  0  0  0  0  0  0  0
   -1.6746   -3.7329   -0.4041 H   0  0  0  0  0  0  0  0  0  0  0  0
   -0.6011   -3.3191   -1.7501 H   0  0  0  0  0  0  0  0  0  0  0  0
    1.8659   -0.0959    0.5214 H   0  0  0  0  0  0  0  0  0  0  0  0
    4.3578   -2.4722   -0.4867 H   0  0  0  0  0  0  0  0  0  0  0  0
    3.8583   -1.6469    1.0043 H   0  0  0  0  0  0  0  0  0  0  0  0
    5.1763   -1.0414   -2.4489 H   0  0  0  0  0  0  0  0  0  0  0  0
    5.7813    1.6426   -2.6282 H   0  0  0  0  0  0  0  0  0  0  0  0
   -4.4329   -0.8158    0.8912 H   0  0  0  0  0  0  0  0  0  0  0  0
   -6.2490    0.4161    1.9870 H   0  0  0  0  0  0  0  0  0  0  0  0
   -5.9319    2.7845    2.6594 H   0  0  0  0  0  0  0  0  0  0  0  0
   -3.7677    3.9129    2.2073 H   0  0  0  0  0  0  0  0  0  0  0  0
   -1.9534    2.7188    1.0833 H   0  0  0  0  0  0  0  0  0  0  0  0
   -2.4208   -0.7239   -2.3528 H   0  0  0  0  0  0  0  0  0  0  0  0
   -3.9275   -0.7005   -1.4203 H   0  0  0  0  0  0  0  0  0  0  0  0
   -3.1746   -2.2423   -1.8140 H   0  0  0  0  0  0  0  0  0  0  0  0
  1  2  1  0
  2  3  2  0
  3  4  1  0
  4  5  1  0
  5  6  2  0
  5  7  1  0
  7  8  1  0
  8  9  1  0
  9 10  2  0
 10 11  1  0
 11 12  1  0
 12 13  2  0
 12 14  1  0
 11 15  2  0
  3 16  1  0
 16 17  2  0
 16 18  1  0
 18 19  1  0
 19 20  2  0
 20 21  1  0
 21 22  2  0
 22 23  1  0
 23 24  2  0
 18 25  1  0
 25 26  1  0
 25  2  1  0
 15  8  1  0
 24 19  1  0
  1 27  1  0
  1 28  1  0
  1 29  1  0
  4 30  1  0
  7 31  1  0
  7 32  1  0
  9 33  1  0
 10 34  1  0
 20 35  1  0
 21 36  1  0
 22 37  1  0
 23 38  1  0
 24 39  1  0
 26 40  1  0
 26 41  1  0
 26 42  1  0
M  CHG  2  12   1  14  -1
M  END
$$$$
