
     RDKit          3D

 32 32  0  0  0  0  0  0  0  0999 V2000
    0.8458    2.5201   -5.3196 C   0  0  0  0  0  0  0  0  0  0  0  0
    0.1021    1.8170   -4.6884 C   0  0  0  0  0  0  0  0  0  0  0  0
   -0.8043    0.9565   -3.9085 C   0  0  0  0  0  0  0  0  0  0  0  0
   -0.8210    1.3318   -2.4794 N   0  0  0  0  0  0  0  0  0  0  0  0
   -1.9922    0.7298   -1.8418 C   0  0  0  0  0  0  0  0  0  0  0  0
    0.4363    0.9198   -1.8201 C   0  0  0  0  0  0  0  0  0  0  0  0
    0.6719    1.5629   -0.4424 C   0  0  0  0  0  0  0  0  0  0  0  0
    0.2162    0.7320    0.7552 C   0  0  0  0  0  0  0  0  0  0  0  0
    0.8687   -0.5458    0.7218 O   0  0  0  0  0  0  0  0  0  0  0  0
    0.6309   -1.2413    1.8778 C   0  0  0  0  0  0  0  0  0  0  0  0
    1.6021   -1.1718    2.8789 C   0  0  0  0  0  0  0  0  0  0  0  0
    1.4284   -1.8948    4.0570 C   0  0  0  0  0  0  0  0  0  0  0  0
    2.6205   -1.8089    5.2924 Cl  0  0  0  0  0  0  0  0  0  0  0  0
    0.3009   -2.6932    4.2378 C   0  0  0  0  0  0  0  0  0  0  0  0
   -0.6596   -2.7811    3.2247 C   0  0  0  0  0  0  0  0  0  0  0  0
   -0.4910   -2.0639    2.0378 C   0  0  0  0  0  0  0  0  0  0  0  0
   -1.6761   -2.2417    0.7961 Cl  0  0  0  0  0  0  0  0  0  0  0  0
    1.5150    3.1479   -5.8614 H   0  0  0  0  0  0  0  0  0  0  0  0
   -0.5364   -0.0997   -4.0361 H   0  0  0  0  0  0  0  0  0  0  0  0
   -1.8078    1.0818   -4.3391 H   0  0  0  0  0  0  0  0  0  0  0  0
   -2.9084    0.9810   -2.3882 H   0  0  0  0  0  0  0  0  0  0  0  0
   -1.9222   -0.3605   -1.7870 H   0  0  0  0  0  0  0  0  0  0  0  0
   -2.1396    1.1335   -0.8368 H   0  0  0  0  0  0  0  0  0  0  0  0
    0.5181   -0.1727   -1.7744 H   0  0  0  0  0  0  0  0  0  0  0  0
    1.2775    1.2557   -2.4373 H   0  0  0  0  0  0  0  0  0  0  0  0
    0.2174    2.5599   -0.3997 H   0  0  0  0  0  0  0  0  0  0  0  0
    1.7563    1.7129   -0.3378 H   0  0  0  0  0  0  0  0  0  0  0  0
    0.4921    1.2686    1.6711 H   0  0  0  0  0  0  0  0  0  0  0  0
   -0.8681    0.6010    0.7580 H   0  0  0  0  0  0  0  0  0  0  0  0
    2.4868   -0.5587    2.7343 H   0  0  0  0  0  0  0  0  0  0  0  0
    0.1691   -3.2582    5.1570 H   0  0  0  0  0  0  0  0  0  0  0  0
   -1.5292   -3.4199    3.3628 H   0  0  0  0  0  0  0  0  0  0  0  0
  1  2  3  0
  2  3  1  0
  3  4  1  0
  4  5  1  0
  4  6  1  0
  6  7  1  0
  7  8  1  0
  8  9  1  0
  9 10  1  0
 10 11  2  0
 11 12  1  0
 12 13  1  0
 12 14  2  0
 14 15  1  0
 15 16  2  0
 16 17  1  0
 16 10  1  0
  1 18  1  0
  3 19  1  0
  3 20  1  0
  5 21  1  0
  5 22  1  0
  5 23  1  0
  6 24  1  0
  6 25  1  0
  7 26  1  0
  7 27  1  0
  8 28  1  0
  8 29  1  0
 11 30  1  0
 14 31  1  0
 15 32  1  0
M  END
$$$$
