
     RDKit          3D

 47 51  0  0  0  0  0  0  0  0999 V2000
   -0.4740    0.5384   -4.5101 C   0  0  0  0  0  0  0  0  0  0  0  0
   -1.1573    0.6500   -3.1827 C   0  0  0  0  0  0  0  0  0  0  0  0
   -1.9497    1.6688   -2.9569 N   0  0  0  0  0  0  0  0  0  0  0  0
   -2.5510    1.7392   -1.7311 C   0  0  0  0  0  0  0  0  0  0  0  0
   -3.5963    3.0214   -1.2981 S   0  0  0  0  0  0  0  0  0  0  0  0
   -3.8543    2.3689    0.2602 C   0  0  0  0  0  0  0  0  0  0  0  0
   -3.1781    1.1789    0.4680 C   0  0  0  0  0  0  0  0  0  0  0  0
   -2.4302    0.8515   -0.6829 C   0  0  0  0  0  0  0  0  0  0  0  0
   -1.4945   -0.3189   -0.9937 C   0  0  0  0  0  0  0  0  0  0  0  0
   -1.1359   -1.3313   -0.2457 N   0  0  0  0  0  0  0  0  0  0  0  0
   -0.2865   -2.0984   -1.0054 N   0  0  0  0  0  0  0  0  0  0  0  0
   -0.1679   -1.5302   -2.1897 C   0  0  0  0  0  0  0  0  0  0  0  0
    0.8185   -2.1870   -3.4501 S   0  0  0  0  0  0  0  0  0  0  0  0
    2.3352   -2.5222   -2.5042 C   0  0  0  0  0  0  0  0  0  0  0  0
    2.8646   -1.2607   -1.8324 C   0  0  0  0  0  0  0  0  0  0  0  0
    2.7182   -0.1300   -2.2923 O   0  0  0  0  0  0  0  0  0  0  0  0
    3.5467   -1.4973   -0.6621 N   0  0  0  0  0  0  0  0  0  0  0  0
    4.0604   -0.4019    0.1269 C   0  0  0  0  0  0  0  0  0  0  0  0
    4.6957   -0.9471    1.3496 C   0  0  0  0  0  0  0  0  0  0  0  0
    4.3130   -0.9893    2.6745 C   0  0  0  0  0  0  0  0  0  0  0  0
    5.3517   -1.6555    3.3683 C   0  0  0  0  0  0  0  0  0  0  0  0
    6.2974   -1.9814    2.4255 C   0  0  0  0  0  0  0  0  0  0  0  0
    5.9054   -1.5611    1.1959 O   0  0  0  0  0  0  0  0  0  0  0  0
   -0.9058   -0.3680   -2.2402 N   0  0  0  0  0  0  0  0  0  0  0  0
   -3.2553    0.4265    1.7600 C   0  0  0  0  0  0  0  0  0  0  0  0
   -4.4343    0.9062    2.6239 C   0  0  0  0  0  0  0  0  0  0  0  0
   -4.5228    2.4384    2.6595 C   0  0  0  0  0  0  0  0  0  0  0  0
   -4.7537    3.0299    1.2591 C   0  0  0  0  0  0  0  0  0  0  0  0
   -0.7540    1.3887   -5.1417 H   0  0  0  0  0  0  0  0  0  0  0  0
    0.6112    0.5654   -4.3865 H   0  0  0  0  0  0  0  0  0  0  0  0
   -0.7892   -0.3710   -5.0267 H   0  0  0  0  0  0  0  0  0  0  0  0
    3.1049   -2.8931   -3.1883 H   0  0  0  0  0  0  0  0  0  0  0  0
    2.1320   -3.3005   -1.7620 H   0  0  0  0  0  0  0  0  0  0  0  0
    3.5457   -2.4213   -0.2452 H   0  0  0  0  0  0  0  0  0  0  0  0
    4.7769    0.1639   -0.4782 H   0  0  0  0  0  0  0  0  0  0  0  0
    3.2278    0.2633    0.3844 H   0  0  0  0  0  0  0  0  0  0  0  0
    3.3970   -0.5885    3.0879 H   0  0  0  0  0  0  0  0  0  0  0  0
    5.4033   -1.8726    4.4248 H   0  0  0  0  0  0  0  0  0  0  0  0
    7.2518   -2.4875    2.4671 H   0  0  0  0  0  0  0  0  0  0  0  0
   -3.3583   -0.6489    1.5733 H   0  0  0  0  0  0  0  0  0  0  0  0
   -2.3168    0.5759    2.3076 H   0  0  0  0  0  0  0  0  0  0  0  0
   -5.3722    0.5014    2.2203 H   0  0  0  0  0  0  0  0  0  0  0  0
   -4.3254    0.5118    3.6405 H   0  0  0  0  0  0  0  0  0  0  0  0
   -3.5878    2.8371    3.0743 H   0  0  0  0  0  0  0  0  0  0  0  0
   -5.3301    2.7535    3.3293 H   0  0  0  0  0  0  0  0  0  0  0  0
   -4.5784    4.1112    1.2904 H   0  0  0  0  0  0  0  0  0  0  0  0
   -5.7973    2.8733    0.9594 H   0  0  0  0  0  0  0  0  0  0  0  0
  1  2  1  0
  2  3  2  0
  3  4  1  0
  4  5  1  0
  5  6  1  0
  6  7  2  0
  7  8  1  0
  8  9  1  0
  9 10  2  0
 10 11  1  0
 11 12  2  0
 12 13  1  0
 13 14  1  0
 14 15  1  0
 15 16  2  0
 15 17  1  0
 17 18  1  0
 18 19  1  0
 19 20  2  0
 20 21  1  0
 21 22  2  0
 22 23  1  0
 12 24  1  0
  7 25  1  0
 25 26  1  0
 26 27  1  0
 27 28  1  0
 24  2  1  0
  8  4  2  0
 24  9  1  0
 28  6  1  0
 23 19  1  0
  1 29  1  0
  1 30  1  0
  1 31  1  0
 14 32  1  0
 14 33  1  0
 17 34  1  0
 18 35  1  0
 18 36  1  0
 20 37  1  0
 21 38  1  0
 22 39  1  0
 25 40  1  0
 25 41  1  0
 26 42  1  0
 26 43  1  0
 27 44  1  0
 27 45  1  0
 28 46  1  0
 28 47  1  0
M  END
$$$$
