
     RDKit          3D

 38 38  0  0  0  0  0  0  0  0999 V2000
    5.6554    3.3111    2.2688 C   0  0  0  0  0  0  0  0  0  0  0  0
    4.2652    3.5645    2.4355 O   0  0  0  0  0  0  0  0  0  0  0  0
    3.4495    2.7072    1.6345 C   0  0  0  0  0  0  0  0  0  0  0  0
    3.2472    1.3413    2.2986 C   0  0  0  0  0  0  0  0  0  0  0  0
    2.2610    0.5187    1.6215 N   0  0  0  0  0  0  0  0  0  0  0  0
    2.5502   -0.0999    0.4242 C   0  0  0  0  0  0  0  0  0  0  0  0
    3.6211    0.0265   -0.1575 O   0  0  0  0  0  0  0  0  0  0  0  0
    1.4700   -0.9787   -0.1108 C   0  0  0  0  0  0  0  0  0  0  0  0
    1.8752   -2.2679   -0.5470 C   0  0  0  0  0  0  0  0  0  0  0  0
    2.1838   -3.3362   -0.8819 N   0  0  0  0  0  0  0  0  0  0  0  0
    0.2282   -0.4588   -0.2063 C   0  0  0  0  0  0  0  0  0  0  0  0
   -1.0339   -1.0357   -0.6879 C   0  0  0  0  0  0  0  0  0  0  0  0
   -1.1050   -2.5032   -1.0356 C   0  0  0  0  0  0  0  0  0  0  0  0
   -2.1064   -0.2187   -0.7771 C   0  0  0  0  0  0  0  0  0  0  0  0
   -3.4407   -0.6090   -1.2426 C   0  0  0  0  0  0  0  0  0  0  0  0
   -3.7085   -0.7228   -2.6115 C   0  0  0  0  0  0  0  0  0  0  0  0
   -4.9810   -1.0951   -3.0484 C   0  0  0  0  0  0  0  0  0  0  0  0
   -5.9896   -1.3533   -2.1203 C   0  0  0  0  0  0  0  0  0  0  0  0
   -5.7282   -1.2387   -0.7550 C   0  0  0  0  0  0  0  0  0  0  0  0
   -4.4562   -0.8664   -0.3157 C   0  0  0  0  0  0  0  0  0  0  0  0
    6.2082    4.0267    2.8836 H   0  0  0  0  0  0  0  0  0  0  0  0
    5.9121    2.3015    2.6010 H   0  0  0  0  0  0  0  0  0  0  0  0
    5.9492    3.4522    1.2240 H   0  0  0  0  0  0  0  0  0  0  0  0
    3.8602    2.6169    0.6221 H   0  0  0  0  0  0  0  0  0  0  0  0
    2.4763    3.2017    1.5358 H   0  0  0  0  0  0  0  0  0  0  0  0
    4.1921    0.7886    2.3384 H   0  0  0  0  0  0  0  0  0  0  0  0
    2.9114    1.4743    3.3330 H   0  0  0  0  0  0  0  0  0  0  0  0
    1.4070    0.2964    2.1179 H   0  0  0  0  0  0  0  0  0  0  0  0
    0.1211    0.5841    0.1042 H   0  0  0  0  0  0  0  0  0  0  0  0
   -2.1210   -2.8491   -1.2478 H   0  0  0  0  0  0  0  0  0  0  0  0
   -0.7504   -3.1159   -0.2000 H   0  0  0  0  0  0  0  0  0  0  0  0
   -0.5077   -2.7166   -1.9277 H   0  0  0  0  0  0  0  0  0  0  0  0
   -2.0440    0.8341   -0.5071 H   0  0  0  0  0  0  0  0  0  0  0  0
   -2.9289   -0.5255   -3.3439 H   0  0  0  0  0  0  0  0  0  0  0  0
   -5.1849   -1.1844   -4.1126 H   0  0  0  0  0  0  0  0  0  0  0  0
   -6.9799   -1.6444   -2.4614 H   0  0  0  0  0  0  0  0  0  0  0  0
   -6.5147   -1.4412   -0.0324 H   0  0  0  0  0  0  0  0  0  0  0  0
   -4.2633   -0.7843    0.7512 H   0  0  0  0  0  0  0  0  0  0  0  0
  1  2  1  0
  2  3  1  0
  3  4  1  0
  4  5  1  0
  5  6  1  0
  6  7  2  0
  6  8  1  0
  8  9  1  0
  9 10  3  0
  8 11  2  3
 11 12  1  0
 12 13  1  0
 12 14  2  3
 14 15  1  0
 15 16  2  0
 16 17  1  0
 17 18  2  0
 18 19  1  0
 19 20  2  0
 20 15  1  0
  1 21  1  0
  1 22  1  0
  1 23  1  0
  3 24  1  0
  3 25  1  0
  4 26  1  0
  4 27  1  0
  5 28  1  0
 11 29  1  0
 13 30  1  0
 13 31  1  0
 13 32  1  0
 14 33  1  0
 16 34  1  0
 17 35  1  0
 18 36  1  0
 19 37  1  0
 20 38  1  0
M  END
$$$$
