
     RDKit          3D

 35 37  0  0  0  0  0  0  0  0999 V2000
    0.5137   -2.2798    0.4062 O   0  0  0  0  0  0  0  0  0  0  0  0
    0.1190   -1.4156   -0.3655 C   0  0  0  0  0  0  0  0  0  0  0  0
   -1.3009   -0.9624   -0.4437 C   0  0  0  0  0  0  0  0  0  0  0  0
   -2.2386   -1.4601    0.3745 C   0  0  0  0  0  0  0  0  0  0  0  0
   -3.6599   -1.1010    0.3782 C   0  0  0  0  0  0  0  0  0  0  0  0
   -4.6127   -2.0724    0.0429 C   0  0  0  0  0  0  0  0  0  0  0  0
   -5.9725   -1.7555    0.0539 C   0  0  0  0  0  0  0  0  0  0  0  0
   -6.3747   -0.4726    0.4063 C   0  0  0  0  0  0  0  0  0  0  0  0
   -7.6794   -0.1701    0.4173 F   0  0  0  0  0  0  0  0  0  0  0  0
   -5.4436    0.4998    0.7513 C   0  0  0  0  0  0  0  0  0  0  0  0
   -4.0832    0.1852    0.7412 C   0  0  0  0  0  0  0  0  0  0  0  0
   -1.5044    0.2009   -1.7040 S   0  0  0  0  0  0  0  0  0  0  0  0
    0.1954    0.1607   -2.1536 C   0  0  0  0  0  0  0  0  0  0  0  0
    0.8441    1.0401   -3.4156 S   0  0  0  0  0  0  0  0  0  0  0  0
    0.8499   -0.7207   -1.3186 N   0  0  0  0  0  0  0  0  0  0  0  0
    2.2466   -0.9355   -1.4023 N   0  0  0  0  0  0  0  0  0  0  0  0
    2.9872   -0.0554   -0.5604 C   0  0  0  0  0  0  0  0  0  0  0  0
    2.3276    0.7312    0.3303 N   0  0  0  0  0  0  0  0  0  0  0  0
    3.0576    1.5237    1.1511 C   0  0  0  0  0  0  0  0  0  0  0  0
    4.4422    1.5836    1.1434 C   0  0  0  0  0  0  0  0  0  0  0  0
    5.1617    2.5098    2.0741 C   0  0  0  0  0  0  0  0  0  0  0  0
    5.2765    3.7647    1.5623 F   0  0  0  0  0  0  0  0  0  0  0  0
    6.4288    2.1020    2.3574 F   0  0  0  0  0  0  0  0  0  0  0  0
    4.5365    2.6491    3.2746 F   0  0  0  0  0  0  0  0  0  0  0  0
    5.1158    0.7830    0.2173 C   0  0  0  0  0  0  0  0  0  0  0  0
    4.3883   -0.0468   -0.6359 C   0  0  0  0  0  0  0  0  0  0  0  0
    5.2452   -1.0167   -1.7782 Cl  0  0  0  0  0  0  0  0  0  0  0  0
   -1.9631   -2.2176    1.1077 H   0  0  0  0  0  0  0  0  0  0  0  0
   -4.3041   -3.0784   -0.2329 H   0  0  0  0  0  0  0  0  0  0  0  0
   -6.7180   -2.4992   -0.2086 H   0  0  0  0  0  0  0  0  0  0  0  0
   -5.7812    1.4936    1.0270 H   0  0  0  0  0  0  0  0  0  0  0  0
   -3.3607    0.9489    1.0200 H   0  0  0  0  0  0  0  0  0  0  0  0
    2.5904   -0.8462   -2.3596 H   0  0  0  0  0  0  0  0  0  0  0  0
    2.4676    2.1265    1.8399 H   0  0  0  0  0  0  0  0  0  0  0  0
    6.2029    0.8031    0.1641 H   0  0  0  0  0  0  0  0  0  0  0  0
  1  2  2  0
  2  3  1  0
  3  4  2  3
  4  5  1  0
  5  6  2  0
  6  7  1  0
  7  8  2  0
  8  9  1  0
  8 10  1  0
 10 11  2  0
  3 12  1  0
 12 13  1  0
 13 14  2  0
 13 15  1  0
 15 16  1  0
 16 17  1  0
 17 18  2  0
 18 19  1  0
 19 20  2  0
 20 21  1  0
 21 22  1  0
 21 23  1  0
 21 24  1  0
 20 25  1  0
 25 26  2  0
 26 27  1  0
 15  2  1  0
 26 17  1  0
 11  5  1  0
  4 28  1  0
  6 29  1  0
  7 30  1  0
 10 31  1  0
 11 32  1  0
 16 33  1  0
 19 34  1  0
 25 35  1  0
M  END
$$$$
