
     RDKit          3D

 46 49  0  0  0  0  0  0  0  0999 V2000
   -5.1299    3.3405    1.8634 C   0  0  0  0  0  0  0  0  0  0  0  0
   -5.2668    2.3679    0.8347 O   0  0  0  0  0  0  0  0  0  0  0  0
   -4.2824    1.4240    0.7413 C   0  0  0  0  0  0  0  0  0  0  0  0
   -3.1653    1.3169    1.5687 C   0  0  0  0  0  0  0  0  0  0  0  0
   -2.2261    0.2982    1.3617 C   0  0  0  0  0  0  0  0  0  0  0  0
   -2.4001   -0.6234    0.3224 C   0  0  0  0  0  0  0  0  0  0  0  0
   -1.4533   -1.6671    0.1090 N   0  0  0  0  0  0  0  0  0  0  0  0
   -0.0645   -1.6028    0.1608 C   0  0  0  0  0  0  0  0  0  0  0  0
    0.8549   -0.1320    0.3159 S   0  0  0  0  0  0  0  0  0  0  0  0
    2.5113   -0.8178    0.6216 C   0  0  0  0  0  0  0  0  0  0  0  0
    3.5186    0.3129    0.7471 C   0  0  0  0  0  0  0  0  0  0  0  0
    4.0802    0.5354    1.8151 O   0  0  0  0  0  0  0  0  0  0  0  0
    3.7109    0.9842   -0.4466 N   0  0  0  0  0  0  0  0  0  0  0  0
    4.6025    2.0464   -0.6659 C   0  0  0  0  0  0  0  0  0  0  0  0
    5.4361    2.4430    0.3170 N   0  0  0  0  0  0  0  0  0  0  0  0
    6.2821    3.4692    0.0584 C   0  0  0  0  0  0  0  0  0  0  0  0
    6.3403    4.1286   -1.1578 C   0  0  0  0  0  0  0  0  0  0  0  0
    7.4406    5.4198   -1.4111 Cl  0  0  0  0  0  0  0  0  0  0  0  0
    5.4859    3.7192   -2.1719 C   0  0  0  0  0  0  0  0  0  0  0  0
    4.6062    2.6651   -1.9253 C   0  0  0  0  0  0  0  0  0  0  0  0
    3.5453    2.1589   -3.1928 Cl  0  0  0  0  0  0  0  0  0  0  0  0
    0.5071   -2.7598   -0.0806 N   0  0  0  0  0  0  0  0  0  0  0  0
   -0.5220   -3.6290   -0.3040 C   0  0  0  0  0  0  0  0  0  0  0  0
   -0.4614   -5.0000   -0.6002 C   0  0  0  0  0  0  0  0  0  0  0  0
   -1.6523   -5.7138   -0.7621 C   0  0  0  0  0  0  0  0  0  0  0  0
   -2.8830   -5.0775   -0.6188 C   0  0  0  0  0  0  0  0  0  0  0  0
   -2.9625   -3.7113   -0.3244 C   0  0  0  0  0  0  0  0  0  0  0  0
   -1.7587   -2.9946   -0.1971 C   0  0  0  0  0  0  0  0  0  0  0  0
   -3.5239   -0.5196   -0.5045 C   0  0  0  0  0  0  0  0  0  0  0  0
   -4.4545    0.5016   -0.2927 C   0  0  0  0  0  0  0  0  0  0  0  0
   -5.9846    4.0205    1.7964 H   0  0  0  0  0  0  0  0  0  0  0  0
   -4.2202    3.9344    1.7271 H   0  0  0  0  0  0  0  0  0  0  0  0
   -5.1532    2.8729    2.8534 H   0  0  0  0  0  0  0  0  0  0  0  0
   -2.9950    2.0043    2.3912 H   0  0  0  0  0  0  0  0  0  0  0  0
   -1.3919    0.2255    2.0557 H   0  0  0  0  0  0  0  0  0  0  0  0
    2.8229   -1.4731   -0.1989 H   0  0  0  0  0  0  0  0  0  0  0  0
    2.5100   -1.3970    1.5507 H   0  0  0  0  0  0  0  0  0  0  0  0
    3.1080    0.7427   -1.2246 H   0  0  0  0  0  0  0  0  0  0  0  0
    6.9275    3.7468    0.8872 H   0  0  0  0  0  0  0  0  0  0  0  0
    5.5031    4.2114   -3.1395 H   0  0  0  0  0  0  0  0  0  0  0  0
    0.5007   -5.4929   -0.6906 H   0  0  0  0  0  0  0  0  0  0  0  0
   -1.6146   -6.7771   -0.9869 H   0  0  0  0  0  0  0  0  0  0  0  0
   -3.8000   -5.6542   -0.7267 H   0  0  0  0  0  0  0  0  0  0  0  0
   -3.9313   -3.2434   -0.1821 H   0  0  0  0  0  0  0  0  0  0  0  0
   -3.6770   -1.1895   -1.3469 H   0  0  0  0  0  0  0  0  0  0  0  0
   -5.3196    0.5854   -0.9469 H   0  0  0  0  0  0  0  0  0  0  0  0
  1  2  1  0
  2  3  1  0
  3  4  2  0
  4  5  1  0
  5  6  2  0
  6  7  1  0
  7  8  1  0
  8  9  1  0
  9 10  1  0
 10 11  1  0
 11 12  2  0
 11 13  1  0
 13 14  1  0
 14 15  2  0
 15 16  1  0
 16 17  2  0
 17 18  1  0
 17 19  1  0
 19 20  2  0
 20 21  1  0
  8 22  2  0
 22 23  1  0
 23 24  2  0
 24 25  1  0
 25 26  2  0
 26 27  1  0
 27 28  2  0
  6 29  1  0
 29 30  2  0
 30  3  1  0
 28  7  1  0
 20 14  1  0
 28 23  1  0
  1 31  1  0
  1 32  1  0
  1 33  1  0
  4 34  1  0
  5 35  1  0
 10 36  1  0
 10 37  1  0
 13 38  1  0
 16 39  1  0
 19 40  1  0
 24 41  1  0
 25 42  1  0
 26 43  1  0
 27 44  1  0
 29 45  1  0
 30 46  1  0
M  END
$$$$
