
     RDKit          3D

 53 58  0  0  0  0  0  0  0  0999 V2000
   -0.8060    0.1797    1.4961 O   0  0  0  0  0  0  0  0  0  0  0  0
   -1.3222    0.4589    0.4108 C   0  0  0  0  0  0  0  0  0  0  0  0
   -0.4311    0.5068   -0.8564 C   0  0  0  0  0  0  0  0  0  0  0  0
    0.9208   -0.0212   -0.5815 N   0  0  0  0  0  4  0  0  0  0  0  0
    2.1239    0.6809   -0.6438 C   0  0  0  0  0  0  0  0  0  0  0  0
    3.1574   -0.1529   -0.2274 C   0  0  0  0  0  0  0  0  0  0  0  0
    4.6880    0.2179   -0.1594 C   0  0  0  0  0  0  0  0  0  0  0  0
    5.1165    1.4941   -0.5579 C   0  0  0  0  0  0  0  0  0  0  0  0
    6.4739    1.8307   -0.5070 C   0  0  0  0  0  0  0  0  0  0  0  0
    7.4065    0.8970   -0.0558 C   0  0  0  0  0  0  0  0  0  0  0  0
    9.0757    1.3095    0.0046 Cl  0  0  0  0  0  0  0  0  0  0  0  0
    6.9906   -0.3726    0.3406 C   0  0  0  0  0  0  0  0  0  0  0  0
    5.6320   -0.7133    0.2870 C   0  0  0  0  0  0  0  0  0  0  0  0
    2.5047   -1.3327    0.0881 N   0  0  0  0  0  0  0  0  0  0  0  0
    1.1966   -1.2461   -0.1420 C   0  0  0  0  0  0  0  0  0  0  0  0
    0.4668   -2.5064    0.1371 C   0  0  0  0  0  0  0  0  0  0  0  0
    1.5160   -3.3207    0.9160 C   0  0  0  0  0  0  0  0  0  0  0  0
    2.8784   -2.6469    0.5922 C   0  0  0  0  0  0  0  0  0  0  0  0
   -2.6999    0.5748    0.1542 N   0  0  0  0  0  0  0  0  0  0  0  0
   -3.6829   -0.1899    0.8897 C   0  0  0  0  0  0  0  0  0  0  0  0
   -3.4402   -0.6321    2.2027 C   0  0  0  0  0  0  0  0  0  0  0  0
   -4.3868   -1.3829    2.9143 C   0  0  0  0  0  0  0  0  0  0  0  0
   -5.5978   -1.7218    2.3248 C   0  0  0  0  0  0  0  0  0  0  0  0
   -5.8582   -1.3144    1.0210 C   0  0  0  0  0  0  0  0  0  0  0  0
   -4.9152   -0.5554    0.3067 C   0  0  0  0  0  0  0  0  0  0  0  0
   -5.3090   -0.1718   -1.3871 S   0  0  0  0  0  0  0  0  0  0  0  0
   -4.3768    1.3276   -1.5349 C   0  0  0  0  0  0  0  0  0  0  0  0
   -4.8258    2.2973   -2.4446 C   0  0  0  0  0  0  0  0  0  0  0  0
   -4.1484    3.5063   -2.5875 C   0  0  0  0  0  0  0  0  0  0  0  0
   -3.0178    3.7549   -1.8175 C   0  0  0  0  0  0  0  0  0  0  0  0
   -2.5573    2.7844   -0.9227 C   0  0  0  0  0  0  0  0  0  0  0  0
   -3.2079    1.5403   -0.7884 C   0  0  0  0  0  0  0  0  0  0  0  0
   -0.3169    1.5260   -1.2245 H   0  0  0  0  0  0  0  0  0  0  0  0
   -0.8680   -0.1233   -1.6369 H   0  0  0  0  0  0  0  0  0  0  0  0
    2.0934    1.7040   -0.9805 H   0  0  0  0  0  0  0  0  0  0  0  0
    4.4239    2.2525   -0.9159 H   0  0  0  0  0  0  0  0  0  0  0  0
    6.7997    2.8221   -0.8200 H   0  0  0  0  0  0  0  0  0  0  0  0
    7.7193   -1.1045    0.6874 H   0  0  0  0  0  0  0  0  0  0  0  0
    5.3539   -1.7137    0.6001 H   0  0  0  0  0  0  0  0  0  0  0  0
   -0.4329   -2.2976    0.7171 H   0  0  0  0  0  0  0  0  0  0  0  0
    0.2312   -2.9491   -0.8320 H   0  0  0  0  0  0  0  0  0  0  0  0
    1.4966   -4.3820    0.6629 H   0  0  0  0  0  0  0  0  0  0  0  0
    1.3173   -3.2278    1.9880 H   0  0  0  0  0  0  0  0  0  0  0  0
    3.4915   -2.5609    1.4916 H   0  0  0  0  0  0  0  0  0  0  0  0
    3.4138   -3.1893   -0.1945 H   0  0  0  0  0  0  0  0  0  0  0  0
   -2.5300   -0.3740    2.7393 H   0  0  0  0  0  0  0  0  0  0  0  0
   -4.1747   -1.6943    3.9362 H   0  0  0  0  0  0  0  0  0  0  0  0
   -6.3336   -2.3050    2.8733 H   0  0  0  0  0  0  0  0  0  0  0  0
   -6.8023   -1.6009    0.5598 H   0  0  0  0  0  0  0  0  0  0  0  0
   -5.7158    2.1167   -3.0451 H   0  0  0  0  0  0  0  0  0  0  0  0
   -4.5146    4.2586   -3.2846 H   0  0  0  0  0  0  0  0  0  0  0  0
   -2.5102    4.7149   -1.8981 H   0  0  0  0  0  0  0  0  0  0  0  0
   -1.7061    3.0476   -0.2958 H   0  0  0  0  0  0  0  0  0  0  0  0
  1  2  2  0
  2  3  1  0
  3  4  1  0
  4  5  1  0
  5  6  2  0
  6  7  1  0
  7  8  2  0
  8  9  1  0
  9 10  2  0
 10 11  1  0
 10 12  1  0
 12 13  2  0
  6 14  1  0
 14 15  1  0
 15 16  1  0
 16 17  1  0
 17 18  1  0
  2 19  1  0
 19 20  1  0
 20 21  2  0
 21 22  1  0
 22 23  2  0
 23 24  1  0
 24 25  2  0
 25 26  1  0
 26 27  1  0
 27 28  2  0
 28 29  1  0
 29 30  2  0
 30 31  1  0
 31 32  2  0
 15  4  2  0
 32 19  1  0
 13  7  1  0
 18 14  1  0
 25 20  1  0
 32 27  1  0
  3 33  1  0
  3 34  1  0
  5 35  1  0
  8 36  1  0
  9 37  1  0
 12 38  1  0
 13 39  1  0
 16 40  1  0
 16 41  1  0
 17 42  1  0
 17 43  1  0
 18 44  1  0
 18 45  1  0
 21 46  1  0
 22 47  1  0
 23 48  1  0
 24 49  1  0
 28 50  1  0
 29 51  1  0
 30 52  1  0
 31 53  1  0
M  CHG  1   4   1
M  END
$$$$
