
     RDKit          3D

 49 53  0  0  0  0  0  0  0  0999 V2000
    6.7615   -0.9712    0.7470 C   0  0  0  0  0  0  0  0  0  0  0  0
    5.5194   -0.3042    0.2471 C   0  0  0  0  0  0  0  0  0  0  0  0
    5.6640    1.1035   -0.7070 S   0  0  0  0  0  0  0  0  0  0  0  0
    3.9810    1.2547   -0.8640 C   0  0  0  0  0  0  0  0  0  0  0  0
    3.4724    2.2793   -1.5691 N   0  0  0  0  0  0  0  0  0  0  0  0
    2.1421    2.2736   -1.5983 C   0  0  0  0  0  0  0  0  0  0  0  0
    1.3269    1.3873   -1.0191 N   0  0  0  0  0  0  0  0  0  0  0  0
    1.8755    0.3797   -0.3150 C   0  0  0  0  0  0  0  0  0  0  0  0
    0.7712   -0.7585    0.4650 S   0  0  0  0  0  0  0  0  0  0  0  0
   -0.2687    0.3713    1.4854 C   0  0  0  0  0  0  0  0  0  0  0  0
    0.5645    1.3109    2.3537 C   0  0  0  0  0  0  0  0  0  0  0  0
   -1.2942    1.1298    0.6160 C   0  0  0  0  0  0  0  0  0  0  0  0
   -1.2573    2.3546    0.4729 O   0  0  0  0  0  0  0  0  0  0  0  0
   -2.2887    0.3058    0.0586 N   0  0  0  0  0  0  0  0  0  0  0  0
   -2.4837    0.2506   -1.3690 C   0  0  0  0  0  0  0  0  0  0  0  0
   -1.8387    1.1774   -2.2124 C   0  0  0  0  0  0  0  0  0  0  0  0
   -1.9915    1.1508   -3.6033 C   0  0  0  0  0  0  0  0  0  0  0  0
   -2.7864    0.1817   -4.1941 C   0  0  0  0  0  0  0  0  0  0  0  0
   -3.4166   -0.7630   -3.3900 C   0  0  0  0  0  0  0  0  0  0  0  0
   -3.2697   -0.7365   -1.9900 C   0  0  0  0  0  0  0  0  0  0  0  0
   -4.0403   -2.0663   -1.1038 S   0  0  0  0  0  0  0  0  0  0  0  0
   -4.1034   -1.3596    0.5162 C   0  0  0  0  0  0  0  0  0  0  0  0
   -5.0356   -1.9171    1.4111 C   0  0  0  0  0  0  0  0  0  0  0  0
   -5.1588   -1.4361    2.7119 C   0  0  0  0  0  0  0  0  0  0  0  0
   -4.3519   -0.3882    3.1286 C   0  0  0  0  0  0  0  0  0  0  0  0
   -3.4233    0.1696    2.2441 C   0  0  0  0  0  0  0  0  0  0  0  0
   -3.2625   -0.3141    0.9254 C   0  0  0  0  0  0  0  0  0  0  0  0
    3.2741    0.2546   -0.2082 C   0  0  0  0  0  0  0  0  0  0  0  0
    4.1936   -0.6808    0.4362 C   0  0  0  0  0  0  0  0  0  0  0  0
    3.7809   -1.9002    1.2054 C   0  0  0  0  0  0  0  0  0  0  0  0
    7.6523   -0.3475    0.6138 H   0  0  0  0  0  0  0  0  0  0  0  0
    6.6740   -1.1899    1.8169 H   0  0  0  0  0  0  0  0  0  0  0  0
    6.9249   -1.9128    0.2122 H   0  0  0  0  0  0  0  0  0  0  0  0
    1.6649    3.0788   -2.1481 H   0  0  0  0  0  0  0  0  0  0  0  0
   -0.8083   -0.2918    2.1685 H   0  0  0  0  0  0  0  0  0  0  0  0
   -0.0898    1.8770    3.0277 H   0  0  0  0  0  0  0  0  0  0  0  0
    1.1175    2.0510    1.7649 H   0  0  0  0  0  0  0  0  0  0  0  0
    1.2758    0.7568    2.9766 H   0  0  0  0  0  0  0  0  0  0  0  0
   -1.2079    1.9663   -1.8114 H   0  0  0  0  0  0  0  0  0  0  0  0
   -1.4840    1.8926   -4.2165 H   0  0  0  0  0  0  0  0  0  0  0  0
   -2.9061    0.1505   -5.2742 H   0  0  0  0  0  0  0  0  0  0  0  0
   -4.0180   -1.5358   -3.8654 H   0  0  0  0  0  0  0  0  0  0  0  0
   -5.6825   -2.7339    1.0922 H   0  0  0  0  0  0  0  0  0  0  0  0
   -5.8899   -1.8704    3.3891 H   0  0  0  0  0  0  0  0  0  0  0  0
   -4.4531    0.0116    4.1351 H   0  0  0  0  0  0  0  0  0  0  0  0
   -2.8539    1.0245    2.6057 H   0  0  0  0  0  0  0  0  0  0  0  0
    3.1797   -1.6235    2.0778 H   0  0  0  0  0  0  0  0  0  0  0  0
    4.6430   -2.4640    1.5740 H   0  0  0  0  0  0  0  0  0  0  0  0
    3.2059   -2.5790    0.5647 H   0  0  0  0  0  0  0  0  0  0  0  0
  1  2  1  0
  2  3  1  0
  3  4  1  0
  4  5  2  0
  5  6  1  0
  6  7  2  0
  7  8  1  0
  8  9  1  0
  9 10  1  0
 10 11  1  0
 10 12  1  0
 12 13  2  0
 12 14  1  0
 14 15  1  0
 15 16  2  0
 16 17  1  0
 17 18  2  0
 18 19  1  0
 19 20  2  0
 20 21  1  0
 21 22  1  0
 22 23  2  0
 23 24  1  0
 24 25  2  0
 25 26  1  0
 26 27  2  0
  8 28  2  0
 28 29  1  0
 29 30  1  0
 29  2  2  0
 28  4  1  0
 27 14  1  0
 20 15  1  0
 27 22  1  0
  1 31  1  0
  1 32  1  0
  1 33  1  0
  6 34  1  0
 10 35  1  0
 11 36  1  0
 11 37  1  0
 11 38  1  0
 16 39  1  0
 17 40  1  0
 18 41  1  0
 19 42  1  0
 23 43  1  0
 24 44  1  0
 25 45  1  0
 26 46  1  0
 30 47  1  0
 30 48  1  0
 30 49  1  0
M  END
$$$$
