
     RDKit          3D

 56 58  0  0  0  0  0  0  0  0999 V2000
    0.2070   -3.5547    0.5498 C   0  0  0  0  0  0  0  0  0  0  0  0
    1.1611   -2.5277    0.3204 O   0  0  0  0  0  0  0  0  0  0  0  0
    0.6905   -1.2827   -0.0220 C   0  0  0  0  0  0  0  0  0  0  0  0
   -0.6640   -0.9223   -0.0279 C   0  0  0  0  0  0  0  0  0  0  0  0
   -1.0639    0.3767   -0.3733 C   0  0  0  0  0  0  0  0  0  0  0  0
   -2.5007    0.6958   -0.3840 C   0  0  0  0  0  0  0  0  0  0  0  0
   -2.9975    1.8965   -0.0492 C   0  0  0  0  0  0  0  0  0  0  0  0
   -4.4406    2.2569   -0.0442 C   0  0  0  0  0  0  0  0  0  0  0  0
   -4.7919    3.4205    0.1257 O   0  0  0  0  0  0  0  0  0  0  0  0
   -5.4586    1.2173   -0.2586 C   0  0  0  0  0  0  0  0  0  0  0  0
   -5.7980    0.3282    0.7803 C   0  0  0  0  0  0  0  0  0  0  0  0
   -5.0953    0.4556    1.9485 O   0  0  0  0  0  0  0  0  0  0  0  0
   -5.5798   -0.2449    3.0882 C   0  0  0  0  0  0  0  0  0  0  0  0
   -6.8005   -0.6312    0.5602 C   0  0  0  0  0  0  0  0  0  0  0  0
   -7.4669   -0.6981   -0.6684 C   0  0  0  0  0  0  0  0  0  0  0  0
   -7.1170    0.1966   -1.6686 C   0  0  0  0  0  0  0  0  0  0  0  0
   -7.7596    0.1516   -2.9047 O   0  0  0  0  0  0  0  0  0  0  0  0
   -7.1974    1.1444   -3.7022 C   0  0  0  0  0  0  0  0  0  0  0  0
   -7.5538    1.3382   -4.8560 O   0  0  0  0  0  0  0  0  0  0  0  0
   -5.9190    2.0983   -2.9454 S   0  0  0  0  0  0  0  0  0  0  0  0
   -6.1250    1.1515   -1.4780 C   0  0  0  0  0  0  0  0  0  0  0  0
   -0.0875    1.3059   -0.7478 C   0  0  0  0  0  0  0  0  0  0  0  0
    1.2673    0.9590   -0.7417 C   0  0  0  0  0  0  0  0  0  0  0  0
    1.6657   -0.3273   -0.3674 C   0  0  0  0  0  0  0  0  0  0  0  0
    2.9703   -0.7529   -0.3358 O   0  0  0  0  0  0  0  0  0  0  0  0
    3.9887    0.2456   -0.3727 C   0  0  0  0  0  0  0  0  0  0  0  0
    5.3248   -0.4351   -0.0805 C   0  0  0  0  0  0  0  0  0  0  0  0
    6.4767    0.5728   -0.1252 C   0  0  0  0  0  0  0  0  0  0  0  0
    7.7650    0.0029    0.3052 N   0  0  0  0  0  0  0  0  0  0  0  0
    8.7628    1.0665    0.4482 C   0  0  0  0  0  0  0  0  0  0  0  0
    8.2599   -1.0151   -0.6237 C   0  0  0  0  0  0  0  0  0  0  0  0
   -0.4213   -3.7184   -0.3331 H   0  0  0  0  0  0  0  0  0  0  0  0
    0.7541   -4.4825    0.7448 H   0  0  0  0  0  0  0  0  0  0  0  0
   -0.4011   -3.3364    1.4352 H   0  0  0  0  0  0  0  0  0  0  0  0
   -1.4277   -1.6400    0.2516 H   0  0  0  0  0  0  0  0  0  0  0  0
   -3.1512   -0.1267   -0.6666 H   0  0  0  0  0  0  0  0  0  0  0  0
   -2.3549    2.7206    0.2469 H   0  0  0  0  0  0  0  0  0  0  0  0
   -5.4581   -1.3261    2.9625 H   0  0  0  0  0  0  0  0  0  0  0  0
   -4.9761    0.0605    3.9492 H   0  0  0  0  0  0  0  0  0  0  0  0
   -6.6223    0.0142    3.3004 H   0  0  0  0  0  0  0  0  0  0  0  0
   -7.0856   -1.3440    1.3285 H   0  0  0  0  0  0  0  0  0  0  0  0
   -8.2455   -1.4382   -0.8362 H   0  0  0  0  0  0  0  0  0  0  0  0
   -0.3638    2.3106   -1.0607 H   0  0  0  0  0  0  0  0  0  0  0  0
    1.9855    1.7129   -1.0492 H   0  0  0  0  0  0  0  0  0  0  0  0
    4.0213    0.7031   -1.3688 H   0  0  0  0  0  0  0  0  0  0  0  0
    3.7983    1.0145    0.3866 H   0  0  0  0  0  0  0  0  0  0  0  0
    5.2754   -0.9190    0.9035 H   0  0  0  0  0  0  0  0  0  0  0  0
    5.4738   -1.2401   -0.8096 H   0  0  0  0  0  0  0  0  0  0  0  0
    6.5587    1.0010   -1.1337 H   0  0  0  0  0  0  0  0  0  0  0  0
    6.2173    1.3996    0.5501 H   0  0  0  0  0  0  0  0  0  0  0  0
    8.4330    1.8089    1.1841 H   0  0  0  0  0  0  0  0  0  0  0  0
    9.7099    0.6597    0.8210 H   0  0  0  0  0  0  0  0  0  0  0  0
    8.9564    1.5812   -0.5005 H   0  0  0  0  0  0  0  0  0  0  0  0
    9.2347   -1.3934   -0.2948 H   0  0  0  0  0  0  0  0  0  0  0  0
    8.3706   -0.6263   -1.6423 H   0  0  0  0  0  0  0  0  0  0  0  0
    7.5961   -1.8845   -0.6514 H   0  0  0  0  0  0  0  0  0  0  0  0
  1  2  1  0
  2  3  1  0
  3  4  2  0
  4  5  1  0
  5  6  1  0
  6  7  2  0
  7  8  1  0
  8  9  2  0
  8 10  1  0
 10 11  2  0
 11 12  1  0
 12 13  1  0
 11 14  1  0
 14 15  2  0
 15 16  1  0
 16 17  1  0
 17 18  1  0
 18 19  2  0
 18 20  1  0
 20 21  1  0
  5 22  2  0
 22 23  1  0
 23 24  2  0
 24 25  1  0
 25 26  1  0
 26 27  1  0
 27 28  1  0
 28 29  1  0
 29 30  1  0
 29 31  1  0
 24  3  1  0
 21 10  1  0
 21 16  2  0
  1 32  1  0
  1 33  1  0
  1 34  1  0
  4 35  1  0
  6 36  1  0
  7 37  1  0
 13 38  1  0
 13 39  1  0
 13 40  1  0
 14 41  1  0
 15 42  1  0
 22 43  1  0
 23 44  1  0
 26 45  1  0
 26 46  1  0
 27 47  1  0
 27 48  1  0
 28 49  1  0
 28 50  1  0
 30 51  1  0
 30 52  1  0
 30 53  1  0
 31 54  1  0
 31 55  1  0
 31 56  1  0
M  END
$$$$
