
     RDKit          3D

 96101  0  0  0  0  0  0  0  0999 V2000
   -4.8585    3.3305    0.9484 C   0  0  0  0  0  0  0  0  0  0  0  0
   -4.5775    2.3168   -0.1254 C   0  0  0  0  0  0  0  0  0  0  0  0
   -4.4621    0.9944    0.1136 C   0  0  0  0  0  0  0  0  0  0  0  0
   -4.4223    0.3055    1.4579 C   0  0  0  0  0  0  0  0  0  0  0  0
   -3.3134   -0.7666    1.5735 C   0  0  2  0  0  0  0  0  0  0  0  0
   -1.9390   -0.2514    1.1451 C   0  0  0  0  0  0  0  0  0  0  0  0
   -0.8977   -1.3680    1.1517 C   0  0  1  0  0  0  0  0  0  0  0  0
   -1.4220   -2.5786    0.3810 C   0  0  0  0  0  0  0  0  0  0  0  0
   -2.8022   -3.0113    0.8864 C   0  0  1  0  0  0  0  0  0  0  0  0
   -3.3492   -4.1119   -0.0285 C   0  0  0  0  0  0  0  0  0  0  0  0
   -4.6880   -4.6513    0.4657 C   0  0  0  0  0  0  0  0  0  0  0  0
   -4.7943   -4.7217    1.9954 C   0  0  2  0  0  0  0  0  0  0  0  0
   -5.8266   -3.7125    2.5189 C   0  0  0  0  0  0  0  0  0  0  0  0
   -3.4407   -4.5340    2.7013 C   0  0  1  0  0  0  0  0  0  0  0  0
   -2.5794   -5.7986    2.6766 C   0  0  0  0  0  0  0  0  0  0  0  0
   -2.6587   -3.4352    2.2407 O   0  0  0  0  0  0  0  0  0  0  0  0
   -3.6999   -1.8994    0.7842 O   0  0  0  0  0  0  0  0  0  0  0  0
    0.2830   -0.9108    0.4570 O   0  0  0  0  0  0  0  0  0  0  0  0
    1.1239   -0.0877    1.1373 C   0  0  0  0  0  0  0  0  0  0  0  0
    1.0421    0.1856    2.3291 O   0  0  0  0  0  0  0  0  0  0  0  0
    2.1706    0.4856    0.1951 C   0  0  0  0  0  0  0  0  0  0  0  0
    3.4930   -0.2033    0.3646 C   0  0  0  0  0  0  0  0  0  0  0  0
    4.6573    0.4072    0.0761 C   0  0  0  0  0  0  0  0  0  0  0  0
    5.9796   -0.2945    0.2838 C   0  0  0  0  0  0  0  0  0  0  0  0
    6.5293   -0.6187   -0.9912 O   0  0  0  0  0  0  0  0  0  0  0  0
    7.7549   -1.2062   -0.9284 C   0  0  0  0  0  0  0  0  0  0  0  0
    8.3334   -1.5162    0.1042 O   0  0  0  0  0  0  0  0  0  0  0  0
    8.2503   -1.4113   -2.2675 C   0  0  0  0  0  0  0  0  0  0  0  0
    9.4033   -2.0590   -2.6788 C   0  0  0  0  0  0  0  0  0  0  0  0
    9.4588   -2.0030   -4.0927 C   0  0  0  0  0  0  0  0  0  0  0  0
    8.3431   -1.3188   -4.5172 C   0  0  0  0  0  0  0  0  0  0  0  0
    7.6229   -0.9592   -3.4090 N   0  0  0  0  0  0  0  0  0  0  0  0
    4.7215    1.8510   -0.3731 C   0  0  1  0  0  0  0  0  0  0  0  0
    5.4165    1.9155   -1.6228 O   0  0  0  0  0  0  0  0  0  0  0  0
    3.3714    2.6244   -0.5013 C   0  0  1  0  0  0  0  0  0  0  0  0
    3.6641    4.1255   -0.2570 C   0  0  0  0  0  0  0  0  0  0  0  0
    2.8305    2.5106   -1.8532 O   0  0  0  0  0  0  0  0  0  0  0  0
    1.4112    2.8095   -1.7511 C   0  0  0  0  0  0  0  0  0  0  0  0
    1.0579    2.6652   -0.2949 C   0  0  0  0  0  0  0  0  0  0  0  0
   -0.0426    3.1161    0.3280 C   0  0  0  0  0  0  0  0  0  0  0  0
   -1.1788    3.7560   -0.2874 C   0  0  0  0  0  0  0  0  0  0  0  0
   -1.9334    3.1915   -1.2434 C   0  0  0  0  0  0  0  0  0  0  0  0
   -3.2110    3.7550   -1.8424 C   0  0  2  0  0  0  0  0  0  0  0  0
   -3.4956    5.2250   -1.5099 C   0  0  0  0  0  0  0  0  0  0  0  0
   -4.4406    2.8482   -1.5470 C   0  0  0  0  0  0  0  0  0  0  0  0
    2.2530    2.0309    0.3753 C   0  0  1  0  0  0  0  0  0  0  0  0
    2.4122    2.4633    1.7231 O   0  0  0  0  0  0  0  0  0  0  0  0
   -5.3339    2.8868    1.8279 H   0  0  0  0  0  0  0  0  0  0  0  0
   -5.5526    4.0933    0.5808 H   0  0  0  0  0  0  0  0  0  0  0  0
   -3.9350    3.8190    1.2716 H   0  0  0  0  0  0  0  0  0  0  0  0
   -4.3279    0.3201   -0.7335 H   0  0  0  0  0  0  0  0  0  0  0  0
   -4.2651    1.0335    2.2599 H   0  0  0  0  0  0  0  0  0  0  0  0
   -5.3976   -0.1691    1.6189 H   0  0  0  0  0  0  0  0  0  0  0  0
   -3.2783   -1.0769    2.6258 H   0  0  0  0  0  0  0  0  0  0  0  0
   -1.6224    0.5759    1.7909 H   0  0  0  0  0  0  0  0  0  0  0  0
   -1.9753    0.1556    0.1272 H   0  0  0  0  0  0  0  0  0  0  0  0
   -0.6415   -1.6644    2.1764 H   0  0  0  0  0  0  0  0  0  0  0  0
   -1.4700   -2.3213   -0.6866 H   0  0  0  0  0  0  0  0  0  0  0  0
   -0.6968   -3.3978    0.4726 H   0  0  0  0  0  0  0  0  0  0  0  0
   -3.4868   -3.7333   -1.0502 H   0  0  0  0  0  0  0  0  0  0  0  0
   -2.6323   -4.9377   -0.0990 H   0  0  0  0  0  0  0  0  0  0  0  0
   -5.4995   -4.0393    0.0502 H   0  0  0  0  0  0  0  0  0  0  0  0
   -4.8308   -5.6540    0.0444 H   0  0  0  0  0  0  0  0  0  0  0  0
   -5.1944   -5.7103    2.2605 H   0  0  0  0  0  0  0  0  0  0  0  0
   -5.5343   -2.6802    2.3226 H   0  0  0  0  0  0  0  0  0  0  0  0
   -5.9569   -3.8212    3.6009 H   0  0  0  0  0  0  0  0  0  0  0  0
   -6.8050   -3.8818    2.0551 H   0  0  0  0  0  0  0  0  0  0  0  0
   -3.6319   -4.3302    3.7625 H   0  0  0  0  0  0  0  0  0  0  0  0
   -2.2900   -6.0916    1.6653 H   0  0  0  0  0  0  0  0  0  0  0  0
   -1.6490   -5.6272    3.2283 H   0  0  0  0  0  0  0  0  0  0  0  0
   -3.1046   -6.6405    3.1388 H   0  0  0  0  0  0  0  0  0  0  0  0
    1.8409    0.2469   -0.8269 H   0  0  0  0  0  0  0  0  0  0  0  0
    3.4852   -1.2415    0.6883 H   0  0  0  0  0  0  0  0  0  0  0  0
    6.6623    0.3600    0.8421 H   0  0  0  0  0  0  0  0  0  0  0  0
    5.8409   -1.2188    0.8605 H   0  0  0  0  0  0  0  0  0  0  0  0
   10.1267   -2.5227   -2.0192 H   0  0  0  0  0  0  0  0  0  0  0  0
   10.2303   -2.4164   -4.7301 H   0  0  0  0  0  0  0  0  0  0  0  0
    8.0031   -1.0521   -5.5095 H   0  0  0  0  0  0  0  0  0  0  0  0
    6.7585   -0.4307   -3.4017 H   0  0  0  0  0  0  0  0  0  0  0  0
    5.3465    2.3627    0.3688 H   0  0  0  0  0  0  0  0  0  0  0  0
    4.7323    2.1241   -2.2895 H   0  0  0  0  0  0  0  0  0  0  0  0
    4.3762    4.4982   -1.0029 H   0  0  0  0  0  0  0  0  0  0  0  0
    4.0853    4.2984    0.7391 H   0  0  0  0  0  0  0  0  0  0  0  0
    2.7715    4.7521   -0.3559 H   0  0  0  0  0  0  0  0  0  0  0  0
    1.2497    3.8248   -2.1237 H   0  0  0  0  0  0  0  0  0  0  0  0
    0.8761    2.0904   -2.3774 H   0  0  0  0  0  0  0  0  0  0  0  0
   -0.1111    3.0383    1.4129 H   0  0  0  0  0  0  0  0  0  0  0  0
   -1.4593    4.7079    0.1572 H   0  0  0  0  0  0  0  0  0  0  0  0
   -1.6580    2.2074   -1.6201 H   0  0  0  0  0  0  0  0  0  0  0  0
   -3.0663    3.7306   -2.9321 H   0  0  0  0  0  0  0  0  0  0  0  0
   -4.3929    5.5715   -2.0355 H   0  0  0  0  0  0  0  0  0  0  0  0
   -3.6491    5.3962   -0.4405 H   0  0  0  0  0  0  0  0  0  0  0  0
   -2.6624    5.8609   -1.8336 H   0  0  0  0  0  0  0  0  0  0  0  0
   -4.3874    1.9989   -2.2421 H   0  0  0  0  0  0  0  0  0  0  0  0
   -5.3653    3.3733   -1.8174 H   0  0  0  0  0  0  0  0  0  0  0  0
    1.9275    1.8482    2.3123 H   0  0  0  0  0  0  0  0  0  0  0  0
  1  2  1  0
  2  3  2  0
  3  4  1  0
  4  5  1  0
  5  6  1  0
  6  7  1  0
  7  8  1  0
  8  9  1  0
  9 10  1  0
 10 11  1  0
 11 12  1  0
 12 13  1  0
 12 14  1  0
 14 15  1  0
 14 16  1  0
  9 17  1  1
  7 18  1  0
 18 19  1  0
 19 20  2  0
 19 21  1  0
 21 22  1  0
 22 23  2  0
 23 24  1  0
 24 25  1  0
 25 26  1  0
 26 27  2  0
 26 28  1  0
 28 29  2  0
 29 30  1  0
 30 31  2  0
 31 32  1  0
 23 33  1  0
 33 34  1  0
 33 35  1  0
 35 36  1  1
 35 37  1  0
 37 38  1  0
 38 39  1  0
 39 40  2  0
 40 41  1  0
 41 42  2  0
 42 43  1  0
 43 44  1  0
 43 45  1  0
 39 46  1  0
 46 47  1  1
 45  2  1  0
 17  5  1  0
 46 21  1  0
 16  9  1  0
 32 28  1  0
 46 35  1  0
  1 48  1  0
  1 49  1  0
  1 50  1  0
  3 51  1  0
  4 52  1  0
  4 53  1  0
  5 54  1  1
  6 55  1  0
  6 56  1  0
  7 57  1  1
  8 58  1  0
  8 59  1  0
 10 60  1  0
 10 61  1  0
 11 62  1  0
 11 63  1  0
 12 64  1  6
 13 65  1  0
 13 66  1  0
 13 67  1  0
 14 68  1  1
 15 69  1  0
 15 70  1  0
 15 71  1  0
 21 72  1  0
 22 73  1  0
 24 74  1  0
 24 75  1  0
 29 76  1  0
 30 77  1  0
 31 78  1  0
 32 79  1  0
 33 80  1  1
 34 81  1  0
 36 82  1  0
 36 83  1  0
 36 84  1  0
 38 85  1  0
 38 86  1  0
 40 87  1  0
 41 88  1  0
 42 89  1  0
 43 90  1  6
 44 91  1  0
 44 92  1  0
 44 93  1  0
 45 94  1  0
 45 95  1  0
 47 96  1  0
M  END
$$$$
