
     RDKit          3D

 30 31  0  0  0  0  0  0  0  0999 V2000
   -2.7248   -0.4498    1.7716 C   0  0  0  0  0  0  0  0  0  0  0  0
   -3.2983   -0.3441    0.3552 C   0  0  0  0  0  0  0  0  0  0  0  0
   -4.8242   -0.2723    0.4352 C   0  0  0  0  0  0  0  0  0  0  0  0
   -2.8765    0.8745   -0.2750 O   0  0  0  0  0  0  0  0  0  0  0  0
   -1.6637    0.9198   -0.8433 C   0  0  0  0  0  0  0  0  0  0  0  0
   -1.1684    1.9150   -1.3457 O   0  0  0  0  0  0  0  0  0  0  0  0
   -0.9447   -0.4005   -0.8222 C   0  0  0  0  0  0  0  0  0  0  0  0
    0.3304   -0.5436   -0.5945 N   0  0  0  0  0  0  0  0  0  0  0  0
    1.0599    0.5933   -0.4014 N   0  0  0  0  0  0  0  0  0  0  0  0
    2.4608    0.4671   -0.2591 C   0  0  0  0  0  0  0  0  0  0  0  0
    3.0820   -0.7600    0.0066 C   0  0  0  0  0  0  0  0  0  0  0  0
    4.4631   -0.8384    0.2081 C   0  0  0  0  0  0  0  0  0  0  0  0
    5.2402    0.3165    0.1695 C   0  0  0  0  0  0  0  0  0  0  0  0
    4.6355    1.5493   -0.0618 C   0  0  0  0  0  0  0  0  0  0  0  0
    3.2542    1.6237   -0.2637 C   0  0  0  0  0  0  0  0  0  0  0  0
   -1.7972   -1.6265   -1.0003 C   0  0  0  0  0  0  0  0  0  0  0  0
   -1.4345   -2.5896   -1.6500 O   0  0  0  0  0  0  0  0  0  0  0  0
   -2.9959   -1.5226   -0.4050 O   0  0  0  0  0  0  0  0  0  0  0  0
   -1.6317   -0.5045    1.7644 H   0  0  0  0  0  0  0  0  0  0  0  0
   -2.9930    0.4265    2.3714 H   0  0  0  0  0  0  0  0  0  0  0  0
   -3.0827   -1.3543    2.2749 H   0  0  0  0  0  0  0  0  0  0  0  0
   -5.2441   -1.1717    0.8984 H   0  0  0  0  0  0  0  0  0  0  0  0
   -5.1552    0.6089    0.9953 H   0  0  0  0  0  0  0  0  0  0  0  0
   -5.2551   -0.1961   -0.5702 H   0  0  0  0  0  0  0  0  0  0  0  0
    0.7967    1.4441   -0.9155 H   0  0  0  0  0  0  0  0  0  0  0  0
    2.4905   -1.6709    0.0515 H   0  0  0  0  0  0  0  0  0  0  0  0
    4.9265   -1.8026    0.3989 H   0  0  0  0  0  0  0  0  0  0  0  0
    6.3136    0.2560    0.3275 H   0  0  0  0  0  0  0  0  0  0  0  0
    5.2359    2.4548   -0.0797 H   0  0  0  0  0  0  0  0  0  0  0  0
    2.8003    2.5979   -0.4260 H   0  0  0  0  0  0  0  0  0  0  0  0
  1  2  1  0
  2  3  1  0
  2  4  1  0
  4  5  1  0
  5  6  2  0
  5  7  1  0
  7  8  2  3
  8  9  1  0
  9 10  1  0
 10 11  2  0
 11 12  1  0
 12 13  2  0
 13 14  1  0
 14 15  2  0
  7 16  1  0
 16 17  2  0
 16 18  1  0
 18  2  1  0
 15 10  1  0
  1 19  1  0
  1 20  1  0
  1 21  1  0
  3 22  1  0
  3 23  1  0
  3 24  1  0
  9 25  1  0
 11 26  1  0
 12 27  1  0
 13 28  1  0
 14 29  1  0
 15 30  1  0
M  END
$$$$
