
     RDKit          3D

 56 60  0  0  0  0  0  0  0  0999 V2000
   -1.4594    3.8091   -0.7227 C   0  0  0  0  0  0  0  0  0  0  0  0
   -2.3186    2.9379   -1.5971 C   0  0  0  0  0  0  0  0  0  0  0  0
   -2.5816    3.3412   -2.9136 C   0  0  0  0  0  0  0  0  0  0  0  0
   -3.3882    2.5680   -3.7466 C   0  0  0  0  0  0  0  0  0  0  0  0
   -3.9458    1.3802   -3.2775 C   0  0  0  0  0  0  0  0  0  0  0  0
   -3.6933    0.9388   -1.9712 C   0  0  0  0  0  0  0  0  0  0  0  0
   -4.3309   -0.3365   -1.4929 C   0  0  0  0  0  0  0  0  0  0  0  0
   -2.8669    1.7208   -1.1334 C   0  0  0  0  0  0  0  0  0  0  0  0
   -2.5997    1.2865    0.1986 N   0  0  0  0  0  0  0  0  0  0  0  0
   -1.4728    0.5348    0.5228 C   0  0  0  0  0  0  0  0  0  0  0  0
   -0.3630    0.0723   -0.7630 S   0  0  0  0  0  0  0  0  0  0  0  0
    1.1062   -0.3553    0.2165 C   0  0  0  0  0  0  0  0  0  0  0  0
    2.3286   -0.5940   -0.6751 C   0  0  0  0  0  0  0  0  0  0  0  0
    2.4829    0.0630   -1.7070 O   0  0  0  0  0  0  0  0  0  0  0  0
    3.2604   -1.5435   -0.2112 N   0  0  0  0  0  0  0  0  0  0  0  0
    3.2416   -1.9762    1.1907 C   0  0  0  0  0  0  0  0  0  0  0  0
    4.5083   -2.5681    1.7825 C   0  0  0  0  0  0  0  0  0  0  0  0
    4.6388   -2.7579    2.9910 O   0  0  0  0  0  0  0  0  0  0  0  0
    5.4645   -2.9783    0.9069 N   0  0  0  0  0  0  0  0  0  0  0  0
    5.3655   -2.8029   -0.4750 C   0  0  0  0  0  0  0  0  0  0  0  0
    6.3906   -3.3390   -1.2653 C   0  0  0  0  0  0  0  0  0  0  0  0
    6.3523   -3.1976   -2.6487 C   0  0  0  0  0  0  0  0  0  0  0  0
    5.2902   -2.5238   -3.2387 C   0  0  0  0  0  0  0  0  0  0  0  0
    4.2703   -1.9823   -2.4470 C   0  0  0  0  0  0  0  0  0  0  0  0
    4.2911   -2.0964   -1.0489 C   0  0  0  0  0  0  0  0  0  0  0  0
   -1.1936    0.1334    1.7222 N   0  0  0  0  0  0  0  0  0  0  0  0
   -2.0670    0.4717    2.7599 C   0  0  0  0  0  0  0  0  0  0  0  0
   -1.7664    0.0449    4.0561 C   0  0  0  0  0  0  0  0  0  0  0  0
   -2.6115    0.3588    5.1239 C   0  0  0  0  0  0  0  0  0  0  0  0
   -3.7684    1.1045    4.9028 C   0  0  0  0  0  0  0  0  0  0  0  0
   -4.0790    1.5352    3.6138 C   0  0  0  0  0  0  0  0  0  0  0  0
   -3.2251    1.2151    2.5505 C   0  0  0  0  0  0  0  0  0  0  0  0
   -3.5237    1.6576    1.1767 C   0  0  0  0  0  0  0  0  0  0  0  0
   -4.5444    2.3158    0.9826 O   0  0  0  0  0  0  0  0  0  0  0  0
   -0.5114    3.3116   -0.4979 H   0  0  0  0  0  0  0  0  0  0  0  0
   -1.2263    4.7610   -1.2119 H   0  0  0  0  0  0  0  0  0  0  0  0
   -1.9773    4.0467    0.2118 H   0  0  0  0  0  0  0  0  0  0  0  0
   -2.1633    4.2683   -3.2997 H   0  0  0  0  0  0  0  0  0  0  0  0
   -3.5887    2.8964   -4.7634 H   0  0  0  0  0  0  0  0  0  0  0  0
   -4.5823    0.7998   -3.9418 H   0  0  0  0  0  0  0  0  0  0  0  0
   -4.8206   -0.8713   -2.3138 H   0  0  0  0  0  0  0  0  0  0  0  0
   -5.0912   -0.1187   -0.7366 H   0  0  0  0  0  0  0  0  0  0  0  0
   -3.5810   -1.0130   -1.0719 H   0  0  0  0  0  0  0  0  0  0  0  0
    0.8572   -1.2575    0.7785 H   0  0  0  0  0  0  0  0  0  0  0  0
    1.3536    0.4592    0.9047 H   0  0  0  0  0  0  0  0  0  0  0  0
    2.9803   -1.1152    1.8166 H   0  0  0  0  0  0  0  0  0  0  0  0
    2.4558   -2.7349    1.2863 H   0  0  0  0  0  0  0  0  0  0  0  0
    6.2737   -3.4319    1.3103 H   0  0  0  0  0  0  0  0  0  0  0  0
    7.2230   -3.8721   -0.8137 H   0  0  0  0  0  0  0  0  0  0  0  0
    7.1447   -3.6140   -3.2652 H   0  0  0  0  0  0  0  0  0  0  0  0
    5.2459   -2.4142   -4.3200 H   0  0  0  0  0  0  0  0  0  0  0  0
    3.4563   -1.4880   -2.9696 H   0  0  0  0  0  0  0  0  0  0  0  0
   -0.8663   -0.5380    4.2352 H   0  0  0  0  0  0  0  0  0  0  0  0
   -2.3656    0.0204    6.1278 H   0  0  0  0  0  0  0  0  0  0  0  0
   -4.4273    1.3500    5.7325 H   0  0  0  0  0  0  0  0  0  0  0  0
   -4.9813    2.1178    3.4389 H   0  0  0  0  0  0  0  0  0  0  0  0
  1  2  1  0
  2  3  2  0
  3  4  1  0
  4  5  2  0
  5  6  1  0
  6  7  1  0
  6  8  2  0
  8  9  1  0
  9 10  1  0
 10 11  1  0
 11 12  1  0
 12 13  1  0
 13 14  2  0
 13 15  1  0
 15 16  1  0
 16 17  1  0
 17 18  2  0
 17 19  1  0
 19 20  1  0
 20 21  2  0
 21 22  1  0
 22 23  2  0
 23 24  1  0
 24 25  2  0
 10 26  2  0
 26 27  1  0
 27 28  2  0
 28 29  1  0
 29 30  2  0
 30 31  1  0
 31 32  2  0
 32 33  1  0
 33 34  2  0
  8  2  1  0
 33  9  1  0
 25 15  1  0
 32 27  1  0
 25 20  1  0
  1 35  1  0
  1 36  1  0
  1 37  1  0
  3 38  1  0
  4 39  1  0
  5 40  1  0
  7 41  1  0
  7 42  1  0
  7 43  1  0
 12 44  1  0
 12 45  1  0
 16 46  1  0
 16 47  1  0
 19 48  1  0
 21 49  1  0
 22 50  1  0
 23 51  1  0
 24 52  1  0
 28 53  1  0
 29 54  1  0
 30 55  1  0
 31 56  1  0
M  END
$$$$
