
     RDKit          3D

 42 45  0  0  0  0  0  0  0  0999 V2000
    3.0487   -2.1243    0.9167 C   0  0  0  0  0  0  0  0  0  0  0  0
    3.3314   -0.9763    0.0180 C   0  0  0  0  0  0  0  0  0  0  0  0
    2.4827   -0.0796   -0.6197 C   0  0  0  0  0  0  0  0  0  0  0  0
    1.0290    0.0501   -0.5373 C   0  0  0  0  0  0  0  0  0  0  0  0
    0.3457    0.2138   -1.5432 O   0  0  0  0  0  0  0  0  0  0  0  0
    0.5390   -0.0146    0.7685 N   0  0  0  0  0  0  0  0  0  0  0  0
   -0.7804   -0.0724    1.1468 N   0  0  0  0  0  0  0  0  0  0  0  0
   -1.6662    0.5336    0.4118 C   0  0  0  0  0  0  0  0  0  0  0  0
   -3.1182    0.4661    0.7294 C   0  0  0  0  0  0  0  0  0  0  0  0
   -3.5286   -0.0379    1.9769 C   0  0  0  0  0  0  0  0  0  0  0  0
   -2.6628   -0.5177    2.9245 O   0  0  0  0  0  0  0  0  0  0  0  0
   -4.8712   -0.0665    2.3252 C   0  0  0  0  0  0  0  0  0  0  0  0
   -5.8258    0.4039    1.4293 C   0  0  0  0  0  0  0  0  0  0  0  0
   -5.4544    0.8971    0.1698 C   0  0  0  0  0  0  0  0  0  0  0  0
   -6.4498    1.3511   -0.7113 C   0  0  0  0  0  0  0  0  0  0  0  0
   -6.1263    1.8333   -1.9768 C   0  0  0  0  0  0  0  0  0  0  0  0
   -4.8004    1.8615   -2.3809 C   0  0  0  0  0  0  0  0  0  0  0  0
   -3.7969    1.4157   -1.5158 C   0  0  0  0  0  0  0  0  0  0  0  0
   -4.0861    0.9313   -0.2121 C   0  0  0  0  0  0  0  0  0  0  0  0
    3.2205    0.7237   -1.4441 N   0  0  0  0  0  0  0  0  0  0  0  0
    4.4953    0.4061   -1.3081 N   0  0  0  0  0  0  0  0  0  0  0  0
    4.6106   -0.6134   -0.4135 N   0  0  0  0  0  0  0  0  0  0  0  0
    5.8740   -1.1466   -0.0538 C   0  0  0  0  0  0  0  0  0  0  0  0
    5.9767   -2.1415    0.8291 N   0  0  0  0  0  0  0  0  0  0  0  0
    7.3481   -2.3842    0.9062 O   0  0  0  0  0  0  0  0  0  0  0  0
    8.0602   -1.5296    0.0719 N   0  0  0  0  0  0  0  0  0  0  0  0
    7.1461   -0.7574   -0.5140 C   0  0  0  0  0  0  0  0  0  0  0  0
    7.4284    0.2222   -1.3924 N   0  0  0  0  0  0  0  0  0  0  0  0
    1.9766   -2.3354    0.9711 H   0  0  0  0  0  0  0  0  0  0  0  0
    3.5217   -3.0402    0.5490 H   0  0  0  0  0  0  0  0  0  0  0  0
    3.3996   -1.9181    1.9325 H   0  0  0  0  0  0  0  0  0  0  0  0
    1.1875   -0.2502    1.5120 H   0  0  0  0  0  0  0  0  0  0  0  0
   -1.3729    1.1597   -0.4407 H   0  0  0  0  0  0  0  0  0  0  0  0
   -1.7653   -0.5090    2.5282 H   0  0  0  0  0  0  0  0  0  0  0  0
   -5.1739   -0.4529    3.2948 H   0  0  0  0  0  0  0  0  0  0  0  0
   -6.8731    0.3743    1.7246 H   0  0  0  0  0  0  0  0  0  0  0  0
   -7.4976    1.3289   -0.4172 H   0  0  0  0  0  0  0  0  0  0  0  0
   -6.9098    2.1778   -2.6465 H   0  0  0  0  0  0  0  0  0  0  0  0
   -4.5395    2.2248   -3.3721 H   0  0  0  0  0  0  0  0  0  0  0  0
   -2.7794    1.4430   -1.8987 H   0  0  0  0  0  0  0  0  0  0  0  0
    6.6982    0.6690   -1.9456 H   0  0  0  0  0  0  0  0  0  0  0  0
    8.3589    0.2809   -1.7925 H   0  0  0  0  0  0  0  0  0  0  0  0
  1  2  1  0
  2  3  2  0
  3  4  1  0
  4  5  2  0
  4  6  1  0
  6  7  1  0
  7  8  2  3
  8  9  1  0
  9 10  2  0
 10 11  1  0
 10 12  1  0
 12 13  2  0
 13 14  1  0
 14 15  2  0
 15 16  1  0
 16 17  2  0
 17 18  1  0
 18 19  2  0
  3 20  1  0
 20 21  2  0
 21 22  1  0
 22 23  1  0
 23 24  2  0
 24 25  1  0
 25 26  1  0
 26 27  2  0
 27 28  1  0
 22  2  1  0
 27 23  1  0
 19  9  1  0
 19 14  1  0
  1 29  1  0
  1 30  1  0
  1 31  1  0
  6 32  1  0
  8 33  1  0
 11 34  1  0
 12 35  1  0
 13 36  1  0
 15 37  1  0
 16 38  1  0
 17 39  1  0
 18 40  1  0
 28 41  1  0
 28 42  1  0
M  END
$$$$
