
     RDKit          3D

 61 65  0  0  0  0  0  0  0  0999 V2000
   -7.6651    3.1874   -3.0557 C   0  0  0  0  0  0  0  0  0  0  0  0
   -6.7371    2.3192   -2.2599 C   0  0  0  0  0  0  0  0  0  0  0  0
   -7.2283    1.5195   -1.2264 C   0  0  0  0  0  0  0  0  0  0  0  0
   -6.3579    0.7319   -0.4646 C   0  0  0  0  0  0  0  0  0  0  0  0
   -4.9704    0.7256   -0.6973 C   0  0  0  0  0  0  0  0  0  0  0  0
   -4.0721   -0.1133    0.1269 C   0  0  0  0  0  0  0  0  0  0  0  0
   -2.7443    0.1975    0.3618 C   0  0  0  0  0  0  0  0  0  0  0  0
   -1.9847   -0.6722    1.1456 C   0  0  0  0  0  0  0  0  0  0  0  0
   -0.5539   -0.3286    1.3078 C   0  0  0  0  0  0  0  0  0  0  0  0
   -0.2724    0.7539    1.8028 O   0  0  0  0  0  0  0  0  0  0  0  0
    0.3088   -1.2860    0.8088 N   0  0  0  0  0  0  0  0  0  0  0  0
    1.7174   -1.2672    0.8380 C   0  0  0  0  0  0  0  0  0  0  0  0
    2.3830   -2.3378    0.2234 C   0  0  0  0  0  0  0  0  0  0  0  0
    3.7791   -2.4016    0.2144 C   0  0  0  0  0  0  0  0  0  0  0  0
    4.5157   -1.3806    0.8173 C   0  0  0  0  0  0  0  0  0  0  0  0
    6.2927   -1.4705    0.8240 S   0  0  0  0  0  6  0  0  0  0  0  0
    6.6420   -2.8735    0.9085 O   0  0  0  0  0  0  0  0  0  0  0  0
    6.7902   -0.5170    1.7921 O   0  0  0  0  0  0  0  0  0  0  0  0
    6.7651   -0.9686   -0.7188 N   0  0  0  0  0  0  0  0  0  0  0  0
    5.9871    0.1170   -1.2857 C   0  0  0  0  0  0  0  0  0  0  0  0
    5.0760   -0.0619   -2.2757 O   0  0  0  0  0  0  0  0  0  0  0  0
    4.4994    1.1484   -2.6019 N   0  0  0  0  0  0  0  0  0  0  0  0
    5.0932    2.0545   -1.8161 C   0  0  0  0  0  0  0  0  0  0  0  0
    4.7156    3.4852   -1.9144 C   0  0  0  0  0  0  0  0  0  0  0  0
    6.0685    1.4552   -0.9697 C   0  0  0  0  0  0  0  0  0  0  0  0
    6.9508    2.1260    0.0114 C   0  0  0  0  0  0  0  0  0  0  0  0
    3.8669   -0.3199    1.4523 C   0  0  0  0  0  0  0  0  0  0  0  0
    2.4692   -0.2634    1.4540 C   0  0  0  0  0  0  0  0  0  0  0  0
   -2.5554   -1.8189    1.7365 C   0  0  0  0  0  0  0  0  0  0  0  0
   -1.8794   -2.7158    2.6045 C   0  0  0  0  0  0  0  0  0  0  0  0
   -2.5279   -3.8301    3.1327 C   0  0  0  0  0  0  0  0  0  0  0  0
   -3.8567   -4.0614    2.8100 C   0  0  0  0  0  0  0  0  0  0  0  0
   -4.5297   -3.1698    1.9718 C   0  0  0  0  0  0  0  0  0  0  0  0
   -3.9082   -2.0496    1.4364 C   0  0  0  0  0  0  0  0  0  0  0  0
   -4.6322   -1.2320    0.6538 N   0  0  0  0  0  0  0  0  0  0  0  0
   -4.4951    1.5431   -1.7381 C   0  0  0  0  0  0  0  0  0  0  0  0
   -5.3625    2.3336   -2.5031 C   0  0  0  0  0  0  0  0  0  0  0  0
   -8.6266    2.6883   -3.2098 H   0  0  0  0  0  0  0  0  0  0  0  0
   -7.2498    3.4033   -4.0450 H   0  0  0  0  0  0  0  0  0  0  0  0
   -7.8340    4.1336   -2.5320 H   0  0  0  0  0  0  0  0  0  0  0  0
   -8.2925    1.4985   -1.0038 H   0  0  0  0  0  0  0  0  0  0  0  0
   -6.7754    0.1154    0.3306 H   0  0  0  0  0  0  0  0  0  0  0  0
   -2.2901    1.0974   -0.0401 H   0  0  0  0  0  0  0  0  0  0  0  0
   -0.1152   -2.0836    0.3490 H   0  0  0  0  0  0  0  0  0  0  0  0
    1.8237   -3.1370   -0.2568 H   0  0  0  0  0  0  0  0  0  0  0  0
    4.2763   -3.2445   -0.2595 H   0  0  0  0  0  0  0  0  0  0  0  0
    6.8516   -1.7789   -1.3312 H   0  0  0  0  0  0  0  0  0  0  0  0
    3.7643    3.6151   -2.4407 H   0  0  0  0  0  0  0  0  0  0  0  0
    4.6089    3.9259   -0.9178 H   0  0  0  0  0  0  0  0  0  0  0  0
    5.4861    4.0421   -2.4579 H   0  0  0  0  0  0  0  0  0  0  0  0
    7.2046    3.1388   -0.3189 H   0  0  0  0  0  0  0  0  0  0  0  0
    7.8899    1.5796    0.1426 H   0  0  0  0  0  0  0  0  0  0  0  0
    6.4525    2.2010    0.9827 H   0  0  0  0  0  0  0  0  0  0  0  0
    4.4314    0.4674    1.9465 H   0  0  0  0  0  0  0  0  0  0  0  0
    1.9962    0.5761    1.9544 H   0  0  0  0  0  0  0  0  0  0  0  0
   -0.8448   -2.5408    2.8945 H   0  0  0  0  0  0  0  0  0  0  0  0
   -1.9999   -4.5071    3.7997 H   0  0  0  0  0  0  0  0  0  0  0  0
   -4.3789   -4.9244    3.2154 H   0  0  0  0  0  0  0  0  0  0  0  0
   -5.5759   -3.3513    1.7337 H   0  0  0  0  0  0  0  0  0  0  0  0
   -3.4369    1.5712   -1.9851 H   0  0  0  0  0  0  0  0  0  0  0  0
   -4.9525    2.9560   -3.2951 H   0  0  0  0  0  0  0  0  0  0  0  0
  1  2  1  0
  2  3  2  0
  3  4  1  0
  4  5  2  0
  5  6  1  0
  6  7  2  0
  7  8  1  0
  8  9  1  0
  9 10  2  0
  9 11  1  0
 11 12  1  0
 12 13  2  0
 13 14  1  0
 14 15  2  0
 15 16  1  0
 16 17  2  0
 16 18  2  0
 16 19  1  0
 19 20  1  0
 20 21  1  0
 21 22  1  0
 22 23  2  0
 23 24  1  0
 23 25  1  0
 25 26  1  0
 15 27  1  0
 27 28  2  0
  8 29  2  0
 29 30  1  0
 30 31  2  0
 31 32  1  0
 32 33  2  0
 33 34  1  0
 34 35  2  0
  5 36  1  0
 36 37  2  0
 37  2  1  0
 35  6  1  0
 28 12  1  0
 34 29  1  0
 25 20  2  0
  1 38  1  0
  1 39  1  0
  1 40  1  0
  3 41  1  0
  4 42  1  0
  7 43  1  0
 11 44  1  0
 13 45  1  0
 14 46  1  0
 19 47  1  0
 24 48  1  0
 24 49  1  0
 24 50  1  0
 26 51  1  0
 26 52  1  0
 26 53  1  0
 27 54  1  0
 28 55  1  0
 30 56  1  0
 31 57  1  0
 32 58  1  0
 33 59  1  0
 36 60  1  0
 37 61  1  0
M  END
$$$$
