
     RDKit          3D

 56 58  0  0  0  0  0  0  0  0999 V2000
    9.1117   -3.2513   -0.0410 C   0  0  0  0  0  0  0  0  0  0  0  0
    8.5344   -2.3579   -0.9846 O   0  0  0  0  0  0  0  0  0  0  0  0
    7.1730   -2.2251   -0.9578 C   0  0  0  0  0  0  0  0  0  0  0  0
    6.6507   -1.3691   -1.9299 C   0  0  0  0  0  0  0  0  0  0  0  0
    5.2753   -1.1393   -2.0142 C   0  0  0  0  0  0  0  0  0  0  0  0
    4.3971   -1.7725   -1.1271 C   0  0  0  0  0  0  0  0  0  0  0  0
    2.9197   -1.5027   -1.1936 C   0  0  0  0  0  0  0  0  0  0  0  0
    2.5751   -0.3369   -0.4260 N   0  0  0  0  0  0  0  0  0  0  0  0
    1.2927    0.1565   -0.4141 C   0  0  0  0  0  0  0  0  0  0  0  0
    0.3608   -0.2511   -1.0922 O   0  0  0  0  0  0  0  0  0  0  0  0
    1.0861    1.3080    0.5948 C   0  0  0  0  0  0  0  0  0  0  0  0
    1.9167    1.5084    1.4705 O   0  0  0  0  0  0  0  0  0  0  0  0
   -0.0751    2.0174    0.4092 N   0  0  0  0  0  0  0  0  0  0  0  0
   -0.5363    2.9862    1.3849 C   0  0  0  0  0  0  0  0  0  0  0  0
   -1.9145    3.6008    1.0809 C   0  0  0  0  0  0  0  0  0  0  0  0
   -2.2974    4.4563    2.1730 O   0  0  0  0  0  0  0  0  0  0  0  0
   -3.7209    4.3602    2.2523 C   0  0  0  0  0  0  0  0  0  0  0  0
   -3.9916    2.8989    1.9779 C   0  0  0  0  0  0  0  0  0  0  0  0
   -2.9535    2.5398    0.9919 N   0  0  0  0  0  0  0  0  0  0  0  0
   -3.4641    2.2288   -0.5879 S   0  0  0  0  0  6  0  0  0  0  0  0
   -2.2769    1.9794   -1.3777 O   0  0  0  0  0  0  0  0  0  0  0  0
   -4.4042    3.2683   -0.9497 O   0  0  0  0  0  0  0  0  0  0  0  0
   -4.3324    0.6943   -0.4133 C   0  0  0  0  0  0  0  0  0  0  0  0
   -3.5984   -0.4844   -0.2552 C   0  0  0  0  0  0  0  0  0  0  0  0
   -4.2706   -1.7008   -0.1327 C   0  0  0  0  0  0  0  0  0  0  0  0
   -5.6707   -1.7468   -0.1859 C   0  0  0  0  0  0  0  0  0  0  0  0
   -6.3899   -3.0543   -0.0234 C   0  0  0  0  0  0  0  0  0  0  0  0
   -6.3929   -0.5557   -0.3460 C   0  0  0  0  0  0  0  0  0  0  0  0
   -5.7273    0.6646   -0.4720 C   0  0  0  0  0  0  0  0  0  0  0  0
    4.9256   -2.6208   -0.1446 C   0  0  0  0  0  0  0  0  0  0  0  0
    6.3042   -2.8491   -0.0629 C   0  0  0  0  0  0  0  0  0  0  0  0
    8.7440   -4.2729   -0.1872 H   0  0  0  0  0  0  0  0  0  0  0  0
   10.1935   -3.2604   -0.2068 H   0  0  0  0  0  0  0  0  0  0  0  0
    8.9352   -2.9097    0.9844 H   0  0  0  0  0  0  0  0  0  0  0  0
    7.3225   -0.8732   -2.6265 H   0  0  0  0  0  0  0  0  0  0  0  0
    4.8953   -0.4596   -2.7739 H   0  0  0  0  0  0  0  0  0  0  0  0
    2.3494   -2.3541   -0.8031 H   0  0  0  0  0  0  0  0  0  0  0  0
    2.5960   -1.3570   -2.2311 H   0  0  0  0  0  0  0  0  0  0  0  0
    3.2066    0.0092    0.2914 H   0  0  0  0  0  0  0  0  0  0  0  0
   -0.6972    1.7094   -0.3443 H   0  0  0  0  0  0  0  0  0  0  0  0
   -0.5559    2.4894    2.3638 H   0  0  0  0  0  0  0  0  0  0  0  0
    0.2182    3.7781    1.4646 H   0  0  0  0  0  0  0  0  0  0  0  0
   -1.8736    4.2149    0.1737 H   0  0  0  0  0  0  0  0  0  0  0  0
   -4.0666    4.6792    3.2390 H   0  0  0  0  0  0  0  0  0  0  0  0
   -4.1612    5.0100    1.4879 H   0  0  0  0  0  0  0  0  0  0  0  0
   -3.8158    2.2945    2.8751 H   0  0  0  0  0  0  0  0  0  0  0  0
   -5.0173    2.7252    1.6469 H   0  0  0  0  0  0  0  0  0  0  0  0
   -2.5102   -0.4650   -0.2317 H   0  0  0  0  0  0  0  0  0  0  0  0
   -3.6946   -2.6157   -0.0055 H   0  0  0  0  0  0  0  0  0  0  0  0
   -5.8036   -3.8773   -0.4459 H   0  0  0  0  0  0  0  0  0  0  0  0
   -7.3519   -3.0394   -0.5468 H   0  0  0  0  0  0  0  0  0  0  0  0
   -6.5685   -3.2537    1.0377 H   0  0  0  0  0  0  0  0  0  0  0  0
   -7.4807   -0.5753   -0.3810 H   0  0  0  0  0  0  0  0  0  0  0  0
   -6.3004    1.5777   -0.6135 H   0  0  0  0  0  0  0  0  0  0  0  0
    4.2656   -3.1100    0.5691 H   0  0  0  0  0  0  0  0  0  0  0  0
    6.6649   -3.5142    0.7148 H   0  0  0  0  0  0  0  0  0  0  0  0
  1  2  1  0
  2  3  1  0
  3  4  2  0
  4  5  1  0
  5  6  2  0
  6  7  1  0
  7  8  1  0
  8  9  1  0
  9 10  2  0
  9 11  1  0
 11 12  2  0
 11 13  1  0
 13 14  1  0
 14 15  1  0
 15 16  1  0
 16 17  1  0
 17 18  1  0
 18 19  1  0
 19 20  1  0
 20 21  2  0
 20 22  2  0
 20 23  1  0
 23 24  2  0
 24 25  1  0
 25 26  2  0
 26 27  1  0
 26 28  1  0
 28 29  2  0
  6 30  1  0
 30 31  2  0
 31  3  1  0
 19 15  1  0
 29 23  1  0
  1 32  1  0
  1 33  1  0
  1 34  1  0
  4 35  1  0
  5 36  1  0
  7 37  1  0
  7 38  1  0
  8 39  1  0
 13 40  1  0
 14 41  1  0
 14 42  1  0
 15 43  1  0
 17 44  1  0
 17 45  1  0
 18 46  1  0
 18 47  1  0
 24 48  1  0
 25 49  1  0
 27 50  1  0
 27 51  1  0
 27 52  1  0
 28 53  1  0
 29 54  1  0
 30 55  1  0
 31 56  1  0
M  END
$$$$
