
     RDKit          3D

 51 54  0  0  0  0  0  0  0  0999 V2000
   -3.5005   -4.3866    2.3294 C   0  0  0  0  0  0  0  0  0  0  0  0
   -2.1840   -4.4029    1.7899 O   0  0  0  0  0  0  0  0  0  0  0  0
   -1.6808   -3.2160    1.3311 C   0  0  0  0  0  0  0  0  0  0  0  0
   -2.2818   -1.9714    1.4953 C   0  0  0  0  0  0  0  0  0  0  0  0
   -1.6783   -0.8138    0.9652 C   0  0  0  0  0  0  0  0  0  0  0  0
   -2.3282    0.4893    1.1765 C   0  0  0  0  0  0  0  0  0  0  0  0
   -3.3704    0.5327    1.8271 O   0  0  0  0  0  0  0  0  0  0  0  0
   -1.6966    1.5986    0.6374 N   0  0  0  0  0  0  0  0  0  0  0  0
   -2.3429    2.8915    0.8128 C   0  0  0  0  0  0  0  0  0  0  0  0
   -3.1380    3.2176   -0.4054 C   0  0  0  0  0  0  0  0  0  0  0  0
   -2.8421    3.8807   -1.5792 C   0  0  0  0  0  0  0  0  0  0  0  0
   -4.0224    3.8583   -2.3602 C   0  0  0  0  0  0  0  0  0  0  0  0
   -4.9620    3.1871   -1.6145 C   0  0  0  0  0  0  0  0  0  0  0  0
   -4.4352    2.7958   -0.4266 O   0  0  0  0  0  0  0  0  0  0  0  0
   -0.4963    1.5702   -0.0532 C   0  0  0  0  0  0  0  0  0  0  0  0
    0.0497    2.6019   -0.4563 O   0  0  0  0  0  0  0  0  0  0  0  0
    0.0720    0.3218   -0.2834 N   0  0  0  0  0  0  0  0  0  0  0  0
    1.3340    0.3037   -1.0273 C   0  0  0  0  0  0  0  0  0  0  0  0
    2.5361    0.4075   -0.0895 C   0  0  0  0  0  0  0  0  0  0  0  0
    2.4936    0.0553    1.0896 O   0  0  0  0  0  0  0  0  0  0  0  0
    3.8288    0.9142   -0.6389 C   0  0  0  0  0  0  0  0  0  0  0  0
    4.8178    1.3262    0.2673 C   0  0  0  0  0  0  0  0  0  0  0  0
    6.0477    1.8015   -0.1926 C   0  0  0  0  0  0  0  0  0  0  0  0
    6.3009    1.8633   -1.5618 C   0  0  0  0  0  0  0  0  0  0  0  0
    5.3225    1.4466   -2.4631 C   0  0  0  0  0  0  0  0  0  0  0  0
    5.6730    1.5202   -4.3212 Br  0  0  0  0  0  0  0  0  0  0  0  0
    4.0882    0.9707   -2.0134 C   0  0  0  0  0  0  0  0  0  0  0  0
   -0.4814   -0.8729    0.2526 C   0  0  0  0  0  0  0  0  0  0  0  0
    0.1287   -2.1250    0.1063 C   0  0  0  0  0  0  0  0  0  0  0  0
   -0.4550   -3.2722    0.6578 C   0  0  0  0  0  0  0  0  0  0  0  0
    0.1879   -4.4682    0.4480 O   0  0  0  0  0  0  0  0  0  0  0  0
    0.9663   -4.8118    1.5934 C   0  0  0  0  0  0  0  0  0  0  0  0
   -4.2246   -4.0053    1.6009 H   0  0  0  0  0  0  0  0  0  0  0  0
   -3.7780   -5.4188    2.5646 H   0  0  0  0  0  0  0  0  0  0  0  0
   -3.5345   -3.8126    3.2614 H   0  0  0  0  0  0  0  0  0  0  0  0
   -3.2187   -1.8651    2.0351 H   0  0  0  0  0  0  0  0  0  0  0  0
   -1.5863    3.6671    0.9801 H   0  0  0  0  0  0  0  0  0  0  0  0
   -2.9929    2.8872    1.6949 H   0  0  0  0  0  0  0  0  0  0  0  0
   -1.8858    4.3166   -1.8360 H   0  0  0  0  0  0  0  0  0  0  0  0
   -4.1706    4.2773   -3.3452 H   0  0  0  0  0  0  0  0  0  0  0  0
   -5.9965    2.9170   -1.7770 H   0  0  0  0  0  0  0  0  0  0  0  0
    1.3440    1.1568   -1.7146 H   0  0  0  0  0  0  0  0  0  0  0  0
    1.4121   -0.5948   -1.6453 H   0  0  0  0  0  0  0  0  0  0  0  0
    4.6328    1.2817    1.3401 H   0  0  0  0  0  0  0  0  0  0  0  0
    6.8064    2.1220    0.5179 H   0  0  0  0  0  0  0  0  0  0  0  0
    7.2609    2.2340   -1.9142 H   0  0  0  0  0  0  0  0  0  0  0  0
    3.3563    0.6421   -2.7443 H   0  0  0  0  0  0  0  0  0  0  0  0
    1.0732   -2.2558   -0.4114 H   0  0  0  0  0  0  0  0  0  0  0  0
    1.8394   -4.1547    1.6679 H   0  0  0  0  0  0  0  0  0  0  0  0
    1.3241   -5.8384    1.4620 H   0  0  0  0  0  0  0  0  0  0  0  0
    0.3875   -4.7704    2.5229 H   0  0  0  0  0  0  0  0  0  0  0  0
  1  2  1  0
  2  3  1  0
  3  4  2  0
  4  5  1  0
  5  6  1  0
  6  7  2  0
  6  8  1  0
  8  9  1  0
  9 10  1  0
 10 11  2  0
 11 12  1  0
 12 13  2  0
 13 14  1  0
  8 15  1  0
 15 16  2  0
 15 17  1  0
 17 18  1  0
 18 19  1  0
 19 20  2  0
 19 21  1  0
 21 22  2  0
 22 23  1  0
 23 24  2  0
 24 25  1  0
 25 26  1  0
 25 27  2  0
 17 28  1  0
 28 29  1  0
 29 30  2  0
 30 31  1  0
 31 32  1  0
 30  3  1  0
 28  5  2  0
 14 10  1  0
 27 21  1  0
  1 33  1  0
  1 34  1  0
  1 35  1  0
  4 36  1  0
  9 37  1  0
  9 38  1  0
 11 39  1  0
 12 40  1  0
 13 41  1  0
 18 42  1  0
 18 43  1  0
 22 44  1  0
 23 45  1  0
 24 46  1  0
 27 47  1  0
 29 48  1  0
 32 49  1  0
 32 50  1  0
 32 51  1  0
M  END
$$$$
