
     RDKit          3D

 51 54  0  0  0  0  0  0  0  0999 V2000
    5.8427    0.5065   -3.7236 C   0  0  0  0  0  0  0  0  0  0  0  0
    5.6796    1.7623   -2.8811 C   0  0  0  0  0  0  0  0  0  0  0  0
    4.3350    1.8120   -2.2039 C   0  0  0  0  0  0  0  0  0  0  0  0
    3.2389    2.4004   -2.8378 C   0  0  0  0  0  0  0  0  0  0  0  0
    1.9858    2.4310   -2.2128 C   0  0  0  0  0  0  0  0  0  0  0  0
    1.7847    1.8716   -0.9397 C   0  0  0  0  0  0  0  0  0  0  0  0
    0.4801    1.9077   -0.3034 N   0  0  0  0  0  0  0  0  0  0  0  0
   -0.3191    3.0394   -0.5058 C   0  0  0  0  0  0  0  0  0  0  0  0
    0.0298    4.0773   -1.0709 O   0  0  0  0  0  0  0  0  0  0  0  0
   -1.6790    3.0212    0.0538 C   0  0  0  0  0  0  0  0  0  0  0  0
   -2.5582    4.0800   -0.2365 C   0  0  0  0  0  0  0  0  0  0  0  0
   -3.8466    4.0884    0.2880 C   0  0  0  0  0  0  0  0  0  0  0  0
   -4.2570    3.0392    1.0998 C   0  0  0  0  0  0  0  0  0  0  0  0
   -3.3777    1.9898    1.3904 C   0  0  0  0  0  0  0  0  0  0  0  0
   -2.0705    1.9712    0.8747 C   0  0  0  0  0  0  0  0  0  0  0  0
   -1.1484    0.9320    1.1516 N   0  0  0  0  0  0  0  0  0  0  0  0
   -1.5207   -0.1924    2.0137 C   0  0  0  0  0  0  0  0  0  0  0  0
   -2.2517   -1.2997    1.2446 C   0  0  0  0  0  0  0  0  0  0  0  0
   -2.8960   -1.1042    0.2170 O   0  0  0  0  0  0  0  0  0  0  0  0
   -2.1828   -2.5353    1.8476 N   0  0  0  0  0  0  0  0  0  0  0  0
   -2.8965   -3.6676    1.3065 C   0  0  0  0  0  0  0  0  0  0  0  0
   -2.4332   -4.8950    1.9956 C   0  0  0  0  0  0  0  0  0  0  0  0
   -1.8208   -6.0523    1.5612 C   0  0  0  0  0  0  0  0  0  0  0  0
   -1.6230   -6.8557    2.7099 C   0  0  0  0  0  0  0  0  0  0  0  0
   -2.1239   -6.1389    3.7708 C   0  0  0  0  0  0  0  0  0  0  0  0
   -2.6150   -4.9452    3.3494 O   0  0  0  0  0  0  0  0  0  0  0  0
    0.0902    0.8350    0.5127 C   0  0  0  0  0  0  0  0  0  0  0  0
    0.7654   -0.1873    0.6780 O   0  0  0  0  0  0  0  0  0  0  0  0
    2.8962    1.2795   -0.3186 C   0  0  0  0  0  0  0  0  0  0  0  0
    4.1515    1.2468   -0.9402 C   0  0  0  0  0  0  0  0  0  0  0  0
    6.8270    0.4973   -4.2024 H   0  0  0  0  0  0  0  0  0  0  0  0
    5.0823    0.4542   -4.5102 H   0  0  0  0  0  0  0  0  0  0  0  0
    5.7549   -0.3972   -3.1110 H   0  0  0  0  0  0  0  0  0  0  0  0
    5.8084    2.6508   -3.5113 H   0  0  0  0  0  0  0  0  0  0  0  0
    6.4746    1.8083   -2.1268 H   0  0  0  0  0  0  0  0  0  0  0  0
    3.3454    2.8393   -3.8275 H   0  0  0  0  0  0  0  0  0  0  0  0
    1.1632    2.8816   -2.7632 H   0  0  0  0  0  0  0  0  0  0  0  0
   -2.2382    4.9011   -0.8759 H   0  0  0  0  0  0  0  0  0  0  0  0
   -4.5260    4.9051    0.0578 H   0  0  0  0  0  0  0  0  0  0  0  0
   -5.2670    3.0276    1.5034 H   0  0  0  0  0  0  0  0  0  0  0  0
   -3.7662    1.1860    2.0074 H   0  0  0  0  0  0  0  0  0  0  0  0
   -2.1394    0.1442    2.8512 H   0  0  0  0  0  0  0  0  0  0  0  0
   -0.6191   -0.6203    2.4692 H   0  0  0  0  0  0  0  0  0  0  0  0
   -1.7599   -2.6430    2.7612 H   0  0  0  0  0  0  0  0  0  0  0  0
   -3.9672   -3.5098    1.4730 H   0  0  0  0  0  0  0  0  0  0  0  0
   -2.7202   -3.7241    0.2272 H   0  0  0  0  0  0  0  0  0  0  0  0
   -1.5494   -6.2843    0.5403 H   0  0  0  0  0  0  0  0  0  0  0  0
   -1.1705   -7.8361    2.7595 H   0  0  0  0  0  0  0  0  0  0  0  0
   -2.2012   -6.3283    4.8325 H   0  0  0  0  0  0  0  0  0  0  0  0
    2.8245    0.8532    0.6786 H   0  0  0  0  0  0  0  0  0  0  0  0
    4.9845    0.7769   -0.4220 H   0  0  0  0  0  0  0  0  0  0  0  0
  1  2  1  0
  2  3  1  0
  3  4  2  0
  4  5  1  0
  5  6  2  0
  6  7  1  0
  7  8  1  0
  8  9  2  0
  8 10  1  0
 10 11  2  0
 11 12  1  0
 12 13  2  0
 13 14  1  0
 14 15  2  0
 15 16  1  0
 16 17  1  0
 17 18  1  0
 18 19  2  0
 18 20  1  0
 20 21  1  0
 21 22  1  0
 22 23  2  0
 23 24  1  0
 24 25  2  0
 25 26  1  0
 16 27  1  0
 27 28  2  0
  6 29  1  0
 29 30  2  0
 30  3  1  0
 27  7  1  0
 15 10  1  0
 26 22  1  0
  1 31  1  0
  1 32  1  0
  1 33  1  0
  2 34  1  0
  2 35  1  0
  4 36  1  0
  5 37  1  0
 11 38  1  0
 12 39  1  0
 13 40  1  0
 14 41  1  0
 17 42  1  0
 17 43  1  0
 20 44  1  0
 21 45  1  0
 21 46  1  0
 23 47  1  0
 24 48  1  0
 25 49  1  0
 29 50  1  0
 30 51  1  0
M  END
$$$$
