
     RDKit          3D

 43 45  0  0  0  0  0  0  0  0999 V2000
   -5.7147    0.0333   -2.0186 C   0  0  0  0  0  0  0  0  0  0  0  0
   -4.9072   -0.9387   -1.2848 N   0  0  0  0  0  0  0  0  0  0  0  0
   -5.5245   -2.2470   -1.0765 C   0  0  0  0  0  0  0  0  0  0  0  0
   -3.9600   -0.4824   -0.3606 C   0  0  0  0  0  0  0  0  0  0  0  0
   -3.2999   -1.3548    0.5231 C   0  0  0  0  0  0  0  0  0  0  0  0
   -2.3378   -0.9084    1.4422 C   0  0  0  0  0  0  0  0  0  0  0  0
   -1.9867    0.4379    1.4990 C   0  0  0  0  0  0  0  0  0  0  0  0
   -1.0097    0.8894    2.4912 C   0  0  0  0  0  0  0  0  0  0  0  0
    0.2102    1.3883    2.2454 C   0  0  0  0  0  0  0  0  0  0  0  0
    1.2788    1.8706    3.5292 S   0  0  0  0  0  0  0  0  0  0  0  0
    2.5816    2.3230    2.4298 C   0  0  0  0  0  0  0  0  0  0  0  0
    4.0262    2.9759    2.9503 S   0  0  0  0  0  0  0  0  0  0  0  0
    2.1614    2.0642    1.1432 N   0  0  0  0  0  0  0  0  0  0  0  0
    2.9876    2.2968    0.0141 N   0  0  0  0  0  0  0  0  0  0  0  0
    3.7105    1.1246   -0.3668 C   0  0  0  0  0  0  0  0  0  0  0  0
    3.7775    0.0719    0.4904 N   0  0  0  0  0  0  0  0  0  0  0  0
    4.5075   -1.0086    0.1250 C   0  0  0  0  0  0  0  0  0  0  0  0
    5.1926   -1.1131   -1.0752 C   0  0  0  0  0  0  0  0  0  0  0  0
    5.9929   -2.3406   -1.3817 C   0  0  0  0  0  0  0  0  0  0  0  0
    7.2519   -2.2765   -0.8719 F   0  0  0  0  0  0  0  0  0  0  0  0
    5.4392   -3.4761   -0.8753 F   0  0  0  0  0  0  0  0  0  0  0  0
    6.1388   -2.5608   -2.7171 F   0  0  0  0  0  0  0  0  0  0  0  0
    5.1327   -0.0230   -1.9474 C   0  0  0  0  0  0  0  0  0  0  0  0
    4.3901    1.1038   -1.5943 C   0  0  0  0  0  0  0  0  0  0  0  0
    4.3216    2.4297   -2.6974 Cl  0  0  0  0  0  0  0  0  0  0  0  0
    0.8723    1.6039    0.9249 C   0  0  0  0  0  0  0  0  0  0  0  0
    0.3624    1.4523   -0.1769 O   0  0  0  0  0  0  0  0  0  0  0  0
   -2.6167    1.3272    0.6332 C   0  0  0  0  0  0  0  0  0  0  0  0
   -3.5758    0.8682   -0.2833 C   0  0  0  0  0  0  0  0  0  0  0  0
   -6.3917   -0.4640   -2.7224 H   0  0  0  0  0  0  0  0  0  0  0  0
   -6.3281    0.6311   -1.3356 H   0  0  0  0  0  0  0  0  0  0  0  0
   -5.0864    0.6945   -2.6251 H   0  0  0  0  0  0  0  0  0  0  0  0
   -6.0309   -2.2939   -0.1060 H   0  0  0  0  0  0  0  0  0  0  0  0
   -4.7832   -3.0503   -1.1446 H   0  0  0  0  0  0  0  0  0  0  0  0
   -6.2722   -2.4628   -1.8482 H   0  0  0  0  0  0  0  0  0  0  0  0
   -3.5115   -2.4195    0.5172 H   0  0  0  0  0  0  0  0  0  0  0  0
   -1.8663   -1.6328    2.1020 H   0  0  0  0  0  0  0  0  0  0  0  0
   -1.3465    0.7666    3.5194 H   0  0  0  0  0  0  0  0  0  0  0  0
    2.4095    2.5674   -0.7879 H   0  0  0  0  0  0  0  0  0  0  0  0
    4.5220   -1.8133    0.8587 H   0  0  0  0  0  0  0  0  0  0  0  0
    5.6631   -0.0519   -2.8975 H   0  0  0  0  0  0  0  0  0  0  0  0
   -2.3677    2.3852    0.6456 H   0  0  0  0  0  0  0  0  0  0  0  0
   -4.0130    1.6127   -0.9413 H   0  0  0  0  0  0  0  0  0  0  0  0
  1  2  1  0
  2  3  1  0
  2  4  1  0
  4  5  2  0
  5  6  1  0
  6  7  2  0
  7  8  1  0
  8  9  2  3
  9 10  1  0
 10 11  1  0
 11 12  2  0
 11 13  1  0
 13 14  1  0
 14 15  1  0
 15 16  2  0
 16 17  1  0
 17 18  2  0
 18 19  1  0
 19 20  1  0
 19 21  1  0
 19 22  1  0
 18 23  1  0
 23 24  2  0
 24 25  1  0
 13 26  1  0
 26 27  2  0
  7 28  1  0
 28 29  2  0
 29  4  1  0
 26  9  1  0
 24 15  1  0
  1 30  1  0
  1 31  1  0
  1 32  1  0
  3 33  1  0
  3 34  1  0
  3 35  1  0
  5 36  1  0
  6 37  1  0
  8 38  1  0
 14 39  1  0
 17 40  1  0
 23 41  1  0
 28 42  1  0
 29 43  1  0
M  END
$$$$
