
     RDKit          3D

 39 41  0  0  0  0  0  0  0  0999 V2000
    1.7511   -2.6422   -1.2752 O   0  0  0  0  0  0  0  0  0  0  0  0
    1.5586   -1.5337   -0.7868 C   0  0  0  0  0  0  0  0  0  0  0  0
    2.6835   -0.6437   -0.3867 C   0  0  0  0  0  0  0  0  0  0  0  0
    3.9378   -0.9687   -0.7362 C   0  0  0  0  0  0  0  0  0  0  0  0
    5.1214   -0.1830   -0.3657 C   0  0  0  0  0  0  0  0  0  0  0  0
    5.1231    1.2188   -0.3724 C   0  0  0  0  0  0  0  0  0  0  0  0
    6.2799    1.9300   -0.0386 C   0  0  0  0  0  0  0  0  0  0  0  0
    7.4439    1.2409    0.2936 C   0  0  0  0  0  0  0  0  0  0  0  0
    9.0076    2.2020    0.7444 Br  0  0  0  0  0  0  0  0  0  0  0  0
    7.4640   -0.1513    0.2895 C   0  0  0  0  0  0  0  0  0  0  0  0
    6.3063   -0.8597   -0.0455 C   0  0  0  0  0  0  0  0  0  0  0  0
    0.1709   -1.0570   -0.5422 C   0  0  0  0  0  0  0  0  0  0  0  0
   -0.1767    0.2969   -0.5722 C   0  0  0  0  0  0  0  0  0  0  0  0
   -1.5025    0.6846   -0.3422 C   0  0  0  0  0  0  0  0  0  0  0  0
   -2.4976   -0.2684   -0.0875 C   0  0  0  0  0  0  0  0  0  0  0  0
   -3.8007    0.2111    0.1345 N   0  0  0  0  0  0  0  0  0  0  0  0
   -4.9487   -0.5106    0.4128 C   0  0  0  0  0  0  0  0  0  0  0  0
   -5.0156   -1.7304    0.5199 O   0  0  0  0  0  0  0  0  0  0  0  0
   -6.1139    0.3418    0.5763 C   0  0  0  0  0  0  0  0  0  0  0  0
   -7.4329    0.0370    0.8551 C   0  0  0  0  0  0  0  0  0  0  0  0
   -8.1354    1.2647    0.9008 C   0  0  0  0  0  0  0  0  0  0  0  0
   -7.2072    2.2464    0.6481 C   0  0  0  0  0  0  0  0  0  0  0  0
   -5.9783    1.7027    0.4499 O   0  0  0  0  0  0  0  0  0  0  0  0
   -2.1484   -1.6191   -0.0759 C   0  0  0  0  0  0  0  0  0  0  0  0
   -0.8242   -2.0117   -0.3077 C   0  0  0  0  0  0  0  0  0  0  0  0
    2.4648    0.2285    0.2148 H   0  0  0  0  0  0  0  0  0  0  0  0
    4.1297   -1.8776   -1.3055 H   0  0  0  0  0  0  0  0  0  0  0  0
    4.2314    1.7748   -0.6502 H   0  0  0  0  0  0  0  0  0  0  0  0
    6.2628    3.0166   -0.0479 H   0  0  0  0  0  0  0  0  0  0  0  0
    8.3703   -0.6953    0.5420 H   0  0  0  0  0  0  0  0  0  0  0  0
    6.3362   -1.9478   -0.0460 H   0  0  0  0  0  0  0  0  0  0  0  0
    0.5573    1.0654   -0.7963 H   0  0  0  0  0  0  0  0  0  0  0  0
   -1.7465    1.7442   -0.3730 H   0  0  0  0  0  0  0  0  0  0  0  0
   -3.9405    1.2152    0.0909 H   0  0  0  0  0  0  0  0  0  0  0  0
   -7.8267   -0.9596    1.0049 H   0  0  0  0  0  0  0  0  0  0  0  0
   -9.1885    1.4153    1.0940 H   0  0  0  0  0  0  0  0  0  0  0  0
   -7.2598    3.3244    0.5786 H   0  0  0  0  0  0  0  0  0  0  0  0
   -2.8808   -2.4002    0.1050 H   0  0  0  0  0  0  0  0  0  0  0  0
   -0.5758   -3.0721   -0.3019 H   0  0  0  0  0  0  0  0  0  0  0  0
  1  2  2  0
  2  3  1  0
  3  4  2  3
  4  5  1  0
  5  6  2  0
  6  7  1  0
  7  8  2  0
  8  9  1  0
  8 10  1  0
 10 11  2  0
  2 12  1  0
 12 13  2  0
 13 14  1  0
 14 15  2  0
 15 16  1  0
 16 17  1  0
 17 18  2  0
 17 19  1  0
 19 20  2  0
 20 21  1  0
 21 22  2  0
 22 23  1  0
 15 24  1  0
 24 25  2  0
 11  5  1  0
 25 12  1  0
 23 19  1  0
  3 26  1  0
  4 27  1  0
  6 28  1  0
  7 29  1  0
 10 30  1  0
 11 31  1  0
 13 32  1  0
 14 33  1  0
 16 34  1  0
 20 35  1  0
 21 36  1  0
 22 37  1  0
 24 38  1  0
 25 39  1  0
M  END
$$$$
