
     RDKit          3D

 50 52  0  0  0  0  0  0  0  0999 V2000
    1.8454   -0.7830   -2.5511 C   0  0  0  0  0  0  0  0  0  0  0  0
    2.1717   -1.3501   -1.1793 C   0  0  0  0  0  0  0  0  0  0  0  0
    2.5901   -0.3100   -0.2273 N   0  0  0  0  0  4  0  0  0  0  0  0
    1.7855    0.1895    0.7030 C   0  0  0  0  0  0  0  0  0  0  0  0
    0.4270   -0.1307    0.9417 C   0  0  0  0  0  0  0  0  0  0  0  0
   -0.5363    0.2603    0.0935 C   0  0  0  0  0  0  0  0  0  0  0  0
   -1.9360   -0.0497    0.3011 C   0  0  0  0  0  0  0  0  0  0  0  0
   -2.8821    0.2830   -0.5924 C   0  0  0  0  0  0  0  0  0  0  0  0
   -4.2520    0.0010   -0.5145 N   0  0  0  0  0  0  0  0  0  0  0  0
   -5.0078    0.1957   -1.6929 C   0  0  0  0  0  0  0  0  0  0  0  0
   -6.5169    0.2370   -1.5793 C   0  0  0  0  0  0  0  0  0  0  0  0
   -4.4850    0.3713   -2.8000 O   0  0  0  0  0  0  0  0  0  0  0  0
   -4.8678   -0.4850    0.6831 C   0  0  0  0  0  0  0  0  0  0  0  0
   -4.7017    0.2023    1.8944 C   0  0  0  0  0  0  0  0  0  0  0  0
   -5.2988   -0.2706    3.0647 C   0  0  0  0  0  0  0  0  0  0  0  0
   -6.0596   -1.4376    3.0364 C   0  0  0  0  0  0  0  0  0  0  0  0
   -6.2243   -2.1333    1.8401 C   0  0  0  0  0  0  0  0  0  0  0  0
   -5.6309   -1.6603    0.6676 C   0  0  0  0  0  0  0  0  0  0  0  0
    2.6157    1.3100    1.7007 S   0  0  0  0  0  0  0  0  0  0  0  0
    4.0774    1.1198    0.8166 C   0  0  0  0  0  0  0  0  0  0  0  0
    5.3144    1.7499    1.0194 C   0  0  0  0  0  0  0  0  0  0  0  0
    6.3835    1.4282    0.1758 C   0  0  0  0  0  0  0  0  0  0  0  0
    7.5384    2.0992    0.4624 O   0  0  0  0  0  0  0  0  0  0  0  0
    8.6748    1.8373   -0.3542 C   0  0  0  0  0  0  0  0  0  0  0  0
    6.2124    0.4953   -0.8428 C   0  0  0  0  0  0  0  0  0  0  0  0
    4.9724   -0.1339   -1.0428 C   0  0  0  0  0  0  0  0  0  0  0  0
    3.8892    0.1894   -0.2006 C   0  0  0  0  0  0  0  0  0  0  0  0
    1.5294   -1.5838   -3.2266 H   0  0  0  0  0  0  0  0  0  0  0  0
    1.0409   -0.0453   -2.4961 H   0  0  0  0  0  0  0  0  0  0  0  0
    2.7137   -0.2877   -2.9953 H   0  0  0  0  0  0  0  0  0  0  0  0
    2.9729   -2.0942   -1.2610 H   0  0  0  0  0  0  0  0  0  0  0  0
    1.3071   -1.8976   -0.7888 H   0  0  0  0  0  0  0  0  0  0  0  0
    0.1815   -0.6669    1.8567 H   0  0  0  0  0  0  0  0  0  0  0  0
   -0.3009    0.8456   -0.7948 H   0  0  0  0  0  0  0  0  0  0  0  0
   -2.1962   -0.5993    1.2026 H   0  0  0  0  0  0  0  0  0  0  0  0
   -2.5864    0.7841   -1.5147 H   0  0  0  0  0  0  0  0  0  0  0  0
   -6.9313   -0.7650   -1.7095 H   0  0  0  0  0  0  0  0  0  0  0  0
   -6.9083    0.8780   -2.3764 H   0  0  0  0  0  0  0  0  0  0  0  0
   -6.8443    0.6736   -0.6330 H   0  0  0  0  0  0  0  0  0  0  0  0
   -4.1358    1.1301    1.9303 H   0  0  0  0  0  0  0  0  0  0  0  0
   -5.1811    0.2770    3.9968 H   0  0  0  0  0  0  0  0  0  0  0  0
   -6.5289   -1.8039    3.9469 H   0  0  0  0  0  0  0  0  0  0  0  0
   -6.8147   -3.0467    1.8211 H   0  0  0  0  0  0  0  0  0  0  0  0
   -5.7491   -2.2367   -0.2467 H   0  0  0  0  0  0  0  0  0  0  0  0
    5.4502    2.4766    1.8183 H   0  0  0  0  0  0  0  0  0  0  0  0
    9.4990    2.4576    0.0104 H   0  0  0  0  0  0  0  0  0  0  0  0
    8.4824    2.1143   -1.3959 H   0  0  0  0  0  0  0  0  0  0  0  0
    8.9829    0.7897   -0.2740 H   0  0  0  0  0  0  0  0  0  0  0  0
    7.0314    0.2302   -1.5078 H   0  0  0  0  0  0  0  0  0  0  0  0
    4.8867   -0.8546   -1.8514 H   0  0  0  0  0  0  0  0  0  0  0  0
  1  2  1  0
  2  3  1  0
  3  4  2  0
  4  5  1  0
  5  6  2  3
  6  7  1  0
  7  8  2  3
  8  9  1  0
  9 10  1  0
 10 11  1  0
 10 12  2  0
  9 13  1  0
 13 14  2  0
 14 15  1  0
 15 16  2  0
 16 17  1  0
 17 18  2  0
  4 19  1  0
 19 20  1  0
 20 21  2  0
 21 22  1  0
 22 23  1  0
 23 24  1  0
 22 25  2  0
 25 26  1  0
 26 27  2  0
 27  3  1  0
 18 13  1  0
 27 20  1  0
  1 28  1  0
  1 29  1  0
  1 30  1  0
  2 31  1  0
  2 32  1  0
  5 33  1  0
  6 34  1  0
  7 35  1  0
  8 36  1  0
 11 37  1  0
 11 38  1  0
 11 39  1  0
 14 40  1  0
 15 41  1  0
 16 42  1  0
 17 43  1  0
 18 44  1  0
 21 45  1  0
 24 46  1  0
 24 47  1  0
 24 48  1  0
 25 49  1  0
 26 50  1  0
M  CHG  1   3   1
M  END
$$$$
