
     RDKit          3D

 60 65  0  0  0  0  0  0  0  0999 V2000
    4.9230   -3.5803   -0.5636 C   0  0  0  0  0  0  0  0  0  0  0  0
    4.6996   -2.8105   -1.8087 C   0  0  0  0  0  0  0  0  0  0  0  0
    4.9474   -3.3610   -3.0035 N   0  0  0  0  0  0  0  0  0  0  0  0
    4.6675   -2.3781   -3.9349 O   0  0  0  0  0  0  0  0  0  0  0  0
    4.2453   -1.2538   -3.2976 C   0  0  0  0  0  0  0  0  0  0  0  0
    3.9453   -0.0957   -4.1600 C   0  0  0  0  0  0  0  0  0  0  0  0
    4.2069   -1.4884   -1.9410 C   0  0  0  0  0  0  0  0  0  0  0  0
    3.8233   -0.5673   -0.8974 C   0  0  0  0  0  0  0  0  0  0  0  0
    4.6689   -0.1191   -0.1280 O   0  0  0  0  0  0  0  0  0  0  0  0
    2.4648   -0.2474   -0.7933 N   0  0  0  0  0  0  0  0  0  0  0  0
    2.0344    0.6344    0.2835 C   0  0  0  0  0  0  0  0  0  0  0  0
    0.9762   -0.0430    1.1494 C   0  0  0  0  0  0  0  0  0  0  0  0
   -0.2576   -0.5223    0.3305 C   0  0  0  0  0  0  0  0  0  0  0  0
    0.0176   -0.4311   -1.1955 C   0  0  0  0  0  0  0  0  0  0  0  0
    1.4147   -0.9421   -1.5407 C   0  0  0  0  0  0  0  0  0  0  0  0
   -0.3981   -1.9557    0.5429 O   0  0  0  0  0  0  0  0  0  0  0  0
   -1.0611   -2.3783    1.6560 C   0  0  0  0  0  0  0  0  0  0  0  0
   -0.9508   -3.7381    1.9548 C   0  0  0  0  0  0  0  0  0  0  0  0
   -1.5782   -4.2582    3.0884 C   0  0  0  0  0  0  0  0  0  0  0  0
   -2.3148   -3.4150    3.9139 C   0  0  0  0  0  0  0  0  0  0  0  0
   -2.9111   -3.9163    5.0026 F   0  0  0  0  0  0  0  0  0  0  0  0
   -2.4429   -2.0633    3.6239 C   0  0  0  0  0  0  0  0  0  0  0  0
   -1.8189   -1.5543    2.4815 C   0  0  0  0  0  0  0  0  0  0  0  0
   -1.9537   -0.1357    2.1287 C   0  0  0  0  0  0  0  0  0  0  0  0
   -2.3552    0.6653    2.9692 O   0  0  0  0  0  0  0  0  0  0  0  0
   -1.5596    0.2422    0.7046 C   0  0  0  0  0  0  0  0  0  0  0  0
   -1.4898    1.7557    0.5446 C   0  0  0  0  0  0  0  0  0  0  0  0
   -2.8508    1.9919   -0.0161 C   0  0  0  0  0  0  0  0  0  0  0  0
   -3.4358    3.3496   -0.1238 C   0  0  0  0  0  0  0  0  0  0  0  0
   -2.7144    4.4913    0.2430 C   0  0  0  0  0  0  0  0  0  0  0  0
   -3.2983    5.7569    0.1225 C   0  0  0  0  0  0  0  0  0  0  0  0
   -4.5983    5.8825   -0.3645 C   0  0  0  0  0  0  0  0  0  0  0  0
   -5.3082    7.4416   -0.5131 Cl  0  0  0  0  0  0  0  0  0  0  0  0
   -5.3234    4.7524   -0.7322 C   0  0  0  0  0  0  0  0  0  0  0  0
   -4.7425    3.4871   -0.6122 C   0  0  0  0  0  0  0  0  0  0  0  0
   -3.4591    0.9273   -0.4315 N   0  0  0  0  0  0  0  0  0  0  0  0
   -2.6267   -0.1788   -0.1609 O   0  0  0  0  0  0  0  0  0  0  0  0
    3.9820   -3.7059   -0.0194 H   0  0  0  0  0  0  0  0  0  0  0  0
    5.3287   -4.5753   -0.7716 H   0  0  0  0  0  0  0  0  0  0  0  0
    5.6306   -3.0575    0.0886 H   0  0  0  0  0  0  0  0  0  0  0  0
    4.7817    0.1088   -4.8351 H   0  0  0  0  0  0  0  0  0  0  0  0
    3.7646    0.8038   -3.5645 H   0  0  0  0  0  0  0  0  0  0  0  0
    3.0541   -0.2907   -4.7643 H   0  0  0  0  0  0  0  0  0  0  0  0
    1.6368    1.5460   -0.1764 H   0  0  0  0  0  0  0  0  0  0  0  0
    2.8776    0.9420    0.9101 H   0  0  0  0  0  0  0  0  0  0  0  0
    0.6797    0.6560    1.9396 H   0  0  0  0  0  0  0  0  0  0  0  0
    1.4439   -0.8960    1.6589 H   0  0  0  0  0  0  0  0  0  0  0  0
   -0.7119   -1.0326   -1.7526 H   0  0  0  0  0  0  0  0  0  0  0  0
   -0.0749    0.5975   -1.5592 H   0  0  0  0  0  0  0  0  0  0  0  0
    1.5910   -0.8028   -2.6109 H   0  0  0  0  0  0  0  0  0  0  0  0
    1.4989   -2.0143   -1.3274 H   0  0  0  0  0  0  0  0  0  0  0  0
   -0.3717   -4.3932    1.3083 H   0  0  0  0  0  0  0  0  0  0  0  0
   -1.4973   -5.3131    3.3328 H   0  0  0  0  0  0  0  0  0  0  0  0
   -3.0310   -1.4255    4.2774 H   0  0  0  0  0  0  0  0  0  0  0  0
   -0.7577    2.0883   -0.1951 H   0  0  0  0  0  0  0  0  0  0  0  0
   -1.3182    2.2965    1.4781 H   0  0  0  0  0  0  0  0  0  0  0  0
   -1.7002    4.4276    0.6246 H   0  0  0  0  0  0  0  0  0  0  0  0
   -2.7350    6.6403    0.4111 H   0  0  0  0  0  0  0  0  0  0  0  0
   -6.3382    4.8455   -1.1108 H   0  0  0  0  0  0  0  0  0  0  0  0
   -5.3190    2.6101   -0.9003 H   0  0  0  0  0  0  0  0  0  0  0  0
  1  2  1  0
  2  3  2  0
  3  4  1  0
  4  5  1  0
  5  6  1  0
  5  7  2  0
  7  8  1  0
  8  9  2  0
  8 10  1  0
 10 11  1  0
 11 12  1  0
 12 13  1  0
 13 14  1  0
 14 15  1  0
 13 16  1  0
 16 17  1  0
 17 18  2  0
 18 19  1  0
 19 20  2  0
 20 21  1  0
 20 22  1  0
 22 23  2  0
 23 24  1  0
 24 25  2  0
 24 26  1  0
 26 27  1  0
 27 28  1  0
 28 29  1  0
 29 30  2  0
 30 31  1  0
 31 32  2  0
 32 33  1  0
 32 34  1  0
 34 35  2  0
 28 36  2  0
 36 37  1  0
  7  2  1  0
 15 10  1  0
 23 17  1  0
 37 26  1  0
 26 13  1  0
 35 29  1  0
  1 38  1  0
  1 39  1  0
  1 40  1  0
  6 41  1  0
  6 42  1  0
  6 43  1  0
 11 44  1  0
 11 45  1  0
 12 46  1  0
 12 47  1  0
 14 48  1  0
 14 49  1  0
 15 50  1  0
 15 51  1  0
 18 52  1  0
 19 53  1  0
 22 54  1  0
 27 55  1  0
 27 56  1  0
 30 57  1  0
 31 58  1  0
 34 59  1  0
 35 60  1  0
M  END
$$$$
