
     RDKit          3D

 48 50  0  0  0  0  0  0  0  0999 V2000
    4.4091   -3.5539    2.2614 C   0  0  0  0  0  0  0  0  0  0  0  0
    4.1331   -3.5309    0.8590 O   0  0  0  0  0  0  0  0  0  0  0  0
    2.8499   -3.1001    0.6459 C   0  0  0  0  0  0  0  0  0  0  0  0
    1.8219   -4.0423    0.6872 C   0  0  0  0  0  0  0  0  0  0  0  0
    0.5026   -3.6485    0.4607 C   0  0  0  0  0  0  0  0  0  0  0  0
    0.2220   -2.3124    0.1750 C   0  0  0  0  0  0  0  0  0  0  0  0
   -1.1799   -1.9058   -0.0452 C   0  0  0  0  0  0  0  0  0  0  0  0
   -1.4949   -0.6901   -0.3547 N   0  0  0  0  0  0  0  0  0  0  0  0
   -2.8244   -0.4560   -0.5175 N   0  0  0  0  0  0  0  0  0  0  0  0
   -3.2918    0.8160   -0.8207 C   0  0  0  0  0  0  0  0  0  0  0  0
   -2.5837    1.8050   -0.9551 O   0  0  0  0  0  0  0  0  0  0  0  0
   -4.7936    0.8606   -0.9472 C   0  0  0  0  0  0  0  0  0  0  0  0
   -5.3976   -0.3145   -0.5779 N   0  0  0  0  0  0  0  0  0  0  0  0
   -6.7456   -0.3644   -0.6543 C   0  0  0  0  0  0  0  0  0  0  0  0
   -7.3666   -1.8986   -0.1751 Cl  0  0  0  0  0  0  0  0  0  0  0  0
   -7.5471    0.6894   -1.0747 C   0  0  0  0  0  0  0  0  0  0  0  0
   -9.2729    0.5494   -1.1554 Cl  0  0  0  0  0  0  0  0  0  0  0  0
   -6.9213    1.9027   -1.4252 C   0  0  0  0  0  0  0  0  0  0  0  0
   -7.6792    2.9506   -2.0061 N   0  0  0  0  0  0  0  0  0  0  0  0
   -5.5066    1.9775   -1.3917 C   0  0  0  0  0  0  0  0  0  0  0  0
   -4.7576    3.4590   -1.9003 Cl  0  0  0  0  0  0  0  0  0  0  0  0
    1.2589   -1.3720    0.0964 C   0  0  0  0  0  0  0  0  0  0  0  0
    2.5911   -1.7571    0.3297 C   0  0  0  0  0  0  0  0  0  0  0  0
    3.6888   -0.7295    0.2057 C   0  0  0  0  0  0  0  0  0  0  0  0
    3.3784    0.3513    1.0946 O   0  0  0  0  0  0  0  0  0  0  0  0
    3.9037    1.5528    0.7195 C   0  0  0  0  0  0  0  0  0  0  0  0
    3.0477    2.6514    0.8141 C   0  0  0  0  0  0  0  0  0  0  0  0
    3.5100    3.9231    0.4624 C   0  0  0  0  0  0  0  0  0  0  0  0
    4.8267    4.0870    0.0430 C   0  0  0  0  0  0  0  0  0  0  0  0
    5.2661    5.3126   -0.2727 F   0  0  0  0  0  0  0  0  0  0  0  0
    5.6947    3.0072   -0.0372 C   0  0  0  0  0  0  0  0  0  0  0  0
    5.2294    1.7439    0.3052 C   0  0  0  0  0  0  0  0  0  0  0  0
    6.0877    0.7148    0.2516 F   0  0  0  0  0  0  0  0  0  0  0  0
    3.7663   -4.2753    2.7804 H   0  0  0  0  0  0  0  0  0  0  0  0
    5.4489   -3.8682    2.3936 H   0  0  0  0  0  0  0  0  0  0  0  0
    4.2961   -2.5595    2.7032 H   0  0  0  0  0  0  0  0  0  0  0  0
    2.0517   -5.0859    0.8898 H   0  0  0  0  0  0  0  0  0  0  0  0
   -0.2899   -4.3941    0.4999 H   0  0  0  0  0  0  0  0  0  0  0  0
   -1.9478   -2.6904    0.0732 H   0  0  0  0  0  0  0  0  0  0  0  0
   -3.5058   -1.2012   -0.3833 H   0  0  0  0  0  0  0  0  0  0  0  0
   -7.2265    3.8664   -1.9633 H   0  0  0  0  0  0  0  0  0  0  0  0
   -8.6626    2.9653   -1.7324 H   0  0  0  0  0  0  0  0  0  0  0  0
    1.0301   -0.3359   -0.1458 H   0  0  0  0  0  0  0  0  0  0  0  0
    3.7310   -0.3952   -0.8448 H   0  0  0  0  0  0  0  0  0  0  0  0
    4.6577   -1.1518    0.4805 H   0  0  0  0  0  0  0  0  0  0  0  0
    2.0196    2.5149    1.1433 H   0  0  0  0  0  0  0  0  0  0  0  0
    2.8495    4.7835    0.5183 H   0  0  0  0  0  0  0  0  0  0  0  0
    6.7224    3.1491   -0.3536 H   0  0  0  0  0  0  0  0  0  0  0  0
  1  2  1  0
  2  3  1  0
  3  4  2  0
  4  5  1  0
  5  6  2  0
  6  7  1  0
  7  8  2  3
  8  9  1  0
  9 10  1  0
 10 11  2  0
 10 12  1  0
 12 13  2  0
 13 14  1  0
 14 15  1  0
 14 16  2  0
 16 17  1  0
 16 18  1  0
 18 19  1  0
 18 20  2  0
 20 21  1  0
  6 22  1  0
 22 23  2  0
 23 24  1  0
 24 25  1  0
 25 26  1  0
 26 27  2  0
 27 28  1  0
 28 29  2  0
 29 30  1  0
 29 31  1  0
 31 32  2  0
 32 33  1  0
 23  3  1  0
 32 26  1  0
 20 12  1  0
  1 34  1  0
  1 35  1  0
  1 36  1  0
  4 37  1  0
  5 38  1  0
  7 39  1  0
  9 40  1  0
 19 41  1  0
 19 42  1  0
 22 43  1  0
 24 44  1  0
 24 45  1  0
 27 46  1  0
 28 47  1  0
 31 48  1  0
M  END
$$$$
