
     RDKit          3D

 37 38  0  0  0  0  0  0  0  0999 V2000
   -5.1136    1.4366   -2.1329 C   0  0  0  0  0  0  0  0  0  0  0  0
   -4.5745    1.2816   -0.8278 O   0  0  0  0  0  0  0  0  0  0  0  0
   -3.4019    0.5790   -0.7016 C   0  0  0  0  0  0  0  0  0  0  0  0
   -2.7056    0.0059   -1.7708 C   0  0  0  0  0  0  0  0  0  0  0  0
   -1.5159   -0.6894   -1.5439 C   0  0  0  0  0  0  0  0  0  0  0  0
   -1.0061   -0.8067   -0.2484 C   0  0  0  0  0  0  0  0  0  0  0  0
    0.2703   -1.5460   -0.0574 C   0  0  0  0  0  0  0  0  0  0  0  0
    0.5733   -2.4559   -0.8199 O   0  0  0  0  0  0  0  0  0  0  0  0
    1.0734   -1.1146    0.9773 N   0  0  0  0  0  0  0  0  0  0  0  0
    2.3974   -1.6605    1.1743 C   0  0  0  0  0  0  0  0  0  0  0  0
    3.4404   -0.7805    0.5321 C   0  0  0  0  0  0  0  0  0  0  0  0
    4.1426    0.1685    1.2863 C   0  0  0  0  0  0  0  0  0  0  0  0
    5.0894    0.9956    0.6763 C   0  0  0  0  0  0  0  0  0  0  0  0
    5.3403    0.8895   -0.6950 C   0  0  0  0  0  0  0  0  0  0  0  0
    6.5229    1.9476   -1.3787 Cl  0  0  0  0  0  0  0  0  0  0  0  0
    4.6392   -0.0484   -1.4592 C   0  0  0  0  0  0  0  0  0  0  0  0
    4.8895   -0.2312   -3.1589 Cl  0  0  0  0  0  0  0  0  0  0  0  0
    3.6934   -0.8767   -0.8459 C   0  0  0  0  0  0  0  0  0  0  0  0
   -1.7060   -0.2534    0.8315 C   0  0  0  0  0  0  0  0  0  0  0  0
   -2.9025    0.4395    0.6112 C   0  0  0  0  0  0  0  0  0  0  0  0
   -3.6523    1.0217    1.6040 O   0  0  0  0  0  0  0  0  0  0  0  0
   -3.2866    0.7623    2.9514 C   0  0  0  0  0  0  0  0  0  0  0  0
   -6.0372    2.0171   -2.0464 H   0  0  0  0  0  0  0  0  0  0  0  0
   -4.4293    1.9960   -2.7793 H   0  0  0  0  0  0  0  0  0  0  0  0
   -5.3707    0.4670   -2.5719 H   0  0  0  0  0  0  0  0  0  0  0  0
   -3.0612    0.0795   -2.7932 H   0  0  0  0  0  0  0  0  0  0  0  0
   -0.9841   -1.1346   -2.3831 H   0  0  0  0  0  0  0  0  0  0  0  0
    0.8774   -0.2199    1.4036 H   0  0  0  0  0  0  0  0  0  0  0  0
    2.5645   -1.7226    2.2553 H   0  0  0  0  0  0  0  0  0  0  0  0
    2.4627   -2.6798    0.7772 H   0  0  0  0  0  0  0  0  0  0  0  0
    3.9604    0.2703    2.3544 H   0  0  0  0  0  0  0  0  0  0  0  0
    5.6292    1.7243    1.2768 H   0  0  0  0  0  0  0  0  0  0  0  0
    3.1412   -1.6023   -1.4433 H   0  0  0  0  0  0  0  0  0  0  0  0
   -1.3203   -0.3896    1.8346 H   0  0  0  0  0  0  0  0  0  0  0  0
   -2.3139    1.2065    3.1862 H   0  0  0  0  0  0  0  0  0  0  0  0
   -4.0322    1.2353    3.5977 H   0  0  0  0  0  0  0  0  0  0  0  0
   -3.2937   -0.3115    3.1657 H   0  0  0  0  0  0  0  0  0  0  0  0
  1  2  1  0
  2  3  1  0
  3  4  2  0
  4  5  1  0
  5  6  2  0
  6  7  1  0
  7  8  2  0
  7  9  1  0
  9 10  1  0
 10 11  1  0
 11 12  2  0
 12 13  1  0
 13 14  2  0
 14 15  1  0
 14 16  1  0
 16 17  1  0
 16 18  2  0
  6 19  1  0
 19 20  2  0
 20 21  1  0
 21 22  1  0
 20  3  1  0
 18 11  1  0
  1 23  1  0
  1 24  1  0
  1 25  1  0
  4 26  1  0
  5 27  1  0
  9 28  1  0
 10 29  1  0
 10 30  1  0
 12 31  1  0
 13 32  1  0
 18 33  1  0
 19 34  1  0
 22 35  1  0
 22 36  1  0
 22 37  1  0
M  END
$$$$
