
     RDKit          3D

 67 72  0  0  0  0  0  0  0  0999 V2000
   -4.9710   -3.6739   -2.2995 C   0  0  0  0  0  0  0  0  0  0  0  0
   -4.0714   -3.0947   -1.2485 C   0  0  0  0  0  0  0  0  0  0  0  0
   -4.1369   -3.5162    0.0933 C   0  0  0  0  0  0  0  0  0  0  0  0
   -5.2456   -4.7467    0.5962 Cl  0  0  0  0  0  0  0  0  0  0  0  0
   -3.3136   -2.9483    1.0857 C   0  0  0  0  0  0  0  0  0  0  0  0
   -2.4014   -1.9397    0.7689 C   0  0  0  0  0  0  0  0  0  0  0  0
   -2.3220   -1.5163   -0.5508 C   0  0  0  0  0  0  0  0  0  0  0  0
   -3.1600   -2.0815   -1.5270 C   0  0  0  0  0  0  0  0  0  0  0  0
   -2.9468   -1.4540   -2.7525 N   0  0  0  0  0  0  0  0  0  0  0  0
   -1.9952   -0.4380   -2.6594 C   0  0  0  0  0  0  0  0  0  0  0  0
   -1.6607    0.2826   -3.5908 O   0  0  0  0  0  0  0  0  0  0  0  0
   -1.4711   -0.4454   -1.1925 C   0  0  1  0  0  0  0  0  0  0  0  0
   -1.7035    0.8310   -0.4857 C   0  0  0  0  0  0  0  0  0  0  0  0
   -0.5014    1.4388   -0.1279 C   0  0  0  0  0  0  0  0  0  0  0  0
   -0.7767    2.6093    0.5312 C   0  0  0  0  0  0  0  0  0  0  0  0
    0.0452    3.5359    1.0169 O   0  0  0  0  0  0  0  0  0  0  0  0
   -2.1779    2.7538    0.5521 N   0  0  0  0  0  0  0  0  0  0  0  0
   -2.9047    3.8778    1.0558 C   0  0  0  0  0  0  0  0  0  0  0  0
   -4.0974    4.2827    0.4348 C   0  0  0  0  0  0  0  0  0  0  0  0
   -4.8214    5.3665    0.9390 C   0  0  0  0  0  0  0  0  0  0  0  0
   -4.3590    6.0544    2.0597 C   0  0  0  0  0  0  0  0  0  0  0  0
   -3.1653    5.6697    2.6698 C   0  0  0  0  0  0  0  0  0  0  0  0
   -2.4344    4.5899    2.1670 C   0  0  0  0  0  0  0  0  0  0  0  0
   -2.7400    1.6005   -0.0287 C   0  0  0  0  0  0  0  0  0  0  0  0
   -4.0411    1.3146   -0.0492 O   0  0  0  0  0  0  0  0  0  0  0  0
    0.6618    0.6463   -0.5840 C   0  0  1  0  0  0  0  0  0  0  0  0
    1.6803    0.3354    0.5289 C   0  0  0  0  0  0  0  0  0  0  0  0
    2.6501   -0.6728    0.1067 N   0  0  0  0  0  0  0  0  0  0  0  0
    3.9924   -0.4962    0.3636 C   0  0  0  0  0  0  0  0  0  0  0  0
    4.4453    0.4801    0.9483 O   0  0  0  0  0  0  0  0  0  0  0  0
    4.7374   -1.5252   -0.1163 O   0  0  0  0  0  0  0  0  0  0  0  0
    6.1852   -1.5071   -0.0191 C   0  0  0  0  0  0  0  0  0  0  0  0
    6.7731   -0.3443   -0.8283 C   0  0  0  0  0  0  0  0  0  0  0  0
    6.6337   -2.8299   -0.6612 C   0  0  0  0  0  0  0  0  0  0  0  0
    6.6580   -1.4928    1.4399 C   0  0  0  0  0  0  0  0  0  0  0  0
    2.1344   -1.7941   -0.6851 C   0  0  0  0  0  0  0  0  0  0  0  0
    0.5931   -1.8396   -0.7185 C   0  0  0  0  0  0  0  0  0  0  0  0
    0.0231   -0.5787   -1.1908 N   0  0  0  0  0  0  0  0  0  0  0  0
   -5.9999   -3.3349   -2.1415 H   0  0  0  0  0  0  0  0  0  0  0  0
   -4.9405   -4.7687   -2.2784 H   0  0  0  0  0  0  0  0  0  0  0  0
   -4.6715   -3.3787   -3.3093 H   0  0  0  0  0  0  0  0  0  0  0  0
   -3.3933   -3.2894    2.1167 H   0  0  0  0  0  0  0  0  0  0  0  0
   -1.7861   -1.4897    1.5424 H   0  0  0  0  0  0  0  0  0  0  0  0
   -3.4449   -1.6296   -3.6118 H   0  0  0  0  0  0  0  0  0  0  0  0
    0.9568    3.3006    0.7721 H   0  0  0  0  0  0  0  0  0  0  0  0
   -4.4562    3.8028   -0.4733 H   0  0  0  0  0  0  0  0  0  0  0  0
   -5.7395    5.6813    0.4477 H   0  0  0  0  0  0  0  0  0  0  0  0
   -4.9219    6.8986    2.4514 H   0  0  0  0  0  0  0  0  0  0  0  0
   -2.7997    6.2115    3.5396 H   0  0  0  0  0  0  0  0  0  0  0  0
   -1.5200    4.3029    2.6808 H   0  0  0  0  0  0  0  0  0  0  0  0
   -4.4951    1.8609    0.6154 H   0  0  0  0  0  0  0  0  0  0  0  0
    1.1708    1.1765   -1.3995 H   0  0  0  0  0  0  0  0  0  0  0  0
    1.1740   -0.0675    1.4154 H   0  0  0  0  0  0  0  0  0  0  0  0
    2.1864    1.2523    0.8482 H   0  0  0  0  0  0  0  0  0  0  0  0
    6.5744    0.6229   -0.3574 H   0  0  0  0  0  0  0  0  0  0  0  0
    7.8608   -0.4388   -0.9393 H   0  0  0  0  0  0  0  0  0  0  0  0
    6.3259   -0.3056   -1.8295 H   0  0  0  0  0  0  0  0  0  0  0  0
    6.2308   -2.9289   -1.6778 H   0  0  0  0  0  0  0  0  0  0  0  0
    6.2504   -3.6863   -0.0905 H   0  0  0  0  0  0  0  0  0  0  0  0
    7.7248   -2.9092   -0.7066 H   0  0  0  0  0  0  0  0  0  0  0  0
    6.4100   -0.5565    1.9465 H   0  0  0  0  0  0  0  0  0  0  0  0
    7.7423   -1.6221    1.5111 H   0  0  0  0  0  0  0  0  0  0  0  0
    6.1735   -2.2942    2.0087 H   0  0  0  0  0  0  0  0  0  0  0  0
    2.5280   -2.7280   -0.2679 H   0  0  0  0  0  0  0  0  0  0  0  0
    2.5322   -1.6856   -1.7012 H   0  0  0  0  0  0  0  0  0  0  0  0
    0.2531   -2.0690    0.2970 H   0  0  0  0  0  0  0  0  0  0  0  0
    0.2798   -2.6612   -1.3728 H   0  0  0  0  0  0  0  0  0  0  0  0
  1  2  1  0
  2  3  2  0
  3  4  1  0
  3  5  1  0
  5  6  2  0
  6  7  1  0
  7  8  2  0
  8  9  1  0
  9 10  1  0
 10 11  2  0
 10 12  1  0
 12 13  1  0
 13 14  1  0
 14 15  2  0
 15 16  1  0
 15 17  1  0
 17 18  1  0
 18 19  2  0
 19 20  1  0
 20 21  2  0
 21 22  1  0
 22 23  2  0
 17 24  1  0
 24 25  1  0
 14 26  1  0
 26 27  1  0
 27 28  1  0
 28 29  1  0
 29 30  2  0
 29 31  1  0
 31 32  1  0
 32 33  1  0
 32 34  1  0
 32 35  1  0
 28 36  1  0
 36 37  1  0
 37 38  1  0
  8  2  1  0
 12 38  1  6
 12  7  1  0
 24 13  2  0
 38 26  1  0
 23 18  1  0
  1 39  1  0
  1 40  1  0
  1 41  1  0
  5 42  1  0
  6 43  1  0
  9 44  1  0
 16 45  1  0
 19 46  1  0
 20 47  1  0
 21 48  1  0
 22 49  1  0
 23 50  1  0
 25 51  1  0
 26 52  1  6
 27 53  1  0
 27 54  1  0
 33 55  1  0
 33 56  1  0
 33 57  1  0
 34 58  1  0
 34 59  1  0
 34 60  1  0
 35 61  1  0
 35 62  1  0
 35 63  1  0
 36 64  1  0
 36 65  1  0
 37 66  1  0
 37 67  1  0
M  END
$$$$
