
     RDKit          3D

 52 56  0  0  0  0  0  0  0  0999 V2000
    1.1800    2.9701    0.7552 O   0  0  0  0  0  0  0  0  0  0  0  0
    1.5396    2.0064    0.0848 C   0  0  0  0  0  0  0  0  0  0  0  0
    0.5867    1.3332   -0.8898 C   0  0  0  0  0  0  0  0  0  0  0  0
   -0.3456    0.0473   -0.0081 S   0  0  0  0  0  0  0  0  0  0  0  0
   -1.2495   -0.6324   -1.3227 C   0  0  0  0  0  0  0  0  0  0  0  0
   -0.9010   -0.5288   -2.5826 N   0  0  0  0  0  0  0  0  0  0  0  0
   -1.8858   -1.0962   -3.3378 N   0  0  0  0  0  0  0  0  0  0  0  0
   -2.8328   -1.5385   -2.5295 C   0  0  0  0  0  0  0  0  0  0  0  0
   -3.9822   -2.3902   -2.9721 C   0  0  0  0  0  0  0  0  0  0  0  0
   -5.2239   -1.6386   -3.3741 C   0  0  0  0  0  0  0  0  0  0  0  0
   -6.5221   -1.8676   -2.9520 C   0  0  0  0  0  0  0  0  0  0  0  0
   -7.4586   -0.9819   -3.5565 C   0  0  0  0  0  0  0  0  0  0  0  0
   -6.8512   -0.1155   -4.4358 C   0  0  0  0  0  0  0  0  0  0  0  0
   -5.1658   -0.3736   -4.5309 S   0  0  0  0  0  0  0  0  0  0  0  0
   -2.4811   -1.2555   -1.2125 N   0  0  0  0  0  0  0  0  0  0  0  0
   -3.2124   -1.5684   -0.0393 C   0  0  0  0  0  0  0  0  0  0  0  0
   -2.5772   -2.1770    1.0498 C   0  0  0  0  0  0  0  0  0  0  0  0
   -3.3094   -2.4819    2.1996 C   0  0  0  0  0  0  0  0  0  0  0  0
   -4.6682   -2.1767    2.2672 C   0  0  0  0  0  0  0  0  0  0  0  0
   -5.2999   -1.5642    1.1868 C   0  0  0  0  0  0  0  0  0  0  0  0
   -4.5747   -1.2580    0.0335 C   0  0  0  0  0  0  0  0  0  0  0  0
    2.7909    1.4066    0.1134 N   0  0  0  0  0  0  0  0  0  0  0  0
    3.8970    1.7614    0.9135 C   0  0  0  0  0  0  0  0  0  0  0  0
    3.8799    2.7909    1.8593 C   0  0  0  0  0  0  0  0  0  0  0  0
    5.0233    3.0856    2.6109 C   0  0  0  0  0  0  0  0  0  0  0  0
    6.1918    2.3545    2.4193 C   0  0  0  0  0  0  0  0  0  0  0  0
    6.2106    1.3077    1.4958 C   0  0  0  0  0  0  0  0  0  0  0  0
    5.0745    1.0212    0.7376 C   0  0  0  0  0  0  0  0  0  0  0  0
    7.3145    0.5246    1.2694 O   0  0  0  0  0  0  0  0  0  0  0  0
    8.2832    0.6756    2.3145 C   0  0  0  0  0  0  0  0  0  0  0  0
    8.4848    2.1438    2.6539 C   0  0  0  0  0  0  0  0  0  0  0  0
    7.2784    2.7144    3.1728 O   0  0  0  0  0  0  0  0  0  0  0  0
    1.1506    0.9047   -1.7245 H   0  0  0  0  0  0  0  0  0  0  0  0
   -0.0944    2.0901   -1.2934 H   0  0  0  0  0  0  0  0  0  0  0  0
   -4.2301   -3.1223   -2.1930 H   0  0  0  0  0  0  0  0  0  0  0  0
   -3.6550   -2.9883   -3.8340 H   0  0  0  0  0  0  0  0  0  0  0  0
   -6.7897   -2.6410   -2.2410 H   0  0  0  0  0  0  0  0  0  0  0  0
   -8.5247   -0.9886   -3.3654 H   0  0  0  0  0  0  0  0  0  0  0  0
   -7.3153    0.6538   -5.0373 H   0  0  0  0  0  0  0  0  0  0  0  0
   -1.5241   -2.4481    1.0201 H   0  0  0  0  0  0  0  0  0  0  0  0
   -2.8177   -2.9565    3.0456 H   0  0  0  0  0  0  0  0  0  0  0  0
   -5.2327   -2.4042    3.1691 H   0  0  0  0  0  0  0  0  0  0  0  0
   -6.3544   -1.3073    1.2505 H   0  0  0  0  0  0  0  0  0  0  0  0
   -5.0782   -0.7207   -0.7650 H   0  0  0  0  0  0  0  0  0  0  0  0
    2.9324    0.6174   -0.5072 H   0  0  0  0  0  0  0  0  0  0  0  0
    2.9922    3.3909    2.0381 H   0  0  0  0  0  0  0  0  0  0  0  0
    4.9998    3.8964    3.3339 H   0  0  0  0  0  0  0  0  0  0  0  0
    5.1260    0.2130    0.0125 H   0  0  0  0  0  0  0  0  0  0  0  0
    7.9458    0.1030    3.1880 H   0  0  0  0  0  0  0  0  0  0  0  0
    9.2225    0.2383    1.9604 H   0  0  0  0  0  0  0  0  0  0  0  0
    8.7935    2.7190    1.7728 H   0  0  0  0  0  0  0  0  0  0  0  0
    9.2592    2.2520    3.4200 H   0  0  0  0  0  0  0  0  0  0  0  0
  1  2  2  0
  2  3  1  0
  3  4  1  0
  4  5  1  0
  5  6  2  0
  6  7  1  0
  7  8  2  0
  8  9  1  0
  9 10  1  0
 10 11  2  0
 11 12  1  0
 12 13  2  0
 13 14  1  0
  8 15  1  0
 15 16  1  0
 16 17  2  0
 17 18  1  0
 18 19  2  0
 19 20  1  0
 20 21  2  0
  2 22  1  0
 22 23  1  0
 23 24  2  0
 24 25  1  0
 25 26  2  0
 26 27  1  0
 27 28  2  0
 27 29  1  0
 29 30  1  0
 30 31  1  0
 31 32  1  0
 15  5  1  0
 21 16  1  0
 28 23  1  0
 14 10  1  0
 32 26  1  0
  3 33  1  0
  3 34  1  0
  9 35  1  0
  9 36  1  0
 11 37  1  0
 12 38  1  0
 13 39  1  0
 17 40  1  0
 18 41  1  0
 19 42  1  0
 20 43  1  0
 21 44  1  0
 22 45  1  0
 24 46  1  0
 25 47  1  0
 28 48  1  0
 30 49  1  0
 30 50  1  0
 31 51  1  0
 31 52  1  0
M  END
$$$$
