
     RDKit          3D

 42 44  0  0  0  0  0  0  0  0999 V2000
    0.6719   -0.8214    2.1260 C   0  0  0  0  0  0  0  0  0  0  0  0
   -0.2614   -0.6478    0.9682 C   0  0  0  0  0  0  0  0  0  0  0  0
    0.0762   -0.4473   -0.3170 C   0  0  0  0  0  0  0  0  0  0  0  0
    1.3342   -0.4246   -0.8529 N   0  0  0  0  0  0  0  0  0  0  0  0
    1.7172    0.3035   -1.9682 C   0  0  0  0  0  0  0  0  0  0  0  0
    1.0470    1.1684   -2.5225 O   0  0  0  0  0  0  0  0  0  0  0  0
    3.1153   -0.0203   -2.4473 C   0  0  0  0  0  0  0  0  0  0  0  0
    4.1082    0.3482   -1.4566 N   0  0  0  0  0  0  0  0  0  0  0  0
    5.0550    1.3281   -1.5629 C   0  0  0  0  0  0  0  0  0  0  0  0
    5.7413    1.3325   -0.3692 C   0  0  0  0  0  0  0  0  0  0  0  0
    5.1367    0.3118    0.3947 C   0  0  0  0  0  0  0  0  0  0  0  0
    5.4474   -0.1110    1.7485 N   0  0  0  0  0  4  0  0  0  0  0  0
    4.7358   -0.9839    2.2677 O   0  0  0  0  0  0  0  0  0  0  0  0
    6.4095    0.4509    2.2923 O   0  0  0  0  0  1  0  0  0  0  0  0
    4.1461   -0.3099   -0.2741 N   0  0  0  0  0  0  0  0  0  0  0  0
   -1.2175   -0.3496   -1.0725 C   0  0  0  0  0  0  0  0  0  0  0  0
   -1.3141   -0.2978   -2.2877 O   0  0  0  0  0  0  0  0  0  0  0  0
   -2.2285   -0.3828   -0.0979 N   0  0  0  0  0  0  0  0  0  0  0  0
   -3.5419    0.1366   -0.2373 C   0  0  0  0  0  0  0  0  0  0  0  0
   -4.1542    0.2247   -1.4945 C   0  0  0  0  0  0  0  0  0  0  0  0
   -5.4510    0.7319   -1.6319 C   0  0  0  0  0  0  0  0  0  0  0  0
   -6.1533    1.1705   -0.5131 C   0  0  0  0  0  0  0  0  0  0  0  0
   -5.5581    1.1053    0.7426 C   0  0  0  0  0  0  0  0  0  0  0  0
   -4.2628    0.5948    0.8772 C   0  0  0  0  0  0  0  0  0  0  0  0
   -1.6488   -0.6372    1.1818 N   0  0  0  0  0  0  0  0  0  0  0  0
   -2.2393   -1.7944    1.8780 C   0  0  0  0  0  0  0  0  0  0  0  0
    0.6577   -1.8559    2.4866 H   0  0  0  0  0  0  0  0  0  0  0  0
    1.7042   -0.5675    1.8696 H   0  0  0  0  0  0  0  0  0  0  0  0
    0.3762   -0.1635    2.9501 H   0  0  0  0  0  0  0  0  0  0  0  0
    2.1013   -0.7336   -0.2563 H   0  0  0  0  0  0  0  0  0  0  0  0
    3.2136   -1.0923   -2.6456 H   0  0  0  0  0  0  0  0  0  0  0  0
    3.3260    0.5283   -3.3714 H   0  0  0  0  0  0  0  0  0  0  0  0
    5.1502    1.9392   -2.4512 H   0  0  0  0  0  0  0  0  0  0  0  0
    6.5544    1.9850   -0.0835 H   0  0  0  0  0  0  0  0  0  0  0  0
   -3.6449   -0.1174   -2.3923 H   0  0  0  0  0  0  0  0  0  0  0  0
   -5.9070    0.7823   -2.6179 H   0  0  0  0  0  0  0  0  0  0  0  0
   -7.1586    1.5691   -0.6217 H   0  0  0  0  0  0  0  0  0  0  0  0
   -6.0947    1.4628    1.6190 H   0  0  0  0  0  0  0  0  0  0  0  0
   -3.8128    0.5930    1.8666 H   0  0  0  0  0  0  0  0  0  0  0  0
   -1.8543   -1.8567    2.9020 H   0  0  0  0  0  0  0  0  0  0  0  0
   -3.3285   -1.7228    1.9486 H   0  0  0  0  0  0  0  0  0  0  0  0
   -1.9936   -2.7291    1.3584 H   0  0  0  0  0  0  0  0  0  0  0  0
  1  2  1  0
  2  3  2  0
  3  4  1  0
  4  5  1  0
  5  6  2  0
  5  7  1  0
  7  8  1  0
  8  9  1  0
  9 10  2  0
 10 11  1  0
 11 12  1  0
 12 13  2  0
 12 14  1  0
 11 15  2  0
  3 16  1  0
 16 17  2  0
 16 18  1  0
 18 19  1  0
 19 20  2  0
 20 21  1  0
 21 22  2  0
 22 23  1  0
 23 24  2  0
 18 25  1  0
 25 26  1  0
 25  2  1  0
 15  8  1  0
 24 19  1  0
  1 27  1  0
  1 28  1  0
  1 29  1  0
  4 30  1  0
  7 31  1  0
  7 32  1  0
  9 33  1  0
 10 34  1  0
 20 35  1  0
 21 36  1  0
 22 37  1  0
 23 38  1  0
 24 39  1  0
 26 40  1  0
 26 41  1  0
 26 42  1  0
M  CHG  2  12   1  14  -1
M  END
$$$$
