
     RDKit          3D

 70 75  0  0  0  0  0  0  0  0999 V2000
   -5.1392   -3.6528    2.1395 C   0  0  0  0  0  0  0  0  0  0  0  0
   -4.0531   -2.9461    1.3682 C   0  0  0  0  0  0  0  0  0  0  0  0
   -3.4198   -1.8314    1.9680 C   0  0  0  0  0  0  0  0  0  0  0  0
   -2.4087   -1.1243    1.3136 C   0  0  0  0  0  0  0  0  0  0  0  0
   -2.0248   -1.5425    0.0502 C   0  0  0  0  0  0  0  0  0  0  0  0
   -2.6583   -2.6418   -0.5457 C   0  0  0  0  0  0  0  0  0  0  0  0
   -3.6501   -3.3852    0.0873 C   0  0  0  0  0  0  0  0  0  0  0  0
   -4.3052   -4.5484   -0.6004 C   0  0  0  0  0  0  0  0  0  0  0  0
   -2.1764   -2.8208   -1.8379 N   0  0  0  0  0  0  0  0  0  0  0  0
   -1.2200   -1.8635   -2.1750 C   0  0  0  0  0  0  0  0  0  0  0  0
   -0.6755   -1.7905   -3.2664 O   0  0  0  0  0  0  0  0  0  0  0  0
   -1.0166   -0.9682   -0.9137 C   0  0  1  0  0  0  0  0  0  0  0  0
   -1.3572    0.4527   -1.1511 C   0  0  0  0  0  0  0  0  0  0  0  0
   -0.2193    1.2515   -1.0767 C   0  0  0  0  0  0  0  0  0  0  0  0
   -0.5724    2.5533   -1.3191 C   0  0  0  0  0  0  0  0  0  0  0  0
    0.1970    3.6338   -1.4217 O   0  0  0  0  0  0  0  0  0  0  0  0
   -1.9699    2.5845   -1.5223 N   0  0  0  0  0  0  0  0  0  0  0  0
   -2.7673    3.7515   -1.7909 C   0  0  0  0  0  0  0  0  0  0  0  0
   -4.0008    3.6444   -2.4507 C   0  0  0  0  0  0  0  0  0  0  0  0
   -4.7772    4.7798   -2.7070 C   0  0  0  0  0  0  0  0  0  0  0  0
   -4.3343    6.0369   -2.3084 C   0  0  0  0  0  0  0  0  0  0  0  0
   -3.1128    6.1598   -1.6538 C   0  0  0  0  0  0  0  0  0  0  0  0
   -2.3334    5.0262   -1.3973 C   0  0  0  0  0  0  0  0  0  0  0  0
   -2.4409    1.2565   -1.4075 C   0  0  0  0  0  0  0  0  0  0  0  0
   -3.7325    0.9398   -1.4831 O   0  0  0  0  0  0  0  0  0  0  0  0
    0.9926    0.4508   -0.7929 C   0  0  1  0  0  0  0  0  0  0  0  0
    1.8379    0.9979    0.3754 C   0  0  0  0  0  0  0  0  0  0  0  0
    2.8171    0.0161    0.8345 N   0  0  0  0  0  0  0  0  0  0  0  0
    4.1344    0.3833    1.0174 C   0  0  0  0  0  0  0  0  0  0  0  0
    4.5443    1.5267    0.8616 O   0  0  0  0  0  0  0  0  0  0  0  0
    4.9083   -0.6741    1.3767 O   0  0  0  0  0  0  0  0  0  0  0  0
    6.3350   -0.5145    1.5827 C   0  0  0  0  0  0  0  0  0  0  0  0
    6.8401   -1.9211    1.9354 C   0  0  0  0  0  0  0  0  0  0  0  0
    6.6232    0.4234    2.7610 C   0  0  0  0  0  0  0  0  0  0  0  0
    7.0389   -0.0525    0.3008 C   0  0  0  0  0  0  0  0  0  0  0  0
    2.3584   -1.3695    0.9487 C   0  0  0  0  0  0  0  0  0  0  0  0
    0.8409   -1.5149    0.7186 C   0  0  0  0  0  0  0  0  0  0  0  0
    0.4383   -0.9358   -0.5634 N   0  0  0  0  0  0  0  0  0  0  0  0
   -4.7650   -4.6066    2.5244 H   0  0  0  0  0  0  0  0  0  0  0  0
   -5.4821   -3.0525    2.9883 H   0  0  0  0  0  0  0  0  0  0  0  0
   -6.0119   -3.8309    1.5039 H   0  0  0  0  0  0  0  0  0  0  0  0
   -3.7300   -1.4980    2.9582 H   0  0  0  0  0  0  0  0  0  0  0  0
   -1.9567   -0.2546    1.7827 H   0  0  0  0  0  0  0  0  0  0  0  0
   -4.6300   -5.3084    0.1159 H   0  0  0  0  0  0  0  0  0  0  0  0
   -5.1737   -4.2037   -1.1689 H   0  0  0  0  0  0  0  0  0  0  0  0
   -3.6147   -5.0528   -1.2849 H   0  0  0  0  0  0  0  0  0  0  0  0
   -2.4793   -3.5223   -2.4975 H   0  0  0  0  0  0  0  0  0  0  0  0
    1.1287    3.3521   -1.4277 H   0  0  0  0  0  0  0  0  0  0  0  0
   -4.3720    2.6919   -2.8164 H   0  0  0  0  0  0  0  0  0  0  0  0
   -5.7260    4.6772   -3.2264 H   0  0  0  0  0  0  0  0  0  0  0  0
   -4.9399    6.9172   -2.5064 H   0  0  0  0  0  0  0  0  0  0  0  0
   -2.7609    7.1372   -1.3352 H   0  0  0  0  0  0  0  0  0  0  0  0
   -1.4051    5.1713   -0.8540 H   0  0  0  0  0  0  0  0  0  0  0  0
   -3.8341   -0.0005   -1.2549 H   0  0  0  0  0  0  0  0  0  0  0  0
    1.6183    0.3986   -1.6928 H   0  0  0  0  0  0  0  0  0  0  0  0
    1.2056    1.2451    1.2390 H   0  0  0  0  0  0  0  0  0  0  0  0
    2.3326    1.9280    0.0735 H   0  0  0  0  0  0  0  0  0  0  0  0
    6.6246   -2.6269    1.1224 H   0  0  0  0  0  0  0  0  0  0  0  0
    7.9180   -1.9278    2.1239 H   0  0  0  0  0  0  0  0  0  0  0  0
    6.3326   -2.3129    2.8241 H   0  0  0  0  0  0  0  0  0  0  0  0
    6.0279    0.1439    3.6387 H   0  0  0  0  0  0  0  0  0  0  0  0
    7.6826    0.4028    3.0368 H   0  0  0  0  0  0  0  0  0  0  0  0
    6.3674    1.4624    2.5264 H   0  0  0  0  0  0  0  0  0  0  0  0
    6.7393   -0.6733   -0.5518 H   0  0  0  0  0  0  0  0  0  0  0  0
    6.7843    0.9795    0.0424 H   0  0  0  0  0  0  0  0  0  0  0  0
    8.1285   -0.1031    0.4043 H   0  0  0  0  0  0  0  0  0  0  0  0
    2.6252   -1.7399    1.9451 H   0  0  0  0  0  0  0  0  0  0  0  0
    2.9111   -1.9652    0.2113 H   0  0  0  0  0  0  0  0  0  0  0  0
    0.5858   -2.5802    0.7497 H   0  0  0  0  0  0  0  0  0  0  0  0
    0.3281   -1.0188    1.5508 H   0  0  0  0  0  0  0  0  0  0  0  0
  1  2  1  0
  2  3  2  0
  3  4  1  0
  4  5  2  0
  5  6  1  0
  6  7  2  0
  7  8  1  0
  6  9  1  0
  9 10  1  0
 10 11  2  0
 10 12  1  0
 12 13  1  0
 13 14  1  0
 14 15  2  0
 15 16  1  0
 15 17  1  0
 17 18  1  0
 18 19  2  0
 19 20  1  0
 20 21  2  0
 21 22  1  0
 22 23  2  0
 17 24  1  0
 24 25  1  0
 14 26  1  0
 26 27  1  0
 27 28  1  0
 28 29  1  0
 29 30  2  0
 29 31  1  0
 31 32  1  0
 32 33  1  0
 32 34  1  0
 32 35  1  0
 28 36  1  0
 36 37  1  0
 37 38  1  0
  7  2  1  0
 12 38  1  1
 12  5  1  0
 24 13  2  0
 38 26  1  0
 23 18  1  0
  1 39  1  0
  1 40  1  0
  1 41  1  0
  3 42  1  0
  4 43  1  0
  8 44  1  0
  8 45  1  0
  8 46  1  0
  9 47  1  0
 16 48  1  0
 19 49  1  0
 20 50  1  0
 21 51  1  0
 22 52  1  0
 23 53  1  0
 25 54  1  0
 26 55  1  6
 27 56  1  0
 27 57  1  0
 33 58  1  0
 33 59  1  0
 33 60  1  0
 34 61  1  0
 34 62  1  0
 34 63  1  0
 35 64  1  0
 35 65  1  0
 35 66  1  0
 36 67  1  0
 36 68  1  0
 37 69  1  0
 37 70  1  0
M  END
$$$$
