
     RDKit          3D

 50 54  0  0  0  0  0  0  0  0999 V2000
   -4.8157    0.2598    0.9887 C   0  0  0  0  0  0  0  0  0  0  0  0
   -4.3188   -0.9199    0.2141 C   0  0  0  0  0  0  0  0  0  0  0  0
   -5.1055   -1.9391   -0.1652 C   0  0  0  0  0  0  0  0  0  0  0  0
   -4.5732   -3.0556   -0.8969 C   0  0  0  0  0  0  0  0  0  0  0  0
   -3.2737   -3.0880   -1.2076 C   0  0  0  0  0  0  0  0  0  0  0  0
   -2.4089   -2.0607   -0.8495 N   0  0  0  0  0  0  0  0  0  0  0  0
   -1.0682   -2.1637   -1.1776 C   0  0  0  0  0  0  0  0  0  0  0  0
   -0.5617   -3.1387   -1.7389 O   0  0  0  0  0  0  0  0  0  0  0  0
   -0.2099   -1.0063   -0.8011 C   0  0  0  0  0  0  0  0  0  0  0  0
    1.2052   -1.0229   -1.1376 C   0  0  0  0  0  0  0  0  0  0  0  0
    2.0233    0.0003   -0.8414 C   0  0  0  0  0  0  0  0  0  0  0  0
    3.7111   -0.1410   -1.1607 S   0  0  0  0  0  6  0  0  0  0  0  0
    3.9401   -1.0242   -2.2910 O   0  0  0  0  0  0  0  0  0  0  0  0
    4.3453    1.1660   -1.1242 O   0  0  0  0  0  0  0  0  0  0  0  0
    4.2806   -1.0093    0.2955 C   0  0  0  0  0  0  0  0  0  0  0  0
    4.5085   -2.3899    0.2378 C   0  0  0  0  0  0  0  0  0  0  0  0
    4.9601   -3.0558    1.3778 C   0  0  0  0  0  0  0  0  0  0  0  0
    5.1864   -2.3396    2.5495 C   0  0  0  0  0  0  0  0  0  0  0  0
    5.6183   -2.9842    3.6412 F   0  0  0  0  0  0  0  0  0  0  0  0
    4.9748   -0.9645    2.6062 C   0  0  0  0  0  0  0  0  0  0  0  0
    4.5234   -0.2887    1.4723 C   0  0  0  0  0  0  0  0  0  0  0  0
    1.4174    1.1824   -0.1534 C   0  0  0  0  0  0  0  0  0  0  0  0
    2.1137    2.2480    0.1113 N   0  0  0  0  0  0  0  0  0  0  0  0
    0.0641    1.1271    0.2156 N   0  0  0  0  0  0  0  0  0  0  0  0
   -0.5436    2.3199    0.8472 C   0  0  0  0  0  0  0  0  0  0  0  0
   -1.1160    3.3300   -0.0968 C   0  0  0  0  0  0  0  0  0  0  0  0
   -1.9316    3.2429   -1.2081 C   0  0  0  0  0  0  0  0  0  0  0  0
   -2.1271    4.5673   -1.6690 C   0  0  0  0  0  0  0  0  0  0  0  0
   -1.4253    5.3790   -0.8100 C   0  0  0  0  0  0  0  0  0  0  0  0
   -0.8173    4.6405    0.1523 O   0  0  0  0  0  0  0  0  0  0  0  0
   -0.7618    0.0300   -0.1315 C   0  0  0  0  0  0  0  0  0  0  0  0
   -2.0951    0.0313    0.2016 N   0  0  0  0  0  0  0  0  0  0  0  0
   -2.8586   -0.9544   -0.1488 C   0  0  0  0  0  0  0  0  0  0  0  0
   -5.8973    0.2108    1.1528 H   0  0  0  0  0  0  0  0  0  0  0  0
   -4.6050    1.1928    0.4581 H   0  0  0  0  0  0  0  0  0  0  0  0
   -4.3339    0.2993    1.9702 H   0  0  0  0  0  0  0  0  0  0  0  0
   -6.1643   -1.9557    0.0765 H   0  0  0  0  0  0  0  0  0  0  0  0
   -5.2408   -3.8634   -1.1799 H   0  0  0  0  0  0  0  0  0  0  0  0
   -2.8498   -3.9264   -1.7557 H   0  0  0  0  0  0  0  0  0  0  0  0
    1.5828   -1.9201   -1.6265 H   0  0  0  0  0  0  0  0  0  0  0  0
    4.3448   -2.9507   -0.6797 H   0  0  0  0  0  0  0  0  0  0  0  0
    5.1417   -4.1260    1.3620 H   0  0  0  0  0  0  0  0  0  0  0  0
    5.1677   -0.4300    3.5322 H   0  0  0  0  0  0  0  0  0  0  0  0
    4.3701    0.7879    1.5150 H   0  0  0  0  0  0  0  0  0  0  0  0
    3.0770    2.2130   -0.2605 H   0  0  0  0  0  0  0  0  0  0  0  0
   -1.3415    2.0116    1.5357 H   0  0  0  0  0  0  0  0  0  0  0  0
    0.1866    2.8098    1.5045 H   0  0  0  0  0  0  0  0  0  0  0  0
   -2.3307    2.3311   -1.6319 H   0  0  0  0  0  0  0  0  0  0  0  0
   -2.7040    4.8915   -2.5237 H   0  0  0  0  0  0  0  0  0  0  0  0
   -1.2636    6.4466   -0.7510 H   0  0  0  0  0  0  0  0  0  0  0  0
  1  2  1  0
  2  3  2  0
  3  4  1  0
  4  5  2  0
  5  6  1  0
  6  7  1  0
  7  8  2  0
  7  9  1  0
  9 10  1  0
 10 11  2  0
 11 12  1  0
 12 13  2  0
 12 14  2  0
 12 15  1  0
 15 16  2  0
 16 17  1  0
 17 18  2  0
 18 19  1  0
 18 20  1  0
 20 21  2  0
 11 22  1  0
 22 23  2  3
 22 24  1  0
 24 25  1  0
 25 26  1  0
 26 27  2  0
 27 28  1  0
 28 29  2  0
 29 30  1  0
 24 31  1  0
 31 32  1  0
 32 33  2  0
 33  2  1  0
 33  6  1  0
 31  9  2  0
 21 15  1  0
 30 26  1  0
  1 34  1  0
  1 35  1  0
  1 36  1  0
  3 37  1  0
  4 38  1  0
  5 39  1  0
 10 40  1  0
 16 41  1  0
 17 42  1  0
 20 43  1  0
 21 44  1  0
 23 45  1  0
 25 46  1  0
 25 47  1  0
 27 48  1  0
 28 49  1  0
 29 50  1  0
M  END
$$$$
