
     RDKit          3D

 54 58  0  0  0  0  0  0  0  0999 V2000
    3.9192    0.1781    1.2477 O   0  0  0  0  0  0  0  0  0  0  0  0
    2.7724   -0.2642    1.2217 C   0  0  0  0  0  0  0  0  0  0  0  0
    1.5848    0.6044    0.8444 C   0  0  0  0  0  0  0  0  0  0  0  0
    0.2179    0.4019    2.0277 S   0  0  0  0  0  0  0  0  0  0  0  0
   -1.0210    1.3546    1.2201 C   0  0  0  0  0  0  0  0  0  0  0  0
   -0.5963    2.3709    0.5323 N   0  0  0  0  0  0  0  0  0  0  0  0
   -1.5907    3.1344   -0.0831 C   0  0  0  0  0  0  0  0  0  0  0  0
   -2.9113    2.8379    0.0434 C   0  0  0  0  0  0  0  0  0  0  0  0
   -3.8976    3.9185   -0.8018 S   0  0  0  0  0  0  0  0  0  0  0  0
   -2.5313    4.8227   -1.3620 C   0  0  0  0  0  0  0  0  0  0  0  0
   -2.5491    5.9641   -2.1869 C   0  0  0  0  0  0  0  0  0  0  0  0
   -1.3364    6.5636   -2.5363 C   0  0  0  0  0  0  0  0  0  0  0  0
   -0.1324    6.0450   -2.0789 C   0  0  0  0  0  0  0  0  0  0  0  0
   -0.1176    4.9118   -1.2606 C   0  0  0  0  0  0  0  0  0  0  0  0
   -1.3291    4.2802   -0.8893 C   0  0  0  0  0  0  0  0  0  0  0  0
   -3.3863    1.7230    0.8040 C   0  0  0  0  0  0  0  0  0  0  0  0
   -4.5746    1.4297    0.9254 O   0  0  0  0  0  0  0  0  0  0  0  0
   -2.3553    0.9733    1.3928 N   0  0  0  0  0  0  0  0  0  0  0  0
   -2.7949   -0.2271    2.1243 C   0  0  0  0  0  0  0  0  0  0  0  0
   -3.1998   -1.3894    1.1995 C   0  0  0  0  0  0  0  0  0  0  0  0
   -2.0481   -1.9883    0.4287 C   0  0  0  0  0  0  0  0  0  0  0  0
   -1.3065   -3.0483    0.9683 C   0  0  0  0  0  0  0  0  0  0  0  0
   -0.2428   -3.6008    0.2538 C   0  0  0  0  0  0  0  0  0  0  0  0
    0.1002   -3.0888   -0.9961 C   0  0  0  0  0  0  0  0  0  0  0  0
   -0.6279   -2.0336   -1.5403 C   0  0  0  0  0  0  0  0  0  0  0  0
   -1.7013   -1.4889   -0.8347 C   0  0  0  0  0  0  0  0  0  0  0  0
    2.4773   -1.5858    1.4598 N   0  0  0  0  0  0  0  0  0  0  0  0
    3.4937   -2.5739    1.7289 C   0  0  0  0  0  0  0  0  0  0  0  0
    3.7920   -3.3041    0.4733 C   0  0  0  0  0  0  0  0  0  0  0  0
    4.5334   -2.9912   -0.6478 C   0  0  0  0  0  0  0  0  0  0  0  0
    4.4464   -4.1097   -1.5101 C   0  0  0  0  0  0  0  0  0  0  0  0
    3.6589   -5.0323   -0.8627 C   0  0  0  0  0  0  0  0  0  0  0  0
    3.2503   -4.5504    0.3397 O   0  0  0  0  0  0  0  0  0  0  0  0
    1.9155    1.6480    0.8437 H   0  0  0  0  0  0  0  0  0  0  0  0
    1.2652    0.3284   -0.1653 H   0  0  0  0  0  0  0  0  0  0  0  0
   -3.4889    6.3740   -2.5460 H   0  0  0  0  0  0  0  0  0  0  0  0
   -1.3381    7.4461   -3.1721 H   0  0  0  0  0  0  0  0  0  0  0  0
    0.8053    6.5210   -2.3555 H   0  0  0  0  0  0  0  0  0  0  0  0
    0.8283    4.5115   -0.9034 H   0  0  0  0  0  0  0  0  0  0  0  0
   -3.6714    0.0517    2.7238 H   0  0  0  0  0  0  0  0  0  0  0  0
   -2.0446   -0.5618    2.8441 H   0  0  0  0  0  0  0  0  0  0  0  0
   -3.9767   -1.0750    0.4921 H   0  0  0  0  0  0  0  0  0  0  0  0
   -3.6625   -2.1771    1.8084 H   0  0  0  0  0  0  0  0  0  0  0  0
   -1.5593   -3.4594    1.9433 H   0  0  0  0  0  0  0  0  0  0  0  0
    0.3233   -4.4312    0.6706 H   0  0  0  0  0  0  0  0  0  0  0  0
    0.9330   -3.5178   -1.5482 H   0  0  0  0  0  0  0  0  0  0  0  0
   -0.3659   -1.6415   -2.5199 H   0  0  0  0  0  0  0  0  0  0  0  0
   -2.2690   -0.6760   -1.2829 H   0  0  0  0  0  0  0  0  0  0  0  0
    1.5275   -1.9042    1.3090 H   0  0  0  0  0  0  0  0  0  0  0  0
    4.3978   -2.1004    2.1244 H   0  0  0  0  0  0  0  0  0  0  0  0
    3.0974   -3.2519    2.4914 H   0  0  0  0  0  0  0  0  0  0  0  0
    5.0696   -2.0654   -0.8110 H   0  0  0  0  0  0  0  0  0  0  0  0
    4.9050   -4.2306   -2.4816 H   0  0  0  0  0  0  0  0  0  0  0  0
    3.3124   -6.0260   -1.1100 H   0  0  0  0  0  0  0  0  0  0  0  0
  1  2  2  0
  2  3  1  0
  3  4  1  0
  4  5  1  0
  5  6  2  0
  6  7  1  0
  7  8  2  0
  8  9  1  0
  9 10  1  0
 10 11  2  0
 11 12  1  0
 12 13  2  0
 13 14  1  0
 14 15  2  0
  8 16  1  0
 16 17  2  0
 16 18  1  0
 18 19  1  0
 19 20  1  0
 20 21  1  0
 21 22  2  0
 22 23  1  0
 23 24  2  0
 24 25  1  0
 25 26  2  0
  2 27  1  0
 27 28  1  0
 28 29  1  0
 29 30  2  0
 30 31  1  0
 31 32  2  0
 32 33  1  0
 18  5  1  0
 26 21  1  0
 33 29  1  0
 15  7  1  0
 15 10  1  0
  3 34  1  0
  3 35  1  0
 11 36  1  0
 12 37  1  0
 13 38  1  0
 14 39  1  0
 19 40  1  0
 19 41  1  0
 20 42  1  0
 20 43  1  0
 22 44  1  0
 23 45  1  0
 24 46  1  0
 25 47  1  0
 26 48  1  0
 27 49  1  0
 28 50  1  0
 28 51  1  0
 30 52  1  0
 31 53  1  0
 32 54  1  0
M  END
$$$$
