
     RDKit          3D

 48 52  0  0  0  0  0  0  0  0999 V2000
   -4.6549   -2.4241    0.2437 C   0  0  0  0  0  0  0  0  0  0  0  0
   -3.4694   -1.5971    0.2434 N   0  0  0  0  0  0  0  0  0  0  0  0
   -2.2931   -1.9284   -0.3630 C   0  0  0  0  0  0  0  0  0  0  0  0
   -1.3806   -0.8974   -0.1823 C   0  0  0  0  0  0  0  0  0  0  0  0
    0.0242   -0.9203   -0.7521 C   0  0  0  0  0  0  0  0  0  0  0  0
    0.0044   -0.0071   -1.9749 C   0  0  0  0  0  0  0  0  0  0  0  0
    0.1709    1.3789   -1.9022 C   0  0  0  0  0  0  0  0  0  0  0  0
    0.1324    2.1407   -3.0684 C   0  0  0  0  0  0  0  0  0  0  0  0
   -0.0717    1.5119   -4.2876 C   0  0  0  0  0  0  0  0  0  0  0  0
   -0.2228    0.1384   -4.2912 C   0  0  0  0  0  0  0  0  0  0  0  0
   -0.1838   -0.6266   -3.1786 N   0  0  0  0  0  0  0  0  0  0  0  0
    1.1758   -0.5680    0.1639 C   0  0  0  0  0  0  0  0  0  0  0  0
    1.1485   -0.4341    1.5439 C   0  0  0  0  0  0  0  0  0  0  0  0
    2.4060   -0.1396    1.9910 N   0  0  0  0  0  0  0  0  0  0  0  0
    2.7515    0.0945    3.3752 C   0  0  0  0  0  0  0  0  0  0  0  0
    3.2965   -0.1346    0.9426 C   0  0  0  0  0  0  0  0  0  0  0  0
    4.6839    0.0843    0.9160 C   0  0  0  0  0  0  0  0  0  0  0  0
    5.3418   -0.0030   -0.3132 C   0  0  0  0  0  0  0  0  0  0  0  0
    4.6420   -0.3036   -1.4759 C   0  0  0  0  0  0  0  0  0  0  0  0
    3.2600   -0.5178   -1.4382 C   0  0  0  0  0  0  0  0  0  0  0  0
    2.5628   -0.4236   -0.2123 C   0  0  0  0  0  0  0  0  0  0  0  0
   -2.0669    0.1023    0.6017 C   0  0  0  0  0  0  0  0  0  0  0  0
   -1.7147    1.3628    1.1370 C   0  0  0  0  0  0  0  0  0  0  0  0
   -2.6439    2.1064    1.8734 C   0  0  0  0  0  0  0  0  0  0  0  0
   -3.9246    1.6162    2.0909 C   0  0  0  0  0  0  0  0  0  0  0  0
   -4.3068    0.3732    1.5838 C   0  0  0  0  0  0  0  0  0  0  0  0
   -3.3648   -0.3650    0.8465 C   0  0  0  0  0  0  0  0  0  0  0  0
   -4.8997   -2.6768    1.2786 H   0  0  0  0  0  0  0  0  0  0  0  0
   -4.4655   -3.3384   -0.3247 H   0  0  0  0  0  0  0  0  0  0  0  0
   -5.4694   -1.8631   -0.2217 H   0  0  0  0  0  0  0  0  0  0  0  0
   -2.1835   -2.8624   -0.9000 H   0  0  0  0  0  0  0  0  0  0  0  0
    0.2279   -1.9428   -1.1050 H   0  0  0  0  0  0  0  0  0  0  0  0
    0.3507    1.8710   -0.9541 H   0  0  0  0  0  0  0  0  0  0  0  0
    0.2634    3.2177   -3.0198 H   0  0  0  0  0  0  0  0  0  0  0  0
   -0.1099    2.0771   -5.2112 H   0  0  0  0  0  0  0  0  0  0  0  0
   -0.3842   -0.4040   -5.2181 H   0  0  0  0  0  0  0  0  0  0  0  0
    0.3239   -0.5281    2.2399 H   0  0  0  0  0  0  0  0  0  0  0  0
    3.4534   -0.6810    3.6924 H   0  0  0  0  0  0  0  0  0  0  0  0
    1.8496    0.0523    3.9913 H   0  0  0  0  0  0  0  0  0  0  0  0
    3.2057    1.0854    3.4557 H   0  0  0  0  0  0  0  0  0  0  0  0
    5.2394    0.3080    1.8209 H   0  0  0  0  0  0  0  0  0  0  0  0
    6.4160    0.1598   -0.3588 H   0  0  0  0  0  0  0  0  0  0  0  0
    5.1686   -0.3744   -2.4241 H   0  0  0  0  0  0  0  0  0  0  0  0
    2.7314   -0.7553   -2.3580 H   0  0  0  0  0  0  0  0  0  0  0  0
   -0.7166    1.7633    0.9981 H   0  0  0  0  0  0  0  0  0  0  0  0
   -2.3574    3.0735    2.2781 H   0  0  0  0  0  0  0  0  0  0  0  0
   -4.6378    2.2040    2.6634 H   0  0  0  0  0  0  0  0  0  0  0  0
   -5.3087   -0.0054    1.7591 H   0  0  0  0  0  0  0  0  0  0  0  0
  1  2  1  0
  2  3  1  0
  3  4  2  0
  4  5  1  0
  5  6  1  0
  6  7  2  0
  7  8  1  0
  8  9  2  0
  9 10  1  0
 10 11  2  0
  5 12  1  0
 12 13  2  0
 13 14  1  0
 14 15  1  0
 14 16  1  0
 16 17  2  0
 17 18  1  0
 18 19  2  0
 19 20  1  0
 20 21  2  0
  4 22  1  0
 22 23  2  0
 23 24  1  0
 24 25  2  0
 25 26  1  0
 26 27  2  0
 27  2  1  0
 11  6  1  0
 21 12  1  0
 27 22  1  0
 21 16  1  0
  1 28  1  0
  1 29  1  0
  1 30  1  0
  3 31  1  0
  5 32  1  0
  7 33  1  0
  8 34  1  0
  9 35  1  0
 10 36  1  0
 13 37  1  0
 15 38  1  0
 15 39  1  0
 15 40  1  0
 17 41  1  0
 18 42  1  0
 19 43  1  0
 20 44  1  0
 23 45  1  0
 24 46  1  0
 25 47  1  0
 26 48  1  0
M  END
$$$$
