
     RDKit          3D

 57 59  0  0  0  0  0  0  0  0999 V2000
   11.7118   -0.7986   -0.4465 C   0  0  0  0  0  0  0  0  0  0  0  0
   10.7065   -0.9421   -1.4423 O   0  0  0  0  0  0  0  0  0  0  0  0
    9.4687   -0.4419   -1.1483 C   0  0  0  0  0  0  0  0  0  0  0  0
    8.5076   -0.6381   -2.1412 C   0  0  0  0  0  0  0  0  0  0  0  0
    7.2019   -0.1733   -1.9661 C   0  0  0  0  0  0  0  0  0  0  0  0
    6.8374    0.4936   -0.7957 C   0  0  0  0  0  0  0  0  0  0  0  0
    5.5327    0.8981   -0.7504 O   0  0  0  0  0  0  0  0  0  0  0  0
    5.0969    1.5751    0.4306 C   0  0  0  0  0  0  0  0  0  0  0  0
    3.6201    1.9426    0.2907 C   0  0  0  0  0  0  0  0  0  0  0  0
    2.5568    0.4639    0.4117 S   0  0  0  0  0  0  0  0  0  0  0  0
    0.9976    1.1939    0.2620 C   0  0  0  0  0  0  0  0  0  0  0  0
    0.7383    2.4801    0.2410 N   0  0  0  0  0  0  0  0  0  0  0  0
   -0.6183    2.6305    0.0921 N   0  0  0  0  0  0  0  0  0  0  0  0
   -1.1588    1.4303    0.0200 C   0  0  0  0  0  0  0  0  0  0  0  0
   -2.6071    1.1427   -0.1556 C   0  0  0  0  0  0  0  0  0  0  0  0
   -3.3130    1.0514    1.1982 C   0  0  0  0  0  0  0  0  0  0  0  0
   -4.6999    0.6411    1.0746 N   0  0  0  0  0  0  0  0  0  0  0  0
   -5.0269   -0.6704    0.7946 C   0  0  0  0  0  0  0  0  0  0  0  0
   -4.1870   -1.5531    0.6551 O   0  0  0  0  0  0  0  0  0  0  0  0
   -6.4740   -0.9672    0.6173 C   0  0  0  0  0  0  0  0  0  0  0  0
   -6.8415   -2.0179   -0.2280 C   0  0  0  0  0  0  0  0  0  0  0  0
   -8.1919   -2.3215   -0.4189 C   0  0  0  0  0  0  0  0  0  0  0  0
   -9.1867   -1.5903    0.2357 C   0  0  0  0  0  0  0  0  0  0  0  0
  -10.4642   -1.9919   -0.0398 O   0  0  0  0  0  0  0  0  0  0  0  0
  -11.5171   -1.2817    0.6006 C   0  0  0  0  0  0  0  0  0  0  0  0
   -8.8191   -0.5525    1.0942 C   0  0  0  0  0  0  0  0  0  0  0  0
   -7.4666   -0.2425    1.2884 C   0  0  0  0  0  0  0  0  0  0  0  0
   -0.1662    0.4852    0.1452 N   0  0  0  0  0  0  0  0  0  0  0  0
   -0.3168   -0.9480    0.1431 C   0  0  0  0  0  0  0  0  0  0  0  0
    7.7960    0.6915    0.1982 C   0  0  0  0  0  0  0  0  0  0  0  0
    9.1071    0.2243    0.0225 C   0  0  0  0  0  0  0  0  0  0  0  0
   11.9259    0.2573   -0.2503 H   0  0  0  0  0  0  0  0  0  0  0  0
   12.6284   -1.2594   -0.8280 H   0  0  0  0  0  0  0  0  0  0  0  0
   11.4335   -1.3238    0.4736 H   0  0  0  0  0  0  0  0  0  0  0  0
    8.7752   -1.1561   -3.0579 H   0  0  0  0  0  0  0  0  0  0  0  0
    6.4656   -0.3327   -2.7490 H   0  0  0  0  0  0  0  0  0  0  0  0
    5.6683    2.5058    0.5393 H   0  0  0  0  0  0  0  0  0  0  0  0
    5.2533    0.9506    1.3198 H   0  0  0  0  0  0  0  0  0  0  0  0
    3.4425    2.4207   -0.6784 H   0  0  0  0  0  0  0  0  0  0  0  0
    3.3456    2.6385    1.0896 H   0  0  0  0  0  0  0  0  0  0  0  0
   -3.0645    1.9468   -0.7466 H   0  0  0  0  0  0  0  0  0  0  0  0
   -2.7484    0.2291   -0.7439 H   0  0  0  0  0  0  0  0  0  0  0  0
   -2.8046    0.3345    1.8542 H   0  0  0  0  0  0  0  0  0  0  0  0
   -3.3063    2.0241    1.7031 H   0  0  0  0  0  0  0  0  0  0  0  0
   -5.4001    1.3639    0.9673 H   0  0  0  0  0  0  0  0  0  0  0  0
   -6.0810   -2.6016   -0.7423 H   0  0  0  0  0  0  0  0  0  0  0  0
   -8.4709   -3.1388   -1.0803 H   0  0  0  0  0  0  0  0  0  0  0  0
  -12.4645   -1.7188    0.2717 H   0  0  0  0  0  0  0  0  0  0  0  0
  -11.5171   -0.2266    0.3075 H   0  0  0  0  0  0  0  0  0  0  0  0
  -11.4608   -1.3897    1.6889 H   0  0  0  0  0  0  0  0  0  0  0  0
   -9.5584    0.0295    1.6341 H   0  0  0  0  0  0  0  0  0  0  0  0
   -7.2071    0.5479    1.9860 H   0  0  0  0  0  0  0  0  0  0  0  0
    0.0144   -1.3260   -0.8273 H   0  0  0  0  0  0  0  0  0  0  0  0
    0.2843   -1.3756    0.9494 H   0  0  0  0  0  0  0  0  0  0  0  0
   -1.3593   -1.2210    0.3123 H   0  0  0  0  0  0  0  0  0  0  0  0
    7.5617    1.2067    1.1240 H   0  0  0  0  0  0  0  0  0  0  0  0
    9.8199    0.4016    0.8210 H   0  0  0  0  0  0  0  0  0  0  0  0
  1  2  1  0
  2  3  1  0
  3  4  2  0
  4  5  1  0
  5  6  2  0
  6  7  1  0
  7  8  1  0
  8  9  1  0
  9 10  1  0
 10 11  1  0
 11 12  2  0
 12 13  1  0
 13 14  2  0
 14 15  1  0
 15 16  1  0
 16 17  1  0
 17 18  1  0
 18 19  2  0
 18 20  1  0
 20 21  2  0
 21 22  1  0
 22 23  2  0
 23 24  1  0
 24 25  1  0
 23 26  1  0
 26 27  2  0
 14 28  1  0
 28 29  1  0
  6 30  1  0
 30 31  2  0
 31  3  1  0
 28 11  1  0
 27 20  1  0
  1 32  1  0
  1 33  1  0
  1 34  1  0
  4 35  1  0
  5 36  1  0
  8 37  1  0
  8 38  1  0
  9 39  1  0
  9 40  1  0
 15 41  1  0
 15 42  1  0
 16 43  1  0
 16 44  1  0
 17 45  1  0
 21 46  1  0
 22 47  1  0
 25 48  1  0
 25 49  1  0
 25 50  1  0
 26 51  1  0
 27 52  1  0
 29 53  1  0
 29 54  1  0
 29 55  1  0
 30 56  1  0
 31 57  1  0
M  END
$$$$
