
     RDKit          3D

 55 60  0  0  0  0  0  0  0  0999 V2000
   -4.2800    0.7664   -3.0008 O   0  0  0  0  0  0  0  0  0  0  0  0
   -3.9872    0.8370   -1.8082 C   0  0  0  0  0  0  0  0  0  0  0  0
   -5.0368    0.9575   -0.8098 C   0  0  0  0  0  0  0  0  0  0  0  0
   -6.2749    1.6541   -0.9337 C   0  0  0  0  0  0  0  0  0  0  0  0
   -6.9628    1.4478    0.2381 C   0  0  0  0  0  0  0  0  0  0  0  0
   -6.2498    0.6458    1.0686 O   0  0  0  0  0  0  0  0  0  0  0  0
   -5.0993    0.3313    0.4198 C   0  0  0  0  0  0  0  0  0  0  0  0
   -2.6570    0.7807   -1.3814 N   0  0  0  0  0  0  0  0  0  0  0  0
   -2.1490    1.3953   -0.1637 C   0  0  0  0  0  0  0  0  0  0  0  0
   -1.1729    0.4671    0.5600 C   0  0  0  0  0  0  0  0  0  0  0  0
   -0.2587   -0.3500   -0.4084 C   0  0  0  0  0  0  0  0  0  0  0  0
   -0.2477    0.3149   -1.8061 C   0  0  0  0  0  0  0  0  0  0  0  0
   -1.6586    0.4407   -2.3856 C   0  0  0  0  0  0  0  0  0  0  0  0
   -0.9425   -1.6290   -0.5210 O   0  0  0  0  0  0  0  0  0  0  0  0
   -0.2249   -2.7062   -0.9443 C   0  0  0  0  0  0  0  0  0  0  0  0
   -0.9673   -3.8350   -1.2966 C   0  0  0  0  0  0  0  0  0  0  0  0
   -0.3194   -4.9806   -1.7616 C   0  0  0  0  0  0  0  0  0  0  0  0
    1.0676   -4.9898   -1.8684 C   0  0  0  0  0  0  0  0  0  0  0  0
    1.6855   -6.0885   -2.3196 F   0  0  0  0  0  0  0  0  0  0  0  0
    1.8200   -3.8786   -1.5123 C   0  0  0  0  0  0  0  0  0  0  0  0
    1.1626   -2.7402   -1.0387 C   0  0  0  0  0  0  0  0  0  0  0  0
    1.9248   -1.5510   -0.6388 C   0  0  0  0  0  0  0  0  0  0  0  0
    3.0979   -1.4366   -0.9848 O   0  0  0  0  0  0  0  0  0  0  0  0
    1.1677   -0.5160    0.1849 C   0  0  0  0  0  0  0  0  0  0  0  0
    1.9642    0.7769    0.3045 C   0  0  0  0  0  0  0  0  0  0  0  0
    2.5895    0.5429    1.6374 C   0  0  0  0  0  0  0  0  0  0  0  0
    3.6871    1.3958    2.1523 C   0  0  0  0  0  0  0  0  0  0  0  0
    4.2579    1.0883    3.3940 C   0  0  0  0  0  0  0  0  0  0  0  0
    5.2896    1.8751    3.9095 C   0  0  0  0  0  0  0  0  0  0  0  0
    5.7555    2.9727    3.1884 C   0  0  0  0  0  0  0  0  0  0  0  0
    5.1912    3.2851    1.9523 C   0  0  0  0  0  0  0  0  0  0  0  0
    4.1579    2.5001    1.4327 C   0  0  0  0  0  0  0  0  0  0  0  0
    2.0736   -0.4321    2.3160 N   0  0  0  0  0  0  0  0  0  0  0  0
    1.0679   -1.0260    1.5244 O   0  0  0  0  0  0  0  0  0  0  0  0
   -6.6125    2.2323   -1.7830 H   0  0  0  0  0  0  0  0  0  0  0  0
   -7.9249    1.7714    0.6108 H   0  0  0  0  0  0  0  0  0  0  0  0
   -4.4402   -0.3433    0.9490 H   0  0  0  0  0  0  0  0  0  0  0  0
   -1.6342    2.3169   -0.4658 H   0  0  0  0  0  0  0  0  0  0  0  0
   -2.9417    1.7184    0.5133 H   0  0  0  0  0  0  0  0  0  0  0  0
   -1.7524   -0.2266    1.1838 H   0  0  0  0  0  0  0  0  0  0  0  0
   -0.5938    1.0840    1.2551 H   0  0  0  0  0  0  0  0  0  0  0  0
    0.3618   -0.2504   -2.5203 H   0  0  0  0  0  0  0  0  0  0  0  0
    0.2000    1.3142   -1.7391 H   0  0  0  0  0  0  0  0  0  0  0  0
   -1.6698    1.2113   -3.1658 H   0  0  0  0  0  0  0  0  0  0  0  0
   -1.9638   -0.5010   -2.8583 H   0  0  0  0  0  0  0  0  0  0  0  0
   -2.0519   -3.8207   -1.2160 H   0  0  0  0  0  0  0  0  0  0  0  0
   -0.8865   -5.8631   -2.0423 H   0  0  0  0  0  0  0  0  0  0  0  0
    2.9024   -3.9114   -1.5963 H   0  0  0  0  0  0  0  0  0  0  0  0
    1.3383    1.6712    0.3750 H   0  0  0  0  0  0  0  0  0  0  0  0
    2.7013    0.9230   -0.4883 H   0  0  0  0  0  0  0  0  0  0  0  0
    3.9056    0.2328    3.9673 H   0  0  0  0  0  0  0  0  0  0  0  0
    5.7294    1.6285    4.8727 H   0  0  0  0  0  0  0  0  0  0  0  0
    6.5605    3.5837    3.5896 H   0  0  0  0  0  0  0  0  0  0  0  0
    5.5588    4.1411    1.3914 H   0  0  0  0  0  0  0  0  0  0  0  0
    3.7417    2.7719    0.4680 H   0  0  0  0  0  0  0  0  0  0  0  0
  1  2  2  0
  2  3  1  0
  3  4  1  0
  4  5  2  0
  5  6  1  0
  6  7  1  0
  2  8  1  0
  8  9  1  0
  9 10  1  0
 10 11  1  0
 11 12  1  0
 12 13  1  0
 11 14  1  0
 14 15  1  0
 15 16  2  0
 16 17  1  0
 17 18  2  0
 18 19  1  0
 18 20  1  0
 20 21  2  0
 21 22  1  0
 22 23  2  0
 22 24  1  0
 24 25  1  0
 25 26  1  0
 26 27  1  0
 27 28  2  0
 28 29  1  0
 29 30  2  0
 30 31  1  0
 31 32  2  0
 26 33  2  0
 33 34  1  0
  7  3  2  0
 13  8  1  0
 21 15  1  0
 34 24  1  0
 24 11  1  0
 32 27  1  0
  4 35  1  0
  5 36  1  0
  7 37  1  0
  9 38  1  0
  9 39  1  0
 10 40  1  0
 10 41  1  0
 12 42  1  0
 12 43  1  0
 13 44  1  0
 13 45  1  0
 16 46  1  0
 17 47  1  0
 20 48  1  0
 25 49  1  0
 25 50  1  0
 28 51  1  0
 29 52  1  0
 30 53  1  0
 31 54  1  0
 32 55  1  0
M  END
$$$$
