
     RDKit          3D

 68 69  0  0  0  0  0  0  0  0999 V2000
   -0.1398    1.5452    3.7683 C   0  0  0  0  0  0  0  0  0  0  0  0
   -0.6345    0.3843    3.1150 O   0  0  0  0  0  0  0  0  0  0  0  0
    0.4240   -0.4648    2.6694 C   0  0  0  0  0  0  0  0  0  0  0  0
   -0.1358   -1.5443    1.7297 C   0  0  0  0  0  0  0  0  0  0  0  0
    0.1100   -1.2483    0.3042 N   0  0  0  0  0  0  0  0  0  0  0  0
    1.2952   -1.5595   -0.3513 C   0  0  0  0  0  0  0  0  0  0  0  0
    1.4559   -1.3439   -1.5546 O   0  0  0  0  0  0  0  0  0  0  0  0
    2.3955   -2.2343    0.4569 C   0  0  0  0  0  0  0  0  0  0  0  0
    3.7440   -2.1458   -0.2533 C   0  0  0  0  0  0  0  0  0  0  0  0
    4.3340   -0.7493   -0.1481 C   0  0  0  0  0  0  0  0  0  0  0  0
    3.8866    0.0932    0.6256 O   0  0  0  0  0  0  0  0  0  0  0  0
    5.4306   -0.5900   -0.9641 N   0  0  0  0  0  0  0  0  0  0  0  0
    6.2160    0.5393   -1.0274 C   0  0  0  0  0  0  0  0  0  0  0  0
    6.1012    1.7543   -0.3182 C   0  0  0  0  0  0  0  0  0  0  0  0
    7.1554    2.5143   -0.7595 C   0  0  0  0  0  0  0  0  0  0  0  0
    7.6461    3.8673   -0.4498 C   0  0  0  0  0  0  0  0  0  0  0  0
    7.8668    1.8002   -1.6704 O   0  0  0  0  0  0  0  0  0  0  0  0
    7.2758    0.5630   -1.8443 N   0  0  0  0  0  0  0  0  0  0  0  0
   -1.0118   -0.7508   -0.5188 C   0  0  0  0  0  0  0  0  0  0  0  0
   -2.0421   -1.8796   -0.8278 C   0  0  0  0  0  0  0  0  0  0  0  0
   -2.0701   -2.9511   -0.2244 O   0  0  0  0  0  0  0  0  0  0  0  0
   -2.9332   -1.5608   -1.8430 N   0  0  0  0  0  0  0  0  0  0  0  0
   -4.0448   -2.4109   -2.2915 C   0  0  0  0  0  0  0  0  0  0  0  0
   -4.7497   -1.6942   -3.4579 C   0  0  0  0  0  0  0  0  0  0  0  0
   -5.0626   -2.6161   -1.1594 C   0  0  0  0  0  0  0  0  0  0  0  0
   -3.5367   -3.7688   -2.8006 C   0  0  0  0  0  0  0  0  0  0  0  0
   -1.6305    0.5348    0.0184 C   0  0  0  0  0  0  0  0  0  0  0  0
   -2.8270    0.5546    0.7506 C   0  0  0  0  0  0  0  0  0  0  0  0
   -3.3578    1.7597    1.2275 C   0  0  0  0  0  0  0  0  0  0  0  0
   -2.6976    2.9639    0.9871 C   0  0  0  0  0  0  0  0  0  0  0  0
   -3.1049    4.2026    1.4010 O   0  0  0  0  0  0  0  0  0  0  0  0
   -4.2629    4.2521    2.2252 C   0  0  0  0  0  0  0  0  0  0  0  0
   -1.5040    2.9523    0.2645 C   0  0  0  0  0  0  0  0  0  0  0  0
   -0.9702    1.7522   -0.2107 C   0  0  0  0  0  0  0  0  0  0  0  0
   -0.9922    2.1457    4.0985 H   0  0  0  0  0  0  0  0  0  0  0  0
    0.4626    2.1466    3.0806 H   0  0  0  0  0  0  0  0  0  0  0  0
    0.4529    1.2664    4.6441 H   0  0  0  0  0  0  0  0  0  0  0  0
    0.8544   -0.9444    3.5557 H   0  0  0  0  0  0  0  0  0  0  0  0
    1.2047    0.1259    2.1754 H   0  0  0  0  0  0  0  0  0  0  0  0
   -1.2072   -1.6921    1.8961 H   0  0  0  0  0  0  0  0  0  0  0  0
    0.3509   -2.4982    1.9561 H   0  0  0  0  0  0  0  0  0  0  0  0
    2.4748   -1.8018    1.4570 H   0  0  0  0  0  0  0  0  0  0  0  0
    2.1182   -3.2897    0.5597 H   0  0  0  0  0  0  0  0  0  0  0  0
    4.4484   -2.8319    0.2321 H   0  0  0  0  0  0  0  0  0  0  0  0
    3.6654   -2.4363   -1.3068 H   0  0  0  0  0  0  0  0  0  0  0  0
    5.7227   -1.3296   -1.5884 H   0  0  0  0  0  0  0  0  0  0  0  0
    5.3603    2.0408    0.4125 H   0  0  0  0  0  0  0  0  0  0  0  0
    8.3868    3.8297    0.3549 H   0  0  0  0  0  0  0  0  0  0  0  0
    8.1133    4.3264   -1.3264 H   0  0  0  0  0  0  0  0  0  0  0  0
    6.8236    4.5146   -0.1295 H   0  0  0  0  0  0  0  0  0  0  0  0
   -0.6240   -0.4901   -1.5134 H   0  0  0  0  0  0  0  0  0  0  0  0
   -2.9127   -0.6054   -2.1825 H   0  0  0  0  0  0  0  0  0  0  0  0
   -5.5901   -2.2832   -3.8419 H   0  0  0  0  0  0  0  0  0  0  0  0
   -4.0564   -1.5157   -4.2883 H   0  0  0  0  0  0  0  0  0  0  0  0
   -5.1388   -0.7186   -3.1445 H   0  0  0  0  0  0  0  0  0  0  0  0
   -5.4151   -1.6543   -0.7685 H   0  0  0  0  0  0  0  0  0  0  0  0
   -4.6325   -3.1705   -0.3186 H   0  0  0  0  0  0  0  0  0  0  0  0
   -5.9366   -3.1773   -1.5103 H   0  0  0  0  0  0  0  0  0  0  0  0
   -4.3543   -4.3602   -3.2284 H   0  0  0  0  0  0  0  0  0  0  0  0
   -3.0899   -4.3682   -2.0015 H   0  0  0  0  0  0  0  0  0  0  0  0
   -2.7740   -3.6364   -3.5763 H   0  0  0  0  0  0  0  0  0  0  0  0
   -3.3543   -0.3689    0.9825 H   0  0  0  0  0  0  0  0  0  0  0  0
   -4.2813    1.7163    1.7946 H   0  0  0  0  0  0  0  0  0  0  0  0
   -5.1475    3.9019    1.6826 H   0  0  0  0  0  0  0  0  0  0  0  0
   -4.1154    3.6848    3.1506 H   0  0  0  0  0  0  0  0  0  0  0  0
   -4.4334    5.2974    2.4996 H   0  0  0  0  0  0  0  0  0  0  0  0
   -0.9772    3.8850    0.0789 H   0  0  0  0  0  0  0  0  0  0  0  0
   -0.0271    1.7704   -0.7547 H   0  0  0  0  0  0  0  0  0  0  0  0
  1  2  1  0
  2  3  1  0
  3  4  1  0
  4  5  1  0
  5  6  1  0
  6  7  2  0
  6  8  1  0
  8  9  1  0
  9 10  1  0
 10 11  2  0
 10 12  1  0
 12 13  1  0
 13 14  1  0
 14 15  2  0
 15 16  1  0
 15 17  1  0
 17 18  1  0
  5 19  1  0
 19 20  1  0
 20 21  2  0
 20 22  1  0
 22 23  1  0
 23 24  1  0
 23 25  1  0
 23 26  1  0
 19 27  1  0
 27 28  2  0
 28 29  1  0
 29 30  2  0
 30 31  1  0
 31 32  1  0
 30 33  1  0
 33 34  2  0
 18 13  2  0
 34 27  1  0
  1 35  1  0
  1 36  1  0
  1 37  1  0
  3 38  1  0
  3 39  1  0
  4 40  1  0
  4 41  1  0
  8 42  1  0
  8 43  1  0
  9 44  1  0
  9 45  1  0
 12 46  1  0
 14 47  1  0
 16 48  1  0
 16 49  1  0
 16 50  1  0
 19 51  1  0
 22 52  1  0
 24 53  1  0
 24 54  1  0
 24 55  1  0
 25 56  1  0
 25 57  1  0
 25 58  1  0
 26 59  1  0
 26 60  1  0
 26 61  1  0
 28 62  1  0
 29 63  1  0
 32 64  1  0
 32 65  1  0
 32 66  1  0
 33 67  1  0
 34 68  1  0
M  END
$$$$
