
     RDKit          3D

 63 66  0  0  0  0  0  0  0  0999 V2000
    4.7432    2.3879    3.2959 C   0  0  0  0  0  0  0  0  0  0  0  0
    3.7153    2.1068    2.2373 C   0  0  0  0  0  0  0  0  0  0  0  0
    2.4903    1.8658    2.6137 N   0  0  0  0  0  0  0  0  0  0  0  0
    1.4825    1.6164    1.6767 N   0  0  0  0  0  0  0  0  0  0  0  0
    0.1517    1.3723    2.2274 C   0  0  0  0  0  0  0  0  0  0  0  0
   -0.1522   -0.1166    2.3256 C   0  0  0  0  0  0  0  0  0  0  0  0
   -1.5097   -0.3513    2.9470 C   0  0  0  0  0  0  0  0  0  0  0  0
   -2.1720    0.5331    3.4786 O   0  0  0  0  0  0  0  0  0  0  0  0
   -1.9074   -1.6698    2.8858 N   0  0  0  0  0  0  0  0  0  0  0  0
   -3.2204   -2.0855    3.3265 C   0  0  0  0  0  0  0  0  0  0  0  0
   -4.1673   -2.2024    2.1605 C   0  0  0  0  0  0  0  0  0  0  0  0
   -4.4116   -3.4403    1.5517 C   0  0  0  0  0  0  0  0  0  0  0  0
   -5.2789   -3.5403    0.4563 C   0  0  0  0  0  0  0  0  0  0  0  0
   -5.9098   -2.4039   -0.0478 C   0  0  0  0  0  0  0  0  0  0  0  0
   -6.7707   -2.3526   -1.1069 O   0  0  0  0  0  0  0  0  0  0  0  0
   -7.1973   -3.5695   -1.7259 C   0  0  0  0  0  0  0  0  0  0  0  0
   -6.2154   -3.9680   -2.8251 C   0  0  0  0  0  0  0  0  0  0  0  0
   -8.5726   -3.2921   -2.3312 C   0  0  0  0  0  0  0  0  0  0  0  0
   -5.6562   -1.1667    0.5489 C   0  0  0  0  0  0  0  0  0  0  0  0
   -4.7931   -1.0626    1.6418 C   0  0  0  0  0  0  0  0  0  0  0  0
    1.6709    1.5453    0.2806 C   0  0  0  0  0  0  0  0  0  0  0  0
    0.7716    1.2733   -0.5122 O   0  0  0  0  0  0  0  0  0  0  0  0
    3.0474    1.8146   -0.1138 C   0  0  0  0  0  0  0  0  0  0  0  0
    3.5322    1.7997   -1.3571 N   0  0  0  0  0  0  0  0  0  0  0  0
    4.8287    2.1956   -1.2368 N   0  0  0  0  0  0  0  0  0  0  0  0
    5.5643    2.4929   -2.4263 C   0  0  0  0  0  0  0  0  0  0  0  0
    6.7337    3.2628   -2.4134 C   0  0  0  0  0  0  0  0  0  0  0  0
    7.4159    3.5312   -3.6058 C   0  0  0  0  0  0  0  0  0  0  0  0
    6.9325    3.0458   -4.8194 C   0  0  0  0  0  0  0  0  0  0  0  0
    5.7564    2.3025   -4.8481 C   0  0  0  0  0  0  0  0  0  0  0  0
    5.0706    2.0336   -3.6609 C   0  0  0  0  0  0  0  0  0  0  0  0
    5.2142    2.2389    0.1097 C   0  0  0  0  0  0  0  0  0  0  0  0
    6.6176    2.3580    0.5840 C   0  0  0  0  0  0  0  0  0  0  0  0
    4.0415    2.0879    0.8320 C   0  0  0  0  0  0  0  0  0  0  0  0
    5.3241    3.2761    3.0346 H   0  0  0  0  0  0  0  0  0  0  0  0
    5.4090    1.5269    3.3954 H   0  0  0  0  0  0  0  0  0  0  0  0
    4.2571    2.5628    4.2602 H   0  0  0  0  0  0  0  0  0  0  0  0
    0.0919    1.8527    3.2119 H   0  0  0  0  0  0  0  0  0  0  0  0
   -0.5873    1.8656    1.5840 H   0  0  0  0  0  0  0  0  0  0  0  0
   -0.1306   -0.5772    1.3313 H   0  0  0  0  0  0  0  0  0  0  0  0
    0.6011   -0.6178    2.9447 H   0  0  0  0  0  0  0  0  0  0  0  0
   -1.4141   -2.2914    2.2591 H   0  0  0  0  0  0  0  0  0  0  0  0
   -3.1030   -3.0566    3.8202 H   0  0  0  0  0  0  0  0  0  0  0  0
   -3.6204   -1.3897    4.0727 H   0  0  0  0  0  0  0  0  0  0  0  0
   -3.9283   -4.3410    1.9245 H   0  0  0  0  0  0  0  0  0  0  0  0
   -5.4285   -4.5208    0.0184 H   0  0  0  0  0  0  0  0  0  0  0  0
   -7.3222   -4.3766   -0.9941 H   0  0  0  0  0  0  0  0  0  0  0  0
   -5.2206   -4.1682   -2.4151 H   0  0  0  0  0  0  0  0  0  0  0  0
   -6.0944   -3.1583   -3.5544 H   0  0  0  0  0  0  0  0  0  0  0  0
   -6.5543   -4.8654   -3.3522 H   0  0  0  0  0  0  0  0  0  0  0  0
   -9.2781   -2.9901   -1.5489 H   0  0  0  0  0  0  0  0  0  0  0  0
   -8.9713   -4.1774   -2.8362 H   0  0  0  0  0  0  0  0  0  0  0  0
   -8.5279   -2.4661   -3.0504 H   0  0  0  0  0  0  0  0  0  0  0  0
   -6.1344   -0.2717    0.1576 H   0  0  0  0  0  0  0  0  0  0  0  0
   -4.6073   -0.0847    2.0842 H   0  0  0  0  0  0  0  0  0  0  0  0
    7.1222    3.7149   -1.5085 H   0  0  0  0  0  0  0  0  0  0  0  0
    8.3209    4.1340   -3.5885 H   0  0  0  0  0  0  0  0  0  0  0  0
    7.4636    3.2591   -5.7437 H   0  0  0  0  0  0  0  0  0  0  0  0
    5.3665    1.9321   -5.7932 H   0  0  0  0  0  0  0  0  0  0  0  0
    4.1516    1.4508   -3.7141 H   0  0  0  0  0  0  0  0  0  0  0  0
    7.3264    1.9013   -0.1131 H   0  0  0  0  0  0  0  0  0  0  0  0
    6.7576    1.8276    1.5299 H   0  0  0  0  0  0  0  0  0  0  0  0
    6.8846    3.4066    0.7453 H   0  0  0  0  0  0  0  0  0  0  0  0
  1  2  1  0
  2  3  2  0
  3  4  1  0
  4  5  1  0
  5  6  1  0
  6  7  1  0
  7  8  2  0
  7  9  1  0
  9 10  1  0
 10 11  1  0
 11 12  2  0
 12 13  1  0
 13 14  2  0
 14 15  1  0
 15 16  1  0
 16 17  1  0
 16 18  1  0
 14 19  1  0
 19 20  2  0
  4 21  1  0
 21 22  2  0
 21 23  1  0
 23 24  2  0
 24 25  1  0
 25 26  1  0
 26 27  2  0
 27 28  1  0
 28 29  2  0
 29 30  1  0
 30 31  2  0
 25 32  1  0
 32 33  1  0
 32 34  2  0
 34  2  1  0
 20 11  1  0
 34 23  1  0
 31 26  1  0
  1 35  1  0
  1 36  1  0
  1 37  1  0
  5 38  1  0
  5 39  1  0
  6 40  1  0
  6 41  1  0
  9 42  1  0
 10 43  1  0
 10 44  1  0
 12 45  1  0
 13 46  1  0
 16 47  1  0
 17 48  1  0
 17 49  1  0
 17 50  1  0
 18 51  1  0
 18 52  1  0
 18 53  1  0
 19 54  1  0
 20 55  1  0
 27 56  1  0
 28 57  1  0
 29 58  1  0
 30 59  1  0
 31 60  1  0
 33 61  1  0
 33 62  1  0
 33 63  1  0
M  END
$$$$
