
     RDKit          3D

 78 81  0  0  0  0  0  0  0  0999 V2000
   -3.4805    1.3577    0.1612 C   0  0  0  0  0  0  0  0  0  0  0  0
   -2.3025    2.3415    0.0387 C   0  0  0  0  0  0  0  0  0  0  0  0
   -2.2562    3.1885    1.3177 C   0  0  0  0  0  0  0  0  0  0  0  0
   -1.4164    4.3841    1.1996 N   0  0  0  0  0  0  0  0  0  0  0  0
   -2.0421    5.6974    0.8991 C   0  0  0  0  0  0  0  0  0  0  0  0
   -3.0708    5.6543   -0.2352 C   0  0  0  0  0  0  0  0  0  0  0  0
   -2.6223    6.3358    2.1765 C   0  0  0  0  0  0  0  0  0  0  0  0
   -3.2064    7.6104    1.9168 O   0  0  0  0  0  0  0  0  0  0  0  0
   -0.1275    4.4218    1.7478 C   0  0  0  0  0  0  0  0  0  0  0  0
    0.4842    5.4639    1.9701 O   0  0  0  0  0  0  0  0  0  0  0  0
    0.5147    3.1530    2.1449 C   0  0  0  0  0  0  0  0  0  0  0  0
    0.9862    3.0638    3.4591 C   0  0  0  0  0  0  0  0  0  0  0  0
    1.6041    1.8982    3.8840 C   0  0  0  0  0  0  0  0  0  0  0  0
    1.8044    0.8501    2.9821 C   0  0  0  0  0  0  0  0  0  0  0  0
    1.3883    0.9427    1.6435 C   0  0  0  0  0  0  0  0  0  0  0  0
    1.6838   -0.0761    0.6973 N   0  0  0  0  0  0  0  0  0  0  0  0
    2.6428   -1.0734    0.8494 C   0  0  0  0  0  0  0  0  0  0  0  0
    3.4288   -1.1363    1.7876 O   0  0  0  0  0  0  0  0  0  0  0  0
    2.5995   -1.9915   -0.1847 N   0  0  0  0  0  0  0  0  0  0  0  0
    3.2917   -3.2239   -0.2584 C   0  0  0  0  0  0  0  0  0  0  0  0
    3.2063   -3.9381   -1.4597 C   0  0  0  0  0  0  0  0  0  0  0  0
    3.8100   -5.1925   -1.5968 C   0  0  0  0  0  0  0  0  0  0  0  0
    4.5200   -5.7604   -0.5320 C   0  0  0  0  0  0  0  0  0  0  0  0
    5.1464   -7.1244   -0.6734 C   0  0  0  0  0  0  0  0  0  0  0  0
    6.0893   -7.3923    0.2730 F   0  0  0  0  0  0  0  0  0  0  0  0
    4.2286   -8.1282   -0.5798 F   0  0  0  0  0  0  0  0  0  0  0  0
    5.7682   -7.2995   -1.8740 F   0  0  0  0  0  0  0  0  0  0  0  0
    4.6132   -5.0408    0.6675 C   0  0  0  0  0  0  0  0  0  0  0  0
    4.0067   -3.7846    0.8014 C   0  0  0  0  0  0  0  0  0  0  0  0
    0.6689    2.0868    1.2447 C   0  0  0  0  0  0  0  0  0  0  0  0
    0.2162    2.2599   -0.0411 O   0  0  0  0  0  0  0  0  0  0  0  0
   -1.0070    1.5578   -0.3303 C   0  0  0  0  0  0  0  0  0  0  0  0
   -1.0082    1.3550   -1.8736 C   0  0  0  0  0  0  0  0  0  0  0  0
   -0.0124    0.3820   -2.3396 N   0  0  0  0  0  0  0  0  0  0  0  0
    1.2302    0.9492   -2.8597 C   0  0  0  0  0  0  0  0  0  0  0  0
   -0.1025   -0.9993   -2.2032 C   0  0  0  0  0  0  0  0  0  0  0  0
    0.8941   -1.6899   -2.3821 O   0  0  0  0  0  0  0  0  0  0  0  0
   -1.3247   -1.4793   -1.8117 N   0  0  0  0  0  0  0  0  0  0  0  0
   -1.7020   -2.8191   -1.5723 C   0  0  0  0  0  0  0  0  0  0  0  0
   -3.0396   -3.0434   -1.2127 C   0  0  0  0  0  0  0  0  0  0  0  0
   -3.5053   -4.3389   -0.9704 C   0  0  0  0  0  0  0  0  0  0  0  0
   -2.6314   -5.4125   -1.0903 C   0  0  0  0  0  0  0  0  0  0  0  0
   -3.0822   -6.6563   -0.8758 F   0  0  0  0  0  0  0  0  0  0  0  0
   -1.3042   -5.2120   -1.4398 C   0  0  0  0  0  0  0  0  0  0  0  0
   -0.8387   -3.9133   -1.6757 C   0  0  0  0  0  0  0  0  0  0  0  0
   -3.3393    0.6936    1.0170 H   0  0  0  0  0  0  0  0  0  0  0  0
   -4.4226    1.8963    0.3089 H   0  0  0  0  0  0  0  0  0  0  0  0
   -3.5943    0.7401   -0.7315 H   0  0  0  0  0  0  0  0  0  0  0  0
   -2.5329    3.0136   -0.7965 H   0  0  0  0  0  0  0  0  0  0  0  0
   -3.2659    3.5232    1.5822 H   0  0  0  0  0  0  0  0  0  0  0  0
   -1.9340    2.5772    2.1677 H   0  0  0  0  0  0  0  0  0  0  0  0
   -1.2452    6.3654    0.5434 H   0  0  0  0  0  0  0  0  0  0  0  0
   -3.4424    6.6604   -0.4627 H   0  0  0  0  0  0  0  0  0  0  0  0
   -3.9392    5.0335    0.0132 H   0  0  0  0  0  0  0  0  0  0  0  0
   -2.6175    5.2571   -1.1498 H   0  0  0  0  0  0  0  0  0  0  0  0
   -1.8319    6.4644    2.9247 H   0  0  0  0  0  0  0  0  0  0  0  0
   -3.3942    5.6987    2.6168 H   0  0  0  0  0  0  0  0  0  0  0  0
   -3.4104    8.0048    2.7829 H   0  0  0  0  0  0  0  0  0  0  0  0
    0.8705    3.9033    4.1414 H   0  0  0  0  0  0  0  0  0  0  0  0
    1.9670    1.8089    4.9038 H   0  0  0  0  0  0  0  0  0  0  0  0
    2.3125   -0.0336    3.3607 H   0  0  0  0  0  0  0  0  0  0  0  0
    1.3580    0.0903   -0.2425 H   0  0  0  0  0  0  0  0  0  0  0  0
    2.0326   -1.7648   -0.9969 H   0  0  0  0  0  0  0  0  0  0  0  0
    2.6697   -3.5254   -2.3110 H   0  0  0  0  0  0  0  0  0  0  0  0
    3.7241   -5.7193   -2.5444 H   0  0  0  0  0  0  0  0  0  0  0  0
    5.1514   -5.4577    1.5167 H   0  0  0  0  0  0  0  0  0  0  0  0
    4.0968   -3.2819    1.7595 H   0  0  0  0  0  0  0  0  0  0  0  0
   -1.0121    0.5784    0.1659 H   0  0  0  0  0  0  0  0  0  0  0  0
   -0.7962    2.3111   -2.3728 H   0  0  0  0  0  0  0  0  0  0  0  0
   -1.9875    1.0372   -2.2376 H   0  0  0  0  0  0  0  0  0  0  0  0
    1.7617    1.4530   -2.0488 H   0  0  0  0  0  0  0  0  0  0  0  0
    1.8858    0.1912   -3.2949 H   0  0  0  0  0  0  0  0  0  0  0  0
    0.9881    1.6727   -3.6431 H   0  0  0  0  0  0  0  0  0  0  0  0
   -2.0846   -0.8207   -1.7818 H   0  0  0  0  0  0  0  0  0  0  0  0
   -3.7385   -2.2159   -1.1172 H   0  0  0  0  0  0  0  0  0  0  0  0
   -4.5395   -4.5181   -0.6966 H   0  0  0  0  0  0  0  0  0  0  0  0
   -0.6353   -6.0655   -1.5322 H   0  0  0  0  0  0  0  0  0  0  0  0
    0.2013   -3.7996   -1.9524 H   0  0  0  0  0  0  0  0  0  0  0  0
  1  2  1  0
  2  3  1  0
  3  4  1  0
  4  5  1  0
  5  6  1  0
  5  7  1  0
  7  8  1  0
  4  9  1  0
  9 10  2  0
  9 11  1  0
 11 12  2  0
 12 13  1  0
 13 14  2  0
 14 15  1  0
 15 16  1  0
 16 17  1  0
 17 18  2  0
 17 19  1  0
 19 20  1  0
 20 21  2  0
 21 22  1  0
 22 23  2  0
 23 24  1  0
 24 25  1  0
 24 26  1  0
 24 27  1  0
 23 28  1  0
 28 29  2  0
 15 30  2  0
 30 31  1  0
 31 32  1  0
 32 33  1  0
 33 34  1  0
 34 35  1  0
 34 36  1  0
 36 37  2  0
 36 38  1  0
 38 39  1  0
 39 40  2  0
 40 41  1  0
 41 42  2  0
 42 43  1  0
 42 44  1  0
 44 45  2  0
 32  2  1  0
 45 39  1  0
 30 11  1  0
 29 20  1  0
  1 46  1  0
  1 47  1  0
  1 48  1  0
  2 49  1  0
  3 50  1  0
  3 51  1  0
  5 52  1  0
  6 53  1  0
  6 54  1  0
  6 55  1  0
  7 56  1  0
  7 57  1  0
  8 58  1  0
 12 59  1  0
 13 60  1  0
 14 61  1  0
 16 62  1  0
 19 63  1  0
 21 64  1  0
 22 65  1  0
 28 66  1  0
 29 67  1  0
 32 68  1  0
 33 69  1  0
 33 70  1  0
 35 71  1  0
 35 72  1  0
 35 73  1  0
 38 74  1  0
 40 75  1  0
 41 76  1  0
 44 77  1  0
 45 78  1  0
M  END
$$$$
