
     RDKit          3D

 33 34  0  0  0  0  0  0  0  0999 V2000
   -2.0776    3.7110    1.6774 C   0  0  0  0  0  0  0  0  0  0  0  0
   -1.3033    2.5419    1.4093 O   0  0  0  0  0  0  0  0  0  0  0  0
   -0.3078    2.7494    0.5150 C   0  0  0  0  0  0  0  0  0  0  0  0
    0.0555    3.8057    0.0293 O   0  0  0  0  0  0  0  0  0  0  0  0
    0.4022    1.4799    0.3212 C   0  0  0  0  0  0  0  0  0  0  0  0
    1.7362    1.4517    0.7229 C   0  0  0  0  0  0  0  0  0  0  0  0
    2.4058    0.2555    0.6153 C   0  0  0  0  0  0  0  0  0  0  0  0
    3.7199    0.2464    1.0297 O   0  0  0  0  0  0  0  0  0  0  0  0
    4.3545   -1.0186    0.8697 C   0  0  0  0  0  0  0  0  0  0  0  0
    1.8348   -0.8741    0.1511 N   0  0  0  0  0  0  0  0  0  0  0  0
    0.5393   -0.8257   -0.2537 C   0  0  0  0  0  0  0  0  0  0  0  0
   -0.2061    0.3371   -0.2047 C   0  0  0  0  0  0  0  0  0  0  0  0
   -1.5670    0.3157   -0.7534 C   0  0  0  0  0  0  0  0  0  0  0  0
   -2.1497    1.3691   -0.9899 O   0  0  0  0  0  0  0  0  0  0  0  0
   -2.1066   -0.9312   -1.0300 N   0  0  0  0  0  0  0  0  0  0  0  0
   -3.4805   -0.9782   -1.4983 C   0  0  0  0  0  0  0  0  0  0  0  0
   -1.3621   -2.0991   -1.1266 C   0  0  0  0  0  0  0  0  0  0  0  0
   -1.8542   -3.1459   -1.5518 O   0  0  0  0  0  0  0  0  0  0  0  0
   -0.0391   -2.0164   -0.7382 N   0  0  0  0  0  0  0  0  0  0  0  0
    0.8080   -3.1993   -0.7948 C   0  0  0  0  0  0  0  0  0  0  0  0
   -2.8945    3.4301    2.3478 H   0  0  0  0  0  0  0  0  0  0  0  0
   -2.5097    4.1092    0.7537 H   0  0  0  0  0  0  0  0  0  0  0  0
   -1.4636    4.4676    2.1758 H   0  0  0  0  0  0  0  0  0  0  0  0
    2.2312    2.3331    1.1176 H   0  0  0  0  0  0  0  0  0  0  0  0
    5.3885   -0.9188    1.2136 H   0  0  0  0  0  0  0  0  0  0  0  0
    3.8707   -1.7850    1.4852 H   0  0  0  0  0  0  0  0  0  0  0  0
    4.3807   -1.3189   -0.1836 H   0  0  0  0  0  0  0  0  0  0  0  0
   -4.0662   -0.1518   -1.0847 H   0  0  0  0  0  0  0  0  0  0  0  0
   -3.9536   -1.9220   -1.2102 H   0  0  0  0  0  0  0  0  0  0  0  0
   -3.4768   -0.9022   -2.5904 H   0  0  0  0  0  0  0  0  0  0  0  0
    1.1415   -3.4552    0.2163 H   0  0  0  0  0  0  0  0  0  0  0  0
    0.2765   -4.0625   -1.2049 H   0  0  0  0  0  0  0  0  0  0  0  0
    1.6728   -2.9985   -1.4357 H   0  0  0  0  0  0  0  0  0  0  0  0
  1  2  1  0
  2  3  1  0
  3  4  2  0
  3  5  1  0
  5  6  2  0
  6  7  1  0
  7  8  1  0
  8  9  1  0
  7 10  2  0
 10 11  1  0
 11 12  2  0
 12 13  1  0
 13 14  2  0
 13 15  1  0
 15 16  1  0
 15 17  1  0
 17 18  2  0
 17 19  1  0
 19 20  1  0
 12  5  1  0
 19 11  1  0
  1 21  1  0
  1 22  1  0
  1 23  1  0
  6 24  1  0
  9 25  1  0
  9 26  1  0
  9 27  1  0
 16 28  1  0
 16 29  1  0
 16 30  1  0
 20 31  1  0
 20 32  1  0
 20 33  1  0
M  END
$$$$
