
     RDKit          3D

 33 34  0  0  0  0  0  0  0  0999 V2000
   -1.9962    3.8200    1.5272 C   0  0  0  0  0  0  0  0  0  0  0  0
   -1.2369    2.6338    1.2929 O   0  0  0  0  0  0  0  0  0  0  0  0
   -0.2944    2.7794    0.3314 C   0  0  0  0  0  0  0  0  0  0  0  0
    0.0354    3.7995   -0.2468 O   0  0  0  0  0  0  0  0  0  0  0  0
    0.4110    1.5008    0.1871 C   0  0  0  0  0  0  0  0  0  0  0  0
    1.7660    1.5037    0.5134 C   0  0  0  0  0  0  0  0  0  0  0  0
    2.4359    0.3044    0.4522 C   0  0  0  0  0  0  0  0  0  0  0  0
    3.7714    0.3270    0.7915 O   0  0  0  0  0  0  0  0  0  0  0  0
    4.4014   -0.9465    0.6910 C   0  0  0  0  0  0  0  0  0  0  0  0
    1.8463   -0.8563    0.1015 N   0  0  0  0  0  0  0  0  0  0  0  0
    0.5293   -0.8393   -0.2317 C   0  0  0  0  0  0  0  0  0  0  0  0
   -0.2194    0.3224   -0.2214 C   0  0  0  0  0  0  0  0  0  0  0  0
   -1.6103    0.2582   -0.6850 C   0  0  0  0  0  0  0  0  0  0  0  0
   -2.2107    1.2897   -0.9679 O   0  0  0  0  0  0  0  0  0  0  0  0
   -2.1584   -1.0066   -0.8301 N   0  0  0  0  0  0  0  0  0  0  0  0
   -3.5596   -1.0947   -1.2002 C   0  0  0  0  0  0  0  0  0  0  0  0
   -1.4124   -2.1756   -0.8958 C   0  0  0  0  0  0  0  0  0  0  0  0
   -1.9227   -3.2502   -1.2180 O   0  0  0  0  0  0  0  0  0  0  0  0
   -0.0684   -2.0623   -0.5975 N   0  0  0  0  0  0  0  0  0  0  0  0
    0.7828   -3.2434   -0.6264 C   0  0  0  0  0  0  0  0  0  0  0  0
   -1.3559    4.6045    1.9426 H   0  0  0  0  0  0  0  0  0  0  0  0
   -2.4776    4.1601    0.6048 H   0  0  0  0  0  0  0  0  0  0  0  0
   -2.7750    3.5862    2.2588 H   0  0  0  0  0  0  0  0  0  0  0  0
    2.2768    2.4115    0.8186 H   0  0  0  0  0  0  0  0  0  0  0  0
    3.9556   -1.6646    1.3882 H   0  0  0  0  0  0  0  0  0  0  0  0
    4.3699   -1.3252   -0.3366 H   0  0  0  0  0  0  0  0  0  0  0  0
    5.4523   -0.8216    0.9684 H   0  0  0  0  0  0  0  0  0  0  0  0
   -4.1191   -0.2238   -0.8464 H   0  0  0  0  0  0  0  0  0  0  0  0
   -4.0084   -1.9976   -0.7747 H   0  0  0  0  0  0  0  0  0  0  0  0
   -3.6278   -1.1471   -2.2918 H   0  0  0  0  0  0  0  0  0  0  0  0
    0.2322   -4.1355   -0.9361 H   0  0  0  0  0  0  0  0  0  0  0  0
    1.5999   -3.0860   -1.3382 H   0  0  0  0  0  0  0  0  0  0  0  0
    1.1872   -3.4248    0.3748 H   0  0  0  0  0  0  0  0  0  0  0  0
  1  2  1  0
  2  3  1  0
  3  4  2  0
  3  5  1  0
  5  6  2  0
  6  7  1  0
  7  8  1  0
  8  9  1  0
  7 10  2  0
 10 11  1  0
 11 12  2  0
 12 13  1  0
 13 14  2  0
 13 15  1  0
 15 16  1  0
 15 17  1  0
 17 18  2  0
 17 19  1  0
 19 20  1  0
 12  5  1  0
 19 11  1  0
  1 21  1  0
  1 22  1  0
  1 23  1  0
  6 24  1  0
  9 25  1  0
  9 26  1  0
  9 27  1  0
 16 28  1  0
 16 29  1  0
 16 30  1  0
 20 31  1  0
 20 32  1  0
 20 33  1  0
M  END
$$$$
