
     RDKit          3D

 35 35  0  0  0  0  0  0  0  0999 V2000
   -4.5394    0.9896   -0.0571 C   0  0  0  0  0  0  0  0  0  0  0  0
   -3.2726    0.1251    0.0155 C   0  0  0  0  0  0  0  0  0  0  0  0
   -3.6428   -1.3568   -0.1268 C   0  0  0  0  0  0  0  0  0  0  0  0
   -2.2580    0.6234   -0.9384 N   0  0  0  0  0  0  0  0  0  0  0  0
   -2.5647    0.3170   -2.3384 C   0  0  0  0  0  0  0  0  0  0  0  0
   -0.8847    0.1833   -0.6220 C   0  0  0  0  0  0  0  0  0  0  0  0
   -0.2667    0.8869    0.5985 C   0  0  0  0  0  0  0  0  0  0  0  0
    1.0343    0.3404    0.8901 O   0  0  0  0  0  0  0  0  0  0  0  0
    2.0558    0.8417    0.1541 C   0  0  0  0  0  0  0  0  0  0  0  0
    1.9957    1.6986   -0.7081 O   0  0  0  0  0  0  0  0  0  0  0  0
    3.2921    0.1564    0.5664 C   0  0  0  0  0  0  0  0  0  0  0  0
    3.7146    0.2941    1.8975 C   0  0  0  0  0  0  0  0  0  0  0  0
    4.8945   -0.3171    2.3221 C   0  0  0  0  0  0  0  0  0  0  0  0
    5.6535   -1.0636    1.4219 C   0  0  0  0  0  0  0  0  0  0  0  0
    5.2334   -1.2039    0.0968 C   0  0  0  0  0  0  0  0  0  0  0  0
    4.0511   -0.5942   -0.3365 C   0  0  0  0  0  0  0  0  0  0  0  0
    3.5254   -0.8778   -2.1379 Br  0  0  0  0  0  0  0  0  0  0  0  0
   -5.2230    0.7314    0.7597 H   0  0  0  0  0  0  0  0  0  0  0  0
   -5.0850    0.8512   -0.9959 H   0  0  0  0  0  0  0  0  0  0  0  0
   -4.2949    2.0527    0.0452 H   0  0  0  0  0  0  0  0  0  0  0  0
   -2.8937    0.2642    1.0341 H   0  0  0  0  0  0  0  0  0  0  0  0
   -4.3298   -1.6529    0.6741 H   0  0  0  0  0  0  0  0  0  0  0  0
   -4.1441   -1.5656   -1.0776 H   0  0  0  0  0  0  0  0  0  0  0  0
   -2.7627   -2.0025   -0.0522 H   0  0  0  0  0  0  0  0  0  0  0  0
   -3.5660    0.6568   -2.6192 H   0  0  0  0  0  0  0  0  0  0  0  0
   -2.4841   -0.7528   -2.5598 H   0  0  0  0  0  0  0  0  0  0  0  0
   -1.8726    0.8491   -3.0017 H   0  0  0  0  0  0  0  0  0  0  0  0
   -0.2282    0.3994   -1.4753 H   0  0  0  0  0  0  0  0  0  0  0  0
   -0.8282   -0.9046   -0.4937 H   0  0  0  0  0  0  0  0  0  0  0  0
   -0.2067    1.9721    0.4499 H   0  0  0  0  0  0  0  0  0  0  0  0
   -0.8651    0.7202    1.4983 H   0  0  0  0  0  0  0  0  0  0  0  0
    3.1291    0.8816    2.6013 H   0  0  0  0  0  0  0  0  0  0  0  0
    5.2237   -0.2088    3.3531 H   0  0  0  0  0  0  0  0  0  0  0  0
    6.5743   -1.5397    1.7518 H   0  0  0  0  0  0  0  0  0  0  0  0
    5.8352   -1.7950   -0.5901 H   0  0  0  0  0  0  0  0  0  0  0  0
  1  2  1  0
  2  3  1  0
  2  4  1  0
  4  5  1  0
  4  6  1  0
  6  7  1  0
  7  8  1  0
  8  9  1  0
  9 10  2  0
  9 11  1  0
 11 12  2  0
 12 13  1  0
 13 14  2  0
 14 15  1  0
 15 16  2  0
 16 17  1  0
 16 11  1  0
  1 18  1  0
  1 19  1  0
  1 20  1  0
  2 21  1  0
  3 22  1  0
  3 23  1  0
  3 24  1  0
  5 25  1  0
  5 26  1  0
  5 27  1  0
  6 28  1  0
  6 29  1  0
  7 30  1  0
  7 31  1  0
 12 32  1  0
 13 33  1  0
 14 34  1  0
 15 35  1  0
M  END
$$$$
