
     RDKit          3D

 33 35  0  0  0  0  0  0  0  0999 V2000
    5.0159    1.0676   -1.3907 C   0  0  0  0  0  0  0  0  0  0  0  0
    4.3051    0.3759   -0.3401 N   0  0  0  0  0  0  0  0  0  0  0  0
    4.8507   -0.2934    0.7125 C   0  0  0  0  0  0  0  0  0  0  0  0
    3.7809   -0.7899    1.4286 C   0  0  0  0  0  0  0  0  0  0  0  0
    3.8673   -1.5979    2.5971 N   0  0  0  0  0  4  0  0  0  0  0  0
    3.3056   -2.6975    2.5552 O   0  0  0  0  0  0  0  0  0  0  0  0
    4.5627   -1.1576    3.5207 O   0  0  0  0  0  1  0  0  0  0  0  0
    2.6231   -0.3425    0.7573 C   0  0  0  0  0  0  0  0  0  0  0  0
    1.2141   -0.5264    1.1435 C   0  0  0  0  0  0  0  0  0  0  0  0
    0.9124   -0.9999    2.2291 O   0  0  0  0  0  0  0  0  0  0  0  0
    0.3661   -0.0678    0.1515 N   0  0  0  0  0  0  0  0  0  0  0  0
   -1.0180   -0.0689    0.1437 C   0  0  0  0  0  0  0  0  0  0  0  0
   -1.9145   -0.7323    1.4535 S   0  0  0  0  0  0  0  0  0  0  0  0
   -3.3569   -0.3635    0.7013 C   0  0  0  0  0  0  0  0  0  0  0  0
   -3.2112    0.2445   -0.5131 C   0  0  0  0  0  0  0  0  0  0  0  0
   -1.8520    0.4232   -0.8560 C   0  0  0  0  0  0  0  0  0  0  0  0
   -1.3851    1.0271   -2.0655 C   0  0  0  0  0  0  0  0  0  0  0  0
   -0.9884    1.5142   -3.0414 N   0  0  0  0  0  0  0  0  0  0  0  0
   -4.5320    0.5374   -1.1249 C   0  0  0  0  0  0  0  0  0  0  0  0
   -5.5079    0.3236    0.0756 C   0  0  0  0  0  0  0  0  0  0  0  0
   -4.7643   -0.5786    1.1088 C   0  0  0  0  0  0  0  0  0  0  0  0
    2.9566    0.3558   -0.3549 N   0  0  0  0  0  0  0  0  0  0  0  0
    6.0916    0.9813   -1.2190 H   0  0  0  0  0  0  0  0  0  0  0  0
    4.7169    2.1185   -1.3731 H   0  0  0  0  0  0  0  0  0  0  0  0
    4.7508    0.6067   -2.3455 H   0  0  0  0  0  0  0  0  0  0  0  0
    5.9191   -0.3752    0.8617 H   0  0  0  0  0  0  0  0  0  0  0  0
    0.8531    0.3331   -0.6495 H   0  0  0  0  0  0  0  0  0  0  0  0
   -4.7495   -0.1762   -1.9265 H   0  0  0  0  0  0  0  0  0  0  0  0
   -4.6033    1.5564   -1.5152 H   0  0  0  0  0  0  0  0  0  0  0  0
   -5.7192    1.2964    0.5394 H   0  0  0  0  0  0  0  0  0  0  0  0
   -6.4649   -0.1048   -0.2381 H   0  0  0  0  0  0  0  0  0  0  0  0
   -4.9733   -0.2621    2.1342 H   0  0  0  0  0  0  0  0  0  0  0  0
   -5.0516   -1.6271    0.9798 H   0  0  0  0  0  0  0  0  0  0  0  0
  1  2  1  0
  2  3  1  0
  3  4  2  0
  4  5  1  0
  5  6  2  0
  5  7  1  0
  4  8  1  0
  8  9  1  0
  9 10  2  0
  9 11  1  0
 11 12  1  0
 12 13  1  0
 13 14  1  0
 14 15  2  0
 15 16  1  0
 16 17  1  0
 17 18  3  0
 15 19  1  0
 19 20  1  0
 20 21  1  0
  8 22  2  0
 22  2  1  0
 16 12  2  0
 21 14  1  0
  1 23  1  0
  1 24  1  0
  1 25  1  0
  3 26  1  0
 11 27  1  0
 19 28  1  0
 19 29  1  0
 20 30  1  0
 20 31  1  0
 21 32  1  0
 21 33  1  0
M  CHG  2   5   1   7  -1
M  END
$$$$
