
     RDKit          3D

 39 42  0  0  0  0  0  0  0  0999 V2000
   -8.1509   -1.8352    0.2031 O   0  0  0  0  0  0  0  0  0  0  0  0
   -7.3444   -1.9945   -0.6962 C   0  0  0  0  0  0  0  0  0  0  0  0
   -7.5673   -2.8960   -1.6714 O   0  0  0  0  0  0  0  0  0  0  0  0
   -6.0463   -1.2688   -0.8887 C   0  0  0  0  0  0  0  0  0  0  0  0
   -5.8151   -0.2849    0.2540 C   0  0  0  0  0  0  0  0  0  0  0  0
   -4.5538    0.4464    0.0956 N   0  0  0  0  0  0  0  0  0  0  0  0
   -3.3879   -0.1383    0.5599 C   0  0  0  0  0  0  0  0  0  0  0  0
   -3.3069   -1.2345    1.0971 O   0  0  0  0  0  0  0  0  0  0  0  0
   -2.2183    0.7460    0.2983 C   0  0  0  0  0  0  0  0  0  0  0  0
   -0.9898    0.3593    0.6644 C   0  0  0  0  0  0  0  0  0  0  0  0
    0.2281    1.0704    0.4737 C   0  0  0  0  0  0  0  0  0  0  0  0
    0.5232    2.4185    0.3298 C   0  0  0  0  0  0  0  0  0  0  0  0
    1.9270    2.5480    0.1866 C   0  0  0  0  0  0  0  0  0  0  0  0
    2.4645    1.2765    0.2617 C   0  0  0  0  0  0  0  0  0  0  0  0
    3.8357    0.8405    0.1812 C   0  0  0  0  0  0  0  0  0  0  0  0
    4.1690   -0.4287    0.2810 N   0  0  0  0  0  0  0  0  0  0  0  0
    5.5408   -0.5723    0.1704 C   0  0  0  0  0  0  0  0  0  0  0  0
    6.2522   -1.7876    0.2304 C   0  0  0  0  0  0  0  0  0  0  0  0
    7.6451   -1.7859    0.1028 C   0  0  0  0  0  0  0  0  0  0  0  0
    8.3338   -0.5913   -0.0831 C   0  0  0  0  0  0  0  0  0  0  0  0
    7.6514    0.6277   -0.1461 C   0  0  0  0  0  0  0  0  0  0  0  0
    6.2525    0.6135   -0.0167 C   0  0  0  0  0  0  0  0  0  0  0  0
    5.1440    1.9289   -0.0506 S   0  0  0  0  0  0  0  0  0  0  0  0
    1.4289    0.3974    0.4462 O   0  0  0  0  0  0  0  0  0  0  0  0
   -2.7360    2.1608   -0.5217 S   0  0  0  0  0  0  0  0  0  0  0  0
   -4.4205    1.6584   -0.5467 C   0  0  0  0  0  0  0  0  0  0  0  0
   -5.6083    2.5781   -1.2702 S   0  0  0  0  0  0  0  0  0  0  0  0
   -8.4297   -3.3019   -1.4405 H   0  0  0  0  0  0  0  0  0  0  0  0
   -6.0806   -0.7406   -1.8473 H   0  0  0  0  0  0  0  0  0  0  0  0
   -5.2362   -2.0053   -0.9239 H   0  0  0  0  0  0  0  0  0  0  0  0
   -6.6467    0.4241    0.3262 H   0  0  0  0  0  0  0  0  0  0  0  0
   -5.7852   -0.8263    1.2081 H   0  0  0  0  0  0  0  0  0  0  0  0
   -0.8714   -0.6186    1.1305 H   0  0  0  0  0  0  0  0  0  0  0  0
   -0.1848    3.2350    0.3382 H   0  0  0  0  0  0  0  0  0  0  0  0
    2.4762    3.4697    0.0529 H   0  0  0  0  0  0  0  0  0  0  0  0
    5.7098   -2.7167    0.3756 H   0  0  0  0  0  0  0  0  0  0  0  0
    8.1897   -2.7261    0.1498 H   0  0  0  0  0  0  0  0  0  0  0  0
    9.4176   -0.6042   -0.1809 H   0  0  0  0  0  0  0  0  0  0  0  0
    8.1905    1.5589   -0.2913 H   0  0  0  0  0  0  0  0  0  0  0  0
  1  2  2  0
  2  3  1  0
  2  4  1  0
  4  5  1  0
  5  6  1  0
  6  7  1  0
  7  8  2  0
  7  9  1  0
  9 10  2  3
 10 11  1  0
 11 12  2  0
 12 13  1  0
 13 14  2  0
 14 15  1  0
 15 16  2  0
 16 17  1  0
 17 18  2  0
 18 19  1  0
 19 20  2  0
 20 21  1  0
 21 22  2  0
 22 23  1  0
 14 24  1  0
  9 25  1  0
 25 26  1  0
 26 27  2  0
 26  6  1  0
 24 11  1  0
 23 15  1  0
 22 17  1  0
  3 28  1  0
  4 29  1  0
  4 30  1  0
  5 31  1  0
  5 32  1  0
 10 33  1  0
 12 34  1  0
 13 35  1  0
 18 36  1  0
 19 37  1  0
 20 38  1  0
 21 39  1  0
M  END
$$$$
