
     RDKit          3D

 27 27  0  0  0  0  0  0  0  0999 V2000
   -1.7021    0.7665    0.4369 C   0  0  0  0  0  0  0  0  0  0  0  0
   -1.1235    0.3017   -0.9018 C   0  0  0  0  0  0  0  0  0  0  0  0
   -1.6900    1.1928   -2.0228 C   0  0  0  0  0  0  0  0  0  0  0  0
   -1.5506   -1.1497   -1.1650 C   0  0  0  0  0  0  0  0  0  0  0  0
    0.6904    0.4616   -0.9398 S   0  0  0  0  0  6  0  0  0  0  0  0
    1.1878   -0.1557   -2.1553 O   0  0  0  0  0  0  0  0  0  0  0  0
    1.0934    1.8063   -0.5844 O   0  0  0  0  0  0  0  0  0  0  0  0
    1.3401   -0.5612    0.3126 C   0  0  0  0  0  0  0  0  0  0  0  0
    1.5418   -1.9678    0.1113 C   0  0  0  0  0  0  0  0  0  0  0  0
    2.1444   -2.5708    1.1906 C   0  0  0  0  0  0  0  0  0  0  0  0
    2.5029   -1.4499    2.4254 S   0  0  0  0  0  0  0  0  0  0  0  0
    1.8225   -0.1427    1.5411 C   0  0  0  0  0  0  0  0  0  0  0  0
    1.8602    1.1581    2.1548 C   0  0  0  0  0  0  0  0  0  0  0  0
    2.7931    1.6998    2.7285 O   0  0  0  0  0  0  0  0  0  0  0  0
    0.6481    1.7492    2.1256 O   0  0  0  0  0  0  0  0  0  0  0  0
   -1.4541    1.8140    0.6359 H   0  0  0  0  0  0  0  0  0  0  0  0
   -1.3294    0.1613    1.2691 H   0  0  0  0  0  0  0  0  0  0  0  0
   -2.7953    0.6857    0.4416 H   0  0  0  0  0  0  0  0  0  0  0  0
   -2.7842    1.1433   -2.0559 H   0  0  0  0  0  0  0  0  0  0  0  0
   -1.4076    2.2416   -1.8777 H   0  0  0  0  0  0  0  0  0  0  0  0
   -1.3122    0.8854   -3.0044 H   0  0  0  0  0  0  0  0  0  0  0  0
   -2.6406   -1.2286   -1.2508 H   0  0  0  0  0  0  0  0  0  0  0  0
   -1.1180   -1.5365   -2.0939 H   0  0  0  0  0  0  0  0  0  0  0  0
   -1.2448   -1.8147   -0.3517 H   0  0  0  0  0  0  0  0  0  0  0  0
    1.2814   -2.5046   -0.7948 H   0  0  0  0  0  0  0  0  0  0  0  0
    2.4168   -3.6120    1.3027 H   0  0  0  0  0  0  0  0  0  0  0  0
    0.8295    2.6270    2.5221 H   0  0  0  0  0  0  0  0  0  0  0  0
  1  2  1  0
  2  3  1  0
  2  4  1  0
  2  5  1  0
  5  6  2  0
  5  7  2  0
  5  8  1  0
  8  9  1  0
  9 10  2  0
 10 11  1  0
 11 12  1  0
 12 13  1  0
 13 14  2  0
 13 15  1  0
 12  8  2  0
  1 16  1  0
  1 17  1  0
  1 18  1  0
  3 19  1  0
  3 20  1  0
  3 21  1  0
  4 22  1  0
  4 23  1  0
  4 24  1  0
  9 25  1  0
 10 26  1  0
 15 27  1  0
M  END
$$$$
