
     RDKit          3D

 53 54  0  0  0  0  0  0  0  0999 V2000
   -6.3117   -0.3911   -0.6638 C   0  0  0  0  0  0  0  0  0  0  0  0
   -5.2407    0.5051   -0.0625 C   0  0  0  0  0  0  0  0  0  0  0  0
   -4.8902    0.0239    1.3028 N   0  0  0  0  0  0  0  0  0  0  0  0
   -5.8703    0.4535    2.3426 C   0  0  0  0  0  0  0  0  0  0  0  0
   -6.3991   -0.7736    3.0648 C   0  0  0  0  0  0  0  0  0  0  0  0
   -3.2576    0.2617    1.7626 S   0  0  0  0  0  6  0  0  0  0  0  0
   -2.9096    1.6259    1.4247 O   0  0  0  0  0  0  0  0  0  0  0  0
   -3.0703   -0.2578    3.0994 O   0  0  0  0  0  0  0  0  0  0  0  0
   -2.3839   -0.8276    0.6640 C   0  0  0  0  0  0  0  0  0  0  0  0
   -2.6714   -2.1955    0.7029 C   0  0  0  0  0  0  0  0  0  0  0  0
   -2.0004   -3.0614   -0.1576 C   0  0  0  0  0  0  0  0  0  0  0  0
   -1.0459   -2.5592   -1.0461 C   0  0  0  0  0  0  0  0  0  0  0  0
   -0.7502   -1.1871   -1.0780 C   0  0  0  0  0  0  0  0  0  0  0  0
    0.2776   -0.7159   -2.0457 C   0  0  0  0  0  0  0  0  0  0  0  0
    0.7955   -1.4369   -2.8814 O   0  0  0  0  0  0  0  0  0  0  0  0
    0.5523    0.5972   -1.8476 O   0  0  0  0  0  0  0  0  0  0  0  0
    1.5208    1.1440   -2.7472 C   0  0  0  0  0  0  0  0  0  0  0  0
    2.9731    0.8518   -2.3627 C   0  0  0  0  0  0  0  0  0  0  0  0
    3.8973    0.9525   -3.1647 O   0  0  0  0  0  0  0  0  0  0  0  0
    3.1603    0.5405   -1.0331 N   0  0  0  0  0  0  0  0  0  0  0  0
    4.4727    0.2584   -0.4830 C   0  0  0  0  0  0  0  0  0  0  0  0
    5.3060    1.5233   -0.2483 C   0  0  0  0  0  0  0  0  0  0  0  0
    6.5234    1.2444    0.4928 N   0  0  0  0  0  0  0  0  0  0  0  0
    7.7138    0.9030   -0.0985 C   0  0  0  0  0  0  0  0  0  0  0  0
    7.7858    0.8624   -1.4565 O   0  0  0  0  0  0  0  0  0  0  0  0
    8.7034    0.6314    0.7597 C   0  0  0  0  0  0  0  0  0  0  0  0
    8.1666    0.7812    2.4063 S   0  0  0  0  0  0  0  0  0  0  0  0
    6.5279    1.2095    1.8773 C   0  0  0  0  0  0  0  0  0  0  0  0
    5.5976    1.4102    2.6403 O   0  0  0  0  0  0  0  0  0  0  0  0
   -1.4254   -0.3144   -0.2159 C   0  0  0  0  0  0  0  0  0  0  0  0
   -6.5438   -0.0715   -1.6845 H   0  0  0  0  0  0  0  0  0  0  0  0
   -5.9747   -1.4325   -0.6991 H   0  0  0  0  0  0  0  0  0  0  0  0
   -7.2376   -0.3586   -0.0813 H   0  0  0  0  0  0  0  0  0  0  0  0
   -5.5827    1.5455   -0.0264 H   0  0  0  0  0  0  0  0  0  0  0  0
   -4.3689    0.4745   -0.7233 H   0  0  0  0  0  0  0  0  0  0  0  0
   -6.7094    0.9953    1.8922 H   0  0  0  0  0  0  0  0  0  0  0  0
   -5.4112    1.1462    3.0565 H   0  0  0  0  0  0  0  0  0  0  0  0
   -5.5929   -1.3237    3.5602 H   0  0  0  0  0  0  0  0  0  0  0  0
   -7.1299   -0.4818    3.8253 H   0  0  0  0  0  0  0  0  0  0  0  0
   -6.8887   -1.4595    2.3656 H   0  0  0  0  0  0  0  0  0  0  0  0
   -3.4126   -2.5834    1.3993 H   0  0  0  0  0  0  0  0  0  0  0  0
   -2.2163   -4.1275   -0.1368 H   0  0  0  0  0  0  0  0  0  0  0  0
   -0.5275   -3.2467   -1.7139 H   0  0  0  0  0  0  0  0  0  0  0  0
    1.3938    2.2317   -2.7360 H   0  0  0  0  0  0  0  0  0  0  0  0
    1.3390    0.8001   -3.7722 H   0  0  0  0  0  0  0  0  0  0  0  0
    2.3596    0.5617   -0.4125 H   0  0  0  0  0  0  0  0  0  0  0  0
    4.3109   -0.2780    0.4585 H   0  0  0  0  0  0  0  0  0  0  0  0
    5.0003   -0.4195   -1.1638 H   0  0  0  0  0  0  0  0  0  0  0  0
    4.7113    2.2394    0.3330 H   0  0  0  0  0  0  0  0  0  0  0  0
    5.5508    2.0208   -1.1936 H   0  0  0  0  0  0  0  0  0  0  0  0
    8.6880    0.6118   -1.7161 H   0  0  0  0  0  0  0  0  0  0  0  0
    9.7121    0.3435    0.5032 H   0  0  0  0  0  0  0  0  0  0  0  0
   -1.2171    0.7529   -0.2253 H   0  0  0  0  0  0  0  0  0  0  0  0
  1  2  1  0
  2  3  1  0
  3  4  1  0
  4  5  1  0
  3  6  1  0
  6  7  2  0
  6  8  2  0
  6  9  1  0
  9 10  2  0
 10 11  1  0
 11 12  2  0
 12 13  1  0
 13 14  1  0
 14 15  2  0
 14 16  1  0
 16 17  1  0
 17 18  1  0
 18 19  2  0
 18 20  1  0
 20 21  1  0
 21 22  1  0
 22 23  1  0
 23 24  1  0
 24 25  1  0
 24 26  2  0
 26 27  1  0
 27 28  1  0
 28 29  2  0
 13 30  2  0
 30  9  1  0
 28 23  1  0
  1 31  1  0
  1 32  1  0
  1 33  1  0
  2 34  1  0
  2 35  1  0
  4 36  1  0
  4 37  1  0
  5 38  1  0
  5 39  1  0
  5 40  1  0
 10 41  1  0
 11 42  1  0
 12 43  1  0
 17 44  1  0
 17 45  1  0
 20 46  1  0
 21 47  1  0
 21 48  1  0
 22 49  1  0
 22 50  1  0
 25 51  1  0
 26 52  1  0
 30 53  1  0
M  END
$$$$
