
     RDKit          3D

 55 60  0  0  0  0  0  0  0  0999 V2000
    3.4798    1.6693    3.0478 O   0  0  0  0  0  0  0  0  0  0  0  0
    3.6714    0.9728    2.0525 C   0  0  0  0  0  0  0  0  0  0  0  0
    4.9351    1.0695    1.3338 C   0  0  0  0  0  0  0  0  0  0  0  0
    5.7250    0.0892    0.6634 C   0  0  0  0  0  0  0  0  0  0  0  0
    6.8416    0.7371    0.1889 C   0  0  0  0  0  0  0  0  0  0  0  0
    6.8108    2.0470    0.5369 O   0  0  0  0  0  0  0  0  0  0  0  0
    5.6703    2.2368    1.2464 C   0  0  0  0  0  0  0  0  0  0  0  0
    2.6968    0.0830    1.5817 N   0  0  0  0  0  0  0  0  0  0  0  0
    2.6687   -0.4405    0.2187 C   0  0  0  0  0  0  0  0  0  0  0  0
    1.2550   -0.8059   -0.2459 C   0  0  0  0  0  0  0  0  0  0  0  0
    0.2382    0.3098    0.1080 C   0  0  0  0  0  0  0  0  0  0  0  0
    0.3007    0.6325    1.6362 C   0  0  0  0  0  0  0  0  0  0  0  0
    1.4663   -0.0562    2.3449 C   0  0  0  0  0  0  0  0  0  0  0  0
    0.6951    1.5398   -0.5212 O   0  0  0  0  0  0  0  0  0  0  0  0
    0.3634    1.7599   -1.8240 C   0  0  0  0  0  0  0  0  0  0  0  0
    1.0210    2.8194   -2.4517 C   0  0  0  0  0  0  0  0  0  0  0  0
    0.7647    3.1038   -3.7941 C   0  0  0  0  0  0  0  0  0  0  0  0
   -0.1497    2.3273   -4.4989 C   0  0  0  0  0  0  0  0  0  0  0  0
   -0.3880    2.5991   -5.7880 F   0  0  0  0  0  0  0  0  0  0  0  0
   -0.8194    1.2769   -3.8859 C   0  0  0  0  0  0  0  0  0  0  0  0
   -0.5637    1.0077   -2.5392 C   0  0  0  0  0  0  0  0  0  0  0  0
   -1.2616   -0.0844   -1.8501 C   0  0  0  0  0  0  0  0  0  0  0  0
   -1.8223   -0.9598   -2.5041 O   0  0  0  0  0  0  0  0  0  0  0  0
   -1.2090   -0.0502   -0.3277 C   0  0  0  0  0  0  0  0  0  0  0  0
   -1.7545   -1.3394    0.2719 C   0  0  0  0  0  0  0  0  0  0  0  0
   -3.1586   -0.9005    0.5168 C   0  0  0  0  0  0  0  0  0  0  0  0
   -4.2398   -1.8590    0.8480 C   0  0  0  0  0  0  0  0  0  0  0  0
   -5.5466   -1.3768    1.0061 C   0  0  0  0  0  0  0  0  0  0  0  0
   -6.5896   -2.2519    1.3219 C   0  0  0  0  0  0  0  0  0  0  0  0
   -6.3271   -3.6103    1.4811 C   0  0  0  0  0  0  0  0  0  0  0  0
   -7.6075   -4.6902    1.8706 Cl  0  0  0  0  0  0  0  0  0  0  0  0
   -5.0309   -4.1002    1.3277 C   0  0  0  0  0  0  0  0  0  0  0  0
   -3.9851   -3.2259    1.0118 C   0  0  0  0  0  0  0  0  0  0  0  0
   -3.3461    0.3791    0.4513 N   0  0  0  0  0  0  0  0  0  0  0  0
   -2.1146    0.9770    0.1072 O   0  0  0  0  0  0  0  0  0  0  0  0
    5.5239   -0.9664    0.5570 H   0  0  0  0  0  0  0  0  0  0  0  0
    7.7125    0.4222   -0.3694 H   0  0  0  0  0  0  0  0  0  0  0  0
    5.5118    3.2398    1.6200 H   0  0  0  0  0  0  0  0  0  0  0  0
    3.1014    0.2995   -0.4633 H   0  0  0  0  0  0  0  0  0  0  0  0
    3.2922   -1.3396    0.1901 H   0  0  0  0  0  0  0  0  0  0  0  0
    1.2941   -0.9879   -1.3260 H   0  0  0  0  0  0  0  0  0  0  0  0
    0.9548   -1.7532    0.2185 H   0  0  0  0  0  0  0  0  0  0  0  0
   -0.6173    0.3391    2.1566 H   0  0  0  0  0  0  0  0  0  0  0  0
    0.3950    1.7170    1.7823 H   0  0  0  0  0  0  0  0  0  0  0  0
    1.5739    0.3442    3.3584 H   0  0  0  0  0  0  0  0  0  0  0  0
    1.2672   -1.1289    2.4576 H   0  0  0  0  0  0  0  0  0  0  0  0
    1.7372    3.4216   -1.8970 H   0  0  0  0  0  0  0  0  0  0  0  0
    1.2718    3.9238   -4.2937 H   0  0  0  0  0  0  0  0  0  0  0  0
   -1.5355    0.6895   -4.4530 H   0  0  0  0  0  0  0  0  0  0  0  0
   -1.3059   -1.5946    1.2364 H   0  0  0  0  0  0  0  0  0  0  0  0
   -1.6893   -2.2039   -0.3924 H   0  0  0  0  0  0  0  0  0  0  0  0
   -5.7632   -0.3168    0.8823 H   0  0  0  0  0  0  0  0  0  0  0  0
   -7.5988   -1.8660    1.4403 H   0  0  0  0  0  0  0  0  0  0  0  0
   -4.8286   -5.1613    1.4519 H   0  0  0  0  0  0  0  0  0  0  0  0
   -2.9868   -3.6376    0.9004 H   0  0  0  0  0  0  0  0  0  0  0  0
  1  2  2  0
  2  3  1  0
  3  4  1  0
  4  5  2  0
  5  6  1  0
  6  7  1  0
  2  8  1  0
  8  9  1  0
  9 10  1  0
 10 11  1  0
 11 12  1  0
 12 13  1  0
 11 14  1  0
 14 15  1  0
 15 16  2  0
 16 17  1  0
 17 18  2  0
 18 19  1  0
 18 20  1  0
 20 21  2  0
 21 22  1  0
 22 23  2  0
 22 24  1  0
 24 25  1  0
 25 26  1  0
 26 27  1  0
 27 28  2  0
 28 29  1  0
 29 30  2  0
 30 31  1  0
 30 32  1  0
 32 33  2  0
 26 34  2  0
 34 35  1  0
  7  3  2  0
 13  8  1  0
 21 15  1  0
 35 24  1  0
 24 11  1  0
 33 27  1  0
  4 36  1  0
  5 37  1  0
  7 38  1  0
  9 39  1  0
  9 40  1  0
 10 41  1  0
 10 42  1  0
 12 43  1  0
 12 44  1  0
 13 45  1  0
 13 46  1  0
 16 47  1  0
 17 48  1  0
 20 49  1  0
 25 50  1  0
 25 51  1  0
 28 52  1  0
 29 53  1  0
 32 54  1  0
 33 55  1  0
M  END
$$$$
