
     RDKit          3D

 37 38  0  0  0  0  0  0  0  0999 V2000
   -7.6624    0.6020   -0.3251 C   0  0  0  0  0  0  0  0  0  0  0  0
   -6.2642    0.1804   -0.7038 C   0  0  0  0  0  0  0  0  0  0  0  0
   -6.0279   -0.2803   -1.8146 O   0  0  0  0  0  0  0  0  0  0  0  0
   -5.3570    0.4045    0.3164 N   0  0  0  0  0  0  0  0  0  0  0  0
   -3.9713    0.1449    0.3054 C   0  0  0  0  0  0  0  0  0  0  0  0
   -3.2839   -0.3870   -0.7871 C   0  0  0  0  0  0  0  0  0  0  0  0
   -1.9026   -0.6157   -0.7200 C   0  0  0  0  0  0  0  0  0  0  0  0
   -1.1914   -0.3167    0.4469 C   0  0  0  0  0  0  0  0  0  0  0  0
    0.2731   -0.5443    0.5747 C   0  0  0  0  0  0  0  0  0  0  0  0
    0.9131   -0.2780    1.5807 O   0  0  0  0  0  0  0  0  0  0  0  0
    0.7769   -1.1000   -0.5558 O   0  0  0  0  0  0  0  0  0  0  0  0
    2.1973   -1.2544   -0.5449 C   0  0  0  0  0  0  0  0  0  0  0  0
    2.9257    0.0641   -0.7959 C   0  0  0  0  0  0  0  0  0  0  0  0
    2.3422    1.0727   -1.1931 O   0  0  0  0  0  0  0  0  0  0  0  0
    4.4019    0.1202   -0.5695 C   0  0  0  0  0  0  0  0  0  0  0  0
    5.0333    1.3743   -0.6143 C   0  0  0  0  0  0  0  0  0  0  0  0
    6.4110    1.4810   -0.4130 C   0  0  0  0  0  0  0  0  0  0  0  0
    7.1565    0.3348   -0.1701 C   0  0  0  0  0  0  0  0  0  0  0  0
    8.4778    0.4336    0.0224 F   0  0  0  0  0  0  0  0  0  0  0  0
    6.5502   -0.9158   -0.1265 C   0  0  0  0  0  0  0  0  0  0  0  0
    5.1706   -1.0277   -0.3274 C   0  0  0  0  0  0  0  0  0  0  0  0
   -1.8770    0.2187    1.5427 C   0  0  0  0  0  0  0  0  0  0  0  0
   -3.2556    0.4475    1.4707 C   0  0  0  0  0  0  0  0  0  0  0  0
   -7.8774    0.3491    0.7171 H   0  0  0  0  0  0  0  0  0  0  0  0
   -7.7683    1.6799   -0.4725 H   0  0  0  0  0  0  0  0  0  0  0  0
   -8.3843    0.0766   -0.9571 H   0  0  0  0  0  0  0  0  0  0  0  0
   -5.7253    0.8040    1.1703 H   0  0  0  0  0  0  0  0  0  0  0  0
   -3.7907   -0.6334   -1.7155 H   0  0  0  0  0  0  0  0  0  0  0  0
   -1.4003   -1.0236   -1.5939 H   0  0  0  0  0  0  0  0  0  0  0  0
    2.4471   -1.9390   -1.3620 H   0  0  0  0  0  0  0  0  0  0  0  0
    2.5181   -1.7098    0.3985 H   0  0  0  0  0  0  0  0  0  0  0  0
    4.4519    2.2758   -0.8038 H   0  0  0  0  0  0  0  0  0  0  0  0
    6.9024    2.4485   -0.4445 H   0  0  0  0  0  0  0  0  0  0  0  0
    7.1573   -1.7963    0.0626 H   0  0  0  0  0  0  0  0  0  0  0  0
    4.7298   -2.0194   -0.2952 H   0  0  0  0  0  0  0  0  0  0  0  0
   -1.3410    0.4634    2.4580 H   0  0  0  0  0  0  0  0  0  0  0  0
   -3.7554    0.8659    2.3407 H   0  0  0  0  0  0  0  0  0  0  0  0
  1  2  1  0
  2  3  2  0
  2  4  1  0
  4  5  1  0
  5  6  2  0
  6  7  1  0
  7  8  2  0
  8  9  1  0
  9 10  2  0
  9 11  1  0
 11 12  1  0
 12 13  1  0
 13 14  2  0
 13 15  1  0
 15 16  2  0
 16 17  1  0
 17 18  2  0
 18 19  1  0
 18 20  1  0
 20 21  2  0
  8 22  1  0
 22 23  2  0
 23  5  1  0
 21 15  1  0
  1 24  1  0
  1 25  1  0
  1 26  1  0
  4 27  1  0
  6 28  1  0
  7 29  1  0
 12 30  1  0
 12 31  1  0
 16 32  1  0
 17 33  1  0
 20 34  1  0
 21 35  1  0
 22 36  1  0
 23 37  1  0
M  END
$$$$
