
     RDKit          3D

 48 50  0  0  0  0  0  0  0  0999 V2000
    8.1641   -1.0499   -0.4155 C   0  0  0  0  0  0  0  0  0  0  0  0
    7.1057   -0.0670   -0.7593 C   0  0  0  0  0  0  0  0  0  0  0  0
    7.1647    0.8977   -1.7489 C   0  0  0  0  0  0  0  0  0  0  0  0
    5.7025    1.7948   -1.7785 S   0  0  0  0  0  0  0  0  0  0  0  0
    5.1145    0.8357   -0.4942 C   0  0  0  0  0  0  0  0  0  0  0  0
    3.8529    1.1673   -0.0872 N   0  0  0  0  0  0  0  0  0  0  0  0
    3.1955    0.4869    0.9153 C   0  0  0  0  0  0  0  0  0  0  0  0
    3.6105   -0.4748    1.5518 O   0  0  0  0  0  0  0  0  0  0  0  0
    1.8153    1.0697    1.1645 C   0  0  0  0  0  0  0  0  0  0  0  0
    1.0673    0.3468    2.2796 C   0  0  0  0  0  0  0  0  0  0  0  0
    0.7019   -1.0067    1.8379 N   0  0  0  0  0  0  0  0  0  0  0  0
   -0.6064   -1.7680    2.5638 S   0  0  0  0  0  6  0  0  0  0  0  0
   -0.5169   -3.1738    2.2470 O   0  0  0  0  0  0  0  0  0  0  0  0
   -0.7098   -1.2822    3.9216 O   0  0  0  0  0  0  0  0  0  0  0  0
   -1.9777   -1.1249    1.6386 C   0  0  0  0  0  0  0  0  0  0  0  0
   -3.1162   -0.6765    2.3060 C   0  0  0  0  0  0  0  0  0  0  0  0
   -4.1861   -0.1512    1.5725 C   0  0  0  0  0  0  0  0  0  0  0  0
   -4.1262   -0.0580    0.1710 C   0  0  0  0  0  0  0  0  0  0  0  0
   -2.9706   -0.5034   -0.4718 C   0  0  0  0  0  0  0  0  0  0  0  0
   -1.8962   -1.0435    0.2498 C   0  0  0  0  0  0  0  0  0  0  0  0
   -2.8715   -0.3881   -1.9340 C   0  0  0  0  0  0  0  0  0  0  0  0
   -1.8034   -0.6519   -2.4822 O   0  0  0  0  0  0  0  0  0  0  0  0
   -4.0048    0.0445   -2.6026 N   0  0  0  0  0  0  0  0  0  0  0  0
   -3.9407    0.1288   -4.0502 C   0  0  0  0  0  0  0  0  0  0  0  0
   -5.1437    0.5524   -1.9887 C   0  0  0  0  0  0  0  0  0  0  0  0
   -6.0591    1.0513   -2.6475 O   0  0  0  0  0  0  0  0  0  0  0  0
   -5.1910    0.4819   -0.5984 N   0  0  0  0  0  0  0  0  0  0  0  0
   -6.3854    0.9795    0.0736 C   0  0  0  0  0  0  0  0  0  0  0  0
    5.9193   -0.0899   -0.0456 N   0  0  0  0  0  0  0  0  0  0  0  0
    8.1745   -1.8652   -1.1455 H   0  0  0  0  0  0  0  0  0  0  0  0
    7.9915   -1.4791    0.5768 H   0  0  0  0  0  0  0  0  0  0  0  0
    9.1497   -0.5736   -0.4111 H   0  0  0  0  0  0  0  0  0  0  0  0
    7.9723    1.1105   -2.4346 H   0  0  0  0  0  0  0  0  0  0  0  0
    3.4076    1.9234   -0.5843 H   0  0  0  0  0  0  0  0  0  0  0  0
    1.9407    2.1226    1.4434 H   0  0  0  0  0  0  0  0  0  0  0  0
    1.2424    1.0249    0.2305 H   0  0  0  0  0  0  0  0  0  0  0  0
    0.1633    0.9201    2.5121 H   0  0  0  0  0  0  0  0  0  0  0  0
    1.6796    0.2796    3.1850 H   0  0  0  0  0  0  0  0  0  0  0  0
    1.4887   -1.6499    1.6887 H   0  0  0  0  0  0  0  0  0  0  0  0
   -3.1830   -0.7361    3.3913 H   0  0  0  0  0  0  0  0  0  0  0  0
   -5.0578    0.1800    2.1308 H   0  0  0  0  0  0  0  0  0  0  0  0
   -1.0065   -1.3967   -0.2697 H   0  0  0  0  0  0  0  0  0  0  0  0
   -3.6844    1.1571   -4.3252 H   0  0  0  0  0  0  0  0  0  0  0  0
   -3.1862   -0.5486   -4.4598 H   0  0  0  0  0  0  0  0  0  0  0  0
   -4.9108   -0.1216   -4.4908 H   0  0  0  0  0  0  0  0  0  0  0  0
   -6.1075    1.7853    0.7605 H   0  0  0  0  0  0  0  0  0  0  0  0
   -7.1206    1.3810   -0.6288 H   0  0  0  0  0  0  0  0  0  0  0  0
   -6.8619    0.1588    0.6198 H   0  0  0  0  0  0  0  0  0  0  0  0
  1  2  1  0
  2  3  2  0
  3  4  1  0
  4  5  1  0
  5  6  1  0
  6  7  1  0
  7  8  2  0
  7  9  1  0
  9 10  1  0
 10 11  1  0
 11 12  1  0
 12 13  2  0
 12 14  2  0
 12 15  1  0
 15 16  2  0
 16 17  1  0
 17 18  2  0
 18 19  1  0
 19 20  2  0
 19 21  1  0
 21 22  2  0
 21 23  1  0
 23 24  1  0
 23 25  1  0
 25 26  2  0
 25 27  1  0
 27 28  1  0
  5 29  2  0
 29  2  1  0
 20 15  1  0
 27 18  1  0
  1 30  1  0
  1 31  1  0
  1 32  1  0
  3 33  1  0
  6 34  1  0
  9 35  1  0
  9 36  1  0
 10 37  1  0
 10 38  1  0
 11 39  1  0
 16 40  1  0
 17 41  1  0
 20 42  1  0
 24 43  1  0
 24 44  1  0
 24 45  1  0
 28 46  1  0
 28 47  1  0
 28 48  1  0
M  END
$$$$
