
     RDKit          3D

 37 38  0  0  0  0  0  0  0  0999 V2000
   -4.5317   -1.3300   -0.2353 C   0  0  0  0  0  0  0  0  0  0  0  0
   -4.7929    0.1244   -0.1554 N   0  0  0  0  0  0  0  0  0  0  0  0
   -6.1452    0.4623   -0.6545 C   0  0  0  0  0  0  0  0  0  0  0  0
   -3.5702    1.1234   -0.8075 S   0  0  0  0  0  6  0  0  0  0  0  0
   -3.2187    0.5653   -2.0975 O   0  0  0  0  0  0  0  0  0  0  0  0
   -3.9652    2.5097   -0.6952 O   0  0  0  0  0  0  0  0  0  0  0  0
   -2.2006    0.8720    0.2907 C   0  0  0  0  0  0  0  0  0  0  0  0
   -1.0265    0.3026   -0.2271 C   0  0  0  0  0  0  0  0  0  0  0  0
    0.0960    0.1043    0.5943 C   0  0  0  0  0  0  0  0  0  0  0  0
    1.2806   -0.5255   -0.0462 C   0  0  0  0  0  0  0  0  0  0  0  0
    1.0781   -1.4563   -0.8188 O   0  0  0  0  0  0  0  0  0  0  0  0
    2.4925    0.0420    0.2532 N   0  0  0  0  0  0  0  0  0  0  0  0
    3.7051   -0.3569   -0.2519 C   0  0  0  0  0  0  0  0  0  0  0  0
    4.0113   -1.3858   -1.1679 C   0  0  0  0  0  0  0  0  0  0  0  0
    5.3779   -1.3408   -1.3179 C   0  0  0  0  0  0  0  0  0  0  0  0
    5.8025   -0.3264   -0.5152 N   0  0  0  0  0  0  0  0  0  0  0  0
    7.1613    0.1183   -0.3234 C   0  0  0  0  0  0  0  0  0  0  0  0
    4.8046    0.2905    0.1435 N   0  0  0  0  0  0  0  0  0  0  0  0
    0.0283    0.4674    1.9436 C   0  0  0  0  0  0  0  0  0  0  0  0
    1.3183    0.2058    3.0609 Cl  0  0  0  0  0  0  0  0  0  0  0  0
   -1.1446    1.0383    2.4532 C   0  0  0  0  0  0  0  0  0  0  0  0
   -2.2616    1.2453    1.6334 C   0  0  0  0  0  0  0  0  0  0  0  0
   -3.6519    1.9329    2.3885 Cl  0  0  0  0  0  0  0  0  0  0  0  0
   -5.2837   -1.8703    0.3492 H   0  0  0  0  0  0  0  0  0  0  0  0
   -3.5578   -1.5786    0.1940 H   0  0  0  0  0  0  0  0  0  0  0  0
   -4.5765   -1.6832   -1.2698 H   0  0  0  0  0  0  0  0  0  0  0  0
   -6.3930    1.5007   -0.4163 H   0  0  0  0  0  0  0  0  0  0  0  0
   -6.2151    0.3043   -1.7349 H   0  0  0  0  0  0  0  0  0  0  0  0
   -6.8936   -0.1664   -0.1611 H   0  0  0  0  0  0  0  0  0  0  0  0
   -0.9741    0.0101   -1.2771 H   0  0  0  0  0  0  0  0  0  0  0  0
    2.5755    0.8051    0.9106 H   0  0  0  0  0  0  0  0  0  0  0  0
    3.3319   -2.0705   -1.6554 H   0  0  0  0  0  0  0  0  0  0  0  0
    6.0578   -1.9328   -1.9137 H   0  0  0  0  0  0  0  0  0  0  0  0
    7.4133    0.0099    0.7344 H   0  0  0  0  0  0  0  0  0  0  0  0
    7.8335   -0.4919   -0.9317 H   0  0  0  0  0  0  0  0  0  0  0  0
    7.2277    1.1653   -0.6298 H   0  0  0  0  0  0  0  0  0  0  0  0
   -1.1936    1.3154    3.5057 H   0  0  0  0  0  0  0  0  0  0  0  0
  1  2  1  0
  2  3  1  0
  2  4  1  0
  4  5  2  0
  4  6  2  0
  4  7  1  0
  7  8  2  0
  8  9  1  0
  9 10  1  0
 10 11  2  0
 10 12  1  0
 12 13  1  0
 13 14  1  0
 14 15  2  0
 15 16  1  0
 16 17  1  0
 16 18  1  0
  9 19  2  0
 19 20  1  0
 19 21  1  0
 21 22  2  0
 22 23  1  0
 22  7  1  0
 18 13  2  0
  1 24  1  0
  1 25  1  0
  1 26  1  0
  3 27  1  0
  3 28  1  0
  3 29  1  0
  8 30  1  0
 12 31  1  0
 14 32  1  0
 15 33  1  0
 17 34  1  0
 17 35  1  0
 17 36  1  0
 21 37  1  0
M  END
$$$$
