
     RDKit          3D

 45 48  0  0  0  0  0  0  0  0999 V2000
    4.1840   -2.7649   -1.3894 C   0  0  0  0  0  0  0  0  0  0  0  0
    4.1438   -2.0985   -0.0264 C   0  0  0  0  0  0  0  0  0  0  0  0
    2.9928   -1.2566    0.0141 O   0  0  0  0  0  0  0  0  0  0  0  0
    2.7510   -0.5386    1.1592 C   0  0  0  0  0  0  0  0  0  0  0  0
    3.5623   -0.6077    2.3025 C   0  0  0  0  0  0  0  0  0  0  0  0
    3.2422    0.1195    3.4508 C   0  0  0  0  0  0  0  0  0  0  0  0
    2.1065    0.9178    3.4737 C   0  0  0  0  0  0  0  0  0  0  0  0
    1.2932    0.9942    2.3429 C   0  0  0  0  0  0  0  0  0  0  0  0
    1.5966    0.2799    1.1624 C   0  0  0  0  0  0  0  0  0  0  0  0
    0.7003    0.4048   -0.0002 C   0  0  0  0  0  0  0  0  0  0  0  0
    1.2570    0.5178   -1.2259 N   0  0  0  0  0  0  0  0  0  0  0  0
    0.4026    0.6362   -2.2693 C   0  0  0  0  0  0  0  0  0  0  0  0
    1.0124    0.7390   -3.6231 C   0  0  0  0  0  0  0  0  0  0  0  0
    2.3781    0.6609   -3.6562 N   0  0  0  0  0  0  0  0  0  0  0  0
    0.3437    0.8837   -4.6388 O   0  0  0  0  0  0  0  0  0  0  0  0
   -0.9480    0.6617   -2.0963 C   0  0  0  0  0  0  0  0  0  0  0  0
   -2.0047    0.7830   -2.9823 N   0  0  0  0  0  0  0  0  0  0  0  0
   -3.2029    0.7640   -2.2553 C   0  0  0  0  0  0  0  0  0  0  0  0
   -4.2997    0.8520   -2.7817 O   0  0  0  0  0  0  0  0  0  0  0  0
   -2.8424    0.6215   -0.8789 N   0  0  0  0  0  0  0  0  0  0  0  0
   -3.7251    0.5622    0.2355 C   0  0  0  0  0  0  0  0  0  0  0  0
   -5.1031    0.7711    0.0639 C   0  0  0  0  0  0  0  0  0  0  0  0
   -6.0003    0.7218    1.1395 C   0  0  0  0  0  0  0  0  0  0  0  0
   -5.5399    0.4603    2.4216 C   0  0  0  0  0  0  0  0  0  0  0  0
   -4.1833    0.2519    2.6249 C   0  0  0  0  0  0  0  0  0  0  0  0
   -3.2903    0.3001    1.5451 C   0  0  0  0  0  0  0  0  0  0  0  0
   -1.4256    0.5605   -0.8119 C   0  0  0  0  0  0  0  0  0  0  0  0
   -0.6286    0.4472    0.2541 N   0  0  0  0  0  0  0  0  0  0  0  0
    3.2701   -3.3429   -1.5649 H   0  0  0  0  0  0  0  0  0  0  0  0
    5.0470   -3.4316   -1.4714 H   0  0  0  0  0  0  0  0  0  0  0  0
    4.2420   -2.0146   -2.1832 H   0  0  0  0  0  0  0  0  0  0  0  0
    4.0768   -2.8729    0.7461 H   0  0  0  0  0  0  0  0  0  0  0  0
    5.0563   -1.5054    0.1087 H   0  0  0  0  0  0  0  0  0  0  0  0
    4.4521   -1.2278    2.3373 H   0  0  0  0  0  0  0  0  0  0  0  0
    3.8782    0.0531    4.3305 H   0  0  0  0  0  0  0  0  0  0  0  0
    1.8500    1.4802    4.3679 H   0  0  0  0  0  0  0  0  0  0  0  0
    0.4061    1.6257    2.3800 H   0  0  0  0  0  0  0  0  0  0  0  0
    2.8975    0.5327   -2.7947 H   0  0  0  0  0  0  0  0  0  0  0  0
    2.8626    0.7259   -4.5392 H   0  0  0  0  0  0  0  0  0  0  0  0
   -1.9298    0.8778   -3.9883 H   0  0  0  0  0  0  0  0  0  0  0  0
   -5.5293    0.9870   -0.9104 H   0  0  0  0  0  0  0  0  0  0  0  0
   -7.0592    0.8887    0.9647 H   0  0  0  0  0  0  0  0  0  0  0  0
   -6.2328    0.4214    3.2574 H   0  0  0  0  0  0  0  0  0  0  0  0
   -3.8092    0.0490    3.6254 H   0  0  0  0  0  0  0  0  0  0  0  0
   -2.2511    0.1087    1.7796 H   0  0  0  0  0  0  0  0  0  0  0  0
  1  2  1  0
  2  3  1  0
  3  4  1  0
  4  5  2  0
  5  6  1  0
  6  7  2  0
  7  8  1  0
  8  9  2  0
  9 10  1  0
 10 11  2  0
 11 12  1  0
 12 13  1  0
 13 14  1  0
 13 15  2  0
 12 16  2  0
 16 17  1  0
 17 18  1  0
 18 19  2  0
 18 20  1  0
 20 21  1  0
 21 22  2  0
 22 23  1  0
 23 24  2  0
 24 25  1  0
 25 26  2  0
 20 27  1  0
 27 28  2  0
  9  4  1  0
 28 10  1  0
 27 16  1  0
 26 21  1  0
  1 29  1  0
  1 30  1  0
  1 31  1  0
  2 32  1  0
  2 33  1  0
  5 34  1  0
  6 35  1  0
  7 36  1  0
  8 37  1  0
 14 38  1  0
 14 39  1  0
 17 40  1  0
 22 41  1  0
 23 42  1  0
 24 43  1  0
 25 44  1  0
 26 45  1  0
M  END
$$$$
