
     RDKit          3D

 33 34  0  0  0  0  0  0  0  0999 V2000
    0.2633   -3.3167   -0.1764 O   0  0  0  0  0  0  0  0  0  0  0  0
    0.0716   -2.1080   -0.2254 C   0  0  0  0  0  0  0  0  0  0  0  0
   -1.2996   -1.5801   -0.4230 C   0  0  0  0  0  0  0  0  0  0  0  0
   -1.7156   -0.3930    0.0441 C   0  0  0  0  0  0  0  0  0  0  0  0
   -3.1012    0.0654   -0.1527 C   0  0  0  0  0  0  0  0  0  0  0  0
   -4.0631   -0.0914    0.8627 C   0  0  0  0  0  0  0  0  0  0  0  0
   -3.6713   -0.8078    2.3900 Cl  0  0  0  0  0  0  0  0  0  0  0  0
   -5.3833    0.3339    0.6741 C   0  0  0  0  0  0  0  0  0  0  0  0
   -5.7651    0.9246   -0.5282 C   0  0  0  0  0  0  0  0  0  0  0  0
   -4.8260    1.0943   -1.5428 C   0  0  0  0  0  0  0  0  0  0  0  0
   -3.5048    0.6703   -1.3582 C   0  0  0  0  0  0  0  0  0  0  0  0
   -2.3969    0.9382   -2.6632 Cl  0  0  0  0  0  0  0  0  0  0  0  0
    1.0623   -1.1661   -0.1774 N   0  0  0  0  0  0  0  0  0  0  0  0
    2.4488   -1.5618   -0.1267 C   0  0  0  0  0  0  0  0  0  0  0  0
    3.3324   -0.3665    0.1065 C   0  0  0  0  0  0  0  0  0  0  0  0
    3.9350    0.2979   -0.9709 C   0  0  0  0  0  0  0  0  0  0  0  0
    4.7299    1.4242   -0.7515 C   0  0  0  0  0  0  0  0  0  0  0  0
    4.9235    1.9008    0.5439 C   0  0  0  0  0  0  0  0  0  0  0  0
    4.3207    1.2543    1.6214 C   0  0  0  0  0  0  0  0  0  0  0  0
    3.5256    0.1281    1.4042 C   0  0  0  0  0  0  0  0  0  0  0  0
   -1.9709   -2.2675   -0.9283 H   0  0  0  0  0  0  0  0  0  0  0  0
   -1.0736    0.2720    0.6138 H   0  0  0  0  0  0  0  0  0  0  0  0
   -6.1192    0.2059    1.4651 H   0  0  0  0  0  0  0  0  0  0  0  0
   -6.7915    1.2542   -0.6729 H   0  0  0  0  0  0  0  0  0  0  0  0
   -5.1276    1.5605   -2.4784 H   0  0  0  0  0  0  0  0  0  0  0  0
    0.8565   -0.2150   -0.4493 H   0  0  0  0  0  0  0  0  0  0  0  0
    2.6997   -2.0554   -1.0731 H   0  0  0  0  0  0  0  0  0  0  0  0
    2.5860   -2.3062    0.6667 H   0  0  0  0  0  0  0  0  0  0  0  0
    3.7896   -0.0596   -1.9882 H   0  0  0  0  0  0  0  0  0  0  0  0
    5.1982    1.9304   -1.5917 H   0  0  0  0  0  0  0  0  0  0  0  0
    5.5434    2.7773    0.7137 H   0  0  0  0  0  0  0  0  0  0  0  0
    4.4688    1.6276    2.6314 H   0  0  0  0  0  0  0  0  0  0  0  0
    3.0543   -0.3646    2.2525 H   0  0  0  0  0  0  0  0  0  0  0  0
  1  2  2  0
  2  3  1  0
  3  4  2  3
  4  5  1  0
  5  6  2  0
  6  7  1  0
  6  8  1  0
  8  9  2  0
  9 10  1  0
 10 11  2  0
 11 12  1  0
  2 13  1  0
 13 14  1  0
 14 15  1  0
 15 16  2  0
 16 17  1  0
 17 18  2  0
 18 19  1  0
 19 20  2  0
 11  5  1  0
 20 15  1  0
  3 21  1  0
  4 22  1  0
  8 23  1  0
  9 24  1  0
 10 25  1  0
 13 26  1  0
 14 27  1  0
 14 28  1  0
 16 29  1  0
 17 30  1  0
 18 31  1  0
 19 32  1  0
 20 33  1  0
M  END
$$$$
