
     RDKit          3D

 50 51  0  0  0  0  0  0  0  0999 V2000
   -5.6769   -3.3423   -0.9957 C   0  0  0  0  0  0  0  0  0  0  0  0
   -5.4041   -2.6082    0.1891 O   0  0  0  0  0  0  0  0  0  0  0  0
   -4.2117   -1.9316    0.2598 C   0  0  0  0  0  0  0  0  0  0  0  0
   -3.2060   -2.0022   -0.7087 C   0  0  0  0  0  0  0  0  0  0  0  0
   -2.0265   -1.2714   -0.5528 C   0  0  0  0  0  0  0  0  0  0  0  0
   -1.8501   -0.4499    0.5594 C   0  0  0  0  0  0  0  0  0  0  0  0
   -0.5887    0.2287    0.6813 N   0  0  0  0  0  0  0  0  0  0  0  0
    0.4447   -0.5051    1.4664 C   0  0  0  0  0  0  0  0  0  0  0  0
    1.5817   -0.9161    0.5353 C   0  0  0  0  0  0  0  0  0  0  0  0
    1.6969   -2.0870    0.1807 O   0  0  0  0  0  0  0  0  0  0  0  0
    2.4057    0.1399    0.1688 N   0  0  0  0  0  0  0  0  0  0  0  0
    3.5614    0.1046   -0.6528 C   0  0  0  0  0  0  0  0  0  0  0  0
    4.0552   -1.1006   -1.1815 C   0  0  0  0  0  0  0  0  0  0  0  0
    5.1728   -1.1344   -2.0207 C   0  0  0  0  0  0  0  0  0  0  0  0
    5.8135    0.0453   -2.3645 C   0  0  0  0  0  0  0  0  0  0  0  0
    5.3346    1.2512   -1.8394 C   0  0  0  0  0  0  0  0  0  0  0  0
    6.0144    2.4605   -2.2766 N   0  0  0  0  0  4  0  0  0  0  0  0
    5.3399    3.2968   -2.8922 O   0  0  0  0  0  0  0  0  0  0  0  0
    7.2219    2.5531   -2.0184 O   0  0  0  0  0  1  0  0  0  0  0  0
    4.2353    1.3139   -0.9515 C   0  0  0  0  0  0  0  0  0  0  0  0
    3.7903    2.6286   -0.3601 C   0  0  0  0  0  0  0  0  0  0  0  0
   -0.5967    1.9037    0.9304 S   0  0  0  0  0  6  0  0  0  0  0  0
   -1.5018    2.5078   -0.4829 C   0  0  0  0  0  0  0  0  0  0  0  0
   -1.3280    2.2059    2.1405 O   0  0  0  0  0  0  0  0  0  0  0  0
    0.7843    2.3307    0.7926 O   0  0  0  0  0  0  0  0  0  0  0  0
   -2.8260   -0.4140    1.5579 C   0  0  0  0  0  0  0  0  0  0  0  0
   -4.0153   -1.1376    1.4088 C   0  0  0  0  0  0  0  0  0  0  0  0
   -5.0404   -1.1381    2.3225 O   0  0  0  0  0  0  0  0  0  0  0  0
   -4.8674   -0.3837    3.5133 C   0  0  0  0  0  0  0  0  0  0  0  0
   -5.6666   -2.6921   -1.8766 H   0  0  0  0  0  0  0  0  0  0  0  0
   -6.6834   -3.7622   -0.9057 H   0  0  0  0  0  0  0  0  0  0  0  0
   -4.9773   -4.1766   -1.1099 H   0  0  0  0  0  0  0  0  0  0  0  0
   -3.3033   -2.6264   -1.5910 H   0  0  0  0  0  0  0  0  0  0  0  0
   -1.2457   -1.3514   -1.3063 H   0  0  0  0  0  0  0  0  0  0  0  0
    0.0329   -1.4087    1.9326 H   0  0  0  0  0  0  0  0  0  0  0  0
    0.8466    0.1007    2.2867 H   0  0  0  0  0  0  0  0  0  0  0  0
    2.0798    1.0624    0.4625 H   0  0  0  0  0  0  0  0  0  0  0  0
    3.5860   -2.0555   -0.9608 H   0  0  0  0  0  0  0  0  0  0  0  0
    5.5277   -2.0852   -2.4088 H   0  0  0  0  0  0  0  0  0  0  0  0
    6.6704    0.0227   -3.0340 H   0  0  0  0  0  0  0  0  0  0  0  0
    2.9156    3.0049   -0.8980 H   0  0  0  0  0  0  0  0  0  0  0  0
    3.5538    2.5146    0.7033 H   0  0  0  0  0  0  0  0  0  0  0  0
    4.5721    3.3921   -0.3915 H   0  0  0  0  0  0  0  0  0  0  0  0
   -1.4679    3.6001   -0.4572 H   0  0  0  0  0  0  0  0  0  0  0  0
   -2.5382    2.1732   -0.4227 H   0  0  0  0  0  0  0  0  0  0  0  0
   -1.0201    2.1450   -1.3925 H   0  0  0  0  0  0  0  0  0  0  0  0
   -2.6477    0.1752    2.4494 H   0  0  0  0  0  0  0  0  0  0  0  0
   -4.7517    0.6824    3.2936 H   0  0  0  0  0  0  0  0  0  0  0  0
   -4.0237   -0.7625    4.1001 H   0  0  0  0  0  0  0  0  0  0  0  0
   -5.7721   -0.5016    4.1174 H   0  0  0  0  0  0  0  0  0  0  0  0
  1  2  1  0
  2  3  1  0
  3  4  2  0
  4  5  1  0
  5  6  2  0
  6  7  1  0
  7  8  1  0
  8  9  1  0
  9 10  2  0
  9 11  1  0
 11 12  1  0
 12 13  2  0
 13 14  1  0
 14 15  2  0
 15 16  1  0
 16 17  1  0
 17 18  2  0
 17 19  1  0
 16 20  2  0
 20 21  1  0
  7 22  1  0
 22 23  1  0
 22 24  2  0
 22 25  2  0
  6 26  1  0
 26 27  2  0
 27 28  1  0
 28 29  1  0
 27  3  1  0
 20 12  1  0
  1 30  1  0
  1 31  1  0
  1 32  1  0
  4 33  1  0
  5 34  1  0
  8 35  1  0
  8 36  1  0
 11 37  1  0
 13 38  1  0
 14 39  1  0
 15 40  1  0
 21 41  1  0
 21 42  1  0
 21 43  1  0
 23 44  1  0
 23 45  1  0
 23 46  1  0
 26 47  1  0
 29 48  1  0
 29 49  1  0
 29 50  1  0
M  CHG  2  17   1  19  -1
M  END
$$$$
