
     RDKit          3D

 40 42  0  0  0  0  0  0  0  0999 V2000
   -2.1674    4.1626    2.1168 C   0  0  0  0  0  0  0  0  0  0  0  0
   -2.8934    3.2238    2.8977 O   0  0  0  0  0  0  0  0  0  0  0  0
   -2.6303    1.8971    2.6851 C   0  0  0  0  0  0  0  0  0  0  0  0
   -3.3454    1.0300    3.5085 C   0  0  0  0  0  0  0  0  0  0  0  0
   -3.1917   -0.3564    3.4210 C   0  0  0  0  0  0  0  0  0  0  0  0
   -2.2908   -0.8579    2.4710 C   0  0  0  0  0  0  0  0  0  0  0  0
   -1.5582   -0.0200    1.6244 C   0  0  0  0  0  0  0  0  0  0  0  0
   -1.7359    1.3811    1.7401 C   0  0  0  0  0  0  0  0  0  0  0  0
   -0.7509   -0.8616    0.7925 C   0  0  0  0  0  0  0  0  0  0  0  0
    0.1522   -0.4312   -0.2314 C   0  0  0  0  0  0  0  0  0  0  0  0
    0.9946   -1.2192   -0.9220 C   0  0  0  0  0  0  0  0  0  0  0  0
    1.9034   -0.7254   -1.9617 C   0  0  0  0  0  0  0  0  0  0  0  0
    1.4883    0.1732   -2.9435 C   0  0  0  0  0  0  0  0  0  0  0  0
    2.3840    0.5860   -3.9240 C   0  0  0  0  0  0  0  0  0  0  0  0
    3.6509    0.1160   -3.9400 N   0  0  0  0  0  4  0  0  0  0  0  0
    4.5946    0.5645   -4.9781 C   0  0  0  0  0  0  0  0  0  0  0  0
    4.0727   -0.7637   -3.0040 C   0  0  0  0  0  0  0  0  0  0  0  0
    3.2107   -1.2054   -2.0070 C   0  0  0  0  0  0  0  0  0  0  0  0
   -1.0104   -2.1673    1.1517 C   0  0  0  0  0  0  0  0  0  0  0  0
   -1.9370   -2.1538    2.1622 N   0  0  0  0  0  0  0  0  0  0  0  0
   -2.4694   -3.3331    2.8097 C   0  0  0  0  0  0  0  0  0  0  0  0
   -1.0908    4.0793    2.2981 H   0  0  0  0  0  0  0  0  0  0  0  0
   -2.4797    5.1655    2.4229 H   0  0  0  0  0  0  0  0  0  0  0  0
   -2.3986    4.0522    1.0523 H   0  0  0  0  0  0  0  0  0  0  0  0
   -4.0396    1.4403    4.2395 H   0  0  0  0  0  0  0  0  0  0  0  0
   -3.7582   -1.0125    4.0742 H   0  0  0  0  0  0  0  0  0  0  0  0
   -1.1684    2.0314    1.0878 H   0  0  0  0  0  0  0  0  0  0  0  0
    0.1459    0.6362   -0.4391 H   0  0  0  0  0  0  0  0  0  0  0  0
    1.0499   -2.2845   -0.7098 H   0  0  0  0  0  0  0  0  0  0  0  0
    0.4668    0.5490   -2.9604 H   0  0  0  0  0  0  0  0  0  0  0  0
    2.0920    1.2884   -4.6997 H   0  0  0  0  0  0  0  0  0  0  0  0
    5.3342    1.2085   -4.4951 H   0  0  0  0  0  0  0  0  0  0  0  0
    4.0599    1.1156   -5.7555 H   0  0  0  0  0  0  0  0  0  0  0  0
    5.0678   -0.3196   -5.4140 H   0  0  0  0  0  0  0  0  0  0  0  0
    5.1017   -1.1075   -3.0641 H   0  0  0  0  0  0  0  0  0  0  0  0
    3.5684   -1.9150   -1.2627 H   0  0  0  0  0  0  0  0  0  0  0  0
   -0.6249   -3.1060    0.7772 H   0  0  0  0  0  0  0  0  0  0  0  0
   -2.0165   -4.2267    2.3729 H   0  0  0  0  0  0  0  0  0  0  0  0
   -2.2298   -3.2804    3.8747 H   0  0  0  0  0  0  0  0  0  0  0  0
   -3.5511   -3.3535    2.6550 H   0  0  0  0  0  0  0  0  0  0  0  0
  1  2  1  0
  2  3  1  0
  3  4  2  0
  4  5  1  0
  5  6  2  0
  6  7  1  0
  7  8  2  0
  7  9  1  0
  9 10  1  0
 10 11  2  3
 11 12  1  0
 12 13  2  0
 13 14  1  0
 14 15  2  0
 15 16  1  0
 15 17  1  0
 17 18  2  0
  9 19  2  0
 19 20  1  0
 20 21  1  0
  8  3  1  0
 18 12  1  0
 20  6  1  0
  1 22  1  0
  1 23  1  0
  1 24  1  0
  4 25  1  0
  5 26  1  0
  8 27  1  0
 10 28  1  0
 11 29  1  0
 13 30  1  0
 14 31  1  0
 16 32  1  0
 16 33  1  0
 16 34  1  0
 17 35  1  0
 18 36  1  0
 19 37  1  0
 21 38  1  0
 21 39  1  0
 21 40  1  0
M  CHG  1  15   1
M  END
$$$$
