
     RDKit          3D

 61 66  0  0  0  0  0  0  0  0999 V2000
   -3.5132   -2.5144   -1.1194 C   0  0  0  0  0  0  0  0  0  0  0  0
   -2.2014   -1.7521   -1.3492 C   0  0  0  0  0  0  0  0  0  0  0  0
   -1.2509   -2.5850   -2.2183 C   0  0  0  0  0  0  0  0  0  0  0  0
   -2.4753   -0.3673   -1.9338 C   0  0  0  0  0  0  0  0  0  0  0  0
   -2.9718   -0.2630   -3.2492 C   0  0  0  0  0  0  0  0  0  0  0  0
   -3.3326    0.9700   -3.8006 C   0  0  0  0  0  0  0  0  0  0  0  0
   -3.2201    2.1340   -3.0477 C   0  0  0  0  0  0  0  0  0  0  0  0
   -2.7376    2.0704   -1.7438 C   0  0  0  0  0  0  0  0  0  0  0  0
   -2.3568    0.8319   -1.1953 C   0  0  0  0  0  0  0  0  0  0  0  0
   -1.8526    0.8451    0.1268 N   0  0  0  0  0  0  0  0  0  0  0  0
   -0.5447    0.6365    0.5157 C   0  0  0  0  0  0  0  0  0  0  0  0
    0.7641    0.2693   -0.5590 S   0  0  0  0  0  0  0  0  0  0  0  0
    2.1194    1.1594    0.2784 C   0  0  0  0  0  0  0  0  0  0  0  0
    3.4224    0.9199   -0.4411 C   0  0  0  0  0  0  0  0  0  0  0  0
    3.6953    1.7384   -1.4771 C   0  0  0  0  0  0  0  0  0  0  0  0
    4.9577    1.7492   -2.2127 C   0  0  0  0  0  0  0  0  0  0  0  0
    5.1046    2.4507   -3.2046 O   0  0  0  0  0  0  0  0  0  0  0  0
    5.9632    0.9721   -1.6869 O   0  0  0  0  0  0  0  0  0  0  0  0
    5.7268    0.0911   -0.6086 C   0  0  0  0  0  0  0  0  0  0  0  0
    6.8544   -0.6332   -0.2318 C   0  0  0  0  0  0  0  0  0  0  0  0
    6.7532   -1.5573    0.7908 C   0  0  0  0  0  0  0  0  0  0  0  0
    5.5233   -1.8016    1.4051 C   0  0  0  0  0  0  0  0  0  0  0  0
    5.4860   -2.7839    2.4086 C   0  0  0  0  0  0  0  0  0  0  0  0
    4.2970   -3.1259    3.0380 C   0  0  0  0  0  0  0  0  0  0  0  0
    3.1277   -2.4964    2.6542 C   0  0  0  0  0  0  0  0  0  0  0  0
    3.1557   -1.5108    1.6609 C   0  0  0  0  0  0  0  0  0  0  0  0
    4.3475   -1.0872    1.0118 C   0  0  0  0  0  0  0  0  0  0  0  0
    4.4667   -0.0556    0.0068 C   0  0  0  0  0  0  0  0  0  0  0  0
   -0.4106    0.8564    1.8004 N   0  0  0  0  0  0  0  0  0  0  0  0
   -1.6202    1.2745    2.2777 N   0  0  0  0  0  0  0  0  0  0  0  0
   -2.4968    1.2857    1.2826 C   0  0  0  0  0  0  0  0  0  0  0  0
   -3.8958    1.6972    1.4406 C   0  0  0  0  0  0  0  0  0  0  0  0
   -4.2299    2.6340    2.4260 C   0  0  0  0  0  0  0  0  0  0  0  0
   -5.5538    3.0308    2.6077 C   0  0  0  0  0  0  0  0  0  0  0  0
   -6.5209    2.4700    1.7961 C   0  0  0  0  0  0  0  0  0  0  0  0
   -6.2516    1.5541    0.8416 N   0  0  0  0  0  0  0  0  0  0  0  0
   -4.9532    1.1851    0.6940 C   0  0  0  0  0  0  0  0  0  0  0  0
   -4.0256   -2.7424   -2.0631 H   0  0  0  0  0  0  0  0  0  0  0  0
   -3.3206   -3.4654   -0.6066 H   0  0  0  0  0  0  0  0  0  0  0  0
   -4.2012   -1.9308   -0.4984 H   0  0  0  0  0  0  0  0  0  0  0  0
   -1.7243   -1.6586   -0.3688 H   0  0  0  0  0  0  0  0  0  0  0  0
   -1.0008   -3.5255   -1.7137 H   0  0  0  0  0  0  0  0  0  0  0  0
   -1.6939   -2.8406   -3.1874 H   0  0  0  0  0  0  0  0  0  0  0  0
   -0.3152   -2.0504   -2.4125 H   0  0  0  0  0  0  0  0  0  0  0  0
   -3.1063   -1.1533   -3.8621 H   0  0  0  0  0  0  0  0  0  0  0  0
   -3.7140    1.0169   -4.8185 H   0  0  0  0  0  0  0  0  0  0  0  0
   -3.5089    3.0900   -3.4787 H   0  0  0  0  0  0  0  0  0  0  0  0
   -2.6472    2.9949   -1.1751 H   0  0  0  0  0  0  0  0  0  0  0  0
    1.8636    2.2288    0.2317 H   0  0  0  0  0  0  0  0  0  0  0  0
    2.1932    0.9456    1.3494 H   0  0  0  0  0  0  0  0  0  0  0  0
    2.9809    2.4802   -1.8306 H   0  0  0  0  0  0  0  0  0  0  0  0
    7.8055   -0.4729   -0.7322 H   0  0  0  0  0  0  0  0  0  0  0  0
    7.6451   -2.1093    1.0851 H   0  0  0  0  0  0  0  0  0  0  0  0
    6.3944   -3.3070    2.7060 H   0  0  0  0  0  0  0  0  0  0  0  0
    4.2842   -3.8921    3.8075 H   0  0  0  0  0  0  0  0  0  0  0  0
    2.1819   -2.7704    3.1144 H   0  0  0  0  0  0  0  0  0  0  0  0
    2.1872   -1.1122    1.3952 H   0  0  0  0  0  0  0  0  0  0  0  0
   -3.4564    3.0562    3.0673 H   0  0  0  0  0  0  0  0  0  0  0  0
   -5.8185    3.7550    3.3720 H   0  0  0  0  0  0  0  0  0  0  0  0
   -7.5678    2.7433    1.8999 H   0  0  0  0  0  0  0  0  0  0  0  0
   -4.8105    0.4277   -0.0656 H   0  0  0  0  0  0  0  0  0  0  0  0
  1  2  1  0
  2  3  1  0
  2  4  1  0
  4  5  2  0
  5  6  1  0
  6  7  2  0
  7  8  1  0
  8  9  2  0
  9 10  1  0
 10 11  1  0
 11 12  1  0
 12 13  1  0
 13 14  1  0
 14 15  2  0
 15 16  1  0
 16 17  2  0
 16 18  1  0
 18 19  1  0
 19 20  2  0
 20 21  1  0
 21 22  2  0
 22 23  1  0
 23 24  2  0
 24 25  1  0
 25 26  2  0
 26 27  1  0
 27 28  2  0
 11 29  2  0
 29 30  1  0
 30 31  2  0
 31 32  1  0
 32 33  2  0
 33 34  1  0
 34 35  2  0
 35 36  1  0
 36 37  2  0
  9  4  1  0
 31 10  1  0
 37 32  1  0
 28 14  1  0
 28 19  1  0
 27 22  1  0
  1 38  1  0
  1 39  1  0
  1 40  1  0
  2 41  1  0
  3 42  1  0
  3 43  1  0
  3 44  1  0
  5 45  1  0
  6 46  1  0
  7 47  1  0
  8 48  1  0
 13 49  1  0
 13 50  1  0
 15 51  1  0
 20 52  1  0
 21 53  1  0
 23 54  1  0
 24 55  1  0
 25 56  1  0
 26 57  1  0
 33 58  1  0
 34 59  1  0
 35 60  1  0
 37 61  1  0
M  END
$$$$
