
     RDKit          3D

 44 47  0  0  0  0  0  0  0  0999 V2000
   -6.0187   -3.0708    0.4687 C   0  0  0  0  0  0  0  0  0  0  0  0
   -5.1730   -1.8340    0.2176 C   0  0  0  0  0  0  0  0  0  0  0  0
   -4.5981   -1.4402    1.4633 O   0  0  0  0  0  0  0  0  0  0  0  0
   -3.4292   -0.7251    1.3990 C   0  0  0  0  0  0  0  0  0  0  0  0
   -2.5600   -0.9920    2.4642 C   0  0  0  0  0  0  0  0  0  0  0  0
   -1.3296   -0.3454    2.5617 C   0  0  0  0  0  0  0  0  0  0  0  0
   -0.9617    0.5876    1.5937 C   0  0  0  0  0  0  0  0  0  0  0  0
    0.3356    1.2612    1.6827 C   0  0  0  0  0  0  0  0  0  0  0  0
    1.4663    0.8230    1.1120 C   0  0  0  0  0  0  0  0  0  0  0  0
    1.6661   -0.6254    0.1424 S   0  0  0  0  0  0  0  0  0  0  0  0
    3.3302   -0.2577   -0.0470 C   0  0  0  0  0  0  0  0  0  0  0  0
    4.3396   -0.8104   -0.6537 N   0  0  0  0  0  0  0  0  0  0  0  0
    5.3631    0.0767   -0.3535 C   0  0  0  0  0  0  0  0  0  0  0  0
    6.8272   -0.1388   -0.8602 C   0  0  0  0  0  0  0  0  0  0  0  0
    7.9015    0.6930   -0.6073 C   0  0  0  0  0  0  0  0  0  0  0  0
    9.0233    0.1195   -1.2533 C   0  0  0  0  0  0  0  0  0  0  0  0
    8.5675   -1.0268   -1.8592 C   0  0  0  0  0  0  0  0  0  0  0  0
    7.2405   -1.1930   -1.6280 O   0  0  0  0  0  0  0  0  0  0  0  0
    5.0035    1.1350    0.4049 N   0  0  0  0  0  0  0  0  0  0  0  0
    3.6957    0.8784    0.5779 N   0  0  0  0  0  0  0  0  0  0  0  0
    2.7396    1.5895    1.2698 C   0  0  0  0  0  0  0  0  0  0  0  0
    2.9543    2.6286    1.8665 O   0  0  0  0  0  0  0  0  0  0  0  0
   -1.8382    0.8803    0.5389 C   0  0  0  0  0  0  0  0  0  0  0  0
   -3.0827    0.2400    0.4365 C   0  0  0  0  0  0  0  0  0  0  0  0
   -3.9976    0.5157   -0.5442 O   0  0  0  0  0  0  0  0  0  0  0  0
   -3.7287    1.5902   -1.4409 C   0  0  0  0  0  0  0  0  0  0  0  0
   -4.9216    1.7308   -2.3693 C   0  0  0  0  0  0  0  0  0  0  0  0
   -6.4972   -3.4095   -0.4543 H   0  0  0  0  0  0  0  0  0  0  0  0
   -5.4031   -3.8837    0.8678 H   0  0  0  0  0  0  0  0  0  0  0  0
   -6.7944   -2.8634    1.2132 H   0  0  0  0  0  0  0  0  0  0  0  0
   -4.4034   -2.0775   -0.5246 H   0  0  0  0  0  0  0  0  0  0  0  0
   -5.8227   -1.0357   -0.1551 H   0  0  0  0  0  0  0  0  0  0  0  0
   -2.8478   -1.7187    3.2203 H   0  0  0  0  0  0  0  0  0  0  0  0
   -0.6711   -0.5789    3.3945 H   0  0  0  0  0  0  0  0  0  0  0  0
    0.3336    2.1794    2.2692 H   0  0  0  0  0  0  0  0  0  0  0  0
    7.8686    1.6043   -0.0254 H   0  0  0  0  0  0  0  0  0  0  0  0
   10.0371    0.4943   -1.2743 H   0  0  0  0  0  0  0  0  0  0  0  0
    9.0353   -1.7946   -2.4599 H   0  0  0  0  0  0  0  0  0  0  0  0
   -1.5285    1.6192   -0.1931 H   0  0  0  0  0  0  0  0  0  0  0  0
   -2.8369    1.3720   -2.0391 H   0  0  0  0  0  0  0  0  0  0  0  0
   -3.5941    2.5265   -0.8877 H   0  0  0  0  0  0  0  0  0  0  0  0
   -5.0860    0.8039   -2.9288 H   0  0  0  0  0  0  0  0  0  0  0  0
   -4.7692    2.5489   -3.0784 H   0  0  0  0  0  0  0  0  0  0  0  0
   -5.8352    1.9231   -1.7969 H   0  0  0  0  0  0  0  0  0  0  0  0
  1  2  1  0
  2  3  1  0
  3  4  1  0
  4  5  2  0
  5  6  1  0
  6  7  2  0
  7  8  1  0
  8  9  2  3
  9 10  1  0
 10 11  1  0
 11 12  2  0
 12 13  1  0
 13 14  1  0
 14 15  2  0
 15 16  1  0
 16 17  2  0
 17 18  1  0
 13 19  2  0
 19 20  1  0
 20 21  1  0
 21 22  2  0
  7 23  1  0
 23 24  2  0
 24 25  1  0
 25 26  1  0
 26 27  1  0
 24  4  1  0
 21  9  1  0
 20 11  1  0
 18 14  1  0
  1 28  1  0
  1 29  1  0
  1 30  1  0
  2 31  1  0
  2 32  1  0
  5 33  1  0
  6 34  1  0
  8 35  1  0
 15 36  1  0
 16 37  1  0
 17 38  1  0
 23 39  1  0
 26 40  1  0
 26 41  1  0
 27 42  1  0
 27 43  1  0
 27 44  1  0
M  END
$$$$
