
     RDKit          3D

 31 32  0  0  0  0  0  0  0  0999 V2000
   -3.3543    2.2053   -0.0346 C   0  0  0  0  0  0  0  0  0  0  0  0
   -3.2432    0.7031    0.0137 C   0  0  0  0  0  0  0  0  0  0  0  0
   -4.2778    0.0310    0.0134 O   0  0  0  0  0  0  0  0  0  0  0  0
   -1.9122    0.0681    0.0627 C   0  0  0  0  0  0  0  0  0  0  0  0
   -1.7160   -1.2741    0.3772 C   0  0  0  0  0  0  0  0  0  0  0  0
   -2.6905   -2.3483    0.7163 C   0  0  0  0  0  0  0  0  0  0  0  0
   -0.3727   -1.5310    0.3459 N   0  0  0  0  0  0  0  0  0  0  0  0
    0.3270   -0.3973    0.0224 C   0  0  0  0  0  0  0  0  0  0  0  0
    1.7859   -0.4060   -0.0517 C   0  0  0  0  0  0  0  0  0  0  0  0
    2.4455   -1.2412   -0.9617 C   0  0  0  0  0  0  0  0  0  0  0  0
    3.8407   -1.2541   -1.0244 C   0  0  0  0  0  0  0  0  0  0  0  0
    4.5851   -0.4338   -0.1772 C   0  0  0  0  0  0  0  0  0  0  0  0
    3.9365    0.4007    0.7318 C   0  0  0  0  0  0  0  0  0  0  0  0
    2.5414    0.4152    0.7939 C   0  0  0  0  0  0  0  0  0  0  0  0
   -0.5983    0.6210   -0.1837 C   0  0  0  0  0  0  0  0  0  0  0  0
   -0.2607    2.0104   -0.6114 C   0  0  0  0  0  0  0  0  0  0  0  0
   -4.3903    2.4969    0.1654 H   0  0  0  0  0  0  0  0  0  0  0  0
   -2.7297    2.6607    0.7381 H   0  0  0  0  0  0  0  0  0  0  0  0
   -3.0833    2.5711   -1.0274 H   0  0  0  0  0  0  0  0  0  0  0  0
   -2.1839   -3.2858    0.9693 H   0  0  0  0  0  0  0  0  0  0  0  0
   -3.3534   -2.5426   -0.1321 H   0  0  0  0  0  0  0  0  0  0  0  0
   -3.2980   -2.0567    1.5785 H   0  0  0  0  0  0  0  0  0  0  0  0
    0.0554   -2.4232    0.5562 H   0  0  0  0  0  0  0  0  0  0  0  0
    1.8768   -1.8761   -1.6373 H   0  0  0  0  0  0  0  0  0  0  0  0
    4.3460   -1.8991   -1.7390 H   0  0  0  0  0  0  0  0  0  0  0  0
    5.6711   -0.4435   -0.2266 H   0  0  0  0  0  0  0  0  0  0  0  0
    4.5157    1.0399    1.3936 H   0  0  0  0  0  0  0  0  0  0  0  0
    2.0457    1.0654    1.5109 H   0  0  0  0  0  0  0  0  0  0  0  0
   -0.8722    2.3108   -1.4662 H   0  0  0  0  0  0  0  0  0  0  0  0
   -0.4189    2.7132    0.2110 H   0  0  0  0  0  0  0  0  0  0  0  0
    0.7827    2.1002   -0.9272 H   0  0  0  0  0  0  0  0  0  0  0  0
  1  2  1  0
  2  3  2  0
  2  4  1  0
  4  5  2  0
  5  6  1  0
  5  7  1  0
  7  8  1  0
  8  9  1  0
  9 10  2  0
 10 11  1  0
 11 12  2  0
 12 13  1  0
 13 14  2  0
  8 15  2  0
 15 16  1  0
 15  4  1  0
 14  9  1  0
  1 17  1  0
  1 18  1  0
  1 19  1  0
  6 20  1  0
  6 21  1  0
  6 22  1  0
  7 23  1  0
 10 24  1  0
 11 25  1  0
 12 26  1  0
 13 27  1  0
 14 28  1  0
 16 29  1  0
 16 30  1  0
 16 31  1  0
M  END
$$$$
