
     RDKit          3D

 58 61  0  0  0  0  0  0  0  0999 V2000
   -4.3500    5.5315   -1.1166 C   0  0  0  0  0  0  0  0  0  0  0  0
   -3.3559    4.5289   -0.9489 O   0  0  0  0  0  0  0  0  0  0  0  0
   -3.6148    3.5457   -0.0331 C   0  0  0  0  0  0  0  0  0  0  0  0
   -4.7423    3.4559    0.7718 C   0  0  0  0  0  0  0  0  0  0  0  0
   -4.8921    2.3963    1.6740 C   0  0  0  0  0  0  0  0  0  0  0  0
   -3.8836    1.4175    1.7612 C   0  0  0  0  0  0  0  0  0  0  0  0
   -3.8665    0.0445    2.7935 S   0  0  0  0  0  0  0  0  0  0  0  0
   -2.3513   -0.4856    2.2060 C   0  0  0  0  0  0  0  0  0  0  0  0
   -1.7680   -1.7036    2.7840 C   0  0  0  0  0  0  0  0  0  0  0  0
   -0.8361   -1.5722    3.8268 C   0  0  0  0  0  0  0  0  0  0  0  0
   -0.2491   -2.6992    4.3987 C   0  0  0  0  0  0  0  0  0  0  0  0
   -0.5865   -3.9659    3.9316 C   0  0  0  0  0  0  0  0  0  0  0  0
   -1.5088   -4.1110    2.8909 C   0  0  0  0  0  0  0  0  0  0  0  0
   -2.1056   -2.9872    2.3070 C   0  0  0  0  0  0  0  0  0  0  0  0
   -3.0077   -3.0373    1.2738 O   0  0  0  0  0  0  0  0  0  0  0  0
   -3.3794   -4.3182    0.7855 C   0  0  0  0  0  0  0  0  0  0  0  0
   -1.8494    0.3680    1.2374 C   0  0  0  0  0  0  0  0  0  0  0  0
   -0.5578    0.1310    0.6027 C   0  0  0  0  0  0  0  0  0  0  0  0
   -0.3942   -0.9203   -0.3027 C   0  0  0  0  0  0  0  0  0  0  0  0
    0.8466   -1.1333   -0.9076 C   0  0  0  0  0  0  0  0  0  0  0  0
    1.9317   -0.3001   -0.6234 C   0  0  0  0  0  0  0  0  0  0  0  0
    3.0849   -0.6235   -1.2824 O   0  0  0  0  0  0  0  0  0  0  0  0
    4.2054    0.2438   -1.1033 C   0  0  0  0  0  0  0  0  0  0  0  0
    5.3925   -0.2621   -1.9475 C   0  0  0  0  0  0  0  0  0  0  0  0
    5.1864   -0.2605   -3.4115 N   0  0  0  0  0  0  0  0  0  0  0  0
    4.9965    1.0864   -3.9472 C   0  0  0  0  0  0  0  0  0  0  0  0
    6.3141   -0.9130   -4.0792 C   0  0  0  0  0  0  0  0  0  0  0  0
    1.7672    0.7523    0.2781 C   0  0  0  0  0  0  0  0  0  0  0  0
    0.5259    0.9683    0.8879 C   0  0  0  0  0  0  0  0  0  0  0  0
   -2.7358    1.4790    0.9700 C   0  0  0  0  0  0  0  0  0  0  0  0
   -2.6196    2.5657    0.0636 C   0  0  0  0  0  0  0  0  0  0  0  0
   -5.2944    5.0982   -1.4623 H   0  0  0  0  0  0  0  0  0  0  0  0
   -4.4913    6.1048   -0.1944 H   0  0  0  0  0  0  0  0  0  0  0  0
   -3.9996    6.2239   -1.8881 H   0  0  0  0  0  0  0  0  0  0  0  0
   -5.5359    4.1946    0.7282 H   0  0  0  0  0  0  0  0  0  0  0  0
   -5.7784    2.3305    2.2991 H   0  0  0  0  0  0  0  0  0  0  0  0
   -0.5652   -0.5849    4.1941 H   0  0  0  0  0  0  0  0  0  0  0  0
    0.4712   -2.5876    5.2047 H   0  0  0  0  0  0  0  0  0  0  0  0
   -0.1280   -4.8464    4.3749 H   0  0  0  0  0  0  0  0  0  0  0  0
   -1.7358   -5.1176    2.5564 H   0  0  0  0  0  0  0  0  0  0  0  0
   -4.1068   -4.1709   -0.0186 H   0  0  0  0  0  0  0  0  0  0  0  0
   -3.8636   -4.9141    1.5661 H   0  0  0  0  0  0  0  0  0  0  0  0
   -2.5178   -4.8439    0.3611 H   0  0  0  0  0  0  0  0  0  0  0  0
   -1.2267   -1.5777   -0.5418 H   0  0  0  0  0  0  0  0  0  0  0  0
    0.9688   -1.9541   -1.6100 H   0  0  0  0  0  0  0  0  0  0  0  0
    4.5122    0.2225   -0.0500 H   0  0  0  0  0  0  0  0  0  0  0  0
    3.9495    1.2735   -1.3760 H   0  0  0  0  0  0  0  0  0  0  0  0
    6.2820    0.3285   -1.6926 H   0  0  0  0  0  0  0  0  0  0  0  0
    5.5862   -1.2963   -1.6340 H   0  0  0  0  0  0  0  0  0  0  0  0
    4.8861    1.0556   -5.0374 H   0  0  0  0  0  0  0  0  0  0  0  0
    4.0755    1.5385   -3.5667 H   0  0  0  0  0  0  0  0  0  0  0  0
    5.8366    1.7479   -3.7078 H   0  0  0  0  0  0  0  0  0  0  0  0
    7.2584   -0.3844   -3.9057 H   0  0  0  0  0  0  0  0  0  0  0  0
    6.1431   -0.9687   -5.1602 H   0  0  0  0  0  0  0  0  0  0  0  0
    6.4263   -1.9453   -3.7294 H   0  0  0  0  0  0  0  0  0  0  0  0
    2.5813    1.4219    0.5319 H   0  0  0  0  0  0  0  0  0  0  0  0
    0.4119    1.7919    1.5890 H   0  0  0  0  0  0  0  0  0  0  0  0
   -1.7419    2.6382   -0.5751 H   0  0  0  0  0  0  0  0  0  0  0  0
  1  2  1  0
  2  3  1  0
  3  4  2  0
  4  5  1  0
  5  6  2  0
  6  7  1  0
  7  8  1  0
  8  9  1  0
  9 10  2  0
 10 11  1  0
 11 12  2  0
 12 13  1  0
 13 14  2  0
 14 15  1  0
 15 16  1  0
  8 17  2  0
 17 18  1  0
 18 19  2  0
 19 20  1  0
 20 21  2  0
 21 22  1  0
 22 23  1  0
 23 24  1  0
 24 25  1  0
 25 26  1  0
 25 27  1  0
 21 28  1  0
 28 29  2  0
 17 30  1  0
 30 31  2  0
 31  3  1  0
 30  6  1  0
 14  9  1  0
 29 18  1  0
  1 32  1  0
  1 33  1  0
  1 34  1  0
  4 35  1  0
  5 36  1  0
 10 37  1  0
 11 38  1  0
 12 39  1  0
 13 40  1  0
 16 41  1  0
 16 42  1  0
 16 43  1  0
 19 44  1  0
 20 45  1  0
 23 46  1  0
 23 47  1  0
 24 48  1  0
 24 49  1  0
 26 50  1  0
 26 51  1  0
 26 52  1  0
 27 53  1  0
 27 54  1  0
 27 55  1  0
 28 56  1  0
 29 57  1  0
 31 58  1  0
M  END
$$$$
