
     RDKit          3D

 57 59  0  0  0  0  0  0  0  0999 V2000
    5.4492    1.1516    3.9702 C   0  0  0  0  0  0  0  0  0  0  0  0
    4.9836    0.5761    2.6376 C   0  0  0  0  0  0  0  0  0  0  0  0
    5.4865   -1.1902    2.5168 S   0  0  0  0  0  0  0  0  0  0  0  0
    7.1682   -0.9953    1.8383 C   0  0  0  0  0  0  0  0  0  0  0  0
    7.1547   -0.6435    0.3702 C   0  0  0  0  0  0  0  0  0  0  0  0
    7.5171    0.6417   -0.0617 C   0  0  0  0  0  0  0  0  0  0  0  0
    7.4692    0.9730   -1.4168 C   0  0  0  0  0  0  0  0  0  0  0  0
    7.0643    0.0237   -2.3558 C   0  0  0  0  0  0  0  0  0  0  0  0
    6.7156   -1.2595   -1.9414 C   0  0  0  0  0  0  0  0  0  0  0  0
    6.7632   -1.5942   -0.5862 C   0  0  0  0  0  0  0  0  0  0  0  0
    3.4610    0.6796    2.4743 C   0  0  0  0  0  0  0  0  0  0  0  0
    2.7374    1.1600    3.3450 O   0  0  0  0  0  0  0  0  0  0  0  0
    3.0432    0.2424    1.2129 N   0  0  0  0  0  0  0  0  0  0  0  0
    1.7443    0.1394    0.7865 N   0  0  0  0  0  0  0  0  0  0  0  0
    0.8744    0.9943    1.2237 C   0  0  0  0  0  0  0  0  0  0  0  0
   -0.5492    0.9195    0.8310 C   0  0  0  0  0  0  0  0  0  0  0  0
   -1.4583    1.8146    1.4075 C   0  0  0  0  0  0  0  0  0  0  0  0
   -2.8100    1.7707    1.0457 C   0  0  0  0  0  0  0  0  0  0  0  0
   -3.2514    0.8411    0.1013 C   0  0  0  0  0  0  0  0  0  0  0  0
   -4.5353    0.6947   -0.3430 O   0  0  0  0  0  0  0  0  0  0  0  0
   -5.4682    1.7091    0.0271 C   0  0  0  0  0  0  0  0  0  0  0  0
   -6.8030    1.4741   -0.6823 C   0  0  0  0  0  0  0  0  0  0  0  0
   -7.6045    2.3817   -0.8910 O   0  0  0  0  0  0  0  0  0  0  0  0
   -7.0358    0.1671   -1.0318 N   0  0  0  0  0  0  0  0  0  0  0  0
   -8.2677   -0.2613   -1.6464 C   0  0  0  0  0  0  0  0  0  0  0  0
   -8.0296   -1.5656   -2.3076 C   0  0  0  0  0  0  0  0  0  0  0  0
   -7.6072   -1.9260   -3.5740 C   0  0  0  0  0  0  0  0  0  0  0  0
   -7.5534   -3.3404   -3.5847 C   0  0  0  0  0  0  0  0  0  0  0  0
   -7.9430   -3.7507   -2.3306 C   0  0  0  0  0  0  0  0  0  0  0  0
   -8.2323   -2.6805   -1.5480 O   0  0  0  0  0  0  0  0  0  0  0  0
   -2.3379   -0.0573   -0.4607 C   0  0  0  0  0  0  0  0  0  0  0  0
   -0.9890   -0.0212   -0.1006 C   0  0  0  0  0  0  0  0  0  0  0  0
    6.5393    1.1395    4.0510 H   0  0  0  0  0  0  0  0  0  0  0  0
    5.1261    2.1928    4.0716 H   0  0  0  0  0  0  0  0  0  0  0  0
    5.0303    0.6028    4.8211 H   0  0  0  0  0  0  0  0  0  0  0  0
    5.4263    1.1547    1.8193 H   0  0  0  0  0  0  0  0  0  0  0  0
    7.7013   -1.9451    1.9710 H   0  0  0  0  0  0  0  0  0  0  0  0
    7.7193   -0.2504    2.4223 H   0  0  0  0  0  0  0  0  0  0  0  0
    7.8292    1.4005    0.6517 H   0  0  0  0  0  0  0  0  0  0  0  0
    7.7456    1.9718   -1.7422 H   0  0  0  0  0  0  0  0  0  0  0  0
    7.0185    0.2875   -3.4096 H   0  0  0  0  0  0  0  0  0  0  0  0
    6.4057   -2.0005   -2.6722 H   0  0  0  0  0  0  0  0  0  0  0  0
    6.4822   -2.6008   -0.2775 H   0  0  0  0  0  0  0  0  0  0  0  0
    3.6766   -0.3971    0.7334 H   0  0  0  0  0  0  0  0  0  0  0  0
    1.1379    1.8387    1.8812 H   0  0  0  0  0  0  0  0  0  0  0  0
   -1.1271    2.5428    2.1443 H   0  0  0  0  0  0  0  0  0  0  0  0
   -3.4888    2.4686    1.5258 H   0  0  0  0  0  0  0  0  0  0  0  0
   -5.1020    2.6959   -0.2802 H   0  0  0  0  0  0  0  0  0  0  0  0
   -5.6606    1.6750    1.1047 H   0  0  0  0  0  0  0  0  0  0  0  0
   -6.3365   -0.5264   -0.7822 H   0  0  0  0  0  0  0  0  0  0  0  0
   -9.0262   -0.3502   -0.8601 H   0  0  0  0  0  0  0  0  0  0  0  0
   -8.6040    0.4916   -2.3662 H   0  0  0  0  0  0  0  0  0  0  0  0
   -7.3599   -1.2525   -4.3789 H   0  0  0  0  0  0  0  0  0  0  0  0
   -7.2614   -3.9814   -4.4061 H   0  0  0  0  0  0  0  0  0  0  0  0
   -8.0579   -4.7188   -1.8586 H   0  0  0  0  0  0  0  0  0  0  0  0
   -2.6776   -0.7850   -1.1923 H   0  0  0  0  0  0  0  0  0  0  0  0
   -0.2924   -0.7226   -0.5517 H   0  0  0  0  0  0  0  0  0  0  0  0
  1  2  1  0
  2  3  1  0
  3  4  1  0
  4  5  1  0
  5  6  2  0
  6  7  1  0
  7  8  2  0
  8  9  1  0
  9 10  2  0
  2 11  1  0
 11 12  2  0
 11 13  1  0
 13 14  1  0
 14 15  2  3
 15 16  1  0
 16 17  2  0
 17 18  1  0
 18 19  2  0
 19 20  1  0
 20 21  1  0
 21 22  1  0
 22 23  2  0
 22 24  1  0
 24 25  1  0
 25 26  1  0
 26 27  2  0
 27 28  1  0
 28 29  2  0
 29 30  1  0
 19 31  1  0
 31 32  2  0
 10  5  1  0
 32 16  1  0
 30 26  1  0
  1 33  1  0
  1 34  1  0
  1 35  1  0
  2 36  1  0
  4 37  1  0
  4 38  1  0
  6 39  1  0
  7 40  1  0
  8 41  1  0
  9 42  1  0
 10 43  1  0
 13 44  1  0
 15 45  1  0
 17 46  1  0
 18 47  1  0
 21 48  1  0
 21 49  1  0
 24 50  1  0
 25 51  1  0
 25 52  1  0
 27 53  1  0
 28 54  1  0
 29 55  1  0
 31 56  1  0
 32 57  1  0
M  END
$$$$
