
     RDKit          3D

 65 69  0  0  0  0  0  0  0  0999 V2000
    5.2597   -1.9322   -0.4894 O   0  0  0  0  0  0  0  0  0  0  0  0
    5.1294   -1.0530    0.3709 C   0  0  0  0  0  0  0  0  0  0  0  0
    5.8908   -1.1241    1.7272 C   0  0  0  0  0  0  0  0  0  0  0  0
    5.1748   -1.8395    2.9075 C   0  0  0  0  0  0  0  0  0  0  0  0
    6.5532   -2.3695    3.3422 C   0  0  0  0  0  0  0  0  0  0  0  0
    6.9992   -2.2075    1.8776 C   0  0  0  0  0  0  0  0  0  0  0  0
    4.2991    0.0511    0.2026 N   0  0  0  0  0  0  0  0  0  0  0  0
    4.0853    1.1203    1.1917 C   0  0  0  0  0  0  0  0  0  0  0  0
    2.9798    2.0354    0.6517 C   0  0  0  0  0  0  0  0  0  0  0  0
    2.8074    1.5226   -0.7416 C   0  0  0  0  0  0  0  0  0  0  0  0
    1.9893    2.0465   -1.7320 C   0  0  0  0  0  0  0  0  0  0  0  0
    1.9435    1.3790   -2.9597 C   0  0  0  0  0  0  0  0  0  0  0  0
    0.8985    1.9924   -4.2598 S   0  0  0  0  0  6  0  0  0  0  0  0
    0.4085    3.2957   -3.8701 O   0  0  0  0  0  0  0  0  0  0  0  0
    1.5781    1.7719   -5.5160 O   0  0  0  0  0  0  0  0  0  0  0  0
   -0.3915    0.9199   -4.2177 N   0  0  0  0  0  0  0  0  0  0  0  0
   -1.1611    0.7726   -2.9750 C   0  0  0  0  0  0  0  0  0  0  0  0
   -2.5654    0.2216   -3.2971 C   0  0  0  0  0  0  0  0  0  0  0  0
   -3.4911    0.0007   -2.1771 N   0  0  0  0  0  0  0  0  0  0  0  0
   -2.9984   -0.9784   -1.1882 C   0  0  0  0  0  0  0  0  0  0  0  0
   -4.0189   -1.2459   -0.0530 C   0  0  0  0  0  0  0  0  0  0  0  0
   -4.4010    0.0283    0.6059 N   0  0  0  0  0  0  0  0  0  0  0  0
   -5.1325   -0.1488    1.7989 C   0  0  0  0  0  0  0  0  0  0  0  0
   -4.5131   -0.8142    2.8747 C   0  0  0  0  0  0  0  0  0  0  0  0
   -5.1644   -1.0157    4.0981 C   0  0  0  0  0  0  0  0  0  0  0  0
   -6.4597   -0.5463    4.2842 C   0  0  0  0  0  0  0  0  0  0  0  0
   -7.0957    0.1284    3.2482 C   0  0  0  0  0  0  0  0  0  0  0  0
   -6.4383    0.3259    2.0309 C   0  0  0  0  0  0  0  0  0  0  0  0
   -7.1200    0.9772    1.0754 F   0  0  0  0  0  0  0  0  0  0  0  0
   -4.9168    1.0136   -0.3719 C   0  0  0  0  0  0  0  0  0  0  0  0
   -3.8734    1.2529   -1.4904 C   0  0  0  0  0  0  0  0  0  0  0  0
    2.7153    0.2276   -3.1917 C   0  0  0  0  0  0  0  0  0  0  0  0
    3.5284   -0.2875   -2.1769 C   0  0  0  0  0  0  0  0  0  0  0  0
    3.5641    0.3671   -0.9555 C   0  0  0  0  0  0  0  0  0  0  0  0
    6.2923   -0.1442    2.0241 H   0  0  0  0  0  0  0  0  0  0  0  0
    4.6784   -1.1857    3.6298 H   0  0  0  0  0  0  0  0  0  0  0  0
    4.4744   -2.6247    2.5991 H   0  0  0  0  0  0  0  0  0  0  0  0
    6.5692   -3.3886    3.7355 H   0  0  0  0  0  0  0  0  0  0  0  0
    7.0800   -1.7079    4.0395 H   0  0  0  0  0  0  0  0  0  0  0  0
    8.0247   -1.8559    1.7362 H   0  0  0  0  0  0  0  0  0  0  0  0
    6.8478   -3.1095    1.2735 H   0  0  0  0  0  0  0  0  0  0  0  0
    5.0259    1.6712    1.3071 H   0  0  0  0  0  0  0  0  0  0  0  0
    3.8171    0.6913    2.1622 H   0  0  0  0  0  0  0  0  0  0  0  0
    2.0544    1.9057    1.2219 H   0  0  0  0  0  0  0  0  0  0  0  0
    3.2829    3.0860    0.6729 H   0  0  0  0  0  0  0  0  0  0  0  0
    1.3999    2.9417   -1.5528 H   0  0  0  0  0  0  0  0  0  0  0  0
   -0.2636    0.1035   -4.8140 H   0  0  0  0  0  0  0  0  0  0  0  0
   -1.2473    1.7403   -2.4723 H   0  0  0  0  0  0  0  0  0  0  0  0
   -0.6259    0.0789   -2.3194 H   0  0  0  0  0  0  0  0  0  0  0  0
   -2.4524   -0.7293   -3.8354 H   0  0  0  0  0  0  0  0  0  0  0  0
   -3.0502    0.8918   -4.0202 H   0  0  0  0  0  0  0  0  0  0  0  0
   -2.0648   -0.6266   -0.7308 H   0  0  0  0  0  0  0  0  0  0  0  0
   -2.7844   -1.9308   -1.6879 H   0  0  0  0  0  0  0  0  0  0  0  0
   -3.5530   -1.9449    0.6507 H   0  0  0  0  0  0  0  0  0  0  0  0
   -4.9125   -1.7349   -0.4646 H   0  0  0  0  0  0  0  0  0  0  0  0
   -3.4877   -1.1624    2.7745 H   0  0  0  0  0  0  0  0  0  0  0  0
   -4.6506   -1.5316    4.9050 H   0  0  0  0  0  0  0  0  0  0  0  0
   -6.9680   -0.6987    5.2324 H   0  0  0  0  0  0  0  0  0  0  0  0
   -8.1047    0.5079    3.3729 H   0  0  0  0  0  0  0  0  0  0  0  0
   -5.8480    0.6534   -0.8287 H   0  0  0  0  0  0  0  0  0  0  0  0
   -5.1093    1.9750    0.1201 H   0  0  0  0  0  0  0  0  0  0  0  0
   -4.3041    1.9537   -2.2150 H   0  0  0  0  0  0  0  0  0  0  0  0
   -2.9933    1.7336   -1.0455 H   0  0  0  0  0  0  0  0  0  0  0  0
    2.6903   -0.2699   -4.1592 H   0  0  0  0  0  0  0  0  0  0  0  0
    4.1197   -1.1769   -2.3683 H   0  0  0  0  0  0  0  0  0  0  0  0
  1  2  2  0
  2  3  1  0
  3  4  1  0
  4  5  1  0
  5  6  1  0
  2  7  1  0
  7  8  1  0
  8  9  1  0
  9 10  1  0
 10 11  2  0
 11 12  1  0
 12 13  1  0
 13 14  2  0
 13 15  2  0
 13 16  1  0
 16 17  1  0
 17 18  1  0
 18 19  1  0
 19 20  1  0
 20 21  1  0
 21 22  1  0
 22 23  1  0
 23 24  2  0
 24 25  1  0
 25 26  2  0
 26 27  1  0
 27 28  2  0
 28 29  1  0
 22 30  1  0
 30 31  1  0
 12 32  2  0
 32 33  1  0
 33 34  2  0
  6  3  1  0
 34  7  1  0
 34 10  1  0
 31 19  1  0
 28 23  1  0
  3 35  1  0
  4 36  1  0
  4 37  1  0
  5 38  1  0
  5 39  1  0
  6 40  1  0
  6 41  1  0
  8 42  1  0
  8 43  1  0
  9 44  1  0
  9 45  1  0
 11 46  1  0
 16 47  1  0
 17 48  1  0
 17 49  1  0
 18 50  1  0
 18 51  1  0
 20 52  1  0
 20 53  1  0
 21 54  1  0
 21 55  1  0
 24 56  1  0
 25 57  1  0
 26 58  1  0
 27 59  1  0
 30 60  1  0
 30 61  1  0
 31 62  1  0
 31 63  1  0
 32 64  1  0
 33 65  1  0
M  END
$$$$
