
     RDKit          3D

 44 47  0  0  0  0  0  0  0  0999 V2000
   -2.8424   -1.3132    1.4748 O   0  0  0  0  0  0  0  0  0  0  0  0
   -2.9347   -0.8321    0.3551 C   0  0  0  0  0  0  0  0  0  0  0  0
   -2.4851   -1.3778   -0.8321 O   0  0  0  0  0  0  0  0  0  0  0  0
   -1.7320   -2.5419   -0.6407 C   0  0  0  0  0  0  0  0  0  0  0  0
   -2.3941   -3.7691   -0.7090 C   0  0  0  0  0  0  0  0  0  0  0  0
   -1.6683   -4.9462   -0.5398 C   0  0  0  0  0  0  0  0  0  0  0  0
   -0.2920   -4.8906   -0.3134 C   0  0  0  0  0  0  0  0  0  0  0  0
    0.3667   -3.6575   -0.2643 C   0  0  0  0  0  0  0  0  0  0  0  0
   -0.3436   -2.4649   -0.4445 C   0  0  0  0  0  0  0  0  0  0  0  0
    0.3899   -1.1937   -0.3921 C   0  0  0  0  0  0  0  0  0  0  0  0
    0.3762   -0.3262   -1.4146 C   0  0  0  0  0  0  0  0  0  0  0  0
    1.0359    1.0125   -1.4446 C   0  0  0  0  0  0  0  0  0  0  0  0
    0.5378    1.8445   -2.2076 O   0  0  0  0  0  0  0  0  0  0  0  0
    2.1960    1.3118   -0.6304 C   0  0  0  0  0  0  0  0  0  0  0  0
    2.8173    2.5247   -0.3848 C   0  0  0  0  0  0  0  0  0  0  0  0
    3.9290    2.2635    0.4557 C   0  0  0  0  0  0  0  0  0  0  0  0
    4.9378    3.0334    1.0601 C   0  0  0  0  0  0  0  0  0  0  0  0
    5.8977    2.3828    1.8491 C   0  0  0  0  0  0  0  0  0  0  0  0
    5.8602    0.9980    2.0343 C   0  0  0  0  0  0  0  0  0  0  0  0
    4.8652    0.2153    1.4392 C   0  0  0  0  0  0  0  0  0  0  0  0
    3.9267    0.8906    0.6629 C   0  0  0  0  0  0  0  0  0  0  0  0
    2.8873    0.3135    0.0019 O   0  0  0  0  0  0  0  0  0  0  0  0
   -3.6016    0.4701    0.0830 C   0  0  0  0  0  0  0  0  0  0  0  0
   -3.4497    1.1556   -1.1304 C   0  0  0  0  0  0  0  0  0  0  0  0
   -4.0863    2.3838   -1.3250 C   0  0  0  0  0  0  0  0  0  0  0  0
   -4.8739    2.9325   -0.3134 C   0  0  0  0  0  0  0  0  0  0  0  0
   -5.0246    2.2590    0.8978 C   0  0  0  0  0  0  0  0  0  0  0  0
   -4.3881    1.0327    1.0980 C   0  0  0  0  0  0  0  0  0  0  0  0
   -3.4659   -3.8069   -0.8782 H   0  0  0  0  0  0  0  0  0  0  0  0
   -2.1747   -5.9072   -0.5780 H   0  0  0  0  0  0  0  0  0  0  0  0
    0.2715   -5.8103   -0.1751 H   0  0  0  0  0  0  0  0  0  0  0  0
    1.4409   -3.6380   -0.0926 H   0  0  0  0  0  0  0  0  0  0  0  0
    0.9283   -1.0067    0.5320 H   0  0  0  0  0  0  0  0  0  0  0  0
   -0.2045   -0.5323   -2.3097 H   0  0  0  0  0  0  0  0  0  0  0  0
    2.4947    3.4811   -0.7734 H   0  0  0  0  0  0  0  0  0  0  0  0
    4.9767    4.1098    0.9221 H   0  0  0  0  0  0  0  0  0  0  0  0
    6.6838    2.9670    2.3236 H   0  0  0  0  0  0  0  0  0  0  0  0
    6.6177    0.5189    2.6515 H   0  0  0  0  0  0  0  0  0  0  0  0
    4.8220   -0.8586    1.5715 H   0  0  0  0  0  0  0  0  0  0  0  0
   -2.8303    0.7585   -1.9307 H   0  0  0  0  0  0  0  0  0  0  0  0
   -3.9609    2.9160   -2.2653 H   0  0  0  0  0  0  0  0  0  0  0  0
   -5.3660    3.8899   -0.4677 H   0  0  0  0  0  0  0  0  0  0  0  0
   -5.6340    2.6900    1.6884 H   0  0  0  0  0  0  0  0  0  0  0  0
   -4.5066    0.5177    2.0498 H   0  0  0  0  0  0  0  0  0  0  0  0
  1  2  2  0
  2  3  1  0
  3  4  1  0
  4  5  2  0
  5  6  1  0
  6  7  2  0
  7  8  1  0
  8  9  2  0
  9 10  1  0
 10 11  2  3
 11 12  1  0
 12 13  2  0
 12 14  1  0
 14 15  2  0
 15 16  1  0
 16 17  2  0
 17 18  1  0
 18 19  2  0
 19 20  1  0
 20 21  2  0
 21 22  1  0
  2 23  1  0
 23 24  2  0
 24 25  1  0
 25 26  2  0
 26 27  1  0
 27 28  2  0
  9  4  1  0
 22 14  1  0
 28 23  1  0
 21 16  1  0
  5 29  1  0
  6 30  1  0
  7 31  1  0
  8 32  1  0
 10 33  1  0
 11 34  1  0
 15 35  1  0
 17 36  1  0
 18 37  1  0
 19 38  1  0
 20 39  1  0
 24 40  1  0
 25 41  1  0
 26 42  1  0
 27 43  1  0
 28 44  1  0
M  END
$$$$
