
     RDKit          3D

 51 55  0  0  0  0  0  0  0  0999 V2000
   -3.6679   -1.6018    1.9089 C   0  0  0  0  0  0  0  0  0  0  0  0
   -2.9679   -0.4034    1.3169 C   0  0  0  0  0  0  0  0  0  0  0  0
   -1.5878   -0.5167    1.2316 N   0  0  0  0  0  0  0  0  0  0  0  0
   -0.8141    0.4647    0.7199 C   0  0  0  0  0  0  0  0  0  0  0  0
    0.5406    0.5974    0.5044 C   0  0  0  0  0  0  0  0  0  0  0  0
    1.5447   -0.4055    0.8044 C   0  0  0  0  0  0  0  0  0  0  0  0
    1.2635   -1.4640    1.3608 O   0  0  0  0  0  0  0  0  0  0  0  0
    2.8263   -0.0956    0.4120 N   0  0  0  0  0  0  0  0  0  0  0  0
    3.8907   -1.0574    0.5664 C   0  0  0  0  0  0  0  0  0  0  0  0
    5.2202   -0.4335    0.2367 C   0  0  0  0  0  0  0  0  0  0  0  0
    5.9073    0.3268    1.2119 C   0  0  0  0  0  0  0  0  0  0  0  0
    7.1289    0.9406    0.9174 C   0  0  0  0  0  0  0  0  0  0  0  0
    7.6333    0.7851   -0.3548 C   0  0  0  0  0  0  0  0  0  0  0  0
    6.9691    0.0563   -1.3123 C   0  0  0  0  0  0  0  0  0  0  0  0
    5.7633   -0.5607   -1.0522 C   0  0  0  0  0  0  0  0  0  0  0  0
    7.6322    0.0322   -2.4992 O   0  0  0  0  0  0  0  0  0  0  0  0
    8.7949    0.8238   -2.1762 C   0  0  0  0  0  0  0  0  0  0  0  0
    8.7989    1.3099   -0.8178 O   0  0  0  0  0  0  0  0  0  0  0  0
    0.6515    1.9013   -0.0360 C   0  0  0  0  0  0  0  0  0  0  0  0
   -0.5201    2.5314   -0.1631 N   0  0  0  0  0  0  0  0  0  0  0  0
   -1.4245    1.6243    0.2994 N   0  0  0  0  0  0  0  0  0  0  0  0
   -2.8072    1.8648    0.3576 C   0  0  0  0  0  0  0  0  0  0  0  0
   -3.2775    2.9429    0.0152 O   0  0  0  0  0  0  0  0  0  0  0  0
   -3.6187    0.7102    0.8931 C   0  0  0  0  0  0  0  0  0  0  0  0
   -5.1111    0.9338    0.9035 C   0  0  0  0  0  0  0  0  0  0  0  0
   -5.8912    0.0559   -0.0511 C   0  0  0  0  0  0  0  0  0  0  0  0
   -7.0046   -0.6692    0.4024 C   0  0  0  0  0  0  0  0  0  0  0  0
   -7.7436   -1.4644   -0.4782 C   0  0  0  0  0  0  0  0  0  0  0  0
   -7.3879   -1.5375   -1.8242 C   0  0  0  0  0  0  0  0  0  0  0  0
   -6.2952   -0.8109   -2.2909 C   0  0  0  0  0  0  0  0  0  0  0  0
   -5.5625   -0.0205   -1.4091 C   0  0  0  0  0  0  0  0  0  0  0  0
   -4.5203    0.6708   -1.8909 F   0  0  0  0  0  0  0  0  0  0  0  0
   -3.1493   -1.9325    2.8160 H   0  0  0  0  0  0  0  0  0  0  0  0
   -4.7012   -1.4000    2.1992 H   0  0  0  0  0  0  0  0  0  0  0  0
   -3.6661   -2.4296    1.1924 H   0  0  0  0  0  0  0  0  0  0  0  0
   -1.1632   -1.3918    1.5519 H   0  0  0  0  0  0  0  0  0  0  0  0
    2.9965    0.6995   -0.1858 H   0  0  0  0  0  0  0  0  0  0  0  0
    3.8885   -1.4418    1.5934 H   0  0  0  0  0  0  0  0  0  0  0  0
    3.6837   -1.9085   -0.0931 H   0  0  0  0  0  0  0  0  0  0  0  0
    5.4844    0.4409    2.2090 H   0  0  0  0  0  0  0  0  0  0  0  0
    7.6613    1.5215    1.6621 H   0  0  0  0  0  0  0  0  0  0  0  0
    5.2601   -1.1259   -1.8300 H   0  0  0  0  0  0  0  0  0  0  0  0
    8.8335    1.6829   -2.8559 H   0  0  0  0  0  0  0  0  0  0  0  0
    9.6905    0.2114   -2.3323 H   0  0  0  0  0  0  0  0  0  0  0  0
    1.5433    2.4329   -0.3423 H   0  0  0  0  0  0  0  0  0  0  0  0
   -5.4706    0.7828    1.9302 H   0  0  0  0  0  0  0  0  0  0  0  0
   -5.3711    1.9740    0.6740 H   0  0  0  0  0  0  0  0  0  0  0  0
   -7.3071   -0.6200    1.4466 H   0  0  0  0  0  0  0  0  0  0  0  0
   -8.6021   -2.0238   -0.1135 H   0  0  0  0  0  0  0  0  0  0  0  0
   -7.9649   -2.1537   -2.5090 H   0  0  0  0  0  0  0  0  0  0  0  0
   -6.0093   -0.8493   -3.3373 H   0  0  0  0  0  0  0  0  0  0  0  0
  1  2  1  0
  2  3  1  0
  3  4  1  0
  4  5  2  0
  5  6  1  0
  6  7  2  0
  6  8  1  0
  8  9  1  0
  9 10  1  0
 10 11  2  0
 11 12  1  0
 12 13  2  0
 13 14  1  0
 14 15  2  0
 14 16  1  0
 16 17  1  0
 17 18  1  0
  5 19  1  0
 19 20  2  0
 20 21  1  0
 21 22  1  0
 22 23  2  0
 22 24  1  0
 24 25  1  0
 25 26  1  0
 26 27  2  0
 27 28  1  0
 28 29  2  0
 29 30  1  0
 30 31  2  0
 31 32  1  0
 24  2  2  0
 31 26  1  0
 21  4  1  0
 15 10  1  0
 18 13  1  0
  1 33  1  0
  1 34  1  0
  1 35  1  0
  3 36  1  0
  8 37  1  0
  9 38  1  0
  9 39  1  0
 11 40  1  0
 12 41  1  0
 15 42  1  0
 17 43  1  0
 17 44  1  0
 19 45  1  0
 25 46  1  0
 25 47  1  0
 27 48  1  0
 28 49  1  0
 29 50  1  0
 30 51  1  0
M  END
$$$$
