
     RDKit          3D

 49 52  0  0  0  0  0  0  0  0999 V2000
    5.6805    1.5776    0.7696 C   0  0  0  0  0  0  0  0  0  0  0  0
    5.1058    0.6286    1.7196 N   0  0  0  0  0  0  0  0  0  0  0  0
    4.9808   -0.7215    1.1381 C   0  0  0  0  0  0  0  0  0  0  0  0
    3.8453   -0.8806    0.0997 C   0  0  0  0  0  0  0  0  0  0  0  0
    2.5283   -0.4516    0.6164 N   0  0  0  0  0  0  0  0  0  0  0  0
    1.5049   -0.5699   -0.4325 C   0  0  0  0  0  0  0  0  0  0  0  0
    0.0780   -0.3656    0.0907 C   0  0  0  0  0  0  0  0  0  0  0  0
   -0.9453   -0.6716   -1.0134 C   0  0  0  0  0  0  0  0  0  0  0  0
   -2.3322   -0.3890   -0.5754 N   0  0  0  0  0  0  0  0  0  0  0  0
   -3.0695   -1.4723   -0.0128 C   0  0  0  0  0  0  0  0  0  0  0  0
   -2.4413   -2.6475    0.4600 C   0  0  0  0  0  0  0  0  0  0  0  0
   -3.1553   -3.7112    1.0259 C   0  0  0  0  0  0  0  0  0  0  0  0
   -4.5322   -3.6358    1.1430 C   0  0  0  0  0  0  0  0  0  0  0  0
   -5.1863   -2.4942    0.6961 C   0  0  0  0  0  0  0  0  0  0  0  0
   -4.4713   -1.4201    0.1287 C   0  0  0  0  0  0  0  0  0  0  0  0
   -5.4634   -0.0502   -0.4154 S   0  0  0  0  0  0  0  0  0  0  0  0
   -4.2379    1.1791   -0.7907 C   0  0  0  0  0  0  0  0  0  0  0  0
   -4.7414    2.4685   -1.0585 C   0  0  0  0  0  0  0  0  0  0  0  0
   -3.8901    3.5168   -1.3881 C   0  0  0  0  0  0  0  0  0  0  0  0
   -2.5290    3.2756   -1.4503 C   0  0  0  0  0  0  0  0  0  0  0  0
   -1.4515    4.5586   -1.8473 Cl  0  0  0  0  0  0  0  0  0  0  0  0
   -2.0201    1.9992   -1.1892 C   0  0  0  0  0  0  0  0  0  0  0  0
   -2.8548    0.9078   -0.8566 C   0  0  0  0  0  0  0  0  0  0  0  0
    2.6295    0.9158    1.1663 C   0  0  0  0  0  0  0  0  0  0  0  0
    3.7790    1.0668    2.1937 C   0  0  0  0  0  0  0  0  0  0  0  0
    5.0768    1.7105   -0.1337 H   0  0  0  0  0  0  0  0  0  0  0  0
    5.8055    2.5587    1.2412 H   0  0  0  0  0  0  0  0  0  0  0  0
    6.6810    1.2512    0.4642 H   0  0  0  0  0  0  0  0  0  0  0  0
    5.9338   -1.0288    0.6898 H   0  0  0  0  0  0  0  0  0  0  0  0
    4.8023   -1.4279    1.9600 H   0  0  0  0  0  0  0  0  0  0  0  0
    4.1014   -0.3193   -0.8082 H   0  0  0  0  0  0  0  0  0  0  0  0
    3.7945   -1.9398   -0.1811 H   0  0  0  0  0  0  0  0  0  0  0  0
    1.5592   -1.5797   -0.8601 H   0  0  0  0  0  0  0  0  0  0  0  0
    1.7051    0.1337   -1.2512 H   0  0  0  0  0  0  0  0  0  0  0  0
   -0.0532    0.6613    0.4457 H   0  0  0  0  0  0  0  0  0  0  0  0
   -0.0920   -1.0106    0.9599 H   0  0  0  0  0  0  0  0  0  0  0  0
   -0.7026   -0.1084   -1.9242 H   0  0  0  0  0  0  0  0  0  0  0  0
   -0.8414   -1.7112   -1.3509 H   0  0  0  0  0  0  0  0  0  0  0  0
   -1.3642   -2.7722    0.4230 H   0  0  0  0  0  0  0  0  0  0  0  0
   -2.6253   -4.5925    1.3784 H   0  0  0  0  0  0  0  0  0  0  0  0
   -5.0952   -4.4551    1.5810 H   0  0  0  0  0  0  0  0  0  0  0  0
   -6.2693   -2.4424    0.7915 H   0  0  0  0  0  0  0  0  0  0  0  0
   -5.8122    2.6600   -1.0109 H   0  0  0  0  0  0  0  0  0  0  0  0
   -4.2939    4.5045   -1.5896 H   0  0  0  0  0  0  0  0  0  0  0  0
   -0.9424    1.8910   -1.2369 H   0  0  0  0  0  0  0  0  0  0  0  0
    2.7662    1.6445    0.3572 H   0  0  0  0  0  0  0  0  0  0  0  0
    1.7010    1.1778    1.6852 H   0  0  0  0  0  0  0  0  0  0  0  0
    3.8267    2.1071    2.5394 H   0  0  0  0  0  0  0  0  0  0  0  0
    3.5278    0.4742    3.0838 H   0  0  0  0  0  0  0  0  0  0  0  0
  1  2  1  0
  2  3  1  0
  3  4  1  0
  4  5  1  0
  5  6  1  0
  6  7  1  0
  7  8  1  0
  8  9  1  0
  9 10  1  0
 10 11  2  0
 11 12  1  0
 12 13  2  0
 13 14  1  0
 14 15  2  0
 15 16  1  0
 16 17  1  0
 17 18  2  0
 18 19  1  0
 19 20  2  0
 20 21  1  0
 20 22  1  0
 22 23  2  0
  5 24  1  0
 24 25  1  0
 25  2  1  0
 23  9  1  0
 15 10  1  0
 23 17  1  0
  1 26  1  0
  1 27  1  0
  1 28  1  0
  3 29  1  0
  3 30  1  0
  4 31  1  0
  4 32  1  0
  6 33  1  0
  6 34  1  0
  7 35  1  0
  7 36  1  0
  8 37  1  0
  8 38  1  0
 11 39  1  0
 12 40  1  0
 13 41  1  0
 14 42  1  0
 18 43  1  0
 19 44  1  0
 22 45  1  0
 24 46  1  0
 24 47  1  0
 25 48  1  0
 25 49  1  0
M  END
$$$$
