
     RDKit          3D

 47 50  0  0  0  0  0  0  0  0999 V2000
   -4.3107    3.1711    0.8344 C   0  0  0  0  0  0  0  0  0  0  0  0
   -4.3639    1.9015   -0.0179 C   0  0  0  0  0  0  0  0  0  0  0  0
   -3.0024    1.5746   -0.6139 C   0  0  0  0  0  0  0  0  0  0  0  0
   -2.0626    0.8878    0.3561 C   0  0  0  0  0  0  0  0  0  0  0  0
   -1.2342    1.5427    0.9966 O   0  0  0  0  0  0  0  0  0  0  0  0
   -2.1261   -0.5039    0.4267 N   0  0  0  0  0  0  0  0  0  0  0  0
   -1.0225   -1.1646    1.1246 C   0  0  0  0  0  0  0  0  0  0  0  0
    0.2385   -1.1861    0.2460 C   0  0  0  0  0  0  0  0  0  0  0  0
    0.2634   -1.8192   -0.8076 O   0  0  0  0  0  0  0  0  0  0  0  0
    1.2763   -0.4239    0.7610 N   0  0  0  0  0  0  0  0  0  0  0  0
    2.5785   -0.2771    0.2349 C   0  0  0  0  0  0  0  0  0  0  0  0
    2.9988   -0.8395   -0.9772 C   0  0  0  0  0  0  0  0  0  0  0  0
    4.3153   -0.6657   -1.4211 C   0  0  0  0  0  0  0  0  0  0  0  0
    5.2251    0.0566   -0.6475 C   0  0  0  0  0  0  0  0  0  0  0  0
    4.8098    0.6395    0.5538 C   0  0  0  0  0  0  0  0  0  0  0  0
    3.4947    0.4721    0.9939 C   0  0  0  0  0  0  0  0  0  0  0  0
    5.6448    1.3727    1.3663 O   0  0  0  0  0  0  0  0  0  0  0  0
    6.8465    1.7507    0.6825 C   0  0  0  0  0  0  0  0  0  0  0  0
    7.4172    0.5702   -0.0944 C   0  0  0  0  0  0  0  0  0  0  0  0
    6.5067    0.1558   -1.1271 O   0  0  0  0  0  0  0  0  0  0  0  0
   -3.2203   -1.2918   -0.0616 C   0  0  0  0  0  0  0  0  0  0  0  0
   -2.9592   -2.5397   -0.6576 C   0  0  0  0  0  0  0  0  0  0  0  0
   -3.9930   -3.3395   -1.1557 C   0  0  0  0  0  0  0  0  0  0  0  0
   -5.3124   -2.9138   -1.0547 C   0  0  0  0  0  0  0  0  0  0  0  0
   -5.5994   -1.6949   -0.4409 C   0  0  0  0  0  0  0  0  0  0  0  0
   -4.5683   -0.8773    0.0562 C   0  0  0  0  0  0  0  0  0  0  0  0
   -5.0849    0.5597    0.9965 S   0  0  0  0  0  0  0  0  0  0  0  0
   -5.3043    3.4391    1.2131 H   0  0  0  0  0  0  0  0  0  0  0  0
   -3.6327    3.0603    1.6917 H   0  0  0  0  0  0  0  0  0  0  0  0
   -3.9550    4.0211    0.2375 H   0  0  0  0  0  0  0  0  0  0  0  0
   -5.0615    2.0842   -0.8457 H   0  0  0  0  0  0  0  0  0  0  0  0
   -3.1110    0.9541   -1.5142 H   0  0  0  0  0  0  0  0  0  0  0  0
   -2.5085    2.4897   -0.9717 H   0  0  0  0  0  0  0  0  0  0  0  0
   -0.8299   -0.6380    2.0672 H   0  0  0  0  0  0  0  0  0  0  0  0
   -1.2761   -2.1958    1.4009 H   0  0  0  0  0  0  0  0  0  0  0  0
    1.0716    0.1326    1.5896 H   0  0  0  0  0  0  0  0  0  0  0  0
    2.3258   -1.4167   -1.6113 H   0  0  0  0  0  0  0  0  0  0  0  0
    4.6291   -1.1112   -2.3628 H   0  0  0  0  0  0  0  0  0  0  0  0
    3.2024    0.9260    1.9390 H   0  0  0  0  0  0  0  0  0  0  0  0
    7.5658    2.0937    1.4372 H   0  0  0  0  0  0  0  0  0  0  0  0
    6.6162    2.5978    0.0188 H   0  0  0  0  0  0  0  0  0  0  0  0
    8.3580    0.8567   -0.5755 H   0  0  0  0  0  0  0  0  0  0  0  0
    7.6156   -0.2913    0.5612 H   0  0  0  0  0  0  0  0  0  0  0  0
   -1.9400   -2.8995   -0.7847 H   0  0  0  0  0  0  0  0  0  0  0  0
   -3.7601   -4.2939   -1.6244 H   0  0  0  0  0  0  0  0  0  0  0  0
   -6.1196   -3.5344   -1.4382 H   0  0  0  0  0  0  0  0  0  0  0  0
   -6.6412   -1.3926   -0.3346 H   0  0  0  0  0  0  0  0  0  0  0  0
  1  2  1  0
  2  3  1  0
  3  4  1  0
  4  5  2  0
  4  6  1  0
  6  7  1  0
  7  8  1  0
  8  9  2  0
  8 10  1  0
 10 11  1  0
 11 12  2  0
 12 13  1  0
 13 14  2  0
 14 15  1  0
 15 16  2  0
 15 17  1  0
 17 18  1  0
 18 19  1  0
 19 20  1  0
  6 21  1  0
 21 22  2  0
 22 23  1  0
 23 24  2  0
 24 25  1  0
 25 26  2  0
 26 27  1  0
 27  2  1  0
 16 11  1  0
 26 21  1  0
 20 14  1  0
  1 28  1  0
  1 29  1  0
  1 30  1  0
  2 31  1  0
  3 32  1  0
  3 33  1  0
  7 34  1  0
  7 35  1  0
 10 36  1  0
 12 37  1  0
 13 38  1  0
 16 39  1  0
 18 40  1  0
 18 41  1  0
 19 42  1  0
 19 43  1  0
 22 44  1  0
 23 45  1  0
 24 46  1  0
 25 47  1  0
M  END
$$$$
