
     RDKit          3D

 60 65  0  0  0  0  0  0  0  0999 V2000
   -2.1603   -3.0673   -1.9159 O   0  0  0  0  0  0  0  0  0  0  0  0
   -2.3684   -2.2766   -1.0039 C   0  0  0  0  0  0  0  0  0  0  0  0
   -1.4536   -1.2950   -0.6413 N   0  0  0  0  0  0  0  0  0  0  0  0
   -1.6543   -0.3696    0.3750 C   0  0  0  0  0  0  0  0  0  0  0  0
   -0.5335    0.6378    0.6242 C   0  0  0  0  0  0  0  0  0  0  0  0
    0.6715   -0.0265    1.2973 C   0  0  0  0  0  0  0  0  0  0  0  0
    1.4972   -0.9168    0.3649 C   0  0  0  0  0  0  0  0  0  0  0  0
    1.3371   -0.4999   -1.0543 N   0  0  0  0  0  0  0  0  0  0  0  0
    2.3310   -1.3144   -2.1896 S   0  0  0  0  0  6  0  0  0  0  0  0
    1.9302   -0.8714   -3.5069 O   0  0  0  0  0  0  0  0  0  0  0  0
    2.3270   -2.7154   -1.8316 O   0  0  0  0  0  0  0  0  0  0  0  0
    3.9566   -0.6682   -1.8724 C   0  0  0  0  0  0  0  0  0  0  0  0
    4.3880    0.4792   -2.5491 C   0  0  0  0  0  0  0  0  0  0  0  0
    5.6752    0.9692   -2.3238 C   0  0  0  0  0  0  0  0  0  0  0  0
    6.5277    0.3028   -1.4442 C   0  0  0  0  0  0  0  0  0  0  0  0
    6.0901   -0.8435   -0.7701 C   0  0  0  0  0  0  0  0  0  0  0  0
    4.8124   -1.3473   -1.0003 C   0  0  0  0  0  0  0  0  0  0  0  0
    6.8682   -1.5313    0.1248 O   0  0  0  0  0  0  0  0  0  0  0  0
    8.0180   -0.7726    0.5183 C   0  0  0  0  0  0  0  0  0  0  0  0
    8.6735   -0.1189   -0.6869 C   0  0  0  0  0  0  0  0  0  0  0  0
    7.7844    0.8289   -1.2899 O   0  0  0  0  0  0  0  0  0  0  0  0
    1.2040    0.9632   -1.2232 C   0  0  0  0  0  0  0  0  0  0  0  0
   -0.1461    1.3967   -0.6549 C   0  0  0  0  0  0  0  0  0  0  0  0
   -2.7237   -0.3252    1.1234 N   0  0  0  0  0  0  0  0  0  0  0  0
   -3.6352   -1.2738    0.7930 C   0  0  0  0  0  0  0  0  0  0  0  0
   -3.5520   -2.2320   -0.1886 C   0  0  0  0  0  0  0  0  0  0  0  0
   -4.6715   -3.0048   -0.1998 N   0  0  0  0  0  0  0  0  0  0  0  0
   -5.4748   -2.5529    0.7636 N   0  0  0  0  0  0  0  0  0  0  0  0
   -4.8618   -1.4970    1.3526 N   0  0  0  0  0  0  0  0  0  0  0  0
   -5.4761   -0.8024    2.4654 C   0  0  0  0  0  0  0  0  0  0  0  0
   -6.3221    0.3507    1.9997 C   0  0  0  0  0  0  0  0  0  0  0  0
   -5.7449    1.5788    1.6415 C   0  0  0  0  0  0  0  0  0  0  0  0
   -6.5453    2.6329    1.1933 C   0  0  0  0  0  0  0  0  0  0  0  0
   -7.9276    2.4725    1.0967 C   0  0  0  0  0  0  0  0  0  0  0  0
   -8.5106    1.2572    1.4493 C   0  0  0  0  0  0  0  0  0  0  0  0
   -7.7081    0.2108    1.8948 C   0  0  0  0  0  0  0  0  0  0  0  0
   -8.2905   -0.9454    2.2405 F   0  0  0  0  0  0  0  0  0  0  0  0
   -0.5992   -1.2803   -1.1893 H   0  0  0  0  0  0  0  0  0  0  0  0
   -0.9453    1.3734    1.3297 H   0  0  0  0  0  0  0  0  0  0  0  0
    0.3589   -0.6099    2.1721 H   0  0  0  0  0  0  0  0  0  0  0  0
    1.3254    0.7676    1.6826 H   0  0  0  0  0  0  0  0  0  0  0  0
    2.5450   -0.8798    0.6750 H   0  0  0  0  0  0  0  0  0  0  0  0
    1.1512   -1.9519    0.4633 H   0  0  0  0  0  0  0  0  0  0  0  0
    3.7387    0.9853   -3.2605 H   0  0  0  0  0  0  0  0  0  0  0  0
    6.0233    1.8550   -2.8493 H   0  0  0  0  0  0  0  0  0  0  0  0
    4.4945   -2.2577   -0.4978 H   0  0  0  0  0  0  0  0  0  0  0  0
    8.7182   -1.4595    1.0039 H   0  0  0  0  0  0  0  0  0  0  0  0
    7.7035   -0.0254    1.2574 H   0  0  0  0  0  0  0  0  0  0  0  0
    8.9583   -0.8615   -1.4427 H   0  0  0  0  0  0  0  0  0  0  0  0
    9.5755    0.4206   -0.3814 H   0  0  0  0  0  0  0  0  0  0  0  0
    2.0210    1.4743   -0.7003 H   0  0  0  0  0  0  0  0  0  0  0  0
    1.2484    1.2573   -2.2761 H   0  0  0  0  0  0  0  0  0  0  0  0
   -0.0968    2.4722   -0.4429 H   0  0  0  0  0  0  0  0  0  0  0  0
   -0.9220    1.2801   -1.4222 H   0  0  0  0  0  0  0  0  0  0  0  0
   -6.0613   -1.5322    3.0366 H   0  0  0  0  0  0  0  0  0  0  0  0
   -4.6795   -0.4485    3.1303 H   0  0  0  0  0  0  0  0  0  0  0  0
   -4.6671    1.7201    1.7031 H   0  0  0  0  0  0  0  0  0  0  0  0
   -6.0891    3.5799    0.9143 H   0  0  0  0  0  0  0  0  0  0  0  0
   -8.5488    3.2921    0.7446 H   0  0  0  0  0  0  0  0  0  0  0  0
   -9.5845    1.1155    1.3782 H   0  0  0  0  0  0  0  0  0  0  0  0
  1  2  2  0
  2  3  1  0
  3  4  1  0
  4  5  1  0
  5  6  1  0
  6  7  1  0
  7  8  1  0
  8  9  1  0
  9 10  2  0
  9 11  2  0
  9 12  1  0
 12 13  2  0
 13 14  1  0
 14 15  2  0
 15 16  1  0
 16 17  2  0
 16 18  1  0
 18 19  1  0
 19 20  1  0
 20 21  1  0
  8 22  1  0
 22 23  1  0
  4 24  2  0
 24 25  1  0
 25 26  2  0
 26 27  1  0
 27 28  2  0
 28 29  1  0
 29 30  1  0
 30 31  1  0
 31 32  2  0
 32 33  1  0
 33 34  2  0
 34 35  1  0
 35 36  2  0
 36 37  1  0
 26  2  1  0
 36 31  1  0
 23  5  1  0
 29 25  1  0
 17 12  1  0
 21 15  1  0
  3 38  1  0
  5 39  1  0
  6 40  1  0
  6 41  1  0
  7 42  1  0
  7 43  1  0
 13 44  1  0
 14 45  1  0
 17 46  1  0
 19 47  1  0
 19 48  1  0
 20 49  1  0
 20 50  1  0
 22 51  1  0
 22 52  1  0
 23 53  1  0
 23 54  1  0
 30 55  1  0
 30 56  1  0
 32 57  1  0
 33 58  1  0
 34 59  1  0
 35 60  1  0
M  END
$$$$
