
     RDKit          3D

 33 34  0  0  0  0  0  0  0  0999 V2000
   -5.2493    1.1866   -1.4685 N   0  0  0  0  0  0  0  0  0  0  0  0
   -4.1758    0.9211   -0.6125 C   0  0  0  0  0  0  0  0  0  0  0  0
   -2.9126    1.4537   -0.8824 C   0  0  0  0  0  0  0  0  0  0  0  0
   -1.8037    1.1005   -0.1050 C   0  0  0  0  0  0  0  0  0  0  0  0
   -1.9411    0.1721    0.9335 C   0  0  0  0  0  0  0  0  0  0  0  0
   -0.7965   -0.2503    1.7848 C   0  0  0  0  0  0  0  0  0  0  0  0
   -0.8675   -1.1324    2.6255 O   0  0  0  0  0  0  0  0  0  0  0  0
    0.3083    0.4736    1.4838 O   0  0  0  0  0  0  0  0  0  0  0  0
    1.5040    0.1265    2.2040 C   0  0  0  0  0  0  0  0  0  0  0  0
    2.1952   -1.0933    1.5901 C   0  0  0  0  0  0  0  0  0  0  0  0
    2.7537   -0.8065    0.2153 C   0  0  0  0  0  0  0  0  0  0  0  0
    4.0304   -0.2474    0.0679 C   0  0  0  0  0  0  0  0  0  0  0  0
    4.5364    0.0336   -1.2023 C   0  0  0  0  0  0  0  0  0  0  0  0
    3.7713   -0.2379   -2.3351 C   0  0  0  0  0  0  0  0  0  0  0  0
    2.4991   -0.7901   -2.1994 C   0  0  0  0  0  0  0  0  0  0  0  0
    1.9914   -1.0724   -0.9305 C   0  0  0  0  0  0  0  0  0  0  0  0
   -3.1921   -0.4100    1.1669 C   0  0  0  0  0  0  0  0  0  0  0  0
   -4.2942   -0.0504    0.3841 C   0  0  0  0  0  0  0  0  0  0  0  0
   -6.1606    1.0281   -1.0498 H   0  0  0  0  0  0  0  0  0  0  0  0
   -5.1925    2.0857   -1.9367 H   0  0  0  0  0  0  0  0  0  0  0  0
   -2.7779    2.1516   -1.7050 H   0  0  0  0  0  0  0  0  0  0  0  0
   -0.8387    1.5456   -0.3351 H   0  0  0  0  0  0  0  0  0  0  0  0
    1.2674   -0.0545    3.2596 H   0  0  0  0  0  0  0  0  0  0  0  0
    2.1611    1.0029    2.1740 H   0  0  0  0  0  0  0  0  0  0  0  0
    3.0142   -1.4155    2.2449 H   0  0  0  0  0  0  0  0  0  0  0  0
    1.5019   -1.9402    1.5237 H   0  0  0  0  0  0  0  0  0  0  0  0
    4.6396   -0.0281    0.9416 H   0  0  0  0  0  0  0  0  0  0  0  0
    5.5285    0.4647   -1.3081 H   0  0  0  0  0  0  0  0  0  0  0  0
    4.1663   -0.0193   -3.3235 H   0  0  0  0  0  0  0  0  0  0  0  0
    1.9009   -1.0016   -3.0818 H   0  0  0  0  0  0  0  0  0  0  0  0
    0.9954   -1.5005   -0.8404 H   0  0  0  0  0  0  0  0  0  0  0  0
   -3.3138   -1.1567    1.9492 H   0  0  0  0  0  0  0  0  0  0  0  0
   -5.2488   -0.5392    0.5621 H   0  0  0  0  0  0  0  0  0  0  0  0
  1  2  1  0
  2  3  2  0
  3  4  1  0
  4  5  2  0
  5  6  1  0
  6  7  2  0
  6  8  1  0
  8  9  1  0
  9 10  1  0
 10 11  1  0
 11 12  2  0
 12 13  1  0
 13 14  2  0
 14 15  1  0
 15 16  2  0
  5 17  1  0
 17 18  2  0
 18  2  1  0
 16 11  1  0
  1 19  1  0
  1 20  1  0
  3 21  1  0
  4 22  1  0
  9 23  1  0
  9 24  1  0
 10 25  1  0
 10 26  1  0
 12 27  1  0
 13 28  1  0
 14 29  1  0
 15 30  1  0
 16 31  1  0
 17 32  1  0
 18 33  1  0
M  END
$$$$
