
     RDKit          3D

 51 55  0  0  0  0  0  0  0  0999 V2000
    2.6755   -0.7356    3.1493 O   0  0  0  0  0  0  0  0  0  0  0  0
    2.0199    0.0859    2.5127 C   0  0  0  0  0  0  0  0  0  0  0  0
    0.6029    0.4990    2.9210 C   0  0  0  0  0  0  0  0  0  0  0  0
   -0.3925   -0.0869    2.0139 N   0  0  0  0  0  0  0  0  0  0  0  0
   -0.5772    0.5303    0.7774 C   0  0  0  0  0  0  0  0  0  0  0  0
   -0.0283    1.5998    0.4921 O   0  0  0  0  0  0  0  0  0  0  0  0
   -1.3807   -0.2153   -0.2654 C   0  0  0  0  0  0  0  0  0  0  0  0
   -2.8812    0.0052   -0.1551 C   0  0  0  0  0  0  0  0  0  0  0  0
   -3.3106    1.2587   -0.8515 C   0  0  0  0  0  0  0  0  0  0  0  0
   -3.0298    2.6015   -0.6825 C   0  0  0  0  0  0  0  0  0  0  0  0
   -3.7437    3.2916   -1.6898 C   0  0  0  0  0  0  0  0  0  0  0  0
   -4.4227    2.3337   -2.4041 C   0  0  0  0  0  0  0  0  0  0  0  0
   -4.1605    1.0975   -1.9095 O   0  0  0  0  0  0  0  0  0  0  0  0
   -3.5313    0.0006    1.5564 S   0  0  0  0  0  0  0  0  0  0  0  0
   -2.5449   -1.3168    2.2583 C   0  0  0  0  0  0  0  0  0  0  0  0
   -3.2442   -2.4339    2.7405 C   0  0  0  0  0  0  0  0  0  0  0  0
   -2.5792   -3.4437    3.4332 C   0  0  0  0  0  0  0  0  0  0  0  0
   -1.2118   -3.3393    3.6616 C   0  0  0  0  0  0  0  0  0  0  0  0
   -0.5060   -2.2297    3.1902 C   0  0  0  0  0  0  0  0  0  0  0  0
   -1.1522   -1.2100    2.4727 C   0  0  0  0  0  0  0  0  0  0  0  0
    2.4719    0.6942    1.3652 N   0  0  0  0  0  0  0  0  0  0  0  0
    3.7069    0.3365    0.7156 C   0  0  0  0  0  0  0  0  0  0  0  0
    3.5008    0.3046   -0.7772 C   0  0  0  0  0  0  0  0  0  0  0  0
    3.9918    1.3485   -1.5939 C   0  0  0  0  0  0  0  0  0  0  0  0
    3.7488    1.3589   -2.9709 C   0  0  0  0  0  0  0  0  0  0  0  0
    3.0122    0.3220   -3.4996 C   0  0  0  0  0  0  0  0  0  0  0  0
    2.5301   -0.6983   -2.7152 C   0  0  0  0  0  0  0  0  0  0  0  0
    2.7573   -0.7388   -1.3567 C   0  0  0  0  0  0  0  0  0  0  0  0
    1.8239   -1.6148   -3.4300 O   0  0  0  0  0  0  0  0  0  0  0  0
    1.9054   -1.0454   -4.7533 C   0  0  0  0  0  0  0  0  0  0  0  0
    2.6737    0.1749   -4.8088 O   0  0  0  0  0  0  0  0  0  0  0  0
    0.5321    1.5930    2.8893 H   0  0  0  0  0  0  0  0  0  0  0  0
    0.4183    0.2007    3.9578 H   0  0  0  0  0  0  0  0  0  0  0  0
   -1.1408   -1.2847   -0.1999 H   0  0  0  0  0  0  0  0  0  0  0  0
   -1.0081    0.0846   -1.2546 H   0  0  0  0  0  0  0  0  0  0  0  0
   -3.3694   -0.8378   -0.6614 H   0  0  0  0  0  0  0  0  0  0  0  0
   -2.3848    3.0281    0.0737 H   0  0  0  0  0  0  0  0  0  0  0  0
   -3.7664    4.3580   -1.8689 H   0  0  0  0  0  0  0  0  0  0  0  0
   -5.0915    2.3657   -3.2525 H   0  0  0  0  0  0  0  0  0  0  0  0
   -4.3216   -2.5161    2.6039 H   0  0  0  0  0  0  0  0  0  0  0  0
   -3.1324   -4.3015    3.8071 H   0  0  0  0  0  0  0  0  0  0  0  0
   -0.6890   -4.1179    4.2110 H   0  0  0  0  0  0  0  0  0  0  0  0
    0.5640   -2.2011    3.3777 H   0  0  0  0  0  0  0  0  0  0  0  0
    1.8569    1.3612    0.8965 H   0  0  0  0  0  0  0  0  0  0  0  0
    4.4512    1.0883    0.9935 H   0  0  0  0  0  0  0  0  0  0  0  0
    4.0699   -0.6345    1.0669 H   0  0  0  0  0  0  0  0  0  0  0  0
    4.5567    2.1676   -1.1529 H   0  0  0  0  0  0  0  0  0  0  0  0
    4.1189    2.1598   -3.6013 H   0  0  0  0  0  0  0  0  0  0  0  0
    2.3568   -1.5483   -0.7540 H   0  0  0  0  0  0  0  0  0  0  0  0
    2.3657   -1.7801   -5.4236 H   0  0  0  0  0  0  0  0  0  0  0  0
    0.8894   -0.8353   -5.1049 H   0  0  0  0  0  0  0  0  0  0  0  0
  1  2  2  0
  2  3  1  0
  3  4  1  0
  4  5  1  0
  5  6  2  0
  5  7  1  0
  7  8  1  0
  8  9  1  0
  9 10  2  0
 10 11  1  0
 11 12  2  0
 12 13  1  0
  8 14  1  0
 14 15  1  0
 15 16  2  0
 16 17  1  0
 17 18  2  0
 18 19  1  0
 19 20  2  0
  2 21  1  0
 21 22  1  0
 22 23  1  0
 23 24  2  0
 24 25  1  0
 25 26  2  0
 26 27  1  0
 27 28  2  0
 27 29  1  0
 29 30  1  0
 30 31  1  0
 20  4  1  0
 28 23  1  0
 13  9  1  0
 20 15  1  0
 31 26  1  0
  3 32  1  0
  3 33  1  0
  7 34  1  0
  7 35  1  0
  8 36  1  0
 10 37  1  0
 11 38  1  0
 12 39  1  0
 16 40  1  0
 17 41  1  0
 18 42  1  0
 19 43  1  0
 21 44  1  0
 22 45  1  0
 22 46  1  0
 24 47  1  0
 25 48  1  0
 28 49  1  0
 30 50  1  0
 30 51  1  0
M  END
$$$$
