
     RDKit          3D

 36 35  0  0  0  0  0  0  0  0999 V2000
    1.5685   -3.0033   -1.8554 C   0  0  0  0  0  0  0  0  0  0  0  0
    0.6024   -1.9683   -1.3009 C   0  0  0  0  0  0  0  0  0  0  0  0
    1.2556   -0.7095   -0.8936 N   0  0  0  0  0  0  0  0  0  0  0  0
    1.8890   -0.7333    0.4390 C   0  0  0  0  0  0  0  0  0  0  0  0
    3.3880   -0.9979    0.3923 C   0  0  0  0  0  0  0  0  0  0  0  0
    1.3601    0.3859   -1.7815 C   0  0  0  0  0  0  0  0  0  0  0  0
    0.9310    0.3559   -3.4164 S   0  0  0  0  0  0  0  0  0  0  0  0
    2.0363    1.8892   -1.1201 S   0  0  0  0  0  0  0  0  0  0  0  0
    0.3653    3.0953   -0.9610 S   0  0  0  0  0  0  0  0  0  0  0  0
   -0.3075    2.6530    0.6229 C   0  0  0  0  0  0  0  0  0  0  0  0
    0.5660    3.0531    2.0156 S   0  0  0  0  0  0  0  0  0  0  0  0
   -1.5760    2.0292    0.6220 N   0  0  0  0  0  0  0  0  0  0  0  0
   -2.1435    1.4426    1.8519 C   0  0  0  0  0  0  0  0  0  0  0  0
   -1.5587    0.0737    2.1757 C   0  0  0  0  0  0  0  0  0  0  0  0
   -2.4674    1.9820   -0.5550 C   0  0  0  0  0  0  0  0  0  0  0  0
   -2.6272    0.5846   -1.1282 C   0  0  0  0  0  0  0  0  0  0  0  0
    2.1894   -2.5915   -2.6564 H   0  0  0  0  0  0  0  0  0  0  0  0
    2.2324   -3.3823   -1.0739 H   0  0  0  0  0  0  0  0  0  0  0  0
    1.0140   -3.8580   -2.2556 H   0  0  0  0  0  0  0  0  0  0  0  0
    0.0699   -2.3779   -0.4346 H   0  0  0  0  0  0  0  0  0  0  0  0
   -0.1714   -1.7647   -2.0468 H   0  0  0  0  0  0  0  0  0  0  0  0
    1.4019   -1.5012    1.0507 H   0  0  0  0  0  0  0  0  0  0  0  0
    1.7024    0.2128    0.9505 H   0  0  0  0  0  0  0  0  0  0  0  0
    3.9174   -0.2585   -0.2147 H   0  0  0  0  0  0  0  0  0  0  0  0
    3.6094   -1.9826   -0.0264 H   0  0  0  0  0  0  0  0  0  0  0  0
    3.8049   -0.9652    1.4040 H   0  0  0  0  0  0  0  0  0  0  0  0
   -3.2299    1.3523    1.7362 H   0  0  0  0  0  0  0  0  0  0  0  0
   -1.9876    2.1233    2.6945 H   0  0  0  0  0  0  0  0  0  0  0  0
   -0.4841    0.1259    2.3694 H   0  0  0  0  0  0  0  0  0  0  0  0
   -1.7089   -0.6316    1.3533 H   0  0  0  0  0  0  0  0  0  0  0  0
   -2.0401   -0.3386    3.0681 H   0  0  0  0  0  0  0  0  0  0  0  0
   -3.4459    2.3673   -0.2428 H   0  0  0  0  0  0  0  0  0  0  0  0
   -2.1338    2.6586   -1.3434 H   0  0  0  0  0  0  0  0  0  0  0  0
   -3.1540   -0.0735   -0.4308 H   0  0  0  0  0  0  0  0  0  0  0  0
   -3.2103    0.6191   -2.0537 H   0  0  0  0  0  0  0  0  0  0  0  0
   -1.6577    0.1342   -1.3472 H   0  0  0  0  0  0  0  0  0  0  0  0
  1  2  1  0
  2  3  1  0
  3  4  1  0
  4  5  1  0
  3  6  1  0
  6  7  2  0
  6  8  1  0
  8  9  1  0
  9 10  1  0
 10 11  2  0
 10 12  1  0
 12 13  1  0
 13 14  1  0
 12 15  1  0
 15 16  1  0
  1 17  1  0
  1 18  1  0
  1 19  1  0
  2 20  1  0
  2 21  1  0
  4 22  1  0
  4 23  1  0
  5 24  1  0
  5 25  1  0
  5 26  1  0
 13 27  1  0
 13 28  1  0
 14 29  1  0
 14 30  1  0
 14 31  1  0
 15 32  1  0
 15 33  1  0
 16 34  1  0
 16 35  1  0
 16 36  1  0
M  END
$$$$
