
     RDKit          3D

 58 63  0  0  0  0  0  0  0  0999 V2000
    5.0652   -1.3165    3.7420 C   0  0  0  0  0  0  0  0  0  0  0  0
    5.0589   -0.8175    2.3376 C   0  0  0  0  0  0  0  0  0  0  0  0
    6.0294   -0.9743    1.3703 C   0  0  0  0  0  0  0  0  0  0  0  0
    5.6774   -0.3386    0.1452 C   0  0  0  0  0  0  0  0  0  0  0  0
    4.4290    0.2480    0.2002 C   0  0  0  0  0  0  0  0  0  0  0  0
    3.7695    1.0182   -0.8398 C   0  0  0  0  0  0  0  0  0  0  0  0
    4.3274    1.9829   -1.3646 O   0  0  0  0  0  0  0  0  0  0  0  0
    2.4854    0.6340   -1.2465 N   0  0  0  0  0  0  0  0  0  0  0  0
    1.8034    1.4815   -2.2129 C   0  0  0  0  0  0  0  0  0  0  0  0
    0.3469    1.0653   -2.4348 C   0  0  0  0  0  0  0  0  0  0  0  0
   -0.3282    0.6247   -1.1066 C   0  0  0  0  0  0  0  0  0  0  0  0
    0.4702   -0.5929   -0.5385 C   0  0  0  0  0  0  0  0  0  0  0  0
    1.9093   -0.6861   -1.0510 C   0  0  0  0  0  0  0  0  0  0  0  0
   -0.1736    1.6724   -0.1117 O   0  0  0  0  0  0  0  0  0  0  0  0
   -0.9604    2.7770   -0.2721 C   0  0  0  0  0  0  0  0  0  0  0  0
   -0.5491    3.9280    0.3989 C   0  0  0  0  0  0  0  0  0  0  0  0
   -1.2841    5.1095    0.2735 C   0  0  0  0  0  0  0  0  0  0  0  0
   -2.4328    5.1336   -0.5188 C   0  0  0  0  0  0  0  0  0  0  0  0
   -3.3320    6.5923   -0.6731 Cl  0  0  0  0  0  0  0  0  0  0  0  0
   -2.8589    3.9846   -1.1805 C   0  0  0  0  0  0  0  0  0  0  0  0
   -2.1206    2.8044   -1.0438 C   0  0  0  0  0  0  0  0  0  0  0  0
   -2.5667    1.5623   -1.7029 C   0  0  0  0  0  0  0  0  0  0  0  0
   -3.5034    1.6018   -2.4939 O   0  0  0  0  0  0  0  0  0  0  0  0
   -1.8356    0.2900   -1.2836 C   0  0  0  0  0  0  0  0  0  0  0  0
   -2.5383   -0.2575   -0.0461 C   0  0  0  0  0  0  0  0  0  0  0  0
   -2.7329   -1.6695   -0.4737 C   0  0  0  0  0  0  0  0  0  0  0  0
   -3.2295   -2.7070    0.4600 C   0  0  0  0  0  0  0  0  0  0  0  0
   -3.6674   -2.3803    1.7487 C   0  0  0  0  0  0  0  0  0  0  0  0
   -4.1218   -3.3850    2.6079 C   0  0  0  0  0  0  0  0  0  0  0  0
   -4.1399   -4.7133    2.1862 C   0  0  0  0  0  0  0  0  0  0  0  0
   -3.7075   -5.0432    0.9031 C   0  0  0  0  0  0  0  0  0  0  0  0
   -3.2549   -4.0426    0.0402 C   0  0  0  0  0  0  0  0  0  0  0  0
   -2.4248   -1.9152   -1.7061 N   0  0  0  0  0  0  0  0  0  0  0  0
   -2.0073   -0.7034   -2.3003 O   0  0  0  0  0  0  0  0  0  0  0  0
    3.7431    0.1140    1.7629 S   0  0  0  0  0  0  0  0  0  0  0  0
    4.0735   -1.6673    4.0470 H   0  0  0  0  0  0  0  0  0  0  0  0
    5.3794   -0.5215    4.4252 H   0  0  0  0  0  0  0  0  0  0  0  0
    5.7618   -2.1542    3.8537 H   0  0  0  0  0  0  0  0  0  0  0  0
    6.9599   -1.5055    1.5370 H   0  0  0  0  0  0  0  0  0  0  0  0
    6.3036   -0.3137   -0.7398 H   0  0  0  0  0  0  0  0  0  0  0  0
    2.3528    1.4375   -3.1627 H   0  0  0  0  0  0  0  0  0  0  0  0
    1.8553    2.5190   -1.8569 H   0  0  0  0  0  0  0  0  0  0  0  0
    0.3091    0.2386   -3.1565 H   0  0  0  0  0  0  0  0  0  0  0  0
   -0.1715    1.9064   -2.9075 H   0  0  0  0  0  0  0  0  0  0  0  0
   -0.0032   -1.5476   -0.7838 H   0  0  0  0  0  0  0  0  0  0  0  0
    0.4967   -0.5287    0.5575 H   0  0  0  0  0  0  0  0  0  0  0  0
    1.9259   -1.1853   -2.0288 H   0  0  0  0  0  0  0  0  0  0  0  0
    2.5062   -1.3207   -0.3932 H   0  0  0  0  0  0  0  0  0  0  0  0
    0.3528    3.9112    1.0082 H   0  0  0  0  0  0  0  0  0  0  0  0
   -0.9521    6.0079    0.7897 H   0  0  0  0  0  0  0  0  0  0  0  0
   -3.7589    4.0037   -1.7919 H   0  0  0  0  0  0  0  0  0  0  0  0
   -1.9358   -0.1885    0.8632 H   0  0  0  0  0  0  0  0  0  0  0  0
   -3.5171    0.1992    0.1349 H   0  0  0  0  0  0  0  0  0  0  0  0
   -3.6745   -1.3558    2.1066 H   0  0  0  0  0  0  0  0  0  0  0  0
   -4.4661   -3.1302    3.6077 H   0  0  0  0  0  0  0  0  0  0  0  0
   -4.4949   -5.4931    2.8564 H   0  0  0  0  0  0  0  0  0  0  0  0
   -3.7244   -6.0787    0.5723 H   0  0  0  0  0  0  0  0  0  0  0  0
   -2.9239   -4.3140   -0.9605 H   0  0  0  0  0  0  0  0  0  0  0  0
  1  2  1  0
  2  3  2  0
  3  4  1  0
  4  5  2  0
  5  6  1  0
  6  7  2  0
  6  8  1  0
  8  9  1  0
  9 10  1  0
 10 11  1  0
 11 12  1  0
 12 13  1  0
 11 14  1  0
 14 15  1  0
 15 16  2  0
 16 17  1  0
 17 18  2  0
 18 19  1  0
 18 20  1  0
 20 21  2  0
 21 22  1  0
 22 23  2  0
 22 24  1  0
 24 25  1  0
 25 26  1  0
 26 27  1  0
 27 28  2  0
 28 29  1  0
 29 30  2  0
 30 31  1  0
 31 32  2  0
 26 33  2  0
 33 34  1  0
  5 35  1  0
 35  2  1  0
 13  8  1  0
 21 15  1  0
 34 24  1  0
 24 11  1  0
 32 27  1  0
  1 36  1  0
  1 37  1  0
  1 38  1  0
  3 39  1  0
  4 40  1  0
  9 41  1  0
  9 42  1  0
 10 43  1  0
 10 44  1  0
 12 45  1  0
 12 46  1  0
 13 47  1  0
 13 48  1  0
 16 49  1  0
 17 50  1  0
 20 51  1  0
 25 52  1  0
 25 53  1  0
 28 54  1  0
 29 55  1  0
 30 56  1  0
 31 57  1  0
 32 58  1  0
M  END
$$$$
