
     RDKit          3D

 31 33  0  0  0  0  0  0  0  0999 V2000
   -2.5993   -1.5253   -1.6741 C   0  0  0  0  0  0  0  0  0  0  0  0
   -3.0762   -0.6326   -0.5740 C   0  0  0  0  0  0  0  0  0  0  0  0
   -4.4598   -0.3361   -0.3426 C   0  0  0  0  0  0  0  0  0  0  0  0
   -4.6524    0.5130    0.7205 C   0  0  0  0  0  0  0  0  0  0  0  0
   -3.1821    0.9633    1.4507 S   0  0  0  0  0  0  0  0  0  0  0  0
   -2.2573    0.0152    0.3470 C   0  0  0  0  0  0  0  0  0  0  0  0
   -0.7387   -0.0426    0.4453 C   0  0  0  0  0  0  0  0  0  0  0  0
   -0.2478   -0.3595    1.8421 C   0  0  0  0  0  0  0  0  0  0  0  0
    0.9622   -1.2337    1.7946 C   0  0  0  0  0  0  0  0  0  0  0  0
    1.0012   -2.2689    2.4692 O   0  0  0  0  0  0  0  0  0  0  0  0
    2.0641   -0.9333    1.0708 N   0  0  0  0  0  0  0  0  0  0  0  0
    2.4547    0.1091    0.2076 C   0  0  0  0  0  0  0  0  0  0  0  0
    3.8127    0.0183   -0.1790 C   0  0  0  0  0  0  0  0  0  0  0  0
    4.4170    0.9620   -1.0092 C   0  0  0  0  0  0  0  0  0  0  0  0
    3.6724    2.0276   -1.4785 C   0  0  0  0  0  0  0  0  0  0  0  0
    2.3289    2.1304   -1.1218 C   0  0  0  0  0  0  0  0  0  0  0  0
    1.6919    1.1785   -0.2904 C   0  0  0  0  0  0  0  0  0  0  0  0
   -0.0352    1.5561   -0.0615 S   0  0  0  0  0  0  0  0  0  0  0  0
   -2.0867   -2.3998   -1.2604 H   0  0  0  0  0  0  0  0  0  0  0  0
   -3.4334   -1.8819   -2.2872 H   0  0  0  0  0  0  0  0  0  0  0  0
   -1.9057   -0.9885   -2.3295 H   0  0  0  0  0  0  0  0  0  0  0  0
   -5.2780   -0.7285   -0.9350 H   0  0  0  0  0  0  0  0  0  0  0  0
   -5.5899    0.8931    1.1022 H   0  0  0  0  0  0  0  0  0  0  0  0
   -0.3905   -0.7978   -0.2696 H   0  0  0  0  0  0  0  0  0  0  0  0
   -0.0297    0.5201    2.4599 H   0  0  0  0  0  0  0  0  0  0  0  0
   -1.0067   -0.9370    2.3882 H   0  0  0  0  0  0  0  0  0  0  0  0
    2.7706   -1.6395    1.2520 H   0  0  0  0  0  0  0  0  0  0  0  0
    4.4363   -0.7997    0.1798 H   0  0  0  0  0  0  0  0  0  0  0  0
    5.4653    0.8632   -1.2788 H   0  0  0  0  0  0  0  0  0  0  0  0
    4.1254    2.7769   -2.1224 H   0  0  0  0  0  0  0  0  0  0  0  0
    1.7665    2.9777   -1.5160 H   0  0  0  0  0  0  0  0  0  0  0  0
  1  2  1  0
  2  3  1  0
  3  4  2  0
  4  5  1  0
  5  6  1  0
  6  7  1  0
  7  8  1  0
  8  9  1  0
  9 10  2  0
  9 11  1  0
 11 12  1  0
 12 13  2  0
 13 14  1  0
 14 15  2  0
 15 16  1  0
 16 17  2  0
 17 18  1  0
  6  2  2  0
 18  7  1  0
 17 12  1  0
  1 19  1  0
  1 20  1  0
  1 21  1  0
  3 22  1  0
  4 23  1  0
  7 24  1  0
  8 25  1  0
  8 26  1  0
 11 27  1  0
 13 28  1  0
 14 29  1  0
 15 30  1  0
 16 31  1  0
M  END
$$$$
