
     RDKit          3D

 43 45  0  0  0  0  0  0  0  0999 V2000
   -2.2417    1.9545   -0.4004 C   0  0  0  0  0  0  0  0  0  0  0  0
   -2.3536    0.5818    0.2907 C   0  0  0  0  0  0  0  0  0  0  0  0
   -2.5304    0.8643    1.7948 C   0  0  0  0  0  0  0  0  0  0  0  0
   -3.4968   -0.2696   -0.3408 C   0  0  0  0  0  0  0  0  0  0  0  0
   -3.3998   -1.6123    0.4138 C   0  0  0  0  0  0  0  0  0  0  0  0
   -1.8810   -1.7921    0.5981 C   0  0  0  0  0  0  0  0  0  0  0  0
   -1.2777   -0.4958   -0.0357 C   0  0  0  0  0  0  0  0  0  0  0  0
    0.1885   -0.3632    0.3240 C   0  0  0  0  0  0  0  0  0  0  0  0
    1.0095    1.1279   -0.2230 S   0  0  0  0  0  6  0  0  0  0  0  0
    0.8999    2.0924    0.8521 O   0  0  0  0  0  0  0  0  0  0  0  0
    0.5899    1.4652   -1.5634 O   0  0  0  0  0  0  0  0  0  0  0  0
    2.6302    0.6652   -0.3063 N   0  0  0  0  0  0  0  0  0  0  0  0
    3.3079    0.2923    0.9647 C   0  0  0  0  0  0  0  0  0  0  0  0
    4.8237    0.2418    0.7403 C   0  0  0  0  0  0  0  0  0  0  0  0
    5.1599   -0.6778   -0.3105 O   0  0  0  0  0  0  0  0  0  0  0  0
    4.5562   -0.2597   -1.5462 C   0  0  0  0  0  0  0  0  0  0  0  0
    3.0274   -0.2319   -1.4318 C   0  0  0  0  0  0  0  0  0  0  0  0
   -1.5463   -0.7401   -1.5192 C   0  0  0  0  0  0  0  0  0  0  0  0
   -0.7249   -1.1477   -2.3262 O   0  0  0  0  0  0  0  0  0  0  0  0
   -3.0203   -0.5212   -1.7983 C   0  0  0  0  0  0  0  0  0  0  0  0
   -1.9465    1.9001   -1.4505 H   0  0  0  0  0  0  0  0  0  0  0  0
   -3.2083    2.4718   -0.3675 H   0  0  0  0  0  0  0  0  0  0  0  0
   -1.5226    2.6047    0.1052 H   0  0  0  0  0  0  0  0  0  0  0  0
   -1.6665    1.4131    2.1866 H   0  0  0  0  0  0  0  0  0  0  0  0
   -3.4223    1.4777    1.9668 H   0  0  0  0  0  0  0  0  0  0  0  0
   -2.6364   -0.0293    2.4136 H   0  0  0  0  0  0  0  0  0  0  0  0
   -4.4940    0.1751   -0.2916 H   0  0  0  0  0  0  0  0  0  0  0  0
   -3.8420   -2.4423   -0.1472 H   0  0  0  0  0  0  0  0  0  0  0  0
   -3.9068   -1.5649    1.3832 H   0  0  0  0  0  0  0  0  0  0  0  0
   -1.5336   -2.7018    0.0931 H   0  0  0  0  0  0  0  0  0  0  0  0
   -1.6297   -1.8899    1.6600 H   0  0  0  0  0  0  0  0  0  0  0  0
    0.7350   -1.2059   -0.1099 H   0  0  0  0  0  0  0  0  0  0  0  0
    0.3275   -0.4071    1.4101 H   0  0  0  0  0  0  0  0  0  0  0  0
    3.0888    1.0229    1.7487 H   0  0  0  0  0  0  0  0  0  0  0  0
    2.9500   -0.6933    1.2827 H   0  0  0  0  0  0  0  0  0  0  0  0
    5.3231   -0.1004    1.6522 H   0  0  0  0  0  0  0  0  0  0  0  0
    5.2220    1.2326    0.4912 H   0  0  0  0  0  0  0  0  0  0  0  0
    4.8586   -0.9721   -2.3201 H   0  0  0  0  0  0  0  0  0  0  0  0
    4.9519    0.7248   -1.8231 H   0  0  0  0  0  0  0  0  0  0  0  0
    2.6079    0.1228   -2.3776 H   0  0  0  0  0  0  0  0  0  0  0  0
    2.6614   -1.2447   -1.2334 H   0  0  0  0  0  0  0  0  0  0  0  0
   -3.4733   -1.4134   -2.2370 H   0  0  0  0  0  0  0  0  0  0  0  0
   -3.1647    0.3451   -2.4466 H   0  0  0  0  0  0  0  0  0  0  0  0
  1  2  1  0
  2  3  1  0
  2  4  1  0
  4  5  1  0
  5  6  1  0
  6  7  1  0
  7  8  1  0
  8  9  1  0
  9 10  2  0
  9 11  2  0
  9 12  1  0
 12 13  1  0
 13 14  1  0
 14 15  1  0
 15 16  1  0
 16 17  1  0
  7 18  1  0
 18 19  2  0
 18 20  1  0
  7  2  1  0
 17 12  1  0
 20  4  1  0
  1 21  1  0
  1 22  1  0
  1 23  1  0
  3 24  1  0
  3 25  1  0
  3 26  1  0
  4 27  1  0
  5 28  1  0
  5 29  1  0
  6 30  1  0
  6 31  1  0
  8 32  1  0
  8 33  1  0
 13 34  1  0
 13 35  1  0
 14 36  1  0
 14 37  1  0
 16 38  1  0
 16 39  1  0
 17 40  1  0
 17 41  1  0
 20 42  1  0
 20 43  1  0
M  END
$$$$
