
     RDKit          3D

 67 72  0  0  0  0  0  0  0  0999 V2000
    3.2065   -0.0348   -1.7352 O   0  0  0  0  0  0  0  0  0  0  0  0
    2.5936   -0.1564   -0.6727 C   0  0  0  0  0  0  0  0  0  0  0  0
    3.2808    0.0612    0.6938 C   0  0  0  0  0  0  0  0  0  0  0  0
    4.8053   -0.1015    0.5528 C   0  0  0  0  0  0  0  0  0  0  0  0
    5.5689    0.3658    1.7722 C   0  0  0  0  0  0  0  0  0  0  0  0
    5.9418   -0.5425    2.7725 C   0  0  0  0  0  0  0  0  0  0  0  0
    6.6398   -0.1048    3.8991 C   0  0  0  0  0  0  0  0  0  0  0  0
    6.9770    1.2410    4.0335 C   0  0  0  0  0  0  0  0  0  0  0  0
    6.6130    2.1520    3.0436 C   0  0  0  0  0  0  0  0  0  0  0  0
    5.9090    1.7183    1.9192 C   0  0  0  0  0  0  0  0  0  0  0  0
    2.7601   -0.8946    1.6763 N   0  0  0  0  0  0  0  0  0  0  0  0
    1.3670   -0.8396    1.7811 C   0  0  0  0  0  0  0  0  0  0  0  0
    0.8855   -1.0932    3.0046 N   0  0  0  0  0  0  0  0  0  0  0  0
   -0.4426   -1.1105    3.1098 C   0  0  0  0  0  0  0  0  0  0  0  0
   -1.3134   -0.8476    2.1298 N   0  0  0  0  0  0  0  0  0  0  0  0
   -0.8138   -0.5522    0.9104 C   0  0  0  0  0  0  0  0  0  0  0  0
   -1.7330   -0.0940   -0.0510 N   0  0  0  0  0  0  0  0  0  0  0  0
   -1.6506    1.3791   -0.2539 C   0  0  0  0  0  0  0  0  0  0  0  0
   -2.9924    2.1111   -0.0091 C   0  0  0  0  0  0  0  0  0  0  0  0
   -4.0777    1.5133   -0.8039 N   0  0  0  0  0  0  0  0  0  0  0  0
   -5.2631    2.1933   -1.0511 C   0  0  0  0  0  0  0  0  0  0  0  0
   -5.6304    3.3522   -0.3485 C   0  0  0  0  0  0  0  0  0  0  0  0
   -6.8252    4.0321   -0.6155 C   0  0  0  0  0  0  0  0  0  0  0  0
   -7.6830    3.5726   -1.6078 C   0  0  0  0  0  0  0  0  0  0  0  0
   -7.3430    2.4351   -2.3300 C   0  0  0  0  0  0  0  0  0  0  0  0
   -6.1496    1.7592   -2.0517 C   0  0  0  0  0  0  0  0  0  0  0  0
   -4.0644    0.0356   -0.9104 C   0  0  0  0  0  0  0  0  0  0  0  0
   -3.1117   -0.5981    0.1282 C   0  0  0  0  0  0  0  0  0  0  0  0
    0.5671   -0.5939    0.6568 C   0  0  0  0  0  0  0  0  0  0  0  0
    1.2120   -0.4013   -0.6205 N   0  0  0  0  0  0  0  0  0  0  0  0
    0.5601   -0.7835   -1.8717 C   0  0  0  0  0  0  0  0  0  0  0  0
    0.7108   -2.2601   -2.1865 C   0  0  0  0  0  0  0  0  0  0  0  0
   -0.1734   -3.2025   -1.6426 C   0  0  0  0  0  0  0  0  0  0  0  0
   -0.0327   -4.5614   -1.9354 C   0  0  0  0  0  0  0  0  0  0  0  0
    0.9973   -4.9867   -2.7737 C   0  0  0  0  0  0  0  0  0  0  0  0
    1.1849   -6.8246   -3.1759 Br  0  0  0  0  0  0  0  0  0  0  0  0
    1.8901   -4.0660   -3.3174 C   0  0  0  0  0  0  0  0  0  0  0  0
    1.7469   -2.7083   -3.0215 C   0  0  0  0  0  0  0  0  0  0  0  0
    3.0460    1.0875    1.0101 H   0  0  0  0  0  0  0  0  0  0  0  0
    5.0560   -1.1507    0.3449 H   0  0  0  0  0  0  0  0  0  0  0  0
    5.1781    0.4616   -0.3129 H   0  0  0  0  0  0  0  0  0  0  0  0
    5.6971   -1.5989    2.6780 H   0  0  0  0  0  0  0  0  0  0  0  0
    6.9316   -0.8156    4.6666 H   0  0  0  0  0  0  0  0  0  0  0  0
    7.5314    1.5780    4.9061 H   0  0  0  0  0  0  0  0  0  0  0  0
    6.8920    3.1999    3.1415 H   0  0  0  0  0  0  0  0  0  0  0  0
    5.6438    2.4415    1.1503 H   0  0  0  0  0  0  0  0  0  0  0  0
    3.1512   -0.8373    2.6133 H   0  0  0  0  0  0  0  0  0  0  0  0
   -0.8561   -1.3461    4.0834 H   0  0  0  0  0  0  0  0  0  0  0  0
   -1.3547    1.5504   -1.2968 H   0  0  0  0  0  0  0  0  0  0  0  0
   -0.8811    1.8452    0.3755 H   0  0  0  0  0  0  0  0  0  0  0  0
   -3.2474    2.0713    1.0563 H   0  0  0  0  0  0  0  0  0  0  0  0
   -2.8493    3.1621   -0.2856 H   0  0  0  0  0  0  0  0  0  0  0  0
   -5.0012    3.7437    0.4445 H   0  0  0  0  0  0  0  0  0  0  0  0
   -7.0797    4.9208   -0.0436 H   0  0  0  0  0  0  0  0  0  0  0  0
   -8.6059    4.1031   -1.8219 H   0  0  0  0  0  0  0  0  0  0  0  0
   -7.9977    2.0728   -3.1178 H   0  0  0  0  0  0  0  0  0  0  0  0
   -5.9046    0.8915   -2.6591 H   0  0  0  0  0  0  0  0  0  0  0  0
   -5.0639   -0.3854   -0.7389 H   0  0  0  0  0  0  0  0  0  0  0  0
   -3.7436   -0.2404   -1.9238 H   0  0  0  0  0  0  0  0  0  0  0  0
   -3.4937   -0.3671    1.1302 H   0  0  0  0  0  0  0  0  0  0  0  0
   -3.1268   -1.6874    0.0054 H   0  0  0  0  0  0  0  0  0  0  0  0
    1.0079   -0.2045   -2.6901 H   0  0  0  0  0  0  0  0  0  0  0  0
   -0.4920   -0.5162   -1.9134 H   0  0  0  0  0  0  0  0  0  0  0  0
   -0.9786   -2.8832   -0.9841 H   0  0  0  0  0  0  0  0  0  0  0  0
   -0.7291   -5.2747   -1.5017 H   0  0  0  0  0  0  0  0  0  0  0  0
    2.6998   -4.3892   -3.9687 H   0  0  0  0  0  0  0  0  0  0  0  0
    2.4530   -1.9965   -3.4457 H   0  0  0  0  0  0  0  0  0  0  0  0
  1  2  2  0
  2  3  1  0
  3  4  1  0
  4  5  1  0
  5  6  2  0
  6  7  1  0
  7  8  2  0
  8  9  1  0
  9 10  2  0
  3 11  1  0
 11 12  1  0
 12 13  2  0
 13 14  1  0
 14 15  2  0
 15 16  1  0
 16 17  1  0
 17 18  1  0
 18 19  1  0
 19 20  1  0
 20 21  1  0
 21 22  2  0
 22 23  1  0
 23 24  2  0
 24 25  1  0
 25 26  2  0
 20 27  1  0
 27 28  1  0
 16 29  2  0
 29 30  1  0
 30 31  1  0
 31 32  1  0
 32 33  2  0
 33 34  1  0
 34 35  2  0
 35 36  1  0
 35 37  1  0
 37 38  2  0
 30  2  1  0
 38 32  1  0
 10  5  1  0
 29 12  1  0
 28 17  1  0
 26 21  1  0
  3 39  1  0
  4 40  1  0
  4 41  1  0
  6 42  1  0
  7 43  1  0
  8 44  1  0
  9 45  1  0
 10 46  1  0
 11 47  1  0
 14 48  1  0
 18 49  1  0
 18 50  1  0
 19 51  1  0
 19 52  1  0
 22 53  1  0
 23 54  1  0
 24 55  1  0
 25 56  1  0
 26 57  1  0
 27 58  1  0
 27 59  1  0
 28 60  1  0
 28 61  1  0
 31 62  1  0
 31 63  1  0
 33 64  1  0
 34 65  1  0
 37 66  1  0
 38 67  1  0
M  END
$$$$
