
     RDKit          3D

 38 39  0  0  0  0  0  0  0  0999 V2000
    1.1063   -2.7022    1.7026 C   0  0  0  0  0  0  0  0  0  0  0  0
    0.6571   -1.4858    0.9194 C   0  0  0  0  0  0  0  0  0  0  0  0
    1.7008   -0.5322    0.4189 C   0  0  0  0  0  0  0  0  0  0  0  0
    2.9531   -0.4929    0.8985 C   0  0  0  0  0  0  0  0  0  0  0  0
    3.9853    0.4283    0.4001 C   0  0  0  0  0  0  0  0  0  0  0  0
    3.7007    1.7541    0.0465 C   0  0  0  0  0  0  0  0  0  0  0  0
    4.7170    2.6060   -0.3945 C   0  0  0  0  0  0  0  0  0  0  0  0
    6.0290    2.1446   -0.4766 C   0  0  0  0  0  0  0  0  0  0  0  0
    6.3272    0.8334   -0.1132 C   0  0  0  0  0  0  0  0  0  0  0  0
    5.3115   -0.0184    0.3283 C   0  0  0  0  0  0  0  0  0  0  0  0
   -0.6223   -1.3668    0.7287 N   0  0  0  0  0  0  0  0  0  0  0  0
   -1.0539   -0.2511    0.0681 N   0  0  0  0  0  0  0  0  0  0  0  0
   -2.4147   -0.1852   -0.2921 C   0  0  0  0  0  0  0  0  0  0  0  0
   -3.1046   -1.2967   -0.6020 N   0  0  0  0  0  0  0  0  0  0  0  0
   -4.3988   -1.1578   -0.9441 C   0  0  0  0  0  0  0  0  0  0  0  0
   -5.1573   -2.4054   -1.2799 C   0  0  0  0  0  0  0  0  0  0  0  0
   -5.0204    0.0718   -0.9908 C   0  0  0  0  0  0  0  0  0  0  0  0
   -4.2433    1.1641   -0.6664 C   0  0  0  0  0  0  0  0  0  0  0  0
   -4.8316    2.5424   -0.6912 C   0  0  0  0  0  0  0  0  0  0  0  0
   -2.9454    1.0513   -0.3187 N   0  0  0  0  0  0  0  0  0  0  0  0
    0.2969   -3.4367    1.7598 H   0  0  0  0  0  0  0  0  0  0  0  0
    1.9624   -3.1769    1.2153 H   0  0  0  0  0  0  0  0  0  0  0  0
    1.3768   -2.4018    2.7189 H   0  0  0  0  0  0  0  0  0  0  0  0
    1.3845    0.1246   -0.3842 H   0  0  0  0  0  0  0  0  0  0  0  0
    3.2788   -1.1630    1.6891 H   0  0  0  0  0  0  0  0  0  0  0  0
    2.6889    2.1449    0.1188 H   0  0  0  0  0  0  0  0  0  0  0  0
    4.4835    3.6314   -0.6694 H   0  0  0  0  0  0  0  0  0  0  0  0
    6.8188    2.8078   -0.8197 H   0  0  0  0  0  0  0  0  0  0  0  0
    7.3507    0.4723   -0.1725 H   0  0  0  0  0  0  0  0  0  0  0  0
    5.5663   -1.0387    0.6064 H   0  0  0  0  0  0  0  0  0  0  0  0
   -0.8532    0.6512    0.4929 H   0  0  0  0  0  0  0  0  0  0  0  0
   -5.5295   -2.3567   -2.3080 H   0  0  0  0  0  0  0  0  0  0  0  0
   -6.0032   -2.5294   -0.5966 H   0  0  0  0  0  0  0  0  0  0  0  0
   -4.5160   -3.2883   -1.1914 H   0  0  0  0  0  0  0  0  0  0  0  0
   -6.0617    0.1733   -1.2677 H   0  0  0  0  0  0  0  0  0  0  0  0
   -5.1913    2.7824   -1.6966 H   0  0  0  0  0  0  0  0  0  0  0  0
   -4.0839    3.2908   -0.4094 H   0  0  0  0  0  0  0  0  0  0  0  0
   -5.6648    2.6111    0.0151 H   0  0  0  0  0  0  0  0  0  0  0  0
  1  2  1  0
  2  3  1  0
  3  4  2  3
  4  5  1  0
  5  6  2  0
  6  7  1  0
  7  8  2  0
  8  9  1  0
  9 10  2  0
  2 11  2  3
 11 12  1  0
 12 13  1  0
 13 14  2  0
 14 15  1  0
 15 16  1  0
 15 17  2  0
 17 18  1  0
 18 19  1  0
 18 20  2  0
 10  5  1  0
 20 13  1  0
  1 21  1  0
  1 22  1  0
  1 23  1  0
  3 24  1  0
  4 25  1  0
  6 26  1  0
  7 27  1  0
  8 28  1  0
  9 29  1  0
 10 30  1  0
 12 31  1  0
 16 32  1  0
 16 33  1  0
 16 34  1  0
 17 35  1  0
 19 36  1  0
 19 37  1  0
 19 38  1  0
M  END
$$$$
