
     RDKit          3D

 69 75  0  0  0  0  0  0  0  0999 V2000
   -4.2587    5.2237    2.0393 C   0  0  0  0  0  0  0  0  0  0  0  0
   -3.8220    4.3035    0.9389 C   0  0  0  0  0  0  0  0  0  0  0  0
   -4.2956    4.4515   -0.3793 C   0  0  0  0  0  0  0  0  0  0  0  0
   -5.4203    5.6999   -0.7925 Cl  0  0  0  0  0  0  0  0  0  0  0  0
   -3.8727    3.5970   -1.4174 C   0  0  0  0  0  0  0  0  0  0  0  0
   -2.9585    2.5723   -1.1732 C   0  0  0  0  0  0  0  0  0  0  0  0
   -2.4845    2.4194    0.1189 C   0  0  0  0  0  0  0  0  0  0  0  0
   -2.9076    3.2781    1.1456 C   0  0  0  0  0  0  0  0  0  0  0  0
   -2.2708    2.9309    2.3365 N   0  0  0  0  0  0  0  0  0  0  0  0
   -1.3999    1.8513    2.1684 C   0  0  0  0  0  0  0  0  0  0  0  0
   -0.7070    1.3709    3.0517 O   0  0  0  0  0  0  0  0  0  0  0  0
   -1.5005    1.4359    0.6801 C   0  0  1  0  0  0  0  0  0  0  0  0
   -2.0092    0.0485    0.4859 C   0  0  0  0  0  0  0  0  0  0  0  0
   -0.9445   -0.8021    0.1400 C   0  0  0  0  0  0  0  0  0  0  0  0
   -1.4231   -2.0738   -0.0129 C   0  0  0  0  0  0  0  0  0  0  0  0
   -0.7612   -3.2078   -0.2295 O   0  0  0  0  0  0  0  0  0  0  0  0
   -2.8246   -2.0249    0.1781 N   0  0  0  0  0  0  0  0  0  0  0  0
   -3.7343   -3.1344    0.0653 C   0  0  0  0  0  0  0  0  0  0  0  0
   -4.9649   -3.1297    0.7379 C   0  0  0  0  0  0  0  0  0  0  0  0
   -5.8479   -4.2091    0.6226 C   0  0  0  0  0  0  0  0  0  0  0  0
   -5.5159   -5.3051   -0.1680 C   0  0  0  0  0  0  0  0  0  0  0  0
   -4.2989   -5.3240   -0.8421 C   0  0  0  0  0  0  0  0  0  0  0  0
   -3.4129   -4.2475   -0.7263 C   0  0  0  0  0  0  0  0  0  0  0  0
   -3.1655   -0.6897    0.5048 C   0  0  0  0  0  0  0  0  0  0  0  0
   -4.4206   -0.2957    0.7116 O   0  0  0  0  0  0  0  0  0  0  0  0
    0.3247   -0.0430    0.1315 C   0  0  1  0  0  0  0  0  0  0  0  0
    1.3435   -0.2950   -0.9852 C   0  0  0  0  0  0  0  0  0  0  0  0
    2.4305    0.7056   -0.8599 N   0  0  0  0  0  0  0  0  0  0  0  0
    3.5707    0.4570   -0.1053 C   0  0  0  0  0  0  0  0  0  0  0  0
    4.1676    1.3312    0.5148 O   0  0  0  0  0  0  0  0  0  0  0  0
    3.9686   -0.8548   -0.1166 N   0  0  0  0  0  0  0  0  0  0  0  0
    5.1791   -1.2643    0.5652 C   0  0  0  0  0  0  0  0  0  0  0  0
    6.3437   -1.3374   -0.3900 C   0  0  0  0  0  0  0  0  0  0  0  0
    7.0366   -0.1730   -0.7513 C   0  0  0  0  0  0  0  0  0  0  0  0
    8.0998   -0.2317   -1.6535 C   0  0  0  0  0  0  0  0  0  0  0  0
    8.4781   -1.4533   -2.2070 C   0  0  0  0  0  0  0  0  0  0  0  0
    7.7927   -2.6166   -1.8611 C   0  0  0  0  0  0  0  0  0  0  0  0
    6.7281   -2.5598   -0.9594 C   0  0  0  0  0  0  0  0  0  0  0  0
    1.9448    2.0984   -0.8875 C   0  0  0  0  0  0  0  0  0  0  0  0
    0.8300    2.3465    0.1665 C   0  0  0  0  0  0  0  0  0  0  0  0
   -0.2122    1.3474   -0.0330 N   0  0  0  0  0  0  0  0  0  0  0  0
   -3.9073    4.8954    3.0215 H   0  0  0  0  0  0  0  0  0  0  0  0
   -3.8661    6.2311    1.8662 H   0  0  0  0  0  0  0  0  0  0  0  0
   -5.3515    5.2636    2.0974 H   0  0  0  0  0  0  0  0  0  0  0  0
   -4.2563    3.7355   -2.4265 H   0  0  0  0  0  0  0  0  0  0  0  0
   -2.6269    1.9163   -1.9732 H   0  0  0  0  0  0  0  0  0  0  0  0
   -2.3768    3.3914    3.2284 H   0  0  0  0  0  0  0  0  0  0  0  0
    0.1879   -3.0324   -0.1159 H   0  0  0  0  0  0  0  0  0  0  0  0
   -5.2549   -2.3148    1.3936 H   0  0  0  0  0  0  0  0  0  0  0  0
   -6.7937   -4.1909    1.1575 H   0  0  0  0  0  0  0  0  0  0  0  0
   -6.2033   -6.1416   -0.2578 H   0  0  0  0  0  0  0  0  0  0  0  0
   -4.0362   -6.1739   -1.4666 H   0  0  0  0  0  0  0  0  0  0  0  0
   -2.4916   -4.2938   -1.2986 H   0  0  0  0  0  0  0  0  0  0  0  0
   -4.4270    0.6712    0.8141 H   0  0  0  0  0  0  0  0  0  0  0  0
    0.8063   -0.1486    1.1142 H   0  0  0  0  0  0  0  0  0  0  0  0
    1.7226   -1.3185   -0.9246 H   0  0  0  0  0  0  0  0  0  0  0  0
    0.8926   -0.1726   -1.9780 H   0  0  0  0  0  0  0  0  0  0  0  0
    3.8125   -1.3105   -1.0029 H   0  0  0  0  0  0  0  0  0  0  0  0
    5.4087   -0.5927    1.4000 H   0  0  0  0  0  0  0  0  0  0  0  0
    4.9823   -2.2536    0.9931 H   0  0  0  0  0  0  0  0  0  0  0  0
    6.7441    0.7882   -0.3303 H   0  0  0  0  0  0  0  0  0  0  0  0
    8.6304    0.6773   -1.9247 H   0  0  0  0  0  0  0  0  0  0  0  0
    9.3068   -1.4978   -2.9089 H   0  0  0  0  0  0  0  0  0  0  0  0
    8.0880   -3.5689   -2.2939 H   0  0  0  0  0  0  0  0  0  0  0  0
    6.2036   -3.4772   -0.7023 H   0  0  0  0  0  0  0  0  0  0  0  0
    1.5481    2.2759   -1.8951 H   0  0  0  0  0  0  0  0  0  0  0  0
    2.7695    2.8024   -0.7346 H   0  0  0  0  0  0  0  0  0  0  0  0
    1.2518    2.2871    1.1766 H   0  0  0  0  0  0  0  0  0  0  0  0
    0.4316    3.3565    0.0223 H   0  0  0  0  0  0  0  0  0  0  0  0
  1  2  1  0
  2  3  2  0
  3  4  1  0
  3  5  1  0
  5  6  2  0
  6  7  1  0
  7  8  2  0
  8  9  1  0
  9 10  1  0
 10 11  2  0
 10 12  1  0
 12 13  1  0
 13 14  1  0
 14 15  2  0
 15 16  1  0
 15 17  1  0
 17 18  1  0
 18 19  2  0
 19 20  1  0
 20 21  2  0
 21 22  1  0
 22 23  2  0
 17 24  1  0
 24 25  1  0
 14 26  1  0
 26 27  1  0
 27 28  1  0
 28 29  1  0
 29 30  2  0
 29 31  1  0
 31 32  1  0
 32 33  1  0
 33 34  2  0
 34 35  1  0
 35 36  2  0
 36 37  1  0
 37 38  2  0
 28 39  1  0
 39 40  1  0
 40 41  1  0
  8  2  1  0
 12 41  1  6
 12  7  1  0
 24 13  2  0
 41 26  1  0
 23 18  1  0
 38 33  1  0
  1 42  1  0
  1 43  1  0
  1 44  1  0
  5 45  1  0
  6 46  1  0
  9 47  1  0
 16 48  1  0
 19 49  1  0
 20 50  1  0
 21 51  1  0
 22 52  1  0
 23 53  1  0
 25 54  1  0
 26 55  1  1
 27 56  1  0
 27 57  1  0
 31 58  1  0
 32 59  1  0
 32 60  1  0
 34 61  1  0
 35 62  1  0
 36 63  1  0
 37 64  1  0
 38 65  1  0
 39 66  1  0
 39 67  1  0
 40 68  1  0
 40 69  1  0
M  END
$$$$
