
     RDKit          3D

 57 60  0  0  0  0  0  0  0  0999 V2000
   -5.7950   -1.8552    0.2237 C   0  0  0  0  0  0  0  0  0  0  0  0
   -4.3736   -2.3979    0.3276 C   0  0  0  0  0  0  0  0  0  0  0  0
   -3.7816   -2.2988    1.7282 C   0  0  0  0  0  0  0  0  0  0  0  0
   -3.4390   -1.8834   -0.7707 C   0  0  0  0  0  0  0  0  0  0  0  0
   -2.8389   -2.7152   -1.4614 O   0  0  0  0  0  0  0  0  0  0  0  0
   -3.2791   -0.5260   -1.0010 N   0  0  0  0  0  0  0  0  0  0  0  0
   -2.3574   -0.1342   -2.0754 C   0  0  0  0  0  0  0  0  0  0  0  0
   -0.9490    0.1092   -1.5063 C   0  0  0  0  0  0  0  0  0  0  0  0
   -0.9661    1.0994   -0.3901 N   0  0  0  0  0  0  0  0  0  0  0  0
   -0.6731    2.4169   -0.8011 C   0  0  0  0  0  0  0  0  0  0  0  0
   -1.6602    3.3765   -1.0587 C   0  0  0  0  0  0  0  0  0  0  0  0
   -1.3198    4.6559   -1.5069 C   0  0  0  0  0  0  0  0  0  0  0  0
    0.0148    4.9981   -1.7005 C   0  0  0  0  0  0  0  0  0  0  0  0
    1.0195    4.0678   -1.4375 C   0  0  0  0  0  0  0  0  0  0  0  0
    0.6873    2.7896   -0.9848 C   0  0  0  0  0  0  0  0  0  0  0  0
    1.6464    1.8134   -0.6356 N   0  0  0  0  0  0  0  0  0  0  0  0
    3.0152    1.8659   -0.7722 C   0  0  0  0  0  0  0  0  0  0  0  0
    3.6641    2.7596   -1.3033 O   0  0  0  0  0  0  0  0  0  0  0  0
    3.7458    0.6759   -0.2469 C   0  0  0  0  0  0  0  0  0  0  0  0
    4.9426    0.2982   -0.8731 C   0  0  0  0  0  0  0  0  0  0  0  0
    5.6542   -0.8153   -0.4208 C   0  0  0  0  0  0  0  0  0  0  0  0
    5.1756   -1.5491    0.6618 C   0  0  0  0  0  0  0  0  0  0  0  0
    4.0059   -1.1494    1.3174 C   0  0  0  0  0  0  0  0  0  0  0  0
    3.2843   -0.0464    0.8616 C   0  0  0  0  0  0  0  0  0  0  0  0
    3.5028   -1.7982    2.4167 O   0  0  0  0  0  0  0  0  0  0  0  0
    4.4780   -2.6724    2.9979 C   0  0  0  0  0  0  0  0  0  0  0  0
    5.1721   -3.4922    1.9230 C   0  0  0  0  0  0  0  0  0  0  0  0
    5.9114   -2.6429    1.0379 O   0  0  0  0  0  0  0  0  0  0  0  0
   -2.0336    0.8911    0.6174 C   0  0  0  0  0  0  0  0  0  0  0  0
   -3.4073    0.5253    0.0093 C   0  0  0  0  0  0  0  0  0  0  0  0
   -6.4751   -2.4508    0.8426 H   0  0  0  0  0  0  0  0  0  0  0  0
   -6.1537   -1.9018   -0.8103 H   0  0  0  0  0  0  0  0  0  0  0  0
   -5.8816   -0.8181    0.5549 H   0  0  0  0  0  0  0  0  0  0  0  0
   -4.4613   -3.4751    0.1177 H   0  0  0  0  0  0  0  0  0  0  0  0
   -2.7193   -2.5648    1.7247 H   0  0  0  0  0  0  0  0  0  0  0  0
   -3.8743   -1.3019    2.1637 H   0  0  0  0  0  0  0  0  0  0  0  0
   -4.2981   -2.9888    2.4047 H   0  0  0  0  0  0  0  0  0  0  0  0
   -2.7516    0.7802   -2.5343 H   0  0  0  0  0  0  0  0  0  0  0  0
   -2.3204   -0.8987   -2.8586 H   0  0  0  0  0  0  0  0  0  0  0  0
   -0.2716    0.4142   -2.3131 H   0  0  0  0  0  0  0  0  0  0  0  0
   -0.5535   -0.8307   -1.1016 H   0  0  0  0  0  0  0  0  0  0  0  0
   -2.7118    3.1494   -0.9397 H   0  0  0  0  0  0  0  0  0  0  0  0
   -2.0999    5.3852   -1.7103 H   0  0  0  0  0  0  0  0  0  0  0  0
    0.2798    5.9929   -2.0496 H   0  0  0  0  0  0  0  0  0  0  0  0
    2.0521    4.3702   -1.5781 H   0  0  0  0  0  0  0  0  0  0  0  0
    1.2112    0.9727   -0.2692 H   0  0  0  0  0  0  0  0  0  0  0  0
    5.3184    0.8682   -1.7210 H   0  0  0  0  0  0  0  0  0  0  0  0
    6.5739   -1.1125   -0.9175 H   0  0  0  0  0  0  0  0  0  0  0  0
    2.3913    0.2547    1.4011 H   0  0  0  0  0  0  0  0  0  0  0  0
    5.1942   -2.0664    3.5666 H   0  0  0  0  0  0  0  0  0  0  0  0
    3.9563   -3.3314    3.6988 H   0  0  0  0  0  0  0  0  0  0  0  0
    4.4518   -4.0705    1.3310 H   0  0  0  0  0  0  0  0  0  0  0  0
    5.8795   -4.1923    2.3785 H   0  0  0  0  0  0  0  0  0  0  0  0
   -2.1296    1.7580    1.2822 H   0  0  0  0  0  0  0  0  0  0  0  0
   -1.7071    0.0563    1.2503 H   0  0  0  0  0  0  0  0  0  0  0  0
   -4.0898    0.2468    0.8071 H   0  0  0  0  0  0  0  0  0  0  0  0
   -3.8560    1.3891   -0.4902 H   0  0  0  0  0  0  0  0  0  0  0  0
  1  2  1  0
  2  3  1  0
  2  4  1  0
  4  5  2  0
  4  6  1  0
  6  7  1  0
  7  8  1  0
  8  9  1  0
  9 10  1  0
 10 11  2  0
 11 12  1  0
 12 13  2  0
 13 14  1  0
 14 15  2  0
 15 16  1  0
 16 17  1  0
 17 18  2  0
 17 19  1  0
 19 20  2  0
 20 21  1  0
 21 22  2  0
 22 23  1  0
 23 24  2  0
 23 25  1  0
 25 26  1  0
 26 27  1  0
 27 28  1  0
  9 29  1  0
 29 30  1  0
 30  6  1  0
 15 10  1  0
 24 19  1  0
 28 22  1  0
  1 31  1  0
  1 32  1  0
  1 33  1  0
  2 34  1  0
  3 35  1  0
  3 36  1  0
  3 37  1  0
  7 38  1  0
  7 39  1  0
  8 40  1  0
  8 41  1  0
 11 42  1  0
 12 43  1  0
 13 44  1  0
 14 45  1  0
 16 46  1  0
 20 47  1  0
 21 48  1  0
 24 49  1  0
 26 50  1  0
 26 51  1  0
 27 52  1  0
 27 53  1  0
 29 54  1  0
 29 55  1  0
 30 56  1  0
 30 57  1  0
M  END
$$$$
