
     RDKit          3D

 60 65  0  0  0  0  0  0  0  0999 V2000
    0.5431   -0.3377   -3.1269 O   0  0  0  0  0  0  0  0  0  0  0  0
    1.1599   -0.2046   -2.0689 C   0  0  0  0  0  0  0  0  0  0  0  0
    0.6163   -0.5172   -0.8172 N   0  0  0  0  0  0  0  0  0  0  0  0
    1.3151   -0.3870    0.3808 C   0  0  0  0  0  0  0  0  0  0  0  0
    0.5992   -0.7271    1.6855 C   0  0  0  0  0  0  0  0  0  0  0  0
   -0.3428    0.4126    2.0983 C   0  0  0  0  0  0  0  0  0  0  0  0
   -1.7120    0.3170    1.4386 C   0  0  0  0  0  0  0  0  0  0  0  0
   -2.3039   -1.0477    1.5423 N   0  0  0  0  0  0  0  0  0  0  0  0
   -3.0604   -1.6263    0.1204 S   0  0  0  0  0  6  0  0  0  0  0  0
   -3.7101   -2.8819    0.4240 O   0  0  0  0  0  0  0  0  0  0  0  0
   -2.0620   -1.5203   -0.9354 O   0  0  0  0  0  0  0  0  0  0  0  0
   -4.3318   -0.4223   -0.1599 C   0  0  0  0  0  0  0  0  0  0  0  0
   -5.2626   -0.1640    0.8624 C   0  0  0  0  0  0  0  0  0  0  0  0
   -6.2375    0.8141    0.6724 C   0  0  0  0  0  0  0  0  0  0  0  0
   -6.2769    1.5245   -0.5296 C   0  0  0  0  0  0  0  0  0  0  0  0
   -5.3626    1.2398   -1.5574 C   0  0  0  0  0  0  0  0  0  0  0  0
   -4.3780    0.2719   -1.3754 C   0  0  0  0  0  0  0  0  0  0  0  0
   -5.3684    1.8893   -2.7694 O   0  0  0  0  0  0  0  0  0  0  0  0
   -6.5915    2.6029   -2.9785 C   0  0  0  0  0  0  0  0  0  0  0  0
   -6.9820    3.3776   -1.7225 C   0  0  0  0  0  0  0  0  0  0  0  0
   -7.2496    2.4871   -0.6366 O   0  0  0  0  0  0  0  0  0  0  0  0
   -1.4687   -2.0511    2.2613 C   0  0  0  0  0  0  0  0  0  0  0  0
   -0.0703   -2.1072    1.6649 C   0  0  0  0  0  0  0  0  0  0  0  0
    2.5418    0.0594    0.4741 N   0  0  0  0  0  0  0  0  0  0  0  0
    3.0821    0.3773   -0.7270 C   0  0  0  0  0  0  0  0  0  0  0  0
    2.5079    0.2948   -1.9727 C   0  0  0  0  0  0  0  0  0  0  0  0
    3.3789    0.7302   -2.9310 N   0  0  0  0  0  0  0  0  0  0  0  0
    4.5049    1.0924   -2.3086 N   0  0  0  0  0  0  0  0  0  0  0  0
    4.3357    0.8540   -0.9801 N   0  0  0  0  0  0  0  0  0  0  0  0
    5.3952    1.1260   -0.0287 C   0  0  0  0  0  0  0  0  0  0  0  0
    6.3987   -0.0039    0.0164 C   0  0  0  0  0  0  0  0  0  0  0  0
    7.5778    0.0581   -0.7477 C   0  0  0  0  0  0  0  0  0  0  0  0
    8.4881   -1.0042   -0.7311 C   0  0  0  0  0  0  0  0  0  0  0  0
    8.2266   -2.1389    0.0425 C   0  0  0  0  0  0  0  0  0  0  0  0
    7.0545   -2.2047    0.7913 C   0  0  0  0  0  0  0  0  0  0  0  0
    6.7945   -3.3053    1.5132 F   0  0  0  0  0  0  0  0  0  0  0  0
    6.1414   -1.1512    0.7883 C   0  0  0  0  0  0  0  0  0  0  0  0
   -0.3219   -0.9099   -0.8657 H   0  0  0  0  0  0  0  0  0  0  0  0
    1.3758   -0.7679    2.4636 H   0  0  0  0  0  0  0  0  0  0  0  0
   -0.4629    0.3802    3.1904 H   0  0  0  0  0  0  0  0  0  0  0  0
    0.1054    1.3896    1.8721 H   0  0  0  0  0  0  0  0  0  0  0  0
   -2.4086    1.0179    1.9066 H   0  0  0  0  0  0  0  0  0  0  0  0
   -1.6174    0.6264    0.3934 H   0  0  0  0  0  0  0  0  0  0  0  0
   -5.2286   -0.7160    1.8028 H   0  0  0  0  0  0  0  0  0  0  0  0
   -6.9604    1.0278    1.4598 H   0  0  0  0  0  0  0  0  0  0  0  0
   -3.6719    0.0687   -2.1803 H   0  0  0  0  0  0  0  0  0  0  0  0
   -7.3715    1.8838   -3.2707 H   0  0  0  0  0  0  0  0  0  0  0  0
   -6.4434    3.2938   -3.8145 H   0  0  0  0  0  0  0  0  0  0  0  0
   -7.9040    3.9467   -1.9016 H   0  0  0  0  0  0  0  0  0  0  0  0
   -6.1965    4.0928   -1.4202 H   0  0  0  0  0  0  0  0  0  0  0  0
   -1.9311   -3.0448    2.2284 H   0  0  0  0  0  0  0  0  0  0  0  0
   -1.4325   -1.7874    3.3261 H   0  0  0  0  0  0  0  0  0  0  0  0
    0.5424   -2.8122    2.2524 H   0  0  0  0  0  0  0  0  0  0  0  0
   -0.1125   -2.5227    0.6486 H   0  0  0  0  0  0  0  0  0  0  0  0
    5.8692    2.0789   -0.3231 H   0  0  0  0  0  0  0  0  0  0  0  0
    4.9480    1.2701    0.9690 H   0  0  0  0  0  0  0  0  0  0  0  0
    7.7867    0.9284   -1.3756 H   0  0  0  0  0  0  0  0  0  0  0  0
    9.3933   -0.9503   -1.3377 H   0  0  0  0  0  0  0  0  0  0  0  0
    8.9219   -2.9742    0.0533 H   0  0  0  0  0  0  0  0  0  0  0  0
    5.2299   -1.2459    1.3762 H   0  0  0  0  0  0  0  0  0  0  0  0
  1  2  2  0
  2  3  1  0
  3  4  1  0
  4  5  1  0
  5  6  1  0
  6  7  1  0
  7  8  1  0
  8  9  1  0
  9 10  2  0
  9 11  2  0
  9 12  1  0
 12 13  2  0
 13 14  1  0
 14 15  2  0
 15 16  1  0
 16 17  2  0
 16 18  1  0
 18 19  1  0
 19 20  1  0
 20 21  1  0
  8 22  1  0
 22 23  1  0
  4 24  2  0
 24 25  1  0
 25 26  2  0
 26 27  1  0
 27 28  2  0
 28 29  1  0
 29 30  1  0
 30 31  1  0
 31 32  2  0
 32 33  1  0
 33 34  2  0
 34 35  1  0
 35 36  1  0
 35 37  2  0
 26  2  1  0
 37 31  1  0
 23  5  1  0
 29 25  1  0
 17 12  1  0
 21 15  1  0
  3 38  1  0
  5 39  1  0
  6 40  1  0
  6 41  1  0
  7 42  1  0
  7 43  1  0
 13 44  1  0
 14 45  1  0
 17 46  1  0
 19 47  1  0
 19 48  1  0
 20 49  1  0
 20 50  1  0
 22 51  1  0
 22 52  1  0
 23 53  1  0
 23 54  1  0
 30 55  1  0
 30 56  1  0
 32 57  1  0
 33 58  1  0
 34 59  1  0
 37 60  1  0
M  END
$$$$
