
     RDKit          3D

 46 49  0  0  0  0  0  0  0  0999 V2000
   -5.2967   -3.8118    0.8934 C   0  0  0  0  0  0  0  0  0  0  0  0
   -4.2313   -2.9238    1.2065 O   0  0  0  0  0  0  0  0  0  0  0  0
   -3.8287   -2.0694    0.2163 C   0  0  0  0  0  0  0  0  0  0  0  0
   -4.3799   -1.9766   -1.0618 C   0  0  0  0  0  0  0  0  0  0  0  0
   -3.8669   -1.0583   -1.9819 C   0  0  0  0  0  0  0  0  0  0  0  0
   -2.8052   -0.2253   -1.6282 C   0  0  0  0  0  0  0  0  0  0  0  0
   -2.2514   -0.3030   -0.3474 C   0  0  0  0  0  0  0  0  0  0  0  0
   -1.1373    0.5589    0.0279 C   0  0  0  0  0  0  0  0  0  0  0  0
    0.2118    0.4614   -0.2862 C   0  0  0  0  0  0  0  0  0  0  0  0
    0.8939   -0.5297   -1.1153 C   0  0  0  0  0  0  0  0  0  0  0  0
    0.3064   -1.4298   -1.7059 O   0  0  0  0  0  0  0  0  0  0  0  0
    2.2664   -0.3212   -1.1485 N   0  0  0  0  0  0  0  0  0  0  0  0
    3.0709   -1.0873   -1.9415 N   0  0  0  0  0  0  0  0  0  0  0  0
    4.3609   -0.9143   -1.9085 C   0  0  0  0  0  0  0  0  0  0  0  0
    5.1835   -1.7077   -2.9011 C   0  0  0  0  0  0  0  0  0  0  0  0
    5.0687   -0.0314   -0.9961 C   0  0  0  0  0  0  0  0  0  0  0  0
    4.9566    0.0566    0.3816 C   0  0  0  0  0  0  0  0  0  0  0  0
    5.8139    1.0556    0.9333 C   0  0  0  0  0  0  0  0  0  0  0  0
    6.5437    1.6737   -0.0480 C   0  0  0  0  0  0  0  0  0  0  0  0
    7.6954    2.9281    0.1677 Cl  0  0  0  0  0  0  0  0  0  0  0  0
    6.2248    1.0829   -1.5999 S   0  0  0  0  0  0  0  0  0  0  0  0
    0.8967    1.4777    0.3306 N   0  0  0  0  0  0  0  0  0  0  0  0
    0.0327    2.2094    1.0086 N   0  0  0  0  0  0  0  0  0  0  0  0
   -1.2247    1.7000    0.8310 N   0  0  0  0  0  0  0  0  0  0  0  0
   -2.3615    2.3331    1.3961 C   0  0  0  0  0  0  0  0  0  0  0  0
   -3.5958    1.8954    1.1475 N   0  0  0  0  0  0  0  0  0  0  0  0
   -4.4181    2.7733    1.8499 O   0  0  0  0  0  0  0  0  0  0  0  0
   -3.6721    3.7446    2.5094 N   0  0  0  0  0  0  0  0  0  0  0  0
   -2.3993    3.4655    2.2319 C   0  0  0  0  0  0  0  0  0  0  0  0
   -1.3506    4.1732    2.6947 N   0  0  0  0  0  0  0  0  0  0  0  0
   -2.7641   -1.2330    0.5662 C   0  0  0  0  0  0  0  0  0  0  0  0
   -5.0229   -4.4841    0.0735 H   0  0  0  0  0  0  0  0  0  0  0  0
   -6.2151   -3.2611    0.6646 H   0  0  0  0  0  0  0  0  0  0  0  0
   -5.4896   -4.4271    1.7775 H   0  0  0  0  0  0  0  0  0  0  0  0
   -5.2044   -2.6068   -1.3772 H   0  0  0  0  0  0  0  0  0  0  0  0
   -4.2923   -0.9971   -2.9804 H   0  0  0  0  0  0  0  0  0  0  0  0
   -2.4126    0.4735   -2.3627 H   0  0  0  0  0  0  0  0  0  0  0  0
    2.6411    0.4970   -0.6770 H   0  0  0  0  0  0  0  0  0  0  0  0
    5.4085   -1.0826   -3.7702 H   0  0  0  0  0  0  0  0  0  0  0  0
    4.6241   -2.5852   -3.2392 H   0  0  0  0  0  0  0  0  0  0  0  0
    6.1182   -2.0445   -2.4435 H   0  0  0  0  0  0  0  0  0  0  0  0
    4.2964   -0.5730    0.9687 H   0  0  0  0  0  0  0  0  0  0  0  0
    5.8890    1.2958    1.9867 H   0  0  0  0  0  0  0  0  0  0  0  0
   -0.4224    4.0623    2.2905 H   0  0  0  0  0  0  0  0  0  0  0  0
   -1.5220    5.0842    3.1079 H   0  0  0  0  0  0  0  0  0  0  0  0
   -2.3391   -1.3184    1.5635 H   0  0  0  0  0  0  0  0  0  0  0  0
  1  2  1  0
  2  3  1  0
  3  4  2  0
  4  5  1  0
  5  6  2  0
  6  7  1  0
  7  8  1  0
  8  9  2  0
  9 10  1  0
 10 11  2  0
 10 12  1  0
 12 13  1  0
 13 14  2  3
 14 15  1  0
 14 16  1  0
 16 17  2  0
 17 18  1  0
 18 19  2  0
 19 20  1  0
 19 21  1  0
  9 22  1  0
 22 23  2  0
 23 24  1  0
 24 25  1  0
 25 26  2  0
 26 27  1  0
 27 28  1  0
 28 29  2  0
 29 30  1  0
  7 31  2  0
 31  3  1  0
 24  8  1  0
 29 25  1  0
 21 16  1  0
  1 32  1  0
  1 33  1  0
  1 34  1  0
  4 35  1  0
  5 36  1  0
  6 37  1  0
 12 38  1  0
 15 39  1  0
 15 40  1  0
 15 41  1  0
 17 42  1  0
 18 43  1  0
 30 44  1  0
 30 45  1  0
 31 46  1  0
M  END
$$$$
