
     RDKit          3D

 34 35  0  0  0  0  0  0  0  0999 V2000
    2.3447   -0.8466    1.0811 C   0  0  0  0  0  0  0  0  0  0  0  0
    2.2886    0.6706    1.0399 C   0  0  0  0  0  0  0  0  0  0  0  0
    1.2058    1.3755    1.2278 N   0  0  0  0  0  0  0  0  0  0  0  0
   -0.0110    0.7499    1.3264 N   0  0  0  0  0  0  0  0  0  0  0  0
   -0.5426    0.0535    0.2299 C   0  0  0  0  0  0  0  0  0  0  0  0
    0.1037   -0.2817   -0.7558 O   0  0  0  0  0  0  0  0  0  0  0  0
   -2.0068   -0.2665    0.4499 C   0  0  0  0  0  0  0  0  0  0  0  0
   -2.7019   -1.0137   -0.6869 C   0  0  0  0  0  0  0  0  0  0  0  0
   -2.0732   -2.3627   -1.0287 C   0  0  0  0  0  0  0  0  0  0  0  0
   -2.7713   -0.2003   -1.8684 O   0  0  0  0  0  0  0  0  0  0  0  0
   -4.1304    0.2175   -1.9695 C   0  0  0  0  0  0  0  0  0  0  0  0
   -4.8900   -0.9070   -1.3260 C   0  0  0  0  0  0  0  0  0  0  0  0
   -4.0542   -1.2755   -0.2289 O   0  0  0  0  0  0  0  0  0  0  0  0
    3.5548    1.3657    0.7997 C   0  0  0  0  0  0  0  0  0  0  0  0
    4.7709    0.8402    0.3946 C   0  0  0  0  0  0  0  0  0  0  0  0
    5.7888    1.8308    0.2678 C   0  0  0  0  0  0  0  0  0  0  0  0
    5.3233    3.0871    0.5773 C   0  0  0  0  0  0  0  0  0  0  0  0
    3.6726    3.0680    1.0141 S   0  0  0  0  0  0  0  0  0  0  0  0
    1.4614   -1.2807    1.5540 H   0  0  0  0  0  0  0  0  0  0  0  0
    2.4425   -1.2377    0.0645 H   0  0  0  0  0  0  0  0  0  0  0  0
    3.2107   -1.1718    1.6665 H   0  0  0  0  0  0  0  0  0  0  0  0
   -0.6854    1.3149    1.8366 H   0  0  0  0  0  0  0  0  0  0  0  0
   -2.5281    0.6851    0.6202 H   0  0  0  0  0  0  0  0  0  0  0  0
   -2.0932   -0.8457    1.3784 H   0  0  0  0  0  0  0  0  0  0  0  0
   -1.9721   -2.9887   -0.1360 H   0  0  0  0  0  0  0  0  0  0  0  0
   -2.7089   -2.9130   -1.7325 H   0  0  0  0  0  0  0  0  0  0  0  0
   -1.0981   -2.2614   -1.5114 H   0  0  0  0  0  0  0  0  0  0  0  0
   -4.4073    0.3882   -3.0126 H   0  0  0  0  0  0  0  0  0  0  0  0
   -4.2414    1.1514   -1.4081 H   0  0  0  0  0  0  0  0  0  0  0  0
   -4.9807   -1.7702   -1.9941 H   0  0  0  0  0  0  0  0  0  0  0  0
   -5.8829   -0.6156   -0.9749 H   0  0  0  0  0  0  0  0  0  0  0  0
    4.9329   -0.2103    0.1853 H   0  0  0  0  0  0  0  0  0  0  0  0
    6.8081    1.6311   -0.0396 H   0  0  0  0  0  0  0  0  0  0  0  0
    5.8707    4.0195    0.5648 H   0  0  0  0  0  0  0  0  0  0  0  0
  1  2  1  0
  2  3  2  3
  3  4  1  0
  4  5  1  0
  5  6  2  0
  5  7  1  0
  7  8  1  0
  8  9  1  0
  8 10  1  0
 10 11  1  0
 11 12  1  0
 12 13  1  0
  2 14  1  0
 14 15  2  0
 15 16  1  0
 16 17  2  0
 17 18  1  0
 13  8  1  0
 18 14  1  0
  1 19  1  0
  1 20  1  0
  1 21  1  0
  4 22  1  0
  7 23  1  0
  7 24  1  0
  9 25  1  0
  9 26  1  0
  9 27  1  0
 11 28  1  0
 11 29  1  0
 12 30  1  0
 12 31  1  0
 15 32  1  0
 16 33  1  0
 17 34  1  0
M  END
$$$$
