
     RDKit          3D

 50 52  0  0  0  0  0  0  0  0999 V2000
    7.9084    2.4155   -1.4358 C   0  0  0  0  0  0  0  0  0  0  0  0
    7.0156    2.3204   -0.3336 O   0  0  0  0  0  0  0  0  0  0  0  0
    5.7542    1.8647   -0.5961 C   0  0  0  0  0  0  0  0  0  0  0  0
    4.9160    1.7861    0.5165 C   0  0  0  0  0  0  0  0  0  0  0  0
    3.5956    1.3369    0.3940 C   0  0  0  0  0  0  0  0  0  0  0  0
    3.0953    0.9571   -0.8496 C   0  0  0  0  0  0  0  0  0  0  0  0
    1.7818    0.4971   -1.0678 N   0  0  0  0  0  0  0  0  0  0  0  0
    0.7894    0.2797   -0.1214 C   0  0  0  0  0  0  0  0  0  0  0  0
    0.8988    0.4310    1.0958 O   0  0  0  0  0  0  0  0  0  0  0  0
   -0.5420   -0.2152   -0.7462 C   0  0  0  0  0  0  0  0  0  0  0  0
   -1.5804   -0.1936    0.2718 N   0  0  0  0  0  0  0  0  0  0  0  0
   -2.8643    0.2018   -0.0165 C   0  0  0  0  0  0  0  0  0  0  0  0
   -3.2306    0.5186   -1.1434 O   0  0  0  0  0  0  0  0  0  0  0  0
   -3.8105    0.2716    1.1315 C   0  0  0  0  0  0  0  0  0  0  0  0
   -3.6496   -0.5151    2.2780 C   0  0  0  0  0  0  0  0  0  0  0  0
   -4.5653   -0.4152    3.3296 C   0  0  0  0  0  0  0  0  0  0  0  0
   -5.6537    0.4626    3.2460 C   0  0  0  0  0  0  0  0  0  0  0  0
   -6.6274    0.5570    4.3837 C   0  0  0  0  0  0  0  0  0  0  0  0
   -5.8192    1.2360    2.0917 C   0  0  0  0  0  0  0  0  0  0  0  0
   -4.9059    1.1380    1.0389 C   0  0  0  0  0  0  0  0  0  0  0  0
   -0.4269   -1.6050   -1.3497 C   0  0  0  0  0  0  0  0  0  0  0  0
   -1.0902   -1.8936   -2.5532 C   0  0  0  0  0  0  0  0  0  0  0  0
   -1.0060   -3.1636   -3.1259 C   0  0  0  0  0  0  0  0  0  0  0  0
   -0.2679   -4.1641   -2.4981 C   0  0  0  0  0  0  0  0  0  0  0  0
    0.3771   -3.8998   -1.2918 C   0  0  0  0  0  0  0  0  0  0  0  0
    0.2926   -2.6310   -0.7155 C   0  0  0  0  0  0  0  0  0  0  0  0
    3.9376    1.0374   -1.9656 C   0  0  0  0  0  0  0  0  0  0  0  0
    5.2587    1.4877   -1.8418 C   0  0  0  0  0  0  0  0  0  0  0  0
    8.0914    1.4318   -1.8807 H   0  0  0  0  0  0  0  0  0  0  0  0
    7.5395    3.1252   -2.1837 H   0  0  0  0  0  0  0  0  0  0  0  0
    8.8640    2.7939   -1.0605 H   0  0  0  0  0  0  0  0  0  0  0  0
    5.2908    2.0790    1.4947 H   0  0  0  0  0  0  0  0  0  0  0  0
    2.9898    1.3021    1.2933 H   0  0  0  0  0  0  0  0  0  0  0  0
    1.5518    0.2500   -2.0241 H   0  0  0  0  0  0  0  0  0  0  0  0
   -0.7994    0.5099   -1.5296 H   0  0  0  0  0  0  0  0  0  0  0  0
   -1.2541   -0.2184    1.2311 H   0  0  0  0  0  0  0  0  0  0  0  0
   -2.8353   -1.2285    2.3620 H   0  0  0  0  0  0  0  0  0  0  0  0
   -4.4297   -1.0338    4.2147 H   0  0  0  0  0  0  0  0  0  0  0  0
   -7.0921   -0.4176    4.5642 H   0  0  0  0  0  0  0  0  0  0  0  0
   -6.1137    0.8857    5.2928 H   0  0  0  0  0  0  0  0  0  0  0  0
   -7.4260    1.2753    4.1707 H   0  0  0  0  0  0  0  0  0  0  0  0
   -6.6606    1.9193    1.9999 H   0  0  0  0  0  0  0  0  0  0  0  0
   -5.0498    1.7424    0.1455 H   0  0  0  0  0  0  0  0  0  0  0  0
   -1.6958   -1.1313   -3.0424 H   0  0  0  0  0  0  0  0  0  0  0  0
   -1.5282   -3.3746   -4.0558 H   0  0  0  0  0  0  0  0  0  0  0  0
   -0.2073   -5.1546   -2.9418 H   0  0  0  0  0  0  0  0  0  0  0  0
    0.9404   -4.6849   -0.7938 H   0  0  0  0  0  0  0  0  0  0  0  0
    0.7920   -2.4548    0.2360 H   0  0  0  0  0  0  0  0  0  0  0  0
    3.5818    0.7499   -2.9520 H   0  0  0  0  0  0  0  0  0  0  0  0
    5.8689    1.5312   -2.7373 H   0  0  0  0  0  0  0  0  0  0  0  0
  1  2  1  0
  2  3  1  0
  3  4  2  0
  4  5  1  0
  5  6  2  0
  6  7  1  0
  7  8  1  0
  8  9  2  0
  8 10  1  0
 10 11  1  0
 11 12  1  0
 12 13  2  0
 12 14  1  0
 14 15  2  0
 15 16  1  0
 16 17  2  0
 17 18  1  0
 17 19  1  0
 19 20  2  0
 10 21  1  0
 21 22  2  0
 22 23  1  0
 23 24  2  0
 24 25  1  0
 25 26  2  0
  6 27  1  0
 27 28  2  0
 28  3  1  0
 20 14  1  0
 26 21  1  0
  1 29  1  0
  1 30  1  0
  1 31  1  0
  4 32  1  0
  5 33  1  0
  7 34  1  0
 10 35  1  0
 11 36  1  0
 15 37  1  0
 16 38  1  0
 18 39  1  0
 18 40  1  0
 18 41  1  0
 19 42  1  0
 20 43  1  0
 22 44  1  0
 23 45  1  0
 24 46  1  0
 25 47  1  0
 26 48  1  0
 27 49  1  0
 28 50  1  0
M  END
$$$$
