
     RDKit          3D

 51 55  0  0  0  0  0  0  0  0999 V2000
    7.4011    0.0095    4.1398 F   0  0  0  0  0  0  0  0  0  0  0  0
    6.6751    0.0823    3.0163 C   0  0  0  0  0  0  0  0  0  0  0  0
    5.5039    0.8287    3.0045 C   0  0  0  0  0  0  0  0  0  0  0  0
    4.7476    0.9040    1.8341 C   0  0  0  0  0  0  0  0  0  0  0  0
    5.1633    0.2334    0.6741 C   0  0  0  0  0  0  0  0  0  0  0  0
    4.3414    0.3058   -0.5933 C   0  0  0  0  0  0  0  0  0  0  0  0
    3.1385   -0.6592   -0.6051 C   0  0  0  0  0  0  0  0  0  0  0  0
    2.0039   -0.2388    0.2380 N   0  0  0  0  0  0  0  0  0  0  0  0
    1.0005   -1.3149    0.3858 C   0  0  0  0  0  0  0  0  0  0  0  0
   -0.1694   -1.2708   -0.6216 C   0  0  0  0  0  0  0  0  0  0  0  0
   -0.8786    0.0175   -0.5907 N   0  0  0  0  0  0  0  0  0  0  0  0
   -2.2683    0.0860   -0.6514 C   0  0  0  0  0  0  0  0  0  0  0  0
   -2.8714    0.9825    0.0917 N   0  0  0  0  0  0  0  0  0  0  0  0
   -4.2748    1.0818    0.1129 C   0  0  0  0  0  0  0  0  0  0  0  0
   -4.8589    2.0454    0.9376 C   0  0  0  0  0  0  0  0  0  0  0  0
   -6.2483    2.1789    1.0065 C   0  0  0  0  0  0  0  0  0  0  0  0
   -7.0696    1.3445    0.2480 C   0  0  0  0  0  0  0  0  0  0  0  0
   -6.5072    0.3751   -0.5833 C   0  0  0  0  0  0  0  0  0  0  0  0
   -5.1153    0.2538   -0.6413 C   0  0  0  0  0  0  0  0  0  0  0  0
   -4.4655   -0.6823   -1.4615 N   0  0  0  0  0  0  0  0  0  0  0  0
   -5.0056   -1.6019   -2.3294 C   0  0  0  0  0  0  0  0  0  0  0  0
   -3.9722   -2.2447   -2.9736 C   0  0  0  0  0  0  0  0  0  0  0  0
   -2.7662   -1.7073   -2.4670 C   0  0  0  0  0  0  0  0  0  0  0  0
   -3.0891   -0.7696   -1.5004 C   0  0  0  0  0  0  0  0  0  0  0  0
   -0.1343    1.1182    0.0486 C   0  0  0  0  0  0  0  0  0  0  0  0
    1.3724    1.0054   -0.2632 C   0  0  0  0  0  0  0  0  0  0  0  0
    6.3483   -0.5189    0.7089 C   0  0  0  0  0  0  0  0  0  0  0  0
    7.1041   -0.5924    1.8800 C   0  0  0  0  0  0  0  0  0  0  0  0
    5.1837    1.3428    3.9046 H   0  0  0  0  0  0  0  0  0  0  0  0
    3.8254    1.4804    1.8333 H   0  0  0  0  0  0  0  0  0  0  0  0
    4.9884    0.0535   -1.4441 H   0  0  0  0  0  0  0  0  0  0  0  0
    4.0320    1.3425   -0.7712 H   0  0  0  0  0  0  0  0  0  0  0  0
    3.4968   -1.6420   -0.2712 H   0  0  0  0  0  0  0  0  0  0  0  0
    2.7990   -0.7885   -1.6413 H   0  0  0  0  0  0  0  0  0  0  0  0
    1.4719   -2.3049    0.3584 H   0  0  0  0  0  0  0  0  0  0  0  0
    0.5821   -1.2255    1.3974 H   0  0  0  0  0  0  0  0  0  0  0  0
    0.2153   -1.4407   -1.6335 H   0  0  0  0  0  0  0  0  0  0  0  0
   -0.8498   -2.0934   -0.3736 H   0  0  0  0  0  0  0  0  0  0  0  0
   -4.2213    2.6945    1.5317 H   0  0  0  0  0  0  0  0  0  0  0  0
   -6.6868    2.9340    1.6537 H   0  0  0  0  0  0  0  0  0  0  0  0
   -8.1502    1.4518    0.3044 H   0  0  0  0  0  0  0  0  0  0  0  0
   -7.1663   -0.2596   -1.1658 H   0  0  0  0  0  0  0  0  0  0  0  0
   -6.0733   -1.7203   -2.4426 H   0  0  0  0  0  0  0  0  0  0  0  0
   -4.0776   -3.0075   -3.7343 H   0  0  0  0  0  0  0  0  0  0  0  0
   -1.7699   -1.9802   -2.7840 H   0  0  0  0  0  0  0  0  0  0  0  0
   -0.4924    2.0806   -0.3368 H   0  0  0  0  0  0  0  0  0  0  0  0
   -0.2995    1.1076    1.1332 H   0  0  0  0  0  0  0  0  0  0  0  0
    1.4879    1.0815   -1.3531 H   0  0  0  0  0  0  0  0  0  0  0  0
    1.8884    1.8648    0.1788 H   0  0  0  0  0  0  0  0  0  0  0  0
    6.6897   -1.0522   -0.1753 H   0  0  0  0  0  0  0  0  0  0  0  0
    8.0211   -1.1713    1.9139 H   0  0  0  0  0  0  0  0  0  0  0  0
  1  2  1  0
  2  3  2  0
  3  4  1  0
  4  5  2  0
  5  6  1  0
  6  7  1  0
  7  8  1  0
  8  9  1  0
  9 10  1  0
 10 11  1  0
 11 12  1  0
 12 13  2  0
 13 14  1  0
 14 15  2  0
 15 16  1  0
 16 17  2  0
 17 18  1  0
 18 19  2  0
 19 20  1  0
 20 21  1  0
 21 22  2  0
 22 23  1  0
 23 24  2  0
 11 25  1  0
 25 26  1  0
  5 27  1  0
 27 28  2  0
 28  2  1  0
 26  8  1  0
 24 12  1  0
 19 14  1  0
 24 20  1  0
  3 29  1  0
  4 30  1  0
  6 31  1  0
  6 32  1  0
  7 33  1  0
  7 34  1  0
  9 35  1  0
  9 36  1  0
 10 37  1  0
 10 38  1  0
 15 39  1  0
 16 40  1  0
 17 41  1  0
 18 42  1  0
 21 43  1  0
 22 44  1  0
 23 45  1  0
 25 46  1  0
 25 47  1  0
 26 48  1  0
 26 49  1  0
 27 50  1  0
 28 51  1  0
M  END
$$$$
