
     RDKit          3D

 57 59  0  0  0  0  0  0  0  0999 V2000
    5.7710   -0.6877    1.5933 C   0  0  0  0  0  0  0  0  0  0  0  0
    4.7919    0.1869    0.8173 C   0  0  0  0  0  0  0  0  0  0  0  0
    5.3801    0.3967   -0.9176 S   0  0  0  0  0  0  0  0  0  0  0  0
    6.1175    2.0593   -0.8116 C   0  0  0  0  0  0  0  0  0  0  0  0
    7.3435    2.1346    0.0584 C   0  0  0  0  0  0  0  0  0  0  0  0
    8.5291    1.4860   -0.3193 C   0  0  0  0  0  0  0  0  0  0  0  0
    9.6659    1.5575    0.4871 C   0  0  0  0  0  0  0  0  0  0  0  0
    9.6329    2.2816    1.6766 C   0  0  0  0  0  0  0  0  0  0  0  0
    8.4645    2.9366    2.0600 C   0  0  0  0  0  0  0  0  0  0  0  0
    7.3258    2.8659    1.2554 C   0  0  0  0  0  0  0  0  0  0  0  0
    3.3790   -0.4244    0.8296 C   0  0  0  0  0  0  0  0  0  0  0  0
    3.0581   -1.3278    1.6002 O   0  0  0  0  0  0  0  0  0  0  0  0
    2.5050    0.2300   -0.0445 N   0  0  0  0  0  0  0  0  0  0  0  0
    1.2209   -0.1784   -0.3071 N   0  0  0  0  0  0  0  0  0  0  0  0
    0.4981   -0.5657    0.6973 C   0  0  0  0  0  0  0  0  0  0  0  0
   -0.8789   -1.0678    0.5125 C   0  0  0  0  0  0  0  0  0  0  0  0
   -1.4485   -1.1606   -0.7599 C   0  0  0  0  0  0  0  0  0  0  0  0
   -2.7542   -1.6413   -0.9121 C   0  0  0  0  0  0  0  0  0  0  0  0
   -3.4909   -2.0334    0.2069 C   0  0  0  0  0  0  0  0  0  0  0  0
   -4.7738   -2.5079    0.2032 O   0  0  0  0  0  0  0  0  0  0  0  0
   -5.3526   -2.8512   -1.0503 C   0  0  0  0  0  0  0  0  0  0  0  0
   -5.9721   -1.6818   -1.8215 C   0  0  0  0  0  0  0  0  0  0  0  0
   -6.2325   -1.7569   -3.0196 O   0  0  0  0  0  0  0  0  0  0  0  0
   -6.2345   -0.5712   -1.0555 N   0  0  0  0  0  0  0  0  0  0  0  0
   -6.9472    0.5730   -1.5685 C   0  0  0  0  0  0  0  0  0  0  0  0
   -8.3850    0.4165   -1.2428 C   0  0  0  0  0  0  0  0  0  0  0  0
   -9.4412   -0.1880   -1.8933 C   0  0  0  0  0  0  0  0  0  0  0  0
  -10.5760   -0.0059   -1.0677 C   0  0  0  0  0  0  0  0  0  0  0  0
  -10.1404    0.6934    0.0331 C   0  0  0  0  0  0  0  0  0  0  0  0
   -8.8104    0.9519   -0.0614 O   0  0  0  0  0  0  0  0  0  0  0  0
   -2.9158   -1.9293    1.4779 C   0  0  0  0  0  0  0  0  0  0  0  0
   -1.6122   -1.4521    1.6356 C   0  0  0  0  0  0  0  0  0  0  0  0
    6.7768   -0.2598    1.6197 H   0  0  0  0  0  0  0  0  0  0  0  0
    5.8365   -1.6958    1.1681 H   0  0  0  0  0  0  0  0  0  0  0  0
    5.4423   -0.8003    2.6330 H   0  0  0  0  0  0  0  0  0  0  0  0
    4.7076    1.1662    1.3013 H   0  0  0  0  0  0  0  0  0  0  0  0
    5.3475    2.7622   -0.4756 H   0  0  0  0  0  0  0  0  0  0  0  0
    6.3902    2.3718   -1.8262 H   0  0  0  0  0  0  0  0  0  0  0  0
    8.5708    0.9137   -1.2443 H   0  0  0  0  0  0  0  0  0  0  0  0
   10.5766    1.0455    0.1862 H   0  0  0  0  0  0  0  0  0  0  0  0
   10.5187    2.3360    2.3041 H   0  0  0  0  0  0  0  0  0  0  0  0
    8.4410    3.5043    2.9868 H   0  0  0  0  0  0  0  0  0  0  0  0
    6.4256    3.3875    1.5725 H   0  0  0  0  0  0  0  0  0  0  0  0
    2.9595    0.6496   -0.8549 H   0  0  0  0  0  0  0  0  0  0  0  0
    0.8567   -0.5161    1.7400 H   0  0  0  0  0  0  0  0  0  0  0  0
   -0.8823   -0.8615   -1.6392 H   0  0  0  0  0  0  0  0  0  0  0  0
   -3.1589   -1.6860   -1.9184 H   0  0  0  0  0  0  0  0  0  0  0  0
   -4.6439   -3.3904   -1.6895 H   0  0  0  0  0  0  0  0  0  0  0  0
   -6.1735   -3.5456   -0.8368 H   0  0  0  0  0  0  0  0  0  0  0  0
   -6.1081   -0.6460   -0.0521 H   0  0  0  0  0  0  0  0  0  0  0  0
   -6.5323    1.4642   -1.0869 H   0  0  0  0  0  0  0  0  0  0  0  0
   -6.7998    0.6624   -2.6497 H   0  0  0  0  0  0  0  0  0  0  0  0
   -9.3878   -0.6998   -2.8448 H   0  0  0  0  0  0  0  0  0  0  0  0
  -11.5864   -0.3435   -1.2515 H   0  0  0  0  0  0  0  0  0  0  0  0
  -10.6258    1.0638    0.9253 H   0  0  0  0  0  0  0  0  0  0  0  0
   -3.4858   -2.2306    2.3540 H   0  0  0  0  0  0  0  0  0  0  0  0
   -1.1826   -1.3903    2.6320 H   0  0  0  0  0  0  0  0  0  0  0  0
  1  2  1  0
  2  3  1  0
  3  4  1  0
  4  5  1  0
  5  6  2  0
  6  7  1  0
  7  8  2  0
  8  9  1  0
  9 10  2  0
  2 11  1  0
 11 12  2  0
 11 13  1  0
 13 14  1  0
 14 15  2  3
 15 16  1  0
 16 17  2  0
 17 18  1  0
 18 19  2  0
 19 20  1  0
 20 21  1  0
 21 22  1  0
 22 23  2  0
 22 24  1  0
 24 25  1  0
 25 26  1  0
 26 27  2  0
 27 28  1  0
 28 29  2  0
 29 30  1  0
 19 31  1  0
 31 32  2  0
 10  5  1  0
 32 16  1  0
 30 26  1  0
  1 33  1  0
  1 34  1  0
  1 35  1  0
  2 36  1  0
  4 37  1  0
  4 38  1  0
  6 39  1  0
  7 40  1  0
  8 41  1  0
  9 42  1  0
 10 43  1  0
 13 44  1  0
 15 45  1  0
 17 46  1  0
 18 47  1  0
 21 48  1  0
 21 49  1  0
 24 50  1  0
 25 51  1  0
 25 52  1  0
 27 53  1  0
 28 54  1  0
 29 55  1  0
 31 56  1  0
 32 57  1  0
M  END
$$$$
